data_functionalizedCrystal
_audit_creation_method	'MofGen! by Chris Wilmer'
_symmetry_space_group_name_H-M	'P1'
_symmetry_Int_Tables_number	1
_symmetry_cell_setting	triclinic
loop_
_symmetry_equiv_pos_as_xyz
  x,y,z
_cell_length_a	29.839134
_cell_length_b	25.639240
_cell_length_c	25.639233
_cell_angle_alpha	90.020815
_cell_angle_beta	89.976874
_cell_angle_gamma	89.961977
loop_
_atom_site_label
_atom_site_type_symbol
_atom_site_fract_x
_atom_site_fract_y
_atom_site_fract_z
Zn1	Zn	0.686719	0.208286	-0.295748
Zn2	Zn	1.186719	0.708286	0.204252
Zn3	Zn	0.686648	0.295705	-0.208309
Zn4	Zn	1.186648	0.795705	0.291691
Zn5	Zn	0.611601	0.208277	-0.208311
Zn6	Zn	1.111601	0.708277	0.291689
Zn7	Zn	0.611547	0.295684	-0.295698
Zn8	Zn	1.111547	0.795684	0.204302
O9	O	0.649129	0.251988	-0.252016
O10	O	1.149129	0.751988	0.247984
O11	O	0.749577	0.219895	-0.284170
O12	O	1.249577	0.719895	0.215830
O13	O	0.676685	0.284112	-0.135144
O14	O	1.176685	0.784112	0.364856
O15	O	0.621617	0.135113	-0.219931
O16	O	1.121617	0.635113	0.280069
O17	O	0.749524	0.284121	-0.219929
O18	O	1.249524	0.784121	0.280071
O19	O	0.676807	0.135120	-0.284171
O20	O	1.176807	0.635120	0.215829
O21	O	0.621548	0.219880	-0.135145
O22	O	1.121548	0.719880	0.364855
O23	O	0.548726	0.219860	-0.219882
O24	O	1.048726	0.719860	0.280118
O25	O	0.621527	0.284086	-0.368870
O26	O	1.121527	0.784086	0.131130
O27	O	0.548687	0.284078	-0.284085
O28	O	1.048687	0.784078	0.215915
O29	O	0.676755	0.219875	-0.368907
O30	O	1.176755	0.719875	0.131093
O31	O	0.676633	0.368867	-0.219880
O32	O	1.176633	0.868867	0.280120
O33	O	0.621458	0.368852	-0.284084
O34	O	1.121458	0.868852	0.215916
C35	C	0.532406	0.251966	-0.251979
C36	C	1.032406	0.751966	0.248021
C37	C	0.482472	0.251969	-0.251975
C38	C	0.982472	0.751969	0.248025
C39	C	0.649044	0.387831	-0.251988
C40	C	1.149044	0.887831	0.248012
C41	C	0.649049	0.445945	-0.251993
C42	C	1.149049	0.945945	0.248007
C43	C	0.649143	0.251979	-0.388389
C44	C	1.149143	0.751979	0.111611
C45	C	0.649149	0.251975	-0.446504
C46	C	1.149149	0.751975	0.053496
C47	C	0.172818	0.285476	-0.285406
C48	C	0.672818	0.785476	0.214594
C49	C	-0.014856	0.285490	-0.285429
C50	C	0.485144	0.785490	0.214571
O51	O	-0.039130	0.313954	-0.313831
O52	O	0.460870	0.813954	0.186169
N53	N	-0.038313	0.252007	-0.252056
N54	N	0.461687	0.752007	0.247944
C55	C	-0.014850	0.218516	-0.218677
C56	C	0.485150	0.718516	0.281323
O57	O	-0.039109	0.190033	-0.190295
O58	O	0.460891	0.690033	0.309705
C59	C	0.172822	0.218499	-0.218657
C60	C	0.672822	0.718499	0.281343
C61	C	0.196278	0.251988	-0.252028
C62	C	0.696278	0.751988	0.247972
C63	C	0.196273	0.318962	-0.318775
C64	C	0.696273	0.818962	0.181225
C65	C	0.243188	0.318960	-0.318767
C66	C	0.743188	0.818960	0.181233
C67	C	0.266648	0.285472	-0.285390
C68	C	0.766648	0.785472	0.214610
C69	C	0.243193	0.251986	-0.252020
C70	C	0.743193	0.751986	0.247980
C71	C	0.196285	0.185005	-0.185280
C72	C	0.696285	0.685005	0.314720
C73	C	0.243206	0.185003	-0.185279
C74	C	0.743206	0.685003	0.314721
C75	C	0.266661	0.218492	-0.218651
C76	C	0.766661	0.718492	0.281349
C77	C	0.313568	0.218496	-0.218634
C78	C	0.813568	0.718496	0.281366
N79	N	0.337026	0.251979	-0.252008
N80	N	0.837026	0.751979	0.247992
C81	C	0.313566	0.285467	-0.285385
C82	C	0.813566	0.785467	0.214615
C83	C	-0.113381	0.218528	-0.218689
C84	C	0.386619	0.718528	0.281311
C85	C	-0.160299	0.218533	-0.218693
C86	C	0.339701	0.718533	0.281307
C87	C	-0.160301	0.285507	-0.285447
C88	C	0.339699	0.785507	0.214553
C89	C	-0.113382	0.285504	-0.285439
C90	C	0.386618	0.785504	0.214561
C91	C	-0.089923	0.252011	-0.252062
C92	C	0.410077	0.752011	0.247938
C93	C	0.412092	0.285460	-0.285365
C94	C	0.912092	0.785460	0.214635
C95	C	0.459012	0.285457	-0.285353
C96	C	0.959012	0.785457	0.214647
C97	C	0.459010	0.218481	-0.218602
C98	C	0.959010	0.718481	0.281398
C99	C	0.412094	0.218486	-0.218612
C100	C	0.912094	0.718486	0.281388
C101	C	0.388637	0.251978	-0.251998
C102	C	0.888637	0.751978	0.248002
O103	O	0.337871	0.190043	-0.190252
O104	O	0.837871	0.690043	0.309748
O105	O	0.337833	0.313937	-0.313771
O106	O	0.837833	0.813937	0.186229
C107	C	0.125902	0.285478	-0.285414
C108	C	0.625902	0.785478	0.214586
C109	C	0.102447	0.251992	-0.252045
C110	C	0.602447	0.751992	0.247955
C111	C	0.125907	0.218504	-0.218667
C112	C	0.625907	0.718504	0.281333
C113	C	0.055529	0.251997	-0.252049
C114	C	0.555529	0.751997	0.247951
C115	C	0.032069	0.285485	-0.285427
C116	C	0.532069	0.785485	0.214573
C117	C	0.055527	0.318968	-0.318800
C118	C	0.555527	0.818968	0.181200
C119	C	0.102442	0.318966	-0.318792
C120	C	0.602442	0.818966	0.181208
C121	C	0.102449	0.185021	-0.185294
C122	C	0.602449	0.685021	0.314706
C123	C	0.055533	0.185026	-0.185304
C124	C	0.555533	0.685026	0.314696
C125	C	0.032073	0.218514	-0.218682
C126	C	0.532073	0.718514	0.281318
C127	C	0.766307	0.252011	-0.252055
C128	C	1.266307	0.752011	0.247945
C129	C	0.816241	0.252021	-0.252071
C130	C	1.316241	0.752021	0.247929
C131	C	0.677896	0.806303	-0.218622
C132	C	1.177896	1.306303	0.281378
C133	C	0.677910	0.860907	-0.218627
C134	C	1.177910	1.360907	0.281373
O135	O	0.702378	0.889140	-0.190239
O136	O	1.202378	1.389140	0.309761
N137	N	0.649165	0.888227	-0.252028
N138	N	1.149165	1.388227	0.247972
C139	C	0.620407	0.860940	-0.285430
C140	C	1.120407	1.360940	0.214570
O141	O	0.595959	0.889192	-0.313840
O142	O	1.095959	1.389192	0.186160
C143	C	0.620396	0.806337	-0.285427
C144	C	1.120396	1.306337	0.214573
C145	C	0.649140	0.779020	-0.252020
C146	C	1.149140	1.279020	0.247980
C147	C	0.706638	0.778986	-0.185219
C148	C	1.206638	1.278986	0.314781
C149	C	0.706624	0.724385	-0.185213
C150	C	1.206624	1.224385	0.314787
C151	C	0.677868	0.697102	-0.218611
C152	C	1.177868	1.197102	0.281389
C153	C	0.649126	0.724419	-0.252015
C154	C	1.149126	1.224419	0.247985
C155	C	0.591641	0.779050	-0.318831
C156	C	1.091641	1.279050	0.181169
C157	C	0.591633	0.724443	-0.318825
C158	C	1.091633	1.224443	0.181175
C159	C	0.620377	0.697126	-0.285419
C160	C	1.120377	1.197126	0.214581
C161	C	0.620355	0.642535	-0.285407
C162	C	1.120355	1.142535	0.214593
N163	N	0.649100	0.615215	-0.252006
N164	N	1.149100	1.115215	0.247994
C165	C	0.677856	0.642499	-0.218609
C166	C	1.177856	1.142499	0.281391
C167	C	0.620433	0.975611	-0.285434
C168	C	1.120433	1.475611	0.214566
C169	C	0.620442	1.030213	-0.285434
C170	C	1.120442	1.530213	0.214566
C171	C	0.677946	1.030177	-0.218632
C172	C	1.177946	1.530177	0.281368
C173	C	0.677934	0.975573	-0.218630
C174	C	1.177934	1.475573	0.281370
C175	C	0.649179	0.948291	-0.252033
C176	C	1.149179	1.448291	0.247967
C177	C	0.677824	0.527834	-0.218599
C178	C	1.177824	1.027834	0.281401
C179	C	0.677805	0.473228	-0.218595
C180	C	1.177805	0.973228	0.281405
C181	C	0.620304	0.473269	-0.285398
C182	C	1.120304	0.973269	0.214602
C183	C	0.620320	0.527870	-0.285401
C184	C	1.120320	1.027870	0.214599
C185	C	0.649084	0.555151	-0.251999
C186	C	1.149084	1.055151	0.248001
O187	O	0.595901	0.614268	-0.313783
O188	O	1.095901	1.114268	0.186217
O189	O	0.702305	0.614240	-0.190207
O190	O	1.202305	1.114240	0.309793
C191	C	0.649209	1.115615	-0.252048
C192	C	1.149209	1.615615	0.247952
C193	C	0.649200	1.057501	-0.252038
C194	C	1.149200	1.557501	0.247962
C195	C	0.677943	0.218441	-0.806892
C196	C	1.177943	0.718441	-0.306892
C197	C	0.677949	0.218427	-0.861496
C198	C	1.177949	0.718427	-0.361496
O199	O	0.702394	0.189976	-0.889754
O200	O	1.202394	0.689976	-0.389754
N201	N	0.649199	0.251853	-0.888786
N202	N	1.149199	0.751853	-0.388786
C203	C	0.620438	0.285291	-0.861469
C204	C	1.120438	0.785291	-0.361469
O205	O	0.595985	0.313721	-0.889696
O206	O	1.095985	0.813721	-0.389696
C207	C	0.620431	0.285303	-0.806866
C208	C	1.120431	0.785303	-0.306866
C209	C	0.649186	0.251878	-0.779579
C210	C	1.149186	0.751878	-0.279579
C211	C	0.706696	0.185019	-0.779604
C212	C	1.206696	0.685019	-0.279604
C213	C	0.706690	0.185034	-0.725004
C214	C	1.206690	0.685034	-0.225004
C215	C	0.677933	0.218472	-0.697691
C216	C	1.177933	0.718472	-0.197691
C217	C	0.649181	0.251894	-0.724978
C218	C	1.149181	0.751894	-0.224978
C219	C	0.591668	0.318739	-0.779550
C220	C	1.091668	0.818739	-0.279550
C221	C	0.591663	0.318747	-0.724943
C222	C	1.091663	0.818747	-0.224943
C223	C	0.620418	0.285323	-0.697656
C224	C	1.120418	0.785323	-0.197656
C225	C	0.620418	0.285346	-0.643064
C226	C	1.120418	0.785346	-0.143064
N227	N	0.649168	0.251920	-0.615774
N228	N	1.149168	0.751920	-0.115774
C229	C	0.677926	0.218483	-0.643087
C230	C	1.177926	0.718483	-0.143087
C231	C	0.620456	0.285264	-0.976140
C232	C	1.120456	0.785264	-0.476140
C233	C	0.620465	0.285256	-1.030742
C234	C	1.120465	0.785256	-0.530742
C235	C	0.677975	0.218390	-1.030765
C236	C	1.177975	0.718390	-0.530765
C237	C	0.677968	0.218402	-0.976162
C238	C	1.177968	0.718402	-0.476162
C239	C	0.649206	0.251838	-0.948850
C240	C	1.149206	0.751838	-0.448850
C241	C	0.677913	0.218518	-0.528422
C242	C	1.177913	0.718518	-0.028422
C243	C	0.677907	0.218538	-0.473817
C244	C	1.177907	0.718538	0.026183
C245	C	0.620395	0.285401	-0.473798
C246	C	1.120395	0.785401	0.026202
C247	C	0.620403	0.285384	-0.528399
C248	C	1.120403	0.785384	-0.028399
C249	C	0.649163	0.251938	-0.555710
C250	C	1.149163	0.751938	-0.055710
O251	O	0.595984	0.313781	-0.614772
O252	O	1.095984	0.813781	-0.114772
O253	O	0.702371	0.190053	-0.614854
O254	O	1.202371	0.690053	-0.114854
C255	C	0.649140	0.251960	-0.116174
C256	C	1.149140	0.751960	0.383826
C257	C	0.649221	0.251816	-0.058060
C258	C	1.149221	0.751816	0.441940
H259	H	0.478107	0.312730	-0.312528
H260	H	0.978107	0.812730	0.187472
H261	H	0.036417	0.346236	-0.345976
H262	H	0.536417	0.846236	0.154024
O263	O	0.705792	0.185989	-0.447337
O264	O	1.205792	0.685989	0.052663
C265	C	0.696015	0.133876	-0.460697
C266	C	1.196015	0.633876	0.039303
H267	H	0.660127	0.131230	-0.475691
H268	H	1.160127	0.631230	0.024309
H269	H	0.720110	0.120208	-0.492406
H270	H	1.220110	0.620208	0.007594
C271	C	0.745344	0.102239	-0.393785
C272	C	1.245344	0.602239	0.106215
C273	C	0.701264	0.098989	-0.412197
C274	C	1.201264	0.598989	0.087803
H275	H	0.748584	0.080718	-0.363870
H276	H	1.248584	0.580718	0.136130
H277	H	0.751932	0.137348	-0.384785
H278	H	1.251932	0.637348	0.115215
H279	H	0.765418	0.090850	-0.420214
H280	H	1.265418	0.590850	0.079786
H281	H	0.681191	0.110384	-0.385771
H282	H	1.181191	0.610384	0.114229
H283	H	0.694673	0.063881	-0.421192
H284	H	1.194673	0.563881	0.078808
O285	O	0.389261	0.318021	-0.317722
O286	O	0.889261	0.818021	0.182278
C287	C	0.362100	0.351760	-0.287899
C288	C	0.862100	0.851760	0.212101
H289	H	0.355055	0.333260	-0.248314
H290	H	0.855055	0.833260	0.251686
H291	H	0.380163	0.390493	-0.282075
H292	H	0.880163	0.890493	0.217925
C293	C	0.326199	0.384003	-0.365282
C294	C	0.826199	0.884003	0.134718
C295	C	0.317543	0.361280	-0.316665
C296	C	0.817543	0.861280	0.183335
H297	H	0.298715	0.389878	-0.383027
H298	H	0.798715	0.889878	0.116973
H299	H	0.344499	0.361274	-0.385375
H300	H	0.844499	0.861274	0.114625
H301	H	0.341253	0.416278	-0.360422
H302	H	0.841253	0.916278	0.139578
H303	H	0.302494	0.329003	-0.321526
H304	H	0.802494	0.829003	0.178474
H305	H	0.299239	0.384004	-0.296573
H306	H	0.799239	0.884004	0.203427
O307	O	0.125272	0.351421	-0.351239
O308	O	0.625272	0.851421	0.148761
C309	C	0.152431	0.321703	-0.385072
C310	C	0.652431	0.821703	0.114928
H311	H	0.159479	0.282055	-0.366703
H312	H	0.659479	0.782055	0.133297
H313	H	0.134365	0.316013	-0.423827
H314	H	0.634365	0.816013	0.076173
C315	C	0.188328	0.399184	-0.417051
C316	C	0.688328	0.899184	0.082949
C317	C	0.196987	0.350488	-0.394488
C318	C	0.696987	0.850488	0.105512
H319	H	0.215811	0.416940	-0.422861
H320	H	0.715811	0.916940	0.077139
H321	H	0.170029	0.419206	-0.394258
H322	H	0.670029	0.919206	0.105742
H323	H	0.173271	0.394435	-0.449344
H324	H	0.673271	0.894435	0.050656
H325	H	0.212038	0.355238	-0.362192
H326	H	0.712038	0.855238	0.137808
H327	H	0.215289	0.330468	-0.417275
H328	H	0.715289	0.830468	0.082725
H329	H	0.596993	0.312605	-0.550618
H330	H	1.096993	0.812605	-0.050618
H331	H	0.730105	0.157815	-0.702791
H332	H	1.230105	0.657815	-0.202791
H333	H	0.262304	0.157725	-0.158102
H334	H	0.762304	0.657725	0.341898
H335	H	0.701362	1.052401	-0.191440
H336	H	1.201362	1.552401	0.308560
O337	O	0.173439	0.351521	-0.351127
O338	O	0.673439	0.851521	0.148873
C339	C	0.146281	0.385261	-0.321300
C340	C	0.646281	0.885261	0.178700
H341	H	0.139238	0.366761	-0.281715
H342	H	0.639238	0.866761	0.218285
H343	H	0.164347	0.423993	-0.315476
H344	H	0.664347	0.923993	0.184524
C345	C	0.110377	0.417510	-0.398679
C346	C	0.610377	0.917510	0.101321
C347	C	0.101723	0.394786	-0.350061
C348	C	0.601723	0.894786	0.149939
H349	H	0.082892	0.423388	-0.416420
H350	H	0.582892	0.923388	0.083580
H351	H	0.128674	0.394781	-0.418774
H352	H	0.628674	0.894781	0.081226
H353	H	0.125433	0.449784	-0.393819
H354	H	0.625433	0.949784	0.106181
H355	H	0.086672	0.362510	-0.354922
H356	H	0.586672	0.862510	0.145078
H357	H	0.083422	0.417511	-0.329967
H358	H	0.583422	0.917511	0.170033
H359	H	0.597032	1.052450	-0.312632
H360	H	1.097032	1.552450	0.187368
O361	O	0.592506	0.317804	-0.949692
O362	O	1.092506	0.817804	-0.449692
C363	C	0.567129	0.347293	-0.985493
C364	C	1.067129	0.847293	-0.485493
H365	H	0.585536	0.349089	-1.024420
H366	H	1.085536	0.849089	-0.524420
H367	H	0.533022	0.328143	-0.991292
H368	H	1.033022	0.828143	-0.491292
C369	C	0.538009	0.400740	-0.916370
C370	C	1.038009	0.900740	-0.416370
C371	C	0.560619	0.402950	-0.964180
C372	C	1.060619	0.902950	-0.464180
H373	H	0.533991	0.435072	-0.903223
H374	H	1.033991	0.935072	-0.403223
H375	H	0.555104	0.380872	-0.892250
H376	H	1.055104	0.880872	-0.392250
H377	H	0.509588	0.384780	-0.921210
H378	H	1.009588	0.884780	-0.421210
H379	H	0.589040	0.418905	-0.959339
H380	H	1.089040	0.918905	-0.459339
H381	H	0.543528	0.422823	-0.988300
H382	H	1.043528	0.922823	-0.488300
O383	O	-0.090669	0.318049	-0.317909
O384	O	0.409331	0.818049	0.182091
C385	C	-0.121442	0.347615	-0.347356
C386	C	0.378558	0.847615	0.152644
H387	H	-0.154875	0.326204	-0.349204
H388	H	0.345125	0.826204	0.150796
H389	H	-0.126459	0.387296	-0.328137
H390	H	0.373541	0.887296	0.171863
C391	C	-0.062055	0.381529	-0.400719
C392	C	0.437945	0.881529	0.099281
C393	C	-0.103117	0.355229	-0.402993
C394	C	0.396883	0.855229	0.097007
H395	H	-0.050751	0.386228	-0.435038
H396	H	0.449249	0.886228	0.064962
H397	H	-0.041322	0.361611	-0.380879
H398	H	0.458678	0.861611	0.119121
H399	H	-0.066242	0.414594	-0.384701
H400	H	0.433758	0.914594	0.115299
H401	H	-0.098929	0.322163	-0.419005
H402	H	0.401071	0.822163	0.080995
H403	H	-0.123849	0.375142	-0.422837
H404	H	0.376151	0.875142	0.077163
O405	O	0.389262	0.185925	-0.186270
O406	O	0.889262	0.685925	0.313730
C407	C	0.362173	0.152190	-0.216114
C408	C	0.862173	0.652190	0.283886
H409	H	0.355149	0.170697	-0.255699
H410	H	0.855149	0.670697	0.244301
H411	H	0.380290	0.113460	-0.221937
H412	H	0.880290	0.613460	0.278063
C413	C	0.326228	0.119927	-0.138757
C414	C	0.826228	0.619927	0.361243
C415	C	0.317597	0.142660	-0.187374
C416	C	0.817597	0.642660	0.312626
H417	H	0.298731	0.114046	-0.121028
H418	H	0.798731	0.614046	0.378972
H419	H	0.344479	0.142653	-0.118650
H420	H	0.844479	0.642653	0.381350
H421	H	0.341325	0.087655	-0.143616
H422	H	0.841325	0.587655	0.356384
H423	H	0.302504	0.174935	-0.182514
H424	H	0.802504	0.674935	0.317486
H425	H	0.299342	0.119939	-0.207480
H426	H	0.799342	0.619939	0.292520
O427	O	0.563690	0.351222	-0.805967
O428	O	1.063690	0.851222	-0.305967
C429	C	0.538316	0.380738	-0.770141
C430	C	1.038316	0.880738	-0.270141
H431	H	0.536781	0.359327	-0.731221
H432	H	1.036781	0.859327	-0.231221
H433	H	0.554734	0.420454	-0.764333
H434	H	1.054734	0.920454	-0.264333
C435	C	0.492381	0.414550	-0.839225
C436	C	0.992381	0.914550	-0.339225
C437	C	0.490492	0.388250	-0.791425
C438	C	0.990492	0.888250	-0.291425
H439	H	0.462881	0.419186	-0.852354
H440	H	0.962881	0.919186	-0.352354
H441	H	0.509477	0.394666	-0.863362
H442	H	1.009477	0.894666	-0.363362
H443	H	0.506064	0.447644	-0.834379
H444	H	1.006064	0.947644	-0.334379
H445	H	0.476814	0.355155	-0.796273
H446	H	0.976814	0.855155	-0.296273
H447	H	0.473393	0.408129	-0.767288
H448	H	0.973393	0.908129	-0.267288
H449	H	0.730113	0.157787	-0.801837
H450	H	1.230113	0.657787	-0.301837
H451	H	0.568236	0.345970	-0.702708
H452	H	1.068236	0.845970	-0.202708
O453	O	0.032821	0.152443	-0.152867
O454	O	0.532821	0.652443	0.347133
C455	C	0.063594	0.122897	-0.123400
C456	C	0.563594	0.622897	0.376600
H457	H	0.097050	0.121124	-0.144815
H458	H	0.597050	0.621124	0.355185
H459	H	0.068554	0.141981	-0.083653
H460	H	0.568554	0.641981	0.416347
C461	C	0.004226	0.069414	-0.089672
C462	C	0.504226	0.569414	0.410328
C463	C	0.045316	0.067233	-0.115977
C464	C	0.545316	0.567233	0.384023
H465	H	-0.007049	0.035078	-0.085091
H466	H	0.492951	0.535078	0.414909
H467	H	-0.016507	0.089321	-0.109523
H468	H	0.483493	0.589321	0.390477
H469	H	0.008365	0.085319	-0.056553
H470	H	0.508365	0.585319	0.443447
H471	H	0.041175	0.051334	-0.149098
H472	H	0.541175	0.551334	0.350902
H473	H	0.066048	0.047322	-0.096131
H474	H	0.566048	0.547322	0.403869
H475	H	0.701390	0.191162	-1.053014
H476	H	1.201390	0.691162	-0.553014
H477	H	0.597013	0.953400	-0.312633
H478	H	1.097013	1.453400	0.187367
O479	O	-0.183164	0.317986	-0.317856
O480	O	0.316836	0.817986	0.182144
C481	C	-0.229603	0.310814	-0.310690
C482	C	0.270397	0.810814	0.189310
H483	H	-0.235992	0.270441	-0.293634
H484	H	0.264008	0.770441	0.206366
H485	H	-0.242946	0.341789	-0.282795
H486	H	0.257054	0.841789	0.217205
C487	C	-0.245828	0.365259	-0.384531
C488	C	0.254172	0.865259	0.115469
C489	C	-0.253676	0.315671	-0.363587
C490	C	0.246324	0.815671	0.136413
H491	H	-0.260678	0.368258	-0.417160
H492	H	0.239322	0.868258	0.082840
H493	H	-0.214541	0.370093	-0.389358
H494	H	0.285459	0.870093	0.110642
H495	H	-0.256948	0.391066	-0.361281
H496	H	0.243052	0.891066	0.138719
H497	H	-0.242551	0.289866	-0.386835
H498	H	0.257449	0.789866	0.113165
H499	H	-0.284961	0.310833	-0.358766
H500	H	0.215039	0.810833	0.141234
H501	H	0.262282	0.346229	-0.345943
H502	H	0.762282	0.846229	0.154057
H503	H	-0.179392	0.191268	-0.191513
H504	H	0.320608	0.691268	0.308487
H505	H	-0.094284	0.191253	-0.191507
H506	H	0.405716	0.691253	0.308493
O507	O	0.481855	0.186026	-0.186155
O508	O	0.981855	0.686026	0.313845
C509	C	0.508956	0.215742	-0.152321
C510	C	1.008956	0.715742	0.347679
H511	H	0.515966	0.255395	-0.170684
H512	H	1.015966	0.755395	0.329316
H513	H	0.490859	0.221424	-0.113563
H514	H	0.990859	0.721424	0.386437
C515	C	0.544930	0.138262	-0.120358
C516	C	1.044930	0.638262	0.379642
C517	C	0.553542	0.186962	-0.142915
C518	C	1.053542	0.686962	0.357085
H519	H	0.572431	0.120509	-0.114554
H520	H	1.072431	0.620509	0.385446
H521	H	0.526670	0.118241	-0.143152
H522	H	1.026670	0.618241	0.356848
H523	H	0.529847	0.143003	-0.088062
H524	H	1.029847	0.643003	0.411938
H525	H	0.568619	0.182220	-0.175213
H526	H	1.068619	0.682220	0.324787
H527	H	0.571805	0.206982	-0.120126
H528	H	1.071805	0.706982	0.379874
O529	O	0.173577	0.152421	-0.152849
O530	O	0.673577	0.652421	0.347151
C531	C	0.204354	0.122874	-0.123387
C532	C	0.704354	0.622874	0.376613
H533	H	0.237807	0.121104	-0.144806
H534	H	0.737807	0.621104	0.355194
H535	H	0.209317	0.141956	-0.083639
H536	H	0.709317	0.641956	0.416361
C537	C	0.144990	0.069387	-0.089655
C538	C	0.644990	0.569387	0.410345
C539	C	0.186077	0.067209	-0.115965
C540	C	0.686077	0.567209	0.384035
H541	H	0.133716	0.035051	-0.085075
H542	H	0.633716	0.535051	0.414925
H543	H	0.124255	0.089294	-0.109503
H544	H	0.624255	0.589294	0.390497
H545	H	0.149131	0.085291	-0.056535
H546	H	0.649131	0.585291	0.443465
H547	H	0.181934	0.051312	-0.149086
H548	H	0.681934	0.551312	0.350914
H549	H	0.206811	0.047298	-0.096123
H550	H	0.706811	0.547298	0.403877
H551	H	0.121545	0.157750	-0.158113
H552	H	0.621545	0.657750	0.341887
O553	O	0.734529	0.697912	-0.152694
O554	O	1.234529	1.197912	0.347306
C555	C	0.724741	0.711282	-0.100572
C556	C	1.224741	1.211282	0.399428
H557	H	0.707474	0.750943	-0.099471
H558	H	1.207474	1.250943	0.400529
H559	H	0.701654	0.680579	-0.082923
H560	H	1.201654	1.180579	0.417077
C561	C	0.789767	0.665073	-0.070316
C562	C	1.289767	1.165073	0.429684
C563	C	0.768563	0.713787	-0.068964
C564	C	1.268563	1.213787	0.431036
H565	H	0.816798	0.666616	-0.050818
H566	H	1.316798	1.166616	0.449182
H567	H	0.796361	0.656064	-0.105432
H568	H	1.296361	1.156064	0.394568
H569	H	0.770524	0.639493	-0.055610
H570	H	1.270524	1.139493	0.444390
H571	H	0.787804	0.739365	-0.083676
H572	H	1.287804	1.239365	0.416324
H573	H	0.761973	0.722801	-0.033850
H574	H	1.261973	1.222801	0.466150
H575	H	0.596983	0.312627	-0.451550
H576	H	1.096983	0.812627	0.048450
H577	H	0.701212	0.450988	-0.191389
H578	H	1.201212	0.950988	0.308611
O579	O	0.563706	0.805497	-0.351334
O580	O	1.063706	1.305497	0.148666
C581	C	0.538321	0.769696	-0.380799
C582	C	1.038321	1.269696	0.119201
H583	H	0.556717	0.730754	-0.382620
H584	H	1.056717	1.230754	0.117380
H585	H	0.504210	0.763933	-0.361613
H586	H	1.004210	1.263933	0.138387
C587	C	0.509228	0.838807	-0.434207
C588	C	1.009228	1.338807	0.065793
C589	C	0.531824	0.790979	-0.436447
C590	C	1.031824	1.290979	0.063553
H591	H	0.505218	0.851936	-0.468532
H592	H	1.005218	1.351936	0.031468
H593	H	0.526329	0.862927	-0.414354
H594	H	1.026329	1.362927	0.085646
H595	H	0.480804	0.833998	-0.418216
H596	H	0.980804	1.333998	0.081784
H597	H	0.560249	0.795790	-0.452432
H598	H	1.060249	1.295790	0.047568
H599	H	0.514727	0.766860	-0.456304
H600	H	1.014727	1.266860	0.043696
O601	O	0.705836	0.949097	-0.186109
O602	O	1.205836	1.449097	0.313891
C603	C	0.696042	0.962463	-0.133987
C604	C	1.196042	1.462463	0.366013
H605	H	0.678777	1.002125	-0.132886
H606	H	1.178777	1.502125	0.367114
H607	H	0.672951	0.931761	-0.116345
H608	H	1.172951	1.431761	0.383655
C609	C	0.761061	0.916246	-0.103724
C610	C	1.261061	1.416246	0.396276
C611	C	0.739860	0.964962	-0.102371
C612	C	1.239860	1.464962	0.397629
H613	H	0.788090	0.917785	-0.084221
H614	H	1.288090	1.417785	0.415779
H615	H	0.767659	0.907239	-0.138839
H616	H	1.267659	1.407239	0.361161
H617	H	0.741815	0.890666	-0.089023
H618	H	1.241815	1.390666	0.410977
H619	H	0.759105	0.990539	-0.117078
H620	H	1.259105	1.490539	0.382922
H621	H	0.733267	0.973973	-0.067258
H622	H	1.233267	1.473973	0.432742
O623	O	0.705777	0.554248	-0.186102
O624	O	1.205777	1.054248	0.313898
C625	C	0.731146	0.518420	-0.156631
C626	C	1.231146	1.018420	0.343369
H627	H	0.712733	0.479520	-0.154801
H628	H	1.212733	0.979520	0.345199
H629	H	0.765254	0.512564	-0.175818
H630	H	1.265254	1.012564	0.324182
C631	C	0.760274	0.587517	-0.103239
C632	C	1.260274	1.087517	0.396761
C633	C	0.737656	0.539741	-0.100988
C634	C	1.237656	1.039741	0.399012
H635	H	0.764292	0.600669	-0.068916
H636	H	1.264292	1.100669	0.431084
H637	H	0.743184	0.611656	-0.123096
H638	H	1.243184	1.111656	0.376904
H639	H	0.788695	0.582631	-0.119231
H640	H	1.288695	1.082631	0.380769
H641	H	0.709234	0.544628	-0.085002
H642	H	1.209234	1.044628	0.414998
H643	H	0.754742	0.515603	-0.081127
H644	H	1.254742	1.015603	0.418873
O645	O	0.705874	0.186103	-0.555004
O646	O	1.205874	0.686103	-0.055004
C647	C	0.734881	0.215867	-0.586585
C648	C	1.234881	0.715867	-0.086585
H649	H	0.719008	0.255482	-0.594763
H650	H	1.219008	0.755482	-0.094763
H651	H	0.768165	0.221628	-0.565547
H652	H	1.268165	0.721628	-0.065547
C653	C	0.762544	0.138426	-0.628410
C654	C	1.262544	0.638426	-0.128410
C655	C	0.743047	0.187081	-0.638457
C656	C	1.243047	0.687081	-0.138457
H657	H	0.767583	0.120669	-0.660406
H658	H	1.267583	0.620669	-0.160406
H659	H	0.743003	0.118373	-0.607132
H660	H	1.243003	0.618373	-0.107132
H661	H	0.790279	0.143234	-0.610877
H662	H	1.290279	0.643234	-0.110877
H663	H	0.715311	0.182272	-0.655984
H664	H	1.215311	0.682272	-0.155984
H665	H	0.762584	0.207132	-0.659739
H666	H	1.262584	0.707132	-0.159739
H667	H	0.730058	0.801194	-0.158022
H668	H	1.230058	1.301194	0.341978
H669	H	0.568217	0.702233	-0.346028
H670	H	1.068217	1.202233	0.153972
H671	H	0.596916	0.550113	-0.312605
H672	H	1.096916	1.050113	0.187395
H673	H	0.596889	0.451047	-0.312589
H674	H	1.096889	0.951047	0.187411
H675	H	0.701382	0.191183	-0.953948
H676	H	1.201382	0.691183	-0.453948
H677	H	0.597055	0.312479	-1.052955
H678	H	1.097055	0.812479	-0.552955
