data_functionalizedCrystal
_audit_creation_method	'MofGen! by Chris Wilmer'
_symmetry_space_group_name_H-M	'P1'
_symmetry_Int_Tables_number	1
_symmetry_cell_setting	triclinic
loop_
_symmetry_equiv_pos_as_xyz
  x,y,z
_cell_length_a	14.560438
_cell_length_b	18.878441
_cell_length_c	18.878441
_cell_angle_alpha	89.999813
_cell_angle_beta	60.000276
_cell_angle_gamma	60.002359
loop_
_atom_site_label
_atom_site_type_symbol
_atom_site_fract_x
_atom_site_fract_y
_atom_site_fract_z
Zr1	Zr	1.005307	-0.092968	0.682378
O2	O	1.196898	-0.206065	0.569275
O3	O	0.813708	-0.058299	0.717051
O4	O	1.005303	-0.206072	0.717051
O5	O	1.005308	0.058276	0.569274
O6	O	1.005308	-0.206076	0.833619
O7	O	1.005303	-0.058292	0.569275
O8	O	0.662580	0.058263	0.833618
O9	O	1.348036	-0.206064	0.569275
O10	O	0.892522	-0.043514	0.818831
O11	O	0.892522	0.043482	0.731837
O12	O	1.118100	-0.130502	0.731838
O13	O	1.118100	-0.043506	0.644844
Zr14	Zr	1.005324	0.092938	0.868289
Zr15	Zr	1.005315	-0.092974	0.868290
Zr16	Zr	1.005315	0.092944	0.682377
Zr17	Zr	1.246355	-0.092965	0.682378
Zr18	Zr	0.764275	0.092935	0.868290
O19	O	1.196922	0.058269	0.833617
O20	O	1.196910	-0.206074	0.833618
O21	O	1.196910	0.058278	0.569274
O22	O	0.813733	0.206035	0.981392
O23	O	0.813720	-0.058308	0.981394
O24	O	0.813720	0.206044	0.717049
O25	O	1.005322	-0.058306	0.981393
O26	O	1.005327	0.206042	0.833617
O27	O	1.005322	0.206046	0.717049
O28	O	1.005327	0.058262	0.981393
O29	O	1.348043	-0.206069	0.717050
O30	O	0.662587	0.206038	0.833617
O31	O	0.662594	0.206033	0.981393
O32	O	0.662587	0.058258	0.981393
O33	O	1.348043	-0.058288	0.569274
O34	O	1.348050	-0.058293	0.717049
O35	O	0.892530	0.130472	0.818830
O36	O	0.892530	0.043476	0.905824
O37	O	1.118108	-0.043512	0.818830
O38	O	1.118108	0.043484	0.731837
C39	C	0.703800	-0.000018	0.775334
C40	C	0.601469	-0.000020	0.775335
C41	C	1.005304	-0.000007	0.542786
C42	C	1.005301	-0.000005	0.463861
C43	C	1.005326	0.232533	0.775333
C44	C	1.005330	0.311457	0.775332
C45	C	0.553394	-0.045432	0.820741
C46	C	0.457237	-0.045425	0.820743
C47	C	0.457240	0.045408	0.729925
C48	C	0.553389	0.045405	0.729929
C49	C	0.601473	-0.090857	0.866147
C50	C	0.553400	-0.136274	0.911557
C51	C	0.457242	-0.136267	0.911559
C52	C	0.409158	-0.090844	0.866151
C53	C	1.306830	-0.000012	0.775333
C54	C	1.409162	-0.000011	0.775333
C55	C	1.005304	-0.232563	0.775335
C56	C	1.005301	-0.311488	0.775335
C57	C	1.123078	0.303132	0.729924
C58	C	1.123073	0.377293	0.729920
C59	C	1.005320	0.459779	0.775329
C60	C	0.887562	0.468102	0.820739
C61	C	0.887568	0.393942	0.820738
C62	C	0.887559	0.622672	0.820741
C63	C	0.887553	0.696838	0.820744
C64	C	1.123064	0.606023	0.729923
C65	C	1.123070	0.531863	0.729921
C66	C	1.005312	0.540192	0.775332
C67	C	0.887553	0.045399	0.472190
C68	C	0.887557	0.045400	0.398029
C69	C	1.005311	-0.000009	0.315540
C70	C	1.123068	-0.045414	0.307213
C71	C	1.123062	-0.045409	0.381374
C72	C	1.123072	-0.045423	0.152643
C73	C	1.123078	-0.045429	0.078478
C74	C	0.887566	0.045386	0.169298
C75	C	0.887560	0.045391	0.243459
C76	C	1.005318	-0.000016	0.235127
C77	C	1.005326	-0.000023	1.007882
C78	C	1.005330	-0.000026	1.086806
C79	C	0.703811	-0.000026	1.007882
C80	C	0.601483	-0.000030	1.086807
C81	C	0.703811	0.232529	0.775333
C82	C	0.601483	0.311453	0.775333
C83	C	0.703821	0.232522	1.007881
C84	C	0.601497	0.311442	1.086805
C85	C	1.306809	-0.232552	0.542786
C86	C	1.409133	-0.311473	0.463862
C87	C	1.306820	-0.000004	0.542785
C88	C	1.409147	-0.000000	0.463860
C89	C	1.306820	-0.232560	0.775334
C90	C	1.409147	-0.311483	0.775334
C91	C	0.553424	-0.045448	1.078462
C92	C	0.457290	-0.045469	1.152613
C93	C	0.409209	-0.000066	1.235108
C94	C	0.457277	0.045353	1.243452
C95	C	0.553416	0.045368	1.169302
C96	C	0.553433	0.393932	0.820742
C97	C	0.457298	0.468096	0.820739
C98	C	0.409209	0.459779	0.775331
C99	C	0.457269	0.377291	0.729916
C100	C	0.553408	0.303129	0.729915
C101	C	0.553445	0.303093	1.169287
C102	C	0.457314	0.377241	1.243452
C103	C	0.409230	0.459736	1.235134
C104	C	0.457292	0.468084	1.152643
C105	C	0.553428	0.393937	1.078480
C106	C	1.457197	-0.303123	0.381381
C107	C	1.553358	-0.377271	0.307216
C108	C	1.601447	-0.459766	0.315534
C109	C	1.553378	-0.468114	0.398024
C110	C	1.457226	-0.393967	0.472187
C111	C	1.457216	0.045410	0.472206
C112	C	1.553377	0.045410	0.398055
C113	C	1.601461	0.000005	0.315559
C114	C	1.553389	-0.045410	0.307215
C115	C	1.457236	-0.045415	0.381366
C116	C	1.457206	-0.303138	0.820751
C117	C	1.553341	-0.377288	0.820769
C118	C	1.601422	-0.459782	0.775363
C119	C	1.553354	-0.468125	0.729945
C120	C	1.457214	-0.393976	0.729933
H121	H	0.679772	-0.090870	0.866149
Br122	Br	1.282896	0.191191	0.668301
H123	H	0.418115	0.082317	1.310630
Br124	Br	0.618625	0.405284	0.966544
Br125	Br	0.727742	0.808784	0.882409
H126	H	0.418100	0.370532	0.692946
H127	H	1.592501	0.082396	0.404865
H128	H	1.418096	-0.400783	0.692945
Br129	Br	1.282882	0.365989	0.668253
Br130	Br	0.392104	0.365892	1.355391
H131	H	0.791663	0.082380	0.539352
H132	H	0.592533	0.082357	1.176109
Br133	Br	1.618571	-0.365922	0.195277
H134	H	1.418049	-0.235958	0.374591
Br135	Br	1.391975	-0.191192	0.882380
Br136	Br	1.282887	-0.107042	0.141335
H137	H	1.679755	0.000017	0.255188
Br138	Br	1.618657	-0.107024	0.195250
H139	H	0.791674	0.082373	0.404817
H140	H	0.592576	0.400720	0.857719
H141	H	1.679740	-0.520134	0.255139
Br142	Br	1.618653	-0.580079	0.409298
Br143	Br	1.392001	-0.405314	0.584124
Br144	Br	1.282879	-0.107032	0.195265
H145	H	0.330854	-0.090837	0.866161
H146	H	0.791668	0.629461	0.857714
H147	H	1.418073	0.082390	0.539371
Br148	Br	0.391981	0.107052	0.668307
Br149	Br	1.618632	-0.580088	0.668318
Br150	Br	1.392006	-0.107045	0.370024
Br151	Br	1.618561	-0.365945	0.882408
Br152	Br	0.392094	0.580032	0.882379
Br153	Br	1.731902	-0.560405	0.775386
Br154	Br	0.727751	0.580047	0.882359
H155	H	0.592547	-0.173251	0.948532
Br156	Br	0.618637	0.107040	0.668306
Br157	Br	0.391994	-0.197898	0.973190
H158	H	1.218956	0.464701	0.692950
Br159	Br	0.618602	0.191196	0.668285
Br160	Br	1.282879	0.594718	0.668298
H161	H	0.791675	0.082358	0.310623
Br162	Br	0.727761	0.405242	0.882359
Br163	Br	0.278759	0.560357	1.335793
H164	H	1.218963	-0.082405	0.011314
Br165	Br	0.727751	0.107002	0.180608
H166	H	1.218945	-0.082370	0.374587
H167	H	0.330925	-0.000085	1.295479
H168	H	0.592571	-0.082430	1.011296
H169	H	0.418165	-0.082454	1.145802
H170	H	0.592580	0.235928	1.176076
Br171	Br	0.278733	0.560438	0.775341
H172	H	0.418129	0.535261	1.145883
