data_functionalizedCrystal
_audit_creation_method	'MofGen! by Chris Wilmer'
_symmetry_space_group_name_H-M	'P1'
_symmetry_Int_Tables_number	1
_symmetry_cell_setting	triclinic
loop_
_symmetry_equiv_pos_as_xyz
  x,y,z
_cell_length_a	6.817900
_cell_length_b	13.563478
_cell_length_c	16.015572
_cell_angle_alpha	92.686243
_cell_angle_beta	104.485554
_cell_angle_gamma	104.707083
loop_
_atom_site_label
_atom_site_type_symbol
_atom_site_fract_x
_atom_site_fract_y
_atom_site_fract_z
V1	V	-3.998942	-0.040849	-0.279133
O2	O	-3.961100	0.104117	-0.239439
O3	O	-3.975544	-0.179245	-0.310289
O4	O	-3.927051	0.004603	-0.385787
O5	O	-4.009930	-0.081003	-0.163419
V6	V	-4.482374	-0.028806	-0.261276
O7	O	-4.260400	-0.067267	-0.318304
O8	O	-4.671114	-0.002387	-0.222105
O9	O	-4.282566	0.109590	-0.230119
O10	O	-4.637613	-0.173772	-0.300969
O11	O	-4.588784	0.011349	-0.376990
O12	O	-4.331059	-0.074258	-0.154622
C13	C	-3.827387	-0.214383	-0.314418
C14	C	-3.889387	-0.327235	-0.340603
C15	C	-3.945796	-0.365563	-0.428526
C16	C	-4.004011	-0.471594	-0.453121
C17	C	-4.005838	-0.539307	-0.389795
C18	C	-3.949442	-0.500979	-0.301871
C19	C	-3.891206	-0.394938	-0.277273
C20	C	-3.951248	-0.568681	-0.238542
C21	C	-3.894853	-0.530353	-0.150618
C22	C	-3.836624	-0.424322	-0.126024
C23	C	-3.834797	-0.356609	-0.189350
C24	C	-4.009484	-0.674722	-0.263140
C25	C	-3.954895	-0.704096	-0.111887
C26	C	-3.896680	-0.598066	-0.087293
C27	C	-3.765528	0.020134	-0.410721
C28	C	-3.788198	0.056380	-0.498129
C29	C	-4.134953	-0.265341	-0.952472
C30	C	-4.156253	-0.231249	-1.034593
C31	C	-4.047401	-0.054870	-0.967830
C32	C	-4.026081	-0.088947	-0.885702
C33	C	-4.069863	-0.194184	-0.878031
C34	C	-3.960992	-0.017790	-0.811261
C35	C	-3.939684	-0.051864	-0.729140
C36	C	-3.983467	-0.157097	-0.721461
C37	C	-4.048556	-0.228258	-0.795910
C38	C	-3.917225	0.087446	-0.818934
C39	C	-3.852135	0.158604	-0.744493
C40	C	-3.830812	0.124530	-0.662370
C41	C	-3.874595	0.019297	-0.654691
C42	C	-3.765723	0.195691	-0.587921
C43	C	-3.744416	0.161617	-0.505800
C44	C	-3.853288	-0.014777	-0.572570
C45	C	-4.094066	0.144723	-0.225990
C46	C	-4.011304	0.257575	-0.199811
C47	C	-4.155925	-0.089793	-0.129684
C48	C	-4.112493	-0.126035	-0.042274
H49	H	-3.956370	-0.759228	-0.060322
O50	O	-4.182136	-0.378847	-0.944186
H51	H	-4.311218	-0.401161	-0.912258
O52	O	-3.772005	-0.242242	-0.162828
H53	H	-3.881112	-0.223301	-0.127563
O54	O	-4.226443	-0.308001	-1.114889
H55	H	-4.253288	-0.386900	-1.095753
O56	O	-4.000162	0.058633	-0.976105
H57	H	-4.025897	0.070375	-1.045714
H58	H	-3.790688	-0.393119	-0.054430
H59	H	-3.850754	-0.566844	-0.015703
H60	H	-3.966121	-0.184839	-0.654592
O61	O	-4.064834	-0.512935	-0.547946
H62	H	-4.228892	-0.563226	-0.566627
O63	O	-3.900482	-0.128282	-0.564280
H64	H	-4.066875	-0.166610	-0.599938
H65	H	-3.934546	0.115187	-0.885803
O66	O	-3.943862	-0.292458	-0.496761
H67	H	-3.831894	-0.302997	-0.533916
H68	H	-4.084181	-0.313952	-0.789665
H69	H	-3.816501	0.244288	-0.750752
H70	H	-3.730102	0.281375	-0.594181
O71	O	-3.674193	0.238358	-0.425501
H72	H	-3.647304	0.317260	-0.444631
H73	H	-4.055394	-0.705918	-0.334729
H74	H	-4.053239	-0.625641	-0.409826
