data_functionalizedCrystal
_audit_creation_method	'MofGen! by Chris Wilmer'
_symmetry_space_group_name_H-M	'P1'
_symmetry_Int_Tables_number	1
_symmetry_cell_setting	triclinic
loop_
_symmetry_equiv_pos_as_xyz
  x,y,z
_cell_length_a	12.996460
_cell_length_b	14.853567
_cell_length_c	14.853567
_cell_angle_alpha	96.365070
_cell_angle_beta	89.997651
_cell_angle_gamma	90.002610
loop_
_atom_site_label
_atom_site_type_symbol
_atom_site_fract_x
_atom_site_fract_y
_atom_site_fract_z
O1	O	-0.085487	-1.196366	0.117706
O2	O	0.247846	-0.863033	0.451039
O3	O	0.581180	-0.529699	0.784373
O4	O	-0.085504	-0.933906	0.131727
O5	O	0.247830	-0.600573	0.465061
O6	O	0.581163	-0.267240	0.798394
O7	O	-0.085498	-1.072147	-0.006513
O8	O	0.247835	-0.738814	0.326820
O9	O	0.581169	-0.405480	0.660153
O10	O	-0.085493	-1.058126	0.255946
O11	O	0.247841	-0.724792	0.589280
O12	O	0.581174	-0.391459	0.922613
O13	O	0.085636	-1.072133	-0.006521
O14	O	0.418969	-0.738799	0.326812
O15	O	0.752303	-0.405466	0.660146
O16	O	0.085630	-0.933892	0.131720
O17	O	0.418964	-0.600559	0.465053
O18	O	0.752297	-0.267225	0.798386
O19	O	0.085647	-1.196352	0.117698
O20	O	0.418980	-0.863018	0.451032
O21	O	0.752313	-0.529685	0.784365
Cu22	Cu	0.101264	-1.065120	0.124708
Cu23	Cu	0.434598	-0.731787	0.458042
Cu24	Cu	0.767931	-0.398454	0.791375
Cu25	Cu	-0.101121	-1.065138	0.124717
Cu26	Cu	0.232212	-0.731804	0.458051
Cu27	Cu	0.565546	-0.398471	0.791384
O28	O	0.085641	-1.058111	0.255939
O29	O	0.418975	-0.724778	0.589272
O30	O	0.752308	-0.391444	0.922605
C31	C	0.000061	-0.900311	0.131088
C32	C	0.333394	-0.566977	0.464421
C33	C	0.666728	-0.233644	0.797755
C34	C	0.000054	-0.800227	0.129184
C35	C	0.333388	-0.466894	0.462518
C36	C	0.666721	-0.133560	0.795851
N37	N	0.243611	-1.065115	0.124701
N38	N	0.576945	-0.731782	0.458035
N39	N	0.910278	-0.398448	0.791368
N40	N	-0.243468	-1.065150	0.124717
N41	N	0.089865	-0.731817	0.458050
N42	N	0.423198	-0.398483	0.791384
C43	C	0.663426	-1.065136	0.124718
C44	C	0.996759	-0.731803	0.458052
C45	C	1.330092	-0.398470	0.791385
C46	C	0.546621	-1.065128	0.124717
C47	C	0.879954	-0.731794	0.458050
C48	C	1.213287	-0.398461	0.791383
C49	C	0.453522	-1.065126	0.124710
C50	C	0.786856	-0.731793	0.458044
C51	C	1.120189	-0.398459	0.791377
C52	C	0.336710	-1.065117	0.124707
C53	C	0.670043	-0.731783	0.458041
C54	C	1.003376	-0.398450	0.791374
C55	C	0.000066	-1.071504	-0.040106
C56	C	0.333399	-0.738171	0.293228
C57	C	0.666733	-0.404838	0.626561
C58	C	0.000057	-1.069601	-0.140189
C59	C	0.333390	-0.736267	0.193144
C60	C	0.666724	-0.402934	0.526477
C61	C	0.000080	-1.229947	0.118337
C62	C	0.333413	-0.896614	0.451671
C63	C	0.666747	-0.563281	0.785004
C64	C	0.000080	-1.330031	0.120241
C65	C	0.333413	-0.996698	0.453575
C66	C	0.666747	-0.663365	0.786908
C67	C	0.000076	-0.387693	0.039019
C68	C	0.333409	-0.054360	0.372352
C69	C	0.666742	0.278974	0.705685
C70	C	0.000078	-0.366412	0.203251
C71	C	0.333411	-0.033079	0.536585
C72	C	0.666745	0.300255	0.869918
C73	C	0.000075	-0.460446	0.205041
C74	C	0.333408	-0.127112	0.538375
C75	C	0.666741	0.206221	0.871708
C76	C	0.000070	-0.518108	0.123819
C77	C	0.333404	-0.184774	0.457152
C78	C	0.666737	0.148559	0.790486
C79	C	0.000069	-0.481736	0.040806
C80	C	0.333403	-0.148402	0.374140
C81	C	0.666736	0.184931	0.707473
C82	C	0.000065	-0.496825	0.288053
C83	C	0.333399	-0.163492	0.621386
C84	C	0.666732	0.169842	0.954719
C85	C	0.000061	-0.590864	0.289846
C86	C	0.333394	-0.257531	0.623180
C87	C	0.666728	0.075803	0.956513
C88	C	0.000064	-0.648528	0.208623
C89	C	0.333397	-0.315194	0.541956
C90	C	0.666731	0.018139	0.875289
C91	C	0.000064	-0.612150	0.125607
C92	C	0.333397	-0.278817	0.458940
C93	C	0.666731	0.054516	0.792273
C94	C	0.000060	-0.669812	0.044384
C95	C	0.333393	-0.336479	0.377717
C96	C	0.666726	-0.003146	0.711051
C97	C	0.000067	-0.633437	-0.038633
C98	C	0.333400	-0.300104	0.294700
C99	C	0.666734	0.033230	0.628034
C100	C	0.000072	-0.539399	-0.040417
C101	C	0.333406	-0.206066	0.292916
C102	C	0.666739	0.127267	0.626249
C103	C	0.000059	-0.742565	0.210407
C104	C	0.333392	-0.409232	0.543740
C105	C	0.666725	-0.075898	0.877074
C106	C	0.000053	-0.763855	0.046172
C107	C	0.333387	-0.430522	0.379505
C108	C	0.666720	-0.097188	0.712838
C109	C	0.000071	-0.979435	-0.552723
C110	C	0.333404	-0.646102	-0.219390
C111	C	0.666737	-0.312768	0.113943
C112	C	0.000081	-1.143668	-0.574004
C113	C	0.333414	-0.810334	-0.240671
C114	C	0.666748	-0.477001	0.092662
C115	C	0.000075	-1.145458	-0.479971
C116	C	0.333408	-0.812124	-0.146637
C117	C	0.666742	-0.478791	0.186696
C118	C	0.000069	-1.064235	-0.422309
C119	C	0.333402	-0.730902	-0.088975
C120	C	0.666735	-0.397569	0.244358
C121	C	0.000068	-0.981223	-0.458680
C122	C	0.333401	-0.647889	-0.125347
C123	C	0.666735	-0.314556	0.207986
C124	C	0.000086	-1.228469	-0.443591
C125	C	0.333419	-0.895136	-0.110258
C126	C	0.666753	-0.561802	0.223075
C127	C	0.000081	-1.230262	-0.349552
C128	C	0.333415	-0.896929	-0.016219
C129	C	0.666748	-0.563596	0.317114
C130	C	0.000067	-1.149039	-0.291889
C131	C	0.333401	-0.815706	0.041445
C132	C	0.666734	-0.482372	0.374778
C133	C	0.000066	-1.066023	-0.328266
C134	C	0.333399	-0.732690	0.005067
C135	C	0.666732	-0.399356	0.338401
C136	C	0.000059	-0.984800	-0.270604
C137	C	0.333392	-0.651467	0.062729
C138	C	0.666726	-0.318134	0.396063
C139	C	0.000050	-0.901783	-0.306979
C140	C	0.333383	-0.568450	0.026354
C141	C	0.666717	-0.235117	0.359687
C142	C	0.000054	-0.899999	-0.401017
C143	C	0.333387	-0.566666	-0.067683
C144	C	0.666721	-0.233332	0.265650
C145	C	0.000063	-1.150823	-0.197851
C146	C	0.333397	-0.817490	0.135482
C147	C	0.666730	-0.484157	0.468815
C148	C	0.000056	-0.986588	-0.176561
C149	C	0.333390	-0.653255	0.156772
C150	C	0.666723	-0.319921	0.490105
C151	C	0.000075	-1.058754	0.289531
C152	C	0.333408	-0.725420	0.622865
C153	C	0.666742	-0.392087	0.956198
C154	C	0.000077	-1.060657	0.389615
C155	C	0.333411	-0.727324	0.722948
C156	C	0.666744	-0.393991	1.056282
H157	H	0.000054	-0.810798	-0.019971
H158	H	0.333387	-0.477465	0.313362
H159	H	0.666720	-0.144131	0.646696
H160	H	0.000058	-0.449870	0.354180
H161	H	0.333392	-0.116537	0.687513
H162	H	0.666725	0.216796	1.020846
H163	H	0.000103	-0.509774	-0.108005
H164	H	0.333436	-0.176440	0.225328
H165	H	0.666769	0.156893	0.558661
H166	H	0.000055	-0.620472	0.357443
H167	H	0.333388	-0.287139	0.690777
H168	H	0.666721	0.046194	1.024110
H169	H	0.000086	-0.358072	-0.028572
H170	H	0.333419	-0.024738	0.304761
H171	H	0.666752	0.308595	0.638095
C172	C	0.000047	-0.782576	0.301713
C173	C	0.333380	-0.449242	0.635046
C174	C	0.666713	-0.115909	0.968380
H175	H	0.000051	-0.734766	0.349830
H176	H	0.333385	-0.401433	0.683163
H177	H	0.666718	-0.068099	1.016496
H178	H	-0.059632	-0.818819	0.305822
H179	H	0.273701	-0.485486	0.639155
H180	H	0.607035	-0.152153	0.972489
H181	H	0.059732	-0.818814	0.305826
H182	H	0.393065	-0.485481	0.639159
H183	H	0.726398	-0.152148	0.972493
H184	H	0.000059	-0.911844	-0.582344
H185	H	0.333393	-0.578511	-0.249011
H186	H	0.666726	-0.245178	0.084322
H187	H	0.000073	-0.319459	0.269379
H188	H	0.333406	0.013875	0.602712
H189	H	0.666739	0.347208	0.936046
H190	H	0.000056	-0.680397	-0.104764
H191	H	0.333390	-0.347064	0.228569
H192	H	0.666723	-0.013731	0.561902
C193	C	0.000050	-0.897241	-0.113140
C194	C	0.333383	-0.563908	0.220193
C195	C	0.666717	-0.230574	0.553527
H196	H	0.000052	-0.847548	-0.148274
H197	H	0.333385	-0.514215	0.185059
H198	H	0.666719	-0.180882	0.518392
H199	H	-0.059626	-0.894530	-0.076009
H200	H	0.273707	-0.561196	0.257324
H201	H	0.607041	-0.227863	0.590658
H202	H	0.059738	-0.894519	-0.076019
H203	H	0.393071	-0.561185	0.257315
H204	H	0.726404	-0.227852	0.590648
H205	H	0.000095	-1.209795	-0.620958
H206	H	0.333428	-0.876462	-0.287624
H207	H	0.666761	-0.543129	0.045709
H208	H	0.000052	-0.835652	-0.260019
H209	H	0.333385	-0.502319	0.073314
H210	H	0.666718	-0.168985	0.406648
H211	H	0.000101	-1.294596	-0.490546
H212	H	0.333434	-0.961263	-0.157213
H213	H	0.666768	-0.627929	0.176121
C214	C	0.000058	-0.808691	-0.441032
C215	C	0.333392	-0.475358	-0.107699
C216	C	0.666725	-0.142025	0.225635
H217	H	0.000075	-0.819262	-0.505295
H218	H	0.333408	-0.485928	-0.171962
H219	H	0.666742	-0.152595	0.161371
H220	H	-0.059620	-0.775242	-0.421254
H221	H	0.273714	-0.441909	-0.087921
H222	H	0.607047	-0.108575	0.245413
H223	H	0.059744	-0.775245	-0.421246
H224	H	0.393077	-0.441912	-0.087912
H225	H	0.726411	-0.108579	0.245421
C226	C	0.000078	-1.321575	-0.309547
C227	C	0.333411	-0.988242	0.023787
C228	C	0.666744	-0.654908	0.357120
H229	H	0.000074	-1.369691	-0.357357
H230	H	0.333407	-1.036357	-0.024024
H231	H	0.666741	-0.703024	0.309309
H232	H	0.059749	-1.325687	-0.273300
H233	H	0.393083	-0.992354	0.060034
H234	H	0.726416	-0.659020	0.393367
H235	H	-0.059614	-1.325687	-0.273312
H236	H	0.273719	-0.992353	0.060022
H237	H	0.607052	-0.659020	0.393355
H238	H	0.000078	-1.218414	-0.168238
H239	H	0.333411	-0.885081	0.165095
H240	H	0.666744	-0.551748	0.498428
