data_functionalizedCrystal
_audit_creation_method	'MofGen! by Chris Wilmer'
_symmetry_space_group_name_H-M	'P1'
_symmetry_Int_Tables_number	1
_symmetry_cell_setting	triclinic
loop_
_symmetry_equiv_pos_as_xyz
  x,y,z
_cell_length_a	14.185569
_cell_length_b	17.699083
_cell_length_c	17.699083
_cell_angle_alpha	83.283015
_cell_angle_beta	76.871494
_cell_angle_gamma	103.133031
loop_
_atom_site_label
_atom_site_type_symbol
_atom_site_fract_x
_atom_site_fract_y
_atom_site_fract_z
O1	O	0.083282	-0.986904	-0.112875
O2	O	0.583282	-0.486904	0.387125
O3	O	0.083316	-0.766518	-0.125334
O4	O	0.583316	-0.266518	0.374666
O5	O	0.083289	-0.882939	-0.008913
O6	O	0.583289	-0.382939	0.491087
O7	O	0.083309	-0.870483	-0.229296
O8	O	0.583309	-0.370483	0.270704
O9	O	-0.083553	-0.917331	0.025475
O10	O	0.416447	-0.417331	0.525475
O11	O	-0.083527	-0.800910	-0.090946
O12	O	0.416473	-0.300910	0.409054
O13	O	-0.083560	-1.021295	-0.078487
O14	O	0.416440	-0.521295	0.421513
Cu15	Cu	-0.098777	-0.914243	-0.081577
Cu16	Cu	0.401223	-0.414243	0.418423
Cu17	Cu	0.098533	-0.873571	-0.122244
Cu18	Cu	0.598533	-0.373571	0.377756
O19	O	-0.083534	-0.904874	-0.194908
O20	O	0.416466	-0.404874	0.305092
C21	C	-0.000101	-0.755516	-0.107695
C22	C	0.499899	-0.255516	0.392305
C23	C	-0.000089	-0.671496	-0.106359
C24	C	0.499911	-0.171496	0.393641
N25	N	-0.237555	-0.942855	-0.052973
N26	N	0.262445	-0.442855	0.447027
C27	C	-0.000132	-0.899689	0.036478
C28	C	0.499868	-0.399689	0.536478
C29	C	-0.000132	-0.898350	0.120496
C30	C	0.499868	-0.398350	0.620496
C31	C	-0.605164	-0.760902	-0.234848
C32	C	-0.105164	-0.260902	0.265152
C33	C	-0.710190	-0.782581	-0.213186
C34	C	-0.210190	-0.282581	0.286814
C35	C	-0.710174	-0.885692	-0.110134
C36	C	-0.210174	-0.385692	0.389866
C37	C	-0.605146	-0.864020	-0.131785
C38	C	-0.105146	-0.364020	0.368215
C39	C	-0.552649	-0.801625	-0.194143
C40	C	-0.052649	-0.301625	0.305857
C41	C	-0.552631	-0.904742	-0.091079
C42	C	-0.052631	-0.404742	0.408921
C43	C	-0.447611	-0.883074	-0.112732
C44	C	0.052389	-0.383074	0.387268
C45	C	-0.395107	-0.820683	-0.175089
C46	C	0.104893	-0.320683	0.324911
C47	C	-0.447629	-0.779956	-0.215795
C48	C	0.052371	-0.279956	0.284205
C49	C	-0.605130	-0.967141	-0.028725
C50	C	-0.105130	-0.467141	0.471275
C51	C	-0.552615	-1.007863	0.011980
C52	C	-0.052615	-0.507863	0.511980
C53	C	-0.447594	-0.986192	-0.009668
C54	C	0.052406	-0.486192	0.490332
C55	C	-0.395089	-0.923801	-0.072026
C56	C	0.104911	-0.423801	0.427974
C57	C	-0.395071	-1.026918	0.031038
C58	C	0.104929	-0.526918	0.531038
C59	C	-0.290052	-1.005250	0.009386
C60	C	0.209948	-0.505250	0.509386
C61	C	-0.290070	-0.902132	-0.093678
C62	C	0.209930	-0.402132	0.406322
N63	N	0.237311	-0.844965	-0.150842
N64	N	0.737311	-0.344965	0.349158
C65	C	-0.000141	-1.032297	-0.096127
C66	C	0.499859	-0.532297	0.403873
C67	C	-0.000146	-1.116316	-0.097464
C68	C	0.499854	-0.616316	0.402536
C69	C	-0.000083	-0.622874	-0.174693
C70	C	0.499917	-0.122874	0.325307
C71	C	-0.000096	-0.543933	-0.173428
C72	C	0.499904	-0.043933	0.326572
C73	C	-0.000108	-0.513615	-0.103829
C74	C	0.499892	-0.013615	0.396171
C75	C	-0.000117	-0.562244	-0.035489
C76	C	0.499883	-0.062244	0.464511
C77	C	-0.000111	-0.641184	-0.036753
C78	C	0.499889	-0.141184	0.463247
C79	C	-0.000142	-0.243886	-0.030389
C80	C	0.499858	0.256114	0.469611
C81	C	-0.000145	-0.164938	-0.029130
C82	C	0.499855	0.335062	0.470870
C83	C	-0.000128	-0.146635	-0.167064
C84	C	0.499872	0.353365	0.332936
C85	C	-0.000122	-0.225575	-0.168328
C86	C	0.499878	0.274425	0.331672
C87	C	-0.000136	-0.274198	-0.099987
C88	C	0.499864	0.225802	0.400013
C89	C	-0.000123	-0.359795	-0.101359
C90	C	0.499877	0.140205	0.398641
C91	C	-0.000113	-0.428018	-0.102458
C92	C	0.499887	0.071982	0.397542
C93	C	-0.000110	-0.888124	-0.240299
C94	C	0.499890	-0.388124	0.259701
C95	C	-0.000103	-0.889461	-0.324319
C96	C	0.499897	-0.389461	0.175681
C97	C	-0.000144	-0.966686	0.169119
C98	C	0.499856	-0.466686	0.669119
C99	C	-0.000135	-0.965422	0.248061
C100	C	0.499865	-0.465422	0.748061
C101	C	-0.000121	-0.895823	0.278379
C102	C	0.499879	-0.395823	0.778379
C103	C	-0.000107	-0.827481	0.229748
C104	C	0.499893	-0.327481	0.729748
C105	C	-0.000108	-0.828744	0.150807
C106	C	0.499892	-0.328744	0.650807
C107	C	-0.000098	-0.822384	0.548110
C108	C	0.499902	-0.322384	1.048110
C109	C	-0.000099	-0.821126	0.627058
C110	C	0.499901	-0.321126	1.127058
C111	C	-0.000124	-0.959061	0.645363
C112	C	0.499876	-0.459061	1.145363
C113	C	-0.000126	-0.960325	0.566422
C114	C	0.499874	-0.460325	1.066422
C115	C	-0.000106	-0.891983	0.517798
C116	C	0.499894	-0.391983	1.017798
C117	C	-0.000114	-0.893354	0.432200
C118	C	0.499886	-0.393354	0.932200
C119	C	-0.000121	-0.894452	0.363976
C120	C	0.499879	-0.394452	0.863976
H121	H	-0.247325	-0.851319	-0.144451
H122	H	0.252675	-0.351319	0.355549
H123	H	-0.562418	-0.710088	-0.285621
H124	H	-0.062418	-0.210088	0.214379
F125	F	-0.000086	-0.492188	-0.246161
F126	F	0.499914	0.007812	0.253839
F127	F	-0.000158	-0.132674	0.044950
F128	F	0.499842	0.367326	0.544950
F129	F	-0.000117	-0.094881	-0.239798
F130	F	0.499883	0.405119	0.260202
H131	H	-0.000147	-1.021068	0.287648
H132	H	0.499853	-0.521068	0.787648
H133	H	-0.000142	-1.017001	0.541743
H134	H	0.499858	-0.517001	1.041743
F135	F	-0.000157	-0.295624	0.042346
F136	F	0.499843	0.204376	0.542346
F137	F	-0.000103	-0.257836	-0.242405
F138	F	0.499897	0.242164	0.257595
H139	H	-0.000115	-0.680772	0.018892
H140	H	0.499885	-0.180772	0.518892
H141	H	-0.000161	-1.023363	0.144442
H142	H	0.499839	-0.523363	0.644442
F143	F	-0.766073	-0.739232	-0.256519
F144	F	-0.266073	-0.239232	0.243481
H145	H	-0.000135	-1.014708	0.684962
H146	H	0.499865	-0.514708	1.184962
F147	F	-0.000083	-0.747045	0.659322
F148	F	0.499917	-0.247045	1.159322
H149	H	-0.247294	-1.038412	0.042532
H150	H	0.252706	-0.538412	0.542532
H151	H	-0.000082	-0.766735	0.508529
H152	H	0.499918	-0.266735	1.008529
F153	F	-0.000136	-0.529976	0.038585
F154	F	0.499864	-0.029976	0.538585
H155	H	-0.000089	-0.770811	0.254438
H156	H	0.499911	-0.270811	0.754438
H157	H	-0.309593	-0.803044	-0.192720
H158	H	0.190407	-0.303044	0.307280
F159	F	-0.391755	-0.713541	-0.282158
F160	F	0.108245	-0.213541	0.217842
H161	H	-0.000099	-0.773098	0.111218
H162	H	0.499901	-0.273098	0.611218
H163	H	-0.690644	-0.984783	-0.011101
H164	H	-0.190644	-0.484783	0.488899
F165	F	-0.608495	-1.074269	0.078343
F166	F	-0.108495	-0.574269	0.578343
F167	F	-0.766054	-0.952098	-0.043771
F168	F	-0.266054	-0.452098	0.456229
H169	H	-0.437828	-1.077726	0.081806
H170	H	0.062172	-0.577726	0.581806
H171	H	-0.000073	-0.647552	-0.231369
H172	H	0.499927	-0.147552	0.268631
