data_functionalizedCrystal
_audit_creation_method	'MofGen! by Chris Wilmer'
_symmetry_space_group_name_H-M	'P1'
_symmetry_Int_Tables_number	1
_symmetry_cell_setting	triclinic
loop_
_symmetry_equiv_pos_as_xyz
  x,y,z
_cell_length_a	16.120490
_cell_length_b	11.169416
_cell_length_c	11.169409
_cell_angle_alpha	90.031365
_cell_angle_beta	92.919204
_cell_angle_gamma	87.102791
loop_
_atom_site_label
_atom_site_type_symbol
_atom_site_fract_x
_atom_site_fract_y
_atom_site_fract_z
Zn1	Zn	1.274677	-0.570971	0.771557
Zn2	Zn	1.274600	-0.771705	0.570872
Zn3	Zn	1.135248	-0.560840	0.560718
Zn4	Zn	1.135254	-0.761410	0.761349
O5	O	1.204945	-0.666231	0.666124
O6	O	1.391334	-0.606147	0.753457
O7	O	1.256080	-0.743803	0.401572
O8	O	1.153773	-0.394236	0.588709
O9	O	1.391278	-0.753626	0.606014
O10	O	1.256211	-0.401679	0.743611
O11	O	1.153699	-0.588880	0.394112
O12	O	1.018581	-0.578897	0.578811
O13	O	1.153783	-0.736078	0.930655
O14	O	1.018585	-0.726255	0.726214
O15	O	1.256216	-0.596164	0.938155
O16	O	1.256086	-0.938287	0.596116
O17	O	1.153709	-0.930723	0.736059
C18	C	0.988333	-0.650360	0.650303
C19	C	0.895665	-0.643599	0.643564
C20	C	1.204912	-0.978054	0.666110
C21	C	1.204975	-1.111458	0.666149
C22	C	0.684735	-0.701292	0.701085
C23	C	0.726005	-0.631267	0.631257
C24	C	0.820413	-0.638131	0.638107
C25	C	0.590320	-0.694429	0.694237
C26	C	1.422403	-0.682165	0.682007
C27	C	1.515071	-0.688956	0.688775
C28	C	1.205009	-0.666103	0.979171
C29	C	1.205036	-0.666048	1.112573
C30	C	1.205000	-0.353193	0.666166
C31	C	1.205023	-0.219795	0.666184
C32	C	1.204929	-0.666276	0.354298
C33	C	1.205063	-0.666005	0.220908
H34	H	0.720303	-0.766393	0.766004
H35	H	0.690435	-0.566161	0.566332
