data_functionalizedCrystal
_audit_creation_method	'MofGen! by Chris Wilmer'
_symmetry_space_group_name_H-M	'P1'
_symmetry_Int_Tables_number	1
_symmetry_cell_setting	triclinic
loop_
_symmetry_equiv_pos_as_xyz
  x,y,z
_cell_length_a	16.120484
_cell_length_b	16.120566
_cell_length_c	12.759387
_cell_angle_alpha	92.921641
_cell_angle_beta	92.862335
_cell_angle_gamma	89.831930
loop_
_atom_site_label
_atom_site_type_symbol
_atom_site_fract_x
_atom_site_fract_y
_atom_site_fract_z
Zn1	Zn	-0.395529	-1.254491	-0.699451
Zn2	Zn	-0.534604	-1.247330	-0.532182
Zn3	Zn	-0.388515	-1.115426	-0.514447
Zn4	Zn	-0.527484	-1.108343	-0.698479
O5	O	-0.461533	-1.181398	-0.611140
O6	O	-0.419893	-1.369907	-0.685091
O7	O	-0.515270	-1.229800	-0.382809
O8	O	-0.273082	-1.139835	-0.531973
O9	O	-0.522071	-1.364646	-0.562200
O10	O	-0.278236	-1.242005	-0.667894
O11	O	-0.407938	-1.132891	-0.369779
O12	O	-0.401034	-0.998121	-0.531031
O13	O	-0.509935	-1.127763	-0.845629
O14	O	-0.503133	-0.992917	-0.666239
O15	O	-0.412988	-1.235137	-0.846342
O16	O	-0.650022	-1.222932	-0.561258
O17	O	-0.644791	-1.120819	-0.683436
C18	C	-0.450550	-0.965347	-0.596606
C19	C	-0.445872	-0.872918	-0.590414
C20	C	-0.437311	-0.703690	-0.579117
C21	C	-0.485826	-0.659942	-0.643176
C22	C	-0.481063	-0.565778	-0.636890
C23	C	-0.442073	-0.797863	-0.585401
C24	C	-0.677579	-1.170353	-0.624190
C25	C	-0.770008	-1.165704	-0.629813
C26	C	-0.939239	-1.157220	-0.640102
C27	C	-0.982994	-1.205724	-0.582205
C28	C	-1.077159	-1.201004	-0.587930
C29	C	-0.845065	-1.161939	-0.634379
C30	C	-0.244644	-1.192509	-0.598063
C31	C	-0.152219	-1.197243	-0.592491
C32	C	-0.461450	-1.181459	-0.885172
C33	C	-0.461414	-1.181484	-1.001948
C34	C	-0.472561	-0.398292	-0.625715
C35	C	-0.477268	-0.490720	-0.631882
C36	C	-0.349643	-1.080580	-0.988399
C37	C	-0.293742	-1.030144	-1.036486
C38	C	-0.293713	-1.030170	-1.146207
C39	C	-0.349593	-1.080636	-1.207846
C40	C	-0.405495	-1.131073	-1.159759
C41	C	-0.405516	-1.131043	-1.050034
C42	C	-0.517268	-1.231971	-1.173308
C43	C	-0.517295	-1.231951	-1.063587
C44	C	-0.573149	-1.282438	-1.234947
C45	C	-0.629047	-1.332879	-1.186861
C46	C	-0.629073	-1.332852	-1.077132
C47	C	-0.573196	-1.282387	-1.015500
C48	C	-0.461558	-1.181388	-0.338173
C49	C	-0.461367	-1.181535	-0.221395
H50	H	-0.949733	-1.250793	-0.528339
Br51	Br	-0.994672	-1.082104	-0.729876
Br52	Br	-0.704951	-1.401297	-1.011882
H53	H	-0.349655	-1.080560	-0.899058
H54	H	-0.573209	-1.282362	-0.926159
Br55	Br	-0.362125	-0.648249	-0.479847
Br56	Br	-0.217895	-0.961671	-0.952831
Br57	Br	-0.217845	-0.961724	-1.211472
Br58	Br	-0.349571	-1.080652	-1.356754
Br59	Br	-0.573121	-1.282463	-1.383856
H60	H	-0.674543	-1.373961	-1.237055
H61	H	-0.530937	-0.693207	-0.702740
