data_functionalizedCrystal
_audit_creation_method	'MofGen! by Chris Wilmer'
_symmetry_space_group_name_H-M	'P1'
_symmetry_Int_Tables_number	1
_symmetry_cell_setting	triclinic
loop_
_symmetry_equiv_pos_as_xyz
  x,y,z
_cell_length_a	15.995350
_cell_length_b	15.995350
_cell_length_c	14.472311
_cell_angle_alpha	89.994208
_cell_angle_beta	90.002404
_cell_angle_gamma	83.492375
loop_
_atom_site_label
_atom_site_type_symbol
_atom_site_fract_x
_atom_site_fract_y
_atom_site_fract_z
O1	O	1.110989	0.107916	0.076758
O2	O	0.867213	0.121244	0.076776
O3	O	0.995765	-0.007308	0.076766
O4	O	0.982437	0.236468	0.076769
O5	O	0.995747	-0.007291	-0.076916
O6	O	0.867196	0.121261	-0.076906
O7	O	1.110971	0.107933	-0.076924
Cu8	Cu	0.989082	0.114598	-0.090947
Cu9	Cu	0.989103	0.114578	0.090800
O10	O	0.982420	0.236484	-0.076913
C11	C	0.836010	0.120701	-0.000062
C12	C	0.743060	0.119049	-0.000055
C13	C	0.995205	-0.038494	-0.000073
C14	C	0.993553	-0.131444	-0.000068
C15	C	0.405312	0.113117	-0.000074
C16	C	0.452746	0.021565	-0.000418
C17	C	0.549436	0.023217	-0.000065
C18	C	0.572873	0.116060	-0.000065
C19	C	0.531795	0.161206	0.087692
C20	C	0.435160	0.158907	0.087759
C21	C	0.434801	0.160817	-0.087007
C22	C	0.531746	0.160796	-0.088160
C23	C	0.667570	0.117727	-0.000057
C24	C	0.310614	0.111452	-0.000076
C25	C	0.987621	-0.469192	-0.000071
C26	C	0.896069	-0.421758	0.000281
C27	C	0.897721	-0.325068	-0.000066
C28	C	0.990564	-0.301631	-0.000069
C29	C	1.035710	-0.342699	-0.087831
C30	C	1.033411	-0.439335	-0.087904
C31	C	1.035321	-0.439712	0.086861
C32	C	1.035300	-0.342767	0.088021
C33	C	0.992231	-0.206934	-0.000071
C34	C	0.985956	-0.563890	-0.000075
C35	C	1.142175	0.108476	-0.000083
C36	C	1.235125	0.110127	-0.000084
C37	C	0.982980	0.267671	-0.000072
C38	C	0.984631	0.360621	-0.000071
N39	N	0.989074	0.114612	-0.218778
C40	C	0.989089	0.114593	-0.407278
C41	C	0.920292	0.183354	-0.446503
C42	C	0.920056	0.183166	-0.553591
C43	C	0.989103	0.114577	-0.592869
C44	C	0.970378	0.027106	-0.553978
C45	C	0.969876	0.027519	-0.446857
C46	C	1.076821	0.132515	-0.446744
C47	C	1.076241	0.134490	-0.553872
C48	C	0.989113	0.114562	-0.697757
C49	C	0.989077	0.114603	-0.302390
N50	N	0.989117	0.114558	0.218631
H51	H	0.577858	-0.012271	-0.062973
H52	H	0.434217	-0.015023	-0.063352
C53	C	0.426286	-0.027660	0.084123
H54	H	0.386459	0.007341	0.119630
H55	H	0.401741	-0.075855	0.063941
H56	H	0.474337	-0.044821	0.120966
C57	C	0.587084	-0.025057	0.085069
H58	H	0.543275	-0.045748	0.119578
H59	H	0.626055	-0.070876	0.065504
H60	H	0.615138	0.011682	0.122661
H61	H	1.128014	0.082378	-0.421370
H62	H	0.403040	0.228318	-0.087600
H63	H	1.018097	-0.025204	-0.420907
C64	C	0.410432	0.114406	0.176372
H65	H	0.459425	0.097897	0.211988
H66	H	0.372462	0.151809	0.211458
H67	H	0.384170	0.066041	0.160334
C68	C	0.846636	-0.446809	0.085292
H69	H	0.881384	-0.486424	0.121331
H70	H	0.829801	-0.398237	0.121433
H71	H	0.798227	-0.471242	0.065552
C72	C	0.391591	0.249703	0.093163
H73	H	0.432975	0.287829	0.095315
H74	H	0.357069	0.261267	0.040248
H75	H	0.357862	0.256029	0.147285
C76	C	1.124207	-0.482903	-0.093304
H77	H	1.162334	-0.441519	-0.095451
H78	H	1.135764	-0.517427	-0.040388
H79	H	1.130541	-0.516630	-0.147426
C80	C	1.127855	-0.323625	-0.092252
H81	H	1.153966	-0.349045	-0.145828
H82	H	1.129459	-0.264487	-0.094881
H83	H	1.156992	-0.345592	-0.038772
H84	H	0.854950	0.171675	-0.579230
H85	H	0.545921	0.229415	0.090955
H86	H	1.019174	-0.025312	-0.579417
H87	H	0.560177	0.129836	0.153002
C88	C	0.846836	-0.448217	-0.084250
H89	H	0.791591	-0.419275	-0.083502
H90	H	0.874776	-0.434557	-0.139214
H91	H	0.843755	-0.507151	-0.082170
C92	C	0.568631	0.116274	-0.175867
H93	H	0.608929	0.070615	-0.158878
H94	H	0.524733	0.095711	-0.210333
H95	H	0.595006	0.155032	-0.212491
C96	C	0.935031	0.271479	-0.411732
H97	H	0.983268	0.267130	-0.372974
H98	H	0.943644	0.306589	-0.463001
H99	H	0.887278	0.295081	-0.377752
H100	H	0.905904	0.011778	-0.421883
H101	H	1.094894	0.194959	-0.419736
C102	C	0.993335	-0.304360	-0.176059
H103	H	1.021106	-0.329618	-0.228801
H104	H	0.935913	-0.314331	-0.176845
H105	H	0.996854	-0.245475	-0.176968
C106	C	0.884953	0.005326	-0.590223
H107	H	0.860590	0.049419	-0.629046
H108	H	0.893048	-0.045634	-0.624427
H109	H	0.848508	-0.001226	-0.539549
C110	C	0.407052	0.120397	-0.176867
H111	H	0.377221	0.074045	-0.162204
H112	H	0.371577	0.160803	-0.211129
H113	H	0.455245	0.101385	-0.212696
H114	H	1.002292	-0.315525	0.152945
H115	H	0.862232	-0.296653	0.062846
C116	C	0.552498	0.252259	-0.095325
H117	H	0.586661	0.264416	-0.044452
H118	H	0.581843	0.259351	-0.151336
H119	H	0.501784	0.289442	-0.094584
C120	C	1.095458	0.221412	-0.588220
H121	H	1.050571	0.245471	-0.626173
H122	H	1.101477	0.257090	-0.536749
H123	H	1.146178	0.215295	-0.622954
H124	H	0.861980	-0.297196	-0.063079
C125	C	0.994894	-0.467461	0.176722
H126	H	0.948540	-0.497288	0.162060
H127	H	1.035295	-0.502940	0.210988
H128	H	0.975884	-0.419267	0.212547
C129	C	1.126765	-0.322023	0.095178
H130	H	1.138923	-0.287856	0.044306
H131	H	1.133864	-0.292684	0.151190
H132	H	1.163944	-0.372739	0.094431
C133	C	0.988908	-0.464052	-0.176515
H134	H	0.972398	-0.415056	-0.212127
H135	H	1.026310	-0.502019	-0.211606
H136	H	0.940543	-0.490316	-0.160475
C137	C	0.832824	0.168055	-0.410170
H138	H	0.838049	0.119944	-0.371203
H139	H	0.809322	0.215787	-0.376102
H140	H	0.797141	0.158977	-0.460799
H141	H	1.102822	-0.471473	0.087449
C142	C	0.935051	0.270986	-0.589121
H143	H	0.941337	0.307100	-0.538085
H144	H	0.984665	0.266574	-0.625700
H145	H	0.888387	0.293473	-0.625483
H146	H	1.129815	0.087678	-0.580609
