data_functionalizedCrystal
_audit_creation_method	'MofGen! by Chris Wilmer'
_symmetry_space_group_name_H-M	'P1'
_symmetry_Int_Tables_number	1
_symmetry_cell_setting	triclinic
loop_
_symmetry_equiv_pos_as_xyz
  x,y,z
_cell_length_a	14.044191
_cell_length_b	14.044220
_cell_length_c	10.065875
_cell_angle_alpha	99.592716
_cell_angle_beta	80.446775
_cell_angle_gamma	93.190327
loop_
_atom_site_label
_atom_site_type_symbol
_atom_site_fract_x
_atom_site_fract_y
_atom_site_fract_z
O1	O	1.289948	0.217355	-0.113432
O2	O	1.539948	0.467355	0.136568
O3	O	1.789948	0.717355	0.386568
O4	O	2.039948	0.967355	0.636568
O5	O	1.013277	0.209040	-0.113449
O6	O	1.263277	0.459040	0.136551
O7	O	1.513277	0.709040	0.386551
O8	O	1.763277	0.959040	0.636551
O9	O	1.147458	0.074863	-0.113428
O10	O	1.397458	0.324863	0.136572
O11	O	1.647458	0.574863	0.386572
O12	O	1.897458	0.824863	0.636572
O13	O	1.155767	0.351532	-0.113454
O14	O	1.405767	0.601532	0.136546
O15	O	1.655767	0.851532	0.386546
O16	O	1.905767	1.101532	0.636546
O17	O	1.121881	0.100561	0.113557
O18	O	1.371881	0.350561	0.363557
O19	O	1.621881	0.600561	0.613557
O20	O	1.871881	0.850561	0.863557
O21	O	0.987700	0.234738	0.113535
O22	O	1.237700	0.484738	0.363535
O23	O	1.487700	0.734738	0.613535
O24	O	1.737700	0.984738	0.863535
O25	O	1.264371	0.243053	0.113552
O26	O	1.514371	0.493053	0.363552
O27	O	1.764371	0.743053	0.613552
O28	O	2.014371	0.993053	0.863552
Zn29	Zn	1.121975	0.242976	0.149582
Zn30	Zn	1.371975	0.492976	0.399582
Zn31	Zn	1.621975	0.742976	0.649582
Zn32	Zn	1.871975	0.992976	0.899582
Zn33	Zn	1.155673	0.209118	-0.149480
Zn34	Zn	1.405673	0.459118	0.100520
Zn35	Zn	1.655673	0.709118	0.350520
Zn36	Zn	1.905673	0.959118	0.600520
O37	O	1.130190	0.377230	0.113531
O38	O	1.380190	0.627230	0.363531
O39	O	1.630190	0.877230	0.613531
O40	O	1.880190	1.127230	0.863531
C41	C	0.964867	0.218252	0.000041
C42	C	1.214867	0.468252	0.250041
C43	C	1.464867	0.718252	0.500041
C44	C	1.714867	0.968252	0.750041
C45	C	0.858725	0.207404	0.000035
C46	C	1.108725	0.457404	0.250035
C47	C	1.358725	0.707404	0.500035
C48	C	1.608725	0.957404	0.750035
C49	C	0.613265	0.264506	0.000043
C50	C	0.863265	0.514506	0.250043
C51	C	1.113265	0.764506	0.500043
C52	C	1.363265	1.014506	0.750043
C53	C	0.664390	0.187590	0.000048
C54	C	0.914390	0.437590	0.250048
C55	C	1.164390	0.687590	0.500048
C56	C	1.414390	0.937590	0.750048
C57	C	0.772528	0.198618	0.000041
C58	C	1.022528	0.448618	0.250041
C59	C	1.272528	0.698618	0.500041
C60	C	1.522528	0.948618	0.750041
C61	C	0.505118	0.253480	0.000050
C62	C	0.755118	0.503480	0.250050
C63	C	1.005118	0.753480	0.500050
C64	C	1.255118	1.003480	0.750050
C65	C	1.131034	0.052090	0.000065
C66	C	1.381034	0.302090	0.250065
C67	C	1.631034	0.552090	0.500065
C68	C	1.881034	0.802090	0.750065
C69	C	1.120189	-0.054053	0.000066
C70	C	1.370189	0.195947	0.250066
C71	C	1.620189	0.445947	0.500066
C72	C	1.870189	0.695947	0.750066
C73	C	1.100365	-0.248393	0.000045
C74	C	1.350365	0.001607	0.250045
C75	C	1.600365	0.251607	0.500045
C76	C	1.850365	0.501607	0.750045
C77	C	1.177280	-0.299521	0.000046
C78	C	1.427280	-0.049521	0.250046
C79	C	1.677280	0.200479	0.500046
C80	C	1.927280	0.450479	0.750046
C81	C	1.166249	-0.407659	0.000034
C82	C	1.416249	-0.157659	0.250034
C83	C	1.666249	0.092341	0.500034
C84	C	1.916249	0.342341	0.750034
C85	C	1.111394	-0.140246	0.000057
C86	C	1.361394	0.109754	0.250057
C87	C	1.611394	0.359754	0.500057
C88	C	1.861394	0.609754	0.750057
C89	C	1.312781	0.233840	0.000059
C90	C	1.562781	0.483840	0.250059
C91	C	1.812781	0.733840	0.500059
C92	C	2.062781	0.983840	0.750059
C93	C	1.418925	0.244687	0.000056
C94	C	1.668925	0.494687	0.250056
C95	C	1.918925	0.744687	0.500056
C96	C	2.168925	0.994687	0.750056
C97	C	1.146614	0.400002	0.000035
C98	C	1.396614	0.650002	0.250035
C99	C	1.646614	0.900002	0.500035
C100	C	1.896614	1.150002	0.750035
C101	C	1.157460	0.506144	0.000025
C102	C	1.407460	0.756144	0.250025
C103	C	1.657460	1.006144	0.500025
C104	C	1.907460	1.256144	0.750025
N105	N	1.098983	0.266083	0.353684
N106	N	1.348983	0.516083	0.603684
N107	N	1.598983	0.766083	0.853684
N108	N	1.848983	1.016083	1.103684
N109	N	1.178672	0.186003	-0.353581
N110	N	1.428672	0.436003	-0.103581
N111	N	1.678672	0.686003	0.146419
N112	N	1.928672	0.936003	0.396419
C113	C	1.147667	0.217151	0.421471
C114	C	1.397667	0.467151	0.671471
C115	C	1.647667	0.717151	0.921471
C116	C	1.897667	0.967151	1.171471
C117	C	1.129980	0.234943	0.578635
C118	C	1.379980	0.484943	0.828635
C119	C	1.629980	0.734943	1.078635
C120	C	1.879980	0.984943	1.328635
H121	H	0.650708	0.338631	0.000032
H122	H	0.900708	0.588631	0.250032
H123	H	1.150708	0.838631	0.500032
H124	H	1.400708	1.088631	0.750032
Cl125	Cl	1.045401	0.319959	0.668658
Cl126	Cl	1.295401	0.569959	0.918658
Cl127	Cl	1.545401	0.819959	1.168658
Cl128	Cl	1.795401	1.069959	1.418658
Cl129	Cl	1.014407	0.351096	0.443712
Cl130	Cl	1.264407	0.601096	0.693712
Cl131	Cl	1.514407	0.851096	0.943712
Cl132	Cl	1.764407	1.101096	1.193712
Cl133	Cl	1.232004	0.131901	0.331444
Cl134	Cl	1.482004	0.381901	0.581444
Cl135	Cl	1.732004	0.631901	0.831444
Cl136	Cl	1.982004	0.881901	1.081444
H137	H	1.233447	0.130931	0.588107
H138	H	1.483447	0.380931	0.838107
H139	H	1.733447	0.630931	1.088107
H140	H	1.983447	0.880931	1.338107
H141	H	1.026238	-0.285833	0.000037
H142	H	1.276238	-0.035833	0.250037
H143	H	1.526238	0.214167	0.500037
H144	H	1.776238	0.464167	0.750037
Cl145	Cl	0.606583	0.073135	0.000058
Cl146	Cl	0.856583	0.323135	0.250058
Cl147	Cl	1.106583	0.573135	0.500058
Cl148	Cl	1.356583	0.823135	0.750058
Cl149	Cl	1.291735	-0.241717	0.000068
Cl150	Cl	1.541735	0.008283	0.250068
Cl151	Cl	1.791735	0.258283	0.500068
Cl152	Cl	2.041735	0.508283	0.750068
