data_functionalizedCrystal
_audit_creation_method	'MofGen! by Chris Wilmer'
_symmetry_space_group_name_H-M	'P1'
_symmetry_Int_Tables_number	1
_symmetry_cell_setting	triclinic
loop_
_symmetry_equiv_pos_as_xyz
  x,y,z
_cell_length_a	19.077105
_cell_length_b	18.050589
_cell_length_c	19.076919
_cell_angle_alpha	87.724745
_cell_angle_beta	89.923776
_cell_angle_gamma	87.724731
loop_
_atom_site_label
_atom_site_type_symbol
_atom_site_fract_x
_atom_site_fract_y
_atom_site_fract_z
Zn1	Zn	1.058247	-0.359281	0.440438
Zn2	Zn	1.391580	-0.025948	0.773772
Zn3	Zn	1.724914	0.307386	1.107105
Zn4	Zn	1.062879	-0.478689	0.322938
Zn5	Zn	1.396213	-0.145356	0.656272
Zn6	Zn	1.729546	0.187977	0.989605
Zn7	Zn	0.945466	-0.349333	0.318231
Zn8	Zn	1.278799	-0.015999	0.651565
Zn9	Zn	1.612132	0.317334	0.984898
Zn10	Zn	0.940701	-0.478241	0.435691
Zn11	Zn	1.274034	-0.144908	0.769024
Zn12	Zn	1.607368	0.188425	1.102358
O13	O	1.001823	-0.416386	0.379325
O14	O	1.335157	-0.083053	0.712658
O15	O	1.668490	0.250281	1.045991
O16	O	1.157193	-0.379472	0.428809
O17	O	1.490526	-0.046139	0.762142
O18	O	1.823860	0.287195	1.095475
O19	O	1.051237	-0.457554	0.223983
O20	O	1.384570	-0.124220	0.557316
O21	O	1.717903	0.209113	0.890649
O22	O	0.960482	-0.246731	0.334459
O23	O	1.293815	0.086603	0.667792
O24	O	1.627148	0.419936	1.001126
O25	O	1.160596	-0.467201	0.342482
O26	O	1.493930	-0.133867	0.675815
O27	O	1.827263	0.199466	1.009149
O28	O	1.043342	-0.254040	0.424244
O29	O	1.376675	0.079293	0.757578
O30	O	1.710008	0.412627	1.090911
O31	O	0.964973	-0.362516	0.220524
O32	O	1.298307	-0.029183	0.553857
O33	O	1.631640	0.304151	0.887191
O34	O	0.846502	-0.362082	0.329856
O35	O	1.179835	-0.028748	0.663189
O36	O	1.513169	0.304585	0.996522
O37	O	0.952361	-0.466437	0.534652
O38	O	1.285695	-0.133104	0.867986
O39	O	1.619028	0.200229	1.201319
O40	O	0.843002	-0.456790	0.416153
O41	O	1.176335	-0.123457	0.749486
O42	O	1.509668	0.209876	1.082820
O43	O	1.038722	-0.379038	0.538140
O44	O	1.372055	-0.045704	0.871474
O45	O	1.705388	0.287629	1.204807
O46	O	1.046617	-0.582551	0.337879
O47	O	1.379950	-0.249218	0.671212
O48	O	1.713283	0.084115	1.004545
O49	O	0.956853	-0.582222	0.420717
O50	O	1.290186	-0.248889	0.754051
O51	O	1.623520	0.084444	1.087384
C52	C	0.819256	-0.408308	0.371979
C53	C	1.152589	-0.074975	0.705312
C54	C	1.485922	0.258358	1.038645
C55	C	0.741152	-0.404871	0.368853
C56	C	1.074485	-0.071538	0.702186
C57	C	1.407818	0.261795	1.035519
C58	C	0.702657	-0.452635	0.412244
C59	C	1.035990	-0.119302	0.745577
C60	C	1.369324	0.214032	1.078911
C61	C	0.629270	-0.449396	0.409310
C62	C	0.962603	-0.116063	0.742643
C63	C	1.295937	0.217271	1.075977
C64	C	0.594379	-0.398396	0.362981
C65	C	0.927712	-0.065063	0.696315
C66	C	1.261046	0.268271	1.029648
C67	C	0.632879	-0.350627	0.319588
C68	C	0.966212	-0.017294	0.652922
C69	C	1.299545	0.316040	0.986255
C70	C	0.706264	-0.353863	0.322526
C71	C	1.039598	-0.020530	0.655859
C72	C	1.372931	0.312803	0.989193
C73	C	0.375093	-0.383419	0.349388
C74	C	0.708426	-0.050086	0.682721
C75	C	1.041759	0.283248	1.016054
C76	C	0.301702	-0.380188	0.346452
C77	C	0.635035	-0.046855	0.679785
C78	C	0.968368	0.286479	1.013118
C79	C	0.298098	-0.478956	0.436175
C80	C	0.631431	-0.145623	0.769508
C81	C	0.964765	0.187710	1.102841
C82	C	0.371485	-0.482191	0.439105
C83	C	0.704818	-0.148858	0.772439
C84	C	1.038152	0.184476	1.105772
C85	C	0.409979	-0.434419	0.395715
C86	C	0.743312	-0.101086	0.729049
C87	C	1.076645	0.232247	1.062382
N88	N	0.519366	-0.395085	0.359980
N89	N	0.852699	-0.061752	0.693313
N90	N	1.186032	0.271581	1.026646
N91	N	0.484990	-0.437727	0.398721
N92	N	0.818324	-0.104394	0.732054
N93	N	1.151657	0.228940	1.065387
C94	C	1.001739	-0.609334	0.379310
C95	C	1.335072	-0.276001	0.712643
C96	C	1.668406	0.057333	1.045976
C97	C	1.001766	-0.691882	0.379329
C98	C	1.335100	-0.358548	0.712663
C99	C	1.668433	-0.025215	1.045996
C100	C	0.952999	-0.891182	0.424363
C101	C	1.286333	-0.557848	0.757696
C102	C	1.619666	-0.224515	1.091029
C103	C	0.938449	-0.937256	0.359556
C104	C	1.271783	-0.603922	0.692889
C105	C	1.605116	-0.270589	1.026222
C106	C	1.001835	-0.843016	0.379341
C107	C	1.335168	-0.509682	0.712675
C108	C	1.668502	-0.176349	1.046008
C109	C	1.016419	-0.944025	0.444157
C110	C	1.349752	-0.610692	0.777490
C111	C	1.683086	-0.277358	1.110824
C112	C	1.001900	-0.989004	0.379358
C113	C	1.335233	-0.655671	0.712692
C114	C	1.668566	-0.322337	1.046025
C115	C	0.987253	-0.887999	0.314499
C116	C	1.320586	-0.554666	0.647832
C117	C	1.653919	-0.221333	0.981166
C118	C	1.065250	-0.894768	0.399145
C119	C	1.398584	-0.561434	0.732478
C120	C	1.731917	-0.228101	1.065811
C121	C	1.050726	-0.940818	0.334295
C122	C	1.384060	-0.607485	0.667628
C123	C	1.717393	-0.274152	1.000961
C124	C	1.001796	-0.758915	0.379332
C125	C	1.335129	-0.425582	0.712666
C126	C	1.668462	-0.092249	1.045999
C127	C	1.001939	-1.073102	0.379360
C128	C	1.335272	-0.739769	0.712694
C129	C	1.668606	-0.406436	1.046027
C130	C	1.185104	-0.424496	0.386700
C131	C	1.518437	-0.091163	0.720033
C132	C	1.851771	0.242171	1.053367
C133	C	1.263207	-0.427952	0.389843
C134	C	1.596540	-0.094618	0.723176
C135	C	1.929874	0.238715	1.056509
C136	C	0.994493	-0.423797	0.562605
C137	C	1.327827	-0.090464	0.895939
C138	C	1.661160	0.242869	1.229272
C139	C	0.991370	-0.426955	0.640709
C140	C	1.324703	-0.093622	0.974042
C141	C	1.658036	0.239711	1.307375
C142	C	1.001926	-0.222686	0.379356
C143	C	1.335260	0.110647	0.712689
C144	C	1.668593	0.443980	1.046023
C145	C	1.001970	-0.140143	0.379369
C146	C	1.335304	0.193191	0.712703
C147	C	1.668637	0.526524	1.046036
C148	C	1.009165	-0.408952	0.196759
C149	C	1.342498	-0.075619	0.530092
C150	C	1.675832	0.257715	0.863426
C151	C	1.012425	-0.405591	0.118661
C152	C	1.345758	-0.072257	0.451995
C153	C	1.679092	0.261076	0.785328
C154	C	1.034863	-0.382937	0.679219
C155	C	1.368197	-0.049603	1.012552
C156	C	1.701530	0.283730	1.345885
C157	C	1.031920	-0.385901	0.752605
C158	C	1.365253	-0.052568	1.085938
C159	C	1.698587	0.280766	1.419271
C160	C	0.985486	-0.432888	0.787479
C161	C	1.318819	-0.099555	1.120813
C162	C	1.652153	0.233778	1.454146
C163	C	0.941988	-0.476908	0.748964
C164	C	1.275321	-0.143575	1.082297
C165	C	1.608654	0.189758	1.415631
C166	C	0.944928	-0.473940	0.675579
C167	C	1.278261	-0.140606	1.008913
C168	C	1.611595	0.192727	1.342246
C169	C	0.971867	-0.446642	1.006761
C170	C	1.305200	-0.113309	1.340095
C171	C	1.638534	0.220024	1.673428
C172	C	0.968931	-0.449609	1.080151
C173	C	1.302265	-0.116276	1.413485
C174	C	1.635598	0.217057	1.746818
C175	C	1.058863	-0.358601	1.083787
C176	C	1.392196	-0.025267	1.417120
C177	C	1.725530	0.308066	1.750454
C178	C	1.061802	-0.355639	1.010401
C179	C	1.395136	-0.022306	1.343734
C180	C	1.728469	0.311027	1.677067
C181	C	1.018301	-0.399657	0.971892
C182	C	1.351635	-0.066323	1.305225
C183	C	1.684968	0.267010	1.638558
N184	N	0.982478	-0.435921	0.862492
N185	N	1.315811	-0.102588	1.195825
N186	N	1.649144	0.230746	1.529158
N187	N	1.021307	-0.396619	0.896881
N188	N	1.354640	-0.063286	1.230214
N189	N	1.687973	0.270047	1.563547
H190	H	0.399888	-0.523722	0.476830
H191	H	0.733222	-0.190389	0.810163
H192	H	1.066555	0.142945	1.143497
H193	H	0.974881	-0.863588	0.259675
H194	H	1.308214	-0.530254	0.593008
H195	H	1.641547	-0.196921	0.926341
H196	H	0.909504	-0.509777	0.644225
H197	H	1.242837	-0.176443	0.977558
H198	H	1.576170	0.156890	1.310891
H199	H	0.911645	-0.869387	0.462377
H200	H	1.244978	-0.536054	0.795710
H201	H	1.578311	-0.202721	1.129044
H202	H	0.731060	-0.494167	0.449968
H203	H	1.064393	-0.160834	0.783301
H204	H	1.397726	0.172500	1.116634
H205	H	1.092055	-0.962470	0.296183
H206	H	1.425388	-0.629137	0.629517
H207	H	1.758721	-0.295804	0.962850
F208	F	1.078236	-0.339077	0.793588
F209	F	1.411569	-0.005743	1.126921
F210	F	1.744903	0.327590	1.460255
F211	F	0.257126	-0.529796	0.482349
F212	F	0.590459	-0.196462	0.815683
F213	F	0.923792	0.136871	1.149016
H214	H	1.094278	-0.322763	1.115149
H215	H	1.427611	0.010570	1.448482
H216	H	1.760945	0.343903	1.781816
F217	F	0.595743	-0.296344	0.270286
F218	F	0.929077	0.036989	0.603619
F219	F	1.262410	0.370322	0.936952
F220	F	0.868390	-0.961800	0.337665
F221	F	1.201723	-0.628466	0.670998
F222	F	1.535057	-0.295133	1.004332
H223	H	0.273296	-0.338649	0.308729
H224	H	0.606629	-0.005316	0.642063
H225	H	0.939962	0.328017	0.975396
H226	H	0.936456	-0.482496	0.975416
H227	H	1.269789	-0.149162	1.308750
H228	H	1.603122	0.184171	1.642083
F229	F	0.892566	-0.526913	0.786082
F230	F	1.225899	-0.193579	1.119415
F231	F	1.559233	0.139754	1.452749
F232	F	1.111224	-0.305630	0.973290
F233	F	1.444557	0.027704	1.306623
F234	F	1.777891	0.361037	1.639957
F235	F	0.416051	-0.332574	0.303209
F236	F	0.749384	0.000759	0.636543
F237	F	1.082717	0.334093	0.969876
F238	F	0.747233	-0.303025	0.276345
F239	F	1.080566	0.030308	0.609678
F240	F	1.413900	0.363642	0.943011
H241	H	1.118835	-0.875974	0.415910
H242	H	1.452168	-0.542641	0.749244
H243	H	1.785501	-0.209308	1.082577
H244	H	0.931117	-0.487874	1.108544
H245	H	1.264450	-0.154540	1.441877
H246	H	1.597784	0.178793	1.775211
H247	H	1.028729	-0.968523	0.498964
H248	H	1.362062	-0.635190	0.832297
H249	H	1.695396	-0.301856	1.165631
H250	H	0.597931	-0.488291	0.444643
H251	H	0.931264	-0.154958	0.777976
H252	H	1.264597	0.178376	1.111310
F253	F	1.084289	-0.332930	0.642109
F254	F	1.417622	0.000403	0.975443
F255	F	1.750955	0.333737	1.308776
