data_functionalizedCrystal
_audit_creation_method	'MofGen! by Chris Wilmer'
_symmetry_space_group_name_H-M	'P1'
_symmetry_Int_Tables_number	1
_symmetry_cell_setting	triclinic
loop_
_symmetry_equiv_pos_as_xyz
  x,y,z
_cell_length_a	15.995350
_cell_length_b	11.792241
_cell_length_c	10.268362
_cell_angle_alpha	90.005428
_cell_angle_beta	90.000938
_cell_angle_gamma	83.842895
loop_
_atom_site_label
_atom_site_type_symbol
_atom_site_fract_x
_atom_site_fract_y
_atom_site_fract_z
O1	O	-1.111650	-0.146296	-0.108190
O2	O	-0.611650	0.353704	0.391810
O3	O	-0.867956	-0.164362	-0.108217
O4	O	-0.367956	0.335638	0.391783
O5	O	-0.995717	0.009891	-0.108194
O6	O	-0.495717	0.509891	0.391806
O7	O	-0.983889	-0.320549	-0.108214
O8	O	-0.483889	0.179451	0.391786
O9	O	-0.995706	0.009898	0.108407
O10	O	-0.495706	0.509898	0.608407
O11	O	-0.867945	-0.164355	0.108383
O12	O	-0.367945	0.335645	0.608383
O13	O	-1.111638	-0.146289	0.108410
O14	O	-0.611638	0.353711	0.608410
Cu15	Cu	-0.989791	-0.155321	0.128174
Cu16	Cu	-0.489791	0.344679	0.628174
Cu17	Cu	-0.989804	-0.155330	-0.127981
Cu18	Cu	-0.489804	0.344670	0.372019
O19	O	-0.983878	-0.320542	0.108387
O20	O	-0.483878	0.179458	0.608387
C21	C	-0.994968	0.052179	0.000106
C22	C	-0.494968	0.552179	0.500106
C23	C	-0.992745	0.178174	0.000104
C24	C	-0.492745	0.678174	0.500104
C25	C	-0.836753	-0.163612	0.000080
C26	C	-0.336753	0.336388	0.500080
C27	C	-0.743792	-0.161372	0.000070
C28	C	-0.243792	0.338628	0.500070
C29	C	-1.142842	-0.147040	0.000110
C30	C	-0.642842	0.352960	0.500110
C31	C	-1.235803	-0.149279	0.000112
C32	C	-0.735803	0.350721	0.500112
C33	C	-0.406008	-0.153331	0.000097
C34	C	0.093992	0.346669	0.500097
C35	C	-0.452879	-0.029232	0.000588
C36	C	0.047121	0.470768	0.500588
C37	C	-0.549579	-0.031471	0.000090
C38	C	-0.049579	0.468529	0.500090
C39	C	-0.573587	-0.157320	0.000084
C40	C	-0.073587	0.342680	0.500084
C41	C	-0.532784	-0.218534	-0.123604
C42	C	-0.032784	0.281466	0.376396
C43	C	-0.436134	-0.215417	-0.123698
C44	C	0.063866	0.284583	0.376302
C45	C	-0.435794	-0.217972	0.122617
C46	C	0.064206	0.282028	0.622617
C47	C	-0.532739	-0.217943	0.124243
C48	C	-0.032739	0.282057	0.624243
C49	C	-0.668295	-0.159581	0.000073
C50	C	-0.168295	0.340419	0.500073
C51	C	-0.311300	-0.151074	0.000100
C52	C	0.188700	0.348926	0.500100
C53	C	-0.984627	-0.362830	0.000084
C54	C	-0.484627	0.137170	0.500084
C55	C	-0.986850	-0.488825	0.000077
C56	C	-0.486850	0.011175	0.500077
N57	N	-0.989788	-0.155315	0.308340
N58	N	-0.489788	0.344685	0.808340
C59	C	-0.988655	0.408852	0.000082
C60	C	-0.488655	0.908852	0.500082
C61	C	-0.990927	0.280486	0.000094
C62	C	-0.490927	0.780486	0.500094
N63	N	-0.989814	-0.155327	-0.308147
N64	N	-0.489814	0.344673	0.191853
C65	C	-0.989800	-0.155328	0.574011
C66	C	-0.489800	0.344672	1.074011
C67	C	-0.989790	-0.155324	0.426173
C68	C	-0.489790	0.344676	0.926173
H69	H	-0.577785	0.016646	0.088756
H70	H	-0.077785	0.516646	0.588756
C71	C	-0.355882	-0.243733	0.320386
C72	C	0.144118	0.256267	0.820386
C73	C	-0.407830	-0.163097	0.249125
C74	C	0.092170	0.336903	0.749125
H75	H	-0.338616	-0.209812	0.398459
H76	H	0.161384	0.290188	0.898459
H77	H	-0.385982	-0.306534	0.341135
H78	H	0.114018	0.193466	0.841135
H79	H	-0.307808	-0.269525	0.269896
H80	H	0.192192	0.230475	0.769896
H81	H	-0.455907	-0.137311	0.299611
H82	H	0.044093	0.362689	0.799611
H83	H	-0.377729	-0.100275	0.228379
H84	H	0.122271	0.399725	0.728379
H85	H	-0.559848	-0.173257	0.215747
H86	H	-0.059848	0.326743	0.715747
C87	C	-0.643930	0.125452	-0.079133
C88	C	-0.143930	0.625452	0.420867
C89	C	-0.586905	0.033902	-0.119811
C90	C	-0.086905	0.533902	0.380189
H91	H	-0.666968	0.165812	-0.153162
H92	H	-0.166968	0.665812	0.346838
H93	H	-0.687851	0.097399	-0.030510
H94	H	-0.187851	0.597399	0.469490
H95	H	-0.615639	0.175244	-0.026156
H96	H	-0.115639	0.675244	0.473844
H97	H	-0.615198	-0.015895	-0.172781
H98	H	-0.115198	0.484105	0.327219
H99	H	-0.542977	0.061955	-0.168456
H100	H	-0.042977	0.561955	0.331544
H101	H	-0.434127	0.020377	0.089290
H102	H	0.065873	0.520377	0.589290
H103	H	-0.417628	-0.170782	-0.216153
H104	H	0.082372	0.329218	0.283847
C105	C	-0.468303	0.147798	-0.116933
C106	C	0.031697	0.647798	0.383067
C107	C	-0.426133	0.037434	-0.118480
C108	C	0.073867	0.537434	0.381520
H109	H	-0.451786	0.188952	-0.190439
H110	H	0.048214	0.688952	0.309561
H111	H	-0.527245	0.143613	-0.119848
H112	H	-0.027245	0.643613	0.380152
H113	H	-0.454465	0.185682	-0.039471
H114	H	0.045535	0.685682	0.460529
H115	H	-0.439976	-0.000453	-0.195939
H116	H	0.060024	0.499547	0.304061
H117	H	-0.367179	0.041615	-0.115577
H118	H	0.132821	0.541615	0.384423
H119	H	-0.404299	-0.306528	-0.129316
H120	H	0.095701	0.193472	0.370684
H121	H	-0.548521	-0.309715	0.131709
H122	H	-0.048521	0.190285	0.631709
C123	C	-0.596418	-0.360841	-0.244727
C124	C	-0.096418	0.139159	0.255273
C125	C	-0.552419	-0.343348	-0.129838
C126	C	-0.052419	0.156652	0.370162
H127	H	-0.608535	-0.437898	-0.248575
H128	H	-0.108535	0.062102	0.251425
H129	H	-0.647478	-0.311639	-0.245865
H130	H	-0.147478	0.188361	0.254135
H131	H	-0.563072	-0.344868	-0.317658
H132	H	-0.063072	0.155132	0.182342
H133	H	-0.585768	-0.359314	-0.056906
H134	H	-0.085768	0.140686	0.443094
H135	H	-0.501351	-0.392567	-0.128689
H136	H	-0.001351	0.107433	0.371311
H137	H	-0.404448	-0.309470	0.123449
H138	H	0.095552	0.190530	0.623449
H139	H	-0.560970	-0.176023	-0.215650
H140	H	-0.060970	0.323977	0.284350
