data_functionalizedCrystal
_audit_creation_method	'MofGen! by Chris Wilmer'
_symmetry_space_group_name_H-M	'P1'
_symmetry_Int_Tables_number	1
_symmetry_cell_setting	triclinic
loop_
_symmetry_equiv_pos_as_xyz
  x,y,z
_cell_length_a	16.959454
_cell_length_b	16.959455
_cell_length_c	21.395355
_cell_angle_alpha	90.032743
_cell_angle_beta	89.987004
_cell_angle_gamma	89.984932
loop_
_atom_site_label
_atom_site_type_symbol
_atom_site_fract_x
_atom_site_fract_y
_atom_site_fract_z
Zn1	Zn	-0.314879	-1.208455	-0.354422
Zn2	Zn	0.185121	-0.708455	0.145578
Zn3	Zn	-0.447039	-1.208356	-0.249655
Zn4	Zn	0.052961	-0.708356	0.250345
Zn5	Zn	-0.314867	-1.076262	-0.249644
Zn6	Zn	0.185133	-0.576262	0.250356
Zn7	Zn	-0.447007	-1.076248	-0.354380
Zn8	Zn	0.052993	-0.576248	0.145620
O9	O	-0.380948	-1.142330	-0.302025
O10	O	0.119052	-0.642330	0.197975
O11	O	-0.332428	-1.319053	-0.340547
O12	O	0.167572	-0.819053	0.159453
O13	O	-0.429515	-1.190799	-0.161976
O14	O	0.070485	-0.690799	0.338024
O15	O	-0.204258	-1.093845	-0.263556
O16	O	0.295742	-0.593845	0.236444
O17	O	-0.429526	-1.318980	-0.263575
O18	O	0.070474	-0.818980	0.236425
O19	O	-0.204266	-1.190966	-0.340536
O20	O	0.295734	-0.690966	0.159464
O21	O	-0.332409	-1.093750	-0.161968
O22	O	0.167591	-0.593750	0.338032
O23	O	-0.332378	-0.965649	-0.263515
O24	O	0.167622	-0.465649	0.236485
O25	O	-0.429472	-1.093821	-0.442064
O26	O	0.070528	-0.593821	0.057936
O27	O	-0.429461	-0.965639	-0.340465
O28	O	0.070539	-0.465639	0.159535
O29	O	-0.332397	-1.190952	-0.442095
O30	O	0.167603	-0.690952	0.057905
O31	O	-0.557646	-1.190785	-0.263534
O32	O	-0.057646	-0.690785	0.236466
O33	O	-0.557623	-1.093725	-0.340475
O34	O	-0.057623	-0.593725	0.159525
C35	C	-0.380915	-0.936964	-0.301985
C36	C	0.119085	-0.436964	0.198015
C37	C	-0.380920	-0.849107	-0.301982
C38	C	0.119080	-0.349107	0.198018
C39	C	-0.431434	-0.477584	-0.261896
C40	C	0.068566	0.022416	0.238104
C41	C	-0.330482	-0.477680	-0.342171
C42	C	0.169518	0.022320	0.157829
C43	C	-0.330471	-0.560226	-0.342160
C44	C	0.169529	-0.060226	0.157840
C45	C	-0.380944	-0.601455	-0.302016
C46	C	0.119056	-0.101455	0.197984
C47	C	-0.431427	-0.560137	-0.261884
C48	C	0.068573	-0.060137	0.238116
C49	C	-0.279995	-0.601550	-0.382296
C50	C	0.220005	-0.101550	0.117704
C51	C	-0.279984	-0.684101	-0.382286
C52	C	0.220016	-0.184101	0.117714
C53	C	-0.330453	-0.725331	-0.342139
C54	C	0.169547	-0.225331	0.157861
C55	C	-0.380937	-0.684008	-0.302005
C56	C	0.119063	-0.184008	0.197995
C57	C	-0.431410	-0.725236	-0.261861
C58	C	0.068590	-0.225236	0.238139
C59	C	-0.481890	-0.683915	-0.221723
C60	C	0.018110	-0.183915	0.278277
C61	C	-0.481896	-0.601367	-0.221737
C62	C	0.018104	-0.101367	0.278263
C63	C	-0.330448	-0.807879	-0.342126
C64	C	0.169552	-0.307879	0.157874
C65	C	-0.431403	-0.807790	-0.261850
C66	C	0.068597	-0.307790	0.238150
C67	C	-0.586314	-1.142264	-0.302015
C68	C	-0.086314	-0.642264	0.197985
C69	C	-0.674171	-1.142308	-0.302031
C70	C	-0.174171	-0.642308	0.197969
C71	C	-1.045664	-1.091865	-0.342084
C72	C	-0.545664	-0.591865	0.157916
C73	C	-1.045629	-1.193016	-0.262030
C74	C	-0.545629	-0.693016	0.237970
C75	C	-0.963083	-1.192988	-0.262025
C76	C	-0.463083	-0.692988	0.237975
C77	C	-0.921824	-1.142397	-0.302049
C78	C	-0.421824	-0.642397	0.197951
C79	C	-0.963111	-1.091834	-0.342079
C80	C	-0.463111	-0.591834	0.157921
C81	C	-0.921790	-1.243545	-0.221991
C82	C	-0.421790	-0.743545	0.278009
C83	C	-0.839239	-1.243519	-0.221983
C84	C	-0.339239	-0.743519	0.278017
C85	C	-0.797979	-1.192931	-0.262011
C86	C	-0.297979	-0.692931	0.237989
C87	C	-0.839270	-1.142367	-0.302043
C88	C	-0.339270	-0.642367	0.197957
C89	C	-0.798011	-1.091776	-0.342067
C90	C	-0.298011	-0.591776	0.157933
C91	C	-0.839302	-1.041214	-0.382103
C92	C	-0.339302	-0.541214	0.117897
C93	C	-0.921850	-1.041246	-0.382106
C94	C	-0.421850	-0.541246	0.117894
C95	C	-0.715430	-1.192899	-0.262007
C96	C	-0.215430	-0.692899	0.237993
C97	C	-0.715458	-1.091745	-0.342061
C98	C	-0.215458	-0.591745	0.157939
C99	C	-0.174780	-1.142418	-0.302050
C100	C	0.325220	-0.642418	0.197950
C101	C	-0.086923	-1.142456	-0.302060
C102	C	0.413077	-0.642456	0.197940
C103	C	-0.380932	-1.142396	-0.465449
C104	C	0.119068	-0.642396	0.034551
C105	C	-0.380925	-1.142424	-0.535090
C106	C	0.119075	-0.642424	-0.035090
C107	C	-0.380973	-0.348499	-0.302055
C108	C	0.119027	0.151501	0.197945
C109	C	-0.380961	-0.436355	-0.302039
C110	C	0.119039	0.063645	0.197961
C111	C	-0.330377	-1.192998	-0.567820
C112	C	0.169623	-0.692998	-0.067820
C113	C	-0.330343	-1.192997	-0.633256
C114	C	0.169657	-0.692997	-0.133256
C115	C	-0.380872	-1.142430	-0.665958
C116	C	0.119128	-0.642430	-0.165958
C117	C	-0.431424	-1.091846	-0.633220
C118	C	0.068576	-0.591846	-0.133220
C119	C	-0.431451	-1.091843	-0.567786
C120	C	0.068549	-0.591843	-0.067786
C121	C	-0.452042	-1.136166	-0.769629
C122	C	0.047958	-0.636166	-0.269629
C123	C	-0.452017	-1.136174	-0.835062
C124	C	0.047983	-0.636174	-0.335062
C125	C	-0.380788	-1.142435	-0.867779
C126	C	0.119212	-0.642435	-0.367779
C127	C	-0.309583	-1.148703	-0.835056
C128	C	0.190417	-0.648703	-0.335056
C129	C	-0.309610	-1.148700	-0.769622
C130	C	0.190390	-0.648700	-0.269622
C131	C	-0.380848	-1.142427	-0.736911
C132	C	0.119152	-0.642427	-0.236911
C133	C	-0.330198	-1.193011	-0.971462
C134	C	0.169802	-0.693011	-0.471462
C135	C	-0.330163	-1.193004	-1.036899
C136	C	0.169837	-0.693004	-0.536899
C137	C	-0.431251	-1.091857	-1.036862
C138	C	0.068749	-0.591857	-0.536862
C139	C	-0.431279	-1.091859	-0.971427
C140	C	0.068721	-0.591859	-0.471427
C141	C	-0.380754	-1.142441	-0.938731
C142	C	0.119246	-0.642441	-0.438731
C143	C	-0.380907	-1.142310	-0.139238
C144	C	0.119093	-0.642310	0.360762
C145	C	-0.380691	-1.142436	-0.069597
C146	C	0.119309	-0.642436	0.430403
H147	H	-0.238879	-0.717737	-0.414969
H148	H	0.261121	-0.217737	0.085031
H149	H	-0.681870	-1.050550	-0.374656
H150	H	-0.181870	-0.550550	0.125344
Cl151	Cl	-0.220099	-1.156574	-0.728486
Cl152	Cl	0.279901	-0.656574	-0.228486
H153	H	-0.289349	-0.841519	-0.374807
H154	H	0.210651	-0.341519	0.125193
Cl155	Cl	-0.787424	-0.977613	-0.432414
Cl156	Cl	-0.287424	-0.477613	0.067586
H157	H	-0.955476	-1.000081	-0.414700
H158	H	-0.455476	-0.500081	0.085300
Cl159	Cl	-1.097569	-1.028309	-0.392415
Cl160	Cl	-0.597569	-0.528309	0.107585
H161	H	-0.522994	-0.567716	-0.189058
H162	H	-0.022994	-0.067716	0.310942
H163	H	-1.079227	-1.234200	-0.229441
H164	H	-0.579227	-0.734200	0.270559
H165	H	-0.472531	-0.443936	-0.229214
H166	H	0.027469	0.056064	0.270786
Cl167	Cl	-0.266775	-1.256565	-0.674411
Cl168	Cl	0.233225	-0.756565	-0.174411
H169	H	-0.472613	-1.050655	-0.541137
H170	H	0.027387	-0.550655	-0.041137
H171	H	-0.955389	-1.284728	-0.189401
H172	H	-0.455389	-0.784728	0.310599
Cl173	Cl	-0.494834	-1.028280	-0.930278
Cl174	Cl	0.005166	-0.528280	-0.430278
H175	H	-0.805625	-1.284689	-0.189385
H176	H	-0.305625	-0.784689	0.310615
Cl177	Cl	-0.663526	-1.256448	-0.211674
Cl178	Cl	-0.163526	-0.756448	0.288326
Cl179	Cl	-0.541531	-1.128302	-0.876193
Cl180	Cl	-0.041531	-0.628302	-0.376193
H181	H	-0.289234	-1.234184	-0.541203
H182	H	0.210766	-0.734184	-0.041203
Cl183	Cl	-0.220032	-1.156578	-0.876179
Cl184	Cl	0.279968	-0.656578	-0.376179
Cl185	Cl	-0.267043	-0.425850	-0.392641
Cl186	Cl	0.232957	0.074150	0.107359
H187	H	-0.289053	-1.234193	-0.944840
H188	H	0.210947	-0.734193	-0.444840
H189	H	-0.238908	-0.567976	-0.414983
H190	H	0.261092	-0.067976	0.085017
Cl191	Cl	-0.266622	-1.256602	-1.078046
Cl192	Cl	0.233378	-0.756602	-0.578046
H193	H	-0.472385	-1.050676	-1.063488
H194	H	0.027615	-0.550676	-0.563488
Cl195	Cl	-0.541598	-1.128319	-0.728505
Cl196	Cl	-0.041598	-0.628319	-0.228505
Cl197	Cl	-0.494943	-1.028273	-0.674331
Cl198	Cl	0.005057	-0.528273	-0.174331
H199	H	-0.472501	-0.841352	-0.229157
H200	H	0.027499	-0.341352	0.270843
Cl201	Cl	-0.545344	-0.735755	-0.171263
Cl202	Cl	-0.045344	-0.235755	0.328737
