data_functionalizedCrystal
_audit_creation_method	'MofGen! by Chris Wilmer'
_symmetry_space_group_name_H-M	'P1'
_symmetry_Int_Tables_number	1
_symmetry_cell_setting	triclinic
loop_
_symmetry_equiv_pos_as_xyz
  x,y,z
_cell_length_a	11.792254
_cell_length_b	11.792254
_cell_length_c	12.503572
_cell_angle_alpha	93.547393
_cell_angle_beta	86.456155
_cell_angle_gamma	84.198598
loop_
_atom_site_label
_atom_site_type_symbol
_atom_site_fract_x
_atom_site_fract_y
_atom_site_fract_z
O1	O	-1.513414	-0.149108	0.089352
O2	O	-1.180081	0.184226	0.422685
O3	O	-0.846747	0.517559	0.756018
O4	O	-1.183075	-0.165126	0.089347
O5	O	-0.849742	0.168208	0.422680
O6	O	-0.516408	0.501541	0.756014
O7	O	-1.356253	0.008052	0.089342
O8	O	-1.022920	0.341385	0.422675
O9	O	-0.689586	0.674719	0.756008
O10	O	-1.340236	-0.322285	0.089357
O11	O	-1.006903	0.011048	0.422690
O12	O	-0.673569	0.344381	0.756023
O13	O	-1.343229	-0.004994	-0.089300
O14	O	-1.009896	0.328340	0.244034
O15	O	-0.676562	0.661673	0.577367
O16	O	-1.170051	-0.178171	-0.089294
O17	O	-0.836718	0.155162	0.244039
O18	O	-0.503385	0.488495	0.577372
O19	O	-1.500390	-0.162153	-0.089290
O20	O	-1.167057	0.171180	0.244043
O21	O	-0.833723	0.504513	0.577377
Cu22	Cu	-1.334031	-0.171354	-0.105604
Cu23	Cu	-1.000698	0.161980	0.227730
Cu24	Cu	-0.667365	0.495313	0.561063
Cu25	Cu	-1.349434	-0.155925	0.105661
Cu26	Cu	-1.016100	0.177408	0.438994
Cu27	Cu	-0.682767	0.510741	0.772327
O28	O	-1.327212	-0.335331	-0.089285
O29	O	-0.993879	-0.001998	0.244049
O30	O	-0.660546	0.331336	0.577382
C31	C	-1.134272	-0.170640	0.000026
C32	C	-0.800939	0.162694	0.333359
C33	C	-0.467606	0.496027	0.666692
C34	C	-1.008259	-0.167620	0.000024
C35	C	-0.674926	0.165714	0.333357
C36	C	-0.341592	0.499047	0.666690
C37	C	-0.905923	-0.165166	0.000026
C38	C	-0.572589	0.168168	0.333360
C39	C	-0.239256	0.501501	0.666693
C40	C	-0.777536	-0.162097	0.000024
C41	C	-0.444202	0.171236	0.333357
C42	C	-0.110869	0.504569	0.666691
N43	N	-1.323207	-0.182204	-0.254196
N44	N	-0.989873	0.151129	0.079138
N45	N	-0.656540	0.484463	0.412471
C46	C	-1.348732	0.043820	0.000021
C47	C	-1.015399	0.377153	0.333355
C48	C	-0.682065	0.710487	0.666688
C49	C	-1.345712	0.169833	0.000022
C50	C	-1.012379	0.503166	0.333356
C51	C	-0.679045	0.836500	0.666689
C52	C	-0.549193	-0.156640	0.000029
C53	C	-0.215859	0.176694	0.333362
C54	C	0.117474	0.510027	0.666695
C55	C	-0.675205	-0.159660	0.000022
C56	C	-0.341872	0.173673	0.333355
C57	C	-0.008539	0.507006	0.666689
C58	C	-1.334733	-0.371099	0.000038
C59	C	-1.001400	-0.037765	0.333371
C60	C	-0.668067	0.295568	0.666705
C61	C	-1.337754	-0.497111	0.000044
C62	C	-1.004421	-0.163778	0.333378
C63	C	-0.671087	0.169555	0.666711
C64	C	-1.343258	0.272170	0.000026
C65	C	-1.009925	0.605503	0.333359
C66	C	-0.676592	0.938837	0.666693
C67	C	-1.340191	0.400558	0.000036
C68	C	-1.006857	0.733891	0.333369
C69	C	-0.673524	1.067224	0.666703
C70	C	-1.307283	-0.198175	-0.473310
C71	C	-0.973950	0.135158	-0.139977
C72	C	-0.640616	0.468491	0.193356
C73	C	-1.376187	-0.129098	-0.526640
C74	C	-1.042854	0.204235	-0.193306
C75	C	-0.709521	0.537568	0.140027
C76	C	-1.367327	-0.137985	-0.648562
C77	C	-1.033994	0.195348	-0.315229
C78	C	-0.700661	0.528682	0.018104
C79	C	-1.316142	-0.189290	-0.351376
C80	C	-0.982808	0.144043	-0.018043
C81	C	-0.649475	0.477376	0.315290
N82	N	-1.360267	-0.145066	0.254253
N83	N	-1.026934	0.188267	0.587586
N84	N	-0.693601	0.521601	0.920919
H85	H	-1.441833	-0.063287	-0.480729
H86	H	-1.108500	0.270047	-0.147395
H87	H	-0.775167	0.603380	0.185938
Cl88	Cl	-1.205940	-0.299784	-0.544187
Cl89	Cl	-0.872607	0.033549	-0.210853
Cl90	Cl	-0.539273	0.366883	0.122480
