data_functionalizedCrystal
_audit_creation_method	'MofGen! by Chris Wilmer'
_symmetry_space_group_name_H-M	'P1'
_symmetry_Int_Tables_number	1
_symmetry_cell_setting	triclinic
loop_
_symmetry_equiv_pos_as_xyz
  x,y,z
_cell_length_a	12.837943
_cell_length_b	19.188930
_cell_length_c	11.892095
_cell_angle_alpha	93.870839
_cell_angle_beta	85.689438
_cell_angle_gamma	88.986861
loop_
_atom_site_label
_atom_site_type_symbol
_atom_site_fract_x
_atom_site_fract_y
_atom_site_fract_z
O1	O	1.381278	0.177430	-0.094009
O2	O	1.079513	0.168466	-0.094014
O3	O	1.239102	0.071891	-0.093990
O4	O	1.221689	0.274006	-0.094034
O5	O	1.225796	0.079929	0.094016
O6	O	1.066207	0.176505	0.093991
O7	O	1.367972	0.185469	0.093996
Zn8	Zn	1.214977	0.182263	0.123844
Zn9	Zn	1.232508	0.171672	-0.123862
O10	O	1.208383	0.282044	0.093971
C11	C	1.034253	0.169458	-0.000012
C12	C	0.919217	0.160427	-0.000013
C13	C	0.677767	0.268994	-0.000021
C14	C	0.569680	0.260512	-0.000021
C15	C	0.594952	0.134982	-0.000005
C16	C	0.703040	0.143464	-0.000005
C17	C	0.744443	0.210472	-0.000015
C18	C	0.852533	0.218953	-0.000023
C19	C	0.877803	0.093423	0.000001
C20	C	0.769716	0.084941	0.000001
C21	C	1.231885	0.049861	0.000016
C22	C	1.230191	-0.027760	0.000026
C23	C	1.323833	-0.066260	0.000033
C24	C	1.322244	-0.139194	0.000015
C25	C	1.227006	-0.173623	0.000012
C26	C	1.133352	-0.135114	-0.000001
C27	C	1.134944	-0.062182	0.000006
N28	N	1.149679	-0.283886	0.063993
N29	N	1.148172	-0.353168	0.063989
C30	C	1.222201	-0.393362	-0.000010
N31	N	1.297809	-0.361657	-0.063992
N32	N	1.299318	-0.292369	-0.063982
C33	C	1.225268	-0.252705	0.000004
C34	C	1.314126	-0.510946	-0.000025
C35	C	1.312534	-0.583882	-0.000050
C36	C	1.123638	-0.579799	-0.000054
C37	C	1.125234	-0.506866	-0.000041
C38	C	1.220481	-0.472444	-0.000020
C39	C	1.413232	0.184477	-0.000009
C40	C	1.528268	0.193508	-0.000015
C41	C	1.215600	0.304074	-0.000037
C42	C	1.217294	0.381694	-0.000054
N43	N	1.203020	0.189491	0.292896
N44	N	1.244474	0.164439	-0.292914
C45	C	1.327677	0.114101	0.529563
C46	C	1.319327	0.119160	0.647904
C47	C	1.177964	0.204661	0.647920
C48	C	1.186314	0.199603	0.529579
C49	C	1.261175	0.154323	0.470405
C50	C	1.269529	0.149269	0.352062
C51	C	1.128162	0.234767	0.352080
C52	C	1.119812	0.239825	0.470421
H53	H	0.932104	0.045770	-0.000002
C54	C	1.028827	-0.218891	-0.096648
C55	C	1.028665	-0.172957	-0.000002
H56	H	0.964197	-0.242256	-0.096646
H57	H	1.038009	-0.193320	-0.162196
H58	H	1.084377	-0.252257	-0.096633
H59	H	0.973119	-0.139587	-0.000021
H60	H	1.019471	-0.198529	0.065563
C61	C	0.955302	-0.594651	0.096583
C62	C	1.018947	-0.617634	-0.000061
H63	H	0.890667	-0.618009	0.096569
H64	H	0.989204	-0.604652	0.162132
H65	H	0.942857	-0.545704	0.096578
H66	H	1.031399	-0.666580	-0.000051
H67	H	0.985038	-0.607638	-0.065627
H68	H	1.058687	-0.030834	0.000001
C69	C	1.500682	-0.522306	-0.000049
C70	C	1.418820	-0.473105	-0.000030
H71	H	1.565315	-0.498944	-0.000062
H72	H	1.491502	-0.547869	0.065507
H73	H	1.500756	-0.553464	-0.065617
H74	H	1.418741	-0.441950	0.065543
H75	H	1.428003	-0.447529	-0.065592
H76	H	1.074014	0.267520	0.303900
C77	C	1.419988	0.137811	0.218887
C78	C	1.351765	0.099475	0.286985
H79	H	1.470745	0.107061	0.178711
H80	H	1.381574	0.161053	0.166743
H81	H	1.453924	0.171312	0.265031
H82	H	1.317822	0.065977	0.240840
H83	H	1.390184	0.076221	0.339135
H84	H	1.388638	0.077237	0.481383
H85	H	1.401391	-0.038239	0.000046
C86	C	0.426631	0.327929	0.096614
C87	C	0.496389	0.324842	-0.000032
H88	H	0.381390	0.367648	0.096608
H89	H	0.386504	0.286816	0.096609
H90	H	0.464694	0.331430	0.162168
H91	H	0.458327	0.321336	-0.065588
H92	H	0.536521	0.365966	-0.000039
C93	C	1.043808	-0.393255	-0.000038
C94	C	1.022298	-0.464539	-0.000040
H95	H	0.980256	-0.367127	-0.000048
H96	H	1.078224	-0.379349	0.065523
H97	H	1.087518	-0.384945	-0.065600
H98	H	0.978594	-0.472850	0.065527
H99	H	0.987866	-0.478450	-0.065608
C100	C	0.816691	0.342182	-0.000024
C101	C	0.898047	0.292607	-0.000027
H102	H	0.844788	0.387654	-0.000016
H103	H	0.779700	0.333465	-0.065582
H104	H	0.770418	0.339055	0.065542
H105	H	0.944315	0.295731	-0.065597
H106	H	0.935054	0.301327	0.065538
H107	H	1.373479	0.086407	0.696067
H108	H	0.711478	0.323555	-0.000030
H109	H	0.735989	0.030385	0.000021
H110	H	1.388792	-0.615228	-0.000050
H111	H	1.058859	0.276689	0.518614
H112	H	1.117008	0.241523	0.696115
H113	H	1.398501	-0.170548	0.000016
C114	C	0.440475	0.066250	0.000022
C115	C	0.549428	0.061331	0.000016
H116	H	0.412373	0.020780	0.000030
H117	H	0.412947	0.093450	0.065575
H118	H	0.422217	0.087846	-0.065549
H119	H	0.567686	0.039739	0.065591
H120	H	0.576966	0.034120	-0.065544
