data_functionalizedCrystal
_audit_creation_method	'MofGen! by Chris Wilmer'
_symmetry_space_group_name_H-M	'P1'
_symmetry_Int_Tables_number	1
_symmetry_cell_setting	triclinic
loop_
_symmetry_equiv_pos_as_xyz
  x,y,z
_cell_length_a	13.032831
_cell_length_b	13.897448
_cell_length_c	13.034296
_cell_angle_alpha	82.788857
_cell_angle_beta	74.814550
_cell_angle_gamma	82.822399
loop_
_atom_site_label
_atom_site_type_symbol
_atom_site_fract_x
_atom_site_fract_y
_atom_site_fract_z
Zn1	Zn	1.700198	-0.489003	-0.806452
Zn2	Zn	1.677511	-0.668493	-0.628822
Zn3	Zn	1.500001	-0.489012	-0.606333
Zn4	Zn	1.522543	-0.632049	-0.783876
O5	O	1.600064	-0.569639	-0.706371
O6	O	1.845827	-0.528060	-0.801749
O7	O	1.635036	-0.659939	-0.477198
O8	O	1.526619	-0.354032	-0.632915
O9	O	1.829159	-0.659931	-0.671245
O10	O	1.673703	-0.354025	-0.779942
O11	O	1.504620	-0.528076	-0.460675
O12	O	1.354354	-0.492738	-0.611024
O13	O	1.565037	-0.597819	-0.935512
O14	O	1.370915	-0.597827	-0.741464
O15	O	1.695560	-0.492723	-0.952098
O16	O	1.656894	-0.798637	-0.649354
O17	O	1.543039	-0.771862	-0.763271
C18	C	1.324094	-0.541330	-0.671355
C19	C	1.206036	-0.529240	-0.656400
C20	C	1.161612	-0.575949	-0.714176
C21	C	1.039593	-0.563455	-0.698721
C22	C	1.599982	-0.820249	-0.706330
C23	C	1.600049	-0.927467	-0.706361
C24	C	1.600169	-1.123767	-0.706441
C25	C	1.600100	-1.014531	-0.706399
C26	C	1.877111	-0.598060	-0.741524
C27	C	1.995172	-0.610171	-0.756504
C28	C	1.635344	-0.541205	-0.983423
C29	C	1.650378	-0.529088	-1.101487
C30	C	1.600177	-0.318052	-0.706438
C31	C	1.600226	-0.210840	-0.706467
C32	C	1.592501	-0.575685	-1.145916
C33	C	1.608038	-0.563162	-1.267941
C34	C	1.564982	-0.597900	-0.430403
C35	C	1.550153	-0.609766	-0.312367
H36	H	0.987296	-0.514207	-0.637815
Cl37	Cl	1.455892	-0.685688	-1.231635
Cl38	Cl	1.744650	-0.453185	-1.182227
H39	H	1.213913	-0.625186	-0.775084
H40	H	1.153736	-0.479995	-0.595499
H41	H	1.047468	-0.659408	-0.817420
H42	H	1.669100	-0.513998	-1.320238
Cl43	Cl	1.498238	-0.651596	-1.065178
