data_functionalizedCrystal
_audit_creation_method	'MofGen! by Chris Wilmer'
_symmetry_space_group_name_H-M	'P1'
_symmetry_Int_Tables_number	1
_symmetry_cell_setting	triclinic
loop_
_symmetry_equiv_pos_as_xyz
  x,y,z
_cell_length_a	12.827893
_cell_length_b	12.759394
_cell_length_c	12.827885
_cell_angle_alpha	89.968776
_cell_angle_beta	89.980728
_cell_angle_gamma	90.014808
loop_
_atom_site_label
_atom_site_type_symbol
_atom_site_fract_x
_atom_site_fract_y
_atom_site_fract_z
Zn1	Zn	1.597674	-0.418216	-0.590838
Zn2	Zn	1.597569	-0.593932	-0.416094
Zn3	Zn	1.422915	-0.418268	-0.416112
Zn4	Zn	1.422902	-0.593854	-0.590794
O5	O	1.510265	-0.506068	-0.503460
O6	O	1.743896	-0.441537	-0.567669
O7	O	1.574363	-0.570684	-0.269860
O8	O	1.446146	-0.271240	-0.439316
O9	O	1.743819	-0.570634	-0.439285
O10	O	1.574541	-0.271202	-0.567686
O11	O	1.446045	-0.441624	-0.269873
O12	O	1.276677	-0.441548	-0.439273
O13	O	1.446124	-0.570501	-0.737036
O14	O	1.276668	-0.570551	-0.567611
O15	O	1.574528	-0.441461	-0.737069
O16	O	1.574350	-0.740943	-0.439243
O17	O	1.446023	-0.740885	-0.567594
C18	C	1.238755	-0.506047	-0.503440
C19	C	1.122602	-0.506064	-0.503456
C20	C	1.070840	-0.569998	-0.566864
C21	C	0.950790	-0.570017	-0.566882
C22	C	1.510202	-0.779035	-0.503434
C23	C	1.510271	-0.895812	-0.503458
C24	C	1.643999	-0.895818	-0.369906
C25	C	1.710890	-0.950682	-0.303143
C26	C	1.710951	-1.060404	-0.303171
C27	C	1.644116	-1.115264	-0.369973
C28	C	1.577225	-1.060400	-0.436736
C29	C	1.577169	-0.950676	-0.436698
C30	C	1.443504	-1.060393	-0.570292
C31	C	1.443436	-0.950672	-0.570260
C32	C	1.376670	-1.115253	-0.637094
C33	C	1.309772	-1.060389	-0.703854
C34	C	1.309712	-0.950661	-0.703822
C35	C	1.376545	-0.895808	-0.637024
C36	C	1.782835	-0.506089	-0.503480
C37	C	1.898988	-0.506098	-0.503489
C38	C	1.510336	-0.505967	-0.776030
C39	C	1.510366	-0.505924	-0.892183
C40	C	1.510356	-0.232034	-0.503508
C41	C	1.510395	-0.115257	-0.503528
C42	C	1.573912	-0.442058	-0.943984
C43	C	1.573944	-0.442012	-1.064034
C44	C	1.510254	-0.506092	-0.231950
C45	C	1.510426	-0.505839	-0.115797
H46	H	0.943496	-0.451362	-0.449197
H47	H	1.078041	-0.451337	-0.449188
O48	O	1.638759	-0.376967	-0.890711
C49	C	1.697782	-0.317594	-0.722487
C50	C	1.624302	-0.391379	-0.782684
H51	H	1.686103	-0.329204	-0.635137
H52	H	1.782086	-0.336030	-0.743810
H53	H	1.679502	-0.232858	-0.743959
H54	H	1.642488	-0.476140	-0.761244
H55	H	1.540019	-0.372853	-0.761355
H56	H	1.455981	-0.560560	-0.936711
O57	O	1.638700	-0.376663	-1.117215
C58	C	1.652726	-0.234922	-1.240642
C59	C	1.579270	-0.308852	-1.180461
H60	H	1.604707	-0.180093	-1.291808
H61	H	1.700524	-0.186796	-1.183037
H62	H	1.707343	-0.283208	-1.291693
H63	H	1.524589	-0.260648	-1.129409
H64	H	1.531545	-0.356982	-1.238123
O65	O	1.124153	-0.635252	-0.631515
C66	C	1.292413	-0.694654	-0.690520
C67	C	1.232171	-0.620716	-0.617230
H68	H	1.379756	-0.682912	-0.679012
H69	H	1.271076	-0.779395	-0.672043
H70	H	1.270994	-0.676341	-0.774827
H71	H	1.253557	-0.638935	-0.532899
H72	H	1.253513	-0.535998	-0.635798
O73	O	0.897533	-0.635222	-0.631615
C74	C	0.729318	-0.694769	-0.690580
C75	C	0.789504	-0.620852	-0.617232
H76	H	0.641966	-0.683193	-0.678960
H77	H	0.750680	-0.676433	-0.774914
H78	H	0.750763	-0.779468	-0.672112
H79	H	0.768091	-0.536128	-0.635605
H80	H	0.768137	-0.639278	-0.532919
H81	H	1.643942	-0.806477	-0.369863
H82	H	1.765308	-0.906006	-0.248755
H83	H	1.456024	-0.560524	-1.071256
H84	H	1.765425	-1.105074	-0.248811
H85	H	1.644181	-1.204605	-0.369999
O86	O	1.376825	-1.221836	-0.637294
C87	C	1.403655	-1.379185	-0.737564
C88	C	1.403544	-1.258481	-0.737475
H89	H	1.425234	-1.408849	-0.818557
H90	H	1.462976	-1.409032	-0.678433
H91	H	1.322755	-1.409033	-0.715775
H92	H	1.484401	-1.228543	-0.759290
H93	H	1.344168	-1.228704	-0.796585
O94	O	1.244969	-1.113632	-0.768889
C95	C	1.194140	-1.147050	-0.946614
C96	C	1.267611	-1.086701	-0.873082
H97	H	1.212404	-1.125282	-1.030868
H98	H	1.205685	-1.234906	-0.935262
H99	H	1.109877	-1.125584	-0.928134
H100	H	1.351902	-1.108079	-0.891516
H101	H	1.255975	-0.998859	-0.884447
H102	H	1.376497	-0.806467	-0.636984
O103	O	1.244884	-0.897321	-0.768790
C104	C	1.230695	-0.773286	-0.909790
C105	C	1.304231	-0.833643	-0.836295
H106	H	1.278646	-0.721772	-0.964372
H107	H	1.182961	-0.831298	-0.957613
H108	H	1.176022	-0.722050	-0.861735
H109	H	1.358967	-0.884880	-0.884269
H110	H	1.351892	-0.775575	-0.788468
