data_functionalizedCrystal
_audit_creation_method	'MofGen! by Chris Wilmer'
_symmetry_space_group_name_H-M	'P1'
_symmetry_Int_Tables_number	1
_symmetry_cell_setting	triclinic
loop_
_symmetry_equiv_pos_as_xyz
  x,y,z
_cell_length_a	14.971486
_cell_length_b	15.995292
_cell_length_c	13.448316
_cell_angle_alpha	89.996588
_cell_angle_beta	89.998199
_cell_angle_gamma	83.541372
loop_
_atom_site_label
_atom_site_type_symbol
_atom_site_fract_x
_atom_site_fract_y
_atom_site_fract_z
O1	O	1.186798	0.109119	-0.082570
O2	O	1.686798	0.609119	0.417430
O3	O	0.926380	0.122187	-0.082596
O4	O	1.426380	0.622187	0.417404
O5	O	1.063735	-0.006231	-0.082584
O6	O	1.563735	0.493769	0.417416
O7	O	1.049444	0.237537	-0.082583
O8	O	1.549444	0.737537	0.417417
O9	O	1.063718	-0.006239	0.082800
O10	O	1.563718	0.493761	0.582800
O11	O	0.926363	0.122179	0.082787
O12	O	1.426363	0.622179	0.582787
O13	O	1.186781	0.109112	0.082814
O14	O	1.686781	0.609112	0.582814
Cu15	Cu	1.056571	0.115644	0.097901
Cu16	Cu	1.556571	0.615644	0.597901
Cu17	Cu	1.056591	0.115654	-0.097684
Cu18	Cu	1.556591	0.615654	0.402316
O19	O	1.049426	0.237529	0.082801
O20	O	1.549426	0.737529	0.582801
C21	C	0.893048	0.121598	0.000092
C22	C	1.393048	0.621598	0.500092
C23	C	0.793753	0.119847	0.000082
C24	C	1.293753	0.619847	0.500082
C25	C	1.063145	-0.037431	0.000105
C26	C	1.563145	0.462569	0.500105
C27	C	1.061401	-0.130386	0.000098
C28	C	1.561401	0.369614	0.500098
C29	C	0.736425	0.195289	0.000084
C30	C	1.236425	0.695289	0.500084
C31	C	0.643128	0.193638	0.000098
C32	C	1.143128	0.693638	0.500098
C33	C	0.607161	0.116545	0.000104
C34	C	1.107161	0.616545	0.500104
C35	C	0.664496	0.041098	0.000105
C36	C	1.164496	0.541098	0.500105
C37	C	0.757792	0.042749	0.000098
C38	C	1.257792	0.542749	0.500098
C39	C	0.470038	0.037661	0.000119
C40	C	0.970038	0.537661	0.500119
C41	C	0.376737	0.036009	0.000125
C42	C	0.876737	0.536009	0.500125
C43	C	0.355375	0.188550	0.000120
C44	C	0.855375	0.688550	0.500120
C45	C	0.448670	0.190202	0.000112
C46	C	0.948670	0.690202	0.500112
C47	C	0.505999	0.114754	0.000111
C48	C	1.005999	0.614754	0.500111
C49	C	1.054990	-0.468130	0.000106
C50	C	1.554990	0.031870	0.500106
C51	C	1.154129	-0.444719	0.000485
C52	C	1.654129	0.055281	0.500485
C53	C	1.156014	-0.348041	0.000109
C54	C	1.656014	0.151959	0.500109
C55	C	1.058171	-0.300571	0.000102
C56	C	1.558171	0.199429	0.500102
C57	C	1.008616	-0.329717	-0.094342
C58	C	1.508616	0.170283	0.405658
C59	C	1.007423	-0.426509	-0.094417
C60	C	1.507423	0.073491	0.405583
C61	C	1.005379	-0.426377	0.093655
C62	C	1.505379	0.073623	0.593655
C63	C	1.009053	-0.329881	0.094900
C64	C	1.509053	0.170119	0.594900
C65	C	1.059964	-0.205873	0.000097
C66	C	1.559964	0.294127	0.500097
C67	C	1.053195	-0.562828	0.000105
C68	C	1.553195	-0.062828	0.500105
C69	C	1.220114	0.109700	0.000123
C70	C	1.720114	0.609700	0.500123
C71	C	1.319408	0.111451	0.000127
C72	C	1.819408	0.611451	0.500127
C73	C	1.050017	0.268729	0.000110
C74	C	1.550017	0.768729	0.500110
C75	C	1.051760	0.361684	0.000111
C76	C	1.551760	0.861684	0.500111
N77	N	1.056563	0.115637	0.235466
N78	N	1.556563	0.615637	0.735466
N79	N	1.056606	0.115654	-0.235249
N80	N	1.556606	0.615654	0.264751
C81	C	1.117402	0.058797	0.287511
C82	C	1.617402	0.558797	0.787511
C83	C	1.117408	0.058797	0.391615
C84	C	1.617408	0.558797	0.891615
C85	C	1.056578	0.115641	0.443670
C86	C	1.556578	0.615641	0.943670
C87	C	0.995732	0.172483	0.391617
C88	C	1.495732	0.672483	0.891617
C89	C	0.995722	0.172479	0.287516
C90	C	1.495722	0.672479	0.787516
C91	C	0.995756	0.172489	0.608597
C92	C	1.495756	0.672489	1.108597
C93	C	0.995766	0.172494	0.712706
C94	C	1.495766	0.672494	1.212706
C95	C	1.117442	0.058806	0.712696
C96	C	1.617442	0.558806	1.212696
C97	C	1.117433	0.058802	0.608595
C98	C	1.617433	0.558802	1.108595
C99	C	1.056588	0.115646	0.556549
C100	C	1.556588	0.615646	1.056549
H101	H	0.765701	0.258067	0.000078
H102	H	1.265701	0.758067	0.500078
C103	C	0.292310	0.271544	0.000126
C104	C	0.792310	0.771544	0.500126
N105	N	0.244807	0.334052	0.000128
N106	N	0.744807	0.834052	0.500128
H107	H	0.946180	0.218763	0.245141
H108	H	1.446180	0.718763	0.745141
H109	H	0.932405	-0.440441	0.094286
H110	H	1.432405	0.059559	0.594286
H111	H	0.946231	0.218781	0.755084
H112	H	1.446231	0.718781	1.255084
H113	H	1.166941	0.012512	0.245135
H114	H	1.666941	0.512512	0.745135
H115	H	0.347456	-0.026767	0.000131
H116	H	0.847456	0.473233	0.500131
H117	H	0.635205	-0.021673	0.000124
H118	H	1.135205	0.478327	0.500124
C119	C	1.057778	-0.304727	0.189293
C120	C	1.557778	0.195273	0.689293
N121	N	1.094473	-0.285767	0.260388
N122	N	1.594473	0.214233	0.760388
H123	H	1.192137	-0.473695	-0.066857
H124	H	1.692137	0.026305	0.433143
C125	C	1.208446	-0.322289	0.091569
C126	C	1.708446	0.177711	0.591569
N127	N	1.247943	-0.302897	0.160458
N128	N	1.747943	0.197103	0.660458
H129	H	1.166947	0.012513	0.433990
H130	H	1.666947	0.512513	0.933990
C131	C	1.055130	-0.302575	-0.189288
C132	C	1.555130	0.197425	0.310712
N133	N	1.090170	-0.282135	-0.260800
N134	N	1.590170	0.217865	0.239200
H135	H	0.477951	0.252978	0.000098
H136	H	0.977951	0.752978	0.500098
C137	C	0.580070	0.276631	0.000118
C138	C	1.080070	0.776631	0.500118
N139	N	0.532575	0.339144	0.000140
N140	N	1.032575	0.839144	0.500140
H141	H	0.516714	-0.023777	0.000120
H142	H	1.016714	0.476223	0.500120
H143	H	0.804468	-0.018684	0.000095
H144	H	1.304468	0.481316	0.500095
H145	H	1.192335	-0.472681	0.068216
H146	H	1.692335	0.027319	0.568216
H147	H	1.195067	-0.329595	-0.067703
H148	H	1.695067	0.170405	0.432297
H149	H	1.041757	-0.453288	-0.165011
H150	H	1.541757	0.046712	0.334989
H151	H	0.934734	-0.441132	-0.098702
H152	H	1.434734	0.058868	0.401298
H153	H	0.936618	-0.297922	-0.097858
H154	H	1.436618	0.202078	0.402142
H155	H	1.036592	-0.454438	0.165243
H156	H	1.536592	0.045562	0.665243
C157	C	0.912570	-0.285442	0.102597
C158	C	1.412570	0.214558	0.602597
N159	N	0.839894	-0.251971	0.108387
N160	N	1.339894	0.248029	0.608387
H161	H	1.166969	0.012520	0.566211
H162	H	1.666969	0.512520	1.066211
H163	H	1.166984	0.012522	0.755078
H164	H	1.666984	0.512522	1.255078
H165	H	0.946207	0.218774	0.566225
H166	H	1.446207	0.718774	1.066225
C167	C	0.928809	0.235004	0.448882
C168	C	1.428809	0.735004	0.948882
N169	N	0.878401	0.282096	0.492013
N170	N	1.378401	0.782096	0.992013
