data_functionalizedCrystal
_audit_creation_method	'MofGen! by Chris Wilmer'
_symmetry_space_group_name_H-M	'P1'
_symmetry_Int_Tables_number	1
_symmetry_cell_setting	triclinic
loop_
_symmetry_equiv_pos_as_xyz
  x,y,z
_cell_length_a	15.712078
_cell_length_b	27.732064
_cell_length_c	14.185569
_cell_angle_alpha	76.959606
_cell_angle_beta	107.170411
_cell_angle_gamma	101.115287
loop_
_atom_site_label
_atom_site_type_symbol
_atom_site_fract_x
_atom_site_fract_y
_atom_site_fract_z
O1	O	1.123643	0.271935	-0.083613
O2	O	0.872484	0.235221	-0.083568
O3	O	1.005856	0.184592	-0.083595
O4	O	0.990272	0.322563	-0.083585
O5	O	1.045255	0.169639	0.083231
O6	O	0.911883	0.220267	0.083259
O7	O	1.163042	0.256981	0.083214
Cu8	Cu	1.041060	0.237259	0.098469
Cu9	Cu	0.994466	0.254943	-0.098823
O10	O	1.029671	0.307609	0.083242
C11	C	0.860062	0.221746	-0.000149
C12	C	0.764347	0.203869	-0.000132
C13	C	0.395226	0.355641	-0.000189
C14	C	0.305281	0.338835	-0.000216
C15	C	0.327011	0.254617	-0.000224
C16	C	0.416959	0.271416	-0.000203
C17	C	0.451059	0.321928	-0.000184
C18	C	0.472792	0.237703	-0.000198
C19	C	0.562733	0.254500	-0.000172
C20	C	0.596841	0.305010	-0.000150
C21	C	0.541000	0.338725	-0.000158
C22	C	0.438691	0.187190	-0.000210
C23	C	0.494524	0.153477	-0.000205
C24	C	0.584465	0.170275	-0.000185
C25	C	0.618573	0.220785	-0.000164
C26	C	0.640306	0.136560	-0.000177
C27	C	0.730247	0.153357	-0.000151
C28	C	0.708514	0.237582	-0.000137
C29	C	1.025225	0.159049	-0.000185
C30	C	1.024231	0.105216	-0.000194
C31	C	0.938662	-0.287344	-0.000183
C32	C	0.942312	-0.085023	-0.000185
O33	O	0.875905	-0.065784	-0.000213
N34	N	1.021399	-0.051581	-0.000199
C35	C	1.099578	-0.068721	-0.000220
O36	O	1.166928	-0.035633	-0.000242
C37	C	1.095926	-0.271040	-0.000225
C38	C	1.016836	-0.304481	-0.000200
C39	C	0.859578	-0.320784	-0.000160
C40	C	0.858668	-0.371362	-0.000154
C41	C	0.936842	-0.388499	-0.000171
C42	C	1.015925	-0.355059	-0.000194
C43	C	1.174102	-0.288179	-0.000252
C44	C	1.173181	-0.338762	-0.000256
C45	C	1.094091	-0.372203	-0.000232
C46	C	1.093188	-0.422774	-0.000206
N47	N	1.014101	-0.456216	-0.000192
C48	C	0.935928	-0.439079	-0.000174
C49	C	1.101491	0.037499	-0.000215
C50	C	1.102405	0.088079	-0.000212
C51	C	0.945138	0.071773	-0.000179
C52	C	0.944226	0.021192	-0.000175
C53	C	1.022403	0.004057	-0.000201
C54	C	0.934022	-0.545295	-0.000161
C55	C	0.933120	-0.595877	-0.000151
C56	C	1.090385	-0.579566	-0.000189
C57	C	1.091289	-0.528989	-0.000194
C58	C	1.013100	-0.511855	-0.000183
O59	O	1.159558	-0.442046	-0.000189
O60	O	0.868582	-0.472172	-0.000174
C61	C	0.939573	-0.236766	-0.000189
C62	C	1.018656	-0.203326	-0.000212
C63	C	1.096830	-0.220463	-0.000230
C64	C	1.019570	-0.152746	-0.000209
C65	C	0.941397	-0.135609	-0.000192
C66	C	0.862309	-0.169051	-0.000178
C67	C	0.861399	-0.219629	-0.000172
C68	C	1.175917	-0.187021	-0.000244
C69	C	1.176821	-0.136444	-0.000249
C70	C	1.098648	-0.119307	-0.000231
C71	C	1.175464	0.270456	-0.000207
C72	C	1.271177	0.288333	-0.000230
C73	C	1.010301	0.333152	-0.000171
C74	C	1.011293	0.386986	-0.000168
N75	N	1.073838	0.224821	0.237233
N76	N	0.961695	0.267378	-0.237587
C77	C	0.865394	0.303898	0.604926
C78	C	0.890228	0.294481	0.709943
C79	C	1.008352	0.249679	0.709879
C80	C	0.983525	0.259090	0.604861
C81	C	0.912045	0.286200	0.552393
C82	C	1.030176	0.241392	0.552327
C83	C	1.005353	0.250804	0.447317
C84	C	0.933879	0.277915	0.394842
C85	C	0.887222	0.295613	0.447383
C86	C	1.101659	0.214284	0.604797
C87	C	1.148311	0.196586	0.552263
C88	C	1.123484	0.205996	0.447252
C89	C	1.052009	0.233106	0.394776
C90	C	1.170140	0.188298	0.394711
C91	C	1.145317	0.197711	0.289701
C92	C	1.027186	0.242519	0.289767
H93	H	0.422993	0.396773	-0.000173
F94	F	0.860049	-0.014394	-0.000150
H95	H	0.259824	0.366292	-0.000215
F96	F	0.342968	0.169313	-0.000229
F97	F	1.246219	0.159451	0.450562
F98	F	0.604005	0.082802	-0.000184
F99	F	0.789672	0.117476	-0.000144
H100	H	0.868713	-0.623104	-0.000126
F101	F	0.777220	-0.255213	-0.000147
F102	F	0.850804	-0.527067	-0.000149
H103	H	1.183307	0.183299	0.246928
F104	F	0.861940	0.090021	-0.000159
H105	H	0.299236	0.213488	-0.000228
F106	F	0.840569	0.313323	0.765846
F107	F	0.744808	0.291345	-0.000129
H108	H	0.670078	0.318685	-0.000124
F109	F	1.084426	0.220828	0.765728
F110	F	0.458223	0.099720	-0.000221
H111	H	0.568767	0.379857	-0.000141
H112	H	1.121870	0.206623	0.690302
F113	F	0.774487	-0.406946	-0.000137
H114	H	0.913671	0.285581	0.309337
H115	H	1.155694	-0.501761	-0.000199
F116	F	1.186586	0.123663	-0.000223
F117	F	0.776367	-0.302554	-0.000145
H118	H	0.807182	0.325970	0.562205
F119	F	1.256390	-0.356995	-0.000287
F120	F	1.184704	0.019270	-0.000238
F121	F	1.224385	0.167735	0.608112
F122	F	1.258277	-0.252597	-0.000296
F123	F	0.811137	0.324462	0.391540
H124	H	1.154033	-0.593529	-0.000198
H125	H	0.798659	-0.155090	-0.000157
H126	H	0.968975	0.264591	0.247045
F127	F	1.261006	-0.100858	-0.000273
H128	H	1.239577	-0.200968	-0.000259
