data_functionalizedCrystal
_audit_creation_method	'MofGen! by Chris Wilmer'
_symmetry_space_group_name_H-M	'P1'
_symmetry_Int_Tables_number	1
_symmetry_cell_setting	triclinic
loop_
_symmetry_equiv_pos_as_xyz
  x,y,z
_cell_length_a	12.376457
_cell_length_b	10.654550
_cell_length_c	10.654548
_cell_angle_alpha	95.515399
_cell_angle_beta	78.611199
_cell_angle_gamma	78.592816
loop_
_atom_site_label
_atom_site_type_symbol
_atom_site_fract_x
_atom_site_fract_y
_atom_site_fract_z
O1	O	0.094095	-1.691739	0.152513
O2	O	0.094076	-1.326256	0.169324
O3	O	0.094084	-1.517401	-0.021820
O4	O	0.094087	-1.500594	0.343657
O5	O	-0.093930	-1.469631	0.025900
O6	O	-0.093938	-1.278486	0.217045
O7	O	-0.093919	-1.643969	0.200234
Zn8	Zn	-0.123780	-1.453643	0.216216
Zn9	Zn	0.123937	-1.516582	0.153342
O10	O	-0.093926	-1.452824	0.391378
C11	C	0.000067	-1.255572	0.191951
C12	C	0.000060	-1.116127	0.188261
N13	N	-0.292840	-1.410698	0.259125
C14	C	0.000079	-1.492283	-0.044759
C15	C	0.000084	-1.488593	-0.184203
C16	C	-0.647815	-1.659225	0.010792
C17	C	-0.529474	-1.689275	-0.019240
C18	C	-0.470309	-1.619633	0.050348
C19	C	-0.529498	-1.519937	0.149975
C20	C	-0.647850	-1.489890	0.180017
C21	C	-0.470345	-1.450298	0.219573
C22	C	-0.529533	-1.350602	0.319199
C23	C	-0.647874	-1.320560	0.349236
C24	C	-0.707039	-1.390202	0.279647
C25	C	-0.351992	-1.480345	0.189531
C26	C	-0.352028	-1.311010	0.358755
C27	C	-0.470369	-1.280960	0.388788
N28	N	0.292997	-1.559537	0.110423
C29	C	0.000093	-1.714653	0.177606
C30	C	0.000107	-1.854100	0.181294
C31	C	0.000078	-1.036646	0.300798
C32	C	0.000097	-0.905630	0.297316
C33	C	0.000086	-0.933592	0.068750
C34	C	0.000059	-1.064603	0.072234
C35	C	0.000079	-1.088170	0.416824
C36	C	0.000098	-1.008687	0.529370
C37	C	0.000118	-0.877672	0.525889
C38	C	0.000118	-0.826138	0.409861
C39	C	0.102571	-1.509410	-0.406747
C40	C	0.102572	-1.512894	-0.275728
C41	C	-0.102411	-1.460819	-0.223705
C42	C	-0.102411	-1.457345	-0.354724
C43	C	0.205065	-1.533700	-0.498265
C44	C	0.307561	-1.561476	-0.458773
C45	C	0.307562	-1.564960	-0.327753
C46	C	0.205067	-1.540668	-0.236226
C47	C	0.000081	-1.477943	0.414316
C48	C	0.000083	-1.481635	0.553758
H49	H	-0.303812	-1.561518	0.108415
F50	F	-0.211486	-1.434964	-0.126293
H51	H	-0.518575	-1.199785	0.469906
F52	F	0.000064	-1.227608	0.420538
H53	H	0.205076	-1.543518	-0.129544
H54	H	0.000088	-1.050652	0.623838
F55	F	-0.211490	-1.427790	-0.396760
F56	F	0.000126	-0.793081	0.645670
F57	F	0.000038	-1.149197	-0.047540
F58	F	0.000124	-0.686694	0.406166
H59	H	0.391019	-1.587588	-0.295604
H60	H	-0.695994	-1.715925	-0.045851
H61	H	-0.373951	-1.644105	0.025891
F62	F	-0.710867	-1.214467	0.455279
F63	F	-0.466485	-1.795375	-0.125263
F64	F	0.000091	-0.878742	-0.054727
F65	F	0.416637	-1.587344	-0.556184
H66	H	-0.803402	-1.365732	0.304095
H67	H	-0.303857	-1.254303	0.415423
F68	F	0.205073	-1.529987	-0.637708
