data_functionalizedCrystal
_audit_creation_method	'MofGen! by Chris Wilmer'
_symmetry_space_group_name_H-M	'P1'
_symmetry_Int_Tables_number	1
_symmetry_cell_setting	triclinic
loop_
_symmetry_equiv_pos_as_xyz
  x,y,z
_cell_length_a	17.077404
_cell_length_b	19.121063
_cell_length_c	17.077396
_cell_angle_alpha	87.591200
_cell_angle_beta	90.018362
_cell_angle_gamma	92.466911
loop_
_atom_site_label
_atom_site_type_symbol
_atom_site_fract_x
_atom_site_fract_y
_atom_site_fract_z
Zn1	Zn	1.186695	-0.279652	0.457130
Zn2	Zn	1.180991	-0.397108	0.331455
Zn3	Zn	1.055426	-0.279672	0.325881
Zn4	Zn	1.049786	-0.397062	0.462679
O5	O	1.118225	-0.338373	0.394286
O6	O	1.295785	-0.295243	0.440469
O7	O	1.164308	-0.381558	0.220870
O8	O	1.077587	-0.181384	0.338637
O9	O	1.291594	-0.381538	0.348136
O10	O	1.174030	-0.181370	0.435065
O11	O	1.072056	-0.295278	0.216775
O12	O	0.944832	-0.295233	0.344018
O13	O	1.067974	-0.381460	0.571788
O14	O	0.940688	-0.381479	0.444522
O15	O	1.168561	-0.295199	0.567712
O16	O	1.158839	-0.495387	0.353517
O17	O	1.062443	-0.495353	0.449926
C18	C	0.914278	-0.338353	0.394268
C19	C	0.827028	-0.338362	0.394279
C20	C	0.788217	-0.293508	0.442437
C21	C	0.706236	-0.293512	0.442441
C22	C	0.663068	-0.338375	0.394290
C23	C	0.701884	-0.383231	0.346127
C24	C	0.783864	-0.383222	0.346119
C25	C	0.531014	-0.383247	0.346147
C26	C	0.449029	-0.383257	0.346155
C27	C	0.453386	-0.293537	0.442469
C28	C	0.535365	-0.293528	0.442462
C29	C	0.574176	-0.338385	0.394299
C30	C	1.109432	-0.520854	0.402945
C31	C	1.105742	-0.598919	0.406676
C32	C	1.154235	-0.635589	0.358275
C33	C	1.150770	-0.708941	0.361788
C34	C	1.098806	-0.745620	0.413699
C35	C	1.050310	-0.708945	0.462106
C36	C	1.053780	-0.635596	0.458596
C37	C	1.085819	-0.967090	0.426810
C38	C	1.082351	-1.040445	0.430314
C39	C	1.182812	-1.040435	0.329998
C40	C	1.186274	-0.967084	0.326489
C41	C	1.137781	-0.930415	0.374898
C42	C	1.095260	-0.820597	0.417290
C43	C	1.141331	-0.855440	0.371311
C44	C	1.322968	-0.338394	0.394305
C45	C	1.410217	-0.338403	0.394314
C46	C	1.118275	-0.338322	0.599028
C47	C	1.118296	-0.338300	0.686277
C48	C	1.127074	-0.155180	0.385610
C49	C	1.130844	-0.077115	0.381913
C50	C	1.118223	-0.338374	0.190338
C51	C	1.118363	-0.338198	0.103081
C52	C	1.170673	-0.293380	0.725145
C53	C	1.170684	-0.293356	0.807125
C54	C	1.118320	-0.338257	0.850234
C55	C	1.065937	-0.383179	0.811360
C56	C	1.065924	-0.383198	0.729382
C57	C	1.065971	-0.383136	0.982228
C58	C	1.065985	-0.383118	1.064212
C59	C	1.170731	-0.293295	1.059971
C60	C	1.170718	-0.293314	0.977993
C61	C	1.118335	-0.338237	0.939125
H62	H	0.562611	-0.419772	0.306926
Cl63	Cl	1.251614	-0.920977	0.261238
Cl64	Cl	0.984988	-0.755057	0.527370
Cl65	Cl	1.024855	-0.921002	0.487666
H66	H	1.183643	-0.825573	0.329048
H67	H	1.014293	-0.605740	0.498010
H68	H	1.213382	-0.256716	1.091622
Cl69	Cl	0.842477	-0.237109	0.502977
H70	H	0.413883	-0.419788	0.306947
H71	H	0.815463	-0.419747	0.306903
Cl72	Cl	1.029936	-0.866715	0.482547
H73	H	1.222293	-1.070298	0.290587
Cl74	Cl	1.017010	-1.086556	0.495569
H75	H	1.023299	-0.419735	0.846467
H76	H	1.196546	-0.605729	0.316000
H77	H	1.190258	-0.738794	0.322374
Cl78	Cl	1.000073	-0.439669	0.680519
H79	H	1.213316	-0.256819	0.690051
Cl80	Cl	1.236566	-0.236914	0.855986
H81	H	1.023345	-0.419679	1.099310
Cl82	Cl	1.236552	-0.236871	0.923799
H83	H	0.674640	-0.256989	0.481658
H84	H	0.570510	-0.257001	0.481675
Cl85	Cl	0.404595	-0.237143	0.503014
Cl86	Cl	0.647616	-0.439626	0.285589
Cl87	Cl	1.000117	-0.439611	0.933366
