data_functionalizedCrystal
_audit_creation_method	'MofGen! by Chris Wilmer'
_symmetry_space_group_name_H-M	'P1'
_symmetry_Int_Tables_number	1
_symmetry_cell_setting	triclinic
loop_
_symmetry_equiv_pos_as_xyz
  x,y,z
_cell_length_a	15.297327
_cell_length_b	12.759401
_cell_length_c	12.759401
_cell_angle_alpha	89.996251
_cell_angle_beta	80.337395
_cell_angle_gamma	80.293454
loop_
_atom_site_label
_atom_site_type_symbol
_atom_site_fract_x
_atom_site_fract_y
_atom_site_fract_z
Zn1	Zn	-0.359340	-1.533580	0.666344
Zn2	Zn	-0.510175	-1.503077	0.521039
Zn3	Zn	-0.359324	-1.357930	0.490680
Zn4	Zn	-0.510168	-1.327429	0.696679
O5	O	-0.434752	-1.430504	0.593685
O6	O	-0.379358	-1.676552	0.647079
O7	O	-0.490161	-1.483822	0.369990
O8	O	-0.233072	-1.406760	0.488582
O9	O	-0.490176	-1.654142	0.540324
O10	O	-0.233084	-1.535809	0.617641
O11	O	-0.379331	-1.377183	0.347686
O12	O	-0.379325	-1.206865	0.517997
O13	O	-0.490164	-1.354777	0.839677
O14	O	-0.490149	-1.184456	0.669343
O15	O	-0.379351	-1.506234	0.817389
O16	O	-0.636428	-1.454247	0.569739
O17	O	-0.636423	-1.325200	0.698780
C18	C	-0.669162	-1.383132	0.640868
C19	C	-0.769444	-1.362963	0.661089
C20	C	-0.434735	-1.157540	0.593668
C21	C	-0.434750	-1.040760	0.593690
C22	C	-0.434758	-1.430506	0.867720
C23	C	-0.434761	-1.430506	0.984497
C24	C	-1.052006	-1.575093	0.449527
C25	C	-0.957787	-1.594043	0.430524
C26	C	-0.910696	-1.536275	0.488163
C27	C	-0.957835	-1.459553	0.564809
C28	C	-1.052064	-1.440595	0.583809
C29	C	-0.910754	-1.401777	0.622445
C30	C	-0.957892	-1.325055	0.699091
C31	C	-1.052112	-1.306101	0.718088
C32	C	-1.099202	-1.363869	0.660448
C33	C	-0.816525	-1.420735	0.603446
C34	C	-0.816582	-1.286237	0.737728
C35	C	-0.910802	-1.267287	0.756731
C36	C	-0.199426	-1.478089	0.546341
C37	C	-0.099145	-1.498367	0.526166
C38	C	-0.434769	-1.704534	0.593704
C39	C	-0.434777	-1.821309	0.593712
C40	C	-0.492548	-0.974239	0.672403
C41	C	-0.492560	-0.864513	0.672417
C42	C	-0.376972	-0.887839	0.514994
C43	C	-0.376956	-0.997564	0.514986
C44	C	-0.559285	-0.960770	0.763287
C45	C	-0.559297	-0.851044	0.763301
C46	C	-0.377068	-1.509359	1.137482
C47	C	-0.377068	-1.509362	1.027758
C48	C	-0.492464	-1.351649	1.050968
C49	C	-0.492468	-1.351651	1.160691
C50	C	-0.310442	-1.600411	1.124081
C51	C	-0.310442	-1.600414	1.014357
C52	C	-0.434766	-1.430494	1.320721
C53	C	-0.434765	-1.430506	1.203944
H54	H	-0.778153	-1.483202	0.541040
F55	F	-1.102277	-1.224442	0.799657
F56	F	-0.315466	-0.841857	0.431237
F57	F	-0.526733	-0.813147	0.857845
F58	F	-0.553872	-1.267731	1.004925
F59	F	-0.343158	-1.694830	0.976458
H60	H	-1.090356	-1.622113	0.402598
F61	F	-0.223716	-1.579760	1.151121
H62	H	-0.833978	-1.551707	0.472685
F63	F	-1.199482	-1.343371	0.680334
H64	H	-0.949195	-1.204819	0.819137
H65	H	-0.240564	-1.592749	0.970519
H66	H	-0.540680	-0.994313	0.840947
H67	H	-0.778242	-1.239195	0.784661
H68	H	-0.919410	-1.656508	0.368118
H69	H	-0.329885	-1.051724	0.450895
H70	H	-0.625615	-0.981405	0.747360
H71	H	-0.629148	-0.807157	0.755435
H72	H	-0.539459	-1.287450	1.214802
F73	F	-0.334909	-1.701819	1.167932
