data_functionalizedCrystal
_audit_creation_method	'MofGen! by Chris Wilmer'
_symmetry_space_group_name_H-M	'P1'
_symmetry_Int_Tables_number	1
_symmetry_cell_setting	triclinic
loop_
_symmetry_equiv_pos_as_xyz
  x,y,z
_cell_length_a	23.532407
_cell_length_b	23.532407
_cell_length_c	9.798715
_cell_angle_alpha	89.988376
_cell_angle_beta	89.999003
_cell_angle_gamma	82.848747
loop_
_atom_site_label
_atom_site_type_symbol
_atom_site_fract_x
_atom_site_fract_y
_atom_site_fract_z
O1	O	0.755259	0.069134	-0.113430
O2	O	0.589396	0.079137	-0.113455
O3	O	0.677329	-0.008796	-0.113403
O4	O	0.667326	0.157067	-0.113481
O5	O	0.677322	-0.008796	0.113579
O6	O	0.589389	0.079137	0.113527
O7	O	0.755252	0.069134	0.113552
Zn8	Zn	0.672320	0.074135	0.149578
Zn9	Zn	0.672328	0.074136	-0.149481
O10	O	0.667319	0.157067	0.113501
C11	C	0.568176	0.078882	0.000034
C12	C	0.504959	0.078116	0.000026
C13	C	0.238792	0.022921	0.000089
C14	C	0.298192	0.023632	0.000088
O15	O	0.334937	-0.020153	0.000156
N16	N	0.320818	0.075909	0.000054
C17	C	0.284041	0.127477	0.000035
O18	O	0.308740	0.172007	0.000007
C19	C	0.224642	0.126765	0.000046
C20	C	0.202019	0.074485	0.000066
C21	C	0.216168	-0.029354	0.000111
C22	C	0.156772	-0.030066	0.000109
C23	C	0.119999	0.021499	0.000085
C24	C	0.142623	0.073774	0.000064
C25	C	0.187865	0.178333	0.000036
C26	C	0.128463	0.177616	0.000047
C27	C	0.105840	0.125336	0.000068
C28	C	0.046454	0.124627	0.000038
N29	N	0.023828	0.072351	0.000072
C30	C	0.060600	0.020787	0.000096
C31	C	0.408783	0.128968	0.000015
C32	C	0.468181	0.129681	-0.000005
C33	C	0.482328	0.025836	0.000051
C34	C	0.422929	0.025124	0.000061
C35	C	0.386157	0.076692	0.000049
C36	C	-0.064136	0.019297	0.000091
C37	C	-0.123538	0.018590	0.000083
C38	C	-0.137680	0.122435	0.000035
C39	C	-0.078284	0.123142	0.000035
C40	C	-0.041512	0.071568	0.000068
O41	O	0.009675	0.168390	-0.000024
O42	O	0.035892	-0.023737	0.000141
C43	C	0.677071	-0.030012	0.000095
C44	C	0.676305	-0.093229	0.000115
C45	C	0.621110	-0.359397	0.000022
C46	C	0.621821	-0.299997	0.000032
O47	O	0.578035	-0.263252	-0.000017
N48	N	0.674097	-0.277370	0.000056
C49	C	0.725666	-0.314148	0.000055
O50	O	0.770196	-0.289448	0.000075
C51	C	0.724953	-0.373547	0.000035
C52	C	0.672674	-0.396170	0.000025
C53	C	0.568834	-0.382020	0.000010
C54	C	0.568123	-0.441416	0.000002
C55	C	0.619687	-0.478189	0.000006
C56	C	0.671963	-0.455566	0.000017
C57	C	0.776521	-0.410323	0.000024
C58	C	0.775805	-0.469726	0.000003
C59	C	0.723525	-0.492348	-0.000007
C60	C	0.722816	-0.551735	0.000012
N61	N	0.670539	-0.574361	-0.000011
C62	C	0.618975	-0.537588	-0.000015
C63	C	0.727157	-0.189405	0.000096
C64	C	0.727870	-0.130007	0.000126
C65	C	0.624025	-0.115860	0.000100
C66	C	0.623313	-0.175259	0.000080
C67	C	0.674881	-0.212031	0.000072
C68	C	0.617485	-0.662325	-0.000030
C69	C	0.616779	-0.721727	-0.000033
C70	C	0.720623	-0.735869	-0.000015
C71	C	0.721330	-0.676472	-0.000005
C72	C	0.669757	-0.639701	-0.000018
O73	O	0.766579	-0.588514	0.000056
O74	O	0.574452	-0.562296	-0.000052
C75	C	0.776472	0.069389	0.000061
C76	C	0.839689	0.070155	0.000060
C77	C	0.667577	0.178283	-0.000000
C78	C	0.668343	0.241500	-0.000030
N79	N	0.672318	0.074135	0.353678
N80	N	0.672335	0.074132	-0.353580
C81	C	0.709241	0.037054	0.421476
C82	C	0.709250	0.037052	0.578639
H83	H	0.378846	0.170964	-0.000004
H84	H	0.817798	-0.499664	-0.000011
F85	F	0.631016	0.115633	0.570224
F86	F	0.783513	-0.105937	0.000156
H87	H	0.486595	0.172252	-0.000040
F88	F	0.631005	0.115627	0.429882
F89	F	0.398858	-0.030518	0.000087
F90	F	0.561133	-0.745800	-0.000040
H91	H	-0.141954	-0.023984	0.000096
F92	F	0.132703	-0.085709	0.000119
F93	F	-0.025010	-0.035594	0.000125
H94	H	0.246104	-0.071347	0.000134
F95	F	0.211929	0.233977	0.000014
F96	F	0.521475	-0.029043	0.000075
H97	H	0.740864	0.005307	0.636943
F98	F	-0.176827	0.177310	0.000002
F99	F	0.089330	0.232503	0.000040
H100	H	0.740844	0.005306	0.363172
H101	H	-0.059863	0.165712	0.000017
H102	H	0.582038	-0.085909	0.000099
F103	F	0.512479	-0.465485	-0.000020
F104	F	0.562595	-0.623198	-0.000043
H105	H	0.526842	-0.352085	0.000003
F106	F	0.567670	-0.199330	0.000068
H107	H	0.769152	-0.219343	0.000098
H108	H	0.819093	-0.391915	0.000031
F109	F	0.776972	-0.652395	0.000049
F110	F	0.775499	-0.775015	-0.000001
