data_functionalizedCrystal
_audit_creation_method	'MofGen! by Chris Wilmer'
_symmetry_space_group_name_H-M	'P1'
_symmetry_Int_Tables_number	1
_symmetry_cell_setting	triclinic
loop_
_symmetry_equiv_pos_as_xyz
  x,y,z
_cell_length_a	16.120484
_cell_length_b	16.120566
_cell_length_c	11.169409
_cell_angle_alpha	87.076307
_cell_angle_beta	87.139270
_cell_angle_gamma	89.831930
loop_
_atom_site_label
_atom_site_type_symbol
_atom_site_fract_x
_atom_site_fract_y
_atom_site_fract_z
Zn1	Zn	-0.395513	-1.254511	0.799019
Zn2	Zn	-0.534592	-1.247345	0.607939
Zn3	Zn	-0.388503	-1.115441	0.587680
Zn4	Zn	-0.527468	-1.108363	0.797909
O5	O	-0.461519	-1.181415	0.698137
O6	O	-0.419878	-1.369927	0.782615
O7	O	-0.515261	-1.229811	0.437303
O8	O	-0.273071	-1.139850	0.607700
O9	O	-0.522059	-1.364662	0.642230
O10	O	-0.278221	-1.242024	0.762970
O11	O	-0.407930	-1.132901	0.422418
O12	O	-0.401022	-0.998136	0.606624
O13	O	-0.509916	-1.127787	0.966005
O14	O	-0.503119	-0.992936	0.761079
O15	O	-0.412970	-1.235161	0.966820
O16	O	-0.650010	-1.222948	0.641154
O17	O	-0.644775	-1.120839	0.780724
C18	C	-0.450537	-0.965364	0.681533
C19	C	-0.445859	-0.872935	0.674460
C20	C	-0.677565	-1.170370	0.713045
C21	C	-0.769994	-1.165721	0.719468
C22	C	-0.939224	-1.157239	0.731221
C23	C	-0.982981	-1.205741	0.665083
C24	C	-1.077146	-1.201021	0.671623
C25	C	-0.845050	-1.161957	0.724683
C26	C	-0.437298	-0.703707	0.661555
C27	C	-0.485812	-0.659960	0.734733
C28	C	-0.481049	-0.565796	0.727552
C29	C	-0.442060	-0.797880	0.668734
C30	C	-0.244631	-1.192526	0.683199
C31	C	-0.152206	-1.197260	0.676833
C32	C	-0.461430	-1.181484	1.011178
C33	C	-0.461392	-1.181513	1.144577
C34	C	-0.472547	-0.398310	0.714786
C35	C	-0.477254	-0.490738	0.721832
C36	C	-0.461550	-1.181398	0.386313
C37	C	-0.461362	-1.181542	0.252910
H38	H	-0.949722	-1.250808	0.603549
Br39	Br	-0.994655	-1.082125	0.833775
H40	H	-0.530921	-0.693227	0.802776
H41	H	-0.392192	-0.670442	0.593519
