data_functionalizedCrystal
_audit_creation_method	'MofGen! by Chris Wilmer'
_symmetry_space_group_name_H-M	'P1'
_symmetry_Int_Tables_number	1
_symmetry_cell_setting	triclinic
loop_
_symmetry_equiv_pos_as_xyz
  x,y,z
_cell_length_a	17.699077
_cell_length_b	17.699092
_cell_length_c	16.176319
_cell_angle_alpha	89.994879
_cell_angle_beta	89.993140
_cell_angle_gamma	83.283472
loop_
_atom_site_label
_atom_site_type_symbol
_atom_site_fract_x
_atom_site_fract_y
_atom_site_fract_z
O1	O	1.004084	0.095691	-0.068732
O2	O	0.783706	0.108148	-0.068736
O3	O	0.900118	-0.008269	-0.068732
O4	O	0.887672	0.212109	-0.068736
O5	O	0.900102	-0.008276	0.068761
O6	O	0.783690	0.108141	0.068757
O7	O	1.004068	0.095684	0.068761
Cu8	Cu	0.893878	0.101912	0.081313
Cu9	Cu	0.893897	0.101920	-0.081289
O10	O	0.887656	0.212101	0.068757
C11	C	0.755501	0.107699	0.000010
C12	C	0.671482	0.106362	0.000008
C13	C	0.632006	0.105728	0.074957
C14	C	0.553064	0.104460	0.074958
C15	C	0.513598	0.103831	0.000009
C16	C	0.553080	0.104463	-0.074945
C17	C	0.632022	0.105726	-0.074945
C18	C	0.234716	0.099370	-0.074946
C19	C	0.155769	0.098109	-0.074940
C20	C	0.155758	0.098104	0.074956
C21	C	0.234700	0.099367	0.074956
C22	C	0.274176	0.099994	0.000003
C23	C	0.359774	0.101368	0.000003
C24	C	0.428000	0.102463	0.000009
C25	C	0.899663	-0.036470	0.000013
C26	C	0.898322	-0.120487	0.000009
C27	C	0.897702	-0.159951	-0.074939
C28	C	0.896438	-0.238894	-0.074940
C29	C	0.895798	-0.278373	0.000008
C30	C	0.896415	-0.238903	0.074962
C31	C	0.897674	-0.159961	0.074962
C32	C	0.891335	-0.557268	0.074963
C33	C	0.890077	-0.636216	0.074958
C34	C	0.890098	-0.636201	-0.074939
C35	C	0.891357	-0.557259	-0.074939
C36	C	0.891970	-0.517796	0.000014
C37	C	0.893341	-0.432197	0.000015
C38	C	0.894433	-0.363971	0.000009
C39	C	1.032274	0.096133	0.000013
C40	C	1.116292	0.097470	0.000009
C41	C	0.888111	0.240302	0.000010
C42	C	0.889452	0.324320	0.000008
N43	N	0.893870	0.101905	0.195678
N44	N	0.893910	0.101921	-0.195654
C45	C	0.945433	0.050376	0.238944
C46	C	0.945437	0.050376	0.325491
C47	C	0.893881	0.101908	0.368771
C48	C	0.842312	0.153439	0.325499
C49	C	0.842305	0.153435	0.238953
C50	C	0.842338	0.153453	0.674527
C51	C	0.842351	0.153454	0.761079
C52	C	0.945469	0.050393	0.761065
C53	C	0.945463	0.050390	0.674520
C54	C	0.893892	0.101918	0.631255
C55	C	0.893887	0.101917	0.537411
C56	C	0.893888	0.101913	0.462613
H57	H	0.664133	0.106247	0.135989
H58	H	0.987422	0.008417	0.360718
H59	H	0.123638	0.097597	-0.135976
C60	C	0.509641	0.103758	0.157403
C61	C	0.553050	0.104450	0.239844
C62	C	0.509628	0.103742	0.322293
C63	C	0.422797	0.102341	0.322300
C64	C	0.379382	0.101649	0.239855
C65	C	0.422804	0.102357	0.157407
H66	H	0.617332	0.105487	0.239842
H67	H	0.541766	0.104255	0.383324
H68	H	0.390653	0.101817	0.383334
H69	H	0.315100	0.100612	0.239858
H70	H	0.390666	0.101844	0.096376
H71	H	0.889594	-0.668340	-0.135970
C72	C	0.112335	0.097405	0.157409
C73	C	0.131907	0.031884	0.219248
C74	C	0.088487	0.031189	0.301699
C75	C	0.025494	0.096015	0.322311
C76	C	0.005919	0.161541	0.260470
C77	C	0.049339	0.162236	0.178020
H78	H	0.178541	-0.016108	0.203992
H79	H	0.102978	-0.017318	0.347477
H80	H	-0.006649	0.095500	0.383346
H81	H	-0.040715	0.209533	0.275727
H82	H	0.034848	0.210743	0.132241
C83	C	0.278139	0.100060	-0.157390
C84	C	0.323703	0.166617	-0.178010
C85	C	0.367132	0.167304	-0.260456
C86	C	0.364997	0.101433	-0.322282
C87	C	0.319431	0.034871	-0.301663
C88	C	0.276002	0.034184	-0.219217
H89	H	0.325285	0.215383	-0.132241
H90	H	0.400862	0.216578	-0.275718
H91	H	0.397146	0.101942	-0.383313
H92	H	0.317849	-0.013895	-0.347432
H93	H	0.242271	-0.015090	-0.203954
H94	H	0.520941	0.103946	-0.135969
C95	C	0.675449	0.106426	-0.157389
C96	C	0.673319	0.040559	-0.219220
C97	C	0.716746	0.041255	-0.301666
C98	C	0.762305	0.107818	-0.322281
C99	C	0.764437	0.173690	-0.260448
C100	C	0.721009	0.172994	-0.178002
H101	H	0.639592	-0.008720	-0.203961
H102	H	0.715168	-0.007509	-0.347439
H103	H	0.794453	0.108333	-0.383313
H104	H	0.798164	0.222968	-0.275707
H105	H	0.722588	0.221757	-0.132229
C106	C	0.898407	-0.116527	-0.157385
C107	C	0.963936	-0.136095	-0.219219
C108	C	0.964637	-0.092673	-0.301667
C109	C	0.899810	-0.029684	-0.322281
C110	C	0.834277	-0.010113	-0.260446
C111	C	0.833575	-0.053535	-0.177998
H112	H	1.011929	-0.182726	-0.203960
H113	H	1.013150	-0.107161	-0.347441
H114	H	0.900330	0.002459	-0.383314
H115	H	0.786283	0.036518	-0.275705
H116	H	0.785062	-0.039047	-0.132224
H117	H	0.895936	-0.271022	-0.135971
H118	H	0.898168	-0.127830	0.135993
C119	C	1.002146	-0.006311	0.191341
C120	C	1.058861	-0.062994	0.238938
C121	C	1.115574	-0.119686	0.191338
C122	C	1.115574	-0.119694	0.096141
C123	C	1.058857	-0.063008	0.048539
C124	C	1.002143	-0.006317	0.096139
H125	H	1.058863	-0.062991	0.309413
H126	H	1.157560	-0.161648	0.226576
H127	H	1.157556	-0.161660	0.060904
H128	H	1.058854	-0.063012	-0.021936
H129	H	0.960158	0.035646	0.060900
H130	H	0.800331	0.195395	0.360742
H131	H	0.891882	-0.525119	-0.135970
H132	H	0.266829	0.099883	0.135987
C133	C	0.889367	-0.679643	0.157407
C134	C	0.822803	-0.725206	0.178007
C135	C	0.822094	-0.768633	0.260450
C136	C	0.887949	-0.766498	0.322294
C137	C	0.954518	-0.720934	0.301696
C138	C	0.955227	-0.677507	0.219252
H139	H	0.774049	-0.726788	0.132225
H140	H	0.772815	-0.802362	0.275698
H141	H	0.887425	-0.798645	0.383324
H142	H	1.003272	-0.719352	0.347478
H143	H	1.004506	-0.643777	0.204004
C144	C	0.892028	-0.513868	0.157410
C145	C	0.891339	-0.557298	0.239849
C146	C	0.892039	-0.513895	0.322301
C147	C	0.893429	-0.427062	0.322313
C148	C	0.894118	-0.383628	0.239871
C149	C	0.893418	-0.427031	0.157420
H150	H	0.890310	-0.621581	0.239843
H151	H	0.891529	-0.546049	0.383330
H152	H	0.893947	-0.394933	0.383348
H153	H	0.895147	-0.319344	0.239877
H154	H	0.893928	-0.394877	0.096390
H155	H	0.987447	0.008430	0.639284
H156	H	0.895889	-0.271053	0.135987
H157	H	0.987459	0.008434	0.796300
H158	H	0.800365	0.195419	0.796316
C159	C	0.785620	0.210136	0.626939
C160	C	0.728932	0.266846	0.674541
C161	C	0.672213	0.323532	0.626947
C162	C	0.672181	0.323510	0.531750
C163	C	0.728870	0.266799	0.484143
C164	C	0.785590	0.210112	0.531737
H165	H	0.728954	0.266864	0.745016
H166	H	0.630247	0.365514	0.662189
H167	H	0.630193	0.365473	0.496518
H168	H	0.728848	0.266780	0.413668
H169	H	0.827555	0.168130	0.496494
C170	C	0.785586	0.210120	0.191358
C171	C	0.728902	0.266831	0.238961
C172	C	0.672178	0.323514	0.191368
C173	C	0.672139	0.323486	0.096171
C174	C	0.728826	0.266773	0.048563
C175	C	0.785550	0.210090	0.096156
H176	H	0.728929	0.266853	0.309436
H177	H	0.630215	0.365497	0.226611
H178	H	0.630149	0.365447	0.060939
H179	H	0.728799	0.266750	-0.021912
H180	H	0.827513	0.168107	0.060913
