data_functionalizedCrystal
_audit_creation_method	'MofGen! by Chris Wilmer'
_symmetry_space_group_name_H-M	'P1'
_symmetry_Int_Tables_number	1
_symmetry_cell_setting	triclinic
loop_
_symmetry_equiv_pos_as_xyz
  x,y,z
_cell_length_a	18.101398
_cell_length_b	21.295417
_cell_length_c	18.101390
_cell_angle_alpha	89.962939
_cell_angle_beta	89.975319
_cell_angle_gamma	90.025773
loop_
_atom_site_label
_atom_site_type_symbol
_atom_site_fract_x
_atom_site_fract_y
_atom_site_fract_z
Zn1	Zn	1.132127	-0.250665	-0.418817
Zn2	Zn	1.132023	-0.355945	-0.294967
Zn3	Zn	1.008285	-0.250685	-0.294979
Zn4	Zn	1.008238	-0.355891	-0.418755
O5	O	1.070168	-0.303296	-0.356880
O6	O	1.235746	-0.264644	-0.402409
O7	O	1.115585	-0.342013	-0.191335
O8	O	1.024776	-0.162593	-0.311437
O9	O	1.235670	-0.341993	-0.311417
O10	O	1.115762	-0.162578	-0.402421
O11	O	1.024675	-0.264679	-0.191344
O12	O	0.904646	-0.264627	-0.311377
O13	O	1.024695	-0.341902	-0.522397
O14	O	0.904611	-0.341921	-0.402315
O15	O	1.115716	-0.264592	-0.522442
O16	O	1.115540	-0.444027	-0.311357
O17	O	1.024595	-0.443988	-0.402304
C18	C	0.877758	-0.303271	-0.356841
C19	C	0.795443	-0.303275	-0.356842
C20	C	1.070071	-0.466848	-0.356839
C21	C	1.070097	-0.536816	-0.356846
C22	C	0.496352	-0.303314	-0.356904
C23	C	0.527675	-0.254439	-0.299967
C24	C	0.613293	-0.254571	-0.299724
C25	C	0.644735	-0.303294	-0.356873
C26	C	0.613618	-0.369607	-0.335543
C27	C	0.527972	-0.369335	-0.335147
C28	C	0.527967	-0.286453	-0.435305
C29	C	0.613618	-0.284977	-0.434877
C30	C	0.728594	-0.303287	-0.356857
C31	C	0.412493	-0.303326	-0.356919
C32	C	1.117494	-0.569682	-0.309538
C33	C	1.117529	-0.635425	-0.309555
C34	C	1.070153	-0.668299	-0.356871
C35	C	1.022753	-0.635424	-0.404188
C36	C	1.022725	-0.569683	-0.404175
N37	N	1.005369	-0.771559	-0.362504
N38	N	1.005398	-0.834011	-0.362512
C39	C	1.070236	-0.866373	-0.356914
N40	N	1.135046	-0.833925	-0.351293
N41	N	1.135017	-0.771468	-0.351282
C42	C	1.070179	-0.739584	-0.356891
C43	C	1.117675	-0.970525	-0.309622
C44	C	1.117711	-1.036269	-0.309644
C45	C	1.022929	-1.036267	-0.404273
C46	C	1.022899	-0.970525	-0.404255
C47	C	1.070271	-0.937658	-0.356925
C48	C	1.263330	-0.303322	-0.356919
C49	C	1.345644	-0.303334	-0.356936
C50	C	1.070212	-0.303239	-0.550042
C51	C	1.070231	-0.303214	-0.632356
C52	C	1.070286	-0.139106	-0.356937
C53	C	1.070336	-0.069138	-0.356961
C54	C	1.070271	-0.303175	-0.931447
C55	C	1.127727	-0.254705	-0.900150
C56	C	1.127548	-0.254525	-0.814532
C57	C	1.070252	-0.303195	-0.783064
C58	C	0.992235	-0.285166	-0.814132
C59	C	0.992579	-0.284803	-0.899778
C60	C	1.090144	-0.369798	-0.899855
C61	C	1.091857	-0.369458	-0.814205
C62	C	1.070236	-0.303207	-0.699205
C63	C	1.070281	-0.303162	-1.015306
C64	C	1.070167	-0.303308	-0.164469
C65	C	1.070292	-0.303155	-0.082155
H66	H	0.634333	-0.205397	-0.313095
C67	C	0.642540	-0.389257	-0.258945
N68	N	0.664322	-0.404053	-0.201249
H69	H	0.948313	-0.318570	-0.920478
C70	C	1.169796	-0.934369	-0.257570
N71	N	1.209056	-0.907138	-0.218366
C72	C	0.640928	-0.269633	-0.221242
N73	N	0.661741	-0.280981	-0.162126
C74	C	0.641092	-0.219048	-0.456603
N75	N	0.661787	-0.169388	-0.472963
H76	H	1.114739	-0.205625	-0.921691
H77	H	1.156128	-0.662190	-0.271032
C78	C	1.169597	-0.533532	-0.257466
N79	N	1.208839	-0.506303	-0.218242
C80	C	0.499881	-0.187804	-0.317828
N81	N	0.478942	-0.137613	-0.331281
C82	C	0.500935	-0.388644	-0.257715
N83	N	0.480575	-0.403185	-0.199389
H84	H	0.506395	-0.238940	-0.454697
C85	C	0.932828	-0.331385	-0.786586
N86	N	0.888083	-0.366196	-0.765835
H87	H	0.635024	-0.317980	-0.479573
C88	C	1.039427	-0.420869	-0.785270
N89	N	0.999930	-0.459591	-0.763478
H90	H	1.114393	-0.205170	-0.794062
C91	C	0.969847	-0.219003	-0.926790
N92	N	0.952736	-0.169437	-0.947132
H93	H	1.185399	-0.265816	-0.793528
C94	C	1.169418	-0.387828	-0.786769
N95	N	1.227836	-0.401663	-0.766098
C96	C	1.169854	-1.072421	-0.257598
N97	N	1.209127	-1.099652	-0.218395
H98	H	0.984181	-0.662194	-0.442715
C99	C	0.969065	-0.220098	-0.785187
N100	N	0.951618	-0.171087	-0.763387
H101	H	0.984301	-0.943763	-0.442774
C102	C	1.165684	-0.391949	-0.929045
N103	N	1.222585	-0.408626	-0.951031
H104	H	1.185768	-0.265856	-0.920757
C105	C	0.970816	-1.072424	-0.456323
N106	N	0.931565	-1.099661	-0.495530
C107	C	0.498551	-0.269319	-0.221943
N108	N	0.476612	-0.280527	-0.163175
C109	C	0.499977	-0.420200	-0.388723
N110	N	0.478894	-0.458513	-0.429072
H111	H	0.633983	-0.406998	-0.375715
H112	H	1.048300	-0.405914	-0.920098
H113	H	0.507712	-0.322052	-0.477728
H114	H	0.984128	-0.542923	-0.442700
