data_functionalizedCrystal
_audit_creation_method	'MofGen! by Chris Wilmer'
_symmetry_space_group_name_H-M	'P1'
_symmetry_Int_Tables_number	1
_symmetry_cell_setting	triclinic
loop_
_symmetry_equiv_pos_as_xyz
  x,y,z
_cell_length_a	27.732064
_cell_length_b	27.732048
_cell_length_c	16.098538
_cell_angle_alpha	92.695138
_cell_angle_beta	87.291500
_cell_angle_gamma	82.646040
loop_
_atom_site_label
_atom_site_type_symbol
_atom_site_fract_x
_atom_site_fract_y
_atom_site_fract_z
O1	O	0.643098	0.055383	-0.069116
O2	O	0.502307	0.064119	-0.069151
O3	O	0.577075	-0.010645	-0.069116
O4	O	0.568330	0.130147	-0.069150
O5	O	0.572707	-0.006294	0.069394
O6	O	0.497939	0.068470	0.069360
O7	O	0.638731	0.059734	0.069395
Zn8	Zn	0.567642	0.064792	0.091369
Zn9	Zn	0.573396	0.059061	-0.091125
O10	O	0.563963	0.134498	0.069360
C11	C	0.482116	0.066110	0.000100
C12	C	0.428462	0.065553	0.000087
C13	C	0.574707	-0.026476	0.000141
C14	C	0.574154	-0.080131	0.000148
C15	C	0.051388	0.017588	0.000146
C16	C	0.253049	0.019633	0.000124
O17	O	0.284300	-0.017586	0.000164
N18	N	0.272177	0.063967	0.000109
C19	C	0.240886	0.107793	0.000106
O20	O	0.261782	0.145549	0.000102
C21	C	0.039226	0.105747	0.000134
C22	C	0.020101	0.061410	0.000140
C23	C	0.032263	-0.026745	0.000153
C24	C	-0.018150	-0.027256	0.000154
C25	C	-0.049436	0.016566	0.000148
C26	C	-0.030311	0.060899	0.000141
C27	C	0.007935	0.149573	0.000137
C28	C	-0.042482	0.149057	0.000146
C29	C	-0.061607	0.104720	0.000152
C30	C	-0.112010	0.104210	0.000136
N31	N	-0.131138	0.059877	0.000151
C32	C	-0.099851	0.016054	0.000157
C33	C	0.346761	0.108864	0.000090
C34	C	0.397176	0.109376	0.000081
C35	C	0.409335	0.021216	0.000101
C36	C	0.358919	0.020705	0.000103
C37	C	0.327633	0.064530	0.000104
C38	C	-0.205721	0.014984	0.000158
C39	C	-0.256138	0.014477	0.000155
C40	C	-0.268293	0.102637	0.000141
C41	C	-0.217880	0.103144	0.000139
C42	C	-0.186595	0.059314	0.000150
O43	O	-0.143290	0.141411	0.000106
O44	O	-0.120758	-0.021695	0.000179
C45	C	0.101800	0.018099	0.000145
C46	C	0.120925	0.062432	0.000138
C47	C	0.089638	0.106255	0.000132
C48	C	0.171340	0.062944	0.000130
C49	C	0.202627	0.019122	0.000136
C50	C	0.183499	-0.025212	0.000150
C51	C	0.133087	-0.025723	0.000151
C52	C	0.108766	0.150588	0.000118
C53	C	0.159179	0.151096	0.000116
C54	C	0.190466	0.107274	0.000122
C55	C	0.614859	-0.418945	0.000115
C56	C	0.612808	-0.620605	0.000103
O57	O	0.650029	-0.651859	0.000076
N58	N	0.568474	-0.639732	0.000093
C59	C	0.524649	-0.608440	0.000080
O60	O	0.486893	-0.629336	0.000062
C61	C	0.526700	-0.406781	0.000086
C62	C	0.571037	-0.387657	0.000105
C63	C	0.659192	-0.399820	0.000133
C64	C	0.659704	-0.349408	0.000141
C65	C	0.615883	-0.318120	0.000131
C66	C	0.571549	-0.337245	0.000113
C67	C	0.482876	-0.375491	0.000067
C68	C	0.483393	-0.325073	0.000067
C69	C	0.527730	-0.305949	0.000086
C70	C	0.528240	-0.255545	0.000110
N71	N	0.572574	-0.236418	0.000120
C72	C	0.616396	-0.267706	0.000131
C73	C	0.523575	-0.714314	0.000078
C74	C	0.523062	-0.764729	0.000078
C75	C	0.611221	-0.776890	0.000100
C76	C	0.611734	-0.726475	0.000106
C77	C	0.567909	-0.695187	0.000089
C78	C	0.617468	-0.161836	0.000147
C79	C	0.617976	-0.111419	0.000158
C80	C	0.529817	-0.099262	0.000132
C81	C	0.529308	-0.149675	0.000126
C82	C	0.573138	-0.180961	0.000130
O83	O	0.491039	-0.224263	0.000128
O84	O	0.654147	-0.246801	0.000130
C85	C	0.614347	-0.469357	0.000108
C86	C	0.570013	-0.488481	0.000090
C87	C	0.526192	-0.457194	0.000080
C88	C	0.569500	-0.538896	0.000090
C89	C	0.613322	-0.570184	0.000100
C90	C	0.657656	-0.551057	0.000111
C91	C	0.658168	-0.500645	0.000118
C92	C	0.481857	-0.476320	0.000069
C93	C	0.481349	-0.526733	0.000063
C94	C	0.525170	-0.558021	0.000073
C95	C	0.658921	0.057743	0.000142
C96	C	0.712575	0.058299	0.000150
C97	C	0.566330	0.150329	0.000101
C98	C	0.566883	0.203984	0.000089
N99	N	0.563718	0.068704	0.215916
N100	N	0.577323	0.055145	-0.215672
C101	C	0.595464	0.036982	0.259516
C102	C	0.592723	0.039723	0.346704
C103	C	0.558239	0.074188	0.390290
C104	C	0.526490	0.105911	0.346684
C105	C	0.529228	0.103168	0.259498
C106	C	0.548312	0.084125	0.653536
C107	C	0.545577	0.086867	0.740728
C108	C	0.611811	0.020678	0.740741
C109	C	0.614548	0.017939	0.653554
C110	C	0.582797	0.049661	0.609955
C111	C	0.555438	0.076991	0.479410
C112	C	0.585596	0.046855	0.520837
H113	H	-0.271706	-0.021629	0.000158
C114	C	0.627635	0.004815	0.394660
N115	N	0.653928	-0.021484	0.430780
C116	C	0.666752	-0.090386	0.000177
N117	N	0.703490	-0.074546	0.000188
H118	H	0.517495	0.114935	0.776212
C119	C	0.633399	-0.000933	0.211579
N120	N	0.661972	-0.029493	0.175476
C121	C	0.708479	-0.328379	0.000153
N122	N	0.745219	-0.312544	0.000158
C123	C	-0.171314	-0.033231	0.000164
N124	N	-0.145398	-0.069547	0.000163
H125	H	-0.293776	0.138315	0.000132
C126	C	0.066671	-0.074958	0.000156
N127	N	0.092586	-0.111275	0.000151
C128	C	0.652481	-0.019978	0.605615
N129	N	0.681053	-0.048537	0.569508
H130	H	-0.202309	0.139247	0.000133
C131	C	0.217924	-0.073417	0.000161
N132	N	0.243855	-0.109722	0.000176
C133	C	0.513447	0.119082	0.605589
N134	N	0.487208	0.145436	0.569472
H135	H	0.321291	0.144554	0.000089
C136	C	0.180209	0.199874	0.000113
N137	N	0.196047	0.236612	0.000120
H138	H	0.613671	0.018791	0.485347
H139	H	0.446772	-0.391052	0.000047
H140	H	0.434818	-0.014466	0.000102
C141	C	-0.076895	0.197270	0.000145
N142	N	-0.102814	0.233584	0.000140
H143	H	0.117521	-0.061827	0.000156
C144	C	0.418207	0.158149	0.000068
N145	N	0.434045	0.194888	0.000064
C146	C	0.433647	-0.441910	0.000056
N147	N	0.397332	-0.415994	0.000050
C148	C	-0.039180	-0.076030	0.000181
N149	N	-0.055017	-0.112769	0.000209
H150	H	0.498410	0.133972	0.382177
H151	H	0.637660	-0.005149	0.776247
H152	H	0.653158	-0.187304	0.000148
H153	H	0.694272	-0.485079	0.000133
H154	H	0.647837	-0.710908	0.000121
H155	H	0.343352	-0.015398	0.000109
H156	H	0.693337	-0.576540	0.000123
H157	H	0.023497	0.185676	0.000128
C158	C	0.494309	0.138068	0.211539
N159	N	0.468007	0.164356	0.175417
C160	C	0.074357	0.198799	0.000116
N161	N	0.048441	0.235115	0.000113
C162	C	0.707404	-0.434230	0.000154
N163	N	0.743719	-0.460144	0.000178
C164	C	0.475361	-0.679904	0.000060
N165	N	0.439046	-0.653988	0.000049
C166	C	0.435181	-0.290660	0.000051
N167	N	0.398868	-0.264741	0.000042
C168	C	0.480535	-0.170711	0.000110
N169	N	0.443799	-0.186553	0.000090
H170	H	0.646903	-0.802373	0.000109
H171	H	0.494138	-0.073778	0.000127
C172	C	0.432571	-0.547763	0.000043
N173	N	0.395832	-0.563601	0.000020
H174	H	0.486958	-0.780294	0.000078
H175	H	0.527361	0.105054	0.514905
