data_functionalizedCrystal
_audit_creation_method	'MofGen! by Chris Wilmer'
_symmetry_space_group_name_H-M	'P1'
_symmetry_Int_Tables_number	1
_symmetry_cell_setting	triclinic
loop_
_symmetry_equiv_pos_as_xyz
  x,y,z
_cell_length_a	16.992694
_cell_length_b	8.559649
_cell_length_c	15.455313
_cell_angle_alpha	92.289439
_cell_angle_beta	87.142206
_cell_angle_gamma	80.223444
loop_
_atom_site_label
_atom_site_type_symbol
_atom_site_fract_x
_atom_site_fract_y
_atom_site_fract_z
O1	O	1.023967	0.329735	-0.072017
O2	O	0.795905	0.326044	-0.072043
O3	O	0.930028	0.097853	-0.072027
O4	O	0.889844	0.557925	-0.072033
O5	O	0.922362	0.110845	0.072234
O6	O	0.788239	0.339035	0.072218
O7	O	1.016301	0.342726	0.072244
Cu8	Cu	0.901570	0.342067	0.085403
Cu9	Cu	0.910636	0.326703	-0.085202
O10	O	0.882177	0.570917	0.072228
C11	C	0.763145	0.327794	0.000084
C12	C	0.676954	0.313635	0.000075
C13	C	0.929241	0.045208	0.000102
C14	C	0.938306	-0.131015	0.000099
C15	C	0.618488	0.450242	0.000073
C16	C	0.537502	0.436931	0.000086
C17	C	0.514985	0.287010	0.000093
C18	C	0.573459	0.150392	0.000096
C19	C	0.654442	0.163706	0.000090
C20	C	0.274709	0.231831	0.000117
C21	C	0.193718	0.218527	0.000120
C22	C	0.157767	0.505067	0.000111
C23	C	0.238755	0.518367	0.000099
C24	C	0.297221	0.381750	0.000108
N25	N	0.432205	0.273400	0.000102
N26	N	0.379998	0.395362	0.000104
C27	C	1.049061	0.340976	0.000115
C28	C	1.135252	0.355134	0.000119
C29	C	0.882965	0.623562	0.000097
C30	C	0.873900	0.799784	0.000095
N31	N	0.895199	0.352873	0.205398
N32	N	0.917014	0.315885	-0.205197
C33	C	0.952194	0.255970	0.250799
C34	C	0.947382	0.264158	0.341606
C35	C	0.885578	0.369258	0.387011
C36	C	0.828576	0.466164	0.341604
C37	C	0.833386	0.457968	0.250798
C38	C	0.864822	0.404595	0.658590
C39	C	0.860018	0.412788	0.749402
C40	C	0.978824	0.210778	0.749398
C41	C	0.983631	0.202598	0.658591
C42	C	0.926627	0.299499	0.613191
N43	N	0.880659	0.377633	0.479831
N44	N	0.931543	0.291114	0.520373
H45	H	0.489900	0.548172	0.000084
C46	C	0.643253	0.615153	0.000063
H47	H	0.699858	0.603521	0.000051
H48	H	0.619929	0.676372	0.050369
H49	H	0.625260	0.667298	-0.050252
C50	C	0.263517	0.683281	0.000104
H51	H	0.217096	0.762736	0.000115
H52	H	0.297030	0.689908	-0.050202
H53	H	0.291692	0.698950	0.050418
H54	H	0.110156	0.616293	0.000106
H55	H	0.322303	0.120586	0.000124
C56	C	0.760594	0.581775	0.391546
H57	H	0.765896	0.572792	0.452130
H58	H	0.710493	0.556523	0.376676
H59	H	0.763462	0.687352	0.376652
C60	C	1.051645	0.087065	0.608648
H61	H	1.046359	0.096097	0.548065
H62	H	1.048826	-0.018538	0.623514
H63	H	1.101724	0.112412	0.623543
H64	H	0.555118	0.028324	0.000115
C65	C	0.791994	0.528313	0.799346
H66	H	0.758718	0.584815	0.759303
H67	H	0.814085	0.601158	0.834783
H68	H	0.761193	0.470197	0.834756
C69	C	0.770693	0.564567	0.200857
H70	H	0.733200	0.628347	0.240902
H71	H	0.743619	0.500156	0.165442
H72	H	0.796585	0.630991	0.165426
H73	H	0.811825	-0.124646	0.000091
H74	H	1.000384	-0.206593	0.000112
H75	H	1.002525	0.170394	0.213836
H76	H	0.175390	0.096437	0.000125
H77	H	0.993792	0.185251	0.378571
C78	C	1.041516	0.104182	0.799339
H79	H	1.029798	0.124102	0.859922
H80	H	1.093193	0.126743	0.784449
H81	H	1.040221	-0.004081	0.784464
C82	C	0.802140	0.511222	0.608658
H83	H	0.813850	0.491294	0.548074
H84	H	0.803442	0.619471	0.623540
H85	H	0.750455	0.488672	0.623543
C86	C	0.718756	0.013437	0.000083
H87	H	0.693749	-0.077759	0.000079
H88	H	0.748432	0.017201	0.050386
H89	H	0.753758	0.008149	-0.050234
