data_functionalizedCrystal
_audit_creation_method	'MofGen! by Chris Wilmer'
_symmetry_space_group_name_H-M	'P1'
_symmetry_Int_Tables_number	1
_symmetry_cell_setting	triclinic
loop_
_symmetry_equiv_pos_as_xyz
  x,y,z
_cell_length_a	17.699104
_cell_length_b	6.394989
_cell_length_c	16.176319
_cell_angle_alpha	90.003737
_cell_angle_beta	89.991696
_cell_angle_gamma	95.105386
loop_
_atom_site_label
_atom_site_type_symbol
_atom_site_fract_x
_atom_site_fract_y
_atom_site_fract_z
O1	O	1.006766	-0.264339	-0.068758
O2	O	1.506766	0.235661	0.431242
O3	O	0.786740	-0.298658	-0.068755
O4	O	1.286740	0.201342	0.431245
O5	O	0.899876	0.022581	-0.068757
O6	O	1.399876	0.522581	0.431243
O7	O	0.893630	-0.585578	-0.068756
O8	O	1.393630	-0.085578	0.431244
O9	O	0.899860	0.022601	0.068736
O10	O	1.399860	0.522601	0.568736
O11	O	0.786724	-0.298637	0.068738
O12	O	1.286724	0.201363	0.568738
O13	O	1.006750	-0.264319	0.068735
O14	O	1.506750	0.235681	0.568735
Cu15	Cu	0.896736	-0.281476	0.081291
Cu16	Cu	1.396736	0.218524	0.581291
Cu17	Cu	0.896755	-0.281500	-0.081311
Cu18	Cu	1.396755	0.218500	0.418689
O19	O	0.893614	-0.585558	0.068737
O20	O	1.393614	-0.085558	0.568737
C21	C	0.758523	-0.297411	-0.000009
C22	C	1.258523	0.202589	0.499991
C23	C	0.674468	-0.293699	-0.000008
C24	C	1.174468	0.206301	0.499992
C25	C	0.151308	-0.461329	-0.000016
C26	C	0.651308	0.038671	0.499984
C27	C	0.230287	-0.464804	-0.000018
C28	C	0.730287	0.035196	0.499982
C29	C	0.276980	-0.276225	-0.000019
C30	C	0.776980	0.223775	0.499981
C31	C	0.244690	-0.084158	-0.000025
C32	C	0.744690	0.415842	0.499975
C33	C	0.165712	-0.080686	-0.000028
C34	C	0.665712	0.419314	0.499972
C35	C	0.563199	-0.098158	-0.000012
C36	C	1.063199	0.401842	0.499988
C37	C	0.642182	-0.101645	-0.000006
C38	C	1.142182	0.398355	0.499994
C39	C	0.627773	-0.482276	-0.000002
C40	C	1.127773	0.017724	0.499998
C41	C	0.548796	-0.478804	-0.000005
C42	C	1.048796	0.021196	0.499995
C43	C	0.516513	-0.286739	-0.000016
C44	C	1.016513	0.213261	0.499984
C45	C	0.430874	-0.282973	-0.000015
C46	C	0.930874	0.217027	0.499985
C47	C	0.362617	-0.279988	-0.000014
C48	C	0.862617	0.220012	0.499986
C49	C	1.034968	-0.265566	-0.000014
C50	C	1.534968	0.234434	0.499986
C51	C	1.119023	-0.269277	-0.000020
C52	C	1.619023	0.230723	0.499980
C53	C	0.898633	0.100407	-0.000014
C54	C	1.398633	0.600407	0.499986
C55	C	0.894859	0.336623	-0.000015
C56	C	1.394859	0.836623	0.499985
N57	N	0.896728	-0.281458	0.195656
N58	N	1.396728	0.218542	0.695656
N59	N	0.896769	-0.281502	-0.195676
N60	N	1.396769	0.218498	0.304324
C61	C	0.946840	-0.139271	0.238919
C62	C	1.446840	0.360729	0.738919
C63	C	0.946844	-0.139269	0.325466
C64	C	1.446844	0.360731	0.825466
C65	C	0.896739	-0.281465	0.368749
C66	C	1.396739	0.218535	0.868749
C67	C	0.846620	-0.423658	0.325479
C68	C	1.346620	0.076342	0.825479
C69	C	0.846613	-0.423649	0.238934
C70	C	1.346613	0.076351	0.738934
C71	C	0.846647	-0.423698	0.674507
C72	C	1.346647	0.076302	1.174507
C73	C	0.846659	-0.423700	0.761059
C74	C	1.346659	0.076300	1.261059
C75	C	0.946878	-0.139318	0.761040
C76	C	1.446878	0.360682	1.261040
C77	C	0.946871	-0.139308	0.674495
C78	C	1.446871	0.360692	1.174495
C79	C	0.896750	-0.281493	0.631233
C80	C	1.396750	0.218507	1.131233
C81	C	0.896746	-0.281491	0.537389
C82	C	1.396746	0.218509	1.037389
C83	C	0.896746	-0.281479	0.462591
C84	C	1.396746	0.218521	0.962591
H85	H	0.654067	-0.638665	0.000003
H86	H	1.154067	-0.138665	0.500003
Br87	Br	1.014853	0.053708	0.384184
Br88	Br	1.514853	0.553708	0.884184
Br89	Br	0.308058	0.171775	-0.000030
Br90	Br	0.808058	0.671775	0.499970
H91	H	0.805819	-0.539430	0.360724
H92	H	1.305819	-0.039430	0.860724
H93	H	0.113295	-0.614893	-0.000010
H94	H	0.613295	-0.114893	0.499990
Br95	Br	0.485430	-0.734742	-0.000000
Br96	Br	0.985430	-0.234742	0.500000
Br97	Br	0.705552	0.154302	-0.000004
Br98	Br	1.205552	0.654302	0.499996
Br99	Br	0.121896	0.179966	-0.000037
Br100	Br	0.621896	0.679966	0.499963
H101	H	0.256569	-0.621191	-0.000023
H102	H	0.756569	-0.121191	0.499977
H103	H	0.987674	-0.023526	0.639257
H104	H	1.487674	0.476474	1.139257
Br105	Br	1.014851	0.053706	0.180188
Br106	Br	1.514851	0.553706	0.680188
Br107	Br	0.778595	-0.616612	0.180219
Br108	Br	1.278595	-0.116612	0.680219
H109	H	0.987686	-0.023536	0.796273
H110	H	1.487686	0.476464	1.296273
Br111	Br	0.778655	-0.616696	0.819799
Br112	Br	1.278655	-0.116696	1.319799
H113	H	0.805838	-0.539473	0.639290
H114	H	1.305838	-0.039473	1.139290
H115	H	0.536924	0.058233	-0.000018
H116	H	1.036924	0.558233	0.499982
