data_functionalizedCrystal
_audit_creation_method	'MofGen! by Chris Wilmer'
_symmetry_space_group_name_H-M	'P1'
_symmetry_Int_Tables_number	1
_symmetry_cell_setting	triclinic
loop_
_symmetry_equiv_pos_as_xyz
  x,y,z
_cell_length_a	12.827893
_cell_length_b	12.645330
_cell_length_c	12.827885
_cell_angle_alpha	90.028978
_cell_angle_beta	90.019272
_cell_angle_gamma	90.017662
loop_
_atom_site_label
_atom_site_type_symbol
_atom_site_fract_x
_atom_site_fract_y
_atom_site_fract_z
Zn1	Zn	1.597653	-0.421989	0.590855
Zn2	Zn	1.597540	-0.599290	0.416117
Zn3	Zn	1.422894	-0.422040	0.416128
Zn4	Zn	1.422873	-0.599211	0.590817
O5	O	1.510240	-0.510632	0.503479
O6	O	1.743874	-0.445520	0.567686
O7	O	1.574335	-0.575832	0.269883
O8	O	1.446133	-0.273686	0.439326
O9	O	1.743791	-0.575782	0.439308
O10	O	1.574527	-0.273648	0.567697
O11	O	1.446023	-0.445608	0.269891
O12	O	1.276655	-0.445531	0.439290
O13	O	1.446096	-0.575647	0.737058
O14	O	1.276639	-0.575697	0.567633
O15	O	1.574506	-0.445443	0.737086
O16	O	1.574314	-0.747626	0.439271
O17	O	1.445986	-0.747568	0.567623
C18	C	1.238730	-0.510612	0.503459
C19	C	1.122577	-0.510629	0.503476
C20	C	1.070812	-0.575140	0.566886
C21	C	0.950762	-0.575159	0.566904
C22	C	1.510164	-0.786062	0.503465
C23	C	1.510227	-0.903892	0.503493
C24	C	1.429829	-1.071464	0.584488
C25	C	1.429418	-0.948904	0.584228
C26	C	1.480414	-0.948494	0.393362
C27	C	1.479923	-1.071093	0.393854
C28	C	1.620929	-1.070979	0.531736
C29	C	1.620251	-0.948372	0.534144
C30	C	1.782810	-0.510654	0.503500
C31	C	1.898963	-0.510663	0.503509
C32	C	1.510311	-0.510531	0.776050
C33	C	1.510341	-0.510487	0.892203
C34	C	1.510345	-0.234127	0.503517
C35	C	1.510390	-0.116297	0.503533
C36	C	1.510229	-0.510657	0.231969
C37	C	1.510401	-0.510402	0.115817
C38	C	1.573890	-0.446045	0.944001
C39	C	1.573923	-0.445999	1.064052
H40	H	0.943473	-0.455433	0.449214
O41	O	1.438293	-0.583522	0.951174
H42	H	1.485099	-0.637402	1.000895
H43	H	1.642733	-0.919216	0.615195
H44	H	1.115371	-0.630352	0.621164
H45	H	1.683433	-0.917726	0.479474
O46	O	1.063556	-0.437504	0.431566
H47	H	1.013845	-0.383683	0.478470
H48	H	0.906245	-0.630392	0.621189
O49	O	1.645939	-0.373011	0.885031
H50	H	1.634615	-0.384517	0.799993
O51	O	1.454099	-0.908980	0.692413
H52	H	1.525865	-0.859994	0.689859
H53	H	1.455996	-0.565580	1.071278
O54	O	1.700493	-1.109618	0.453810
H55	H	1.661559	-1.160819	0.395251
O56	O	1.453922	-1.110923	0.692922
H57	H	1.523620	-1.162846	0.690292
O58	O	1.321948	-1.112374	0.560055
H59	H	1.325457	-1.164498	0.490502
H60	H	1.347469	-0.919671	0.565543
H61	H	1.399118	-1.099786	0.369962
O62	O	1.645978	-0.372893	1.123043
H63	H	1.634682	-0.384314	1.208077
O64	O	1.554261	-1.110408	0.311232
H65	H	1.528874	-1.080960	0.233784
O66	O	1.555662	-0.909879	0.311269
H67	H	1.615247	-0.858361	0.348181
H68	H	1.400452	-0.917885	0.369038
H69	H	1.648124	-1.101818	0.610678
