data_functionalizedCrystal
_audit_creation_method	'MofGen! by Chris Wilmer'
_symmetry_space_group_name_H-M	'P1'
_symmetry_Int_Tables_number	1
_symmetry_cell_setting	triclinic
loop_
_symmetry_equiv_pos_as_xyz
  x,y,z
_cell_length_a	10.654554
_cell_length_b	9.730223
_cell_length_c	17.699092
_cell_angle_alpha	89.999639
_cell_angle_beta	83.886605
_cell_angle_gamma	90.000386
loop_
_atom_site_label
_atom_site_type_symbol
_atom_site_fract_x
_atom_site_fract_y
_atom_site_fract_z
O1	O	1.665975	0.114290	0.106316
O2	O	1.300320	0.114291	0.116440
O3	O	1.493473	0.114287	0.001255
O4	O	1.472822	0.114294	0.221501
O5	O	1.493471	-0.114293	0.001258
O6	O	1.300318	-0.114289	0.116443
O7	O	1.665972	-0.114290	0.106319
Zn8	Zn	1.483145	-0.150581	0.111381
Zn9	Zn	1.483148	0.150583	0.111377
O10	O	1.472820	-0.114286	0.221504
C11	C	1.253534	0.000001	0.115697
C12	C	1.114130	0.000002	0.113471
C13	C	0.932825	0.000011	0.041466
C14	C	1.063810	0.000001	0.043557
C15	C	1.033457	-0.000002	0.181298
C16	C	0.902475	-0.000002	0.179206
C17	C	0.882513	0.000025	-0.028453
C18	C	0.963177	0.000026	-0.096281
C19	C	1.094162	0.000016	-0.094189
C20	C	1.144483	0.000005	-0.024270
N21	N	1.483152	-0.356118	0.111383
C22	C	1.568702	-0.428045	0.060397
C23	C	1.568698	-0.571928	0.060388
C24	C	1.397592	-0.571943	0.162358
C25	C	1.397590	-0.428063	0.162363
C26	C	1.654263	-0.356100	0.009417
C27	C	1.739821	-0.428028	-0.041573
C28	C	1.739818	-0.571911	-0.041582
C29	C	1.654257	-0.643866	0.009399
C30	C	1.712758	0.000003	0.107061
C31	C	1.852163	0.000012	0.109288
C32	C	1.492730	-0.000000	-0.026945
C33	C	1.490505	0.000006	-0.110977
N34	N	1.483151	0.356119	0.111369
C35	C	1.489464	0.124606	-0.150453
C36	C	1.487365	0.124608	-0.229409
C37	C	1.486316	0.000008	-0.268889
C38	C	1.487354	-0.124602	-0.229408
C39	C	1.489444	-0.124603	-0.150452
C40	C	1.478924	-0.124604	-0.547826
C41	C	1.476838	-0.124595	-0.626788
C42	C	1.476846	0.124606	-0.626783
C43	C	1.478935	0.124606	-0.547828
C44	C	1.479966	-0.000003	-0.508353
C45	C	1.482239	-0.000003	-0.422739
C46	C	1.484052	0.000007	-0.354502
C47	C	1.473563	0.000005	0.249704
C48	C	1.475788	0.000007	0.333736
H49	H	1.074440	-0.000009	0.238223
H50	H	1.327927	-0.369499	0.203880
O51	O	1.490424	0.245768	-0.112218
C52	C	1.489084	0.355743	-0.163998
H53	H	1.447853	0.319211	-0.217355
H54	H	1.428743	0.442890	-0.136702
H55	H	1.589570	0.394056	-0.179805
H56	H	0.836797	-0.000007	0.234433
H57	H	1.475981	-0.226065	-0.658930
H58	H	1.479789	-0.226069	-0.515697
O59	O	1.271731	0.000237	-0.022275
C60	C	1.323825	0.118600	-0.059372
H61	H	1.248077	0.201345	-0.059366
H62	H	1.404914	0.158337	-0.028298
H63	H	1.360608	0.091830	-0.120446
O64	O	1.486148	0.245621	-0.267763
C65	C	1.376241	0.253114	-0.305452
H66	H	1.300866	0.182411	-0.276079
H67	H	1.339749	0.363328	-0.303648
H68	H	1.399234	0.219665	-0.367104
O69	O	1.480103	0.245584	-0.509433
C70	C	1.589974	0.253078	-0.471710
H71	H	1.665404	0.182461	-0.501099
H72	H	1.626408	0.363314	-0.473449
H73	H	1.566955	0.219519	-0.410078
H74	H	1.486492	-0.226054	-0.261558
H75	H	1.490274	-0.226065	-0.118311
O76	O	1.172572	-0.000229	-0.160052
C77	C	1.249265	-0.118597	-0.162960
H78	H	1.201180	-0.201345	-0.124512
H79	H	1.264171	-0.158326	-0.223849
H80	H	1.344458	-0.091838	-0.142872
H81	H	1.654276	-0.238943	0.009422
H82	H	1.809475	-0.369435	-0.083084
H83	H	1.476000	0.226069	-0.658933
O84	O	0.914092	0.000093	-0.164131
C85	C	0.781186	0.000068	-0.151436
H86	H	0.750256	0.043345	-0.092535
H87	H	0.741103	0.066435	-0.196215
H88	H	0.744728	-0.109590	-0.155294
H89	H	1.327933	-0.630539	0.203866
O90	O	1.822867	-0.641632	-0.091217
C91	C	1.802675	-0.606483	-0.166254
H92	H	1.754271	-0.502017	-0.166428
H93	H	1.897184	-0.601553	-0.202993
H94	H	1.740245	-0.687456	-0.190018
H95	H	0.775860	0.000037	-0.030164
H96	H	1.654253	-0.761025	0.009382
