data_functionalizedCrystal
_audit_creation_method	'MofGen! by Chris Wilmer'
_symmetry_space_group_name_H-M	'P1'
_symmetry_Int_Tables_number	1
_symmetry_cell_setting	triclinic
loop_
_symmetry_equiv_pos_as_xyz
  x,y,z
_cell_length_a	27.732048
_cell_length_b	10.489741
_cell_length_c	9.565339
_cell_angle_alpha	89.994586
_cell_angle_beta	90.005691
_cell_angle_gamma	83.590915
loop_
_atom_site_label
_atom_site_type_symbol
_atom_site_fract_x
_atom_site_fract_y
_atom_site_fract_z
O1	O	0.068188	1.691044	0.116191
O2	O	0.074589	1.319567	0.116214
O3	O	0.001065	1.516843	0.116175
O4	O	0.141713	1.493768	0.116230
O5	O	0.001067	1.516851	-0.116345
O6	O	0.074591	1.319575	-0.116306
O7	O	0.068191	1.691052	-0.116329
Zn8	Zn	0.071391	1.505315	-0.153235
Zn9	Zn	0.071388	1.505304	0.153120
O10	O	0.141715	1.493777	-0.116290
C11	C	0.074107	1.272061	-0.000043
C12	C	0.072661	1.130495	-0.000036
C13	C	0.025879	1.064411	-0.000067
C14	C	0.047977	0.971309	0.114583
C15	C	0.047990	0.971350	-0.114663
C16	C	0.094778	1.039257	0.114709
C17	C	0.094785	1.039309	-0.114640
C18	C	0.116916	0.946232	0.000038
C19	C	-0.016944	1.516363	-0.000089
C20	C	-0.070608	1.514904	-0.000100
C21	C	-0.408745	1.622299	-0.000035
C22	C	-0.610439	1.616888	-0.000015
O23	O	-0.641075	1.715093	0.000040
N24	N	-0.630301	1.499911	-0.000009
C25	C	-0.599736	1.384279	0.000001
O26	O	-0.621258	1.284660	0.000021
C27	C	-0.398044	1.389692	-0.000009
C28	C	-0.378184	1.506676	-0.000029
C29	C	-0.388886	1.739274	-0.000054
C30	C	-0.338465	1.740625	-0.000066
C31	C	-0.307904	1.625002	-0.000060
C32	C	-0.327764	1.508028	-0.000042
C33	C	-0.367480	1.274062	0.000011
C34	C	-0.317054	1.275425	0.000012
C35	C	-0.297195	1.392409	-0.000008
C36	C	-0.246783	1.393757	-0.000048
N37	N	-0.226920	1.510733	-0.000054
C38	C	-0.257481	1.626356	-0.000060
C39	C	-0.705628	1.381446	0.000003
C40	C	-0.756051	1.380092	0.000003
C41	C	-0.766751	1.612701	-0.000010
C42	C	-0.716327	1.614053	-0.000020
C43	C	-0.685766	1.498422	-0.000003
C44	C	-0.151594	1.629186	-0.000088
C45	C	-0.101169	1.630527	-0.000106
C46	C	-0.090474	1.397919	-0.000085
C47	C	-0.140895	1.396577	-0.000074
C48	C	-0.171454	1.512221	-0.000071
O49	O	-0.216118	1.295604	-0.000088
O50	O	-0.235950	1.725961	-0.000049
C51	C	-0.459166	1.620947	-0.000023
C52	C	-0.479025	1.503973	-0.000004
C53	C	-0.448464	1.388350	0.000002
C54	C	-0.529448	1.502619	-0.000004
C55	C	-0.560009	1.618242	-0.000010
C56	C	-0.540147	1.735219	-0.000016
C57	C	-0.489727	1.736570	-0.000029
C58	C	-0.468327	1.271374	0.000008
C59	C	-0.518748	1.270032	0.000019
C60	C	-0.549308	1.385654	0.000013
C61	C	0.159724	1.494257	-0.000023
C62	C	0.213388	1.495715	-0.000003
C63	C	0.068673	1.738559	-0.000069
C64	C	0.070119	1.880124	-0.000067
N65	N	0.071393	1.505332	-0.362315
C66	C	0.037393	1.596595	-0.453498
C67	C	0.027604	1.481529	-0.546666
C68	C	0.081150	1.620353	-0.546703
C69	C	0.061582	1.390209	-0.453430
C70	C	0.115148	1.529109	-0.453459
C71	C	0.105377	1.413959	-0.546584
N72	N	0.071383	1.505297	0.362199
H73	H	0.028182	0.941161	0.211498
H74	H	-0.322301	1.835885	-0.000077
H75	H	-0.534912	1.174762	0.000023
H76	H	-0.383640	1.178801	0.000036
Cl77	Cl	0.125322	1.085912	-0.264278
Cl78	Cl	0.172266	1.560253	-0.390189
Cl79	Cl	0.125313	1.085497	0.264531
Cl80	Cl	-0.165862	1.249510	-0.000075
Cl81	Cl	-0.033504	1.143681	0.000082
Cl82	Cl	0.176353	0.867305	0.000153
H83	H	0.028189	0.941246	-0.211592
Cl84	Cl	0.048767	1.239974	-0.390451
Cl85	Cl	-0.076207	1.777603	-0.000129
Cl86	Cl	-0.190004	1.774568	-0.000086
H87	H	0.134128	1.336683	-0.587199
Cl88	Cl	-0.427297	1.884649	-0.000064
Cl89	Cl	-0.691366	1.761124	-0.000044
H90	H	-0.791642	1.706846	-0.000016
Cl91	Cl	-0.781011	1.233021	0.000002
H92	H	0.089408	1.717639	-0.587673
Cl93	Cl	-0.278638	1.130051	0.000036
Cl94	Cl	-0.667216	1.236065	0.000024
Cl95	Cl	-0.052046	1.252573	-0.000075
H96	H	-0.473562	1.831831	-0.000045
H97	H	0.008625	1.673699	-0.412625
H98	H	-0.565039	1.829363	-0.000027
Cl99	Cl	-0.029532	1.450431	-0.609865
H100	H	-0.443448	1.177217	0.000016
