data_functionalizedCrystal
_audit_creation_method	'MofGen! by Chris Wilmer'
_symmetry_space_group_name_H-M	'P1'
_symmetry_Int_Tables_number	1
_symmetry_cell_setting	triclinic
loop_
_symmetry_equiv_pos_as_xyz
  x,y,z
_cell_length_a	15.995350
_cell_length_b	14.044191
_cell_length_c	12.503552
_cell_angle_alpha	93.842477
_cell_angle_beta	86.478069
_cell_angle_gamma	88.342076
loop_
_atom_site_label
_atom_site_type_symbol
_atom_site_fract_x
_atom_site_fract_y
_atom_site_fract_z
O1	O	0.197463	1.263177	0.089259
O2	O	0.190172	0.987208	0.089273
O3	O	0.072493	1.132736	0.089264
O4	O	0.315141	1.117649	0.089267
O5	O	0.081351	1.121779	-0.089378
O6	O	0.199029	0.976251	-0.089369
O7	O	0.206321	1.252220	-0.089383
Cu8	Cu	0.203484	1.113235	-0.105688
Cu9	Cu	0.193009	1.126193	0.105577
O10	O	0.323999	1.106692	-0.089375
C11	C	0.191411	0.946415	-0.000046
C12	C	0.181898	0.841190	-0.000041
C13	C	0.231977	0.590903	-0.000051
C14	C	0.164519	0.648532	-0.000050
C15	C	0.174191	0.755736	-0.000045
C16	C	0.222306	0.483688	-0.000056
C17	C	0.045681	1.126634	-0.000055
C18	C	-0.047410	1.124765	-0.000048
C19	C	-0.385659	1.118049	-0.000052
C20	C	-0.345988	1.014431	0.000354
C21	C	-0.249138	1.016276	-0.000049
C22	C	-0.217849	1.121380	-0.000049
C23	C	-0.250049	1.166243	-0.102063
C24	C	-0.346876	1.163634	-0.102149
C25	C	-0.357146	1.178236	0.101000
C26	C	-0.260270	1.178294	0.102349
C27	C	-0.123011	1.123268	-0.000052
C28	C	-0.480497	1.116163	-0.000057
C29	C	0.350811	1.112794	-0.000054
C30	C	0.443902	1.114664	-0.000053
C31	C	0.205081	1.293013	-0.000062
C32	C	0.214594	1.398239	-0.000060
N33	N	0.210851	1.104128	-0.254280
C34	C	0.174794	1.148700	-0.526716
C35	C	0.221690	1.090739	-0.473388
C36	C	0.215658	1.098190	-0.351465
C37	C	0.180825	1.141249	-0.648650
N38	N	0.185635	1.135308	0.254169
H39	H	0.099499	0.617361	0.000025
H40	H	0.130118	1.203915	-0.480808
H41	H	-0.239487	1.255317	0.108507
H42	H	0.266370	1.035521	-0.519301
H43	H	-0.364181	1.121680	-0.178405
H44	H	-0.383232	1.254693	0.101685
C45	C	0.319804	0.633018	-0.000039
N46	N	0.385955	0.664751	-0.000026
H47	H	-0.227344	0.980578	0.073079
H48	H	-0.365056	0.968728	-0.072391
C49	C	-0.380114	0.964520	0.099178
N50	N	-0.405826	0.926926	0.173612
C51	C	-0.210667	0.955558	-0.099007
N52	N	-0.181691	0.909824	-0.173548
H53	H	-0.229967	1.243227	-0.105858
C54	C	-0.210214	1.111982	-0.204623
N55	N	-0.180211	1.071106	-0.281868
C56	C	-0.382452	1.266045	-0.108419
N57	N	-0.409245	1.343180	-0.113149
H58	H	-0.384052	1.149092	0.178321
H59	H	-0.239555	1.145547	0.177816
