data_functionalizedCrystal
_audit_creation_method	'MofGen! by Chris Wilmer'
_symmetry_space_group_name_H-M	'P1'
_symmetry_Int_Tables_number	1
_symmetry_cell_setting	triclinic
loop_
_symmetry_equiv_pos_as_xyz
  x,y,z
_cell_length_a	10.654554
_cell_length_b	9.065218
_cell_length_c	9.130313
_cell_angle_alpha	90.000552
_cell_angle_beta	89.999615
_cell_angle_gamma	84.751315
loop_
_atom_site_label
_atom_site_type_symbol
_atom_site_fract_x
_atom_site_fract_y
_atom_site_fract_z
O1	O	1.668652	0.207260	-0.121798
O2	O	1.303252	0.226997	-0.121799
O3	O	1.493505	0.002445	-0.121796
O4	O	1.478399	0.431812	-0.121802
O5	O	1.493502	0.002451	0.121803
O6	O	1.303250	0.227003	0.121800
O7	O	1.668649	0.207266	0.121801
Cu8	Cu	1.485949	0.217135	0.144043
Cu9	Cu	1.485952	0.217128	-0.144041
O10	O	1.478397	0.431818	0.121797
C11	C	1.256447	0.225549	-0.000000
C12	C	1.116987	0.221209	-0.000001
C13	C	0.906986	0.349349	-0.000006
C14	C	1.038024	0.353428	-0.000006
C15	C	1.064907	0.084903	-0.000010
C16	C	0.933872	0.080825	-0.000020
C17	C	0.891466	0.504381	0.000003
C18	C	1.022504	0.508459	0.000003
C19	C	1.492052	-0.052531	0.000001
C20	C	1.487711	-0.216350	-0.000006
C21	C	1.715454	0.208713	-0.000002
C22	C	1.854914	0.213053	-0.000011
C23	C	1.479850	0.486794	-0.000003
C24	C	1.484190	0.650613	-0.000006
N25	N	1.485957	0.217139	0.346665
N26	N	1.485955	0.217112	-0.346664
C27	C	1.570222	0.117742	0.423319
C28	C	1.570219	0.117724	0.576656
C29	C	1.401680	0.316514	0.576672
C30	C	1.401678	0.316524	0.423338
C31	C	1.667531	0.002976	0.423311
C32	C	1.667528	0.002958	0.576648
H33	H	1.052104	0.569070	0.101960
H34	H	1.129210	-0.022752	-0.000020
H35	H	0.849953	0.562800	-0.101940
H36	H	1.333051	0.397448	0.360928
H37	H	0.846000	0.551222	0.105179
C38	C	0.876596	-0.069105	-0.000042
C39	C	0.790201	-0.108853	0.126438
C40	C	0.732928	-0.258791	0.126415
C41	C	0.762050	-0.368981	-0.000088
C42	C	0.848449	-0.329235	-0.126578
C43	C	0.905722	-0.179297	-0.126554
H44	H	0.768640	-0.027281	0.220092
H45	H	0.668970	-0.288213	0.220051
H46	H	0.719653	-0.479974	-0.000106
H47	H	0.870010	-0.410807	-0.220232
H48	H	0.969680	-0.149876	-0.220191
H49	H	1.764139	0.028240	0.618264
H50	H	1.333062	0.397429	0.639115
H51	H	1.058334	0.557829	-0.105179
H52	H	1.758857	0.038913	0.375752
C53	C	1.637947	-0.150220	0.367070
C54	C	1.614091	-0.273731	0.476654
C55	C	1.584506	-0.426921	0.420413
C56	C	1.578777	-0.456599	0.254589
C57	C	1.602634	-0.333084	0.144995
C58	C	1.632219	-0.179895	0.201236
H59	H	1.618332	-0.251765	0.599416
H60	H	1.566846	-0.518355	0.501543
H61	H	1.556876	-0.570000	0.212956
H62	H	1.598393	-0.355051	0.022233
H63	H	1.649879	-0.088461	0.120106
H64	H	1.636590	-0.104212	0.624196
