data_functionalizedCrystal
_audit_creation_method	'MofGen! by Chris Wilmer'
_symmetry_space_group_name_H-M	'P1'
_symmetry_Int_Tables_number	1
_symmetry_cell_setting	triclinic
loop_
_symmetry_equiv_pos_as_xyz
  x,y,z
_cell_length_a	19.188905
_cell_length_b	19.188930
_cell_length_c	8.140239
_cell_angle_alpha	89.991371
_cell_angle_beta	89.990158
_cell_angle_gamma	83.139668
loop_
_atom_site_label
_atom_site_type_symbol
_atom_site_fract_x
_atom_site_fract_y
_atom_site_fract_z
O1	O	0.926154	0.087083	-0.136902
O2	O	1.426154	0.587083	0.363098
O3	O	0.722841	0.098836	-0.136849
O4	O	1.222841	0.598836	0.363151
O5	O	0.830365	-0.008697	-0.136845
O6	O	1.330365	0.491303	0.363155
O7	O	0.818630	0.194616	-0.136906
O8	O	1.318630	0.694616	0.363094
O9	O	0.830359	-0.008698	0.136382
O10	O	1.330359	0.491302	0.636382
O11	O	0.722835	0.098835	0.136378
O12	O	1.222835	0.598835	0.636378
O13	O	0.926148	0.087082	0.136325
O14	O	1.426148	0.587082	0.636325
Zn15	Zn	0.824491	0.092958	0.179732
Zn16	Zn	1.324491	0.592958	0.679732
Zn17	Zn	0.824498	0.092960	-0.180256
Zn18	Zn	1.324498	0.592960	0.319744
O19	O	0.818624	0.194615	0.136321
O20	O	1.318624	0.694615	0.636321
C21	C	0.696826	0.098458	-0.000228
C22	C	1.196826	0.598458	0.499772
C23	C	0.619321	0.097324	-0.000206
C24	C	1.119321	0.597324	0.499794
C25	C	0.582932	0.096780	-0.149146
C26	C	1.082932	0.596780	0.350854
C27	C	0.510109	0.095707	-0.149166
C28	C	1.010109	0.595707	0.350834
C29	C	0.473678	0.095164	-0.000238
C30	C	0.973678	0.595164	0.499762
C31	C	0.510075	0.095712	0.148722
C32	C	1.010075	0.595712	0.648722
C33	C	0.582896	0.096792	0.148738
C34	C	1.082896	0.596792	0.648738
N35	N	0.364656	0.053735	0.110608
N36	N	0.864656	0.553735	0.610608
N37	N	0.295479	0.052707	0.110583
N38	N	0.795479	0.552707	0.610583
C39	C	0.254272	0.091911	-0.000276
C40	C	0.754272	0.591911	0.499724
N41	N	0.284856	0.132173	-0.111134
N42	N	0.784856	0.632173	0.388866
N43	N	0.354040	0.133197	-0.111114
N44	N	0.854040	0.633197	0.388886
C45	C	0.394716	0.093993	-0.000238
C46	C	0.894716	0.593993	0.499762
C47	C	0.138919	0.090205	-0.149249
C48	C	0.638919	0.590205	0.350751
C49	C	0.066094	0.089136	-0.149263
C50	C	0.566094	0.589136	0.350737
C51	C	0.066062	0.089134	0.148630
C52	C	0.566062	0.589134	0.648630
C53	C	0.138886	0.090210	0.148640
C54	C	0.638886	0.590210	0.648640
C55	C	0.175310	0.090742	-0.000304
C56	C	0.675310	0.590742	0.499696
C57	C	0.829982	-0.034708	-0.000227
C58	C	1.329982	0.465292	0.499773
C59	C	0.828841	-0.112213	-0.000212
C60	C	1.328841	0.387787	0.499788
C61	C	0.891933	-0.157142	-0.000221
C62	C	1.391933	0.342858	0.499779
C63	C	0.890861	-0.229966	-0.000247
C64	C	1.390861	0.270034	0.499753
C65	C	0.826694	-0.257857	-0.000231
C66	C	1.326694	0.242143	0.499769
C67	C	0.763594	-0.212917	-0.000232
C68	C	1.263594	0.287083	0.499768
C69	C	0.764668	-0.140095	-0.000222
C70	C	1.264668	0.359905	0.499778
N71	N	0.777644	-0.365858	0.092766
N72	N	1.277644	0.134142	0.592766
N73	N	0.776629	-0.435036	0.092760
N74	N	1.276629	0.064964	0.592760
C75	C	0.823456	-0.477265	-0.000264
C76	C	1.323456	0.022735	0.499736
N77	N	0.871347	-0.447703	-0.093262
N78	N	1.371347	0.052297	0.406738
N79	N	0.872365	-0.378519	-0.093249
N80	N	1.372365	0.121481	0.406751
C81	C	0.825523	-0.336819	-0.000243
C82	C	1.325523	0.163181	0.499757
C83	C	0.885390	-0.601159	-0.000303
C84	C	1.385390	-0.101159	0.499697
C85	C	0.884315	-0.673984	-0.000339
C86	C	1.384315	-0.173984	0.499661
C87	C	0.757047	-0.656933	-0.000307
C88	C	1.257047	-0.156933	0.499693
C89	C	0.758123	-0.584110	-0.000288
C90	C	1.258123	-0.084110	0.499712
C91	C	0.822296	-0.556228	-0.000278
C92	C	1.322296	-0.056228	0.499722
C93	C	0.952163	0.087460	-0.000300
C94	C	1.452163	0.587460	0.499700
C95	C	1.029668	0.088594	-0.000333
C96	C	1.529668	0.588594	0.499667
C97	C	0.819007	0.220626	-0.000301
C98	C	1.319007	0.720626	0.499699
C99	C	0.820148	0.298131	-0.000326
C100	C	1.320148	0.798131	0.499674
N101	N	0.824490	0.092957	0.425415
N102	N	1.324490	0.592957	0.925415
N103	N	0.824504	0.092956	-0.425939
N104	N	1.324504	0.592956	0.074061
H105	H	0.480475	0.095265	-0.270455
H106	H	0.980475	0.595265	0.229545
H107	H	0.935694	-0.710565	-0.000356
H108	H	1.435694	-0.210565	0.499644
C109	C	0.698892	-0.760990	-0.000309
C110	C	1.198892	-0.260990	0.499691
C111	C	0.686512	-0.687582	-0.000295
C112	C	1.186512	-0.187582	0.499705
H113	H	0.655344	-0.779911	-0.000298
H114	H	1.155344	-0.279911	0.499702
H115	H	0.724859	-0.776412	-0.095591
H116	H	1.224859	-0.276412	0.404409
H117	H	0.724858	-0.776429	0.094971
H118	H	1.224858	-0.276429	0.594971
H119	H	0.660550	-0.672143	-0.095582
H120	H	1.160550	-0.172143	0.404418
H121	H	0.660533	-0.672154	0.094996
H122	H	1.160533	-0.172154	0.594996
H123	H	0.168577	0.090645	-0.270528
H124	H	0.668577	0.590645	0.229472
C125	C	0.638762	-0.130558	-0.000191
C126	C	1.138762	0.369442	0.499809
C127	C	0.695312	-0.090703	-0.000196
C128	C	1.195312	0.409297	0.499804
H129	H	0.595945	-0.100063	-0.000162
H130	H	1.095945	0.399937	0.499838
H131	H	0.640991	-0.159303	-0.095475
H132	H	1.140991	0.340697	0.404525
H133	H	0.640992	-0.159329	0.095087
H134	H	1.140992	0.340671	0.595087
H135	H	0.693084	-0.061936	-0.095481
H136	H	1.193084	0.438064	0.404519
H137	H	0.693082	-0.061947	0.095097
H138	H	1.193082	0.438053	0.595097
H139	H	0.706747	-0.547527	-0.000271
H140	H	1.206747	-0.047527	0.499729
H141	H	0.711349	-0.235631	-0.000223
H142	H	1.211349	0.264369	0.499777
C143	C	0.575643	0.096670	-0.443599
C144	C	1.075643	0.596670	0.056401
C145	C	0.622968	0.097372	-0.312864
C146	C	1.122968	0.597372	0.187136
H147	H	0.600362	0.097040	-0.544669
H148	H	1.100362	0.597040	-0.044669
H149	H	0.552698	0.055544	-0.437393
H150	H	1.052698	0.555544	0.062607
H151	H	0.541781	0.136957	-0.437410
H152	H	1.041781	0.636957	0.062590
H153	H	0.656828	0.057081	-0.319046
H154	H	1.156828	0.557081	0.180954
H155	H	0.645924	0.138502	-0.319073
H156	H	1.145924	0.638502	0.180927
H157	H	0.480409	0.095271	0.269981
H158	H	0.980409	0.595271	0.769981
C159	C	0.073446	0.089226	-0.443711
C160	C	0.573446	0.589226	0.056289
C161	C	0.026093	0.088535	-0.312992
C162	C	0.526093	0.588535	0.187008
H163	H	0.048750	0.088850	-0.544789
H164	H	0.548750	0.588850	-0.044789
H165	H	0.096392	0.130351	-0.437535
H166	H	0.596392	0.630351	0.062465
H167	H	0.107306	0.048937	-0.437471
H168	H	0.607306	0.548937	0.062529
H169	H	-0.007764	0.128827	-0.319225
H170	H	0.492236	0.628827	0.180775
H171	H	0.003135	0.047406	-0.319170
H172	H	0.503135	0.547406	0.180830
H173	H	0.168514	0.090648	0.269923
H174	H	0.668514	0.590648	0.769923
C175	C	0.613332	0.037113	0.402658
C176	C	1.113332	0.537113	0.902658
C177	C	0.622901	0.097382	0.312464
C178	C	1.122901	0.597382	0.812464
H179	H	0.638034	0.037476	0.503731
H180	H	1.138034	0.537476	1.003731
H181	H	0.564754	0.036402	0.423963
H182	H	1.064754	0.536402	0.923963
H183	H	0.630729	-0.003411	0.341455
H184	H	1.130729	0.496589	0.841455
H185	H	0.605499	0.137907	0.373662
H186	H	1.105499	0.637907	0.873662
H187	H	0.671489	0.098100	0.291163
H188	H	1.171489	0.598100	0.791163
H189	H	0.944187	-0.134445	-0.000219
H190	H	1.444187	0.365555	0.499781
H191	H	0.036401	0.088696	0.269891
H192	H	0.536401	0.588696	0.769891
H193	H	0.942239	-0.266555	-0.000261
H194	H	1.442239	0.233445	0.499739
C195	C	1.011080	-0.625324	-0.000376
C196	C	1.511080	-0.125324	0.499624
C197	C	0.955927	-0.570504	-0.000332
C198	C	1.455927	-0.070504	0.499668
H199	H	1.054626	-0.606399	-0.000409
H200	H	1.554626	-0.106399	0.499591
H201	H	1.008019	-0.653380	0.094897
H202	H	1.508019	-0.153380	0.594897
H203	H	1.008006	-0.653365	-0.095665
H204	H	1.508006	-0.153365	0.404335
H205	H	0.958999	-0.542467	0.094963
H206	H	1.458999	-0.042467	0.594963
H207	H	0.958990	-0.542437	-0.095615
H208	H	1.458990	-0.042437	0.404385
