data_functionalizedCrystal
_audit_creation_method	'MofGen! by Chris Wilmer'
_symmetry_space_group_name_H-M	'P1'
_symmetry_Int_Tables_number	1
_symmetry_cell_setting	triclinic
loop_
_symmetry_equiv_pos_as_xyz
  x,y,z
_cell_length_a	19.077399
_cell_length_b	12.645330
_cell_length_c	19.076919
_cell_angle_alpha	92.274320
_cell_angle_beta	94.479523
_cell_angle_gamma	92.312055
loop_
_atom_site_label
_atom_site_type_symbol
_atom_site_fract_x
_atom_site_fract_y
_atom_site_fract_z
Zn1	Zn	1.061728	-0.379329	-0.355402
Zn2	Zn	1.066406	-0.549192	-0.237526
Zn3	Zn	0.948583	-0.379358	-0.242257
Zn4	Zn	0.943836	-0.563968	-0.360095
O5	O	1.005138	-0.467962	-0.298820
O6	O	1.160996	-0.395666	-0.335822
O7	O	1.054721	-0.520491	-0.139506
O8	O	0.963620	-0.231006	-0.257282
O9	O	1.164433	-0.520463	-0.249219
O10	O	1.046748	-0.230985	-0.340409
O11	O	0.968156	-0.395715	-0.142982
O12	O	0.849306	-0.410043	-0.261832
O13	O	0.955531	-0.545647	-0.458120
O14	O	0.845819	-0.545675	-0.348407
O15	O	1.042145	-0.409994	-0.454672
O16	O	1.050118	-0.699500	-0.253769
O17	O	0.960067	-0.710356	-0.343820
C18	C	0.821984	-0.479466	-0.306142
C19	C	0.743629	-0.484415	-0.309292
C20	C	1.005104	-0.743393	-0.298805
C21	C	1.005152	-0.861221	-0.298819
C22	C	0.708610	-0.416025	-0.265770
C23	C	0.634987	-0.420684	-0.268729
C24	C	0.596385	-0.493727	-0.315213
C25	C	0.631409	-0.562124	-0.358737
C26	C	0.705031	-0.557470	-0.355774
C27	C	0.376008	-0.515234	-0.328897
C28	C	0.302381	-0.519881	-0.331858
C29	C	0.305964	-0.378442	-0.241850
C30	C	0.379587	-0.373790	-0.238894
C31	C	0.414605	-0.442190	-0.282414
N32	N	0.521130	-0.498489	-0.318241
N33	N	0.489858	-0.437433	-0.279383
C34	C	1.061721	-1.021910	-0.242061
C35	C	1.061892	-0.899347	-0.242188
C36	C	1.022309	-0.909018	-0.372320
C37	C	1.022752	-1.031571	-0.372013
C38	C	0.931376	-1.032042	-0.282810
C39	C	0.931801	-0.909310	-0.281129
C40	C	1.189008	-0.456413	-0.291469
C41	C	1.267362	-0.451492	-0.288337
C42	C	0.997787	-0.479466	-0.482689
C43	C	0.994654	-0.484368	-0.561043
C44	C	1.005192	-0.191455	-0.298850
C45	C	1.005214	-0.073625	-0.298863
C46	C	1.038275	-0.416047	-0.596061
C47	C	1.035323	-0.420649	-0.669683
C48	C	0.988753	-0.493579	-0.708287
C49	C	0.945127	-0.561903	-0.673264
C50	C	0.948076	-0.557294	-0.599643
C51	C	0.975094	-0.514930	-0.928662
C52	C	0.972150	-0.519536	-1.002288
C53	C	1.062346	-0.378280	-0.998701
C54	C	1.065294	-0.373682	-0.925079
C55	C	1.021665	-0.442003	-0.890063
N56	N	0.985736	-0.498287	-0.783540
N57	N	1.024679	-0.437288	-0.814811
C58	C	1.012502	-0.456424	-0.115664
C59	C	1.015771	-0.451215	-0.037305
H60	H	0.740034	-0.356537	-0.227923
H61	H	1.116180	-1.049966	-0.252313
N62	N	1.090349	-1.064301	-0.389508
N63	N	1.136871	-0.996649	-0.401857
H64	H	1.184614	-1.019759	-0.414213
N65	N	0.411767	-0.585114	-0.373346
N66	N	0.403723	-0.683141	-0.368885
H67	H	0.428979	-0.732500	-0.400279
N68	N	0.591980	-0.636723	-0.406230
N69	N	0.597621	-0.633389	-0.470954
H70	H	0.569776	-0.686073	-0.504499
H71	H	0.907205	-0.621280	-0.704701
H72	H	1.070846	-0.365017	-0.698190
H73	H	0.915197	-1.060848	-0.230302
H74	H	0.277444	-0.322756	-0.206417
N75	N	0.930526	-0.584702	-0.892895
N76	N	0.887254	-0.547646	-0.853619
H77	H	0.855773	-0.596923	-0.828356
N78	N	0.740803	-0.627311	-0.400242
N79	N	0.780099	-0.590334	-0.443553
H80	H	0.805363	-0.639664	-0.474959
H81	H	0.912547	-0.612919	-0.571134
H82	H	0.934224	-0.578927	-1.033717
N83	N	1.048856	-0.858356	-0.173700
N84	N	1.039569	-0.920280	-0.125473
H85	H	1.030364	-0.891336	-0.077100
N86	N	0.419027	-0.299193	-0.191408
N87	N	0.484759	-0.295049	-0.188769
H88	H	0.512615	-0.242362	-0.155234
H89	H	1.051497	-1.048763	-0.187300
H90	H	1.103218	-0.314298	-0.893653
H91	H	1.076200	-0.356662	-0.564634
N92	N	1.130578	-0.859095	-0.255209
N93	N	1.178536	-0.921544	-0.264237
H94	H	1.227049	-0.893118	-0.273435
H95	H	0.887670	-0.883703	-0.319707
H96	H	0.270953	-0.579362	-0.369716
H97	H	0.918810	-0.877823	-0.227053
H98	H	0.889311	-1.066103	-0.324217
N99	N	0.973178	-1.075107	-0.426727
N100	N	0.993425	-1.133328	-0.474956
H101	H	0.958418	-1.164070	-0.513603
H102	H	0.982276	-0.884920	-0.415647
N103	N	0.599227	-0.350825	-0.224263
N104	N	0.633701	-0.285612	-0.182763
H105	H	0.608447	-0.236273	-0.151354
N106	N	1.089118	-0.867427	-0.390178
N107	N	1.124206	-0.802598	-0.348898
H108	H	1.171391	-0.773222	-0.361507
H109	H	1.097865	-0.322656	-1.027219
