data_functionalizedCrystal
_audit_creation_method	'MofGen! by Chris Wilmer'
_symmetry_space_group_name_H-M	'P1'
_symmetry_Int_Tables_number	1
_symmetry_cell_setting	triclinic
loop_
_symmetry_equiv_pos_as_xyz
  x,y,z
_cell_length_a	9.065218
_cell_length_b	12.996460
_cell_length_c	9.065215
_cell_angle_alpha	89.999293
_cell_angle_beta	85.015291
_cell_angle_gamma	90.006338
loop_
_atom_site_label
_atom_site_type_symbol
_atom_site_fract_x
_atom_site_fract_y
_atom_site_fract_z
O1	O	1.960404	0.085567	0.216347
O2	O	1.531119	0.085568	0.234094
O3	O	1.754637	0.085563	0.010578
O4	O	1.736886	0.085572	0.439863
O5	O	1.754608	-0.085570	0.010590
O6	O	1.531090	-0.085565	0.234106
O7	O	1.960375	-0.085567	0.216360
Cu8	Cu	1.745730	-0.101192	0.225234
Cu9	Cu	1.745764	0.101194	0.225219
O10	O	1.736857	-0.085562	0.439876
C11	C	1.476118	0.000002	0.232394
C12	C	1.312275	0.000002	0.227295
N13	N	1.745716	-0.243539	0.225244
C14	C	1.745723	-0.336645	0.225248
C15	C	1.745737	-0.453450	0.225238
C16	C	1.745755	-0.546548	0.225222
C17	C	1.745771	-0.663361	0.225214
C18	C	2.015376	0.000002	0.218059
C19	C	2.179219	0.000009	0.223159
C20	C	1.752917	-0.000002	-0.044403
C21	C	1.747819	0.000001	-0.208246
N22	N	1.745789	0.243541	0.225198
C23	C	1.738576	0.000007	0.494856
C24	C	1.743674	0.000010	0.658699
