data_functionalizedCrystal
_audit_creation_method	'MofGen! by Chris Wilmer'
_symmetry_space_group_name_H-M	'P1'
_symmetry_Int_Tables_number	1
_symmetry_cell_setting	triclinic
loop_
_symmetry_equiv_pos_as_xyz
  x,y,z
_cell_length_a	8.634740
_cell_length_b	10.967829
_cell_length_c	9.483290
_cell_angle_alpha	88.375869
_cell_angle_beta	98.956098
_cell_angle_gamma	92.462803
loop_
_atom_site_label
_atom_site_type_symbol
_atom_site_fract_x
_atom_site_fract_y
_atom_site_fract_z
O1	O	2.011831	0.372006	-0.214068
O2	O	2.511831	0.872006	0.285932
O3	O	1.563996	0.339203	-0.205855
O4	O	2.063996	0.839203	0.294145
O5	O	1.806090	0.182368	-0.166559
O6	O	2.306090	0.682368	0.333441
O7	O	1.769738	0.528841	-0.253365
O8	O	2.269738	1.028841	0.246635
O9	O	1.847875	0.220706	0.065613
O10	O	2.347875	0.720706	0.565613
O11	O	1.605782	0.377541	0.026316
O12	O	2.105782	0.877541	0.526316
O13	O	2.053617	0.410343	0.018103
O14	O	2.553617	0.910343	0.518103
Cu15	Cu	1.833514	0.397442	0.043409
Cu16	Cu	2.333514	0.897442	0.543409
Cu17	Cu	1.784099	0.352104	-0.231161
Cu18	Cu	2.284099	0.852104	0.268839
O19	O	1.811523	0.567178	-0.021194
O20	O	2.311523	1.067178	0.478806
C21	C	1.527692	0.350941	-0.087908
C22	C	2.027692	0.850941	0.412092
C23	C	1.357263	0.328785	-0.082360
C24	C	1.857263	0.828785	0.417640
C25	C	1.827495	0.156720	-0.039248
C26	C	2.327495	0.656720	0.460752
C27	C	1.829002	0.023176	-0.005799
C28	C	2.329002	0.523176	0.494201
C29	C	1.808028	-0.056216	-0.111159
C30	C	2.308028	0.443784	0.388841
C31	C	1.809585	-0.194240	-0.076590
C32	C	2.309585	0.305760	0.423410
C33	C	2.089920	0.398605	-0.099847
C34	C	2.589920	0.898605	0.400153
C35	C	2.260347	0.420759	-0.105405
C36	C	2.760347	0.920759	0.394595
C37	C	1.790118	0.592826	-0.148508
C38	C	2.290118	1.092826	0.351492
C39	C	1.788609	0.726368	-0.181966
C40	C	2.288609	1.226368	0.318034
N41	N	1.868282	0.429332	0.236526
N42	N	2.368282	0.929332	0.736526
N43	N	1.749343	0.320207	-0.424276
N44	N	2.249343	0.820207	0.075724
C45	C	1.794336	0.361502	0.325748
C46	C	2.294336	0.861502	0.825748
C47	C	1.823301	0.388047	0.486503
C48	C	2.323301	0.888047	0.986503
H49	H	1.309848	0.233086	-0.058421
H50	H	1.809848	0.733086	0.441579
H51	H	1.709578	0.283782	0.283121
H52	H	2.209578	0.783782	0.783121
H53	H	1.788911	-0.022003	-0.226954
H54	H	2.288911	0.477997	0.273046
H55	H	1.908049	0.465780	0.529121
H56	H	2.408049	0.965780	1.029121
H57	H	1.769479	-0.239426	-0.297769
H58	H	2.269479	0.260574	0.202231
H59	H	1.307765	0.516461	-0.129372
H60	H	1.807765	1.016461	0.370628
H61	H	1.828687	-0.228448	0.039212
H62	H	2.328687	0.271552	0.539212
H63	H	1.848102	-0.011037	0.109996
H64	H	2.348102	0.488963	0.609996
H65	H	1.664577	0.242484	0.533106
H66	H	2.164577	0.742484	1.033106
H67	H	1.953025	0.507060	0.279150
H68	H	2.453025	1.007060	0.779150
