data_functionalizedCrystal
_audit_creation_method	'MofGen! by Chris Wilmer'
_symmetry_space_group_name_H-M	'P1'
_symmetry_Int_Tables_number	1
_symmetry_cell_setting	triclinic
loop_
_symmetry_equiv_pos_as_xyz
  x,y,z
_cell_length_a	16.625546
_cell_length_b	19.805407
_cell_length_c	19.805399
_cell_angle_alpha	90.019573
_cell_angle_beta	89.972133
_cell_angle_gamma	89.977532
loop_
_atom_site_label
_atom_site_type_symbol
_atom_site_fract_x
_atom_site_fract_y
_atom_site_fract_z
Zn1	Zn	-0.321020	-1.034754	-0.382718
Zn2	Zn	0.178980	-0.534754	0.117282
Zn3	Zn	-0.455857	-1.034677	-0.269529
Zn4	Zn	0.044143	-0.534677	0.230471
Zn5	Zn	-0.321043	-0.921569	-0.269543
Zn6	Zn	0.178957	-0.421569	0.230457
Zn7	Zn	-0.455815	-0.921540	-0.382676
Zn8	Zn	0.044185	-0.421540	0.117324
O9	O	-0.388434	-0.978135	-0.326117
O10	O	0.111566	-0.478135	0.173883
O11	O	-0.338915	-1.129461	-0.367716
O12	O	0.161085	-0.629461	0.132284
O13	O	-0.438001	-1.019652	-0.174815
O14	O	0.061999	-0.519652	0.325185
O15	O	-0.208207	-0.936628	-0.284579
O16	O	0.291793	-0.436628	0.215421
O17	O	-0.437980	-1.129404	-0.284556
O18	O	0.062020	-0.629404	0.215444
O19	O	-0.208191	-1.019784	-0.367729
O20	O	0.291809	-0.519784	0.132271
O21	O	-0.338953	-0.936553	-0.174825
O22	O	0.161047	-0.436553	0.325175
O23	O	-0.338912	-0.826848	-0.284538
O24	O	0.161088	-0.326848	0.215462
O25	O	-0.437907	-0.936579	-0.477398
O26	O	0.062093	-0.436579	0.022602
O27	O	-0.437928	-0.826827	-0.367657
O28	O	0.062072	-0.326827	0.132343
O29	O	-0.338874	-1.019756	-0.477429
O30	O	0.161126	-0.519756	0.022571
O31	O	-0.568684	-1.019625	-0.284515
O32	O	-0.068684	-0.519625	0.215485
O33	O	-0.568653	-0.936504	-0.367644
O34	O	-0.068653	-0.436504	0.132356
C35	C	-0.597925	-0.978071	-0.326088
C36	C	-0.097925	-0.478071	0.173912
C37	C	-0.687546	-0.978105	-0.326099
C38	C	-0.187546	-0.478105	0.173901
C39	C	-0.388418	-0.802279	-0.326095
C40	C	0.111582	-0.302279	0.173905
C41	C	-0.388431	-0.727047	-0.326102
C42	C	0.111569	-0.227047	0.173898
C43	C	-0.388383	-0.978173	-0.502660
C44	C	0.111617	-0.478173	-0.002660
C45	C	-0.388361	-0.978189	-0.577892
C46	C	0.111639	-0.478189	-0.077892
C47	C	-1.015721	-0.978224	-0.326169
C48	C	-0.515721	-0.478224	0.173831
C49	C	-0.924413	-0.978189	-0.326152
C50	C	-0.424413	-0.478189	0.173848
C51	C	-0.851636	-0.978164	-0.326134
C52	C	-0.351636	-0.478164	0.173866
C53	C	-0.760322	-0.978130	-0.326117
C54	C	-0.260322	-0.478130	0.173883
C55	C	-0.178125	-0.978218	-0.326160
C56	C	0.321875	-0.478218	0.173840
C57	C	-0.088504	-0.978253	-0.326178
C58	C	0.411496	-0.478253	0.173822
C59	C	-0.388450	-1.154678	-0.326139
C60	C	0.111550	-0.654678	0.173861
C61	C	-0.388457	-1.229910	-0.326149
C62	C	0.111543	-0.729910	0.173851
C63	C	-0.440067	-0.691710	-0.369311
C64	C	0.059933	-0.191710	0.130689
C65	C	-0.440068	-0.621021	-0.369321
C66	C	0.059932	-0.121021	0.130679
C67	C	-0.388437	-0.585671	-0.326117
C68	C	0.111563	-0.085671	0.173883
C69	C	-0.336796	-0.621014	-0.282905
C70	C	0.163204	-0.121014	0.217095
C71	C	-0.336791	-0.691701	-0.282899
C72	C	0.163209	-0.191701	0.217101
C73	C	-0.336814	-0.335941	-0.282927
C74	C	0.163186	0.164059	0.217073
C75	C	-0.336825	-0.265248	-0.282935
C76	C	0.163175	0.234752	0.217065
C77	C	-0.440091	-0.265261	-0.369349
C78	C	0.059909	0.234739	0.130651
C79	C	-0.440086	-0.335948	-0.369343
C80	C	0.059914	0.164052	0.130657
C81	C	-0.388442	-0.371284	-0.326134
C82	C	0.111558	0.128716	0.173866
C83	C	-0.388440	-0.447932	-0.326125
C84	C	0.111560	0.052068	0.173875
C85	C	-0.388443	-0.509024	-0.326122
C86	C	0.111557	-0.009024	0.173878
C87	C	-0.336792	-1.021501	-0.613253
C88	C	0.163208	-0.521501	-0.113253
C89	C	-0.336769	-1.021508	-0.683941
C90	C	0.163231	-0.521508	-0.183941
C91	C	-0.388319	-0.978206	-0.719267
C92	C	0.111681	-0.478206	-0.219267
C93	C	-0.439890	-0.934889	-0.683901
C94	C	0.060110	-0.434889	-0.183901
C95	C	-0.439909	-0.934880	-0.613214
C96	C	0.060091	-0.434880	-0.113214
C97	C	-0.439815	-0.934928	-0.968974
C98	C	0.060185	-0.434928	-0.468974
C99	C	-0.439794	-0.934942	-1.039667
C100	C	0.060206	-0.434942	-0.539667
C101	C	-0.336675	-1.021556	-1.039702
C102	C	0.163325	-0.521556	-0.539702
C103	C	-0.336694	-1.021546	-0.969015
C104	C	0.163306	-0.521546	-0.469015
C105	C	-0.388262	-0.978227	-0.933655
C106	C	0.111738	-0.478227	-0.433655
C107	C	-0.388285	-0.978219	-0.857006
C108	C	0.111715	-0.478219	-0.357006
C109	C	-0.388300	-0.978217	-0.795914
C110	C	0.111700	-0.478217	-0.295914
C111	C	-0.388426	-0.978136	-0.150261
C112	C	0.111574	-0.478136	0.349739
C113	C	-0.388221	-0.978251	-0.075029
C114	C	0.111779	-0.478251	0.424971
H115	H	-0.482116	-0.592253	-0.404506
H116	H	0.017884	-0.092253	0.095494
O117	O	-0.490090	-0.892794	-0.578966
O118	O	0.009910	-0.392794	-0.078966
C119	C	-0.592357	-0.806870	-0.586386
C120	C	-0.092357	-0.306870	-0.086386
C121	C	-0.535578	-0.854508	-0.625254
C122	C	-0.035578	-0.354508	-0.125254
H123	H	-0.629137	-0.775894	-0.623794
H124	H	-0.129137	-0.275894	-0.123794
H125	H	-0.634579	-0.837900	-0.553312
H126	H	-0.134579	-0.337900	-0.053312
H127	H	-0.555340	-0.771515	-0.553271
H128	H	-0.055340	-0.271515	-0.053271
H129	H	-0.572530	-0.889873	-0.658407
H130	H	-0.072530	-0.389873	-0.158407
H131	H	-0.493354	-0.823436	-0.658286
H132	H	0.006646	-0.323436	-0.158286
O133	O	-0.286735	-0.370227	-0.240857
O134	O	0.213265	0.129773	0.259143
C135	C	-0.247369	-0.391773	-0.125783
C136	C	0.252631	0.108227	0.374217
C137	C	-0.304151	-0.352913	-0.173353
C138	C	0.195849	0.147087	0.326647
H139	H	-0.261418	-0.377779	-0.071197
H140	H	0.238582	0.122221	0.428803
H141	H	-0.256225	-0.448377	-0.133137
H142	H	0.243775	0.051623	0.366863
H143	H	-0.182382	-0.377898	-0.137808
H144	H	0.317618	0.122102	0.362192
H145	H	-0.369160	-0.366732	-0.161358
H146	H	0.130840	0.133268	0.338642
H147	H	-0.295226	-0.296319	-0.165990
H148	H	0.204774	0.203681	0.334010
O149	O	-0.490019	-0.892914	-0.934669
O150	O	0.009981	-0.392914	-0.434669
C151	C	-0.627166	-0.859941	-0.913052
C152	C	-0.127166	-0.359941	-0.413052
C153	C	-0.570404	-0.907583	-0.951932
C154	C	-0.070404	-0.407583	-0.451932
H155	H	-0.692168	-0.871774	-0.927006
H156	H	-0.192168	-0.371774	-0.427006
H157	H	-0.618402	-0.867357	-0.856452
H158	H	-0.118402	-0.367357	-0.356452
H159	H	-0.612941	-0.805383	-0.926951
H160	H	-0.112941	-0.305383	-0.426951
H161	H	-0.584595	-0.962159	-0.938090
H162	H	-0.084595	-0.462159	-0.438090
H163	H	-0.579179	-0.900108	-1.008523
H164	H	-0.079179	-0.400108	-0.508523
O165	O	-0.286783	-0.230883	-0.240887
O166	O	0.213217	0.269117	0.259113
C167	C	-0.275810	-0.151018	-0.149545
C168	C	0.224190	0.348982	0.350455
C169	C	-0.332565	-0.189904	-0.197112
C170	C	0.167435	0.310096	0.302888
H171	H	-0.312800	-0.117867	-0.114150
H172	H	0.187200	0.382133	0.385850
H173	H	-0.238916	-0.188390	-0.118613
H174	H	0.261084	0.311610	0.381387
H175	H	-0.233685	-0.117973	-0.180695
H176	H	0.266315	0.382027	0.319305
H177	H	-0.374738	-0.222951	-0.166015
H178	H	0.125262	0.277049	0.333985
H179	H	-0.369402	-0.152496	-0.228046
H180	H	0.130598	0.347504	0.271954
H181	H	-0.482132	-0.364726	-0.404522
H182	H	0.017868	0.135274	0.095478
O183	O	-0.286599	-1.063493	-0.578972
O184	O	0.213401	-0.563493	-0.078972
C185	C	-0.149453	-1.096424	-0.557419
C186	C	0.350547	-0.596424	-0.057419
C187	C	-0.206209	-1.048816	-0.596268
C188	C	0.293791	-0.548816	-0.096268
H189	H	-0.084447	-1.084584	-0.571399
H190	H	0.415553	-0.584584	-0.071399
H191	H	-0.158251	-1.088978	-0.500813
H192	H	0.341749	-0.588978	-0.000813
H193	H	-0.163654	-1.150993	-0.571319
H194	H	0.336346	-0.650993	-0.071319
H195	H	-0.192044	-0.994229	-0.582425
H196	H	0.307956	-0.494229	-0.082425
H197	H	-0.197401	-1.056320	-0.652864
H198	H	0.302599	-0.556320	-0.152864
O199	O	-0.286755	-0.586645	-0.240867
O200	O	0.213245	-0.086645	0.259133
C201	C	-0.275763	-0.506768	-0.149538
C202	C	0.224237	-0.006768	0.350462
C203	C	-0.332527	-0.545659	-0.197093
C204	C	0.167473	-0.045659	0.302907
H205	H	-0.312746	-0.473610	-0.114144
H206	H	0.187254	0.026390	0.385856
H207	H	-0.238866	-0.544136	-0.118604
H208	H	0.261134	-0.044136	0.381396
H209	H	-0.233641	-0.473729	-0.180697
H210	H	0.266359	0.026271	0.319303
H211	H	-0.374697	-0.578698	-0.165986
H212	H	0.125303	-0.078698	0.334014
H213	H	-0.369366	-0.508253	-0.228029
H214	H	0.130634	-0.008253	0.271971
O215	O	-0.489958	-0.892971	-1.074012
O216	O	0.010042	-0.392971	-0.574012
C217	C	-0.598765	-0.883833	-1.153824
C218	C	-0.098765	-0.383833	-0.653824
C219	C	-0.542020	-0.931437	-1.114959
C220	C	-0.042020	-0.431437	-0.614959
H221	H	-0.640860	-0.914913	-1.186950
H222	H	-0.140860	-0.414913	-0.686950
H223	H	-0.635683	-0.852882	-1.116439
H224	H	-0.135683	-0.352882	-0.616439
H225	H	-0.561716	-0.848452	-1.186893
H226	H	-0.061716	-0.348452	-0.686893
H227	H	-0.579007	-0.966859	-1.081890
H228	H	-0.079007	-0.466859	-0.581890
H229	H	-0.505099	-0.962341	-1.152381
H230	H	-0.005099	-0.462341	-0.652381
O231	O	-0.286541	-1.063631	-0.934805
O232	O	0.213459	-0.563631	-0.434805
C233	C	-0.184284	-1.149568	-0.942302
C234	C	0.315716	-0.649568	-0.442302
C235	C	-0.241031	-1.101933	-0.981128
C236	C	0.258969	-0.601933	-0.481128
H237	H	-0.147486	-1.180558	-0.979737
H238	H	0.352514	-0.680558	-0.479737
H239	H	-0.142077	-1.118536	-0.909231
H240	H	0.357923	-0.618536	-0.409231
H241	H	-0.221327	-1.184911	-0.909188
H242	H	0.278673	-0.684911	-0.409188
H243	H	-0.204053	-1.066580	-1.014279
H244	H	0.295947	-0.566580	-0.514279
H245	H	-0.283241	-1.133008	-1.014156
H246	H	0.216759	-0.633008	-0.514156
O247	O	-0.490177	-0.230829	-0.411307
O248	O	0.009823	0.269171	0.088693
C249	C	-0.535991	-0.121939	-0.449592
C250	C	-0.035991	0.378061	0.050408
C251	C	-0.479215	-0.160845	-0.402056
C252	C	0.020785	0.339155	0.097944
H253	H	-0.527160	-0.065349	-0.442119
H254	H	-0.027160	0.434651	0.057881
H255	H	-0.521918	-0.135817	-0.504205
H256	H	-0.021918	0.364183	-0.004205
H257	H	-0.600978	-0.135854	-0.437611
H258	H	-0.100978	0.364146	0.062389
H259	H	-0.414209	-0.146950	-0.413976
H260	H	0.085791	0.353050	0.086024
H261	H	-0.493357	-0.146963	-0.347458
H262	H	0.006643	0.353037	0.152542
H263	H	-0.294740	-0.720472	-0.247717
H264	H	0.205260	-0.220472	0.252283
H265	H	-0.482113	-0.720486	-0.404491
H266	H	0.017887	-0.220486	0.095509
O267	O	-0.286582	-1.063482	-0.718316
O268	O	0.213418	-0.563482	-0.218316
C269	C	-0.177712	-1.072637	-0.798162
C270	C	0.322288	-0.572637	-0.298162
C271	C	-0.234496	-1.025025	-0.759267
C272	C	0.265504	-0.525025	-0.259267
H273	H	-0.135598	-1.041564	-0.831290
H274	H	0.364402	-0.541564	-0.331290
H275	H	-0.140817	-1.103569	-0.760796
H276	H	0.359183	-0.603569	-0.260796
H277	H	-0.214731	-1.108035	-0.831231
H278	H	0.285269	-0.608035	-0.331231
H279	H	-0.197540	-0.989586	-0.726197
H280	H	0.302460	-0.489586	-0.226197
H281	H	-0.271393	-0.994140	-0.796669
H282	H	0.228607	-0.494140	-0.296669
H283	H	-0.294683	-1.056826	-1.068501
H284	H	0.205317	-0.556826	-0.568501
O285	O	-0.490051	-0.892922	-0.718245
O286	O	0.009949	-0.392922	-0.218245
C287	C	-0.598858	-0.883782	-0.798058
C288	C	-0.098858	-0.383782	-0.298058
C289	C	-0.542111	-0.931387	-0.759195
C290	C	-0.042111	-0.431387	-0.259195
H291	H	-0.640951	-0.914862	-0.831186
H292	H	-0.140951	-0.414862	-0.331186
H293	H	-0.635777	-0.852834	-0.760671
H294	H	-0.135777	-0.352834	-0.260671
H295	H	-0.561809	-0.848398	-0.831124
H296	H	-0.061809	-0.348398	-0.331124
H297	H	-0.579098	-0.966812	-0.726128
H298	H	-0.079098	-0.466812	-0.226128
H299	H	-0.505189	-0.962288	-0.796619
H300	H	-0.005189	-0.462288	-0.296619
