data_functionalizedCrystal
_audit_creation_method	'MofGen! by Chris Wilmer'
_symmetry_space_group_name_H-M	'P1'
_symmetry_Int_Tables_number	1
_symmetry_cell_setting	triclinic
loop_
_symmetry_equiv_pos_as_xyz
  x,y,z
_cell_length_a	15.944551
_cell_length_b	15.021413
_cell_length_c	15.944480
_cell_angle_alpha	90.010117
_cell_angle_beta	96.515708
_cell_angle_gamma	90.002826
loop_
_atom_site_label
_atom_site_type_symbol
_atom_site_fract_x
_atom_site_fract_y
_atom_site_fract_z
O1	O	1.114501	0.073927	-0.108324
O2	O	1.364501	0.323927	0.141676
O3	O	1.614501	0.573927	0.391676
O4	O	1.864501	0.823927	0.641676
O5	O	0.869948	0.073948	-0.121681
O6	O	1.119948	0.323948	0.128319
O7	O	1.369948	0.573948	0.378319
O8	O	1.619948	0.823948	0.628319
O9	O	0.998934	0.073945	0.007276
O10	O	1.248934	0.323945	0.257276
O11	O	1.498934	0.573945	0.507276
O12	O	1.748934	0.823945	0.757276
O13	O	0.985516	0.073930	-0.237282
O14	O	1.235516	0.323930	0.012718
O15	O	1.485516	0.573930	0.262718
O16	O	1.735516	0.823930	0.512718
O17	O	0.998913	-0.074120	0.007258
O18	O	1.248913	0.175880	0.257258
O19	O	1.498913	0.425880	0.507258
O20	O	1.748913	0.675880	0.757258
O21	O	0.869928	-0.074117	-0.121700
O22	O	1.119928	0.175883	0.128300
O23	O	1.369928	0.425883	0.378300
O24	O	1.619928	0.675883	0.628300
O25	O	1.114481	-0.074137	-0.108343
O26	O	1.364481	0.175863	0.141657
O27	O	1.614481	0.425863	0.391657
O28	O	1.864481	0.675863	0.641657
Zn29	Zn	0.992201	-0.097635	-0.115024
Zn30	Zn	1.242201	0.152365	0.134976
Zn31	Zn	1.492201	0.402365	0.384976
Zn32	Zn	1.742201	0.652365	0.634976
Zn33	Zn	0.992228	0.097446	-0.115000
Zn34	Zn	1.242228	0.347446	0.135000
Zn35	Zn	1.492228	0.597446	0.385000
Zn36	Zn	1.742228	0.847446	0.635000
O37	O	0.985495	-0.074134	-0.237300
O38	O	1.235495	0.175866	0.012700
O39	O	1.485495	0.425866	0.262700
O40	O	1.735495	0.675866	0.512700
C41	C	0.838644	-0.000082	-0.121136
C42	C	1.088644	0.249918	0.128864
C43	C	1.338644	0.499918	0.378864
C44	C	1.588644	0.749918	0.628864
C45	C	0.745399	-0.000073	-0.119473
C46	C	0.995399	0.249927	0.130527
C47	C	1.245399	0.499927	0.380527
C48	C	1.495399	0.749927	0.630527
N49	N	0.992189	-0.230773	-0.115040
N50	N	1.242189	0.019227	0.134960
N51	N	1.492189	0.269227	0.384960
N52	N	1.742189	0.519227	0.634960
C53	C	0.932537	-0.470455	-0.174642
C54	C	1.182537	-0.220455	0.075358
C55	C	1.432537	0.029545	0.325358
C56	C	1.682537	0.279545	0.575358
C57	C	1.008433	-0.529797	-0.190950
C58	C	1.258433	-0.279797	0.059050
C59	C	1.508433	-0.029797	0.309050
C60	C	1.758433	0.220203	0.559050
C61	C	0.992210	-0.412380	-0.115019
C62	C	1.242210	-0.162380	0.134981
C63	C	1.492210	0.087620	0.384981
C64	C	1.742210	0.337620	0.634981
C65	C	0.916335	-0.529779	-0.098730
C66	C	1.166335	-0.279779	0.151270
C67	C	1.416335	-0.029779	0.401270
C68	C	1.666335	0.220221	0.651270
C69	C	0.992224	-0.587804	-0.115001
C70	C	1.242224	-0.337804	0.134999
C71	C	1.492224	-0.087804	0.384999
C72	C	1.742224	0.162196	0.634999
C73	C	1.068145	-0.470416	-0.131365
C74	C	1.318145	-0.220416	0.118635
C75	C	1.568145	0.029584	0.368635
C76	C	1.818145	0.279584	0.618635
C77	C	0.975997	-0.470393	-0.039112
C78	C	1.225997	-0.220393	0.210888
C79	C	1.475997	0.029607	0.460888
C80	C	1.725997	0.279607	0.710888
C81	C	1.051948	-0.529708	-0.055388
C82	C	1.301948	-0.279708	0.194612
C83	C	1.551948	-0.029708	0.444612
C84	C	1.801948	0.220292	0.694612
C85	C	0.992201	-0.311322	-0.115032
C86	C	1.242201	-0.061322	0.134968
C87	C	1.492201	0.188678	0.384968
C88	C	1.742201	0.438678	0.634968
C89	C	0.992242	-0.688859	-0.114987
C90	C	1.242242	-0.438859	0.135013
C91	C	1.492242	-0.188859	0.385013
C92	C	1.742242	0.061141	0.635013
C93	C	0.530563	-0.000085	-0.035566
C94	C	0.780563	0.249915	0.214434
C95	C	1.030563	0.499915	0.464434
C96	C	1.280563	0.749915	0.714434
C97	C	0.469543	0.072916	-0.074521
C98	C	0.719543	0.322916	0.175479
C99	C	0.969543	0.572916	0.425479
C100	C	1.219543	0.822916	0.675479
C101	C	0.574674	-0.000083	-0.116466
C102	C	0.824674	0.249917	0.133534
C103	C	1.074674	0.499917	0.383534
C104	C	1.324674	0.749917	0.633534
C105	C	0.469545	-0.073064	-0.074558
C106	C	0.719545	0.176936	0.175442
C107	C	0.969545	0.426936	0.425442
C108	C	1.219545	0.676936	0.675442
C109	C	0.409762	-0.000097	-0.113555
C110	C	0.659762	0.249903	0.136445
C111	C	0.909762	0.499903	0.386445
C112	C	1.159762	0.749903	0.636445
C113	C	0.514882	0.072978	-0.155443
C114	C	0.764882	0.322978	0.094557
C115	C	1.014882	0.572978	0.344557
C116	C	1.264882	0.822978	0.594557
C117	C	0.514890	-0.073067	-0.155469
C118	C	0.764890	0.176933	0.094531
C119	C	1.014890	0.426933	0.344531
C120	C	1.264890	0.676933	0.594531
C121	C	0.453888	-0.000048	-0.194482
C122	C	0.703888	0.249952	0.055518
C123	C	0.953888	0.499952	0.305518
C124	C	1.203888	0.749952	0.555518
C125	C	0.669675	-0.000075	-0.118141
C126	C	0.919675	0.249925	0.131859
C127	C	1.169675	0.499925	0.381859
C128	C	1.419675	0.749925	0.631859
C129	C	0.314761	-0.000100	-0.111887
C130	C	0.564761	0.249900	0.138113
C131	C	0.814761	0.499900	0.388113
C132	C	1.064761	0.749900	0.638113
C133	C	1.145785	-0.000106	-0.108888
C134	C	1.395785	0.249894	0.141112
C135	C	1.645785	0.499894	0.391112
C136	C	1.895785	0.749894	0.641112
C137	C	1.239031	-0.000109	-0.110551
C138	C	1.489031	0.249891	0.139449
C139	C	1.739031	0.499891	0.389449
C140	C	1.989031	0.749891	0.639449
C141	C	0.998377	-0.000083	0.038562
C142	C	1.248377	0.249917	0.288562
C143	C	1.498377	0.499917	0.538562
C144	C	1.748377	0.749917	0.788562
C145	C	0.996739	-0.000072	0.131811
C146	C	1.246739	0.249928	0.381811
C147	C	1.496739	0.499928	0.631811
C148	C	1.746739	0.749928	0.881811
N149	N	0.992247	0.230583	-0.114977
N150	N	1.242247	0.480583	0.135023
N151	N	1.492247	0.730583	0.385023
N152	N	1.742247	0.980583	0.635023
C153	C	1.072670	-0.000094	0.367572
C154	C	1.322670	0.249906	0.617572
C155	C	1.572670	0.499906	0.867572
C156	C	1.822670	0.749906	1.117572
C157	C	1.031741	0.072913	0.418150
C158	C	1.281741	0.322913	0.668150
C159	C	1.531741	0.572913	0.918150
C160	C	1.781741	0.822913	1.168150
C161	C	0.993702	-0.000082	0.302533
C162	C	1.243702	0.249918	0.552533
C163	C	1.493702	0.499918	0.802533
C164	C	1.743702	0.749918	1.052533
C165	C	1.031703	-0.073067	0.418108
C166	C	1.281703	0.176933	0.668108
C167	C	1.531703	0.426933	0.918108
C168	C	1.781703	0.676933	1.168108
C169	C	0.990775	-0.000095	0.467444
C170	C	1.240775	0.249905	0.717444
C171	C	1.490775	0.499905	0.967444
C172	C	1.740775	0.749905	1.217444
C173	C	0.952795	0.072985	0.351882
C174	C	1.202795	0.322985	0.601882
C175	C	1.452795	0.572985	0.851882
C176	C	1.702795	0.822985	1.101882
C177	C	0.952768	-0.073060	0.351837
C178	C	1.202768	0.176940	0.601837
C179	C	1.452768	0.426940	0.851837
C180	C	1.702768	0.676940	1.101837
C181	C	0.911781	-0.000036	0.402381
C182	C	1.161781	0.249964	0.652381
C183	C	1.411781	0.499964	0.902381
C184	C	1.661781	0.749964	1.152381
C185	C	0.995391	-0.000073	0.207533
C186	C	1.245391	0.249927	0.457533
C187	C	1.495391	0.499927	0.707533
C188	C	1.745391	0.749927	0.957533
C189	C	0.989081	-0.000097	0.562441
C190	C	1.239081	0.249903	0.812441
C191	C	1.489081	0.499903	1.062441
C192	C	1.739081	0.749903	1.312441
C193	C	0.986063	-0.000103	0.731416
C194	C	1.236063	0.249897	0.981416
C195	C	1.486063	0.499897	1.231416
C196	C	1.736063	0.749897	1.481416
C197	C	0.987736	-0.000106	0.638171
C198	C	1.237736	0.249894	0.888171
C199	C	1.487736	0.499894	1.138171
C200	C	1.737736	0.749894	1.388171
H201	H	0.882124	-0.444438	-0.225104
H202	H	1.132124	-0.194438	0.024896
H203	H	1.382124	0.055562	0.274896
H204	H	1.632124	0.305562	0.524896
Br205	Br	0.436066	-0.175926	-0.017518
Br206	Br	0.686066	0.074074	0.232482
Br207	Br	0.936066	0.324074	0.482482
Br208	Br	1.186066	0.574074	0.732482
Br209	Br	0.398589	0.000007	-0.306500
Br210	Br	0.648589	0.250007	-0.056500
Br211	Br	0.898589	0.500007	0.193500
Br212	Br	1.148589	0.750007	0.443500
Br213	Br	0.548418	-0.175946	-0.212468
Br214	Br	0.798418	0.074054	0.037532
Br215	Br	1.048418	0.324054	0.287532
Br216	Br	1.298418	0.574054	0.537532
H217	H	0.563913	0.000009	0.031574
H218	H	0.813913	0.250009	0.281574
H219	H	1.063913	0.500009	0.531574
H220	H	1.313913	0.750009	0.781574
H221	H	1.132331	-0.444449	-0.145210
H222	H	1.382331	-0.194449	0.104790
H223	H	1.632331	0.055551	0.354790
H224	H	1.882331	0.305551	0.604790
H225	H	0.919473	0.134772	0.323070
H226	H	1.169473	0.384772	0.573070
H227	H	1.419473	0.634772	0.823070
H228	H	1.669473	0.884772	1.073070
H229	H	0.962246	-0.444279	0.025052
H230	H	1.212246	-0.194279	0.275052
H231	H	1.462246	0.055721	0.525052
H232	H	1.712246	0.305721	0.775052
H233	H	0.852162	-0.555858	-0.084962
H234	H	1.102162	-0.305858	0.165038
H235	H	1.352162	-0.055858	0.415038
H236	H	1.602162	0.194142	0.665038
Br237	Br	0.436057	0.175793	-0.017482
Br238	Br	0.686057	0.425793	0.232518
Br239	Br	0.936057	0.675793	0.482518
Br240	Br	1.186057	0.925793	0.732518
Br241	Br	1.087336	0.175778	0.466409
Br242	Br	1.337336	0.425778	0.716409
Br243	Br	1.587336	0.675778	0.966409
Br244	Br	1.837336	0.925778	1.216409
Br245	Br	0.798328	0.000035	0.428163
Br246	Br	1.048328	0.250035	0.678163
Br247	Br	1.298328	0.500035	0.928163
Br248	Br	1.548328	0.750035	1.178163
Br249	Br	1.186034	0.000012	0.341521
Br250	Br	1.436034	0.250012	0.591521
Br251	Br	1.686034	0.500012	0.841521
Br252	Br	1.936034	0.750012	1.091521
H253	H	0.534869	0.134762	-0.189627
H254	H	0.784869	0.384762	0.060373
H255	H	1.034869	0.634762	0.310373
H256	H	1.284869	0.884762	0.560373
H257	H	1.102473	-0.555562	-0.004956
H258	H	1.352473	-0.305562	0.245044
H259	H	1.602473	-0.055562	0.495044
H260	H	1.852473	0.194438	0.745044
H261	H	1.022159	-0.555890	-0.255134
H262	H	1.272159	-0.305890	-0.005134
H263	H	1.522159	-0.055890	0.244866
H264	H	1.772159	0.194110	0.494866
Br265	Br	0.897235	-0.175931	0.303529
Br266	Br	1.147235	0.074069	0.553529
Br267	Br	1.397235	0.324069	0.803529
Br268	Br	1.647235	0.574069	1.053529
Br269	Br	1.087297	-0.175933	0.466316
Br270	Br	1.337297	0.074067	0.716316
Br271	Br	1.587297	0.324067	0.966316
Br272	Br	1.837297	0.574067	1.216316
