data_functionalizedCrystal
_audit_creation_method	'MofGen! by Chris Wilmer'
_symmetry_space_group_name_H-M	'P1'
_symmetry_Int_Tables_number	1
_symmetry_cell_setting	triclinic
loop_
_symmetry_equiv_pos_as_xyz
  x,y,z
_cell_length_a	19.121112
_cell_length_b	19.121725
_cell_length_c	17.077396
_cell_angle_alpha	92.410951
_cell_angle_beta	87.542323
_cell_angle_gamma	85.251919
loop_
_atom_site_label
_atom_site_type_symbol
_atom_site_fract_x
_atom_site_fract_y
_atom_site_fract_z
Zn1	Zn	1.087614	-0.326061	-0.511168
Zn2	Zn	1.092538	-0.443720	-0.385745
Zn3	Zn	0.969950	-0.321058	-0.374075
Zn4	Zn	0.974926	-0.438653	-0.511128
O5	O	1.031257	-0.382373	-0.445529
O6	O	1.186731	-0.345883	-0.499431
O7	O	1.076255	-0.427475	-0.274351
O8	O	0.981415	-0.223268	-0.387393
O9	O	1.190349	-0.432327	-0.407284
O10	O	1.067862	-0.226943	-0.488115
O11	O	0.986190	-0.337356	-0.265777
O12	O	0.872146	-0.332443	-0.387355
O13	O	0.989896	-0.423690	-0.620980
O14	O	0.875802	-0.418839	-0.488047
O15	O	1.072687	-0.340970	-0.621009
O16	O	1.081080	-0.541502	-0.407245
O17	O	0.994671	-0.537779	-0.499363
C18	C	0.848444	-0.374549	-0.436431
C19	C	0.770236	-0.371219	-0.432558
C20	C	0.327811	-0.350090	-0.408027
C21	C	0.401296	-0.353224	-0.411670
C22	C	0.439960	-0.399846	-0.465839
C23	C	0.405137	-0.443333	-0.516373
C24	C	0.331653	-0.440196	-0.512733
C25	C	0.661929	-0.411569	-0.479452
C26	C	0.735417	-0.414704	-0.483087
C27	C	0.731571	-0.324593	-0.378384
C28	C	0.658087	-0.321463	-0.374746
C29	C	0.623269	-0.364948	-0.425283
C30	C	0.515074	-0.403051	-0.469563
C31	C	0.548157	-0.361738	-0.421562
C32	C	1.038969	-0.565169	-0.454584
C33	C	1.042332	-0.643373	-0.458487
C34	C	0.998945	-0.678264	-0.407851
C35	C	1.002112	-0.751745	-0.411522
C36	C	1.048664	-0.790334	-0.465834
C37	C	1.092056	-0.755438	-0.516473
C38	C	1.088891	-0.681958	-0.512798
C39	C	1.060471	-1.012287	-0.479554
C40	C	1.063631	-1.085772	-0.483228
C41	C	0.973688	-1.082074	-0.378274
C42	C	0.970524	-1.008593	-0.374607
C43	C	1.013919	-0.973704	-0.425243
C44	C	1.051901	-0.865443	-0.469590
C45	C	1.010685	-0.898596	-0.421483
C46	C	1.214784	-0.390228	-0.454663
C47	C	1.292992	-0.393576	-0.458556
C48	C	1.031297	-0.382323	-0.650273
C49	C	1.031314	-0.382302	-0.737523
C50	C	1.023534	-0.198864	-0.436457
C51	C	1.020243	-0.120663	-0.432591
C52	C	1.074425	-0.339226	-0.778529
C53	C	1.074433	-0.339202	-0.860509
C54	C	1.031333	-0.382260	-0.901481
C55	C	0.988217	-0.425338	-0.860469
C56	C	0.988206	-0.425357	-0.778490
C57	C	0.988243	-0.425297	-1.031338
C58	C	0.988255	-0.425279	-1.113322
C59	C	1.074470	-0.339143	-1.113357
C60	C	1.074459	-0.339161	-1.031378
C61	C	1.031344	-0.382241	-0.990372
C62	C	1.031255	-0.382374	-0.241581
C63	C	1.031366	-0.382203	-0.154329
H64	H	0.436623	-0.481291	-0.560482
O65	O	0.959924	-0.785709	-0.362450
C66	C	0.868465	-0.864657	-0.351247
C67	C	0.916218	-0.826252	-0.406910
H68	H	0.833106	-0.897433	-0.387170
H69	H	0.902222	-0.900485	-0.313562
H70	H	0.834679	-0.824437	-0.311791
H71	H	0.950012	-0.866421	-0.446416
H72	H	0.882420	-0.790411	-0.444541
H73	H	1.129962	-0.786863	-0.560693
H74	H	1.089802	-0.896870	-0.513813
O75	O	1.116311	-0.297190	-1.153089
C76	C	1.145410	-0.178964	-1.173976
C77	C	1.097988	-0.226391	-1.128911
H78	H	1.130602	-0.121712	-1.154457
H79	H	1.202672	-0.193697	-1.161279
H80	H	1.138029	-0.186374	-1.239606
H81	H	1.105306	-0.219005	-1.063269
H82	H	1.040743	-0.211646	-1.141673
O83	O	0.435087	-0.311053	-0.362475
C84	C	0.456030	-0.277666	-0.228425
C85	C	0.417736	-0.325482	-0.284050
H86	H	0.442005	-0.289304	-0.165006
H87	H	0.515201	-0.287910	-0.240262
H88	H	0.439196	-0.220341	-0.238834
H89	H	0.434513	-0.382824	-0.273674
H90	H	0.358573	-0.315177	-0.272201
O91	O	1.116379	-0.297342	-0.900223
C92	C	1.201867	-0.211884	-0.891604
C93	C	1.154407	-0.259271	-0.846532
H94	H	1.232614	-0.181080	-0.848213
H95	H	1.240066	-0.245721	-0.933395
H96	H	1.168012	-0.173730	-0.926577
H97	H	1.188206	-0.297433	-0.811515
H98	H	1.116205	-0.225390	-0.804788
O99	O	0.946350	-0.467138	-0.738530
C100	C	0.908153	-0.505371	-0.612223
C101	C	0.955582	-0.458010	-0.657377
H102	H	0.915612	-0.498018	-0.546603
H103	H	0.850884	-0.490581	-0.624844
H104	H	0.922890	-0.562619	-0.631806
H105	H	0.940908	-0.400747	-0.637821
H106	H	1.012839	-0.472860	-0.644754
O107	O	0.620636	-0.276109	-0.322106
C108	C	0.624579	-0.187091	-0.218610
C109	C	0.667077	-0.238408	-0.278202
H110	H	0.662109	-0.156606	-0.183087
H111	H	0.588657	-0.148832	-0.251157
H112	H	0.591502	-0.217886	-0.177431
H113	H	0.700195	-0.207671	-0.319397
H114	H	0.702955	-0.276667	-0.245605
H115	H	1.124223	-0.653551	-0.554031
O116	O	0.946320	-0.467120	-1.153000
C117	C	0.860828	-0.552582	-1.144322
C118	C	0.908273	-0.505218	-1.099289
H119	H	0.830065	-0.583407	-1.100917
H120	H	0.822642	-0.518724	-1.179252
H121	H	0.894695	-0.590716	-1.186150
H122	H	0.874462	-0.467077	-1.057421
H123	H	0.946462	-0.539120	-1.064410
H124	H	0.953123	-0.460365	-0.997952
O125	O	0.946388	-0.467263	-0.900188
C126	C	0.917300	-0.585475	-0.929520
C127	C	0.964706	-0.538073	-0.884483
H128	H	0.932103	-0.642736	-0.916852
H129	H	0.860032	-0.570753	-0.909951
H130	H	0.924701	-0.578027	-0.995150
H131	H	0.957367	-0.545496	-0.818844
H132	H	1.021957	-0.552807	-0.904116
O133	O	0.772870	-0.460009	-0.535784
C134	C	0.768935	-0.549076	-0.639229
C135	C	0.726435	-0.497793	-0.579605
H136	H	0.731411	-0.579649	-0.674663
H137	H	0.801977	-0.518320	-0.680488
H138	H	0.804892	-0.587263	-0.606633
H139	H	0.690440	-0.459595	-0.612135
H140	H	0.693439	-0.528595	-0.538348
H141	H	0.759927	-0.289190	-0.337241
H142	H	0.303305	-0.475605	-0.553881
O143	O	0.290230	-0.304902	-0.355322
C144	C	0.206796	-0.291768	-0.244794
C145	C	0.249324	-0.343024	-0.304425
H146	H	0.173701	-0.322568	-0.203639
H147	H	0.244279	-0.261239	-0.209249
H148	H	0.170885	-0.253539	-0.277390
H149	H	0.285237	-0.381295	-0.271891
H150	H	0.211801	-0.373502	-0.339968
H151	H	0.633590	-0.446979	-0.520600
H152	H	1.109560	-0.304104	-0.998021
H153	H	0.932618	-0.977176	-0.330381
H154	H	0.516673	-0.323776	-0.377461
H155	H	0.961034	-0.646850	-0.363627
O156	O	0.552601	-0.448266	-0.522284
C157	C	0.576569	-0.483570	-0.658555
C158	C	0.534033	-0.432312	-0.598933
H159	H	0.561562	-0.470699	-0.720538
H160	H	0.635077	-0.478333	-0.652540
H161	H	0.564524	-0.539666	-0.646714
H162	H	0.546019	-0.376195	-0.610736
H163	H	0.475537	-0.437610	-0.604961
H164	H	0.938359	-1.110489	-0.337049
O165	O	1.108902	-1.123152	-0.536027
C166	C	1.197717	-1.119067	-0.639805
C167	C	1.146508	-1.076650	-0.580027
H168	H	1.228125	-1.081488	-0.675406
H169	H	1.236058	-1.155030	-0.607413
H170	H	1.166839	-1.152092	-0.680891
H171	H	1.177328	-1.043585	-0.538926
H172	H	1.108167	-1.040731	-0.612470
O173	O	1.102518	-0.978323	-0.528777
C174	C	1.108359	-0.895727	-0.631124
C175	C	1.060658	-0.934133	-0.575405
H176	H	1.074535	-0.860002	-0.668849
H177	H	1.143681	-0.862844	-0.595275
H178	H	1.142185	-0.935949	-0.670538
H179	H	1.026789	-0.893960	-0.535980
H180	H	1.025384	-0.967029	-0.611302
O181	O	1.116271	-0.297461	-0.738613
C182	C	1.154427	-0.259273	-0.612336
C183	C	1.107017	-0.306623	-0.657442
H184	H	1.146950	-0.266653	-0.546700
H185	H	1.211702	-0.274050	-0.631834
H186	H	1.139688	-0.202019	-0.625086
H187	H	1.121693	-0.363890	-0.644714
H188	H	1.049754	-0.291786	-0.637937
O189	O	0.965540	-0.861150	-0.368621
C190	C	0.930447	-0.837353	-0.232258
C191	C	0.981634	-0.879801	-0.292035
H192	H	0.943432	-0.852426	-0.170326
H193	H	0.935644	-0.778834	-0.238264
H194	H	0.874333	-0.849408	-0.243940
H195	H	1.037770	-0.867805	-0.280391
H196	H	0.976377	-0.938307	-0.286014
