data_functionalizedCrystal
_audit_creation_method	'MofGen! by Chris Wilmer'
_symmetry_space_group_name_H-M	'P1'
_symmetry_Int_Tables_number	1
_symmetry_cell_setting	triclinic
loop_
_symmetry_equiv_pos_as_xyz
  x,y,z
_cell_length_a	20.016444
_cell_length_b	15.698487
_cell_length_c	20.016444
_cell_angle_alpha	59.997326
_cell_angle_beta	89.995381
_cell_angle_gamma	60.000132
loop_
_atom_site_label
_atom_site_type_symbol
_atom_site_fract_x
_atom_site_fract_y
_atom_site_fract_z
Zr1	Zr	0.643611	0.932412	-0.087709
O2	O	0.536942	1.110125	-0.194380
O3	O	0.676308	0.754701	-0.055009
O4	O	0.676313	0.932418	-0.194388
O5	O	0.536935	0.932403	0.054943
O6	O	0.786255	0.932420	-0.194394
O7	O	0.536936	0.932408	-0.055001
O8	O	0.786245	0.614516	0.054929
O9	O	0.536944	1.250306	-0.194380
O10	O	0.772304	0.827797	-0.041067
O11	O	0.690255	0.827791	0.040988
O12	O	0.690261	1.037030	-0.123113
O13	O	0.608212	1.037024	-0.041058
Zr14	Zr	0.818953	0.932407	0.087630
Zr15	Zr	0.818955	0.932415	-0.087719
Zr16	Zr	0.643608	0.932403	0.087640
Zr17	Zr	0.643615	1.155984	-0.087709
Zr18	Zr	0.818948	0.708834	0.087629
O19	O	0.786255	1.110118	0.054930
O20	O	0.786259	1.110130	-0.194394
O21	O	0.536938	1.110113	0.054944
O22	O	0.925622	0.754693	0.194300
O23	O	0.925625	0.754705	-0.055023
O24	O	0.676305	0.754688	0.194314
O25	O	0.925629	0.932416	-0.055023
O26	O	0.786250	0.932401	0.194308
O27	O	0.676308	0.932399	0.194315
O28	O	0.925627	0.932410	0.054922
O29	O	0.676320	1.250309	-0.194388
O30	O	0.786244	0.614510	0.194308
O31	O	0.925619	0.614512	0.194300
O32	O	0.925621	0.614519	0.054921
O33	O	0.536943	1.250299	-0.055001
O34	O	0.676318	1.250302	-0.055009
O35	O	0.772302	0.827788	0.123033
O36	O	0.854351	0.827794	0.040978
O37	O	0.772308	1.037027	-0.041067
O38	O	0.690259	1.037022	0.040988
C39	C	0.511953	0.932405	-0.000028
C40	C	0.437514	0.932404	-0.000023
C41	C	0.731276	0.652754	-0.000040
C42	C	0.731274	0.557842	-0.000040
C43	C	0.196296	0.932415	0.060525
C44	C	0.266241	0.932410	0.060532
C45	C	0.266264	0.932399	-0.060608
C46	C	0.196323	0.932396	-0.060611
C47	C	0.161339	0.932410	-0.000045
C48	C	0.301225	0.932408	-0.000034
C49	C	0.377062	0.932403	-0.000027
C50	C	0.085497	0.932413	-0.000052
C51	C	0.731274	0.480761	-0.000038
C52	C	0.731280	0.384055	-0.000037
C53	C	0.950611	0.932413	-0.000052
C54	C	1.025049	0.932415	-0.000056
C55	C	0.731284	0.932420	-0.219375
C56	C	0.731285	0.932424	-0.293815
C57	C	0.731287	1.212064	-0.000039
C58	C	0.731289	1.306976	-0.000039
C59	C	0.791853	0.932410	-0.465074
C60	C	0.791853	0.932402	-0.535014
C61	C	0.670708	0.932405	-0.535000
C62	C	0.670711	0.932405	-0.465057
C63	C	0.731283	0.932413	-0.430099
C64	C	0.731280	0.932405	-0.569981
C65	C	0.731280	0.932397	-0.645813
C66	C	0.731284	0.932419	-0.354261
C67	C	0.731279	0.932398	0.219295
C68	C	0.731278	0.932395	0.293735
C69	C	0.950605	0.652758	-0.000052
C70	C	1.025041	0.557848	-0.000057
C71	C	0.731273	0.652743	0.219295
C72	C	0.731270	0.557828	0.293735
C73	C	0.950602	0.652748	0.219282
C74	C	1.025038	0.557833	0.293718
C75	C	0.511961	1.212071	-0.219362
C76	C	0.437526	1.306985	-0.293798
C77	C	0.511958	1.212060	-0.000027
C78	C	0.437522	1.306971	-0.000023
C79	C	0.731290	1.212075	-0.219374
C80	C	0.731293	1.306991	-0.293814
C81	C	1.017170	0.513278	-0.042893
C82	C	1.087104	0.424111	-0.042914
C83	C	1.164909	0.379510	-0.000092
C84	C	1.172779	0.424089	0.042745
C85	C	1.102846	0.513260	0.042761
C86	C	0.774097	0.513253	0.371527
C87	C	0.774091	0.424082	0.441478
C88	C	0.731263	0.379481	0.433635
C89	C	0.688431	0.424064	0.355835
C90	C	0.688433	0.513240	0.285885
C91	C	1.102829	0.513263	0.285842
C92	C	1.172776	0.424093	0.355776
C93	C	1.164929	0.379489	0.433585
C94	C	1.087129	0.424068	0.441459
C95	C	1.017184	0.513242	0.371526
C96	C	0.359734	1.351566	-0.285922
C97	C	0.289787	1.440764	-0.355856
C98	C	0.297634	1.485373	-0.433665
C99	C	0.375434	1.440788	-0.441539
C100	C	0.445379	1.351598	-0.371606
C101	C	0.445394	1.351550	0.042806
C102	C	0.375460	1.440741	0.042807
C103	C	0.297655	1.485345	-0.000016
C104	C	0.289784	1.440762	-0.042851
C105	C	0.359718	1.351579	-0.042856
C106	C	0.774129	1.351563	-0.285945
C107	C	0.774148	1.440735	-0.355883
C108	C	0.731325	1.485339	-0.433689
C109	C	0.688487	1.440757	-0.441557
C110	C	0.688474	1.351581	-0.371620
H111	H	0.167815	0.932424	0.109842
H112	H	0.621388	0.932403	-0.436577
Br113	Br	1.076493	0.363521	0.547064
Br114	Br	0.550951	1.291100	-0.382310
H115	H	0.653561	0.549521	0.222546
Br116	Br	0.832225	0.363593	0.547054
H117	H	0.808973	0.549557	0.377929
Br118	Br	1.076404	0.363628	-0.101053
Br119	Br	0.313686	0.932409	0.142740
H120	H	0.508740	1.315240	0.077684
Br121	Br	0.874059	0.932417	-0.417631
Br122	Br	0.313743	0.932384	-0.142802
H123	H	1.109266	0.549537	0.077648
H124	H	0.731342	1.557952	-0.490629
Br125	Br	0.349020	1.291084	-0.100983
Br126	Br	0.630366	1.501314	-0.547157
H127	H	0.240674	1.557996	-0.490602
Br128	Br	0.148881	0.932375	-0.142813
Br129	Br	0.386160	1.501224	0.100946
Br130	Br	0.630326	1.291110	-0.382314
Br131	Br	0.874061	0.932389	-0.582475
H132	H	0.953845	0.549519	0.377951
Br133	Br	0.349062	1.291041	-0.180333
H134	H	0.731268	0.306868	0.490599
H135	H	0.226446	1.477049	-0.349428
Br136	Br	0.588504	0.932397	-0.582447
H137	H	0.653562	0.387737	0.349461
Br138	Br	1.113502	0.573784	0.180253
Br139	Br	1.278351	0.363610	0.345070
Br140	Br	0.832253	1.291050	-0.180360
H141	H	1.221889	0.306877	0.490522
Br142	Br	0.386070	1.501339	-0.547144
H143	H	0.953823	0.549591	-0.077773
Br144	Br	0.202752	1.606382	-0.000001
Br145	Br	1.259811	0.258490	-0.000121
H146	H	0.226426	1.477093	-0.077717
H147	H	0.809030	1.477024	-0.349461
Br148	Br	1.278378	0.363542	0.100859
