data_functionalizedCrystal
_audit_creation_method	'MofGen! by Chris Wilmer'
_symmetry_space_group_name_H-M	'P1'
_symmetry_Int_Tables_number	1
_symmetry_cell_setting	triclinic
loop_
_symmetry_equiv_pos_as_xyz
  x,y,z
_cell_length_a	14.519709
_cell_length_b	10.540539
_cell_length_c	12.996460
_cell_angle_alpha	89.996006
_cell_angle_beta	90.000034
_cell_angle_gamma	84.102818
loop_
_atom_site_label
_atom_site_type_symbol
_atom_site_fract_x
_atom_site_fract_y
_atom_site_fract_z
O1	O	1.224765	0.166400	-0.085428
O2	O	0.956394	0.185995	-0.085459
O3	O	1.096702	-0.008571	-0.085441
O4	O	1.084457	0.360967	-0.085445
O5	O	1.096688	-0.008582	0.085693
O6	O	0.956379	0.185985	0.085675
O7	O	1.224751	0.166389	0.085706
Cu8	Cu	1.090563	0.176186	0.101316
Cu9	Cu	1.090581	0.176199	-0.101069
O10	O	1.084442	0.360956	0.085689
C11	C	0.922022	0.185077	0.000104
C12	C	0.819626	0.182340	0.000092
C13	C	0.444676	0.172265	0.000139
C14	C	0.548999	0.175063	0.000126
C15	C	0.632148	0.177303	0.000115
C16	C	0.736477	0.180101	0.000103
C17	C	1.095777	-0.055870	0.000124
C18	C	1.093029	-0.196790	0.000118
C19	C	0.987750	-0.379142	-0.000278
C20	C	0.990535	-0.232553	0.000107
C21	C	1.142346	-0.258958	0.097849
C22	C	1.138848	-0.405467	0.097931
C23	C	1.140949	-0.405994	-0.096680
C24	C	1.141893	-0.259021	-0.097972
C25	C	1.259123	0.167308	0.000141
C26	C	1.361519	0.170044	0.000146
C27	C	1.085368	0.408255	0.000121
C28	C	1.088115	0.549175	0.000120
N29	N	1.090558	0.176176	0.243664
N30	N	1.090594	0.176198	-0.243416
C31	C	1.090580	0.176200	0.663478
C32	C	1.090571	0.176198	0.546673
C33	C	1.090569	0.176189	0.453574
C34	C	1.090560	0.176185	0.336762
H35	H	0.951730	-0.189549	-0.069951
C36	C	1.096044	-0.200966	0.196091
H37	H	1.046667	-0.138885	0.177757
H38	H	1.140340	-0.161848	0.235638
H39	H	1.072539	-0.266399	0.235477
C40	C	1.089585	-0.443077	0.196601
H41	H	1.087020	-0.532770	0.197523
H42	H	1.028501	-0.401071	0.198111
H43	H	1.122856	-0.418606	0.255047
H44	H	1.217614	-0.237372	0.101491
H45	H	1.216620	-0.235562	-0.103864
H46	H	1.212560	-0.454188	0.102373
C47	C	1.096144	-0.448143	-0.196748
H48	H	1.044790	-0.493480	-0.180424
H49	H	1.140289	-0.501820	-0.234902
H50	H	1.075686	-0.375118	-0.236643
H51	H	0.951445	-0.190402	0.070273
C52	C	1.093220	-0.203215	-0.195647
H53	H	1.043331	-0.142238	-0.176739
H54	H	1.070134	-0.269818	-0.234022
H55	H	1.136171	-0.163129	-0.236431
H56	H	1.214980	-0.453975	-0.097328
C57	C	0.933053	-0.417205	-0.094953
H58	H	0.872682	-0.372902	-0.093757
H59	H	0.928604	-0.506476	-0.093661
H60	H	0.964125	-0.395696	-0.155859
C61	C	0.933268	-0.419381	0.093861
H62	H	0.971422	-0.479673	0.133409
H63	H	0.879938	-0.456711	0.071388
H64	H	0.914849	-0.346576	0.134880
