data_functionalizedCrystal
_audit_creation_method	'MofGen! by Chris Wilmer'
_symmetry_space_group_name_H-M	'P1'
_symmetry_Int_Tables_number	1
_symmetry_cell_setting	triclinic
loop_
_symmetry_equiv_pos_as_xyz
  x,y,z
_cell_length_a	17.019383
_cell_length_b	16.098538
_cell_length_c	14.971486
_cell_angle_alpha	92.725922
_cell_angle_beta	96.493178
_cell_angle_gamma	96.605849
loop_
_atom_site_label
_atom_site_type_symbol
_atom_site_fract_x
_atom_site_fract_y
_atom_site_fract_z
O1	O	1.054150	0.144783	-0.105654
O2	O	1.554150	0.644783	0.394346
O3	O	0.823660	0.128271	-0.121125
O4	O	1.323660	0.628271	0.378875
O5	O	0.945082	0.136964	0.016851
O6	O	1.445082	0.636964	0.516851
O7	O	0.932728	0.136091	-0.243630
O8	O	1.432728	0.636091	0.256370
O9	O	0.937989	-0.002057	0.008822
O10	O	1.437989	0.497943	0.508822
O11	O	0.816567	-0.010750	-0.129153
O12	O	1.316567	0.489250	0.370847
O13	O	1.047057	0.005763	-0.113683
O14	O	1.547057	0.505763	0.386317
Zn15	Zn	0.930686	-0.024566	-0.122693
Zn16	Zn	1.430686	0.475434	0.377307
Zn17	Zn	0.940031	0.158600	-0.112115
Zn18	Zn	1.440031	0.658600	0.387885
O19	O	0.925635	-0.002930	-0.251658
O20	O	1.425635	0.497070	0.248342
C21	C	0.790617	0.056648	-0.124708
C22	C	1.290617	0.556648	0.375292
C23	C	0.702725	0.050351	-0.123414
C24	C	1.202725	0.550351	0.376586
C25	C	0.665292	0.123167	-0.118433
C26	C	1.165292	0.623167	0.381567
C27	C	0.582707	0.117238	-0.117231
C28	C	1.082707	0.617238	0.382769
C29	C	0.537556	0.038493	-0.121006
C30	C	1.037556	0.538493	0.378994
C31	C	0.574994	-0.034329	-0.125991
C32	C	1.074994	0.465671	0.374009
C33	C	0.657578	-0.028399	-0.127198
C34	C	1.157578	0.471601	0.372802
C35	C	0.288014	0.016798	-0.117585
C36	C	0.788014	0.516798	0.382415
C37	C	0.205425	0.010874	-0.116375
C38	C	0.705425	0.510874	0.383625
C39	C	0.213143	0.162441	-0.107617
C40	C	0.713143	0.662441	0.392383
C41	C	0.295728	0.168364	-0.108820
C42	C	0.795728	0.668364	0.391180
C43	C	0.333159	0.095543	-0.113809
C44	C	0.833159	0.595543	0.386191
C45	C	0.453141	0.032431	-0.119776
C46	C	0.953141	0.532431	0.380224
C47	C	0.417572	0.101606	-0.115046
C48	C	0.917572	0.601606	0.384954
N49	N	0.924314	-0.149571	-0.129911
N50	N	1.424314	0.350429	0.370089
C51	C	0.975869	-0.189466	-0.071369
C52	C	1.475869	0.310534	0.428631
C53	C	0.971419	-0.276973	-0.076428
C54	C	1.471419	0.223027	0.423572
C55	C	0.915417	-0.324585	-0.140032
C56	C	1.415417	0.175415	0.359968
C57	C	0.863856	-0.284685	-0.198577
C58	C	1.363856	0.215315	0.301423
C59	C	0.868303	-0.197179	-0.193514
C60	C	1.368303	0.302821	0.306486
C61	C	0.899296	-0.588989	-0.158371
C62	C	1.399296	-0.088989	0.341629
C63	C	0.894854	-0.676500	-0.163431
C64	C	1.394854	-0.176500	0.336569
C65	C	1.002417	-0.668783	-0.041280
C66	C	1.502417	-0.168783	0.458720
C67	C	1.006862	-0.581275	-0.036226
C68	C	1.506862	-0.081275	0.463774
C69	C	0.955299	-0.541383	-0.094768
C70	C	1.455299	-0.041383	0.405232
C71	C	0.910868	-0.414032	-0.145206
C72	C	1.410868	0.085968	0.354794
C73	C	0.959844	-0.451938	-0.089589
C74	C	1.459844	0.048062	0.410411
C75	C	1.080100	0.077388	-0.110099
C76	C	1.580100	0.577388	0.389901
C77	C	1.167992	0.083690	-0.111393
C78	C	1.667992	0.583690	0.388607
C79	C	0.940983	0.067414	0.046157
C80	C	1.440983	0.567414	0.546157
C81	C	0.939328	0.067296	0.145444
C82	C	1.439328	0.567296	0.645444
N83	N	0.946410	0.283606	-0.104889
N84	N	1.446410	0.783606	0.395111
C85	C	0.929734	0.066621	-0.280965
C86	C	1.429734	0.566621	0.219035
C87	C	0.931390	0.066745	-0.380251
C88	C	1.431390	0.566745	0.119749
C89	C	1.010660	0.072406	0.203137
C90	C	1.510660	0.572406	0.703137
C91	C	1.009100	0.072302	0.296427
C92	C	1.509100	0.572302	0.796427
C93	C	0.936206	0.067083	0.332021
C94	C	1.436206	0.567083	0.832021
C95	C	0.864868	0.061976	0.274321
C96	C	1.364868	0.561976	0.774321
C97	C	0.866430	0.062085	0.181033
C98	C	1.366430	0.562085	0.681033
C99	C	0.861619	0.061746	0.468762
C100	C	1.361619	0.561746	0.968762
C101	C	0.860057	0.061635	0.562056
C102	C	1.360057	0.561635	1.062056
C103	C	1.004289	0.071963	0.584156
C104	C	1.504289	0.571963	1.084156
C105	C	1.005851	0.072073	0.490868
C106	C	1.505851	0.572073	0.990868
C107	C	0.934512	0.066964	0.433174
C108	C	1.434512	0.566964	0.933174
H109	H	0.454337	0.165719	-0.111978
H110	H	0.954337	0.665719	0.388022
H111	H	1.067186	0.076461	0.343397
H112	H	1.567186	0.576461	0.843397
O113	O	0.789261	0.056425	0.596665
O114	O	1.289261	0.556425	1.096665
C115	C	0.780368	-0.015937	0.645828
C116	C	1.280368	0.484063	1.145828
H117	H	0.819187	-0.063302	0.621082
H118	H	1.319187	0.436698	1.121082
H119	H	0.715333	-0.044666	0.635718
H120	H	1.215333	0.455334	1.135718
H121	H	0.799393	0.001642	0.720438
H122	H	1.299393	0.501642	1.220438
O123	O	0.709220	0.199613	-0.114891
O124	O	1.209220	0.699613	0.385109
C125	C	0.748317	0.206950	-0.192803
C126	C	1.248317	0.706950	0.307197
H127	H	0.754378	0.141830	-0.222608
H128	H	1.254378	0.641830	0.277392
H129	H	0.810020	0.243336	-0.174379
H130	H	1.310020	0.743336	0.325621
H131	H	0.712169	0.241617	-0.244423
H132	H	1.212169	0.741617	0.255577
O133	O	0.546477	0.188055	-0.112340
O134	O	1.046477	0.688055	0.387660
C135	C	0.604035	0.258828	-0.109280
C136	C	1.104035	0.758828	0.390720
H137	H	0.665020	0.241064	-0.083112
H138	H	1.165020	0.741064	0.416888
H139	H	0.587855	0.310466	-0.062437
H140	H	1.087855	0.810466	0.437563
H141	H	0.605772	0.282184	-0.179816
H142	H	1.105772	0.782184	0.320184
H143	H	1.065207	0.076316	0.461890
H144	H	1.565207	0.576316	0.961890
H145	H	1.021475	-0.150705	-0.019579
H146	H	1.521475	0.349295	0.480421
O147	O	0.339463	0.244924	-0.105183
O148	O	0.839463	0.744924	0.394817
C149	C	0.288717	0.307924	-0.100501
C150	C	0.788717	0.807924	0.399499
H151	H	0.225470	0.281255	-0.129249
H152	H	0.725470	0.781255	0.370751
H153	H	0.310299	0.362289	-0.141203
H154	H	0.810299	0.862289	0.358797
H155	H	0.289347	0.331172	-0.027267
H156	H	0.789347	0.831172	0.472733
O157	O	0.693961	-0.099110	-0.132192
O158	O	1.193961	0.400890	0.367808
C159	C	0.732628	-0.100837	-0.210606
C160	C	1.232628	0.399163	0.289394
H161	H	0.703717	-0.060062	-0.261901
H162	H	1.203717	0.439938	0.238099
H163	H	0.727171	-0.168008	-0.240494
H164	H	1.227171	0.331992	0.259506
H165	H	0.798262	-0.075842	-0.192833
H166	H	1.298262	0.424158	0.307167
O167	O	1.021592	-0.315590	-0.019528
O168	O	1.521592	0.184410	0.480472
C169	C	1.071968	-0.254804	0.037702
C170	C	1.571968	0.245196	0.537702
H171	H	1.076054	-0.192354	0.004644
H172	H	1.576054	0.307646	0.504644
H173	H	1.133898	-0.275541	0.050165
H174	H	1.633898	0.224459	0.550165
H175	H	1.046689	-0.247362	0.104575
H176	H	1.546689	0.252638	0.604575
O177	O	1.014125	-0.405626	-0.027734
O178	O	1.514125	0.094374	0.472266
C179	C	0.974222	-0.358111	0.030187
C180	C	1.474222	0.141889	0.530187
H181	H	0.912981	-0.349438	-0.004993
H182	H	1.412981	0.150562	0.495007
H183	H	1.010375	-0.294207	0.048093
H184	H	1.510375	0.205793	0.548093
H185	H	0.967044	-0.392263	0.094296
H186	H	1.467044	0.107737	0.594296
H187	H	1.044397	-0.701271	0.006382
H188	H	1.544397	-0.201271	0.506382
H189	H	0.849248	-0.715262	-0.215230
H190	H	1.349248	-0.215262	0.284770
O191	O	0.161678	-0.065690	-0.120089
O192	O	0.661678	0.434310	0.379911
C193	C	0.212425	-0.128693	-0.124729
C194	C	0.712425	0.371307	0.375271
H195	H	0.269174	-0.102486	-0.152629
H196	H	0.769174	0.397514	0.347371
H197	H	0.180878	-0.183760	-0.170866
H198	H	0.680878	0.316240	0.329134
H199	H	0.228257	-0.150781	-0.054448
H200	H	0.728257	0.349219	0.445552
H201	H	0.318480	-0.042498	-0.121642
H202	H	0.818480	0.457502	0.378358
H203	H	0.865271	-0.452804	-0.196996
H204	H	1.365271	0.047196	0.303004
H205	H	0.182658	0.221728	-0.103557
H206	H	0.682658	0.721728	0.396443
H207	H	1.062376	0.076126	0.631135
H208	H	1.562376	0.576126	1.131135
H209	H	1.052464	-0.542511	0.015566
H210	H	1.552464	-0.042511	0.515566
H211	H	0.416370	-0.031684	-0.122846
H212	H	0.916370	0.468316	0.377154
O213	O	0.849177	-0.550376	-0.215334
O214	O	1.349177	-0.050376	0.284666
C215	C	0.798786	-0.611168	-0.272544
C216	C	1.298786	-0.111168	0.227456
H217	H	0.828080	-0.671209	-0.277008
H218	H	1.328080	-0.171209	0.222992
H219	H	0.788055	-0.586739	-0.342571
H220	H	1.288055	-0.086739	0.157429
H221	H	0.739475	-0.624712	-0.244316
H222	H	1.239475	-0.124712	0.255684
O223	O	1.081541	0.077520	0.168716
O224	O	1.581541	0.577520	0.668716
C225	C	1.144165	0.081989	0.239646
C226	C	1.644165	0.581989	0.739646
H227	H	1.123250	0.106714	0.304422
H228	H	1.623250	0.606714	0.804422
H229	H	1.197110	0.125999	0.222752
H230	H	1.697110	0.625999	0.722752
H231	H	1.162773	0.016872	0.249119
H232	H	1.662773	0.516872	0.749119
H233	H	0.803528	0.057588	0.421789
H234	H	1.303528	0.557588	0.921789
H235	H	0.538225	-0.098445	-0.129069
H236	H	1.038225	0.401555	0.370931
O237	O	0.794114	0.057022	0.309008
O238	O	1.294114	0.557022	0.809008
C239	C	0.792562	0.128657	0.366445
C240	C	1.292562	0.628657	0.866445
H241	H	0.856166	0.157130	0.391401
H242	H	1.356166	0.657130	0.891401
H243	H	0.760118	0.110199	0.426434
H244	H	1.260118	0.610199	0.926434
H245	H	0.760148	0.176569	0.327948
H246	H	1.260148	0.676569	0.827948
H247	H	0.818253	-0.323456	-0.250362
H248	H	1.318253	0.176544	0.249638
O249	O	0.818188	-0.158555	-0.250478
O250	O	1.318188	0.341445	0.249522
C251	C	0.767792	-0.219341	-0.307689
C252	C	1.267792	0.280659	0.192311
H253	H	0.797082	-0.279384	-0.312158
H254	H	1.297082	0.220616	0.187842
H255	H	0.757062	-0.194908	-0.377715
H256	H	1.257062	0.305092	0.122285
H257	H	0.708482	-0.232882	-0.279459
H258	H	1.208482	0.267118	0.220541
O259	O	0.797062	0.057079	0.125112
O260	O	1.297062	0.557079	0.625112
C261	C	0.732389	0.052471	0.176531
C262	C	1.232389	0.552471	0.676531
H263	H	0.751072	0.027583	0.244750
H264	H	1.251072	0.527583	0.744750
H265	H	0.680342	0.008533	0.139517
H266	H	1.180342	0.508533	0.639517
H267	H	0.713457	0.117568	0.186904
H268	H	1.213457	0.617568	0.686904
