data_functionalizedCrystal
_audit_creation_method	'MofGen! by Chris Wilmer'
_symmetry_space_group_name_H-M	'P1'
_symmetry_Int_Tables_number	1
_symmetry_cell_setting	triclinic
loop_
_symmetry_equiv_pos_as_xyz
  x,y,z
_cell_length_a	16.120297
_cell_length_b	10.686220
_cell_length_c	10.685194
_cell_angle_alpha	80.930244
_cell_angle_beta	88.279983
_cell_angle_gamma	82.988280
loop_
_atom_site_label
_atom_site_type_symbol
_atom_site_fract_x
_atom_site_fract_y
_atom_site_fract_z
Zn1	Zn	-0.357061	-1.872161	-0.386012
Zn2	Zn	-0.207728	-1.868203	-0.585890
Zn3	Zn	-0.227583	-1.670662	-0.391589
Zn4	Zn	-0.357011	-1.643648	-0.614535
O5	O	-0.287346	-1.763668	-0.494506
O6	O	-0.328964	-2.049941	-0.398205
O7	O	-0.093700	-1.851648	-0.550462
O8	O	-0.253089	-1.710353	-0.213896
O9	O	-0.219250	-2.047034	-0.545055
O10	O	-0.348216	-1.858393	-0.209799
O11	O	-0.108287	-1.706515	-0.407710
O12	O	-0.253040	-1.488773	-0.435484
O13	O	-0.473680	-1.664311	-0.593874
O14	O	-0.348131	-1.468926	-0.599282
O15	O	-0.473717	-1.832198	-0.425980
O16	O	-0.219201	-1.825454	-0.766643
O17	O	-0.328878	-1.660474	-0.787688
C18	C	-0.302735	-1.432617	-0.521097
C19	C	-0.309337	-1.290987	-0.532505
C20	C	-0.504794	-1.745683	-0.512500
C21	C	-0.597457	-1.738018	-0.520168
C22	C	-0.271896	-1.739636	-0.823047
C23	C	-0.265309	-1.729469	-0.963590
C24	C	-0.767117	-1.723981	-0.534143
C25	C	-0.808433	-1.803635	-0.454471
C26	C	-0.902837	-1.795824	-0.462246
C27	C	-0.672704	-1.731790	-0.526369
C28	C	-0.070745	-1.781664	-0.476486
C29	C	0.021912	-1.789601	-0.468442
C30	C	-0.271898	-2.096013	-0.467813
C31	C	-0.265314	-2.237638	-0.456437
C32	C	-0.302873	-1.787828	-0.164682
C33	C	-0.309489	-1.798123	-0.024131
H34	H	-0.802644	-1.649927	-0.608188
C35	C	-0.367399	-1.888048	-0.948907
C36	C	-0.418578	-1.967577	-1.018925
C37	C	-0.476489	-2.057504	-0.943693
C38	C	-0.483221	-2.067900	-0.798442
C39	C	-0.432040	-1.988368	-0.728416
C40	C	-0.374129	-1.898442	-0.803649
H41	H	-0.413597	-1.959884	-1.126456
H42	H	-0.514377	-2.116379	-0.995531
H43	H	-0.526090	-2.134469	-0.742750
H44	H	-0.437021	-1.996062	-0.620886
H45	H	-0.336242	-1.839567	-0.751810
C46	C	-0.207396	-1.639540	-1.038819
C47	C	-0.135196	-1.693745	-1.119774
C48	C	-0.077284	-1.603818	-1.195003
C49	C	-0.091573	-1.459685	-1.189276
C50	C	-0.163777	-1.405471	-1.108318
C51	C	-0.221689	-1.495399	-1.033089
H52	H	-0.124615	-1.800448	-1.124017
H53	H	-0.023834	-1.643951	-1.254934
H54	H	-0.048704	-1.393115	-1.244965
H55	H	-0.174358	-1.298769	-1.104076
H56	H	-0.275139	-1.455266	-0.973159
H57	H	-0.772904	-1.877694	-0.380420
H58	H	-0.222573	-1.300314	-0.382586
H59	H	-0.352075	-1.228305	-0.606369
