data_functionalizedCrystal
_audit_creation_method	'MofGen! by Chris Wilmer'
_symmetry_space_group_name_H-M	'P1'
_symmetry_Int_Tables_number	1
_symmetry_cell_setting	triclinic
loop_
_symmetry_equiv_pos_as_xyz
  x,y,z
_cell_length_a	16.120490
_cell_length_b	12.594516
_cell_length_c	16.120704
_cell_angle_alpha	92.898296
_cell_angle_beta	89.858135
_cell_angle_gamma	92.880665
loop_
_atom_site_label
_atom_site_type_symbol
_atom_site_fract_x
_atom_site_fract_y
_atom_site_fract_z
Zn1	Zn	1.247318	0.539579	0.534563
Zn2	Zn	1.747318	1.039579	1.034563
Zn3	Zn	1.254287	0.708956	0.395516
Zn4	Zn	1.754287	1.208956	0.895516
Zn5	Zn	1.115336	0.521516	0.388484
Zn6	Zn	1.615336	1.021516	0.888484
Zn7	Zn	1.108217	0.708028	0.527487
Zn8	Zn	1.608217	1.208028	1.027487
O9	O	1.181290	0.619520	0.461512
O10	O	1.681290	1.119520	0.961512
O11	O	1.364608	0.569996	0.522021
O12	O	1.864608	1.069996	1.022021
O13	O	1.241752	0.676921	0.278217
O14	O	1.741752	1.176921	0.778217
O15	O	1.132907	0.374972	0.407879
O16	O	1.632907	0.874972	0.907879
O17	O	1.369728	0.694436	0.419864
O18	O	1.869728	1.194436	0.919864
O19	O	1.229872	0.388243	0.515203
O20	O	1.729872	0.888243	1.015203
O21	O	1.139665	0.539210	0.273051
O22	O	1.639665	1.039210	0.773051
O23	O	0.998027	0.538309	0.401019
O24	O	1.498027	1.038309	0.901019
O25	O	1.120773	0.692853	0.644791
O26	O	1.620773	1.192853	1.144791
O27	O	0.992796	0.675338	0.503144
O28	O	1.492796	1.175338	1.003144
O29	O	1.222969	0.569095	0.649989
O30	O	1.722969	1.069095	1.149989
O31	O	1.234849	0.857774	0.413004
O32	O	1.734849	1.357774	0.913004
O33	O	1.127532	0.857091	0.509963
O34	O	1.627532	1.357091	1.009963
C35	C	0.965239	0.604763	0.450551
C36	C	1.465239	1.104763	0.950551
C37	C	0.872811	0.598477	0.445882
C38	C	1.372811	1.098477	0.945882
C39	C	0.659839	0.652118	0.485735
C40	C	1.159839	1.152118	0.985735
C41	C	0.703589	0.587011	0.437356
C42	C	1.203589	1.087011	0.937356
C43	C	0.797753	0.593393	0.442101
C44	C	1.297753	1.093393	0.942101
C45	C	0.565666	0.645737	0.480990
C46	C	1.065666	1.145737	0.980990
C47	C	1.181195	0.896054	0.461498
C48	C	1.681195	1.396054	0.961498
C49	C	1.181230	1.014363	0.461524
C50	C	1.681230	1.514363	0.961524
C51	C	1.122847	1.083280	0.514220
C52	C	1.622847	1.583280	1.014220
C53	C	1.106440	1.148056	0.437316
C54	C	1.606440	1.648056	0.937316
C55	C	1.197681	1.160390	0.538442
C56	C	1.697681	1.660390	1.038442
C57	C	1.164785	1.077575	0.384578
C58	C	1.664785	1.577575	0.884578
C59	C	1.256059	1.089909	0.485756
C60	C	1.756059	1.589909	0.985756
C61	C	1.239684	1.154651	0.408802
C62	C	1.739684	1.654651	0.908802
C63	C	1.398184	0.634335	0.472516
C64	C	1.898184	1.134335	0.972516
C65	C	1.490611	0.640648	0.477206
C66	C	1.990611	1.140648	0.977206
C67	C	1.170300	0.632886	0.678406
C68	C	1.670300	1.132886	1.178406
C69	C	1.165616	0.638581	0.770833
C70	C	1.665616	1.138581	1.270833
C71	C	1.181370	1.341906	0.461543
C72	C	1.681370	1.841906	0.961543
C73	C	1.181310	1.223597	0.461548
C74	C	1.681310	1.723597	0.961548
C75	C	1.205517	0.590219	0.983811
C76	C	1.705517	1.090219	1.483811
C77	C	1.157038	0.648934	0.940052
C78	C	1.657038	1.148934	1.440052
C79	C	1.161813	0.643172	0.845890
C80	C	1.661813	1.143172	1.345890
C81	C	1.200743	0.595980	1.077982
C82	C	1.700743	1.095980	1.577982
C83	C	1.192236	0.606240	1.245462
C84	C	1.692236	1.106240	1.745462
C85	C	1.196936	0.600575	1.153036
C86	C	1.696936	1.100575	1.653036
H87	H	0.670324	0.526477	0.392373
H88	H	1.170324	1.026477	0.892373
F89	F	1.146546	1.030457	0.299538
F90	F	1.646546	1.530457	0.799538
H91	H	0.693101	0.712647	0.530713
H92	H	1.193101	1.212647	1.030713
F93	F	1.058227	1.042320	0.572375
F94	F	1.558227	1.542320	1.072375
F95	F	1.023773	1.181714	0.410531
F96	F	1.523773	1.681714	0.910531
F97	F	1.264439	0.518852	0.940347
F98	F	1.764439	1.018852	1.440347
F99	F	1.098103	0.720296	0.983517
F100	F	1.598103	1.220296	1.483517
H101	H	1.289094	1.185781	0.364195
H102	H	1.789094	1.685781	0.864195
F103	F	1.338702	1.056219	0.512567
F104	F	1.838702	1.556219	1.012567
F105	F	1.215827	1.207677	0.623451
F106	F	1.715827	1.707677	1.123451
