data_functionalizedCrystal
_audit_creation_method	'MofGen! by Chris Wilmer'
_symmetry_space_group_name_H-M	'P1'
_symmetry_Int_Tables_number	1
_symmetry_cell_setting	triclinic
loop_
_symmetry_equiv_pos_as_xyz
  x,y,z
_cell_length_a	16.109301
_cell_length_b	11.026607
_cell_length_c	15.186229
_cell_angle_alpha	89.998222
_cell_angle_beta	89.999362
_cell_angle_gamma	96.023749
loop_
_atom_site_label
_atom_site_type_symbol
_atom_site_fract_x
_atom_site_fract_y
_atom_site_fract_z
O1	O	1.126503	0.155971	-0.073169
O2	O	0.887350	0.175382	-0.073183
O3	O	0.987106	-0.010969	-0.073174
O4	O	1.026747	0.342322	-0.073178
O5	O	0.987097	-0.010971	0.073283
O6	O	0.887341	0.175379	0.073274
O7	O	1.126494	0.155969	0.073288
Zn8	Zn	1.006916	0.165674	0.096534
Zn9	Zn	1.006928	0.165677	-0.096429
O10	O	1.026738	0.342319	0.073279
C11	C	0.856253	0.174594	0.000044
C12	C	0.763604	0.172237	0.000039
C13	C	0.557080	0.277333	0.000048
C14	C	0.470027	0.275108	0.000053
C15	C	0.456769	0.054010	0.000052
C16	C	0.543821	0.056235	0.000053
C17	C	0.593975	0.167900	0.000046
C18	C	0.419869	0.163450	0.000051
C19	C	0.325481	0.161038	0.000057
C20	C	0.688369	0.170314	0.000042
C21	C	0.979788	-0.056178	0.000053
C22	C	0.957987	-0.190883	0.000049
C23	C	1.018183	-0.264713	0.000051
C24	C	0.995652	-0.403938	0.000046
C25	C	1.157591	0.156756	0.000059
C26	C	1.250240	0.159114	0.000059
C27	C	1.034056	0.387529	0.000050
C28	C	1.055857	0.522234	0.000049
N29	N	1.006914	0.165670	0.228227
N30	N	1.006935	0.165671	-0.228122
C31	C	1.051109	0.083182	0.453954
C32	C	1.051112	0.083179	0.546144
C33	C	0.962734	0.248163	0.546145
C34	C	0.962728	0.248159	0.453957
C35	C	1.006920	0.165670	0.407864
C36	C	1.006929	0.165671	0.592241
C37	C	1.006931	0.165669	0.692198
C38	C	1.006917	0.165671	0.307901
H39	H	1.086399	-0.224848	0.000060
H40	H	0.415924	-0.036904	0.000063
H41	H	0.573861	-0.032883	0.000054
H42	H	0.927432	-0.443797	0.000037
C43	C	1.148021	-0.423938	0.000056
C44	C	1.182267	-0.340868	0.076111
C45	C	1.274429	-0.287041	0.076118
C46	C	1.332347	-0.316284	0.000069
C47	C	1.298102	-0.399358	-0.075992
C48	C	1.205940	-0.453185	-0.075999
H49	H	1.139392	-0.319216	0.132411
H50	H	1.299779	-0.225543	0.132423
H51	H	1.400571	-0.276438	0.000074
H52	H	1.340977	-0.421010	-0.132292
H53	H	1.180590	-0.514682	-0.132304
H54	H	0.889771	-0.230748	0.000039
H55	H	1.087092	0.016013	0.416427
H56	H	1.087093	0.016009	0.583668
H57	H	0.926755	0.315325	0.583683
C58	C	0.914118	0.338902	0.403249
C59	C	0.865545	0.429683	0.453944
C60	C	0.816934	0.520417	0.403236
C61	C	0.816896	0.520370	0.301833
C62	C	0.865471	0.429586	0.251132
C63	C	0.914082	0.338852	0.301841
H64	H	0.865571	0.429720	0.529014
H65	H	0.780976	0.587621	0.440768
H66	H	0.780912	0.587537	0.264295
H67	H	0.865445	0.429548	0.176062
H68	H	0.950040	0.271647	0.264308
C69	C	0.612251	0.400160	0.000050
C70	C	0.605750	0.491043	0.076106
C71	C	0.660918	0.613874	0.076111
C72	C	0.722588	0.645820	0.000060
C73	C	0.729091	0.554934	-0.076002
C74	C	0.673923	0.432104	-0.076007
H75	H	0.560096	0.467397	0.132408
H76	H	0.656103	0.681153	0.132417
H77	H	0.763427	0.736746	0.000064
H78	H	0.774745	0.578581	-0.132304
H79	H	0.678738	0.364824	-0.132313
H80	H	0.439992	0.364219	0.000056
