data_functionalizedCrystal
_audit_creation_method	'MofGen! by Chris Wilmer'
_symmetry_space_group_name_H-M	'P1'
_symmetry_Int_Tables_number	1
_symmetry_cell_setting	triclinic
loop_
_symmetry_equiv_pos_as_xyz
  x,y,z
_cell_length_a	9.065218
_cell_length_b	14.971482
_cell_length_c	14.048226
_cell_angle_alpha	89.994098
_cell_angle_beta	90.004897
_cell_angle_gamma	95.685753
loop_
_atom_site_label
_atom_site_type_symbol
_atom_site_fract_x
_atom_site_fract_y
_atom_site_fract_z
O1	O	-0.192235	1.188382	-0.079145
O2	O	0.141098	1.521715	0.254188
O3	O	0.474432	1.855048	0.587522
O4	O	-0.215264	0.928153	-0.079149
O5	O	0.118069	1.261486	0.254184
O6	O	0.451402	1.594819	0.587517
O7	O	0.011002	1.063646	-0.079144
O8	O	0.344335	1.396980	0.254189
O9	O	0.677669	1.730313	0.587522
O10	O	-0.418501	1.052888	-0.079150
O11	O	-0.085168	1.386222	0.254183
O12	O	0.248165	1.719555	0.587517
O13	O	0.011015	1.063630	0.079177
O14	O	0.344349	1.396963	0.412510
O15	O	0.677682	1.730296	0.745844
O16	O	-0.215251	0.928136	0.079172
O17	O	0.118082	1.261470	0.412505
O18	O	0.451416	1.594803	0.745839
O19	O	-0.192222	1.188365	0.079176
O20	O	0.141112	1.521698	0.412510
O21	O	0.474445	1.855032	0.745843
Zn22	Zn	-0.203734	1.058248	0.104311
Zn23	Zn	0.129599	1.391581	0.437644
Zn24	Zn	0.462932	1.724915	0.770978
Zn25	Zn	-0.203752	1.058270	-0.104284
Zn26	Zn	0.129582	1.391603	0.229049
Zn27	Zn	0.462915	1.724937	0.562383
O28	O	-0.418488	1.052872	0.079171
O29	O	-0.085155	1.386205	0.412505
O30	O	0.248179	1.719538	0.745838
C31	C	-0.214229	0.894812	0.000011
C32	C	0.119105	1.228145	0.333344
C33	C	0.452438	1.561479	0.666677
C34	C	-0.211145	0.795492	0.000009
C35	C	0.122188	1.128825	0.333342
C36	C	0.455521	1.462159	0.666676
C37	C	-0.209686	0.748827	0.086311
C38	C	0.123647	1.082161	0.419644
C39	C	0.456981	1.415494	0.752978
C40	C	-0.206765	0.655507	0.086312
C41	C	0.126568	0.988840	0.419645
C42	C	0.459902	1.322174	0.752979
C43	C	-0.205314	0.608852	0.000010
C44	C	0.128019	0.942186	0.333344
C45	C	0.461352	1.275519	0.666677
C46	C	-0.206770	0.655524	-0.086298
C47	C	0.126564	0.988857	0.247035
C48	C	0.459897	1.322190	0.580368
C49	C	-0.209680	0.748843	-0.086299
C50	C	0.123653	1.082176	0.247035
C51	C	0.456987	1.415510	0.580368
C52	C	-0.200708	0.461017	-0.086292
C53	C	0.132626	0.794350	0.247041
C54	C	0.465959	1.127683	0.580374
C55	C	-0.197800	0.367691	-0.086293
C56	C	0.135533	0.701024	0.247041
C57	C	0.468867	1.034357	0.580374
C58	C	-0.197793	0.367681	0.086318
C59	C	0.135540	0.701014	0.419652
C60	C	0.468874	1.034347	0.752985
C61	C	-0.200703	0.461000	0.086318
C62	C	0.132630	0.794333	0.419652
C63	C	0.465964	1.127667	0.752985
C64	C	-0.202161	0.507665	0.000009
C65	C	0.131172	0.840998	0.333343
C66	C	0.464506	1.174331	0.666676
C67	C	-0.473460	1.053914	0.000010
C68	C	-0.140127	1.387247	0.333343
C69	C	0.193206	1.720581	0.666676
C70	C	-0.637240	1.057005	0.000008
C71	C	-0.303907	1.390339	0.333341
C72	C	0.029426	1.723672	0.666674
C73	C	0.065974	1.062604	0.000015
C74	C	0.399308	1.395937	0.333348
C75	C	0.732641	1.729271	0.666682
C76	C	0.229754	1.059513	0.000011
C77	C	0.563088	1.392846	0.333344
C78	C	0.896421	1.726179	0.666678
C79	C	-0.193257	1.221706	0.000014
C80	C	0.140076	1.555039	0.333347
C81	C	0.473409	1.888373	0.666681
C82	C	-0.196341	1.321026	0.000009
C83	C	0.136993	1.654359	0.333343
C84	C	0.470326	1.987693	0.666676
N85	N	-0.203721	1.058240	0.246672
N86	N	0.129612	1.391573	0.580005
N87	N	0.462945	1.724906	0.913338
N88	N	-0.203753	1.058285	-0.246645
N89	N	0.129580	1.391619	0.086688
N90	N	0.462914	1.724952	0.420022
C91	C	-0.103572	1.118255	0.296492
C92	C	0.229761	1.451589	0.629825
C93	C	0.563095	1.784922	0.963159
C94	C	-0.103571	1.118262	0.396150
C95	C	0.229762	1.451595	0.729483
C96	C	0.563096	1.784928	1.062816
C97	C	-0.203728	1.058255	0.445985
C98	C	0.129605	1.391589	0.779319
C99	C	0.462939	1.724922	1.112652
C100	C	-0.303882	0.998233	0.396158
C101	C	0.029451	1.331566	0.729491
C102	C	0.362785	1.664900	1.062825
C103	C	-0.303874	0.998223	0.296502
C104	C	0.029459	1.331557	0.629835
C105	C	0.362792	1.664890	0.963169
C106	C	-0.303893	0.998259	0.603872
C107	C	0.029441	1.331592	0.937206
C108	C	0.362774	1.664926	1.270539
C109	C	-0.303902	0.998269	0.703535
C110	C	0.029431	1.331603	1.036868
C111	C	0.362764	1.664936	1.370202
C112	C	-0.103589	1.118297	0.703520
C113	C	0.229744	1.451630	1.036853
C114	C	0.563077	1.784964	1.370186
C115	C	-0.103582	1.118287	0.603864
C116	C	0.229751	1.451621	0.937197
C117	C	0.563085	1.784954	1.270531
C118	C	-0.203738	1.058266	0.554043
C119	C	0.129595	1.391599	0.887377
C120	C	0.462928	1.724933	1.220710
H121	H	-0.205578	0.617531	-0.156567
H122	H	0.127755	0.950864	0.176766
H123	H	0.461089	1.284197	0.510100
H124	H	-0.201895	0.499008	-0.156574
H125	H	0.131438	0.832341	0.176759
H126	H	0.464771	1.165675	0.510092
H127	H	-0.385424	0.949351	0.255939
H128	H	-0.052091	1.282685	0.589273
H129	H	0.281242	1.616018	0.922606
H130	H	-0.022034	1.167153	0.563288
H131	H	0.311299	1.500486	0.896621
H132	H	0.644632	1.833820	1.229955
H133	H	-0.210879	0.786806	0.156588
H134	H	0.122454	1.120139	0.489922
H135	H	0.455787	1.453473	0.823255
H136	H	-0.210871	0.786836	-0.156575
H137	H	0.122462	1.120169	0.176759
H138	H	0.455796	1.453502	0.510092
H139	H	-0.022039	1.167168	0.744089
H140	H	0.311295	1.500502	1.077423
H141	H	0.644628	1.833835	1.410756
H142	H	-0.022019	1.167123	0.255922
H143	H	0.311314	1.500456	0.589256
H144	H	0.644648	1.833790	0.922589
H145	H	-0.196606	0.329682	0.156594
H146	H	0.136727	0.663015	0.489928
H147	H	0.470060	0.996348	0.823261
H148	H	-0.022021	1.167130	0.436713
H149	H	0.311312	1.500464	0.770046
H150	H	0.644645	1.833797	1.103379
H151	H	-0.385459	0.949405	0.744106
H152	H	-0.052125	1.282739	1.077439
H153	H	0.281208	1.616072	1.410773
H154	H	-0.201893	0.498983	0.156593
H155	H	0.131440	0.832316	0.489926
H156	H	0.464773	1.165650	0.823260
H157	H	-0.385427	0.949370	0.436740
H158	H	-0.052093	1.282704	0.770073
H159	H	0.281240	1.616037	1.103406
H160	H	-0.205552	0.617519	0.156588
H161	H	0.127781	0.950852	0.489921
H162	H	0.461115	1.284185	0.823255
H163	H	-0.196620	0.329707	-0.156567
H164	H	0.136713	0.663040	0.176766
H165	H	0.470047	0.996373	0.510099
H166	H	-0.385446	0.949380	0.563312
H167	H	-0.052113	1.282713	0.896645
H168	H	0.281221	1.616047	1.229978
