data_functionalizedCrystal
_audit_creation_method	'MofGen! by Chris Wilmer'
_symmetry_space_group_name_H-M	'P1'
_symmetry_Int_Tables_number	1
_symmetry_cell_setting	triclinic
loop_
_symmetry_equiv_pos_as_xyz
  x,y,z
_cell_length_a	10.967926
_cell_length_b	27.732048
_cell_length_c	9.482900
_cell_angle_alpha	99.251554
_cell_angle_beta	92.549900
_cell_angle_gamma	83.701151
loop_
_atom_site_label
_atom_site_type_symbol
_atom_site_fract_x
_atom_site_fract_y
_atom_site_fract_z
O1	O	1.608630	0.085293	0.282097
O2	O	1.259397	0.086352	0.194600
O3	O	1.444856	0.015666	0.241092
O4	O	1.423172	0.155979	0.235604
O5	O	1.407184	0.030084	0.473441
O6	O	1.221725	0.100771	0.426948
O7	O	1.570958	0.099711	0.514445
Cu8	Cu	1.392902	0.101557	0.491912
Cu9	Cu	1.437454	0.084506	0.217133
O10	O	1.385500	0.170397	0.467953
C11	C	1.195896	0.092395	0.299584
C12	C	1.062807	0.088913	0.266240
C13	C	0.983956	0.094830	0.371738
C14	C	0.846401	0.091232	0.337279
C15	C	1.425564	0.004859	0.357156
C16	C	1.424191	-0.048826	0.356824
C17	C	1.525167	-0.385423	0.382048
C18	C	1.520082	-0.587196	0.380754
O19	O	1.612417	-0.616424	0.403824
N20	N	1.410110	-0.608740	0.353203
C21	C	1.301403	-0.579838	0.325964
O22	O	1.207751	-0.602793	0.302486
C23	C	1.306490	-0.378067	0.327249
C24	C	1.416467	-0.356525	0.354816
C25	C	1.635135	-0.363881	0.409612
C26	C	1.636404	-0.313440	0.409942
C27	C	1.527704	-0.284542	0.382710
C28	C	1.417736	-0.306084	0.355147
C29	C	1.197786	-0.349166	0.300000
C30	C	1.199068	-0.298721	0.300320
C31	C	1.309045	-0.277179	0.327887
C32	C	1.310305	-0.226745	0.328245
N33	N	1.420277	-0.205201	0.355796
C34	C	1.528977	-0.234099	0.383029
C35	C	1.298740	-0.685771	0.325295
C36	C	1.297467	-0.736213	0.324976
C37	C	1.516147	-0.743568	0.379763
C38	C	1.517417	-0.693124	0.380092
C39	C	1.408712	-0.664227	0.352846
C40	C	1.531632	-0.128170	0.383723
C41	C	1.532891	-0.077724	0.384057
C42	C	1.314212	-0.070374	0.329262
C43	C	1.312952	-0.120815	0.328935
C44	C	1.421673	-0.149713	0.356163
O45	O	1.218023	-0.197489	0.305172
O46	O	1.622620	-0.211137	0.406472
C47	C	1.523898	-0.435864	0.381717
C48	C	1.413930	-0.457406	0.354154
C49	C	1.305230	-0.428508	0.326922
C50	C	1.412657	-0.507849	0.353835
C51	C	1.521357	-0.536747	0.381068
C52	C	1.631329	-0.515203	0.408619
C53	C	1.632598	-0.464762	0.408950
C54	C	1.195258	-0.450052	0.299370
C55	C	1.193998	-0.500493	0.299043
C56	C	1.302698	-0.529391	0.326276
C57	C	1.634460	0.093668	0.409458
C58	C	1.767551	0.097149	0.442792
C59	C	1.404792	0.181205	0.351886
C60	C	1.406167	0.234888	0.352208
N61	N	1.361576	0.113550	0.685179
N62	N	1.468789	0.072509	0.023868
C63	C	1.428205	0.088041	0.774082
C64	C	1.402150	0.098023	0.934967
H65	H	0.812078	0.083500	0.221440
H66	H	1.223394	-0.138353	0.306527
O67	O	1.193204	-0.657699	0.298595
C68	C	1.087234	-0.603927	0.146834
C69	C	1.206815	-0.635707	0.176882
H70	H	1.098206	-0.586130	0.048448
H71	H	1.008395	-0.627978	0.126993
H72	H	1.066597	-0.574117	0.242898
H73	H	1.227567	-0.665520	0.080864
H74	H	1.285585	-0.611623	0.196781
O75	O	1.021776	0.079778	0.128066
C76	C	0.889815	0.108533	-0.057732
C77	C	0.936196	0.118944	0.098770
H78	H	0.820597	0.140187	-0.081457
H79	H	0.970520	0.104664	-0.131877
H80	H	0.843929	0.073016	-0.075693
H81	H	0.982064	0.154464	0.116869
H82	H	0.855445	0.122782	0.172836
O83	O	1.519150	0.053111	0.722806
C84	C	1.597754	-0.032389	0.695624
C85	C	1.494658	0.007113	0.753748
H86	H	1.578001	-0.069587	0.720645
H87	H	1.602520	-0.034257	0.574992
H88	H	1.689120	-0.022559	0.748296
H89	H	1.403237	-0.002690	0.701184
H90	H	1.490000	0.008972	0.874386
O91	O	1.270588	0.148419	0.736702
C92	C	1.161576	0.190125	0.944009
C93	C	1.264677	0.150630	0.885861
H94	H	1.156746	0.191918	1.064606
H95	H	1.181358	0.227349	0.919218
H96	H	1.070230	0.180323	0.891220
H97	H	1.356065	0.160386	0.938616
H98	H	1.244789	0.113417	0.910633
O99	O	1.559710	0.037536	0.972776
C100	C	1.638047	-0.047987	0.946117
C101	C	1.535003	-0.008409	1.003926
H102	H	1.618120	-0.085140	0.971306
H103	H	1.642963	-0.049935	0.825472
H104	H	1.729399	-0.038174	0.998867
H105	H	1.443595	-0.018193	0.951284
H106	H	1.530195	-0.006469	1.124578
H107	H	1.622450	-0.060187	0.406510
O108	O	1.024700	0.104032	0.510010
C109	C	0.971030	0.119314	0.758048
C110	C	0.924731	0.108885	0.601518
H111	H	0.890226	0.123251	0.832075
H112	H	1.040117	0.087644	0.781965
H113	H	1.017024	0.154805	0.775978
H114	H	0.878679	0.073409	0.583477
H115	H	0.855702	0.140582	0.577677
H116	H	1.106740	-0.426527	0.277191
O117	O	1.090858	-0.370010	0.273126
C118	C	0.874087	-0.357366	0.218870
C119	C	0.995110	-0.333701	0.249255
H120	H	0.796638	-0.328020	0.199592
H121	H	0.883710	-0.386811	0.120064
H122	H	0.852307	-0.374787	0.314571
H123	H	1.016961	-0.316253	0.153641
H124	H	0.985425	-0.304282	0.348113
O125	O	1.637341	-0.156161	0.410266
C126	C	1.854384	-0.158123	0.464576
C127	C	1.734757	-0.126365	0.434560
H128	H	1.933181	-0.134048	0.484196
H129	H	1.843575	-0.175883	0.563076
H130	H	1.874967	-0.187960	0.368566
H131	H	1.714104	-0.096503	0.530485
H132	H	1.745626	-0.108641	0.336009
H133	H	1.225711	-0.046836	0.307095
H134	H	0.801873	0.104878	0.558632
H135	H	1.723657	-0.387406	0.431784
O136	O	1.743167	-0.292480	0.436941
C137	C	1.852009	-0.232323	0.589407
C138	C	1.731032	-0.256021	0.559022
H139	H	1.842231	-0.202834	0.688091
H140	H	1.929508	-0.261622	0.608907
H141	H	1.873826	-0.214946	0.493636
H142	H	1.709101	-0.273396	0.654746
H143	H	1.653603	-0.226702	0.539463
H144	H	1.104433	-0.518026	0.276605
O145	O	1.190537	-0.757061	0.298124
C146	C	0.973761	-0.744423	0.243891
C147	C	1.094781	-0.720755	0.274258
H148	H	0.896305	-0.715079	0.224616
H149	H	0.983381	-0.773869	0.145088
H150	H	0.951993	-0.761843	0.339599
H151	H	1.116619	-0.703308	0.178636
H152	H	1.085099	-0.691334	0.373112
O153	O	1.624366	-0.672283	0.406821
C154	C	1.841117	-0.684911	0.461208
C155	C	1.720083	-0.708574	0.430932
H156	H	1.918531	-0.714239	0.480739
H157	H	1.863036	-0.667529	0.365484
H158	H	1.831362	-0.655434	0.559923
H159	H	1.729745	-0.738070	0.332262
H160	H	1.698204	-0.725923	0.526733
O161	O	1.739548	-0.443923	0.435684
C162	C	1.956298	-0.456556	0.490071
C163	C	1.835261	-0.480216	0.459786
H164	H	2.033709	-0.485886	0.509595
H165	H	1.978220	-0.439171	0.394354
H166	H	1.946545	-0.427081	0.588793
H167	H	1.844922	-0.509710	0.361110
H168	H	1.813380	-0.497568	0.555580
O169	O	1.093539	-0.270645	0.273617
C170	C	0.987601	-0.216865	0.121860
C171	C	1.107171	-0.248651	0.151914
H172	H	0.998590	-0.199066	0.023481
H173	H	0.908755	-0.240912	0.102002
H174	H	0.966963	-0.187057	0.217928
H175	H	1.127923	-0.278463	0.055892
H176	H	1.185948	-0.224571	0.171830
H177	H	1.604655	-0.767106	0.401938
H178	H	1.325807	0.127253	0.977953
O179	O	1.736930	-0.543316	0.434814
C180	C	1.881856	-0.612025	0.345880
C181	C	1.762271	-0.580216	0.316030
H182	H	1.902368	-0.641872	0.249875
H183	H	1.960748	-0.587997	0.365554
H184	H	1.870937	-0.629774	0.444370
H185	H	1.773070	-0.562461	0.217526
H186	H	1.683424	-0.604267	0.296442
