data_functionalizedCrystal
_audit_creation_method	'MofGen! by Chris Wilmer'
_symmetry_space_group_name_H-M	'P1'
_symmetry_Int_Tables_number	1
_symmetry_cell_setting	triclinic
loop_
_symmetry_equiv_pos_as_xyz
  x,y,z
_cell_length_a	10.654550
_cell_length_b	17.038272
_cell_length_c	9.130313
_cell_angle_alpha	89.995195
_cell_angle_beta	89.999724
_cell_angle_gamma	87.798243
loop_
_atom_site_label
_atom_site_type_symbol
_atom_site_fract_x
_atom_site_fract_y
_atom_site_fract_z
O1	O	1.678042	0.109878	-0.121691
O2	O	1.313536	0.120346	-0.121718
O3	O	1.493623	0.001285	-0.121693
O4	O	1.497955	0.228940	-0.121716
O5	O	1.493609	0.001281	0.121906
O6	O	1.313522	0.120343	0.121881
O7	O	1.678029	0.109875	0.121908
Cu8	Cu	1.495774	0.115108	0.144137
Cu9	Cu	1.495790	0.115113	-0.143947
O10	O	1.497942	0.228936	0.121883
C11	C	1.266660	0.119576	0.000078
C12	C	1.127003	0.117276	0.000068
C13	C	1.054026	0.187378	0.000065
C14	C	0.922805	0.185213	0.000091
C15	C	0.937548	0.042838	0.000116
C16	C	1.068767	0.045004	0.000101
C17	C	1.489675	-0.027867	0.000106
C18	C	1.477918	-0.114726	0.000104
C19	C	1.585862	-0.164237	0.000114
C20	C	1.574808	-0.245849	0.000099
C21	C	1.455808	-0.277949	0.000085
C22	C	1.347855	-0.228431	0.000072
C23	C	1.358911	-0.146820	0.000076
C24	C	1.416750	-0.523925	0.000063
C25	C	1.405702	-0.605542	0.000063
C26	C	1.632655	-0.622955	0.000088
C27	C	1.643701	-0.541341	0.000101
C28	C	1.535748	-0.491831	0.000079
C29	C	1.444505	-0.361369	0.000075
C30	C	1.547052	-0.408412	0.000079
C31	C	1.724905	0.110645	0.000108
C32	C	1.864561	0.112945	0.000109
C33	C	1.501889	0.258088	0.000081
C34	C	1.513646	0.344947	0.000072
N35	N	1.495772	0.115105	0.346759
N36	N	1.495802	0.115110	-0.346570
C37	C	1.575545	0.062407	0.423422
C38	C	1.575557	0.062407	0.576759
C39	C	1.416019	0.167810	0.576757
C40	C	1.416002	0.167806	0.423423
H41	H	0.890116	-0.016004	0.000152
H42	H	1.351035	0.210719	0.360999
H43	H	1.720544	-0.663274	0.000102
H44	H	1.101438	0.246227	0.000049
H45	H	1.682764	-0.138109	0.000134
H46	H	1.250963	-0.254573	0.000051
H47	H	1.740603	-0.515213	0.000112
H48	H	1.308794	-0.631674	0.000075
H49	H	1.128187	-0.012085	0.000107
H50	H	0.863392	0.242297	0.000091
H51	H	1.351074	0.210719	0.639191
H52	H	1.662708	-0.286159	0.000110
H53	H	1.640514	0.019495	0.639174
H54	H	1.328847	-0.483623	0.000045
H55	H	1.640497	0.019494	0.361007
H56	H	1.271011	-0.106509	0.000068
H57	H	1.643941	-0.382273	0.000058
H58	H	1.347615	-0.387514	0.000067
