data_functionalizedCrystal
_audit_creation_method	'MofGen! by Chris Wilmer'
_symmetry_space_group_name_H-M	'P1'
_symmetry_Int_Tables_number	1
_symmetry_cell_setting	triclinic
loop_
_symmetry_equiv_pos_as_xyz
  x,y,z
_cell_length_a	12.759401
_cell_length_b	18.050589
_cell_length_c	12.759393
_cell_angle_alpha	89.969379
_cell_angle_beta	89.981504
_cell_angle_gamma	90.028382
loop_
_atom_site_label
_atom_site_type_symbol
_atom_site_fract_x
_atom_site_fract_y
_atom_site_fract_z
Zn1	Zn	1.606157	-0.295612	-0.593988
Zn2	Zn	2.106157	0.204388	-0.093988
Zn3	Zn	1.606010	-0.419823	-0.418311
Zn4	Zn	2.106010	0.080177	0.081689
Zn5	Zn	1.430459	-0.295651	-0.418328
Zn6	Zn	1.930459	0.204349	0.081672
Zn7	Zn	1.430406	-0.419766	-0.593953
Zn8	Zn	1.930406	0.080234	-0.093953
O9	O	1.518258	-0.357713	-0.506145
O10	O	2.018258	0.142287	-0.006145
O11	O	1.753158	-0.312097	-0.570692
O12	O	2.253158	0.187903	-0.070692
O13	O	1.582683	-0.403391	-0.271292
O14	O	2.082683	0.096609	0.228708
O15	O	1.453849	-0.191722	-0.441651
O16	O	1.953849	0.308278	0.058349
O17	O	1.753050	-0.403354	-0.441623
O18	O	2.253050	0.096646	0.058377
O19	O	1.582934	-0.191693	-0.570708
O20	O	2.082934	0.308307	-0.070708
O21	O	1.453706	-0.312163	-0.271304
O22	O	1.953706	0.187837	0.228696
O23	O	1.283431	-0.312108	-0.441617
O24	O	1.783431	0.187892	0.058383
O25	O	1.453759	-0.403256	-0.740979
O26	O	1.953759	0.096744	-0.240979
O27	O	1.283392	-0.403294	-0.570648
O28	O	1.783392	0.096706	-0.070648
O29	O	1.582882	-0.312041	-0.741005
O30	O	2.082882	0.187959	-0.241005
O31	O	1.582632	-0.523740	-0.441589
O32	O	2.082632	-0.023740	0.058411
O33	O	1.453616	-0.523698	-0.570632
O34	O	1.953616	-0.023698	-0.070632
C35	C	1.245290	-0.357699	-0.506131
C36	C	1.745290	0.142301	-0.006131
C37	C	1.128514	-0.357711	-0.506149
C38	C	1.628514	0.142289	-0.006149
C39	C	1.073659	-0.405268	-0.573225
C40	C	1.573659	0.094732	-0.073225
C41	C	0.963935	-0.405277	-0.573236
C42	C	1.463935	0.094723	-0.073236
C43	C	0.963930	-0.310171	-0.439088
C44	C	1.463930	0.189829	0.060912
C45	C	1.073652	-0.310159	-0.439083
C46	C	1.573652	0.189841	0.060917
C47	C	1.128521	-0.452820	-0.640292
C48	C	1.628521	0.047180	-0.140292
C49	C	1.073666	-0.500382	-0.707372
C50	C	1.573666	-0.000382	-0.207372
C51	C	0.963942	-0.500391	-0.707383
C52	C	1.463942	-0.000391	-0.207383
C53	C	0.909072	-0.452839	-0.640314
C54	C	1.409072	0.047161	-0.140314
C55	C	1.518131	-0.550665	-0.506127
C56	C	2.018131	-0.050665	-0.006127
C57	C	1.518173	-0.633211	-0.506155
C58	C	2.018173	-0.133211	-0.006155
C59	C	1.448083	-0.832666	-0.576304
C60	C	1.948083	-0.332666	-0.076304
C61	C	1.422469	-0.882114	-0.480436
C62	C	1.922469	-0.382114	0.019564
C63	C	1.518276	-0.784341	-0.506169
C64	C	2.018276	-0.284341	-0.006169
C65	C	1.543942	-0.881974	-0.602048
C66	C	2.043942	-0.381974	-0.102048
C67	C	1.518374	-0.930326	-0.506191
C68	C	2.018374	-0.430326	-0.006191
C69	C	1.492611	-0.832703	-0.410250
C70	C	1.992611	-0.332703	0.089750
C71	C	1.614129	-0.832558	-0.531927
C72	C	2.114129	-0.332558	-0.031927
C73	C	1.588551	-0.881985	-0.435992
C74	C	2.088551	-0.381985	0.064008
C75	C	1.518217	-0.700243	-0.506158
C76	C	2.018217	-0.200243	-0.006158
C77	C	1.518433	-1.014423	-0.506191
C78	C	2.018433	-0.514423	-0.006191
C79	C	1.792291	-0.357727	-0.506160
C80	C	2.292291	0.142273	-0.006160
C81	C	1.909068	-0.357733	-0.506166
C82	C	2.409068	0.142267	-0.006166
C83	C	1.518331	-0.357638	-0.780178
C84	C	2.018331	0.142362	-0.280178
C85	C	1.518363	-0.357606	-0.896955
C86	C	2.018363	0.142394	-0.396955
C87	C	1.518414	-0.164007	-0.506185
C88	C	2.018414	0.335993	-0.006185
C89	C	1.518480	-0.081462	-0.506203
C90	C	2.018480	0.418538	-0.006203
C91	C	1.585606	-0.310106	-0.951832
C92	C	2.085606	0.189894	-0.451832
C93	C	1.585631	-0.310079	-1.061557
C94	C	2.085631	0.189921	-0.561557
C95	C	1.451166	-0.405059	-1.061516
C96	C	1.951166	0.094941	-0.561516
C97	C	1.451136	-0.405081	-0.951794
C98	C	1.951136	0.094919	-0.451794
C99	C	1.652833	-0.262631	-0.896993
C100	C	2.152833	0.237369	-0.396993
C101	C	1.720083	-0.215128	-0.951871
C102	C	2.220083	0.284872	-0.451871
C103	C	1.720108	-0.215101	-1.061595
C104	C	2.220108	0.284899	-0.561595
C105	C	1.652883	-0.262577	-1.116442
C106	C	2.152883	0.237423	-0.616442
C107	C	1.518245	-0.357734	-0.233178
C108	C	2.018245	0.142266	0.266822
C109	C	1.518417	-0.357557	-0.116401
C110	C	2.018417	0.142443	0.383599
H111	H	0.919247	-0.271458	-0.384483
H112	H	1.419247	0.228542	0.115517
H113	H	1.118316	-0.271429	-0.384472
H114	H	1.618316	0.228571	0.115528
H115	H	1.695124	-0.810777	-0.553739
H116	H	2.195124	-0.310777	-0.053739
N117	N	1.369350	-0.803976	-0.654763
N118	N	1.869350	-0.303976	-0.154763
H119	H	1.296999	-0.822006	-0.635172
H120	H	1.796999	-0.322006	-0.135172
H121	H	1.370430	-0.748030	-0.654641
H122	H	1.870430	-0.248030	-0.154641
H123	H	1.647952	-0.903503	-0.376622
H124	H	2.147952	-0.403503	0.123378
H125	H	1.470848	-0.811149	-0.329152
H126	H	1.970848	-0.311149	0.170848
H127	H	1.118347	-0.539092	-0.761983
H128	H	1.618347	-0.039092	-0.261983
H129	H	1.341455	-0.903898	-0.458669
H130	H	1.841455	-0.403898	0.041331
H131	H	0.919282	-0.539112	-0.762010
H132	H	1.419282	-0.039112	-0.262010
N133	N	1.572643	-0.910648	-0.709438
N134	N	2.072643	-0.410648	-0.209438
H135	H	1.584970	-0.867506	-0.758357
H136	H	2.084970	-0.367506	-0.258357
H137	H	1.638551	-0.941406	-0.704405
H138	H	2.138551	-0.441406	-0.204405
H139	H	1.217863	-0.452820	-0.640288
H140	H	1.717863	0.047180	-0.140288
N141	N	1.652810	-0.262664	-0.778650
N142	N	2.152810	0.237336	-0.278650
H143	H	1.705600	-0.225382	-0.752234
H144	H	2.205600	0.274618	-0.252234
H145	H	1.580709	-0.249034	-0.752299
H146	H	2.080709	0.250966	-0.252299
H147	H	1.774858	-0.176416	-1.106273
H148	H	2.274858	0.323584	-0.606273
N149	N	1.792597	-0.163930	-0.892723
N150	N	2.292597	0.336070	-0.392723
H151	H	1.782386	-0.171159	-0.814887
H152	H	2.282386	0.328841	-0.314887
H153	H	1.867619	-0.175503	-0.911917
H154	H	2.367619	0.324497	-0.411917
H155	H	1.652896	-0.262543	-1.205786
H156	H	2.152896	0.237457	-0.705786
N157	N	1.378652	-0.456255	-1.120667
N158	N	1.878652	0.043745	-0.620667
H159	H	1.388872	-0.449031	-1.198503
H160	H	1.888872	0.050969	-0.698503
H161	H	1.394942	-0.509302	-1.101478
H162	H	1.894942	-0.009302	-0.601478
N163	N	1.378609	-0.456314	-0.892602
N164	N	1.878609	0.043686	-0.392602
H165	H	1.394886	-0.509374	-0.911676
H166	H	1.894886	-0.009374	-0.411676
H167	H	1.388822	-0.449059	-0.814792
H168	H	1.888822	0.050941	-0.314792
N169	N	0.790727	-0.452840	-0.640334
N170	N	1.290727	0.047160	-0.140334
H171	H	0.764299	-0.490180	-0.693008
H172	H	1.264299	0.009820	-0.193008
H173	H	0.764341	-0.466410	-0.568197
H174	H	1.264341	0.033590	-0.068197
