data_functionalizedCrystal
_audit_creation_method	'MofGen! by Chris Wilmer'
_symmetry_space_group_name_H-M	'P1'
_symmetry_Int_Tables_number	1
_symmetry_cell_setting	triclinic
loop_
_symmetry_equiv_pos_as_xyz
  x,y,z
_cell_length_a	16.109302
_cell_length_b	12.811415
_cell_length_c	14.586319
_cell_angle_alpha	84.565349
_cell_angle_beta	89.994552
_cell_angle_gamma	83.753707
loop_
_atom_site_label
_atom_site_type_symbol
_atom_site_fract_x
_atom_site_fract_y
_atom_site_fract_z
O1	O	1.103626	0.134916	-0.087497
O2	O	0.861626	0.151705	-0.088885
O3	O	0.988714	-0.009484	-0.075484
O4	O	0.976538	0.296105	-0.100898
O5	O	0.988705	-0.009487	0.076997
O6	O	0.861617	0.151702	0.063596
O7	O	1.103617	0.134913	0.064984
Cu8	Cu	0.982617	0.143308	0.078213
Cu9	Cu	0.982627	0.143310	-0.102114
O10	O	0.976529	0.296102	0.051583
C11	C	0.830644	0.151023	-0.012587
C12	C	0.738342	0.148984	-0.012415
C13	C	0.525978	0.144267	0.071086
C14	C	0.439251	0.142340	0.071243
C15	C	0.439271	0.142348	-0.095001
C16	C	0.525998	0.144268	-0.095156
C17	C	0.569349	0.145233	-0.012111
C18	C	0.395895	0.141385	-0.011798
C19	C	0.301862	0.139296	-0.011629
C20	C	0.663388	0.147321	-0.012280
C21	C	0.988027	-0.048589	0.004007
C22	C	0.985984	-0.165107	0.013692
C23	C	0.982139	-0.384041	-0.134363
C24	C	0.980219	-0.493520	-0.125268
C25	C	0.980218	-0.493543	0.040977
C26	C	0.982138	-0.384065	0.031881
C27	C	0.983100	-0.329318	-0.055791
C28	C	0.985026	-0.219838	-0.064886
C29	C	0.985019	-0.219863	0.101358
C30	C	0.983099	-0.329341	0.110453
C31	C	1.134599	0.135595	-0.011316
C32	C	1.226902	0.137634	-0.011494
C33	C	0.977216	0.335208	-0.027910
C34	C	0.979260	0.451725	-0.037601
N35	N	0.982615	0.143305	0.205045
N36	N	0.982635	0.143305	-0.228945
C37	C	1.038909	0.071954	0.445983
C38	C	1.038911	0.071952	0.541965
C39	C	0.926335	0.214659	0.530109
C40	C	0.926330	0.214655	0.434130
C41	C	0.982621	0.143305	0.392069
C42	C	0.982629	0.143305	0.584030
C43	C	0.982631	0.143303	0.688097
C44	C	0.982618	0.143305	0.287996
H45	H	0.561311	0.145051	-0.162909
C46	C	0.979164	-0.553778	0.137406
H47	H	0.977888	-0.626817	0.131565
H48	H	0.931057	-0.527824	0.169414
H49	H	1.027913	-0.543866	0.170726
H50	H	1.084743	0.013855	0.411740
C51	C	0.986080	-0.159617	-0.161320
H52	H	0.985224	-0.207891	-0.206811
H53	H	1.035253	-0.124928	-0.167667
H54	H	0.938397	-0.108890	-0.168983
H55	H	1.084744	0.013851	0.585859
C56	C	0.983203	-0.323818	-0.230796
H57	H	0.982354	-0.372090	-0.276290
H58	H	1.032377	-0.289129	-0.237132
H59	H	0.935521	-0.273090	-0.238465
C60	C	0.986069	-0.159664	0.187791
H61	H	0.987344	-0.086620	0.169820
H62	H	1.034176	-0.185631	0.224101
H63	H	0.937320	-0.169589	0.222766
C64	C	0.864418	0.293150	0.374816
H65	H	0.872473	0.282921	0.311632
H66	H	0.873691	0.363203	0.384714
H67	H	0.808889	0.281730	0.391502
H68	H	0.403943	0.141554	0.138990
C69	C	0.864428	0.293148	0.576379
H70	H	0.872498	0.282940	0.641262
H71	H	0.808901	0.281733	0.561612
H72	H	0.873706	0.363203	0.554814
C73	C	0.391582	0.141301	-0.186344
H74	H	0.333718	0.140030	-0.174339
H75	H	0.411926	0.080449	-0.215441
H76	H	0.399671	0.202798	-0.225604
C77	C	0.573667	0.145319	0.162429
H78	H	0.631529	0.146611	0.150423
H79	H	0.565579	0.083831	0.201693
H80	H	0.553317	0.206180	0.191520
C81	C	0.982046	-0.389569	0.206885
H82	H	0.980771	-0.462610	0.201051
H83	H	0.933940	-0.363613	0.238892
H84	H	1.030796	-0.379654	0.240202
C85	C	0.979164	-0.553718	-0.211694
H86	H	0.977876	-0.626760	-0.193723
H87	H	1.027902	-0.543791	-0.246678
H88	H	0.931047	-0.527749	-0.247996
