data_functionalizedCrystal
_audit_creation_method	'MofGen! by Chris Wilmer'
_symmetry_space_group_name_H-M	'P1'
_symmetry_Int_Tables_number	1
_symmetry_cell_setting	triclinic
loop_
_symmetry_equiv_pos_as_xyz
  x,y,z
_cell_length_a	19.188925
_cell_length_b	19.188930
_cell_length_c	12.503572
_cell_angle_alpha	93.506241
_cell_angle_beta	86.492816
_cell_angle_gamma	83.143665
loop_
_atom_site_label
_atom_site_type_symbol
_atom_site_fract_x
_atom_site_fract_y
_atom_site_fract_z
O1	O	0.930187	0.083096	-0.089355
O2	O	0.726875	0.094835	-0.089354
O3	O	0.834398	-0.012689	-0.089334
O4	O	0.822665	0.190620	-0.089376
O5	O	0.826311	-0.004590	0.089307
O6	O	0.718789	0.102934	0.089286
O7	O	0.922101	0.091196	0.089285
Cu8	Cu	0.819707	0.097805	0.105597
Cu9	Cu	0.829270	0.088226	-0.105666
O10	O	0.814579	0.198720	0.089265
C11	C	0.696821	0.098505	-0.000033
C12	C	0.619316	0.097366	-0.000032
C13	C	0.057547	0.152829	-0.000046
C14	C	0.130370	0.153905	-0.000052
C15	C	0.175304	0.090814	-0.000037
C16	C	0.147410	0.026640	-0.000044
C17	C	0.074588	0.025565	-0.000048
N18	N	0.293228	0.047896	0.060783
N19	N	0.362405	0.048921	0.060790
C20	C	0.394713	0.094049	-0.000025
N21	N	0.355228	0.138123	-0.060833
N22	N	0.286044	0.137100	-0.060835
C23	C	0.254268	0.091972	-0.000032
C24	C	0.501562	0.159385	-0.000032
C25	C	0.574387	0.160458	-0.000045
C26	C	0.591426	0.033192	-0.000026
C27	C	0.518602	0.032120	-0.000024
C28	C	0.473674	0.095219	-0.000022
C29	C	0.829974	-0.034650	-0.000010
C30	C	0.828833	-0.112154	-0.000001
C31	C	0.891924	-0.157079	0.000004
C32	C	0.890853	-0.229904	-0.000014
C33	C	0.826687	-0.257799	-0.000014
C34	C	0.763588	-0.212865	-0.000025
C35	C	0.764661	-0.140042	-0.000018
N36	N	0.774887	-0.363047	0.060781
N37	N	0.773872	-0.432226	0.060777
C38	C	0.823450	-0.477209	-0.000036
N39	N	0.874091	-0.450401	-0.060831
N40	N	0.875108	-0.381216	-0.060823
C41	C	0.825516	-0.336762	-0.000022
C42	C	0.885384	-0.601099	-0.000051
C43	C	0.884310	-0.673925	-0.000075
C44	C	0.757043	-0.656884	-0.000075
C45	C	0.758119	-0.584060	-0.000062
C46	C	0.822291	-0.556172	-0.000045
C47	C	0.952155	0.087526	-0.000038
C48	C	1.029660	0.088664	-0.000046
C49	C	0.819002	0.220681	-0.000061
C50	C	0.820144	0.298185	-0.000077
N51	N	0.812986	0.104542	0.254188
N52	N	0.835996	0.081483	-0.254257
C53	C	0.803099	0.114458	0.473301
C54	C	0.845881	0.071570	0.526637
C55	C	0.840380	0.077087	0.648559
C56	C	0.808599	0.108941	0.351368
H57	H	0.184000	-0.024729	-0.000034
H58	H	0.944178	-0.134378	0.000014
N59	N	0.160461	0.223114	-0.000039
H60	H	0.193296	0.223400	-0.066257
H61	H	0.120910	0.262885	0.000002
N62	N	0.899873	0.017443	0.465842
H63	H	0.896203	0.021123	0.386100
H64	H	0.948528	0.026176	0.485422
N65	N	0.749111	0.168581	0.534096
H66	H	0.752787	0.164899	0.613836
H67	H	0.757983	0.217195	0.514498
H68	H	0.051885	-0.026687	-0.000049
H69	H	0.935689	-0.710503	-0.000077
N70	N	0.009085	0.220887	0.000050
H71	H	0.037804	0.261700	0.000080
H72	H	-0.018533	0.220260	-0.066145
N73	N	0.694383	-0.242954	-0.000017
H74	H	0.663753	-0.223559	0.066205
H75	H	0.669805	-0.229549	-0.066283
H76	H	0.464980	0.210764	-0.000033
H77	H	0.628011	-0.018179	-0.000022
H78	H	0.597090	0.212711	-0.000053
H79	H	0.942231	-0.266489	-0.000014
N80	N	0.488515	-0.037085	-0.000010
H81	H	0.507912	-0.067719	-0.066226
H82	H	0.501918	-0.061656	0.066262
N83	N	0.696611	-0.091582	-0.000024
H84	H	0.655797	-0.120301	-0.000031
H85	H	0.691286	-0.058004	0.066205
H86	H	0.937637	-0.578392	-0.000042
N87	N	0.687834	-0.686960	-0.000088
H88	H	0.696726	-0.739911	-0.000095
H89	H	0.657235	-0.667518	0.066136
N90	N	0.690068	-0.535601	-0.000043
H91	H	0.700484	-0.485236	-0.000037
H92	H	0.665089	-0.547602	-0.066267
