data_functionalizedCrystal
_audit_creation_method	'MofGen! by Chris Wilmer'
_symmetry_space_group_name_H-M	'P1'
_symmetry_Int_Tables_number	1
_symmetry_cell_setting	triclinic
loop_
_symmetry_equiv_pos_as_xyz
  x,y,z
_cell_length_a	29.839134
_cell_length_b	29.839131
_cell_length_c	18.101389
_cell_angle_alpha	89.978713
_cell_angle_beta	89.971270
_cell_angle_gamma	90.036281
loop_
_atom_site_label
_atom_site_type_symbol
_atom_site_fract_x
_atom_site_fract_y
_atom_site_fract_z
Zn1	Zn	0.686750	-0.178962	-0.418911
Zn2	Zn	1.186750	0.321038	0.081089
Zn3	Zn	0.686673	-0.254079	-0.295063
Zn4	Zn	1.186673	0.245921	0.204937
Zn5	Zn	0.611623	-0.178957	-0.295063
Zn6	Zn	1.111623	0.321043	0.204937
Zn7	Zn	0.611580	-0.254059	-0.418842
Zn8	Zn	1.111580	0.245941	0.081158
O9	O	0.649156	-0.216514	-0.356970
O10	O	1.149156	0.283486	0.143030
O11	O	0.749606	-0.188937	-0.402511
O12	O	1.249606	0.311063	0.097489
O13	O	0.676703	-0.244120	-0.191430
O14	O	1.176703	0.255880	0.308570
O15	O	0.621639	-0.116090	-0.311520
O16	O	1.121639	0.383910	0.188480
O17	O	0.749550	-0.244125	-0.311521
O18	O	1.249550	0.255875	0.188479
O19	O	0.676834	-0.116094	-0.402511
O20	O	1.176834	0.383906	0.097489
O21	O	0.621565	-0.188928	-0.191430
O22	O	1.121565	0.311072	0.308570
O23	O	0.548751	-0.188909	-0.311453
O24	O	1.048751	0.311091	0.188547
O25	O	0.621565	-0.244091	-0.522484
O26	O	1.121565	0.255909	-0.022484
O27	O	0.548719	-0.244086	-0.402394
O28	O	1.048719	0.255914	0.097606
O29	O	0.676792	-0.188918	-0.522535
O30	O	1.176792	0.311082	-0.022535
O31	O	0.676661	-0.316943	-0.311454
O32	O	1.176661	0.183057	0.188546
O33	O	0.621491	-0.316929	-0.402394
O34	O	1.121491	0.183071	0.097606
C35	C	0.532434	-0.216495	-0.356916
C36	C	1.032434	0.283505	0.143084
C37	C	0.482500	-0.216498	-0.356911
C38	C	0.982500	0.283502	0.143089
C39	C	0.172849	-0.245287	-0.404264
C40	C	0.672849	0.254713	0.095736
C41	C	-0.014824	-0.245300	-0.404297
C42	C	0.485176	0.254700	0.095703
O43	O	-0.039095	-0.269757	-0.444527
O44	O	0.460905	0.230243	0.055473
N45	N	-0.038286	-0.216531	-0.357025
N46	N	0.461714	0.283469	0.142975
C47	C	-0.014826	-0.187754	-0.309746
C48	C	0.485174	0.312246	0.190254
O49	O	-0.039088	-0.163281	-0.269544
O50	O	0.460912	0.336719	0.230456
C51	C	0.172846	-0.187739	-0.309717
C52	C	0.672846	0.312261	0.190283
C53	C	0.196305	-0.216514	-0.356986
C54	C	0.696305	0.283486	0.143014
C55	C	0.196308	-0.274059	-0.451531
C56	C	0.696308	0.225941	0.048469
C57	C	0.243224	-0.274058	-0.451519
C58	C	0.743224	0.225942	0.048481
C59	C	0.266680	-0.245284	-0.404241
C60	C	0.766680	0.254716	0.095759
C61	C	0.243221	-0.216512	-0.356975
C62	C	0.743221	0.283488	0.143025
C63	C	0.196305	-0.158961	-0.262441
C64	C	0.696305	0.341039	0.237559
C65	C	0.243226	-0.158959	-0.262440
C66	C	0.743226	0.341041	0.237560
C67	C	0.266685	-0.187733	-0.309709
C68	C	0.766685	0.312267	0.190291
C69	C	0.313593	-0.187737	-0.309685
C70	C	0.813593	0.312263	0.190315
N71	N	0.337054	-0.216506	-0.356957
N72	N	0.837054	0.283494	0.143043
C73	C	0.313598	-0.245280	-0.404235
C74	C	0.813598	0.254720	0.095765
C75	C	-0.113357	-0.187764	-0.309763
C76	C	0.386643	0.312236	0.190237
C77	C	-0.160274	-0.187768	-0.309769
C78	C	0.339726	0.312232	0.190231
C79	C	-0.160269	-0.245314	-0.404322
C80	C	0.339731	0.254686	0.095678
C81	C	-0.113351	-0.245312	-0.404311
C82	C	0.386649	0.254688	0.095689
C83	C	-0.089895	-0.216534	-0.357035
C84	C	0.410105	0.283466	0.142965
C85	C	0.412124	-0.245274	-0.404207
C86	C	0.912124	0.254726	0.095793
C87	C	0.459043	-0.245271	-0.404189
C88	C	0.959043	0.254729	0.095811
C89	C	0.459034	-0.187724	-0.309639
C90	C	0.959034	0.312276	0.190361
C91	C	0.412118	-0.187729	-0.309654
C92	C	0.912118	0.312271	0.190346
C93	C	0.388664	-0.216505	-0.356944
C94	C	0.888664	0.283495	0.143056
O95	O	0.337892	-0.163289	-0.269483
O96	O	0.837892	0.336711	0.230517
O97	O	0.337868	-0.269742	-0.444442
O98	O	0.837868	0.230258	0.055558
C99	C	0.125934	-0.245289	-0.404276
C100	C	0.625934	0.254711	0.095724
C101	C	0.102474	-0.216517	-0.357010
C102	C	0.602474	0.283483	0.142990
C103	C	0.125931	-0.187744	-0.309732
C104	C	0.625931	0.312256	0.190268
C105	C	0.055557	-0.216521	-0.357016
C106	C	0.555557	0.283479	0.142984
C107	C	0.032100	-0.245295	-0.404294
C108	C	0.532100	0.254705	0.095706
C109	C	0.055562	-0.274064	-0.451565
C110	C	0.555562	0.225936	0.048435
C111	C	0.102477	-0.274063	-0.451554
C112	C	0.602477	0.225937	0.048446
C113	C	0.102469	-0.158974	-0.262460
C114	C	0.602469	0.341026	0.237540
C115	C	0.055554	-0.158979	-0.262475
C116	C	0.555554	0.341021	0.237525
C117	C	0.032097	-0.187752	-0.309753
C118	C	0.532097	0.312248	0.190247
C119	C	0.649075	-0.333237	-0.356933
C120	C	1.149075	0.166763	0.143067
C121	C	0.649082	-0.383171	-0.356942
C122	C	1.149082	0.116829	0.143058
C123	C	0.677936	-0.692809	-0.309687
C124	C	1.177936	-0.192809	0.190313
C125	C	0.677991	-0.880482	-0.309715
C126	C	1.177991	-0.380482	0.190285
O127	O	0.702460	-0.904743	-0.269509
O128	O	1.202460	-0.404743	0.230491
N129	N	0.649250	-0.903956	-0.357026
N130	N	1.149250	-0.403956	0.142974
C131	C	0.620494	-0.880509	-0.404336
C132	C	1.120494	-0.380509	0.095664
O133	O	0.596052	-0.904781	-0.444582
O134	O	1.096052	-0.404781	0.055418
C135	C	0.620441	-0.692837	-0.404310
C136	C	1.120441	-0.192837	0.095690
C137	C	0.649182	-0.669365	-0.356991
C138	C	1.149182	-0.169365	0.143009
C139	C	0.706674	-0.669338	-0.262372
C140	C	1.206674	-0.169338	0.237628
C141	C	0.706658	-0.622423	-0.262363
C142	C	1.206658	-0.122423	0.237637
C143	C	0.677904	-0.598979	-0.309667
C144	C	1.177904	-0.098979	0.190333
C145	C	0.649166	-0.622450	-0.356982
C146	C	1.149166	-0.122450	0.143018
C147	C	0.591688	-0.669390	-0.451623
C148	C	1.091688	-0.169390	0.048377
C149	C	0.591678	-0.622469	-0.451614
C150	C	1.091678	-0.122469	0.048386
C151	C	0.620419	-0.598998	-0.404295
C152	C	1.120419	-0.098998	0.095705
C153	C	0.620396	-0.552090	-0.404277
C154	C	1.120396	-0.052090	0.095723
N155	N	0.649137	-0.528617	-0.356967
N156	N	1.149137	-0.028617	0.143033
C157	C	0.677892	-0.552061	-0.309662
C158	C	1.177892	-0.052061	0.190338
C159	C	0.620523	-0.979039	-0.404345
C160	C	1.120523	-0.479039	0.095655
C161	C	0.620536	-1.025957	-0.404350
C162	C	1.120536	-0.525957	0.095650
C163	C	0.678034	-1.025928	-0.309731
C164	C	1.178034	-0.525928	0.190269
C165	C	0.678019	-0.979009	-0.309722
C166	C	1.178019	-0.479009	0.190278
C167	C	0.649265	-0.955566	-0.357034
C168	C	1.149265	-0.455566	0.142966
C169	C	0.677856	-0.453535	-0.309645
C170	C	1.177856	0.046465	0.190355
C171	C	0.677836	-0.406615	-0.309637
C172	C	1.177836	0.093385	0.190363
C173	C	0.620340	-0.406649	-0.404259
C174	C	1.120340	0.093351	0.095741
C175	C	0.620358	-0.453564	-0.404264
C176	C	1.120358	0.046436	0.095736
C177	C	0.649119	-0.477006	-0.356955
C178	C	1.149119	0.022994	0.143045
O179	O	0.595943	-0.527801	-0.444468
O180	O	1.095943	-0.027801	0.055532
O181	O	0.702337	-0.527781	-0.269433
O182	O	1.202337	-0.027781	0.230567
C183	C	0.677952	-0.739725	-0.309696
C184	C	1.177952	-0.239725	0.190304
C185	C	0.649213	-0.763196	-0.357010
C186	C	1.149213	-0.263196	0.142990
C187	C	0.620459	-0.739752	-0.404315
C188	C	1.120459	-0.239752	0.095685
C189	C	0.649226	-0.810114	-0.357016
C190	C	1.149226	-0.310114	0.142984
C191	C	0.677980	-0.833558	-0.309711
C192	C	1.177980	-0.333558	0.190289
C193	C	0.706722	-0.810084	-0.262401
C194	C	1.206722	-0.310084	0.237599
C195	C	0.706706	-0.763169	-0.262391
C196	C	1.206706	-0.263169	0.237609
C197	C	0.591717	-0.763226	-0.451625
C198	C	1.091717	-0.263226	0.048375
C199	C	0.591735	-0.810141	-0.451631
C200	C	1.091735	-0.310141	0.048369
C201	C	0.620490	-0.833585	-0.404326
C202	C	1.120490	-0.333585	0.095674
C203	C	0.766335	-0.216534	-0.357024
C204	C	1.266335	0.283466	0.142976
C205	C	0.816269	-0.216542	-0.357047
C206	C	1.316269	0.283458	0.142953
C207	C	0.649182	-0.216503	-0.550132
C208	C	1.149182	0.283497	-0.050132
C209	C	0.649194	-0.216498	-0.632446
C210	C	1.149194	0.283502	-0.132446
C211	C	0.649250	-0.099336	-0.357023
C212	C	1.149250	0.400664	0.142977
C213	C	0.649290	-0.049401	-0.357045
C214	C	1.149290	0.450599	0.142955
C215	C	0.649220	-0.216414	-0.931537
C216	C	1.149220	0.283586	-0.431537
C217	C	0.614353	-0.251017	-0.900180
C218	C	1.114353	0.248983	-0.400180
C219	C	0.614447	-0.251177	-0.814562
C220	C	1.114447	0.248823	-0.314562
C221	C	0.649206	-0.216456	-0.783154
C222	C	1.149206	0.283544	-0.283154
C223	C	0.696537	-0.229311	-0.814265
C224	C	1.196537	0.270689	-0.314265
C225	C	0.696342	-0.229538	-0.899910
C226	C	1.196342	0.270462	-0.399910
C227	C	0.637168	-0.168878	-0.899964
C228	C	1.137168	0.331122	-0.399964
C229	C	0.636114	-0.169153	-0.814313
C230	C	1.136114	0.330847	-0.314313
C231	C	0.649202	-0.216478	-0.699295
C232	C	1.149202	0.283522	-0.199295
C233	C	0.649228	-0.216392	-1.015397
C234	C	1.149228	0.283608	-0.515397
C235	C	0.649156	-0.216493	-0.164559
C236	C	1.149156	0.283507	0.335441
C237	C	0.649233	-0.216371	-0.082246
C238	C	1.149233	0.283629	0.417754
H239	H	0.036457	-0.135548	-0.223975
H240	H	0.536457	0.364452	0.276025
F241	F	0.670361	-0.135180	-0.926471
F242	F	1.170361	0.364820	-0.426471
H243	H	0.622403	-0.286412	-0.794077
H244	H	1.122403	0.213588	-0.294077
F245	F	0.568572	-0.240660	-0.787063
F246	F	1.068572	0.259340	-0.287063
F247	F	0.127438	-0.304689	-0.501865
F248	F	0.627438	0.195311	-0.001865
H249	H	-0.094263	-0.164329	-0.271261
H250	H	0.405737	0.335671	0.228739
H251	H	0.568303	-0.744141	-0.490148
H252	H	1.068303	-0.244141	0.009852
F253	F	0.737253	-0.597449	-0.212008
F254	F	1.237253	-0.097449	0.287992
F255	F	0.484007	-0.275899	-0.454500
F256	F	0.984007	0.224101	0.045500
F257	F	0.568338	-0.240608	-0.927075
F258	F	1.068338	0.259392	-0.427075
H259	H	0.622230	-0.286037	-0.921704
H260	H	1.122230	0.213963	-0.421704
H261	H	-0.094253	-0.268742	-0.442804
H262	H	0.405747	0.231258	0.057196
H263	H	-0.179375	-0.268743	-0.442817
H264	H	0.320625	0.231257	0.057183
H265	H	0.478141	-0.164299	-0.271144
H266	H	0.978141	0.335701	0.228856
H267	H	0.121563	-0.135543	-0.223960
H268	H	0.621563	0.364457	0.276040
F269	F	0.708427	-0.381638	-0.259272
F270	F	1.208427	0.118362	0.240728
H271	H	0.036455	-0.297494	-0.490059
H272	H	0.536455	0.202506	0.009941
F273	F	0.708635	-1.050887	-0.259383
F274	F	1.208635	-0.550887	0.240617
F275	F	0.709698	-0.274957	-0.926030
F276	F	1.209698	0.225043	-0.426030
H277	H	0.568264	-0.603384	-0.490144
H278	H	1.068264	-0.103384	0.009856
F279	F	0.708467	-0.478477	-0.259292
F280	F	1.208467	0.021523	0.240708
F281	F	0.737282	-0.694282	-0.212021
F282	F	1.237282	-0.194282	0.287979
F283	F	0.589761	-0.478545	-0.454612
F284	F	1.089761	0.021455	0.045388
F285	F	0.589941	-1.050932	-0.454705
F286	F	1.089941	-0.550932	0.045295
H287	H	0.723201	-0.205429	-0.920656
H288	H	1.223201	0.294571	-0.420656
F289	F	0.708608	-0.954033	-0.259360
F290	F	1.208608	-0.454033	0.240640
F291	F	0.589917	-0.954095	-0.454703
F292	F	1.089917	-0.454095	0.045297
H293	H	0.723212	-0.204899	-0.793924
H294	H	1.223212	0.295101	-0.293924
F295	F	0.387169	-0.275902	-0.454538
F296	F	0.887169	0.224098	0.045462
F297	F	0.592840	-0.153571	-0.928171
F298	F	1.092840	0.346429	-0.428171
H299	H	0.601283	-0.159459	-0.793977
H300	H	1.101283	0.340541	-0.293977
H301	H	0.706932	-0.263690	-0.792821
H302	H	1.206932	0.236310	-0.292821
H303	H	0.393017	-0.164299	-0.271162
H304	H	0.893017	0.335701	0.228838
H305	H	-0.179371	-0.164342	-0.271270
H306	H	0.320629	0.335658	0.228730
H307	H	0.262320	-0.297488	-0.490012
H308	H	0.762320	0.202512	0.009988
F309	F	0.171351	-0.304686	-0.501855
F310	F	0.671351	0.195314	-0.001855
H311	H	0.262321	-0.135521	-0.223945
H312	H	0.762321	0.364479	0.276055
F313	F	0.171348	-0.128332	-0.212133
F314	F	0.671348	0.371668	0.287867
H315	H	0.659657	-0.142003	-0.792934
H316	H	1.159657	0.357997	-0.292934
H317	H	0.568283	-0.688492	-0.490152
H318	H	1.068283	-0.188492	0.009848
H319	H	0.596927	-0.387553	-0.442772
H320	H	1.096927	0.112447	0.057228
H321	H	0.568327	-0.829248	-0.490162
H322	H	1.068327	-0.329248	0.009838
F323	F	0.737297	-0.738195	-0.212030
F324	F	1.237297	-0.238195	0.287970
H325	H	0.730133	-0.829181	-0.223882
H326	H	1.230133	-0.329181	0.276118
