data_functionalizedCrystal
_audit_creation_method	'MofGen! by Chris Wilmer'
_symmetry_space_group_name_H-M	'P1'
_symmetry_Int_Tables_number	1
_symmetry_cell_setting	triclinic
loop_
_symmetry_equiv_pos_as_xyz
  x,y,z
_cell_length_a	18.215407
_cell_length_b	19.805405
_cell_length_c	18.215399
_cell_angle_alpha	90.028795
_cell_angle_beta	89.982632
_cell_angle_gamma	89.974829
loop_
_atom_site_label
_atom_site_type_symbol
_atom_site_fract_x
_atom_site_fract_y
_atom_site_fract_z
Zn1	Zn	1.125057	0.269516	-0.416063
Zn2	Zn	1.458391	0.602850	-0.082730
Zn3	Zn	1.791724	0.936183	0.250604
Zn4	Zn	1.124960	0.382707	-0.292995
Zn5	Zn	1.458293	0.716041	0.040338
Zn6	Zn	1.791626	1.049374	0.373672
Zn7	Zn	1.001990	0.269533	-0.293016
Zn8	Zn	1.335323	0.602866	0.040318
Zn9	Zn	1.668657	0.936199	0.373651
Zn10	Zn	1.001950	0.382664	-0.416025
Zn11	Zn	1.335283	0.715997	-0.082692
Zn12	Zn	1.668616	1.049330	0.250641
O13	O	1.063489	0.326105	-0.354525
O14	O	1.396823	0.659438	-0.021191
O15	O	1.730156	0.992772	0.312142
O16	O	1.228029	0.284543	-0.399745
O17	O	1.561362	0.617876	-0.066412
O18	O	1.894695	0.951209	0.266922
O19	O	1.108623	0.367719	-0.190013
O20	O	1.441957	0.701053	0.143320
O21	O	1.775290	1.034386	0.476653
O22	O	1.018373	0.174814	-0.309363
O23	O	1.351706	0.508147	0.023971
O24	O	1.685039	0.841480	0.357304
O25	O	1.227957	0.367704	-0.309327
O26	O	1.561290	0.701037	0.024006
O27	O	1.894624	1.034370	0.357339
O28	O	1.108790	0.174802	-0.399765
O29	O	1.442123	0.508135	-0.066432
O30	O	1.775457	0.841469	0.266901
O31	O	1.018278	0.284570	-0.190029
O32	O	1.351611	0.617904	0.143305
O33	O	1.684945	0.951237	0.476638
O34	O	0.899000	0.284528	-0.309326
O35	O	1.232334	0.617861	0.024007
O36	O	1.565667	0.951195	0.357341
O37	O	1.018304	0.367629	-0.519015
O38	O	1.351638	0.700963	-0.185681
O39	O	1.684971	1.034296	0.147652
O40	O	0.898971	0.367645	-0.399701
O41	O	1.232304	0.700978	-0.066367
O42	O	1.565637	1.034312	0.266966
O43	O	1.108751	0.284501	-0.519042
O44	O	1.442084	0.617834	-0.185709
O45	O	1.775418	0.951167	0.147624
O46	O	1.108584	0.477418	-0.309291
O47	O	1.441918	0.810751	0.024043
O48	O	1.775251	1.144085	0.357376
O49	O	1.018210	0.477386	-0.399680
O50	O	1.351543	0.810719	-0.066347
O51	O	1.684876	1.144053	0.266986
C52	C	0.872283	0.326084	-0.354512
C53	C	1.205616	0.659417	-0.021179
C54	C	1.538950	0.992751	0.312155
C55	C	0.790484	0.326092	-0.354524
C56	C	1.123817	0.659425	-0.021191
C57	C	1.457151	0.992758	0.312143
C58	C	0.602326	0.282879	-0.401679
C59	C	0.935660	0.616212	-0.068345
C60	C	1.268993	0.949545	0.264988
C61	C	0.525468	0.282885	-0.401681
C62	C	0.858801	0.616218	-0.068348
C63	C	1.192134	0.949551	0.264986
C64	C	0.525404	0.369350	-0.307384
C65	C	0.858737	0.702683	0.025949
C66	C	1.192071	1.036017	0.359283
C67	C	0.602261	0.369340	-0.307378
C68	C	0.935595	0.702674	0.025955
C69	C	1.268928	1.036007	0.359288
C70	C	0.640721	0.326106	-0.354530
C71	C	0.974054	0.659439	-0.021196
C72	C	1.307387	0.992772	0.312137
C73	C	0.487004	0.326121	-0.354538
C74	C	0.820338	0.659455	-0.021205
C75	C	1.153671	0.992788	0.312129
C76	C	0.403671	0.326128	-0.354540
C77	C	0.737004	0.659461	-0.021207
C78	C	1.070337	0.992795	0.312126
C79	C	0.724060	0.326098	-0.354527
C80	C	1.057393	0.659431	-0.021193
C81	C	1.390726	0.992765	0.312140
C82	C	1.063402	0.501961	-0.354495
C83	C	1.396735	0.835294	-0.021162
C84	C	1.730069	1.168628	0.312171
C85	C	1.063432	0.577193	-0.354507
C86	C	1.396765	0.910526	-0.021174
C87	C	1.730099	1.243860	0.312159
C88	C	1.110535	0.612531	-0.307492
C89	C	1.443868	0.945865	0.025842
C90	C	1.777202	1.279198	0.359175
C91	C	1.110565	0.683220	-0.307510
C92	C	1.443898	1.016553	0.025823
C93	C	1.777231	1.349886	0.359156
C94	C	1.063487	0.718569	-0.354541
C95	C	1.396820	1.051902	-0.021208
C96	C	1.730153	1.385235	0.312125
C97	C	1.016382	0.683225	-0.401562
C98	C	1.349715	1.016559	-0.068229
C99	C	1.683048	1.349892	0.265105
C100	C	1.016356	0.612538	-0.401547
C101	C	1.349690	0.945871	-0.068213
C102	C	1.683023	1.279205	0.265120
C103	C	1.016483	0.968298	-0.401626
C104	C	1.349816	1.301632	-0.068293
C105	C	1.683150	1.634965	0.265040
C106	C	1.016510	1.038991	-0.401637
C107	C	1.349844	1.372324	-0.068303
C108	C	1.683177	1.705657	0.265030
C109	C	1.110691	1.038980	-0.307590
C110	C	1.444024	1.372313	0.025743
C111	C	1.777358	1.705647	0.359076
C112	C	1.110666	0.968293	-0.307575
C113	C	1.443999	1.301626	0.025759
C114	C	1.777333	1.634960	0.359092
C115	C	1.063564	0.932956	-0.354598
C116	C	1.396897	1.266289	-0.021264
C117	C	1.730231	1.599623	0.312069
C118	C	1.063533	0.856307	-0.354578
C119	C	1.396867	1.189641	-0.021245
C120	C	1.730200	1.522974	0.312089
C121	C	1.063513	0.795216	-0.354558
C122	C	1.396846	1.128549	-0.021225
C123	C	1.730180	1.461882	0.312109
C124	C	1.255442	0.326126	-0.354538
C125	C	1.588775	0.659460	-0.021205
C126	C	1.922109	0.992793	0.312129
C127	C	1.337241	0.326135	-0.354544
C128	C	1.670574	0.659469	-0.021211
C129	C	2.003908	0.992802	0.312123
C130	C	1.063534	0.326058	-0.546478
C131	C	1.396867	0.659392	-0.213144
C132	C	1.730201	0.992725	0.120189
C133	C	1.063553	0.326038	-0.628277
C134	C	1.396886	0.659372	-0.294943
C135	C	1.730220	0.992705	0.038390
C136	C	1.063590	1.149562	-0.354579
C137	C	1.396924	1.482896	-0.021246
C138	C	1.730257	1.816229	0.312087
C139	C	1.063618	1.074330	-0.354624
C140	C	1.396951	1.407664	-0.021291
C141	C	1.730284	1.740997	0.312042
C142	C	1.110666	0.282713	-0.816486
C143	C	1.443999	0.616046	-0.483153
C144	C	1.777332	0.949379	-0.149820
C145	C	1.110674	0.282693	-0.893345
C146	C	1.444008	0.616026	-0.560012
C147	C	1.777341	0.949360	-0.226679
C148	C	1.016493	0.369259	-0.893305
C149	C	1.349826	0.702593	-0.559972
C150	C	1.683159	1.035926	-0.226638
C151	C	1.016481	0.369275	-0.816448
C152	C	1.349814	0.702609	-0.483114
C153	C	1.683147	1.035942	-0.149781
C154	C	1.063571	0.326003	-0.778040
C155	C	1.396905	0.659336	-0.444707
C156	C	1.730238	0.992670	-0.111374
C157	C	1.063592	0.325967	-0.931756
C158	C	1.396925	0.659301	-0.598423
C159	C	1.730259	0.992634	-0.265090
C160	C	1.063601	0.325946	-1.015090
C161	C	1.396935	0.659280	-0.681757
C162	C	1.730268	0.992613	-0.348424
C163	C	1.063561	0.326023	-0.694701
C164	C	1.396895	0.659356	-0.361368
C165	C	1.730228	0.992690	-0.028035
C166	C	1.063487	0.326103	-0.163319
C167	C	1.396820	0.659436	0.170015
C168	C	1.730154	0.992769	0.503348
C169	C	1.063610	0.325932	-0.081520
C170	C	1.396944	0.659265	0.251813
C171	C	1.730277	0.992598	0.585147
H172	H	0.633523	0.404542	-0.268980
H173	H	0.966856	0.737875	0.064353
H174	H	1.300189	1.071208	0.397687
C175	C	0.483238	0.235333	-0.453551
C176	C	0.816571	0.568667	-0.120217
C177	C	1.149904	0.902000	0.213116
N178	N	0.451431	0.199516	-0.492622
N179	N	0.784764	0.532849	-0.159288
N180	N	1.118097	0.866182	0.174045
H181	H	0.978126	0.404527	-0.785144
H182	H	1.311459	0.737860	-0.451811
H183	H	1.644792	1.071193	-0.118477
C184	C	0.483092	0.416910	-0.255525
C185	C	0.816425	0.750243	0.077809
C186	C	1.149758	1.083577	0.411142
N187	N	0.451223	0.452735	-0.216465
N188	N	0.784556	0.786068	0.116868
N189	N	1.117889	1.119402	0.450202
H190	H	0.978053	0.712012	-0.439859
H191	H	1.311387	1.045345	-0.106525
H192	H	1.644720	1.378678	0.226808
C193	C	1.162324	0.573654	-0.255751
C194	C	1.495657	0.906988	0.077582
C195	C	1.828990	1.240321	0.410915
N196	N	1.201334	0.544374	-0.216780
N197	N	1.534667	0.877707	0.116553
N198	N	1.868001	1.211041	0.449886
H199	H	0.978001	0.583766	-0.439832
H200	H	1.311335	0.917100	-0.106499
H201	H	1.644668	1.250433	0.226834
H202	H	0.978155	0.404492	-0.924586
H203	H	1.311488	0.737825	-0.591252
H204	H	1.644821	1.071158	-0.257919
H205	H	1.148920	0.711989	-0.269225
H206	H	1.482253	1.045322	0.064108
H207	H	1.815587	1.378656	0.397441
H208	H	1.149008	0.247476	-0.785217
H209	H	1.482341	0.580809	-0.451884
H210	H	1.815675	0.914142	-0.118551
H211	H	0.633638	0.247672	-0.440070
H212	H	0.966971	0.581006	-0.106737
H213	H	1.300304	0.914339	0.226597
C214	C	1.162448	0.929413	-0.255831
C215	C	1.495782	1.262747	0.077503
C216	C	1.829115	1.596080	0.410836
N217	N	1.201452	0.900130	-0.216855
N218	N	1.534785	1.233463	0.116478
N219	N	1.868119	1.566797	0.449811
H220	H	1.149047	1.067760	-0.269305
H221	H	1.482380	1.401093	0.064029
H222	H	1.815713	1.734427	0.397362
C223	C	0.964707	0.929437	-0.453391
C224	C	1.298040	1.262770	-0.120057
C225	C	1.631374	1.596103	0.213276
N226	N	0.925720	0.900164	-0.492396
N227	N	1.259054	1.233497	-0.159063
N228	N	1.592387	1.566830	0.174270
C229	C	0.964722	1.077873	-0.453381
C230	C	1.298056	1.411206	-0.120048
C231	C	1.631389	1.744539	0.213286
N232	N	0.925718	1.107159	-0.492353
N233	N	1.259051	1.440492	-0.159019
N234	N	1.592385	1.773826	0.174314
H235	H	1.149022	0.247441	-0.924645
H236	H	1.482355	0.580774	-0.591311
H237	H	1.815689	0.914107	-0.257978
