data_functionalizedCrystal
_audit_creation_method	'MofGen! by Chris Wilmer'
_symmetry_space_group_name_H-M	'P1'
_symmetry_Int_Tables_number	1
_symmetry_cell_setting	triclinic
loop_
_symmetry_equiv_pos_as_xyz
  x,y,z
_cell_length_a	16.959455
_cell_length_b	16.625546
_cell_length_c	16.625548
_cell_angle_alpha	90.011514
_cell_angle_beta	90.003642
_cell_angle_gamma	90.019415
loop_
_atom_site_label
_atom_site_type_symbol
_atom_site_fract_x
_atom_site_fract_y
_atom_site_fract_z
Zn1	Zn	1.208287	-0.321216	0.455873
Zn2	Zn	1.541621	0.012117	0.789207
Zn3	Zn	1.874954	0.345451	1.122540
Zn4	Zn	1.208229	-0.456015	0.321036
Zn5	Zn	1.541562	-0.122681	0.654369
Zn6	Zn	1.874896	0.210652	0.987703
Zn7	Zn	1.076140	-0.321193	0.321057
Zn8	Zn	1.409474	0.012141	0.654390
Zn9	Zn	1.742807	0.345474	0.987723
Zn10	Zn	1.076075	-0.456003	0.455828
Zn11	Zn	1.409408	-0.122670	0.789162
Zn12	Zn	1.742742	0.210663	1.122495
O13	O	1.142183	-0.388607	0.388449
O14	O	1.475516	-0.055273	0.721782
O15	O	1.808850	0.278060	1.055115
O16	O	1.318890	-0.339112	0.437997
O17	O	1.652224	-0.005779	0.771331
O18	O	1.985557	0.327555	1.104664
O19	O	1.190710	-0.438125	0.208206
O20	O	1.524043	-0.104792	0.541540
O21	O	1.857377	0.228541	0.874873
O22	O	1.093722	-0.208363	0.338968
O23	O	1.427055	0.124970	0.672301
O24	O	1.760388	0.458303	1.005635
O25	O	1.318847	-0.438148	0.338933
O26	O	1.652181	-0.104815	0.672266
O27	O	1.985514	0.228519	1.005599
O28	O	1.190810	-0.208381	0.438017
O29	O	1.524143	0.124953	0.771351
O30	O	1.857476	0.458286	1.104684
O31	O	1.093665	-0.339072	0.208222
O32	O	1.426999	-0.005739	0.541555
O33	O	1.760332	0.327594	0.874888
O34	O	0.965521	-0.339061	0.338924
O35	O	1.298854	-0.005728	0.672258
O36	O	1.632187	0.327606	1.005591
O37	O	1.093610	-0.438128	0.568667
O38	O	1.426943	-0.104795	0.902000
O39	O	1.760277	0.228538	1.235333
O40	O	0.965473	-0.438106	0.437940
O41	O	1.298806	-0.104772	0.771274
O42	O	1.632139	0.228561	1.104607
O43	O	1.190746	-0.339101	0.568700
O44	O	1.524079	-0.005768	0.902033
O45	O	1.857413	0.327566	1.235367
O46	O	1.190647	-0.568846	0.338889
O47	O	1.523980	-0.235512	0.672222
O48	O	1.857313	0.097821	1.005555
O49	O	1.093554	-0.568837	0.437920
O50	O	1.426887	-0.235504	0.771253
O51	O	1.760220	0.097829	1.104587
C52	C	0.936817	-0.388580	0.388430
C53	C	1.270150	-0.055247	0.721763
C54	C	1.603483	0.278087	1.055097
C55	C	0.848960	-0.388588	0.388441
C56	C	1.182293	-0.055255	0.721775
C57	C	1.515627	0.278078	1.055108
C58	C	0.477485	-0.336992	0.336999
C59	C	0.810818	-0.003659	0.670332
C60	C	1.144152	0.329675	1.003665
C61	C	0.477484	-0.440288	0.439945
C62	C	0.810817	-0.106955	0.773278
C63	C	1.144150	0.226379	1.106611
C64	C	0.560030	-0.440276	0.439940
C65	C	0.893363	-0.106943	0.773273
C66	C	1.226696	0.226390	1.106606
C67	C	0.601307	-0.388623	0.388463
C68	C	0.934640	-0.055289	0.721796
C69	C	1.267974	0.278044	1.055129
C70	C	0.560039	-0.336981	0.336990
C71	C	0.893372	-0.003647	0.670324
C72	C	1.226705	0.329686	1.003657
C73	C	0.601304	-0.491923	0.491405
C74	C	0.934638	-0.158590	0.824739
C75	C	1.267971	0.174743	1.158072
C76	C	0.683855	-0.491914	0.491402
C77	C	1.017189	-0.158581	0.824735
C78	C	1.350522	0.174752	1.158068
C79	C	0.725134	-0.440256	0.439928
C80	C	1.058467	-0.106923	0.773261
C81	C	1.391801	0.226411	1.106595
C82	C	0.683861	-0.388611	0.388454
C83	C	1.017194	-0.055278	0.721788
C84	C	1.350527	0.278055	1.055121
C85	C	0.725138	-0.336957	0.336977
C86	C	1.058471	-0.003624	0.670311
C87	C	1.391805	0.329709	1.003644
C88	C	0.683866	-0.285308	0.285507
C89	C	1.017199	0.048025	0.618840
C90	C	1.350533	0.381359	0.952174
C91	C	0.601317	-0.285322	0.285517
C92	C	0.934651	0.048011	0.618850
C93	C	1.267984	0.381345	0.952183
C94	C	0.807683	-0.440242	0.439918
C95	C	1.141016	-0.106909	0.773252
C96	C	1.474349	0.226425	1.106585
C97	C	0.807692	-0.336946	0.336969
C98	C	1.141025	-0.003613	0.670302
C99	C	1.474358	0.329721	1.003636
C100	C	1.142108	-0.598098	0.388415
C101	C	1.475441	-0.264764	0.721748
C102	C	1.808775	0.068569	1.055081
C103	C	1.142148	-0.687719	0.388427
C104	C	1.475482	-0.354385	0.721761
C105	C	1.808815	-0.021052	1.055094
C106	C	1.142286	-1.015894	0.388511
C107	C	1.475620	-0.682561	0.721845
C108	C	1.808953	-0.349228	1.055178
C109	C	1.142245	-0.924586	0.388490
C110	C	1.475579	-0.591253	0.721824
C111	C	1.808912	-0.257919	1.055157
C112	C	1.142217	-0.851809	0.388469
C113	C	1.475550	-0.518476	0.721802
C114	C	1.808883	-0.185143	1.055136
C115	C	1.142177	-0.760495	0.388449
C116	C	1.475510	-0.427162	0.721782
C117	C	1.808844	-0.093828	1.055115
C118	C	1.348351	-0.388634	0.388468
C119	C	1.681684	-0.055301	0.721801
C120	C	2.015018	0.278033	1.055134
C121	C	1.436208	-0.388646	0.388476
C122	C	1.769541	-0.055312	0.721809
C123	C	2.102874	0.278021	1.055142
C124	C	1.142177	-0.388616	0.598757
C125	C	1.475511	-0.055283	0.932091
C126	C	1.808844	0.278051	1.265424
C127	C	1.142175	-0.388620	0.688379
C128	C	1.475508	-0.055287	1.021712
C129	C	1.808842	0.278047	1.355045
C130	C	1.142279	-0.178298	0.388500
C131	C	1.475613	0.155035	0.721833
C132	C	1.808946	0.488369	1.055167
C133	C	1.142321	-0.088677	0.388522
C134	C	1.475654	0.244657	0.721855
C135	C	1.808987	0.577990	1.055189
C136	C	1.142172	-0.388624	0.761161
C137	C	1.475506	-0.055290	1.094494
C138	C	1.808839	0.278043	1.427828
C139	C	1.142172	-0.388621	0.852469
C140	C	1.475505	-0.055288	1.185803
C141	C	1.808838	0.278046	1.519136
C142	C	1.142175	-0.388614	0.925246
C143	C	1.475508	-0.055281	1.258579
C144	C	1.808842	0.278053	1.591913
C145	C	1.142175	-0.388612	1.016560
C146	C	1.475509	-0.055279	1.349893
C147	C	1.808842	0.278055	1.683227
C148	C	1.142181	-0.388614	1.178958
C149	C	1.475514	-0.055281	1.512291
C150	C	1.808848	0.278053	1.845624
C151	C	1.142179	-0.388605	1.089337
C152	C	1.475512	-0.055272	1.422670
C153	C	1.808845	0.278061	1.756003
H154	H	0.717485	-0.243255	0.243591
H155	H	1.050818	0.090078	0.576924
H156	H	1.384151	0.423412	0.910257
H157	H	0.567690	-0.533983	0.533309
H158	H	0.901024	-0.200649	0.866643
H159	H	1.234357	0.132684	1.199976
Cl160	Cl	0.549428	-0.220399	0.220817
Cl161	Cl	0.882762	0.112935	0.554150
Cl162	Cl	1.216095	0.446268	0.887483
H163	H	0.841294	-0.294878	0.295054
H164	H	1.174627	0.038456	0.628388
H165	H	1.507960	0.371789	0.961721
Cl166	Cl	0.425591	-0.505237	0.504638
Cl167	Cl	0.758925	-0.171904	0.837971
Cl168	Cl	1.092258	0.161429	1.171305
H169	H	0.443878	-0.294938	0.295095
H170	H	0.777211	0.038395	0.628428
H171	H	1.110544	0.371729	0.961762
Cl172	Cl	0.735733	-0.556841	0.556108
Cl173	Cl	1.069066	-0.223508	0.889442
Cl174	Cl	1.402399	0.109825	1.222775
H175	H	0.841283	-0.482297	0.481822
H176	H	1.174616	-0.148963	0.815156
H177	H	1.507949	0.184370	1.148489
