data_functionalizedCrystal
_audit_creation_method	'MofGen! by Chris Wilmer'
_symmetry_space_group_name_H-M	'P1'
_symmetry_Int_Tables_number	1
_symmetry_cell_setting	triclinic
loop_
_symmetry_equiv_pos_as_xyz
  x,y,z
_cell_length_a	14.519709
_cell_length_b	19.188930
_cell_length_c	12.996460
_cell_angle_alpha	89.988736
_cell_angle_beta	90.000034
_cell_angle_gamma	83.412464
loop_
_atom_site_label
_atom_site_type_symbol
_atom_site_fract_x
_atom_site_fract_y
_atom_site_fract_z
O1	O	1.223300	0.091525	-0.085445
O2	O	1.723300	0.591525	0.414555
O3	O	0.954756	0.102303	-0.085478
O4	O	1.454756	0.602303	0.414522
O5	O	1.096778	-0.004714	-0.085440
O6	O	1.596778	0.495286	0.414560
O7	O	1.081279	0.198542	-0.085482
O8	O	1.581279	0.698542	0.414518
O9	O	1.096763	-0.004720	0.085693
O10	O	1.596763	0.495280	0.585693
O11	O	0.954742	0.102297	0.085656
O12	O	1.454742	0.602297	0.585656
O13	O	1.223285	0.091519	0.085689
O14	O	1.723285	0.591519	0.585689
Cu15	Cu	1.089012	0.096907	0.101298
Cu16	Cu	1.589012	0.596907	0.601298
Cu17	Cu	1.089030	0.096914	-0.101087
Cu18	Cu	1.589030	0.596914	0.398913
O19	O	1.081264	0.198536	0.085651
O20	O	1.581264	0.698536	0.585651
C21	C	0.920392	0.101797	0.000085
C22	C	1.420392	0.601797	0.500085
C23	C	0.818020	0.100292	0.000073
C24	C	1.318020	0.600292	0.500073
C25	C	0.443159	0.094751	0.000121
C26	C	0.943159	0.594751	0.500121
C27	C	0.547457	0.096290	0.000108
C28	C	1.047457	0.596290	0.500108
C29	C	0.630586	0.097521	0.000097
C30	C	1.130586	0.597521	0.500097
C31	C	0.734891	0.099060	0.000085
C32	C	1.234891	0.599060	0.500085
C33	C	1.096269	-0.030730	0.000129
C34	C	1.596269	0.469270	0.500129
C35	C	1.094762	-0.108240	0.000138
C36	C	1.594762	0.391760	0.500138
C37	C	1.178095	-0.152867	0.000153
C38	C	1.678095	0.347133	0.500153
C39	C	1.176680	-0.225696	0.000137
C40	C	1.676680	0.274304	0.500137
C41	C	1.091926	-0.253895	0.000125
C42	C	1.591926	0.246105	0.500125
C43	C	1.008582	-0.209257	0.000105
C44	C	1.508582	0.290743	0.500105
C45	C	1.009999	-0.136430	0.000111
C46	C	1.509999	0.363570	0.500111
N47	N	1.027137	-0.362132	0.058358
N48	N	1.527137	0.137868	0.558358
N49	N	1.025796	-0.431316	0.058354
N50	N	1.525796	0.068684	0.558354
C51	C	1.087649	-0.473318	0.000104
C52	C	1.587649	0.026682	0.500104
N53	N	1.150908	-0.443526	-0.058129
N54	N	1.650908	0.056474	0.441871
N55	N	1.152252	-0.374336	-0.058120
N56	N	1.652252	0.125664	0.441880
C57	C	1.090379	-0.332863	0.000118
C58	C	1.590379	0.167137	0.500118
C59	C	1.169454	-0.596916	0.000100
C60	C	1.669454	-0.096916	0.500100
C61	C	1.168035	-0.669745	0.000077
C62	C	1.668035	-0.169745	0.500077
C63	C	0.999934	-0.653305	0.000055
C64	C	1.499934	-0.153305	0.500055
C65	C	1.001355	-0.580477	0.000068
C66	C	1.501355	-0.080477	0.500068
C67	C	1.086118	-0.552287	0.000095
C68	C	1.586118	-0.052287	0.500095
C69	C	1.257649	0.092024	0.000124
C70	C	1.757649	0.592024	0.500124
C71	C	1.360021	0.093529	0.000128
C72	C	1.860021	0.593529	0.500128
C73	C	1.081773	0.224551	0.000079
C74	C	1.581773	0.724551	0.500079
C75	C	1.083280	0.302061	0.000064
C76	C	1.583280	0.802061	0.500064
N77	N	1.089007	0.096902	0.243645
N78	N	1.589007	0.596902	0.743645
N79	N	1.089042	0.096914	-0.243434
N80	N	1.589042	0.596914	0.256566
C81	C	1.089028	0.096915	0.663460
C82	C	1.589028	0.596915	1.163460
C83	C	1.089020	0.096914	0.546655
C84	C	1.589020	0.596914	1.046655
C85	C	1.089018	0.096909	0.453556
C86	C	1.589018	0.596909	0.953556
C87	C	1.089008	0.096906	0.336744
C88	C	1.589008	0.596906	0.836744
H89	H	1.247116	-0.129920	0.000172
H90	H	1.747116	0.370080	0.500172
H91	H	1.244542	-0.262039	0.000145
H92	H	1.744542	0.237961	0.500145
N93	N	1.257922	-0.717881	0.000101
N94	N	1.757922	-0.217881	0.500101
H95	H	1.244165	-0.768295	0.000088
H96	H	1.744165	-0.268295	0.500088
H97	H	1.294885	-0.708728	-0.063328
H98	H	1.794885	-0.208728	0.436672
N99	N	0.920118	-0.088287	0.000114
N100	N	1.420118	0.411713	0.500114
H101	H	0.916965	-0.057690	-0.063318
H102	H	1.416965	0.442310	0.436682
H103	H	0.866258	-0.117244	0.000144
H104	H	1.366258	0.382756	0.500144
H105	H	0.939574	-0.232221	0.000093
H106	H	1.439574	0.267779	0.500093
N107	N	1.260870	-0.566503	0.000125
N108	N	1.760870	-0.066503	0.500125
H109	H	1.313449	-0.605829	0.000123
H110	H	1.813449	-0.105829	0.500123
H111	H	1.265124	-0.536631	-0.063310
H112	H	1.765124	-0.036631	0.436690
H113	H	0.930926	-0.676263	0.000041
H114	H	1.430926	-0.176263	0.500041
H115	H	0.933496	-0.544140	0.000061
H116	H	1.433496	-0.044140	0.500061
