data_functionalizedCrystal
_audit_creation_method	'MofGen! by Chris Wilmer'
_symmetry_space_group_name_H-M	'P1'
_symmetry_Int_Tables_number	1
_symmetry_cell_setting	triclinic
loop_
_symmetry_equiv_pos_as_xyz
  x,y,z
_cell_length_a	17.917603
_cell_length_b	16.704494
_cell_length_c	17.917603
_cell_angle_alpha	59.770735
_cell_angle_beta	90.239941
_cell_angle_gamma	60.540889
loop_
_atom_site_label
_atom_site_type_symbol
_atom_site_fract_x
_atom_site_fract_y
_atom_site_fract_z
Zr1	Zr	0.799210	0.791006	-0.095280
O2	O	0.688469	0.956899	-0.221927
O3	O	0.827137	0.625113	-0.051443
O4	O	0.842137	0.775876	-0.206923
O5	O	0.668487	0.818072	0.050497
O6	O	0.970201	0.763940	-0.200790
O7	O	0.673470	0.806137	-0.066447
O8	O	0.943370	0.494253	0.077337
O9	O	0.695319	1.087759	-0.227630
O10	O	0.941895	0.684440	-0.034226
O11	O	0.842603	0.702254	0.048471
O12	O	0.860263	0.879758	-0.134588
O13	O	0.760972	0.897572	-0.051891
Zr14	Zr	0.995511	0.791005	0.101014
Zr15	Zr	1.003458	0.771970	-0.085498
Zr16	Zr	0.791263	0.810041	0.091232
Zr17	Zr	0.810134	0.999711	-0.104374
Zr18	Zr	0.984588	0.582300	0.110108
O19	O	0.967584	0.956898	0.057176
O20	O	0.978884	0.929833	-0.208019
O21	O	0.677170	0.983965	0.043268
O22	O	1.106252	0.625112	0.227661
O23	O	1.117552	0.598047	-0.037534
O24	O	0.815837	0.652178	0.213753
O25	O	1.126234	0.763940	-0.044763
O26	O	0.952584	0.806136	0.212657
O27	O	0.824520	0.818071	0.206524
O28	O	1.121251	0.775875	0.072181
O29	O	0.857669	1.072628	-0.219854
O30	O	0.937053	0.509384	0.225588
O31	O	1.099403	0.494253	0.233364
O32	O	1.105720	0.479123	0.085112
O33	O	0.689002	1.102889	-0.079378
O34	O	0.851352	1.087758	-0.071603
O35	O	0.934458	0.702254	0.140322
O36	O	1.033749	0.684439	0.057625
O37	O	0.952118	0.879757	-0.042737
O38	O	0.852826	0.897572	0.039960
C39	C	0.883697	0.529947	0.014243
C40	C	0.879060	0.441346	0.018104
C41	C	0.974028	0.256240	-0.060970
C42	C	0.969674	0.172991	-0.057344
C43	C	0.866002	0.191592	0.028985
C44	C	0.870356	0.274841	0.025360
C45	C	0.924370	0.307163	-0.019621
C46	C	0.928719	0.390419	-0.023251
C47	C	0.825053	0.409013	0.063084
C48	C	0.820698	0.325764	0.066709
C49	C	0.641877	0.814816	-0.009369
C50	C	0.555169	0.822898	-0.013521
C51	C	0.396428	0.837659	-0.021105
C52	C	0.398286	0.744357	0.026837
C53	C	0.309958	0.752570	0.022617
C54	C	0.484763	0.829448	-0.016887
C55	C	1.152844	0.767195	0.015103
C56	C	1.239552	0.759114	0.019255
C57	C	0.907301	0.767196	-0.230430
C58	C	0.910675	0.759115	-0.309609
C59	C	0.911024	1.052064	-0.008509
C60	C	0.915661	1.140665	-0.012370
C61	C	0.916857	0.744352	-0.454594
C62	C	0.877866	0.837654	-0.539674
C63	C	0.881306	0.829440	-0.620349
C64	C	0.913418	0.752564	-0.373911
C65	C	0.887420	0.814816	0.236164
C66	C	0.884046	0.822896	0.315343
C67	C	1.139180	0.506136	0.026479
C68	C	1.221252	0.409454	0.034492
C69	C	0.873756	0.553757	0.247540
C70	C	0.865745	0.473237	0.330580
C71	C	1.129239	0.529946	0.259776
C72	C	1.207937	0.441345	0.346968
C73	C	0.665482	1.052065	-0.254042
C74	C	0.586784	1.140666	-0.341234
C75	C	0.655541	1.075875	-0.020745
C76	C	0.573470	1.172557	-0.028758
C77	C	0.920965	1.028254	-0.241806
C78	C	0.928976	1.108774	-0.324846
C79	C	1.211846	0.364051	-0.009698
C80	C	1.288955	0.273218	-0.002186
C81	C	1.375467	0.227786	0.049520
C82	C	1.384870	0.273198	0.093711
C83	C	1.307764	0.364034	0.086194
C84	C	0.909930	0.435425	0.417529
C85	C	0.902399	0.359780	0.495560
C86	C	0.850689	0.321943	0.486641
C87	C	0.806499	0.359764	0.399682
C88	C	0.814025	0.435413	0.321652
C89	C	1.296732	0.390437	0.344749
C90	C	1.370686	0.307197	0.426668
C91	C	1.355842	0.274861	0.510806
C92	C	1.267038	0.325777	0.513023
C93	C	1.193086	0.409022	0.431105
C94	C	0.497990	1.191584	-0.339015
C95	C	0.424037	1.274850	-0.420935
C96	C	0.438882	1.307191	-0.505074
C97	C	0.527685	1.256269	-0.507291
C98	C	0.601636	1.173010	-0.425372
C99	C	0.582875	1.217968	0.015424
C100	C	0.505769	1.308822	0.007891
C101	C	0.419257	1.354257	-0.043819
C102	C	0.409853	1.308842	-0.088006
C103	C	0.486959	1.217995	-0.080478
C104	C	0.980694	1.146587	-0.315897
C105	C	0.988239	1.222232	-0.393913
C106	C	0.944060	1.260069	-0.480878
C107	C	0.892341	1.222249	-0.489825
C108	C	0.884802	1.146599	-0.411809
H109	H	0.972697	0.416737	-0.059879
Br110	Br	0.976794	0.600943	-0.434178
H111	H	0.479288	1.181024	-0.116454
H112	H	1.010112	0.131530	-0.091014
H113	H	1.018002	0.282565	-0.097602
Br114	Br	0.511500	0.600936	0.100515
Br115	Br	0.814599	1.095301	-0.423972
Br116	Br	0.547816	1.300171	-0.621487
H117	H	1.030352	1.253018	-0.386610
Br118	Br	1.502287	0.211523	0.163884
H119	H	0.328506	0.923699	-0.065316
Br120	Br	1.040659	1.095253	-0.197882
H121	H	0.822038	0.165248	0.065618
H122	H	0.776725	0.299432	0.103334
Br123	Br	0.757643	0.478141	0.119191
Br124	Br	1.320544	0.425637	0.146179
Br125	Br	0.954300	1.362740	-0.586749
Br126	Br	1.491194	0.238110	0.423637
Br127	Br	0.477819	1.147710	-0.224838
Br128	Br	0.722141	1.103911	-0.428400
Br129	Br	0.980119	0.486752	0.429660
H130	H	0.841898	0.923701	-0.551924
H131	H	1.141412	0.401039	-0.051813
Br132	Br	0.832381	1.273621	-0.607858
H133	H	0.356480	1.428230	-0.049941
H134	H	1.438245	0.153820	0.055635
Br135	Br	1.276171	0.211605	-0.062163
Br136	Br	0.962379	0.308467	0.613564
Br137	Br	1.316903	0.434309	0.230572
Br138	Br	0.700275	1.156330	0.085604
H139	H	0.844568	0.260345	0.550185
Br140	Br	0.736324	0.308402	0.387592
Br141	Br	1.456215	0.161883	0.621975
Br142	Br	0.754056	0.486716	0.203653
H143	H	0.339405	1.345849	-0.130107
H144	H	1.254964	0.299437	0.581540
H145	H	1.120787	0.450461	0.432925
Br146	Br	0.303529	1.343940	-0.417905
H147	H	0.378658	1.374986	-0.571771
Br148	Br	0.518553	1.370436	0.067868
