data_functionalizedCrystal
_audit_creation_method	'MofGen! by Chris Wilmer'
_symmetry_space_group_name_H-M	'P1'
_symmetry_Int_Tables_number	1
_symmetry_cell_setting	triclinic
loop_
_symmetry_equiv_pos_as_xyz
  x,y,z
_cell_length_a	14.971486
_cell_length_b	19.288865
_cell_length_c	14.048226
_cell_angle_alpha	89.988335
_cell_angle_beta	89.998499
_cell_angle_gamma	83.375189
loop_
_atom_site_label
_atom_site_type_symbol
_atom_site_fract_x
_atom_site_fract_y
_atom_site_fract_z
O1	O	1.186458	0.090517	-0.079062
O2	O	0.925999	0.101357	-0.079090
O3	O	1.063754	-0.005169	-0.079056
O4	O	1.048702	0.197043	-0.079096
O5	O	1.063738	-0.005175	0.079265
O6	O	0.925982	0.101351	0.079232
O7	O	1.186441	0.090511	0.079259
Zn8	Zn	1.056209	0.095930	0.104382
Zn9	Zn	1.056231	0.095938	-0.104213
O10	O	1.048686	0.197037	0.079226
C11	C	0.892669	0.100869	0.000068
C12	C	0.793379	0.099416	0.000058
C13	C	1.063262	-0.031050	0.000107
C14	C	1.061808	-0.108158	0.000115
C15	C	0.735816	0.161997	0.000047
C16	C	0.642524	0.160628	0.000062
C17	C	0.606797	0.096677	0.000080
C18	C	0.664368	0.034092	0.000094
C19	C	0.757658	0.035461	0.000086
C20	C	0.469921	0.031241	0.000108
C21	C	0.376624	0.029871	0.000113
C22	C	0.354786	0.156407	0.000083
C23	C	0.448077	0.157777	0.000075
C24	C	0.505641	0.095191	0.000087
C25	C	1.142636	-0.152591	0.000128
C26	C	1.141271	-0.225043	0.000113
C27	C	1.059071	-0.253058	0.000104
C28	C	0.978232	-0.208615	0.000085
C29	C	0.979600	-0.136166	0.000091
C30	C	0.994448	-0.361558	0.055554
C31	C	0.993083	-0.434007	0.055554
C32	C	1.054848	-0.476517	0.000082
C33	C	1.117994	-0.446571	-0.055378
C34	C	1.119362	-0.374121	-0.055372
C35	C	1.057579	-0.331617	0.000097
C36	C	1.134201	-0.599511	0.000077
C37	C	1.132832	-0.671963	0.000056
C38	C	0.969791	-0.655535	0.000038
C39	C	0.971163	-0.583084	0.000050
C40	C	1.053370	-0.555077	0.000074
C41	C	1.219771	0.090999	0.000099
C42	C	1.319061	0.092452	0.000103
C43	C	1.049178	0.222918	0.000060
C44	C	1.050632	0.300026	0.000046
N45	N	1.056201	0.095924	0.246743
N46	N	1.056246	0.095939	-0.246574
C47	C	1.117218	0.048774	0.296576
C48	C	1.117224	0.048773	0.396233
C49	C	1.056217	0.095927	0.446056
C50	C	0.995193	0.143079	0.396217
C51	C	0.995183	0.143076	0.296561
C52	C	0.995219	0.143084	0.603931
C53	C	0.995229	0.143089	0.703593
C54	C	1.117259	0.048782	0.703603
C55	C	1.117250	0.048778	0.603947
C56	C	1.056227	0.095932	0.554115
H57	H	0.764896	0.214073	0.000032
H58	H	0.905343	-0.546906	0.000044
F59	F	0.818922	-0.031146	0.000101
F60	F	1.182185	-0.001403	0.550922
F61	F	0.930267	0.193269	0.550899
F62	F	0.930259	0.193261	0.449243
H63	H	1.166908	0.010380	0.436807
F64	F	1.182204	-0.001401	0.756643
F65	F	1.182156	-0.001411	0.243560
H66	H	0.945550	0.181485	0.744154
F67	F	1.186560	-0.342252	-0.114399
F68	F	1.227303	-0.272340	0.000126
H69	H	0.945496	0.181469	0.255988
F70	F	0.893568	-0.088875	0.000077
H71	H	0.516788	-0.019723	0.000119
F72	F	1.183734	-0.491808	-0.114420
H73	H	1.201139	-0.576706	0.000093
H74	H	1.198655	-0.708141	0.000062
F75	F	0.882308	-0.685346	0.000024
F76	F	1.230129	-0.122788	0.000133
F77	F	0.581263	0.227235	0.000046
F78	F	0.338604	-0.038193	0.000158
F79	F	0.486097	0.225841	0.000046
H80	H	0.944148	-0.326952	0.100731
F81	F	0.626343	-0.033970	0.000120
F82	F	0.293521	0.223017	0.000072
H83	H	0.941662	-0.458383	0.100707
H84	H	0.911305	-0.231430	0.000076
