data_functionalizedCrystal
_audit_creation_method	'MofGen! by Chris Wilmer'
_symmetry_space_group_name_H-M	'P1'
_symmetry_Int_Tables_number	1
_symmetry_cell_setting	triclinic
loop_
_symmetry_equiv_pos_as_xyz
  x,y,z
_cell_length_a	14.971482
_cell_length_b	17.699092
_cell_length_c	13.448316
_cell_angle_alpha	89.995078
_cell_angle_beta	89.993798
_cell_angle_gamma	83.449488
loop_
_atom_site_label
_atom_site_type_symbol
_atom_site_fract_x
_atom_site_fract_y
_atom_site_fract_z
O1	O	1.186614	0.098620	-0.082675
O2	O	1.686614	0.598620	0.417325
O3	O	0.926173	0.110434	-0.082680
O4	O	1.426173	0.610434	0.417320
O5	O	1.063748	-0.005644	-0.082675
O6	O	1.563748	0.494356	0.417325
O7	O	1.049039	0.214698	-0.082680
O8	O	1.549039	0.714698	0.417320
O9	O	1.063731	-0.005651	0.082709
O10	O	1.563731	0.494349	0.582709
O11	O	0.926156	0.110427	0.082704
O12	O	1.426156	0.610427	0.582704
O13	O	1.186597	0.098612	0.082709
O14	O	1.686597	0.598612	0.582709
Cu15	Cu	1.056375	0.104519	0.097807
Cu16	Cu	1.556375	0.604519	0.597807
Cu17	Cu	1.056395	0.104527	-0.097778
Cu18	Cu	1.556395	0.604527	0.402222
O19	O	1.049022	0.214690	0.082704
O20	O	1.549022	0.714690	0.582704
C21	C	0.892842	0.109903	0.000012
C22	C	1.392842	0.609903	0.500012
C23	C	0.793550	0.108321	0.000010
C24	C	1.293550	0.608321	0.500010
C25	C	0.746898	0.107572	0.090162
C26	C	1.246898	0.607572	0.590162
C27	C	0.653605	0.106073	0.090163
C28	C	1.153605	0.606073	0.590163
C29	C	0.606964	0.105329	0.000011
C30	C	1.106964	0.605329	0.500011
C31	C	0.653622	0.106076	-0.090148
C32	C	1.153622	0.606076	0.409852
C33	C	0.746915	0.107569	-0.090148
C34	C	1.246915	0.607569	0.409852
C35	C	0.459171	0.102966	-0.090141
C36	C	0.959171	0.602966	0.409859
C37	C	0.365872	0.101475	-0.090141
C38	C	0.865872	0.601475	0.409859
C39	C	0.365861	0.101471	0.090169
C40	C	0.865861	0.601471	0.590169
C41	C	0.459153	0.102963	0.090169
C42	C	0.959153	0.602963	0.590169
C43	C	0.505805	0.103712	0.000010
C44	C	1.005805	0.603712	0.500010
C45	C	1.063211	-0.033846	0.000015
C46	C	1.563211	0.466154	0.500015
C47	C	1.061626	-0.117867	0.000011
C48	C	1.561626	0.382133	0.500011
C49	C	1.060893	-0.157333	-0.090141
C50	C	1.560893	0.342667	0.409859
C51	C	1.059398	-0.236279	-0.090142
C52	C	1.559398	0.263721	0.409858
C53	C	1.058643	-0.275760	0.000009
C54	C	1.558643	0.224240	0.500009
C55	C	1.059373	-0.236289	0.090168
C56	C	1.559373	0.263711	0.590168
C57	C	1.060862	-0.157343	0.090168
C58	C	1.560862	0.342657	0.590168
C59	C	1.053369	-0.554668	0.090170
C60	C	1.553369	-0.054668	0.590170
C61	C	1.051883	-0.633620	0.090162
C62	C	1.551883	-0.133620	0.590162
C63	C	1.051906	-0.633605	-0.090141
C64	C	1.551906	-0.133605	0.409859
C65	C	1.053394	-0.554659	-0.090141
C66	C	1.553394	-0.054659	0.409859
C67	C	1.054120	-0.515194	0.000017
C68	C	1.554120	-0.015194	0.500017
C69	C	1.055739	-0.429591	0.000017
C70	C	1.555739	0.070409	0.500017
C71	C	1.057030	-0.361362	0.000010
C72	C	1.557030	0.138638	0.500010
C73	C	1.219928	0.099144	0.000015
C74	C	1.719928	0.599144	0.500015
C75	C	1.319220	0.100726	0.000010
C76	C	1.819220	0.600726	0.500010
C77	C	1.049559	0.242892	0.000012
C78	C	1.549559	0.742892	0.500012
C79	C	1.051144	0.326914	0.000010
C80	C	1.551144	0.826914	0.500010
N81	N	1.056367	0.104513	0.235372
N82	N	1.556367	0.604513	0.735372
N83	N	1.056410	0.104528	-0.235342
N84	N	1.556410	0.604528	0.264658
C85	C	1.117304	0.053134	0.287414
C86	C	1.617304	0.553134	0.787414
C87	C	1.117309	0.053134	0.391517
C88	C	1.617309	0.553134	0.891517
C89	C	1.056382	0.104516	0.443576
C90	C	1.556382	0.604516	0.943576
C91	C	0.995438	0.155896	0.391527
C92	C	1.495438	0.655896	0.891527
C93	C	0.995429	0.155893	0.287425
C94	C	1.495429	0.655893	0.787425
C95	C	0.995463	0.155901	0.608507
C96	C	1.495463	0.655901	1.108507
C97	C	0.995473	0.155906	0.712615
C98	C	1.495473	0.655906	1.212615
C99	C	1.117343	0.053142	0.712599
C100	C	1.617343	0.553142	1.212599
C101	C	1.117334	0.053139	0.608497
C102	C	1.617334	0.553139	1.108497
C103	C	1.056392	0.104521	0.556455
C104	C	1.556392	0.604521	1.056455
H105	H	0.615640	0.105465	-0.163551
H106	H	1.115640	0.605465	0.336449
H107	H	1.166928	0.011297	0.433890
H108	H	1.666928	0.511297	0.933890
H109	H	0.327873	0.100862	0.163580
H110	H	0.827873	0.600862	0.663580
N111	N	1.058709	-0.278821	-0.187405
N112	N	1.558709	0.221179	0.312595
H113	H	1.003584	-0.259004	-0.226887
H114	H	1.503584	0.240996	0.273113
H115	H	1.114473	-0.271100	-0.226642
H116	H	1.614473	0.228900	0.273358
N117	N	1.183044	-0.002279	0.552342
N118	N	1.683044	0.497721	1.052342
H119	H	1.222575	0.026700	0.509136
H120	H	1.722575	0.526700	1.009136
H121	H	1.221591	-0.034817	0.601166
H122	H	1.721591	0.465183	1.101166
N123	N	0.315569	0.100653	-0.187375
N124	N	0.815569	0.600653	0.312625
H125	H	0.249390	0.099595	-0.173691
H126	H	0.749390	0.599595	0.326309
H127	H	0.324520	0.147792	-0.226762
H128	H	0.824520	0.647792	0.273238
N129	N	0.929767	0.211321	0.768780
N130	N	1.429767	0.711321	1.268780
H131	H	0.939942	0.265054	0.750653
H132	H	1.439942	0.765054	1.250653
H133	H	0.866331	0.202449	0.750674
H134	H	1.366331	0.702449	1.250674
H135	H	1.061446	-0.125210	0.163579
H136	H	1.561446	0.374790	0.663579
H137	H	1.053978	-0.522548	0.163582
H138	H	1.553978	-0.022548	0.663582
N139	N	1.051130	-0.676174	-0.187385
N140	N	1.551130	-0.176174	0.312615
H141	H	1.051847	-0.639184	-0.244494
H142	H	1.551847	-0.139184	0.255506
H143	H	1.105947	-0.715008	-0.191292
H144	H	1.605947	-0.215008	0.308708
N145	N	1.054215	-0.512077	-0.187375
N146	N	1.554215	-0.012077	0.312625
H147	H	1.053522	-0.549058	-0.244488
H148	H	1.553522	-0.049058	0.255512
H149	H	0.999406	-0.473236	-0.191301
H150	H	1.499406	0.026764	0.308699
H151	H	1.061513	-0.125194	-0.163553
H152	H	1.561513	0.374806	0.336447
N153	N	1.051070	-0.676206	0.187402
N154	N	1.551070	-0.176206	0.687402
H155	H	1.051753	-0.639226	0.244517
H156	H	1.551753	-0.139226	0.744517
H157	H	0.995026	-0.702879	0.191319
H158	H	1.495026	-0.202879	0.691319
N159	N	1.183078	-0.002276	0.768722
N160	N	1.683078	0.497724	1.268722
H161	H	1.173838	0.005518	0.842570
H162	H	1.673838	0.505518	1.342570
H163	H	1.172868	-0.055985	0.750535
H164	H	1.672868	0.444015	1.250535
N165	N	0.929730	0.211315	0.552372
N166	N	1.429730	0.711315	1.052372
H167	H	0.891135	0.243868	0.601145
H168	H	1.391135	0.743868	1.101145
H169	H	0.963895	0.244821	0.509165
H170	H	1.463895	0.744821	1.009165
N171	N	0.929727	0.211314	0.447680
N172	N	1.429727	0.711314	0.947680
H173	H	0.939907	0.265046	0.429549
H174	H	1.439907	0.765046	0.929549
H175	H	0.866294	0.202443	0.429563
H176	H	1.366294	0.702443	0.929563
N177	N	1.058567	-0.278868	0.187406
N178	N	1.558567	0.221132	0.687406
H179	H	1.057521	-0.334870	0.173728
H180	H	1.557521	0.165130	0.673728
H181	H	1.114255	-0.271149	0.226764
H182	H	1.614255	0.228851	0.726764
H183	H	0.497152	0.103576	-0.163558
H184	H	0.997152	0.603576	0.336442
H185	H	1.166922	0.011297	0.245034
H186	H	1.666922	0.511297	0.745034
N187	N	0.797237	0.108371	-0.187382
N188	N	1.297237	0.608371	0.312618
H189	H	0.753536	0.107674	-0.244494
H190	H	1.253536	0.607674	0.255506
H191	H	0.828593	0.155872	-0.191315
H192	H	1.328593	0.655872	0.308685
H193	H	0.945807	0.197729	0.245053
H194	H	1.445807	0.697729	0.745053
H195	H	0.615627	0.105451	0.163574
H196	H	1.115627	0.605451	0.663574
N197	N	0.797194	0.108380	0.187402
N198	N	1.297194	0.608380	0.687402
H199	H	0.788310	0.061237	0.226817
H200	H	1.288310	0.561237	0.726817
H201	H	0.863353	0.109471	0.173646
H202	H	1.363353	0.609471	0.673646
N203	N	0.509461	0.103777	0.187401
N204	N	1.009461	0.603777	0.687401
H205	H	0.465753	0.103077	0.244517
H206	H	0.965753	0.603077	0.744517
H207	H	0.555526	0.057515	0.191331
H208	H	1.055526	0.557515	0.691331
