data_functionalizedCrystal
_audit_creation_method	'MofGen! by Chris Wilmer'
_symmetry_space_group_name_H-M	'P1'
_symmetry_Int_Tables_number	1
_symmetry_cell_setting	triclinic
loop_
_symmetry_equiv_pos_as_xyz
  x,y,z
_cell_length_a	12.811457
_cell_length_b	13.330367
_cell_length_c	12.837943
_cell_angle_alpha	89.991353
_cell_angle_beta	89.411676
_cell_angle_gamma	84.574996
loop_
_atom_site_label
_atom_site_type_symbol
_atom_site_fract_x
_atom_site_fract_y
_atom_site_fract_z
O1	O	1.406626	-0.044556	0.139682
O2	O	1.102566	-0.016892	0.154868
O3	O	1.247853	-0.030110	-0.003657
O4	O	1.261338	-0.031338	0.298207
O5	O	1.247831	-0.196955	-0.003632
O6	O	1.102544	-0.183737	0.154893
O7	O	1.406603	-0.211401	0.139707
Cu8	Cu	1.254571	-0.212803	0.147302
Cu9	Cu	1.254598	-0.015490	0.147272
O10	O	1.261316	-0.198183	0.298232
C11	C	1.063366	-0.096749	0.154029
C12	C	0.946595	-0.086124	0.151479
C13	C	0.727145	-0.248075	0.146696
C14	C	0.617429	-0.238097	0.144300
C15	C	0.617444	-0.056193	0.144284
C16	C	0.727160	-0.066170	0.146680
C17	C	0.782007	-0.162115	0.147887
C18	C	0.891725	-0.172091	0.150291
C19	C	0.891739	0.009813	0.150267
C20	C	0.782022	0.019790	0.147871
N21	N	1.254561	-0.351584	0.147323
C22	C	1.324585	-0.830567	0.210465
C23	C	1.184638	-0.817823	0.084038
C24	C	1.184624	-0.712803	0.084054
C25	C	1.254593	-0.666661	0.147275
C26	C	1.324576	-0.725538	0.210480
C27	C	1.114650	-0.653919	0.020843
C28	C	1.114635	-0.548893	0.020855
C29	C	1.184599	-0.502748	0.084083
C30	C	1.254584	-0.561632	0.147291
C31	C	1.324552	-0.515490	0.210512
C32	C	1.394533	-0.574372	0.273727
C33	C	1.394540	-0.679394	0.273708
C34	C	1.184592	-0.397726	0.084102
C35	C	1.324543	-0.410461	0.210528
C36	C	1.445803	-0.131542	0.140546
C37	C	1.562574	-0.142160	0.143095
C38	C	1.243287	-0.113115	-0.042285
C39	C	1.229701	-0.111872	-0.157421
N40	N	1.254616	0.123290	0.147244
C41	C	1.265882	-0.115175	0.336860
C42	C	1.279468	-0.116412	0.451995
C43	C	1.116141	-0.101533	0.692248
C44	C	1.128901	-0.102694	0.800429
C45	C	1.317748	-0.119887	0.776540
C46	C	1.304987	-0.118726	0.668359
C47	C	1.204181	-0.109551	0.626217
C48	C	1.191422	-0.108397	0.518034
C49	C	1.380267	-0.125582	0.494148
C50	C	1.393027	-0.126743	0.602329
H51	H	0.572764	-0.308095	0.143336
H52	H	0.936380	-0.250214	0.151280
Br53	Br	0.966199	0.126481	0.151908
H54	H	1.127618	-0.349790	0.032631
Br55	Br	1.454546	-0.132316	0.833752
H56	H	1.451956	-0.132112	0.440373
Br57	Br	1.054615	-0.095952	0.460842
Br58	Br	0.979337	-0.089103	0.635049
H59	H	0.771802	-0.326196	0.147693
H60	H	0.572769	0.021920	0.143283
H61	H	0.737351	0.097905	0.146883
H62	H	1.381516	-0.372900	0.262016
H63	H	1.475102	-0.134218	0.636656
H64	H	1.127679	-0.855399	0.032560
Br65	Br	1.489497	-0.511738	0.359513
Br66	Br	1.489500	-0.759309	0.359495
Br67	Br	1.019699	-0.716544	-0.064952
Br68	Br	1.419544	-0.910472	0.296263
Br69	Br	1.019647	-0.468990	-0.064915
H70	H	1.057209	-0.096165	0.854188
