data_functionalizedCrystal
_audit_creation_method	'MofGen! by Chris Wilmer'
_symmetry_space_group_name_H-M	'P1'
_symmetry_Int_Tables_number	1
_symmetry_cell_setting	triclinic
loop_
_symmetry_equiv_pos_as_xyz
  x,y,z
_cell_length_a	27.732048
_cell_length_b	11.792241
_cell_length_c	10.868271
_cell_angle_alpha	89.999844
_cell_angle_beta	90.006357
_cell_angle_gamma	96.581964
loop_
_atom_site_label
_atom_site_type_symbol
_atom_site_fract_x
_atom_site_fract_y
_atom_site_fract_z
O1	O	0.066246	-1.504790	0.102217
O2	O	0.073073	-1.174230	0.102248
O3	O	-0.000678	-1.349777	0.102208
O4	O	0.139996	-1.329244	0.102257
O5	O	-0.000675	-1.349761	-0.102437
O6	O	0.073075	-1.174215	-0.102397
O7	O	0.066248	-1.504774	-0.102427
Zn8	Zn	0.069662	-1.339492	-0.134904
Zn9	Zn	0.069659	-1.339513	0.134724
O10	O	0.139999	-1.329228	-0.102388
C11	C	-0.018686	-1.349338	-0.000118
C12	C	-0.072348	-1.348040	-0.000128
C13	C	0.072645	-1.131945	-0.000071
C14	C	0.071362	-1.005973	-0.000061
C15	C	0.066676	-1.547059	-0.000106
C16	C	0.067959	-1.673032	-0.000108
C17	C	-0.410609	-1.443606	-0.000073
C18	C	-0.612297	-1.438790	-0.000055
O19	O	-0.643045	-1.526178	-0.000010
N20	N	-0.632024	-1.334698	-0.000047
C21	C	-0.601327	-1.231803	-0.000035
O22	O	-0.622734	-1.143157	-0.000015
C23	C	-0.399640	-1.236620	-0.000044
C24	C	-0.379915	-1.340718	-0.000065
C25	C	-0.390884	-1.547695	-0.000093
C26	C	-0.340465	-1.548898	-0.000104
C27	C	-0.309771	-1.446011	-0.000095
C28	C	-0.329496	-1.341921	-0.000076
C29	C	-0.368943	-1.133726	-0.000023
C30	C	-0.318519	-1.134940	-0.000022
C31	C	-0.298794	-1.239038	-0.000043
C32	C	-0.248384	-1.240237	-0.000079
N33	N	-0.228656	-1.344328	-0.000087
C34	C	-0.259350	-1.447215	-0.000095
C35	C	-0.707215	-1.229282	-0.000033
C36	C	-0.757637	-1.228077	-0.000033
C37	C	-0.768603	-1.435065	-0.000051
C38	C	-0.718181	-1.436268	-0.000060
C39	C	-0.687488	-1.333374	-0.000041
C40	C	-0.153466	-1.449733	-0.000120
C41	C	-0.103042	-1.450927	-0.000136
C42	C	-0.092080	-1.243941	-0.000111
C43	C	-0.142500	-1.242746	-0.000102
C44	C	-0.173192	-1.345652	-0.000102
O45	O	-0.217607	-1.152896	-0.000111
O46	O	-0.237933	-1.535849	-0.000088
C47	C	-0.461028	-1.442403	-0.000062
C48	C	-0.480753	-1.338313	-0.000043
C49	C	-0.450060	-1.235426	-0.000034
C50	C	-0.531175	-1.337108	-0.000043
C51	C	-0.561868	-1.439996	-0.000051
C52	C	-0.542141	-1.544087	-0.000059
C53	C	-0.491722	-1.545290	-0.000070
C54	C	-0.469787	-1.131334	-0.000026
C55	C	-0.520207	-1.130140	-0.000016
C56	C	-0.550900	-1.233027	-0.000024
C57	C	0.158007	-1.329667	-0.000059
C58	C	0.211669	-1.330965	-0.000041
C59	C	0.069001	-0.775336	-0.000097
C60	C	0.070313	-0.903679	-0.000077
N61	N	0.069664	-1.339486	-0.318918
C62	C	0.069664	-1.339495	-0.430256
C63	C	0.069660	-1.339510	-0.569933
N64	N	0.069653	-1.339528	0.318738
H65	H	-0.086985	-1.535700	-0.000156
C66	C	-0.164197	-1.128234	-0.000087
N67	N	-0.180537	-1.041980	-0.000062
H68	H	-0.682229	-1.145488	-0.000018
C69	C	-0.058308	-1.130770	-0.000093
N70	N	-0.032869	-1.045530	-0.000068
H71	H	-0.793603	-1.518839	-0.000058
C72	C	-0.575913	-1.657263	-0.000066
N73	N	-0.601353	-1.742503	-0.000064
H74	H	-0.536261	-1.045364	-0.000010
H75	H	-0.178450	-1.533529	-0.000115
C76	C	-0.318775	-1.663416	-0.000114
N77	N	-0.302441	-1.749676	-0.000116
C78	C	-0.779328	-1.113561	-0.000025
N79	N	-0.795664	-1.027304	-0.000012
H80	H	-0.444801	-1.047549	-0.000016
C81	C	-0.424640	-1.660890	-0.000115
N82	N	-0.450062	-1.746156	-0.000145
C83	C	-0.696489	-1.550783	-0.000072
N84	N	-0.680153	-1.637041	-0.000077
H85	H	-0.384994	-1.048958	0.000001
H86	H	-0.293530	-1.051148	-0.000005
H87	H	-0.475667	-1.630058	-0.000087
