data_functionalizedCrystal
_audit_creation_method	'MofGen! by Chris Wilmer'
_symmetry_space_group_name_H-M	'P1'
_symmetry_Int_Tables_number	1
_symmetry_cell_setting	triclinic
loop_
_symmetry_equiv_pos_as_xyz
  x,y,z
_cell_length_a	27.440280
_cell_length_b	27.440280
_cell_length_c	14.560438
_cell_angle_alpha	59.993237
_cell_angle_beta	90.004795
_cell_angle_gamma	60.007024
loop_
_atom_site_label
_atom_site_type_symbol
_atom_site_fract_x
_atom_site_fract_y
_atom_site_fract_z
Zr1	Zr	0.469578	0.533358	-0.120503
O2	O	0.391771	0.635034	-0.267187
O3	O	0.493419	0.431689	-0.075525
O4	O	0.493431	0.533356	-0.267146
O5	O	0.391761	0.533365	0.075575
O6	O	0.573634	0.533347	-0.267127
O7	O	0.391759	0.533367	-0.075566
O8	O	0.573612	0.351482	0.075648
O9	O	0.391783	0.715230	-0.267200
O10	O	0.563454	0.473497	-0.056343
O11	O	0.503601	0.473503	0.056438
O12	O	0.503616	0.593203	-0.169171
O13	O	0.443763	0.593209	-0.056391
Zr14	Zr	0.597495	0.533341	0.120579
Zr15	Zr	0.597492	0.533343	-0.120473
Zr16	Zr	0.469581	0.533356	0.120549
Zr17	Zr	0.469596	0.661261	-0.120525
Zr18	Zr	0.597476	0.405438	0.120600
O19	O	0.573654	0.635010	0.075601
O20	O	0.573649	0.635013	-0.267144
O21	O	0.391776	0.635031	0.075558
O22	O	0.675301	0.431664	0.267263
O23	O	0.675297	0.431667	-0.075482
O24	O	0.493424	0.431686	0.267220
O25	O	0.675311	0.533333	-0.075499
O26	O	0.573641	0.533342	0.267222
O27	O	0.493439	0.533352	0.267203
O28	O	0.675313	0.533332	0.075642
O29	O	0.493458	0.715218	-0.267176
O30	O	0.573615	0.351481	0.267252
O31	O	0.675290	0.351469	0.267276
O32	O	0.675287	0.351470	0.075672
O33	O	0.391786	0.715228	-0.075596
O34	O	0.493460	0.715216	-0.075572
O35	O	0.563457	0.473495	0.169247
O36	O	0.623310	0.473489	0.056466
O37	O	0.563472	0.593195	-0.056362
O38	O	0.503619	0.593201	0.056418
C39	C	0.533513	0.373362	0.000064
C40	C	0.533505	0.319064	0.000073
C41	C	0.577721	0.040175	0.083325
C42	C	0.577716	0.091197	0.083329
O43	O	0.615296	0.080015	0.154136
N44	N	0.533531	0.160894	0.000051
C45	C	0.489351	0.179569	-0.083244
O46	O	0.451768	0.243536	-0.154080
C47	C	0.489360	0.128547	-0.083252
C48	C	0.533544	0.058850	0.000038
C49	C	0.621903	-0.029519	0.166608
C50	C	0.621907	-0.080537	0.166605
C51	C	0.577731	-0.061862	0.083318
C52	C	0.533549	0.007832	0.000035
C53	C	0.445184	0.147223	-0.166551
C54	C	0.445196	0.096194	-0.166552
C55	C	0.489381	0.026497	-0.083262
C56	C	0.489377	-0.024511	-0.083255
N57	N	0.533562	-0.094208	0.000023
C58	C	0.577739	-0.112883	0.083310
C59	C	0.489338	0.286714	-0.083222
C60	C	0.489326	0.337735	-0.083211
C61	C	0.577691	0.249359	0.083362
C62	C	0.577700	0.198338	0.083354
C63	C	0.533523	0.217017	0.000056
C64	C	0.577745	-0.220022	0.083297
C65	C	0.577744	-0.271041	0.083289
C66	C	0.489381	-0.182661	-0.083287
C67	C	0.489380	-0.131646	-0.083276
C68	C	0.533567	-0.150332	0.000021
O69	O	0.451817	-0.013381	-0.154028
O70	O	0.615320	-0.176851	0.154125
C71	C	0.373535	0.533368	-0.000000
C72	C	0.319232	0.533374	-0.000013
C73	C	0.013770	0.470852	0.058964
C74	C	-0.037249	0.470849	0.058974
O75	O	-0.037073	0.417707	0.109097
N76	N	-0.094001	0.533333	0.000078
C77	C	-0.099733	0.595826	-0.058823
O78	O	-0.152690	0.648974	-0.108918
C79	C	-0.048715	0.595829	-0.058826
C80	C	0.008036	0.533340	0.000065
C81	C	0.070518	0.408369	0.117851
C82	C	0.121533	0.408373	0.117839
C83	C	0.115799	0.470860	0.058940
C84	C	0.059051	0.533344	0.000053
C85	C	-0.054449	0.658321	-0.117720
C86	C	-0.003425	0.658319	-0.117717
C87	C	0.053327	0.595830	-0.058826
C88	C	0.104332	0.595836	-0.058858
N89	N	0.161083	0.533351	0.000038
C90	C	0.166817	0.470864	0.058938
C91	C	-0.206872	0.595815	-0.058812
C92	C	-0.257889	0.595812	-0.058816
C93	C	-0.195401	0.470835	0.058983
C94	C	-0.144383	0.470838	0.058981
C95	C	-0.150120	0.533330	0.000085
C96	C	0.273950	0.470877	0.058907
C97	C	0.324966	0.470886	0.058886
C98	C	0.262474	0.595864	-0.058908
C99	C	0.211462	0.595855	-0.058892
C100	C	0.217203	0.533356	0.000024
O101	O	0.104201	0.648951	-0.108951
O102	O	0.219775	0.417725	0.109036
C103	C	0.693537	0.533330	0.000076
C104	C	0.747840	0.533324	0.000088
C105	C	0.533532	0.533352	-0.301482
C106	C	0.533531	0.533353	-0.403815
C107	C	0.533560	0.693336	0.000011
C108	C	0.533568	0.747634	0.000002
C109	C	0.502296	0.595837	-0.510786
C110	C	0.502303	0.595834	-0.606935
C111	C	0.564780	0.470856	-0.489127
C112	C	0.564776	0.470860	-0.392981
C113	C	0.493180	0.670898	-0.809089
C114	C	0.461935	0.733386	-0.916067
C115	C	0.405951	0.788560	-0.936877
C116	C	0.381197	0.781249	-0.850712
C117	C	0.412438	0.718761	-0.743738
C118	C	0.468433	0.663589	-0.722929
C119	C	0.573894	0.395801	-0.190829
C120	C	0.605132	0.333311	-0.083853
C121	C	0.661116	0.278131	-0.063036
C122	C	0.685865	0.285435	-0.149197
C123	C	0.654628	0.347925	-0.256173
C124	C	0.598644	0.403105	-0.276984
C125	C	0.533540	0.533347	0.301557
C126	C	0.533542	0.533346	0.403890
C127	C	0.693514	0.373343	0.000102
C128	C	0.747809	0.319039	0.000124
C129	C	0.533517	0.373359	0.301584
C130	C	0.533511	0.319060	0.403926
C131	C	0.693518	0.373341	0.301621
C132	C	0.747815	0.319035	0.403976
C133	C	0.373555	0.693358	-0.301546
C134	C	0.319258	0.747663	-0.403901
C135	C	0.373559	0.693355	-0.000026
C136	C	0.319264	0.747660	-0.000048
C137	C	0.533556	0.693339	-0.301508
C138	C	0.533562	0.747638	-0.403850
C139	C	0.742062	0.293541	-0.058761
C140	C	0.793073	0.242523	-0.058763
C141	C	0.849831	0.217001	0.000127
C142	C	0.855576	0.242504	0.059014
C143	C	0.804566	0.293524	0.059008
C144	C	0.564752	0.293557	0.510882
C145	C	0.564743	0.242544	0.607052
C146	C	0.533497	0.217033	0.596264
C147	C	0.502252	0.242541	0.489297
C148	C	0.502257	0.293556	0.393129
C149	C	0.804561	0.293530	0.393173
C150	C	0.855583	0.242511	0.489337
C151	C	0.849857	0.216995	0.596303
C152	C	0.793105	0.242506	0.607104
C153	C	0.742085	0.293527	0.510941
C154	C	0.262512	0.773175	-0.393097
C155	C	0.211490	0.824209	-0.489261
C156	C	0.217215	0.849728	-0.596227
C157	C	0.273967	0.824214	-0.607029
C158	C	0.324988	0.773184	-0.510866
C159	C	0.325010	0.773163	0.058827
C160	C	0.273999	0.824195	0.058802
C161	C	0.217242	0.849719	-0.000091
C162	C	0.211497	0.824214	-0.058974
C163	C	0.262507	0.773186	-0.058955
C164	C	0.564815	0.773133	-0.393026
C165	C	0.564832	0.824146	-0.489178
C166	C	0.533594	0.849667	-0.596153
C167	C	0.502341	0.824166	-0.606975
C168	C	0.502327	0.773151	-0.510824
H169	H	0.453359	0.301933	-0.151053
H170	H	0.788453	0.221724	0.694209
H171	H	0.901788	0.221746	0.480522
H172	H	0.335606	0.826177	-0.867673
F173	F	0.385411	0.746009	0.121511
F174	F	0.398177	0.116081	-0.255215
H175	H	0.453387	-0.074894	-0.151070
H176	H	0.476874	0.752398	-0.519653
F177	F	0.280051	0.851378	-0.720879
H178	H	0.476819	0.314315	0.306044
F179	F	0.533497	0.162737	0.698626
H180	H	0.371176	0.419998	0.106846
F181	F	0.469000	0.215382	0.477832
F182	F	0.280127	0.851328	0.121479
H183	H	0.371192	0.752413	-0.519676
H184	H	0.075197	0.357481	0.165820
H185	H	0.175711	0.891269	-0.000097
F186	F	0.915986	0.215332	0.121688
H187	H	0.476855	0.646723	-0.519614
F188	F	0.624773	-0.345220	0.171945
H189	H	0.590189	0.221781	0.694140
H190	H	0.891362	0.175456	0.000123
F191	F	0.904164	0.162693	0.698640
F192	F	0.598013	0.320697	0.522389
H193	H	0.167739	0.357488	0.165790
F194	F	0.372697	0.855062	-1.050735
H195	H	0.453412	-0.167466	-0.151093
H196	H	0.257839	0.752401	-0.306009
F197	F	0.810668	0.320679	0.279340
F198	F	0.681692	0.320664	0.522457
F199	F	0.151086	0.851384	-0.121645
H200	H	0.257820	0.752423	-0.106895
H201	H	0.165285	0.844974	-0.480445
F202	F	0.162909	0.904039	-0.698564
F203	F	0.598066	0.745982	-0.279184
H204	H	0.482094	0.739334	-0.986218
H205	H	0.590282	0.844904	-0.480344
H206	H	0.695853	0.314321	-0.106730
F207	F	0.533613	0.903964	-0.698476
F208	F	0.469092	0.851338	-0.720835
H209	H	0.538770	0.625978	-0.792149
H210	H	0.613726	-0.235246	0.151126
H211	H	0.788384	0.221765	-0.106715
H212	H	0.613663	0.234161	0.151179
F213	F	-0.189307	0.404329	0.121671
F214	F	0.668926	-0.049409	0.255261
F215	F	0.668936	-0.154711	0.255253
H216	H	0.453340	0.394483	-0.151022
F217	F	0.624727	0.124163	0.172001
F218	F	0.386097	0.710977	-0.652040
H219	H	-0.098177	0.419954	0.106945
F220	F	0.398155	0.221392	-0.255201
H221	H	0.278634	0.419984	0.106883
H222	H	0.686545	0.227246	0.024072
H223	H	0.809253	0.314278	0.106966
H224	H	-0.008103	0.709209	-0.165663
H225	H	-0.211551	0.646707	-0.106777
F226	F	-0.318284	0.662322	-0.121511
H227	H	-0.100650	0.709206	-0.165674
F228	F	0.151061	0.662362	-0.121591
H229	H	0.257815	0.646740	-0.106866
H230	H	0.590218	0.419977	-0.480320
H231	H	0.674784	0.353869	-0.326327
F232	F	0.578785	0.325535	0.007842
F233	F	0.514309	0.454531	-0.212977
F234	F	0.745449	0.226705	-0.127045
