data_functionalizedCrystal
_audit_creation_method	'MofGen! by Chris Wilmer'
_symmetry_space_group_name_H-M	'P1'
_symmetry_Int_Tables_number	1
_symmetry_cell_setting	triclinic
loop_
_symmetry_equiv_pos_as_xyz
  x,y,z
_cell_length_a	10.654550
_cell_length_b	10.723024
_cell_length_c	9.730223
_cell_angle_alpha	89.996766
_cell_angle_beta	89.999957
_cell_angle_gamma	84.476400
loop_
_atom_site_label
_atom_site_type_symbol
_atom_site_fract_x
_atom_site_fract_y
_atom_site_fract_z
O1	O	1.667813	0.175275	-0.114183
O2	O	1.302332	0.191974	-0.114208
O3	O	1.493503	0.002049	-0.114190
O4	O	1.476642	0.365199	-0.114202
O5	O	1.493490	0.002044	0.114390
O6	O	1.302319	0.191968	0.114372
O7	O	1.667800	0.175269	0.114396
Zn8	Zn	1.485058	0.183618	0.150676
Zn9	Zn	1.485074	0.183625	-0.150488
O10	O	1.476629	0.365194	0.114378
C11	C	1.255528	0.190745	0.000078
C12	C	1.116085	0.187077	0.000069
C13	C	1.036583	0.298901	0.000069
C14	C	0.905562	0.295447	0.000093
C15	C	0.933560	0.068334	0.000111
C16	C	1.064577	0.071789	0.000097
C17	C	1.492269	-0.044453	0.000098
C18	C	1.488598	-0.183008	0.000093
C19	C	1.595567	-0.257975	0.000098
C20	C	1.591776	-0.401179	0.000093
C21	C	1.714604	0.176498	0.000107
C22	C	1.854047	0.180167	0.000107
C23	C	1.477863	0.411696	0.000087
C24	C	1.481534	0.550251	0.000083
N25	N	1.485056	0.183613	0.356212
N26	N	1.485086	0.183621	-0.356024
C27	C	1.569735	0.099550	0.428146
C28	C	1.569748	0.099550	0.572029
C29	C	1.400397	0.267687	0.572032
C30	C	1.400380	0.267680	0.428151
H31	H	1.129312	-0.019278	0.000100
H32	H	1.638700	0.031098	0.630594
H33	H	1.078515	0.392775	0.000057
H34	H	0.840836	0.386506	0.000097
H35	H	1.389955	-0.385337	0.000088
O36	O	1.651880	0.017952	0.358051
C37	C	1.633663	0.035919	0.215632
H38	H	1.587646	0.134724	0.195950
H39	H	1.569990	-0.035254	0.174873
C40	C	1.818456	-0.103138	0.165878
C41	C	1.761947	0.018221	0.141704
H42	H	1.897586	-0.114059	0.120274
H43	H	1.830728	-0.115247	0.261828
H44	H	1.765382	-0.162435	0.131912
H45	H	1.815013	0.077515	0.175686
H46	H	1.749687	0.030340	0.045758
H47	H	1.689955	-0.216138	0.000113
H48	H	0.891606	-0.025530	0.000142
H49	H	1.683350	-0.465598	0.000104
H50	H	1.394211	-0.224844	0.000078
O51	O	1.318276	0.349308	0.642129
C52	C	1.336429	0.331273	0.784548
H53	H	1.435878	0.285555	0.804189
H54	H	1.264816	0.268028	0.825401
C55	C	1.196511	0.514914	0.834275
C56	C	1.318660	0.458773	0.858400
H57	H	1.185545	0.593560	0.879833
H58	H	1.184277	0.527063	0.738325
H59	H	1.136848	0.462198	0.868320
H60	H	1.378321	0.511481	0.824339
H61	H	1.330904	0.446636	0.954346
H62	H	1.331417	0.336134	0.369579
