data_functionalizedCrystal
_audit_creation_method	'MofGen! by Chris Wilmer'
_symmetry_space_group_name_H-M	'P1'
_symmetry_Int_Tables_number	1
_symmetry_cell_setting	triclinic
loop_
_symmetry_equiv_pos_as_xyz
  x,y,z
_cell_length_a	9.616153
_cell_length_b	13.339070
_cell_length_c	13.339070
_cell_angle_alpha	64.370706
_cell_angle_beta	89.998831
_cell_angle_gamma	89.992254
loop_
_atom_site_label
_atom_site_type_symbol
_atom_site_fract_x
_atom_site_fract_y
_atom_site_fract_z
O1	O	0.115682	-1.496810	0.550523
O2	O	0.115676	-1.182001	0.478263
O3	O	0.115674	-1.303275	0.356989
O4	O	0.115684	-1.375535	0.671798
O5	O	-0.115617	-1.303253	0.356986
O6	O	-0.115616	-1.181979	0.478260
O7	O	-0.115609	-1.496788	0.550520
Zn8	Zn	-0.152335	-1.339380	0.514390
Zn9	Zn	0.152401	-1.339409	0.514394
O10	O	-0.115608	-1.375513	0.671795
C11	C	0.000029	-1.140874	0.466056
C12	C	0.000027	-1.018360	0.429672
N13	N	-0.360310	-1.339368	0.514389
C14	C	0.000030	-1.291058	0.315872
C15	C	0.000035	-1.254675	0.193358
C16	C	-0.580679	-1.274140	0.578890
C17	C	-0.419511	-1.274428	0.579276
C18	C	-0.418756	-1.460977	0.571579
C19	C	-0.579974	-1.460661	0.572075
C20	C	-0.580225	-1.284047	0.392718
C21	C	-0.418999	-1.281622	0.392748
N22	N	0.360376	-1.339427	0.514388
C23	C	0.000040	-1.537914	0.562728
C24	C	0.000052	-1.660428	0.599111
C25	C	0.000057	-0.732973	0.712571
C26	C	0.000064	-0.848081	0.746759
C27	C	0.000054	-0.890657	0.667490
C28	C	0.000039	-0.818112	0.554028
C29	C	0.000043	-0.702992	0.519837
C30	C	0.000040	-0.860676	0.474756
C31	C	0.000024	-0.788132	0.361294
C32	C	0.000027	-0.673023	0.327109
C33	C	0.000037	-0.630448	0.406377
C34	C	0.000036	-0.975796	0.508947
C35	C	0.000021	-0.945816	0.316213
C36	C	0.000014	-0.830707	0.282025
C37	C	0.000040	-1.537574	-0.092030
C38	C	0.000027	-1.571761	0.023079
C39	C	0.000030	-1.492492	0.065654
C40	C	0.000044	-1.379030	-0.006890
C41	C	0.000045	-1.344839	-0.122010
C42	C	0.000035	-1.299758	0.035674
C43	C	0.000049	-1.186296	-0.036871
C44	C	0.000051	-1.152111	-0.151979
C45	C	0.000049	-1.231380	-0.194555
C46	C	0.000033	-1.333949	0.150794
C47	C	0.000039	-1.141215	0.120813
C48	C	0.000051	-1.107028	0.005705
C49	C	0.000039	-1.387730	0.712912
C50	C	0.000044	-1.424114	0.835426
H51	H	-0.619492	-1.184582	0.540239
N52	N	0.000049	-0.984657	-0.072553
H53	H	-0.085692	-0.948465	-0.059080
H54	H	0.085844	-0.948573	-0.059038
N55	N	-0.365255	-1.519402	0.689330
H56	H	-0.303173	-1.467307	0.705825
H57	H	-0.446367	-1.542660	0.742673
N58	N	0.000052	-1.194501	-0.318712
H59	H	0.085793	-1.148442	-0.352319
H60	H	0.000003	-1.261990	-0.334576
N61	N	-0.634270	-1.325008	0.696902
H62	H	-0.739192	-1.321318	0.696271
H63	H	-0.603509	-1.405178	0.735660
H64	H	-0.380928	-1.313132	0.668896
H65	H	0.000030	-0.613959	0.234721
N66	N	0.000074	-0.687054	0.798059
H67	H	0.085820	-0.713650	0.846133
H68	H	0.000027	-0.603130	0.759098
H69	H	0.000052	-1.059723	-0.211043
H70	H	-0.617559	-1.504549	0.661792
H71	H	-0.380801	-1.192001	0.350096
H72	H	0.000013	-0.771625	0.189642
H73	H	0.000063	-0.984385	0.695333
H74	H	0.000088	-0.907140	0.839139
H75	H	0.000031	-0.536718	0.378547
N76	N	-0.367158	-1.156067	0.527863
H77	H	-0.448809	-1.103235	0.504744
H78	H	-0.308973	-1.142743	0.583975
H79	H	0.000019	-0.980479	0.251665
H80	H	-0.380404	-1.512049	0.527194
H81	H	0.000034	-1.076667	0.155477
N82	N	-0.634142	-1.166821	0.330454
H83	H	-0.697629	-1.148425	0.380493
H84	H	-0.553307	-1.113222	0.306452
H85	H	-0.618962	-1.512469	0.528669
H86	H	-0.378704	-1.323606	0.340011
N87	N	-0.630708	-1.346606	0.328627
H88	H	-0.691755	-1.410500	0.378104
H89	H	-0.685835	-1.294751	0.261836
H90	H	0.000022	-1.426331	0.209849
H91	H	0.000043	-1.034852	0.601328
H92	H	0.000019	-1.520335	0.159382
H93	H	0.000014	-1.664142	0.082137
H94	H	0.000026	-1.602102	-0.126707
