data_functionalizedCrystal
_audit_creation_method	'MofGen! by Chris Wilmer'
_symmetry_space_group_name_H-M	'P1'
_symmetry_Int_Tables_number	1
_symmetry_cell_setting	triclinic
loop_
_symmetry_equiv_pos_as_xyz
  x,y,z
_cell_length_a	6.817900
_cell_length_b	14.858565
_cell_length_c	19.453030
_cell_angle_alpha	95.586750
_cell_angle_beta	101.707737
_cell_angle_gamma	104.523916
loop_
_atom_site_label
_atom_site_type_symbol
_atom_site_fract_x
_atom_site_fract_y
_atom_site_fract_z
V1	V	-4.012060	-0.129639	-0.219196
V2	V	-3.512060	0.370361	0.280804
O3	O	-3.994512	0.005233	-0.214822
O4	O	-3.494512	0.505233	0.285178
O5	O	-3.968815	-0.256094	-0.217891
O6	O	-3.468815	0.243906	0.282109
O7	O	-3.954904	-0.128082	-0.314706
O8	O	-3.454904	0.371918	0.185294
O9	O	-4.008519	-0.123665	-0.117336
O10	O	-3.508519	0.376335	0.382664
V11	V	-4.496155	-0.113455	-0.206989
V12	V	-3.996155	0.386545	0.293011
O13	O	-4.272065	-0.165140	-0.245973
O14	O	-3.772065	0.334860	0.254027
O15	O	-4.686348	-0.077954	-0.180212
O16	O	-4.186348	0.422046	0.319788
O17	O	-4.316194	0.013000	-0.208294
O18	O	-3.816194	0.513000	0.291706
O19	O	-4.631100	-0.248327	-0.211363
O20	O	-4.131100	0.251673	0.288637
O21	O	-4.617093	-0.119429	-0.308849
O22	O	-4.117093	0.380571	0.191151
O23	O	-4.330104	-0.115012	-0.111479
O24	O	-3.830104	0.384988	0.388521
C25	C	-3.815353	-0.286908	-0.214483
C26	C	-3.315353	0.213092	0.285517
C27	C	-3.861223	-0.390289	-0.214052
C28	C	-3.361223	0.109711	0.285948
C29	C	-4.029112	-0.768853	-0.212485
C30	C	-3.529112	-0.268853	0.287515
C31	C	-3.982392	-0.663525	-0.212921
C32	C	-3.482392	-0.163525	0.287079
C33	C	-3.945168	-0.579574	-0.213268
C34	C	-3.445168	-0.079574	0.286732
C35	C	-3.898446	-0.474240	-0.213705
C36	C	-3.398446	0.025760	0.286295
C37	C	-3.797608	-0.123614	-0.337980
C38	C	-3.297608	0.376386	0.162020
C39	C	-3.832194	-0.123178	-0.416062
C40	C	-3.332194	0.376822	0.083938
C41	C	-3.891151	-0.208184	-0.462896
C42	C	-3.391151	0.291816	0.037104
C43	C	-3.923673	-0.207784	-0.536264
C44	C	-3.423673	0.292216	-0.036264
C45	C	-3.897193	-0.122372	-0.562793
C46	C	-3.397193	0.377628	-0.062793
C47	C	-3.838238	-0.037355	-0.515948
C48	C	-3.338238	0.462645	-0.015948
C49	C	-3.805738	-0.037758	-0.442582
C50	C	-3.305738	0.462242	0.057418
N51	N	-3.802788	-0.055406	-0.668185
N52	N	-3.302788	0.444594	-0.168185
N53	N	-3.833660	-0.055028	-0.737879
N54	N	-3.333660	0.444972	-0.237879
C55	C	-3.995115	-0.121152	-0.783838
C56	C	-3.495115	0.378848	-0.283838
N57	N	-4.124514	-0.187682	-0.757470
N58	N	-3.624514	0.312318	-0.257470
N59	N	-4.093632	-0.188061	-0.687769
N60	N	-3.593632	0.311939	-0.187769
C61	C	-3.932430	-0.121925	-0.642344
C62	C	-3.432430	0.378075	-0.142344
C63	C	-4.089342	-0.205731	-0.910227
C64	C	-3.589342	0.294269	-0.410227
C65	C	-4.121875	-0.205327	-0.983595
C66	C	-3.621875	0.294673	-0.483595
C67	C	-4.036417	-0.034895	-0.963277
C68	C	-3.536417	0.465105	-0.463277
C69	C	-4.003907	-0.035301	-0.889911
C70	C	-3.503907	0.464699	-0.389911
C71	C	-4.030362	-0.120722	-0.863390
C72	C	-3.530362	0.379278	-0.363390
C73	C	-4.132998	0.043809	-0.211700
C74	C	-3.632998	0.543809	0.288300
C75	C	-4.066366	0.147189	-0.212136
C76	C	-3.566366	0.647189	0.287864
C77	C	-4.150744	-0.119483	-0.088201
C78	C	-3.650744	0.380517	0.411799
C79	C	-4.095396	-0.119914	-0.010119
C80	C	-3.595396	0.380086	0.489881
H81	H	-3.912707	-0.277740	-0.441309
H82	H	-3.412707	0.222260	0.058691
C83	C	-3.988527	-0.301301	-0.587791
C84	C	-3.488527	0.198699	-0.087791
N85	N	-4.037370	-0.371738	-0.626599
N86	N	-3.537370	0.128262	-0.126599
C87	C	-4.007293	0.059060	-0.992455
C88	C	-3.507293	0.559060	-0.492455
N89	N	-3.985361	0.129829	-1.014434
N90	N	-3.485361	0.629829	-0.514434
C91	C	-3.939013	0.058214	-0.838389
C92	C	-3.439013	0.558214	-0.338389
N93	N	-3.890132	0.128655	-0.799583
N94	N	-3.390132	0.628655	-0.299583
H95	H	-4.110887	-0.275285	-0.888633
H96	H	-3.610887	0.224715	-0.388633
H97	H	-3.816685	0.032188	-0.537552
H98	H	-3.316685	0.532188	-0.037552
C99	C	-4.186706	-0.298845	-1.035114
C100	C	-3.686706	0.201155	-0.535114
N101	N	-4.235523	-0.369285	-1.073919
N102	N	-3.735523	0.130715	-0.573919
C103	C	-3.740858	0.055760	-0.391061
C104	C	-3.240858	0.555760	0.108939
N105	N	-3.691980	0.126200	-0.352254
N106	N	-3.191980	0.626200	0.147746
