data_functionalizedCrystal
_audit_creation_method	'MofGen! by Chris Wilmer'
_symmetry_space_group_name_H-M	'P1'
_symmetry_Int_Tables_number	1
_symmetry_cell_setting	triclinic
loop_
_symmetry_equiv_pos_as_xyz
  x,y,z
_cell_length_a	12.759394
_cell_length_b	12.759401
_cell_length_c	12.759393
_cell_angle_alpha	89.981425
_cell_angle_beta	89.967655
_cell_angle_gamma	90.015263
loop_
_atom_site_label
_atom_site_type_symbol
_atom_site_fract_x
_atom_site_fract_y
_atom_site_fract_z
Zn1	Zn	-0.418192	1.606254	-0.593979
Zn2	Zn	-0.593911	1.606148	-0.418297
Zn3	Zn	-0.418248	1.430556	-0.418318
Zn4	Zn	-0.593831	1.430544	-0.593938
O5	O	-0.506046	1.518376	-0.506133
O6	O	-0.441512	1.753261	-0.570683
O7	O	-0.570666	1.582816	-0.271279
O8	O	-0.271220	1.453912	-0.441646
O9	O	-0.570612	1.753183	-0.441610
O10	O	-0.271178	1.582997	-0.570704
O11	O	-0.441607	1.453809	-0.271295
O12	O	-0.441529	1.283533	-0.441607
O13	O	-0.570475	1.453892	-0.740965
O14	O	-0.570529	1.283525	-0.570634
O15	O	-0.441434	1.582985	-0.740995
O16	O	-0.740922	1.582804	-0.441570
O17	O	-0.740863	1.453789	-0.570613
C18	C	-0.506027	1.245408	-0.506119
C19	C	-0.506045	1.128632	-0.506137
C20	C	-0.438944	1.073811	-0.573449
C21	C	-0.438955	0.964087	-0.573456
C22	C	-0.573176	0.964014	-0.438836
C23	C	-0.573160	1.073736	-0.438825
C24	C	-0.779013	1.518312	-0.506108
C25	C	-0.895790	1.518382	-0.506132
C26	C	-0.895798	1.652826	-0.371861
C27	C	-0.950663	1.720076	-0.304737
C28	C	-1.060384	1.720137	-0.304766
C29	C	-1.115243	1.652944	-0.371927
C30	C	-1.060379	1.585695	-0.439051
C31	C	-0.950655	1.585638	-0.439013
C32	C	-1.060371	1.451257	-0.573326
C33	C	-0.950649	1.451188	-0.573294
C34	C	-1.115230	1.384064	-0.640487
C35	C	-1.060365	1.316807	-0.707607
C36	C	-0.950637	1.316748	-0.707575
C37	C	-0.895784	1.383939	-0.640417
C38	C	-0.232012	1.518467	-0.506182
C39	C	-0.115235	1.518507	-0.506203
C40	C	-0.505939	1.518449	-0.780167
C41	C	-0.505894	1.518480	-0.896944
C42	C	-0.506064	1.792409	-0.506149
C43	C	-0.506073	1.909185	-0.506156
C44	C	-0.438681	1.451331	-0.951813
C45	C	-0.438648	1.451355	-1.061537
C46	C	-0.573046	1.585688	-1.061513
C47	C	-0.573082	1.585657	-0.951790
C48	C	-0.506076	1.518363	-0.233166
C49	C	-0.505825	1.518535	-0.116390
H50	H	-0.627802	1.118372	-0.384006
H51	H	-1.105055	1.774903	-0.250113
H52	H	-1.204571	1.384123	-0.640510
H53	H	-1.105040	1.262109	-0.762289
H54	H	-0.384313	0.919456	-0.628266
H55	H	-0.383972	1.396630	-0.907160
H56	H	-0.806457	1.652769	-0.371817
H57	H	-0.627747	1.640382	-1.106182
H58	H	-0.905972	1.261989	-0.762239
H59	H	-0.905987	1.774786	-0.250057
H60	H	-0.627820	0.919305	-0.384034
H61	H	-0.806443	1.383890	-0.640378
H62	H	-0.383918	1.396674	-1.106207
H63	H	-0.627820	1.640341	-0.907114
H64	H	-1.204584	1.653010	-0.371954
H65	H	-0.384292	1.118503	-0.628256
