data_functionalizedCrystal
_audit_creation_method	'MofGen! by Chris Wilmer'
_symmetry_space_group_name_H-M	'P1'
_symmetry_Int_Tables_number	1
_symmetry_cell_setting	triclinic
loop_
_symmetry_equiv_pos_as_xyz
  x,y,z
_cell_length_a	19.805407
_cell_length_b	12.645330
_cell_length_c	19.805399
_cell_angle_alpha	90.023856
_cell_angle_beta	90.017803
_cell_angle_gamma	90.009962
loop_
_atom_site_label
_atom_site_type_symbol
_atom_site_fract_x
_atom_site_fract_y
_atom_site_fract_z
Zn1	Zn	1.034800	-0.422140	0.382705
Zn2	Zn	1.034742	-0.599418	0.269524
Zn3	Zn	0.921615	-0.422161	0.269533
Zn4	Zn	0.921606	-0.599353	0.382675
O5	O	0.978191	-0.510768	0.326109
O6	O	1.129509	-0.445674	0.367701
O7	O	1.019715	-0.575940	0.174809
O8	O	0.936657	-0.273811	0.284562
O9	O	1.129467	-0.575920	0.284547
O10	O	1.019814	-0.273795	0.367709
O11	O	0.936601	-0.445710	0.174815
O12	O	0.826897	-0.445647	0.284533
O13	O	0.936642	-0.575810	0.477395
O14	O	0.826890	-0.575830	0.367657
O15	O	1.019805	-0.445612	0.477418
O16	O	1.019706	-0.747757	0.284517
O17	O	0.936585	-0.747709	0.367648
C18	C	0.802335	-0.510735	0.326093
C19	C	0.727103	-0.510746	0.326102
C20	C	0.691782	-0.443047	0.369466
C21	C	0.621093	-0.443053	0.369468
C22	C	0.585727	-0.510763	0.326110
C23	C	0.621054	-0.578465	0.282741
C24	C	0.691741	-0.578454	0.282736
C25	C	0.335980	-0.578513	0.282762
C26	C	0.265288	-0.578522	0.282772
C27	C	0.265333	-0.443112	0.369495
C28	C	0.336020	-0.443100	0.369489
C29	C	0.371340	-0.510798	0.326118
C30	C	0.447988	-0.510790	0.326115
C31	C	0.509080	-0.510778	0.326116
C32	C	0.978157	-0.786198	0.326093
C33	C	0.978204	-0.904028	0.326109
C34	C	1.030412	-1.071577	0.273705
C35	C	1.030582	-0.949017	0.273834
C36	C	0.997546	-0.948417	0.397456
C37	C	0.997960	-1.071015	0.397177
C38	C	0.906635	-1.071348	0.307870
C39	C	0.906978	-0.948744	0.306270
C40	C	1.154734	-0.510802	0.326126
C41	C	1.229966	-0.510817	0.326133
C42	C	0.978229	-0.510701	0.502652
C43	C	0.978245	-0.510673	0.577884
C44	C	0.978243	-0.234263	0.326140
C45	C	0.978266	-0.116433	0.326153
C46	C	0.978192	-0.510758	0.150253
C47	C	0.978307	-0.510488	0.075022
C48	C	1.021549	-0.442875	0.613241
C49	C	1.021556	-0.442845	0.683930
C50	C	0.978262	-0.510617	0.719260
C51	C	0.934953	-0.578418	0.683898
C52	C	0.934943	-0.578443	0.613211
C53	C	0.934991	-0.578319	0.968971
C54	C	0.935006	-0.578291	1.039663
C55	C	1.021604	-0.442721	1.039690
C56	C	1.021594	-0.442746	0.969003
C57	C	0.978283	-0.510542	0.933647
C58	C	0.978275	-0.510573	0.856999
C59	C	0.978273	-0.510592	0.795907
H60	H	0.236495	-0.633662	0.247462
F61	F	0.373655	-0.371039	0.415640
F62	F	1.067676	-0.370616	0.931406
F63	F	0.373562	-0.650545	0.236591
F64	F	0.888923	-0.650428	1.077263
H65	H	0.236567	-0.387986	0.404807
H66	H	1.056868	-0.387515	1.068485
F67	F	0.729414	-0.370984	0.415618
F68	F	0.583413	-0.650523	0.236592
H69	H	0.720498	-0.633580	0.247424
F70	F	0.950466	-1.109798	0.449991
F71	F	1.065209	-0.908185	0.418038
H72	H	0.899734	-0.633538	0.940193
F73	F	0.888873	-0.650543	0.721501
H74	H	0.899673	-0.633640	0.584424
H75	H	1.018481	-0.919009	0.220931
H76	H	1.018463	-1.101125	0.220648
F77	F	0.583505	-0.371000	0.415624
H78	H	1.083182	-1.102313	0.285663
F79	F	1.066396	-1.108294	0.417419
F80	F	1.099927	-0.910580	0.289643
H81	H	0.960721	-0.919272	0.437580
H82	H	0.889046	-1.102352	0.256750
F83	F	0.853453	-0.908730	0.352539
F84	F	0.887913	-0.910831	0.237644
H85	H	0.867782	-1.100357	0.346070
H86	H	1.056821	-0.387640	0.712714
F87	F	1.067633	-0.370746	0.575646
