data_functionalizedCrystal
_audit_creation_method	'MofGen! by Chris Wilmer'
_symmetry_space_group_name_H-M	'P1'
_symmetry_Int_Tables_number	1
_symmetry_cell_setting	triclinic
loop_
_symmetry_equiv_pos_as_xyz
  x,y,z
_cell_length_a	15.944551
_cell_length_b	10.868271
_cell_length_c	11.792241
_cell_angle_alpha	89.998922
_cell_angle_beta	83.846077
_cell_angle_gamma	89.999718
loop_
_atom_site_label
_atom_site_type_symbol
_atom_site_fract_x
_atom_site_fract_y
_atom_site_fract_z
O1	O	1.115186	-0.102194	0.146373
O2	O	0.870717	-0.102225	0.164420
O3	O	0.998884	-0.102200	-0.009823
O4	O	0.987019	-0.102219	0.320616
O5	O	0.998871	0.102444	-0.009815
O6	O	0.870704	0.102420	0.164428
O7	O	1.115173	0.102450	0.146381
Zn8	Zn	0.992937	0.134927	0.155405
Zn9	Zn	0.992953	-0.134701	0.155396
O10	O	0.987006	0.102426	0.320624
C11	C	0.839414	0.000093	0.163675
C12	C	0.746157	0.000082	0.161429
N13	N	0.992931	0.318941	0.155411
C14	C	0.992937	0.430278	0.155413
C15	C	0.992947	0.569956	0.155403
C16	C	0.530789	0.000112	0.048056
C17	C	0.470013	-0.100791	0.100699
C18	C	0.575413	0.000097	0.157365
C19	C	0.470023	0.100972	0.100732
C20	C	0.410483	0.000116	0.153432
C21	C	0.515865	-0.100890	0.210038
C22	C	0.515881	0.100964	0.210056
C23	C	0.455123	0.000036	0.262778
C24	C	0.670426	0.000084	0.159628
C25	C	0.315471	0.000120	0.151178
C26	C	1.146476	0.000129	0.147126
C27	C	1.239733	0.000133	0.149372
N28	N	0.992960	0.681284	0.155389
C29	C	0.998132	0.000122	-0.052104
C30	C	0.995901	0.000120	-0.178099
C31	C	0.991799	0.000099	-0.408777
C32	C	0.994079	0.000110	-0.280411
C33	C	0.987758	0.000101	0.362905
C34	C	0.989989	0.000094	0.488900
H35	H	0.563713	-0.000007	-0.042662
H36	H	0.449699	-0.186093	0.054463
H37	H	0.422374	-0.000026	0.353590
O38	O	0.542631	-0.214033	0.271190
H39	H	0.574525	-0.185800	0.346216
H40	H	0.449722	0.186275	0.054482
O41	O	0.542839	0.213953	0.271246
H42	H	0.524688	0.297596	0.225695
