data_functionalizedCrystal
_audit_creation_method	'MofGen! by Chris Wilmer'
_symmetry_space_group_name_H-M	'P1'
_symmetry_Int_Tables_number	1
_symmetry_cell_setting	triclinic
loop_
_symmetry_equiv_pos_as_xyz
  x,y,z
_cell_length_a	16.959454
_cell_length_b	16.959455
_cell_length_c	19.076919
_cell_angle_alpha	92.276161
_cell_angle_beta	92.275489
_cell_angle_gamma	90.017095
loop_
_atom_site_label
_atom_site_type_symbol
_atom_site_fract_x
_atom_site_fract_y
_atom_site_fract_z
Zn1	Zn	-0.332721	1.190436	-0.398063
Zn2	Zn	-0.459594	1.195665	-0.280377
Zn3	Zn	-0.327426	1.063571	-0.280372
Zn4	Zn	-0.464853	1.058231	-0.398022
O5	O	-0.396148	1.126976	-0.339208
O6	O	-0.349566	1.301740	-0.382471
O7	O	-0.437645	1.182565	-0.181887
O8	O	-0.217518	1.080446	-0.295998
O9	O	-0.442779	1.305581	-0.296008
O10	O	-0.221408	1.173654	-0.382465
O11	O	-0.340542	1.085516	-0.181883
O12	O	-0.345641	0.952253	-0.295959
O13	O	-0.451741	1.071345	-0.496516
O14	O	-0.446608	0.948329	-0.382396
O15	O	-0.354665	1.168476	-0.496546
O16	O	-0.570902	1.177387	-0.295968
O17	O	-0.574765	1.076415	-0.382401
C18	C	-0.396121	0.921611	-0.339173
C19	C	-0.396129	0.833754	-0.339174
C20	C	-0.444633	0.464268	-0.294164
C21	C	-0.347733	0.460283	-0.384338
C22	C	-0.347719	0.542829	-0.384321
C23	C	-0.396164	0.586099	-0.339226
C24	C	-0.444623	0.546822	-0.294147
C25	C	-0.299267	0.582112	-0.429404
C26	C	-0.299252	0.664664	-0.429389
C27	C	-0.347693	0.707935	-0.384289
C28	C	-0.396153	0.668653	-0.339209
C29	C	-0.444598	0.711923	-0.294113
C30	C	-0.493055	0.672643	-0.249028
C31	C	-0.493064	0.590094	-0.249047
C32	C	-0.347684	0.790485	-0.384270
C33	C	-0.444588	0.794477	-0.294096
C34	C	-0.601514	1.126910	-0.339196
C35	C	-0.689372	1.126953	-0.339215
C36	C	-1.062888	1.074473	-0.384209
C37	C	-1.058809	1.179695	-0.294279
C38	C	-0.976262	1.179668	-0.294273
C39	C	-0.937025	1.127042	-0.339234
C40	C	-0.980334	1.074443	-0.384203
C41	C	-0.932947	1.232260	-0.249300
C42	C	-0.850396	1.232235	-0.249291
C43	C	-0.811157	1.179612	-0.294257
C44	C	-0.854472	1.127011	-0.339228
C45	C	-0.815234	1.074385	-0.384190
C46	C	-0.858547	1.021788	-0.429164
C47	C	-0.941096	1.021820	-0.429169
C48	C	-0.728609	1.179579	-0.294253
C49	C	-0.732681	1.074354	-0.384183
C50	C	-0.189981	1.127063	-0.339236
C51	C	-0.102125	1.127099	-0.339247
C52	C	-0.404380	1.118732	-0.522782
C53	C	-0.407888	1.115219	-0.601011
C54	C	-0.396176	1.333142	-0.339244
C55	C	-0.396188	1.420998	-0.339260
C56	C	-0.358996	1.164136	-0.637779
C57	C	-0.362289	1.160826	-0.711283
C58	C	-0.414479	1.108601	-0.748017
C59	C	-0.463373	1.059678	-0.711243
C60	C	-0.460076	1.062985	-0.637741
C61	C	-0.429757	1.093284	-0.967844
C62	C	-0.433053	1.089982	-1.041352
C63	C	-0.331967	1.191129	-1.041387
C64	C	-0.328678	1.194435	-0.967883
C65	C	-0.377569	1.145509	-0.931115
N66	N	-0.417848	1.105217	-0.823150
N67	N	-0.374195	1.148889	-0.855984
C68	C	-0.387891	1.135233	-0.156348
C69	C	-0.384161	1.138899	-0.078120
H70	H	-0.308233	0.822463	-0.420979
H71	H	-0.700739	1.031502	-0.420799
F72	F	-1.108984	1.018501	-0.432075
F73	F	-0.310278	1.212918	-0.750412
F74	F	-0.816779	0.965777	-0.477011
H75	H	-0.976369	0.978997	-0.465784
F76	F	-0.544617	0.718703	-0.201040
H77	H	-1.090760	1.222537	-0.257669
H78	H	-0.316500	1.206666	-0.607876
F79	F	-0.544631	0.548284	-0.201070
F80	F	-0.974710	1.288268	-0.201455
H81	H	-0.815135	1.275062	-0.212671
H82	H	-0.484083	0.432282	-0.257455
F83	F	-0.682515	1.235546	-0.246385
H84	H	-0.286181	1.236964	-0.937979
F85	F	-0.279936	1.243194	-1.080522
H86	H	-0.475554	1.047452	-1.071259
H87	H	-0.469580	1.053456	-0.937917
H88	H	-0.499881	1.023143	-0.607805
F89	F	-0.496146	0.840522	-0.246094
F90	F	-0.296185	0.414230	-0.432336
H91	H	-0.259831	0.546876	-0.466123
F92	F	-0.247681	0.706462	-0.477371
F93	F	-0.518915	1.004093	-0.750340
