data_functionalizedCrystal
_audit_creation_method	'MofGen! by Chris Wilmer'
_symmetry_space_group_name_H-M	'P1'
_symmetry_Int_Tables_number	1
_symmetry_cell_setting	triclinic
loop_
_symmetry_equiv_pos_as_xyz
  x,y,z
_cell_length_a	10.654549
_cell_length_b	16.109301
_cell_length_c	15.186229
_cell_angle_alpha	90.000638
_cell_angle_beta	89.997236
_cell_angle_gamma	96.026871
loop_
_atom_site_label
_atom_site_type_symbol
_atom_site_fract_x
_atom_site_fract_y
_atom_site_fract_z
O1	O	0.161419	-1.104090	-0.073171
O2	O	0.181507	-0.862148	-0.073185
O3	O	-0.011352	-0.988682	-0.073174
O4	O	0.354278	-0.977556	-0.073182
O5	O	-0.011354	-0.988673	0.073283
O6	O	0.181505	-0.862139	0.073273
O7	O	0.161416	-1.104082	0.073286
Zn8	Zn	0.171460	-0.983109	0.096533
Zn9	Zn	0.171464	-0.983120	-0.096431
O10	O	0.354275	-0.977548	0.073275
C11	C	0.180692	-0.831164	0.000042
C12	C	0.178253	-0.738854	0.000037
C13	C	-0.058140	-0.987861	0.000054
C14	C	-0.197550	-0.985417	0.000051
C15	C	0.162231	-1.135066	0.000057
C16	C	0.164671	-1.227375	0.000057
C17	C	-0.409044	-1.057616	0.000049
C18	C	-0.278055	-1.059918	0.000056
C19	C	-0.248040	-0.908608	0.000048
C20	C	-0.379027	-0.906306	0.000047
C21	C	-0.117076	-1.153950	0.051375
C22	C	-0.066590	-1.230757	0.051366
C23	C	-0.122349	-1.296809	0.000050
C24	C	-0.228592	-1.286056	-0.051279
C25	C	-0.279071	-1.209248	-0.051278
C26	C	-0.223315	-1.143199	0.000059
C27	C	-0.540010	-0.812280	-0.051280
C28	C	-0.590491	-0.735470	-0.051285
C29	C	-0.534733	-0.669412	0.000026
C30	C	-0.428484	-0.680156	0.051342
C31	C	-0.378003	-0.756965	0.051347
C32	C	-0.433770	-0.823024	0.000037
C33	C	0.401063	-0.978369	0.000046
C34	C	0.540473	-0.980813	0.000043
N35	N	0.171457	-0.983107	0.228225
C36	C	0.287019	-0.517228	0.000045
C37	C	0.284717	-0.430494	0.000050
C38	C	0.055896	-0.449008	0.000052
C39	C	0.058199	-0.535740	0.000052
C40	C	0.173764	-0.569848	0.000044
C41	C	0.169159	-0.396381	0.000049
C42	C	0.166662	-0.302341	0.000056
C43	C	0.176262	-0.663895	0.000040
N44	N	0.171457	-0.983128	-0.228124
C45	C	0.086088	-1.039156	0.453953
C46	C	0.086085	-1.039159	0.546143
C47	C	0.256830	-0.927074	0.546142
C48	C	0.256826	-0.927068	0.453954
C49	C	0.171456	-0.983114	0.407862
C50	C	0.171457	-0.983122	0.592240
C51	C	0.171455	-0.983125	0.692196
C52	C	0.171457	-0.983110	0.307899
H53	H	-0.474584	-1.118284	0.000046
H54	H	0.019914	-1.239506	0.093165
H55	H	0.326338	-0.881443	0.583680
H56	H	-0.038193	-0.421227	0.000064
O57	O	0.339935	-0.872709	0.409216
C58	C	0.464260	-0.886926	0.431748
H59	H	0.464905	-0.953492	0.457086
H60	H	0.501131	-0.841060	0.485260
C61	C	0.548595	-0.792734	0.318729
C62	C	0.549389	-0.874495	0.349842
H63	H	0.601109	-0.785063	0.268208
H64	H	0.464836	-0.783153	0.303551
H65	H	0.579318	-0.754522	0.363330
H66	H	0.518652	-0.912705	0.305246
H67	H	0.633146	-0.884082	0.365011
H68	H	0.016568	-1.084793	0.583667
O69	O	-0.693567	-0.724941	-0.101238
C70	C	-0.663042	-0.660113	-0.162405
H71	H	-0.556725	-0.652167	-0.173905
H72	H	-0.694126	-0.599453	-0.135481
C73	C	-0.861905	-0.691735	-0.235932
C74	C	-0.731326	-0.681980	-0.250062
H75	H	-0.904029	-0.705221	-0.290002
H76	H	-0.882474	-0.735409	-0.194721
H77	H	-0.887791	-0.641183	-0.213493
H78	H	-0.705439	-0.732535	-0.272489
H79	H	-0.710754	-0.638315	-0.291279
H80	H	-0.182483	-0.847948	0.000049
H81	H	-0.034032	-0.578586	0.000055
O82	O	0.003034	-1.093622	0.409315
C83	C	-0.072294	-1.143100	0.469770
H84	H	-0.073721	-1.109009	0.535487
H85	H	-0.031494	-1.205095	0.479567
C86	C	-0.206015	-1.201322	0.353084
C87	C	-0.207775	-1.159448	0.433797
H88	H	-0.289584	-1.211410	0.330894
H89	H	-0.155262	-1.167990	0.312354
H90	H	-0.172009	-1.252980	0.361259
H91	H	-0.241766	-1.107786	0.425619
H92	H	-0.258537	-1.192771	0.474525
H93	H	-0.365570	-1.200493	-0.093071
H94	H	-0.585422	-0.866068	-0.093063
O95	O	-0.282626	-1.350317	-0.101057
C96	C	-0.215271	-1.420408	-0.090069
H97	H	-0.162379	-1.415193	-0.024722
H98	H	-0.144953	-1.423091	-0.146323
C99	C	-0.373098	-1.506795	-0.170612
C100	C	-0.308143	-1.500394	-0.090348
H101	H	-0.430383	-1.556135	-0.170788
H102	H	-0.418474	-1.459573	-0.178018
H103	H	-0.314487	-1.509027	-0.217481
H104	H	-0.366751	-1.498152	-0.043482
H105	H	-0.262778	-1.547618	-0.082935
O106	O	0.394650	-0.379295	-0.000072
C107	C	0.400180	-0.328586	-0.075934
H108	H	0.300502	-0.323626	-0.101217
H109	H	0.457523	-0.357446	-0.129051
C110	C	0.585835	-0.247000	-0.021841
C111	C	0.463408	-0.240903	-0.052890
H112	H	0.624842	-0.192913	-0.007628
H113	H	0.582113	-0.281165	0.029268
H114	H	0.633605	-0.271053	-0.066110
H115	H	0.415636	-0.216860	-0.008616
H116	H	0.467123	-0.206731	-0.103990
H117	H	-0.071675	-1.100173	0.093174
O118	O	-0.274828	-0.767278	0.101283
C119	C	-0.236415	-0.692498	0.146558
H120	H	-0.319750	-0.653907	0.152748
H121	H	-0.157046	-0.655411	0.108514
C122	C	-0.086743	-0.760436	0.231440
C123	C	-0.189100	-0.713042	0.239050
H124	H	-0.057551	-0.773107	0.288492
H125	H	-0.112618	-0.810817	0.200936
H126	H	-0.020615	-0.729524	0.199733
H127	H	-0.255231	-0.743958	0.270746
H128	H	-0.163234	-0.662667	0.269562
O129	O	-0.374492	-0.615911	0.101161
C130	C	-0.441808	-0.545807	0.090134
H131	H	-0.541932	-0.567143	0.067286
H132	H	-0.392480	-0.502291	0.038728
C133	C	-0.323750	-0.472987	0.206457
C134	C	-0.446727	-0.499192	0.178402
H135	H	-0.326781	-0.444229	0.260902
H136	H	-0.278394	-0.520215	0.213884
H137	H	-0.282657	-0.436728	0.163610
H138	H	-0.487813	-0.535458	0.221242
H139	H	-0.492090	-0.451968	0.170983
H140	H	0.381119	-0.544995	0.000045
H141	H	-0.081233	-1.359346	0.000042
H142	H	-0.575840	-0.606868	0.000011
