data_functionalizedCrystal
_audit_creation_method	'MofGen! by Chris Wilmer'
_symmetry_space_group_name_H-M	'P1'
_symmetry_Int_Tables_number	1
_symmetry_cell_setting	triclinic
loop_
_symmetry_equiv_pos_as_xyz
  x,y,z
_cell_length_a	14.853567
_cell_length_b	19.188924
_cell_length_c	13.930277
_cell_angle_alpha	89.993371
_cell_angle_beta	89.995755
_cell_angle_gamma	83.388448
loop_
_atom_site_label
_atom_site_type_symbol
_atom_site_fract_x
_atom_site_fract_y
_atom_site_fract_z
O1	O	1.195859	0.091155	-0.079769
O2	O	1.695859	0.591155	0.420231
O3	O	0.933338	0.102014	-0.079786
O4	O	1.433338	0.602014	0.420214
O5	O	1.072178	-0.005046	-0.079766
O6	O	1.572178	0.494954	0.420234
O7	O	1.057020	0.198215	-0.079790
O8	O	1.557020	0.698215	0.420210
O9	O	1.072158	-0.005048	0.079896
O10	O	1.572158	0.494952	0.579896
O11	O	0.933319	0.102012	0.079876
O12	O	1.433319	0.602012	0.579876
O13	O	1.195839	0.091153	0.079893
O14	O	1.695839	0.591153	0.579893
Zn15	Zn	1.064576	0.096582	0.105234
Zn16	Zn	1.564576	0.596582	0.605234
Zn17	Zn	1.064602	0.096585	-0.105127
Zn18	Zn	1.564602	0.596585	0.394873
O19	O	1.057000	0.198213	0.079872
O20	O	1.557000	0.698213	0.579872
C21	C	0.899743	0.101521	0.000043
C22	C	1.399743	0.601521	0.500043
C23	C	0.799667	0.100047	0.000037
C24	C	1.299667	0.600047	0.500037
C25	C	0.387524	0.030218	0.000066
C26	C	0.887524	0.530218	0.500066
C27	C	0.365532	0.157408	0.000050
C28	C	0.865532	0.657408	0.500050
C29	C	0.459558	0.158794	0.000047
C30	C	0.959558	0.658794	0.500047
C31	C	0.517571	0.095891	0.000052
C32	C	1.017571	0.595891	0.500052
C33	C	0.481559	0.031602	0.000060
C34	C	0.981559	0.531602	0.500060
C35	C	0.495577	0.223082	0.000029
C36	C	0.995577	0.723082	0.500029
C37	C	0.589609	0.224471	0.000025
C38	C	1.089609	0.724471	0.500025
C39	C	0.647624	0.161567	0.000037
C40	C	1.147624	0.661567	0.500037
C41	C	0.611606	0.097276	0.000046
C42	C	1.111606	0.597276	0.500046
C43	C	0.669620	0.034373	0.000051
C44	C	1.169620	0.534373	0.500051
C45	C	0.633604	-0.029919	0.000067
C46	C	1.133604	0.470081	0.500067
C47	C	0.539575	-0.031301	0.000072
C48	C	1.039575	0.468699	0.500072
C49	C	0.741654	0.162949	0.000032
C50	C	1.241654	0.662949	0.500032
C51	C	0.763655	0.035758	0.000045
C52	C	1.263655	0.535758	0.500045
C53	C	1.071678	-0.031060	0.000066
C54	C	1.571678	0.468940	0.500066
C55	C	1.070208	-0.108570	0.000068
C56	C	1.570208	0.391430	0.500068
C57	C	1.069532	-0.144969	-0.086964
C58	C	1.569532	0.355031	0.413036
C59	C	1.068137	-0.217797	-0.086971
C60	C	1.568137	0.282203	0.413029
C61	C	1.067437	-0.254223	0.000059
C62	C	1.567437	0.245777	0.500059
C63	C	1.068108	-0.217814	0.087102
C64	C	1.568108	0.282186	0.587102
C65	C	1.069493	-0.144987	0.087107
C66	C	1.569493	0.355013	0.587107
N67	N	1.116557	-0.373724	0.064836
N68	N	1.616557	0.126276	0.564836
N69	N	1.115243	-0.442906	0.064825
N70	N	1.615243	0.057094	0.564825
C71	C	1.063261	-0.473646	0.000049
C72	C	1.563261	0.026354	0.500049
N73	N	1.012654	-0.432591	-0.064731
N74	N	1.512654	0.067409	0.435269
N75	N	1.013972	-0.363403	-0.064723
N76	N	1.513972	0.136597	0.435277
C77	C	1.065934	-0.333192	0.000063
C78	C	1.565934	0.166808	0.500063
C79	C	1.061072	-0.589014	-0.086997
C80	C	1.561072	-0.089014	0.413003
C81	C	1.059672	-0.661842	-0.087001
C82	C	1.559672	-0.161842	0.412999
C83	C	1.059652	-0.661859	0.087075
C84	C	1.559652	-0.161859	0.587075
C85	C	1.061042	-0.589031	0.087076
C86	C	1.561042	-0.089031	0.587076
C87	C	1.061757	-0.552613	0.000037
C88	C	1.561757	-0.052613	0.500037
C89	C	1.229435	0.091646	0.000062
C90	C	1.729435	0.591646	0.500062
C91	C	1.329510	0.093121	0.000061
C92	C	1.829510	0.593121	0.500061
C93	C	1.057500	0.224227	0.000038
C94	C	1.557500	0.724227	0.500038
C95	C	1.058970	0.301737	0.000030
C96	C	1.558970	0.801737	0.500030
N97	N	1.064566	0.096580	0.248800
N98	N	1.564566	0.596580	0.748800
N99	N	1.064619	0.096582	-0.248694
N100	N	1.564619	0.596582	0.251306
C101	C	1.003121	0.143973	0.701060
C102	C	1.503121	0.643973	1.201060
C103	C	1.126107	0.049192	0.701048
C104	C	1.626107	0.549192	1.201048
C105	C	1.126096	0.049190	0.600552
C106	C	1.626096	0.549190	1.100552
C107	C	1.064598	0.096581	0.550306
C108	C	1.564598	0.596581	1.050306
C109	C	1.003111	0.143973	0.600555
C110	C	1.503111	0.643973	1.100555
C111	C	1.187588	0.001803	0.550295
C112	C	1.687588	0.501803	1.050295
C113	C	1.187581	0.001799	0.449793
C114	C	1.687581	0.501799	0.949793
C115	C	1.126078	0.049187	0.399545
C116	C	1.626078	0.549187	0.899545
C117	C	1.064587	0.096581	0.449801
C118	C	1.564587	0.596581	0.949801
C119	C	1.003089	0.143972	0.399555
C120	C	1.503089	0.643972	0.899555
C121	C	0.941593	0.191363	0.449808
C122	C	1.441593	0.691363	0.949808
C123	C	0.941607	0.191361	0.550307
C124	C	1.441607	0.691361	1.050307
C125	C	1.126064	0.049189	0.299046
C126	C	1.626064	0.549189	0.799046
C127	C	1.003078	0.143972	0.299049
C128	C	1.503078	0.643972	0.799049
H129	H	0.770974	0.215295	0.000020
H130	H	1.270974	0.715295	0.500020
H131	H	0.810885	-0.015466	0.000052
H132	H	1.310885	0.484534	0.500052
Br133	Br	0.712347	-0.115284	0.000062
Br134	Br	1.212347	0.384716	0.500062
H135	H	1.059074	-0.691516	0.157936
H136	H	1.559074	-0.191516	0.657936
H137	H	0.891525	0.229952	0.408886
H138	H	1.391525	0.729952	0.908886
Br139	Br	1.070498	-0.095548	-0.205086
Br140	Br	1.570498	0.404452	0.294914
Br141	Br	1.067217	-0.267208	-0.205094
Br142	Br	1.567217	0.232792	0.294906
H143	H	0.510241	-0.083645	0.000108
H144	H	1.010241	0.416355	0.500108
H145	H	1.067535	-0.247477	0.157962
H146	H	1.567535	0.252523	0.657962
H147	H	0.891541	0.229946	0.591230
H148	H	1.391541	0.729946	1.091230
H149	H	1.061600	-0.559395	0.157947
H150	H	1.561600	-0.059395	0.657947
Br151	Br	0.286800	0.242772	0.000026
Br152	Br	0.786800	0.742772	0.500026
Br153	Br	1.271056	-0.062505	0.618482
Br154	Br	1.771056	0.437495	1.118482
H155	H	0.448336	0.274294	0.000016
H156	H	0.948336	0.774294	0.500016
H157	H	1.176136	0.010607	0.258134
H158	H	1.676136	0.510607	0.758134
Br159	Br	0.338649	-0.057032	0.000096
Br160	Br	0.838649	0.442968	0.500096
Br161	Br	0.919660	0.208283	0.769255
Br162	Br	1.419660	0.708283	1.269255
Br163	Br	0.638480	0.311722	0.000004
Br164	Br	1.138480	0.811722	0.500004
Br165	Br	1.070406	-0.095583	0.205231
Br166	Br	1.570406	0.404417	0.705231
H167	H	1.061649	-0.559360	-0.157869
H168	H	1.561649	-0.059360	0.342131
H169	H	1.059117	-0.691477	-0.157875
H170	H	1.559117	-0.191477	0.342125
H171	H	0.952996	0.182561	0.258145
H172	H	1.452996	0.682561	0.758145
H173	H	1.176181	0.010611	0.741961
H174	H	1.676181	0.510611	1.241961
Br175	Br	1.271034	-0.062516	0.381597
Br176	Br	1.771034	0.437484	0.881597
