data_functionalizedCrystal
_audit_creation_method	'MofGen! by Chris Wilmer'
_symmetry_space_group_name_H-M	'P1'
_symmetry_Int_Tables_number	1
_symmetry_cell_setting	triclinic
loop_
_symmetry_equiv_pos_as_xyz
  x,y,z
_cell_length_a	6.817900
_cell_length_b	19.551900
_cell_length_c	9.582880
_cell_angle_alpha	93.824329
_cell_angle_beta	111.207034
_cell_angle_gamma	101.664829
loop_
_atom_site_label
_atom_site_type_symbol
_atom_site_fract_x
_atom_site_fract_y
_atom_site_fract_z
V1	V	-4.107776	-0.096380	-0.467303
V2	V	-3.607776	0.403620	0.032697
O3	O	-4.102840	0.004935	-0.457683
O4	O	-3.602840	0.504935	0.042317
O5	O	-4.049994	-0.191397	-0.464803
O6	O	-3.549994	0.308603	0.035197
O7	O	-4.098698	-0.094764	-0.670792
O8	O	-3.598698	0.405236	-0.170792
O9	O	-4.053799	-0.092367	-0.250268
O10	O	-3.553799	0.407633	0.249732
V11	V	-4.587525	-0.084277	-0.441259
V12	V	-4.087525	0.415723	0.058741
O13	O	-4.377315	-0.122928	-0.524431
O14	O	-3.877315	0.377072	-0.024431
O15	O	-4.768183	-0.057729	-0.384130
O16	O	-4.268183	0.442271	0.115870
O17	O	-4.422100	0.010740	-0.443759
O18	O	-3.922100	0.510740	0.056241
O19	O	-4.709858	-0.185592	-0.450878
O20	O	-4.209858	0.314408	0.049122
O21	O	-4.758899	-0.088290	-0.658293
O22	O	-4.258899	0.411710	-0.158293
O23	O	-4.373396	-0.085893	-0.237770
O24	O	-3.873396	0.414107	0.262230
C25	C	-3.891440	-0.214564	-0.457611
C26	C	-3.391440	0.285436	0.042389
C27	C	-3.925746	-0.292241	-0.456923
C28	C	-3.425746	0.207759	0.043077
C29	C	-4.356720	-0.855594	-0.460890
C30	C	-3.856720	-0.355594	0.039110
C31	C	-4.324501	-0.782607	-0.461526
C32	C	-3.824501	-0.282607	0.038474
C33	C	-4.124495	-0.742453	-0.452946
C34	C	-3.624495	-0.242453	0.047054
C35	C	-3.956680	-0.775287	-0.443690
C36	C	-3.456680	-0.275287	0.056310
C37	C	-3.988897	-0.848271	-0.443039
C38	C	-3.488897	-0.348271	0.056961
C39	C	-3.973590	-0.630355	-0.535223
C40	C	-3.473590	-0.130355	-0.035223
C41	C	-3.941385	-0.557374	-0.535883
C42	C	-3.441385	-0.057374	-0.035883
C43	C	-4.025117	-0.517346	-0.454946
C44	C	-3.525117	-0.017346	0.045054
C45	C	-4.141101	-0.550311	-0.373369
C46	C	-3.641101	-0.050311	0.126631
C47	C	-4.173318	-0.623295	-0.372718
C48	C	-3.673318	-0.123295	0.127282
C49	C	-4.089541	-0.663314	-0.453650
C50	C	-3.589541	-0.163314	0.046350
C51	C	-4.157984	-0.405379	-0.464880
C52	C	-3.657984	0.094621	0.035120
C53	C	-4.125752	-0.332391	-0.465506
C54	C	-3.625752	0.167609	0.034494
C55	C	-3.757934	-0.325073	-0.447685
C56	C	-3.257934	0.174927	0.052315
C57	C	-3.790164	-0.398059	-0.447044
C58	C	-3.290164	0.101941	0.052956
C59	C	-3.990195	-0.438209	-0.455649
C60	C	-3.490195	0.061791	0.044351
C61	C	-3.953566	-0.091299	-0.720368
C62	C	-3.453566	0.408701	-0.220368
C63	C	-4.027366	-0.090607	-0.886726
C64	C	-3.527366	0.409393	-0.386726
C65	C	-4.243995	0.033903	-0.450947
C66	C	-3.743995	0.533903	0.049053
C67	C	-4.188929	0.111580	-0.451644
C68	C	-3.688929	0.611580	0.048356
C69	C	-4.181868	-0.089361	-0.188186
C70	C	-3.681868	0.410639	0.311814
C71	C	-4.087308	-0.090049	-0.021826
C72	C	-3.587308	0.409951	0.478174
H73	H	-3.905366	-0.662939	-0.601118
H74	H	-3.405366	-0.162939	-0.101118
F75	F	-3.817961	-0.522298	-0.622710
F76	F	-3.317961	-0.022298	-0.122710
F77	F	-3.545072	-0.282343	-0.438549
F78	F	-3.045072	0.217657	0.061451
H79	H	-4.209285	-0.517721	-0.307462
H80	H	-3.709285	-0.017721	0.192538
H81	H	-3.653531	-0.424787	-0.439521
H82	H	-3.153531	0.075213	0.060479
F83	F	-4.503100	-0.747664	-0.471385
F84	F	-4.003100	-0.247664	0.028615
F85	F	-3.743815	-0.732551	-0.434547
F86	F	-3.243815	-0.232551	0.065453
H87	H	-4.267748	-0.650131	-0.306293
H88	H	-3.767748	-0.150131	0.193707
H89	H	-4.320858	-0.438070	-0.471879
H90	H	-3.820858	0.061930	0.028121
H91	H	-4.519596	-0.888278	-0.467892
H92	H	-4.019596	-0.388278	0.032108
F93	F	-4.304335	-0.297453	-0.475317
F94	F	-3.804335	0.202547	0.024683
H95	H	-3.852257	-0.874998	-0.435514
H96	H	-3.352257	-0.374998	0.064486
