data_functionalizedCrystal
_audit_creation_method	'MofGen! by Chris Wilmer'
_symmetry_space_group_name_H-M	'P1'
_symmetry_Int_Tables_number	1
_symmetry_cell_setting	triclinic
loop_
_symmetry_equiv_pos_as_xyz
  x,y,z
_cell_length_a	10.908878
_cell_length_b	10.654551
_cell_length_c	10.065875
_cell_angle_alpha	98.877446
_cell_angle_beta	83.443480
_cell_angle_gamma	72.285076
loop_
_atom_site_label
_atom_site_type_symbol
_atom_site_fract_x
_atom_site_fract_y
_atom_site_fract_z
O1	O	1.720716	-0.215942	-0.113477
O2	O	1.347725	-0.118057	-0.113481
O3	O	1.542795	-0.351603	-0.113479
O4	O	1.525645	0.017603	-0.113478
O5	O	1.505599	-0.306922	0.113509
O6	O	1.310529	-0.073376	0.113508
O7	O	1.683520	-0.171261	0.113512
Zn8	Zn	1.491118	-0.115225	0.149549
Zn9	Zn	1.540126	-0.174094	-0.149518
O10	O	1.488449	0.062285	0.113510
C11	C	1.281367	-0.086569	0.000013
C12	C	1.139057	-0.059326	0.000011
C13	C	1.089163	-0.158731	0.000010
C14	C	0.942079	-0.130577	0.000009
C15	C	1.522938	-0.375787	0.000012
C16	C	1.519171	-0.514413	0.000003
C17	C	1.537679	-0.603896	-0.123726
C18	C	1.534126	-0.734143	-0.123720
C19	C	1.493562	-0.685412	0.123755
C20	C	1.497106	-0.555165	0.123747
C21	C	1.559744	-0.563144	-0.247471
C22	C	1.578255	-0.652630	-0.371210
C23	C	1.574702	-0.782877	-0.371204
C24	C	1.552639	-0.823639	-0.247459
C25	C	1.749878	-0.202750	0.000015
C26	C	1.892189	-0.229995	0.000008
C27	C	1.508307	0.086468	0.000016
C28	C	1.512075	0.225092	0.000016
N29	N	1.457682	-0.075050	0.353654
N30	N	1.573573	-0.214280	-0.353623
C31	C	1.528484	-0.160122	0.421434
C32	C	1.502760	-0.129196	0.578601
H33	H	1.155338	-0.264679	0.000004
Br34	Br	1.564579	-0.386387	-0.247487
Br35	Br	1.369966	0.030364	0.675797
H36	H	1.653234	-0.310020	0.588056
H37	H	1.589761	-0.855729	-0.471958
Br38	Br	1.002468	-0.406601	-0.000015
Br39	Br	1.608188	-0.597311	-0.539142
H40	H	0.875909	-0.024624	0.000003
H41	H	1.378016	0.020676	0.411980
H42	H	1.482008	-0.482295	0.224499
H43	H	1.549729	-0.929690	-0.247464
H44	H	1.475600	-0.718612	0.224503
Br45	Br	1.028777	0.117263	-0.000006
Br46	Br	1.660935	-0.319930	0.324233
