data_functionalizedCrystal
_audit_creation_method	'MofGen! by Chris Wilmer'
_symmetry_space_group_name_H-M	'P1'
_symmetry_Int_Tables_number	1
_symmetry_cell_setting	triclinic
loop_
_symmetry_equiv_pos_as_xyz
  x,y,z
_cell_length_a	10.654556
_cell_length_b	11.792254
_cell_length_c	9.730223
_cell_angle_alpha	89.995422
_cell_angle_beta	89.998368
_cell_angle_gamma	84.343067
loop_
_atom_site_label
_atom_site_type_symbol
_atom_site_fract_x
_atom_site_fract_y
_atom_site_fract_z
O1	O	1.667391	0.159453	-0.114239
O2	O	1.301872	0.174634	-0.114253
O3	O	1.493493	0.001895	-0.114236
O4	O	1.475770	0.332193	-0.114256
O5	O	1.493481	0.001890	0.114344
O6	O	1.301859	0.174629	0.114327
O7	O	1.667379	0.159449	0.114341
Zn8	Zn	1.484617	0.167038	0.150626
Zn9	Zn	1.484634	0.167044	-0.150538
O10	O	1.475757	0.332188	0.114324
C11	C	1.255071	0.173516	0.000035
C12	C	1.115637	0.170176	0.000030
C13	C	0.919112	0.165477	-0.124558
C14	C	1.050125	0.168608	-0.124567
C15	C	1.050130	0.168602	0.124644
C16	C	0.919120	0.165463	0.124651
C17	C	1.492371	-0.040401	0.000054
C18	C	1.489029	-0.166422	0.000052
C19	C	1.486314	-0.268765	0.000047
C20	C	1.482919	-0.397159	0.000035
C21	C	1.714180	0.160567	0.000050
C22	C	1.853613	0.163906	0.000046
C23	C	1.476880	0.374484	0.000032
C24	C	1.480222	0.500504	0.000024
N25	N	1.484615	0.167033	0.356163
N26	N	1.484645	0.167040	-0.356074
C27	C	1.569494	0.090577	0.428096
C28	C	1.569507	0.090577	0.571979
C29	C	1.399757	0.243500	0.571982
C30	C	1.399740	0.243494	0.428102
H31	H	1.103448	0.169885	-0.226032
F32	F	1.309434	0.324874	0.648554
H33	H	1.638604	0.028316	0.369526
H34	H	0.865790	0.164184	0.226125
F35	F	1.309390	0.324868	0.351539
F36	F	0.849399	0.163816	-0.257173
F37	F	1.659844	0.009200	0.648531
F38	F	1.119857	0.170268	0.257250
