data_functionalizedCrystal
_audit_creation_method	'MofGen! by Chris Wilmer'
_symmetry_space_group_name_H-M	'P1'
_symmetry_Int_Tables_number	1
_symmetry_cell_setting	triclinic
loop_
_symmetry_equiv_pos_as_xyz
  x,y,z
_cell_length_a	10.540514
_cell_length_b	10.540510
_cell_length_c	12.376457
_cell_angle_alpha	101.392640
_cell_angle_beta	78.592392
_cell_angle_gamma	84.514235
loop_
_atom_site_label
_atom_site_type_symbol
_atom_site_fract_x
_atom_site_fract_y
_atom_site_fract_z
O1	O	1.710017	0.154634	-0.094013
O2	O	1.340597	0.171524	-0.094012
O3	O	1.533755	-0.021631	-0.094012
O4	O	1.516859	0.347788	-0.094013
O5	O	1.485482	0.026592	0.094000
O6	O	1.292325	0.219746	0.094000
O7	O	1.661744	0.202856	0.093999
Zn8	Zn	1.469370	0.218958	0.123850
Zn9	Zn	1.532971	0.155423	-0.123864
O10	O	1.468587	0.396011	0.093999
C11	C	1.269158	0.194375	-0.000006
C12	C	1.128208	0.190606	-0.000005
C13	C	1.508360	-0.044824	-0.000009
C14	C	1.504595	-0.185775	-0.000015
C15	C	1.057489	0.328747	-0.000008
C16	C	0.910987	0.324762	-0.000441
C17	C	0.963393	0.087993	-0.107167
C18	C	1.109953	0.092825	-0.107251
C19	C	1.055459	0.145621	0.106561
C20	C	0.908120	0.144647	0.107964
C21	C	1.638670	-0.403132	0.000415
C22	C	1.642798	-0.256647	-0.000015
C23	C	1.461413	-0.258064	-0.107377
C24	C	1.458396	-0.404846	-0.107461
C25	C	1.400622	-0.349816	0.106344
C26	C	1.406815	-0.203113	0.107757
C27	C	1.733184	0.180004	-0.000010
C28	C	1.874136	0.183771	-0.000018
C29	C	1.493982	0.419203	-0.000007
C30	C	1.497749	0.560152	-0.000008
N31	N	1.425973	0.262318	0.292909
N32	N	1.576378	0.112052	-0.292922
C33	C	1.677116	0.011374	0.647893
C34	C	1.707482	-0.018974	0.529554
C35	C	1.637107	0.051346	0.470387
C36	C	1.536361	0.152020	0.529571
C37	C	1.505999	0.182378	0.647923
C38	C	1.465990	0.222350	0.470416
C39	C	1.365244	0.323024	0.529600
C40	C	1.334886	0.353377	0.647940
C41	C	1.405261	0.283056	0.707107
C42	C	1.496353	0.191992	0.352064
C43	C	1.325235	0.362996	0.352093
C44	C	1.294869	0.393344	0.470433
H45	H	0.848601	0.398176	0.076351
H46	H	1.252862	0.435361	0.696128
Br47	Br	1.573330	-0.506197	-0.241220
H48	H	1.672744	-0.425344	0.077409
Br49	Br	1.191947	-0.078254	-0.114867
Br50	Br	1.227366	-0.386407	0.107553
H51	H	1.066090	0.212442	0.187802
Br52	Br	1.768585	-0.242257	-0.128513
Br53	Br	1.633076	0.055370	0.271757
H54	H	1.661836	0.026632	0.374029
H55	H	1.380534	0.307762	0.803469
Br56	Br	1.844204	-0.155592	0.449233
Br57	Br	1.158143	0.529969	0.550766
Br58	Br	0.927803	-0.086315	-0.113311
H59	H	1.711859	-0.466279	-0.076145
Br60	Br	0.926763	0.131912	-0.240586
Br61	Br	1.288202	-0.445251	-0.115588
H62	H	1.734413	-0.045865	0.696075
Br63	Br	1.229729	0.458445	0.271804
H64	H	1.304251	-0.152375	0.114241
H65	H	1.066297	0.404491	0.076818
H66	H	1.360695	-0.211690	-0.111369
H67	H	1.437900	-0.154135	0.187182
Br68	Br	0.874473	0.380882	-0.129216
Br69	Br	1.191402	0.141588	-0.241261
Br70	Br	1.140686	0.387991	-0.127887
H71	H	1.531059	-0.247705	-0.187276
H72	H	1.423647	-0.371129	0.187725
H73	H	0.882203	0.043541	0.114753
Br74	Br	1.133816	-0.023753	0.108303
Br75	Br	0.805862	0.261720	0.240092
H76	H	1.678394	-0.207569	0.076944
