data_functionalizedCrystal
_audit_creation_method	'MofGen! by Chris Wilmer'
_symmetry_space_group_name_H-M	'P1'
_symmetry_Int_Tables_number	1
_symmetry_cell_setting	triclinic
loop_
_symmetry_equiv_pos_as_xyz
  x,y,z
_cell_length_a	19.188930
_cell_length_b	14.044220
_cell_length_c	12.503572
_cell_angle_alpha	93.835250
_cell_angle_beta	86.493759
_cell_angle_gamma	88.166830
loop_
_atom_site_label
_atom_site_type_symbol
_atom_site_fract_x
_atom_site_fract_y
_atom_site_fract_z
O1	O	0.164589	1.262485	0.089229
O2	O	0.158515	0.986542	0.089255
O3	O	0.060411	1.132475	0.089220
O4	O	0.262693	1.116552	0.089264
O5	O	0.067803	1.121500	-0.089419
O6	O	0.165907	0.975567	-0.089384
O7	O	0.171980	1.251510	-0.089411
Cu8	Cu	0.169618	1.112536	-0.105709
Cu9	Cu	0.160877	1.125516	0.105553
O10	O	0.270084	1.105577	-0.089376
C11	C	0.159553	0.945752	-0.000061
C12	C	0.151624	0.840559	-0.000052
C13	C	0.038063	1.126472	-0.000102
C14	C	-0.039541	1.124923	-0.000112
C15	C	0.137129	0.647956	-0.000077
C16	C	0.193363	0.590090	-0.000069
C17	C	0.185298	0.482920	-0.000083
C18	C	0.145193	0.755137	-0.000063
C19	C	-0.078939	1.210552	-0.000125
C20	C	-0.151857	1.209099	-0.000108
C21	C	-0.185374	1.122010	-0.000098
C22	C	-0.145968	1.036370	-0.000079
C23	C	-0.073051	1.037826	-0.000086
N24	N	-0.295160	1.051706	-0.060886
N25	N	-0.364427	1.050328	-0.060882
C26	C	-0.405067	1.117616	-0.000076
N27	N	-0.373823	1.186348	0.060712
N28	N	-0.304548	1.187729	0.060704
C29	C	-0.264440	1.120421	-0.000091
C30	C	-0.523532	1.201676	-0.000069
C31	C	-0.596451	1.200219	-0.000045
C32	C	-0.590560	1.027487	-0.000028
C33	C	-0.517642	1.028947	-0.000041
C34	C	-0.484132	1.116043	-0.000067
C35	C	0.292433	1.111580	-0.000051
C36	C	0.370037	1.113129	-0.000034
C37	C	0.170943	1.292301	-0.000092
C38	C	0.178872	1.397493	-0.000094
N39	N	0.175766	1.103414	-0.254299
C40	C	0.184816	1.089995	-0.473411
C41	C	0.145676	1.148061	-0.526752
C42	C	0.150712	1.140595	-0.648673
C43	C	0.179782	1.097461	-0.351478
N44	N	0.154724	1.134645	0.254143
H45	H	0.082933	0.617011	-0.000094
O46	O	-0.046502	1.295241	-0.000095
C47	C	-0.060041	1.466405	-0.000190
C48	C	-0.096867	1.370565	-0.000199
H49	H	-0.100744	1.527328	-0.000296
H50	H	-0.029157	1.476071	0.074585
H51	H	-0.022946	1.466759	-0.074936
H52	H	-0.133996	1.370144	0.074497
H53	H	-0.127706	1.360938	-0.075022
H54	H	-0.173262	0.965462	-0.000069
O55	O	0.101134	1.214090	-0.472169
C56	C	0.015348	1.341470	-0.483750
C57	C	0.065745	1.266722	-0.545703
H58	H	-0.013267	1.384057	-0.543174
H59	H	-0.024224	1.303847	-0.431132
H60	H	0.046266	1.391890	-0.431065
H61	H	0.034885	1.216281	-0.598446
H62	H	0.105317	1.304408	-0.598252
O63	O	-0.034879	0.954552	-0.000126
C64	C	-0.036734	0.783079	-0.000038
C65	C	-0.080048	0.877315	-0.000014
H66	H	-0.073235	0.720610	0.000076
H67	H	0.000617	0.774782	-0.074821
H68	H	-0.005512	0.784090	0.074700
H69	H	-0.111312	0.876370	-0.074701
H70	H	-0.117354	0.885576	0.074819
H71	H	0.222105	1.034680	-0.519305
H72	H	0.247564	0.621038	-0.000052
O73	O	-0.190177	1.292268	0.000062
C74	C	-0.279776	1.396526	0.092549
C75	C	-0.236419	1.302324	0.092506
H76	H	-0.317183	1.404677	0.167271
H77	H	-0.243338	1.459068	0.092600
H78	H	-0.310942	1.395539	0.017754
H79	H	-0.205249	1.303217	0.167289
H80	H	-0.272894	1.239823	0.092400
H81	H	-0.628529	1.269952	-0.000050
O82	O	-0.491014	1.286312	0.000113
C83	C	-0.477580	1.440087	0.092626
C84	C	-0.514442	1.344272	0.092562
H85	H	-0.496518	1.486983	0.167351
H86	H	-0.418693	1.426477	0.092687
H87	H	-0.490274	1.477762	0.017834
H88	H	-0.501805	1.306548	0.167341
H89	H	-0.573319	1.357946	0.092445
O90	O	-0.623193	0.942955	0.000128
C91	C	-0.705881	0.846730	0.092738
C92	C	-0.668982	0.942514	0.092675
H93	H	-0.742899	0.846334	0.167565
H94	H	-0.736838	0.837120	0.018035
H95	H	-0.665177	0.785790	0.092689
H96	H	-0.709640	1.003511	0.092762
H97	H	-0.638011	0.952040	0.167372
O98	O	-0.479470	0.945674	-0.000089
C99	C	-0.481326	0.774201	-0.000010
C100	C	-0.524639	0.868439	0.000016
H101	H	-0.517828	0.711733	0.000098
H102	H	-0.443974	0.765906	-0.074792
H103	H	-0.450106	0.775209	0.074729
H104	H	-0.555901	0.867498	-0.074672
H105	H	-0.561947	0.876697	0.074847
