data_functionalizedCrystal
_audit_creation_method	'MofGen! by Chris Wilmer'
_symmetry_space_group_name_H-M	'P1'
_symmetry_Int_Tables_number	1
_symmetry_cell_setting	triclinic
loop_
_symmetry_equiv_pos_as_xyz
  x,y,z
_cell_length_a	18.101398
_cell_length_b	18.101395
_cell_length_c	18.101389
_cell_angle_alpha	89.983159
_cell_angle_beta	89.990255
_cell_angle_gamma	90.026661
loop_
_atom_site_label
_atom_site_type_symbol
_atom_site_fract_x
_atom_site_fract_y
_atom_site_fract_z
Zn1	Zn	1.132121	-0.294995	-0.418559
Zn2	Zn	1.132017	-0.418821	-0.294721
Zn3	Zn	1.008280	-0.294988	-0.294751
Zn4	Zn	1.008231	-0.418790	-0.418541
O5	O	1.070162	-0.356898	-0.356643
O6	O	1.235740	-0.311437	-0.402126
O7	O	1.115580	-0.402404	-0.191092
O8	O	1.024772	-0.191356	-0.311195
O9	O	1.235663	-0.402411	-0.311143
O10	O	1.115757	-0.191361	-0.402156
O11	O	1.024671	-0.311425	-0.191114
O12	O	0.904640	-0.311395	-0.311178
O13	O	1.024688	-0.402358	-0.522176
O14	O	0.904604	-0.402351	-0.402125
O15	O	1.115710	-0.311407	-0.522189
O16	O	1.115532	-0.522450	-0.311125
O17	O	1.024587	-0.522427	-0.402095
C18	C	1.070063	-0.549309	-0.356621
C19	C	1.070088	-0.631623	-0.356637
C20	C	0.877751	-0.356869	-0.356653
C21	C	0.795437	-0.356875	-0.356675
C22	C	1.070251	-0.930714	-0.356676
C23	C	1.013163	-0.899405	-0.414054
C24	C	1.012892	-0.813787	-0.413875
C25	C	1.070170	-0.782331	-0.356657
C26	C	1.049041	-0.813467	-0.278611
C27	C	1.048673	-0.899112	-0.278955
C28	C	1.148592	-0.899067	-0.376658
C29	C	1.148132	-0.813417	-0.378369
C30	C	1.070126	-0.698472	-0.356642
C31	C	1.070293	-1.014573	-0.356687
C32	C	0.496346	-0.356918	-0.356644
C33	C	0.527674	-0.414422	-0.413583
C34	C	0.613292	-0.414242	-0.413817
C35	C	0.644729	-0.356897	-0.356660
C36	C	0.613675	-0.278899	-0.377985
C37	C	0.528029	-0.279244	-0.378390
C38	C	0.527894	-0.376725	-0.278242
C39	C	0.613544	-0.378437	-0.278661
C40	C	0.728588	-0.356881	-0.356667
C41	C	0.412487	-0.356930	-0.356639
C42	C	1.263324	-0.356928	-0.356633
C43	C	1.345638	-0.356941	-0.356629
C44	C	1.070205	-0.356880	-0.549805
C45	C	1.070223	-0.356872	-0.632119
C46	C	1.070282	-0.163736	-0.356681
C47	C	1.070333	-0.081422	-0.356697
C48	C	1.070266	-0.356733	-0.931210
C49	C	1.012801	-0.413775	-0.899877
C50	C	1.012956	-0.414040	-0.814258
C51	C	1.070244	-0.356802	-0.782827
C52	C	1.148270	-0.377992	-0.813914
C53	C	1.147949	-0.378366	-0.899559
C54	C	1.050385	-0.278374	-0.899637
C55	C	1.048649	-0.278826	-0.813987
C56	C	1.070236	-0.356839	-0.698968
C57	C	1.070279	-0.356697	-1.015070
C58	C	1.070162	-0.356864	-0.164232
C59	C	1.070287	-0.356663	-0.081919
H60	H	1.026111	-0.792735	-0.471746
H61	H	0.633794	-0.401138	-0.471908
H62	H	0.507058	-0.472452	-0.400367
H63	H	1.026251	-0.919965	-0.472113
N64	N	0.639003	-0.450447	-0.258498
N65	N	0.679964	-0.485813	-0.301372
H66	H	0.697949	-0.536671	-0.287134
N67	N	0.977951	-0.786652	-0.257000
N68	N	0.926660	-0.831126	-0.244257
H69	H	0.876450	-0.812190	-0.228999
H70	H	0.991229	-0.262847	-0.793669
N71	N	0.639067	-0.223709	-0.327489
N72	N	0.619810	-0.157912	-0.335702
H73	H	0.637686	-0.118945	-0.299997
H74	H	1.089313	-0.793092	-0.234695
H75	H	0.634287	-0.472083	-0.400452
H76	H	0.508068	-0.262443	-0.435705
H77	H	0.955448	-0.920985	-0.400987
N78	N	0.640364	-0.329706	-0.222571
N79	N	0.621068	-0.338746	-0.156880
H80	H	0.640007	-0.304324	-0.117267
H81	H	0.954823	-0.793357	-0.400641
H82	H	1.192236	-0.337751	-0.793556
H83	H	0.991406	-0.919148	-0.262027
H84	H	0.994478	-0.259069	-0.921237
H85	H	0.955097	-0.400779	-0.793240
N86	N	1.029083	-0.486202	-0.926866
N87	N	0.982273	-0.520418	-0.964371
H88	H	0.993773	-0.571571	-0.983431
H89	H	1.192915	-0.792001	-0.339623
H90	H	1.088449	-0.919824	-0.234746
N91	N	1.172754	-0.926121	-0.446832
N92	N	1.132522	-0.969061	-0.482974
H93	H	1.149579	-0.988171	-0.532537
H94	H	1.164065	-0.793065	-0.435807
H95	H	1.191125	-0.919313	-0.334867
N96	N	0.500687	-0.398200	-0.486037
N97	N	0.432753	-0.398405	-0.498410
H98	H	0.413691	-0.386946	-0.549580
H99	H	0.954768	-0.400650	-0.920477
H100	H	0.507308	-0.234865	-0.338820
N101	N	0.640607	-0.257445	-0.449104
N102	N	0.682663	-0.299464	-0.484205
H103	H	0.701684	-0.284317	-0.534435
H104	H	1.192217	-0.338623	-0.920287
N105	N	0.500762	-0.446847	-0.253928
N106	N	0.457838	-0.483078	-0.294095
H107	H	0.438674	-0.532604	-0.276930
N108	N	0.502464	-0.324192	-0.225017
N109	N	0.464825	-0.345177	-0.171040
H110	H	0.446860	-0.308073	-0.133456
N111	N	1.029448	-0.486900	-0.788566
N112	N	1.040885	-0.537711	-0.833889
H113	H	1.052534	-0.589172	-0.815745
N114	N	1.169100	-0.450225	-0.924618
N115	N	1.183992	-0.499751	-0.878855
H116	H	1.198931	-0.550504	-0.896549
N117	N	1.169775	-0.449086	-0.787005
N118	N	1.127773	-0.484269	-0.744943
H119	H	1.142957	-0.534481	-0.725938
H120	H	1.087450	-0.234070	-0.792592
N121	N	1.102896	-0.225065	-0.925059
N122	N	1.154758	-0.244597	-0.966250
H123	H	1.191848	-0.206954	-0.984208
