data_functionalizedCrystal
_audit_creation_method	'MofGen! by Chris Wilmer'
_symmetry_space_group_name_H-M	'P1'
_symmetry_Int_Tables_number	1
_symmetry_cell_setting	triclinic
loop_
_symmetry_equiv_pos_as_xyz
  x,y,z
_cell_length_a	23.532407
_cell_length_b	23.532407
_cell_length_c	9.730217
_cell_angle_alpha	89.992119
_cell_angle_beta	90.001277
_cell_angle_gamma	82.848712
loop_
_atom_site_label
_atom_site_type_symbol
_atom_site_fract_x
_atom_site_fract_y
_atom_site_fract_z
O1	O	0.755257	0.069134	-0.114217
O2	O	0.589394	0.079137	-0.114241
O3	O	0.677327	-0.008796	-0.114203
O4	O	0.667324	0.157068	-0.114255
O5	O	0.677324	-0.008797	0.114377
O6	O	0.589391	0.079137	0.114339
O7	O	0.755254	0.069134	0.114363
Zn8	Zn	0.672322	0.074135	0.150643
Zn9	Zn	0.672326	0.074136	-0.150521
O10	O	0.667321	0.157067	0.114325
C11	C	0.568176	0.078882	0.000047
C12	C	0.504959	0.078116	0.000039
C13	C	0.238792	0.022921	0.000093
C14	C	0.298192	0.023632	0.000093
O15	O	0.334937	-0.020153	0.000154
N16	N	0.320818	0.075909	0.000067
C17	C	0.284041	0.127477	0.000056
O18	O	0.308740	0.172007	0.000035
C19	C	0.224642	0.126765	0.000066
C20	C	0.202019	0.074485	0.000078
C21	C	0.216169	-0.029354	0.000107
C22	C	0.156772	-0.030066	0.000105
C23	C	0.119999	0.021499	0.000089
C24	C	0.142623	0.073774	0.000076
C25	C	0.187865	0.178333	0.000065
C26	C	0.128463	0.177616	0.000077
C27	C	0.105840	0.125336	0.000088
C28	C	0.046454	0.124627	0.000059
N29	N	0.023828	0.072351	0.000085
C30	C	0.060600	0.020787	0.000100
C31	C	0.408783	0.128968	0.000036
C32	C	0.468181	0.129681	0.000016
C33	C	0.482328	0.025836	0.000056
C34	C	0.422929	0.025124	0.000066
C35	C	0.386157	0.076692	0.000062
C36	C	-0.064136	0.019297	0.000094
C37	C	-0.123538	0.018590	0.000087
C38	C	-0.137680	0.122435	0.000055
C39	C	-0.078284	0.123142	0.000055
C40	C	-0.041512	0.071568	0.000080
O41	O	0.009675	0.168390	0.000003
O42	O	0.035892	-0.023737	0.000138
C43	C	0.677071	-0.030012	0.000091
C44	C	0.676305	-0.093229	0.000101
C45	C	0.723538	-0.492332	0.000032
C46	C	0.722827	-0.551733	0.000022
O47	O	0.766613	-0.588477	-0.000023
N48	N	0.670551	-0.574359	0.000015
C49	C	0.618982	-0.537581	0.000005
O50	O	0.574452	-0.562281	-0.000002
C51	C	0.619695	-0.478182	0.000006
C52	C	0.671974	-0.455559	0.000027
C53	C	0.775814	-0.469709	0.000051
C54	C	0.776525	-0.410313	0.000064
C55	C	0.724961	-0.373540	0.000059
C56	C	0.672685	-0.396163	0.000040
C57	C	0.568127	-0.441406	-0.000014
C58	C	0.568843	-0.382003	-0.000014
C59	C	0.621123	-0.359381	0.000006
C60	C	0.621832	-0.299994	0.000047
N61	N	0.674109	-0.277368	0.000053
C62	C	0.725673	-0.314141	0.000059
C63	C	0.617491	-0.662324	0.000002
C64	C	0.616778	-0.721722	0.000011
C65	C	0.720623	-0.735869	0.000025
C66	C	0.721335	-0.676470	0.000025
C67	C	0.669767	-0.639698	0.000008
C68	C	0.727163	-0.189404	0.000088
C69	C	0.727869	-0.130002	0.000107
C70	C	0.624025	-0.115860	0.000086
C71	C	0.623318	-0.175257	0.000074
C72	C	0.674891	-0.212028	0.000071
O73	O	0.578069	-0.263215	0.000086
O74	O	0.770196	-0.289433	0.000049
C75	C	0.776472	0.069389	0.000073
C76	C	0.839689	0.070155	0.000072
C77	C	0.667577	0.178283	0.000029
C78	C	0.668343	0.241500	0.000009
N79	N	0.672324	0.074134	0.356180
N80	N	0.672329	0.074133	-0.356057
C81	C	0.750220	-0.003709	0.356204
C82	C	0.789172	-0.042629	0.428156
C83	C	0.789178	-0.042629	0.572035
C84	C	0.750227	-0.003707	0.643967
C85	C	0.711275	0.035213	0.572015
C86	C	0.711274	0.035210	0.428132
C87	C	0.633377	0.113052	0.571991
C88	C	0.633373	0.113056	0.428111
C89	C	0.594425	0.151975	0.643922
C90	C	0.555475	0.190898	0.571970
C91	C	0.555471	0.190897	0.428081
C92	C	0.594421	0.151976	0.356159
H93	H	-0.141954	-0.023984	0.000093
Br94	Br	0.842030	-0.095454	0.330535
H95	H	0.750224	-0.003708	0.239049
Br96	Br	0.750225	-0.003716	0.839233
Br97	Br	-0.014242	-0.050696	0.000127
H98	H	0.526850	-0.352065	-0.000030
Br99	Br	0.842037	-0.095454	0.669689
Br100	Br	0.126080	-0.101020	0.000102
Br101	Br	0.392234	-0.045829	0.000085
H102	H	0.594429	0.151970	0.761076
H103	H	0.769159	-0.219337	0.000080
Br104	Br	0.792288	-0.645774	0.000056
H105	H	0.523761	0.222584	0.630545
Br106	Br	-0.047580	0.194093	0.000017
Br107	Br	0.498876	0.200635	-0.000035
Br108	Br	0.845804	-0.519605	0.000058
Br109	Br	0.798825	-0.099304	0.000136
Br110	Br	0.847480	-0.379620	0.000053
H111	H	0.575496	-0.632386	-0.000001
H112	H	0.762610	-0.765821	0.000024
Br113	Br	0.358883	0.198960	0.000017
Br114	Br	0.218552	0.249288	0.000046
Br115	Br	0.552367	-0.205960	0.000078
H116	H	0.574207	-0.740135	0.000018
Br117	Br	0.502600	0.243716	0.330445
Br118	Br	0.497171	-0.472092	-0.000047
H119	H	0.594423	0.151974	0.239004
Br120	Br	0.554048	-0.065943	0.000078
Br121	Br	0.266065	-0.099344	0.000132
H122	H	0.512280	-0.016150	0.000068
Br123	Br	-0.187597	0.192411	0.000023
H124	H	0.098525	0.219610	0.000080
