data_functionalizedCrystal
_audit_creation_method	'MofGen! by Chris Wilmer'
_symmetry_space_group_name_H-M	'P1'
_symmetry_Int_Tables_number	1
_symmetry_cell_setting	triclinic
loop_
_symmetry_equiv_pos_as_xyz
  x,y,z
_cell_length_a	10.654550
_cell_length_b	14.519709
_cell_length_c	9.730223
_cell_angle_alpha	89.997715
_cell_angle_beta	89.996251
_cell_angle_gamma	84.082524
loop_
_atom_site_label
_atom_site_type_symbol
_atom_site_fract_x
_atom_site_fract_y
_atom_site_fract_z
O1	O	1.666589	0.129528	-0.114406
O2	O	1.300991	0.141869	-0.114384
O3	O	1.493483	0.001510	-0.114384
O4	O	1.474097	0.269887	-0.114407
O5	O	1.493481	0.001514	0.114196
O6	O	1.300989	0.141873	0.114195
O7	O	1.666586	0.129532	0.114174
Zn8	Zn	1.483787	0.135703	0.150477
Zn9	Zn	1.483790	0.135698	-0.150687
O10	O	1.474094	0.269890	0.114173
C11	C	1.254201	0.140965	-0.000092
C12	C	1.114784	0.138254	-0.000083
C13	C	1.034504	0.220895	-0.000110
C14	C	0.903507	0.218342	-0.000134
C15	C	0.933085	0.050500	-0.000108
C16	C	1.064078	0.053054	-0.000075
C17	C	1.017426	0.317797	-0.000131
C18	C	0.886430	0.315244	-0.000154
C19	C	1.492579	-0.032852	-0.000093
C20	C	1.489871	-0.135247	-0.000092
C21	C	1.479904	-0.510195	-0.000127
C22	C	1.482672	-0.405873	-0.000117
C23	C	1.484887	-0.322725	-0.000109
C24	C	1.487656	-0.218396	-0.000101
C25	C	1.713377	0.130436	-0.000122
C26	C	1.852794	0.133147	-0.000140
C27	C	1.474999	0.304253	-0.000120
C28	C	1.477707	0.406648	-0.000130
N29	N	1.483795	0.135705	0.356013
N30	N	1.483793	0.135688	-0.356224
C31	C	1.569052	0.073576	0.427939
C32	C	1.569048	0.073565	0.571822
C33	C	1.398527	0.197821	0.571840
C34	C	1.398525	0.197827	0.427959
C35	C	1.667505	0.001840	0.427931
C36	C	1.667502	0.001829	0.571814
H37	H	1.046392	0.355697	0.095532
O38	O	0.883974	-0.032315	-0.000293
C39	C	0.869138	-0.176529	-0.118749
C40	C	0.924859	-0.082781	-0.118691
H41	H	0.902151	-0.217349	-0.214477
H42	H	0.902199	-0.217472	-0.023143
H43	H	0.761726	-0.164137	-0.118707
H44	H	1.032274	-0.095088	-0.118781
H45	H	0.891699	-0.041868	-0.214288
H46	H	0.844347	0.351754	-0.095825
O47	O	1.059749	0.354709	-0.117721
C48	C	1.168010	0.475685	-0.219103
C49	C	1.120173	0.433969	-0.085823
H50	H	1.216850	0.539785	-0.193363
H51	H	1.237744	0.422393	-0.272257
H52	H	1.084760	0.495792	-0.290378
H53	H	1.203342	0.413865	-0.014445
H54	H	1.050401	0.487287	-0.032778
O55	O	1.776017	0.028774	0.374856
C56	C	1.914201	0.149707	0.359391
C57	C	1.791297	0.119304	0.419600
H58	H	1.926581	0.222910	0.395519
H59	H	1.997761	0.100302	0.395603
H60	H	1.909205	0.148434	0.242381
H61	H	1.796169	0.120581	0.536611
H62	H	1.707788	0.168716	0.383280
O63	O	1.642782	-0.082675	0.381104
C64	C	1.614635	-0.178306	0.183352
C65	C	1.642688	-0.082565	0.236196
H66	H	1.614524	-0.178242	0.066189
H67	H	1.690216	-0.233431	0.222278
H68	H	1.518298	-0.194106	0.222482
H69	H	1.738989	-0.066677	0.197087
H70	H	1.567031	-0.027493	0.197282
O71	O	1.782350	0.020792	0.618565
C72	C	1.898368	0.123367	0.751789
C73	C	1.768229	0.101988	0.698967
H74	H	1.886999	0.189024	0.816780
H75	H	1.941864	0.063067	0.816953
H76	H	1.962604	0.133867	0.660642
H77	H	1.703896	0.091506	0.790031
H78	H	1.724835	0.162298	0.633760
H79	H	1.129439	-0.014241	-0.000033
H80	H	0.840476	0.344531	0.098527
O81	O	1.631723	-0.078088	0.624882
C82	C	1.468223	-0.180582	0.640383
C83	C	1.508579	-0.090062	0.580174
H84	H	1.368648	-0.190282	0.604283
H85	H	1.536180	-0.241533	0.604141
H86	H	1.469942	-0.176909	0.757393
H87	H	1.506852	-0.093643	0.463163
H88	H	1.440614	-0.029148	0.616523
O89	O	1.315651	0.258261	0.358302
C90	C	1.146449	0.381455	0.373509
C91	C	1.240261	0.313076	0.452566
H92	H	1.085455	0.425778	0.449687
H93	H	1.200687	0.427971	0.306181
H94	H	1.083694	0.341186	0.306116
H95	H	1.303040	0.353270	0.520033
H96	H	1.185945	0.266560	0.519808
H97	H	1.329102	0.248398	0.630434
