data_functionalizedCrystal
_audit_creation_method	'MofGen! by Chris Wilmer'
_symmetry_space_group_name_H-M	'P1'
_symmetry_Int_Tables_number	1
_symmetry_cell_setting	triclinic
loop_
_symmetry_equiv_pos_as_xyz
  x,y,z
_cell_length_a	12.759401
_cell_length_b	21.295417
_cell_length_c	12.759393
_cell_angle_alpha	89.961905
_cell_angle_beta	89.979062
_cell_angle_gamma	90.032032
loop_
_atom_site_label
_atom_site_type_symbol
_atom_site_fract_x
_atom_site_fract_y
_atom_site_fract_z
Zn1	Zn	1.606151	-0.250553	-0.593965
Zn2	Zn	1.605994	-0.355835	-0.418261
Zn3	Zn	1.430450	-0.250587	-0.418300
Zn4	Zn	1.430393	-0.355791	-0.593899
O5	O	1.518247	-0.303192	-0.506106
O6	O	1.753151	-0.264523	-0.570669
O7	O	1.582665	-0.341906	-0.271245
O8	O	1.453846	-0.162493	-0.441646
O9	O	1.753035	-0.341874	-0.441580
O10	O	1.582933	-0.162468	-0.570706
O11	O	1.453694	-0.264581	-0.271274
O12	O	1.283421	-0.264538	-0.441582
O13	O	1.453750	-0.341799	-0.740929
O14	O	1.283380	-0.341831	-0.570594
O15	O	1.582879	-0.264481	-0.740977
O16	O	1.582610	-0.443919	-0.441516
O17	O	1.453597	-0.443886	-0.570556
C18	C	1.245279	-0.303184	-0.506085
C19	C	1.128503	-0.303196	-0.506101
C20	C	1.073647	-0.343504	-0.573172
C21	C	0.963923	-0.343506	-0.573193
C22	C	0.963921	-0.262891	-0.439063
C23	C	1.073643	-0.262886	-0.439048
C24	C	0.814016	-0.366094	-0.697048
C25	C	0.759156	-0.406411	-0.764110
C26	C	0.794726	-0.467844	-0.780044
C27	C	0.885153	-0.488971	-0.728901
C28	C	0.940008	-0.448657	-0.661832
C29	C	0.904440	-0.387215	-0.645918
C30	C	1.223551	-0.240305	-0.315192
C31	C	1.278407	-0.199993	-0.248116
C32	C	1.242840	-0.138559	-0.232171
C33	C	1.152409	-0.117434	-0.283295
C34	C	1.097553	-0.157746	-0.350371
C35	C	1.133128	-0.219179	-0.366317
C36	C	1.518109	-0.466743	-0.506048
C37	C	1.518146	-0.536711	-0.506058
C38	C	1.585383	-0.569574	-0.438936
C39	C	1.585432	-0.635316	-0.438960
C40	C	1.518226	-0.668194	-0.506094
C41	C	1.450985	-0.635323	-0.573230
C42	C	1.450945	-0.569582	-0.573212
N43	N	1.426319	-0.771460	-0.514097
N44	N	1.426360	-0.833912	-0.514108
C45	C	1.518344	-0.866268	-0.506155
N46	N	1.610287	-0.833814	-0.498169
N47	N	1.610245	-0.771357	-0.498153
C48	C	1.518262	-0.739479	-0.506122
C49	C	1.585640	-0.970417	-0.439054
C50	C	1.585691	-1.036160	-0.439085
C51	C	1.451233	-1.036166	-0.573350
C52	C	1.451192	-0.970423	-0.573325
C53	C	1.518393	-0.937553	-0.506171
C54	C	1.792280	-0.303200	-0.506128
C55	C	1.909057	-0.303203	-0.506137
C56	C	1.518325	-0.303131	-0.780140
C57	C	1.518359	-0.303105	-0.896916
C58	C	1.518414	-0.139001	-0.506188
C59	C	1.518485	-0.069033	-0.506222
C60	C	1.585601	-0.262839	-0.951805
C61	C	1.585619	-0.262812	-1.061529
C62	C	1.451149	-0.343322	-1.061466
C63	C	1.451127	-0.343346	-0.951744
C64	C	1.623265	-0.188542	-1.211524
C65	C	1.690524	-0.148282	-1.266417
C66	C	1.793041	-0.138629	-1.230827
C67	C	1.828321	-0.169246	-1.140347
C68	C	1.761068	-0.209511	-1.085460
C69	C	1.658536	-0.219152	-1.121048
C70	C	1.413492	-0.417617	-0.801747
C71	C	1.346243	-0.457885	-0.746858
C72	C	1.243724	-0.467545	-0.782446
C73	C	1.208448	-0.436939	-0.872929
C74	C	1.275697	-0.396670	-0.927818
C75	C	1.378215	-0.387010	-0.892223
C76	C	1.518229	-0.303206	-0.233139
C77	C	1.518399	-0.303055	-0.116363
H78	H	1.352041	-0.217199	-0.206488
H79	H	1.911804	-0.161387	-1.111383
N80	N	1.259896	-0.303059	-0.331466
N81	N	1.340628	-0.321916	-0.285798
H82	H	1.366296	-0.366237	-0.297283
N83	N	1.382257	-0.536020	-0.641789
N84	N	1.322262	-0.565378	-0.701735
H85	H	1.273749	-0.541675	-0.750169
H86	H	1.118311	-0.376325	-0.627773
N87	N	0.777697	-0.303334	-0.680798
N88	N	0.770333	-0.266400	-0.756616
H89	H	0.744679	-0.222075	-0.745139
H90	H	1.396437	-0.943665	-0.627977
H91	H	1.396517	-1.062934	-0.628017
H92	H	1.847803	-0.105848	-1.275529
H93	H	1.188975	-0.500341	-0.737750
N94	N	1.654280	-0.221732	-0.895816
N95	N	1.714310	-0.185783	-0.944842
H96	H	1.762816	-0.156748	-0.905303
H97	H	1.013631	-0.465858	-0.620192
H98	H	1.246967	-0.371750	-1.001495
N99	N	1.654287	-0.936845	-0.370457
N100	N	1.714324	-0.966198	-0.310535
H101	H	1.762808	-0.942490	-0.262085
N102	N	1.382483	-0.384421	-1.117489
N103	N	1.382511	-0.384395	-1.215455
H104	H	1.334015	-0.413422	-1.255021
H105	H	1.374978	-0.482812	-0.673189
N106	N	1.654004	-0.535998	-0.370323
N107	N	1.617030	-0.499378	-0.303327
H108	H	1.665488	-0.475666	-0.254859
N109	N	0.921459	-0.551732	-0.745173
N110	N	0.872470	-0.587720	-0.805055
H111	H	0.898112	-0.632046	-0.816550
N112	N	0.738674	-0.509021	-0.848541
N113	N	0.657937	-0.490154	-0.894188
H114	H	0.618346	-0.519233	-0.942567
N115	N	1.797110	-0.240782	-0.993048
N116	N	1.888652	-0.232163	-0.961283
H117	H	1.914109	-0.254245	-0.896012
N118	N	1.654474	-0.117015	-1.358836
N119	N	1.562931	-0.125631	-1.390598
H120	H	1.537475	-0.103551	-1.455871
H121	H	1.539785	-0.196393	-1.240504
N122	N	1.103726	-0.446813	-0.909278
N123	N	1.043694	-0.482767	-0.860262
H124	H	0.969732	-0.489744	-0.885932
N125	N	1.518209	-0.407748	-0.765370
N126	N	1.549692	-0.435081	-0.684584
H127	H	1.623648	-0.428113	-0.658890
N128	N	1.654091	-0.668897	-0.370371
N129	N	1.617158	-0.705631	-0.303408
H130	H	1.665644	-0.729348	-0.254965
H131	H	0.685531	-0.389203	-0.805751
N132	N	0.907879	-0.221713	-0.370583
N133	N	0.846705	-0.181629	-0.407682
H134	H	0.807126	-0.152546	-0.359316
N135	N	1.005199	-0.136157	-0.402618
N136	N	1.010103	-0.090214	-0.463449
H137	H	0.944883	-0.074968	-0.500356
N138	N	1.116079	-0.054681	-0.266994
N139	N	1.165065	-0.018695	-0.207105
H140	H	1.139409	0.025626	-0.195586
H141	H	1.287509	-0.105740	-0.177544
H142	H	1.396267	-0.662096	-0.627893
H143	H	1.640449	-1.062916	-0.384429
