data_functionalizedCrystal
_audit_creation_method	'MofGen! by Chris Wilmer'
_symmetry_space_group_name_H-M	'P1'
_symmetry_Int_Tables_number	1
_symmetry_cell_setting	triclinic
loop_
_symmetry_equiv_pos_as_xyz
  x,y,z
_cell_length_a	10.268362
_cell_length_b	14.971486
_cell_length_c	14.971486
_cell_angle_alpha	83.614129
_cell_angle_beta	89.994507
_cell_angle_gamma	90.000373
loop_
_atom_site_label
_atom_site_type_symbol
_atom_site_fract_x
_atom_site_fract_y
_atom_site_fract_z
O1	O	0.108151	-1.186945	-0.116563
O2	O	0.608151	-0.686945	0.383437
O3	O	0.108187	-0.926545	-0.130522
O4	O	0.608187	-0.426545	0.369478
O5	O	0.108159	-1.063724	0.006657
O6	O	0.608159	-0.563724	0.506657
O7	O	0.108179	-1.049765	-0.253743
O8	O	0.608179	-0.549765	0.246257
O9	O	-0.108442	-1.063712	0.006663
O10	O	0.391558	-0.563712	0.506663
O11	O	-0.108414	-0.926533	-0.130517
O12	O	0.391586	-0.426533	0.369483
O13	O	-0.108450	-1.186933	-0.116558
O14	O	0.391550	-0.686933	0.383442
Cu15	Cu	-0.128209	-1.056732	-0.123537
Cu16	Cu	0.371791	-0.556732	0.376463
Cu17	Cu	0.127946	-1.056746	-0.123543
Cu18	Cu	0.627946	-0.556746	0.376457
O19	O	-0.108422	-1.049753	-0.253737
O20	O	0.391578	-0.549753	0.246263
C21	C	-0.000109	-0.893214	-0.129895
C22	C	0.499891	-0.393214	0.370105
C23	C	-0.000096	-0.793917	-0.128024
C24	C	0.499904	-0.293917	0.371976
N25	N	-0.308375	-1.056728	-0.123531
N26	N	0.191625	-0.556728	0.376469
C27	C	-0.000141	-1.063094	0.039985
C28	C	0.499859	-0.563094	0.539985
C29	C	-0.000140	-1.061223	0.139282
C30	C	0.499860	-0.561223	0.639282
C31	C	-0.574046	-1.056741	-0.123541
C32	C	-0.074046	-0.556741	0.376459
C33	C	-0.426208	-1.056731	-0.123538
C34	C	0.073792	-0.556731	0.376462
N35	N	0.308112	-1.056756	-0.123541
N36	N	0.808112	-0.556756	0.376459
C37	C	-0.000151	-1.220263	-0.117185
C38	C	0.499849	-0.720263	0.382815
C39	C	-0.000156	-1.319561	-0.119056
C40	C	0.499844	-0.819561	0.380944
C41	C	-0.000091	-0.736692	-0.208614
C42	C	0.499909	-0.236692	0.291386
C43	C	-0.000111	-0.643392	-0.206850
C44	C	0.499889	-0.143392	0.293150
C45	C	-0.000126	-0.607320	-0.124497
C46	C	0.499874	-0.107320	0.375503
C47	C	-0.000134	-0.664552	-0.043902
C48	C	0.499866	-0.164552	0.456098
C49	C	-0.000124	-0.757850	-0.045666
C50	C	0.499876	-0.257850	0.454334
C51	C	-0.000152	-0.470090	-0.040231
C52	C	0.499848	0.029910	0.459769
C53	C	-0.000160	-0.376786	-0.038466
C54	C	0.499840	0.123214	0.461534
C55	C	-0.000139	-0.355632	-0.201415
C56	C	0.499861	0.144368	0.298585
C57	C	-0.000129	-0.448930	-0.203179
C58	C	0.499871	0.051070	0.296821
C59	C	-0.000135	-0.506156	-0.122584
C60	C	0.499865	-0.006156	0.377416
C61	C	-0.000119	-1.050384	-0.287065
C62	C	0.499881	-0.550384	0.212935
C63	C	-0.000112	-1.052254	-0.386362
C64	C	0.499888	-0.552254	0.113638
C65	C	-0.000152	-1.141812	0.196507
C66	C	0.499848	-0.641812	0.696507
C67	C	-0.000138	-1.140049	0.289807
C68	C	0.499862	-0.640049	0.789807
C69	C	-0.000122	-1.057696	0.325879
C70	C	0.499878	-0.557696	0.825879
C71	C	-0.000107	-0.977101	0.268646
C72	C	0.499893	-0.477101	0.768646
C73	C	-0.000111	-0.978865	0.175349
C74	C	0.499889	-0.478865	0.675349
C75	C	-0.000101	-0.973430	0.463109
C76	C	0.499899	-0.473430	0.963109
C77	C	-0.000100	-0.971665	0.556413
C78	C	0.499900	-0.471665	1.056413
C79	C	-0.000129	-1.134614	0.577567
C80	C	0.499871	-0.634614	1.077567
C81	C	-0.000133	-1.136378	0.484269
C82	C	0.499867	-0.636378	0.984269
C83	C	-0.000120	-1.055782	0.427043
C84	C	0.499880	-0.555782	0.927043
H85	H	-0.000078	-0.766054	-0.275675
H86	H	0.499922	-0.266054	0.224325
O87	O	-0.000099	-0.886504	0.401381
O88	O	0.499901	-0.386504	0.901381
H89	H	-0.000106	-0.828941	0.442136
H90	H	0.499894	-0.328941	0.942136
H91	H	-0.000105	-0.478296	-0.270239
H92	H	0.499895	0.021704	0.229761
O93	O	-0.000103	-0.891940	0.113627
O94	O	0.499897	-0.391940	0.613627
H95	H	-0.000096	-0.907001	0.042691
H96	H	0.499904	-0.407001	0.542691
H97	H	-0.000159	-0.516682	0.025399
H98	H	0.499841	-0.016682	0.525399
O99	O	-0.000107	-0.581667	-0.293771
O100	O	0.499893	-0.081667	0.206229
H101	H	-0.000079	-0.622424	-0.351332
H102	H	0.499921	-0.122424	0.148668
H103	H	-0.000127	-0.804443	0.019958
H104	H	0.499873	-0.304443	0.519958
O105	O	-0.000086	-0.882845	0.595328
O106	O	0.499914	-0.382845	1.095328
H107	H	0.088189	-0.878162	0.637334
H108	H	0.588189	-0.378162	1.137334
H109	H	-0.000165	-0.635175	0.023152
H110	H	0.499835	-0.135175	0.523152
O111	O	-0.000151	-0.293912	-0.288344
O112	O	0.499849	0.206088	0.211656
H113	H	0.088145	-0.306731	-0.327749
H114	H	0.588145	0.193269	0.172251
O115	O	-0.000160	-1.226977	0.351521
O116	O	0.499840	-0.726977	0.851521
H117	H	0.088132	-1.230089	0.394519
H118	H	0.588132	-0.730089	0.894519
H119	H	-0.000173	-1.208874	0.167145
H120	H	0.499827	-0.708874	0.667145
H121	H	-0.000174	-0.347419	0.028593
H122	H	0.499826	0.152581	0.528593
O123	O	-0.000134	-1.225199	0.445356
O124	O	0.499866	-0.725199	0.945356
H125	H	-0.000124	-1.280946	0.500821
H126	H	0.499876	-0.780946	1.000821
O127	O	-0.000104	-0.888276	0.307552
O128	O	0.499896	-0.388276	0.807552
H129	H	0.088170	-0.883580	0.349556
H130	H	0.588170	-0.383580	0.849556
H131	H	-0.000136	-1.200238	0.624165
H132	H	0.499864	-0.700238	1.124165
