data_functionalizedCrystal
_audit_creation_method	'MofGen! by Chris Wilmer'
_symmetry_space_group_name_H-M	'P1'
_symmetry_Int_Tables_number	1
_symmetry_cell_setting	triclinic
loop_
_symmetry_equiv_pos_as_xyz
  x,y,z
_cell_length_a	18.215407
_cell_length_b	18.101397
_cell_length_c	18.215399
_cell_angle_alpha	90.030634
_cell_angle_beta	90.019833
_cell_angle_gamma	90.020914
loop_
_atom_site_label
_atom_site_type_symbol
_atom_site_fract_x
_atom_site_fract_y
_atom_site_fract_z
Zn1	Zn	1.125095	-0.294828	0.416102
Zn2	Zn	1.625095	0.205172	0.916102
Zn3	Zn	1.125012	-0.418675	0.293030
Zn4	Zn	1.625012	0.081325	0.793030
Zn5	Zn	1.002027	-0.294853	0.293050
Zn6	Zn	1.502027	0.205147	0.793050
Zn7	Zn	1.002002	-0.418633	0.416055
Zn8	Zn	1.502002	0.081367	0.916055
O9	O	1.063534	-0.356747	0.354559
O10	O	1.563534	0.143253	0.854559
O11	O	1.228068	-0.311264	0.399788
O12	O	1.728068	0.188736	0.899788
O13	O	1.108674	-0.402277	0.190048
O14	O	1.608674	0.097723	0.690048
O15	O	1.018397	-0.191216	0.309401
O16	O	1.518397	0.308784	0.809401
O17	O	1.228008	-0.402253	0.309367
O18	O	1.728008	0.097747	0.809367
O19	O	1.108814	-0.191199	0.399807
O20	O	1.608814	0.308801	0.899807
O21	O	1.018317	-0.311305	0.190063
O22	O	1.518317	0.188695	0.690063
O23	O	0.899040	-0.311265	0.309355
O24	O	1.399040	0.188735	0.809355
O25	O	1.018355	-0.402183	0.519046
O26	O	1.518355	0.097817	1.019046
O27	O	0.899021	-0.402207	0.399726
O28	O	1.399021	0.097793	0.899726
O29	O	1.108790	-0.311224	0.519080
O30	O	1.608790	0.188776	1.019080
O31	O	1.108650	-0.522302	0.309322
O32	O	1.608650	-0.022302	0.809322
O33	O	1.018275	-0.522272	0.399708
O34	O	1.518275	-0.022272	0.899708
C35	C	0.872328	-0.356735	0.354538
C36	C	1.372328	0.143265	0.854538
C37	C	0.790529	-0.356747	0.354546
C38	C	1.290529	0.143253	0.854546
C39	C	0.602345	-0.404175	0.401544
C40	C	1.102345	0.095825	0.901544
C41	C	0.525486	-0.404177	0.401553
C42	C	1.025486	0.095823	0.901553
C43	C	0.525475	-0.309333	0.307591
C44	C	1.025475	0.190667	0.807591
C45	C	0.602333	-0.309328	0.307586
C46	C	1.102333	0.190672	0.807586
C47	C	0.640765	-0.356753	0.354561
C48	C	1.140765	0.143247	0.854561
C49	C	0.487049	-0.356761	0.354575
C50	C	0.987049	0.143239	0.854575
C51	C	0.403716	-0.356763	0.354585
C52	C	0.903716	0.143237	0.854585
C53	C	0.724104	-0.356750	0.354553
C54	C	1.224104	0.143250	0.854553
C55	C	1.063471	-0.549158	0.354524
C56	C	1.563471	-0.049158	0.854524
C57	C	1.063512	-0.631472	0.354533
C58	C	1.563512	-0.131472	0.854533
C59	C	1.063606	-0.930563	0.354600
C60	C	1.563606	-0.430563	0.854600
C61	C	1.120308	-0.899226	0.297579
C62	C	1.620308	-0.399226	0.797579
C63	C	1.120505	-0.813607	0.297727
C64	C	1.620505	-0.313607	0.797727
C65	C	1.063559	-0.782180	0.354566
C66	C	1.563559	-0.282180	0.854566
C67	C	1.084583	-0.813187	0.432138
C68	C	1.584583	-0.313187	0.932138
C69	C	1.085022	-0.898832	0.431828
C70	C	1.585022	-0.398832	0.931828
C71	C	0.985727	-0.899072	0.334720
C72	C	1.485727	-0.399072	0.834720
C73	C	0.986112	-0.813423	0.332988
C74	C	1.486112	-0.313423	0.832988
C75	C	1.063531	-0.698321	0.354552
C76	C	1.563531	-0.198321	0.854552
C77	C	1.063635	-1.014422	0.354620
C78	C	1.563635	-0.514422	0.854620
C79	C	1.255487	-0.356761	0.354581
C80	C	1.755487	0.143239	0.854581
C81	C	1.337286	-0.356766	0.354590
C82	C	1.837286	0.143234	0.854590
C83	C	1.063579	-0.356696	0.546512
C84	C	1.563579	0.143304	1.046512
C85	C	1.063598	-0.356674	0.628311
C86	C	1.563598	0.143326	1.128311
C87	C	1.063617	-0.163585	0.354611
C88	C	1.563617	0.336415	0.854611
C89	C	1.063653	-0.081271	0.354633
C90	C	1.563653	0.418729	0.854633
C91	C	1.063532	-0.356745	0.163353
C92	C	1.563532	0.143255	0.663353
C93	C	1.063655	-0.356558	0.081554
C94	C	1.563655	0.143442	0.581554
C95	C	1.110705	-0.309268	0.816524
C96	C	1.610705	0.190732	1.316524
C97	C	1.110713	-0.309246	0.893383
C98	C	1.610713	0.190754	1.393383
C99	C	1.016544	-0.403967	0.893336
C100	C	1.516544	0.096033	1.393336
C101	C	1.016532	-0.403984	0.816478
C102	C	1.516532	0.096016	1.316478
C103	C	1.063616	-0.356636	0.778075
C104	C	1.563616	0.143364	1.278075
C105	C	1.063637	-0.356597	0.931791
C106	C	1.563637	0.143403	1.431791
C107	C	1.063646	-0.356574	1.015125
C108	C	1.563646	0.143426	1.515125
C109	C	1.063606	-0.356657	0.694736
C110	C	1.563606	0.143343	1.194736
H111	H	0.633635	-0.442789	0.439796
H112	H	1.133635	0.057211	0.939796
H113	H	0.494207	-0.442792	0.439812
H114	H	0.994207	0.057208	0.939812
C115	C	0.644146	-0.257959	0.256528
C116	C	1.144146	0.242041	0.756528
C117	C	0.688254	-0.299828	0.209297
C118	C	1.188254	0.200172	0.709297
C119	C	0.726791	-0.252533	0.162264
C120	C	1.226791	0.247467	0.662264
H121	H	0.610335	-0.229701	0.228478
H122	H	1.110335	0.270299	0.728478
H123	H	0.674191	-0.225737	0.284718
H124	H	1.174191	0.274263	0.784718
H125	H	0.658212	-0.332037	0.181110
H126	H	1.158212	0.167963	0.681110
H127	H	0.722079	-0.328084	0.237327
H128	H	1.222079	0.171916	0.737327
H129	H	0.756836	-0.220312	0.190454
H130	H	1.256836	0.279688	0.690454
H131	H	0.692974	-0.224278	0.134219
H132	H	1.192974	0.275722	0.634219
H133	H	0.756727	-0.280934	0.130217
H134	H	1.256727	0.219066	0.630217
C135	C	0.965433	-0.455335	0.774595
C136	C	1.465433	0.044665	1.274595
C137	C	0.975486	-0.445199	0.699067
C138	C	1.475486	0.054801	1.199067
C139	C	0.928420	-0.492479	0.660461
C140	C	1.428420	0.007521	1.160461
H141	H	0.976137	-0.505122	0.787085
H142	H	1.476137	-0.005122	1.287085
H143	H	0.915976	-0.444485	0.787141
H144	H	1.415976	0.055515	1.287141
H145	H	1.024932	-0.456055	0.686526
H146	H	1.524932	0.043945	1.186526
H147	H	0.964776	-0.395422	0.686554
H148	H	1.464776	0.104578	1.186554
H149	H	0.878963	-0.481629	0.673007
H150	H	1.378963	0.018371	1.173007
H151	H	0.939129	-0.542263	0.672958
H152	H	1.439129	-0.042263	1.172958
H153	H	0.935230	-0.485604	0.609212
H154	H	1.435230	0.014396	1.109212
H155	H	1.107351	-0.792646	0.240208
H156	H	1.607351	-0.292646	0.740208
C157	C	1.197483	-0.786312	0.315170
C158	C	1.697483	-0.286312	0.815170
C159	C	1.246388	-0.812432	0.261864
C160	C	1.746388	-0.312432	0.761864
C161	C	1.317310	-0.787312	0.277919
C162	C	1.817310	-0.287312	0.777919
H163	H	1.197982	-0.733838	0.315308
H164	H	1.697982	-0.233838	0.815308
H165	H	1.211924	-0.804042	0.362082
H166	H	1.711924	-0.304042	0.862082
H167	H	1.231950	-0.794698	0.214965
H168	H	1.731950	-0.294698	0.714965
H169	H	1.245911	-0.864903	0.261718
H170	H	1.745911	-0.364903	0.761718
H171	H	1.331752	-0.805043	0.324831
H172	H	1.831752	-0.305043	0.824831
H173	H	1.317802	-0.734839	0.278057
H174	H	1.817802	-0.234839	0.778057
H175	H	1.350502	-0.805036	0.241757
H176	H	1.850502	-0.305036	0.741757
H177	H	0.943479	-0.919338	0.376251
H178	H	1.443479	-0.419338	0.876251
H179	H	0.978211	-0.442518	0.924614
H180	H	1.478211	0.057482	1.424614
C181	C	1.102889	-0.926857	0.220711
C182	C	1.602889	-0.426857	0.720711
C183	C	1.040895	-0.972538	0.223173
C184	C	1.540895	-0.472538	0.723173
C185	C	1.024828	-0.998012	0.152375
C186	C	1.524828	-0.498012	0.652375
H187	H	1.093430	-0.885967	0.189449
H188	H	1.593430	-0.385967	0.689449
H189	H	1.143503	-0.954055	0.202283
H190	H	1.643503	-0.454055	0.702283
H191	H	1.000291	-0.945341	0.241591
H192	H	1.500291	-0.445341	0.741591
H193	H	1.050338	-1.013439	0.254421
H194	H	1.550338	-0.513439	0.754421
H195	H	1.065441	-1.025210	0.133947
H196	H	1.565441	-0.525210	0.633947
H197	H	1.015372	-0.957118	0.121118
H198	H	1.515372	-0.457118	0.621118
H199	H	0.982768	-1.029015	0.154036
H200	H	1.482768	-0.529015	0.654036
H201	H	1.177681	-0.920693	0.310582
H202	H	1.677681	-0.420693	0.810582
H203	H	1.141948	-0.918751	0.448668
H204	H	1.641948	-0.418751	0.948668
H205	H	1.045531	-0.919559	0.475777
H206	H	1.545531	-0.419559	0.975777
C207	C	1.031150	-0.785933	0.490216
C208	C	1.531150	-0.285933	0.990216
C209	C	0.978239	-0.740686	0.457278
C210	C	1.478239	-0.240686	0.957278
C211	C	0.929010	-0.715557	0.510756
C212	C	1.429010	-0.215557	1.010756
H213	H	1.007711	-0.826991	0.512680
H214	H	1.507711	-0.326991	1.012680
H215	H	1.057087	-0.758507	0.526368
H216	H	1.557087	-0.258507	1.026368
H217	H	0.952305	-0.768112	0.421139
H218	H	1.452305	-0.268112	0.921139
H219	H	1.001657	-0.699617	0.434818
H220	H	1.501657	-0.199617	0.934818
H221	H	0.954947	-0.688131	0.546908
H222	H	1.454947	-0.188131	1.046908
H223	H	0.905577	-0.756620	0.533216
H224	H	1.405577	-0.256620	1.033216
H225	H	0.893109	-0.684850	0.488416
H226	H	1.393109	-0.184850	0.988416
H227	H	1.140872	-0.791679	0.449263
H228	H	1.640872	-0.291679	0.949263
C229	C	0.483614	-0.257928	0.256617
C230	C	0.983614	0.242072	0.756617
C231	C	0.408081	-0.268095	0.266662
C232	C	0.908081	0.231905	0.766662
C233	C	0.369498	-0.220759	0.219710
C234	C	0.869498	0.279241	0.719710
H235	H	0.496140	-0.208153	0.267431
H236	H	0.996140	0.291847	0.767431
H237	H	0.496143	-0.268708	0.207133
H238	H	0.996143	0.231292	0.707133
H239	H	0.395557	-0.257310	0.316135
H240	H	0.895557	0.242690	0.816135
H241	H	0.395533	-0.317860	0.255843
H242	H	0.895533	0.182140	0.755843
H243	H	0.382027	-0.231539	0.170227
H244	H	0.882027	0.268461	0.670227
H245	H	0.382031	-0.170987	0.230528
H246	H	0.882031	0.329013	0.730528
H247	H	0.318245	-0.227655	0.226515
H248	H	0.818245	0.272345	0.726515
C249	C	0.965044	-0.786582	0.256789
C250	C	1.465044	-0.286582	0.756789
C251	C	0.954617	-0.847450	0.210479
C252	C	1.454617	-0.347450	0.710479
C253	C	0.935244	-0.822761	0.140267
C254	C	1.435244	-0.322761	0.640267
H255	H	0.920872	-0.758848	0.259566
H256	H	1.420872	-0.258848	0.759566
H257	H	1.003160	-0.756287	0.237792
H258	H	1.503160	-0.256287	0.737792
H259	H	0.916504	-0.877733	0.229472
H260	H	1.416504	-0.377733	0.729472
H261	H	0.998780	-0.875190	0.207681
H262	H	1.498780	-0.375190	0.707681
H263	H	0.973360	-0.792465	0.121269
H264	H	1.473360	-0.292465	0.621269
H265	H	0.891073	-0.795027	0.143051
H266	H	1.391073	-0.295027	0.643051
H267	H	0.928174	-0.864055	0.108835
H268	H	1.428174	-0.364055	0.608835
H269	H	0.941591	-0.792038	0.371478
H270	H	1.441591	-0.292038	0.871478
H271	H	0.966600	-0.920733	0.279135
H272	H	1.466600	-0.420733	0.779135
H273	H	1.149042	-0.270712	0.785258
H274	H	1.649042	0.229288	1.285258
H275	H	1.149056	-0.270673	0.924686
H276	H	1.649056	0.229327	1.424686
