data_functionalizedCrystal
_audit_creation_method	'MofGen! by Chris Wilmer'
_symmetry_space_group_name_H-M	'P1'
_symmetry_Int_Tables_number	1
_symmetry_cell_setting	triclinic
loop_
_symmetry_equiv_pos_as_xyz
  x,y,z
_cell_length_a	26.809956
_cell_length_b	12.837943
_cell_length_c	12.837942
_cell_angle_alpha	94.828940
_cell_angle_beta	90.005457
_cell_angle_gamma	89.991434
loop_
_atom_site_label
_atom_site_type_symbol
_atom_site_fract_x
_atom_site_fract_y
_atom_site_fract_z
O1	O	0.041470	-1.402343	-0.272126
O2	O	0.041473	-1.099209	-0.258683
O3	O	0.041469	-1.244054	-0.113838
O4	O	0.041475	-1.257497	-0.416972
O5	O	-0.041491	-1.244026	-0.113860
O6	O	-0.041486	-1.099181	-0.258705
O7	O	-0.041489	-1.402315	-0.272148
Zn8	Zn	-0.054659	-1.250743	-0.265430
Zn9	Zn	0.054643	-1.250780	-0.265401
O10	O	-0.041485	-1.257470	-0.416993
C11	C	-0.000011	-1.239499	-0.074780
C12	C	-0.000010	-1.225954	0.041635
C13	C	-0.000006	-1.060126	-0.254153
C14	C	-0.000005	-0.943711	-0.240608
N15	N	-0.129255	-1.250726	-0.265449
C16	C	-0.473883	-1.314910	-0.201281
C17	C	-0.682761	-1.314933	-0.201267
O18	O	-0.709766	-1.369463	-0.146711
N19	N	-0.708882	-1.250784	-0.265379
C20	C	-0.682781	-1.186618	-0.329494
O21	O	-0.709792	-1.132048	-0.384016
C22	C	-0.473904	-1.186590	-0.329501
C23	C	-0.447786	-1.250752	-0.265393
C24	C	-0.447764	-1.379066	-0.137177
C25	C	-0.395548	-1.379064	-0.137185
C26	C	-0.369451	-1.314906	-0.201297
C27	C	-0.395569	-1.250750	-0.265401
C28	C	-0.447804	-1.122420	-0.393609
C29	C	-0.395581	-1.122417	-0.393603
C30	C	-0.369463	-1.186579	-0.329495
C31	C	-0.317255	-1.186590	-0.329521
N32	N	-0.291134	-1.250740	-0.265409
C33	C	-0.317232	-1.314898	-0.201297
C34	C	-0.792444	-1.186639	-0.329487
C35	C	-0.844663	-1.186647	-0.329486
C36	C	-0.844639	-1.314961	-0.201258
C37	C	-0.792420	-1.314958	-0.201265
C38	C	-0.766323	-1.250789	-0.265375
C39	C	-0.207574	-1.314889	-0.201320
C40	C	-0.155353	-1.314884	-0.201337
C41	C	-0.155381	-1.186566	-0.329561
C42	C	-0.207597	-1.186575	-0.329548
C43	C	-0.233692	-1.250739	-0.265419
O44	O	-0.290218	-1.132080	-0.384040
O45	O	-0.290212	-1.369443	-0.146766
C46	C	-0.526099	-1.314913	-0.201272
C47	C	-0.552218	-1.250757	-0.265376
C48	C	-0.526121	-1.186599	-0.329488
C49	C	-0.604437	-1.250765	-0.265376
C50	C	-0.630535	-1.314923	-0.201264
C51	C	-0.604413	-1.379073	-0.137152
C52	C	-0.552197	-1.379071	-0.137160
C53	C	-0.552242	-1.122449	-0.393600
C54	C	-0.604458	-1.122457	-0.393587
C55	C	-0.630556	-1.186615	-0.329475
N56	N	0.129239	-1.250805	-0.265375
C57	C	-0.000009	-1.441398	-0.276679
C58	C	-0.000006	-1.557813	-0.290223
C59	C	-0.000009	-0.718837	-0.403437
C60	C	-0.000008	-0.609454	-0.390716
C61	C	-0.000007	-0.615562	-0.202445
C62	C	-0.000007	-0.724944	-0.215166
C63	C	-0.000008	-0.776578	-0.315666
C64	C	-0.000005	-0.885962	-0.328386
C65	C	-0.000007	-0.892067	-0.140116
C66	C	-0.000006	-0.782685	-0.127395
C67	C	-0.000004	-1.262025	-0.456052
C68	C	-0.000002	-1.275569	-0.572467
C69	C	-0.000001	-1.388784	0.266510
C70	C	0.000000	-1.376062	0.375892
C71	C	-0.000003	-1.187791	0.369785
C72	C	-0.000004	-1.200513	0.260402
C73	C	-0.000004	-1.301012	0.208769
C74	C	-0.000008	-1.313732	0.099384
C75	C	-0.000008	-1.125462	0.093279
C76	C	-0.000007	-1.112741	0.202661
H77	H	-0.134088	-1.367136	-0.149133
Cl78	Cl	0.000003	-0.964662	-0.029768
Cl79	Cl	0.000011	-1.061460	0.434714
H80	H	-0.228814	-1.367136	-0.149099
Cl81	Cl	-0.240431	-1.105924	-0.410156
Cl82	Cl	-0.759590	-1.395619	-0.120666
Cl83	Cl	-0.122564	-1.105914	-0.410156
H84	H	-0.000010	-1.395564	0.057346
Cl85	Cl	-0.480564	-1.459733	-0.056569
Cl86	Cl	-0.000002	-0.783751	-0.529775
H87	H	-0.000012	-0.740630	-0.045571
H88	H	-0.000011	-0.562446	-0.462189
Cl89	Cl	-0.000013	-0.550633	-0.076113
H90	H	-0.374285	-1.431307	-0.084980
H91	H	-0.000014	-1.053992	0.046254
H92	H	-0.000005	-1.030917	0.244717
H93	H	-0.865897	-1.367203	-0.149057
H94	H	-0.000005	-1.470614	0.224469
H95	H	-0.865925	-1.134413	-0.381701
H96	H	0.000004	-1.447536	0.422901
H97	H	-0.469062	-1.070174	-0.445811
Cl98	Cl	-0.759643	-1.105966	-0.410093
H99	H	-0.530935	-1.431317	-0.084957
Cl100	Cl	-0.362778	-1.041740	-0.474203
H101	H	-0.625670	-1.431317	-0.084953
H102	H	-0.625721	-1.070212	-0.445801
H103	H	-0.530997	-1.070202	-0.445806
H104	H	-0.000006	-0.928000	-0.410218
