data_functionalizedCrystal
_audit_creation_method	'MofGen! by Chris Wilmer'
_symmetry_space_group_name_H-M	'P1'
_symmetry_Int_Tables_number	1
_symmetry_cell_setting	triclinic
loop_
_symmetry_equiv_pos_as_xyz
  x,y,z
_cell_length_a	19.805407
_cell_length_b	21.295417
_cell_length_c	19.805407
_cell_angle_alpha	90.016581
_cell_angle_beta	90.009221
_cell_angle_gamma	90.030507
loop_
_atom_site_label
_atom_site_type_symbol
_atom_site_fract_x
_atom_site_fract_y
_atom_site_fract_z
Zn1	Zn	1.034647	-0.250712	0.382704
Zn2	Zn	1.534647	0.249288	0.882704
Zn3	Zn	1.034574	-0.355955	0.269509
Zn4	Zn	1.534574	0.144045	0.769509
Zn5	Zn	0.921482	-0.250704	0.269529
Zn6	Zn	1.421482	0.249296	0.769529
Zn7	Zn	0.921417	-0.355948	0.382656
Zn8	Zn	1.421417	0.144052	0.882656
O9	O	0.978030	-0.303330	0.326100
O10	O	1.478030	0.196670	0.826100
O11	O	1.129354	-0.264680	0.367701
O12	O	1.629354	0.235320	0.867701
O13	O	1.019569	-0.341992	0.174795
O14	O	1.519569	0.158008	0.674795
O15	O	0.936552	-0.162615	0.284570
O16	O	1.436552	0.337385	0.784570
O17	O	1.129301	-0.342001	0.284537
O18	O	1.629301	0.157999	0.784537
O19	O	1.019693	-0.162622	0.367719
O20	O	1.519693	0.337378	0.867719
O21	O	0.936481	-0.264665	0.174810
O22	O	1.436481	0.235335	0.674810
O23	O	0.826757	-0.264658	0.284523
O24	O	1.326757	0.235342	0.784523
O25	O	0.936441	-0.341989	0.477379
O26	O	1.436441	0.158011	0.977379
O27	O	0.826709	-0.341980	0.367638
O28	O	1.326709	0.158020	0.867638
O29	O	1.019630	-0.264673	0.477414
O30	O	1.519630	0.235327	0.977414
O31	O	1.019506	-0.444043	0.284490
O32	O	1.519506	0.055957	0.784490
O33	O	0.936370	-0.444038	0.367619
O34	O	1.436370	0.055962	0.867619
C35	C	0.802174	-0.303318	0.326078
C36	C	1.302174	0.196682	0.826078
C37	C	0.726942	-0.303328	0.326084
C38	C	1.226942	0.196672	0.826084
C39	C	0.691591	-0.343650	0.369292
C40	C	1.191591	0.156350	0.869292
C41	C	0.620903	-0.343651	0.369301
C42	C	1.120903	0.156349	0.869301
C43	C	0.585567	-0.303333	0.326100
C44	C	1.085567	0.196667	0.826100
C45	C	0.620923	-0.263006	0.282890
C46	C	1.120923	0.236994	0.782890
C47	C	0.691610	-0.263002	0.282885
C48	C	1.191610	0.236998	0.782885
C49	C	0.335850	-0.263020	0.282913
C50	C	0.835850	0.236980	0.782913
C51	C	0.265158	-0.263028	0.282920
C52	C	0.765158	0.236972	0.782920
C53	C	0.265142	-0.343669	0.369329
C54	C	0.765142	0.156331	0.869329
C55	C	0.335829	-0.343665	0.369324
C56	C	0.835829	0.156335	0.869324
C57	C	0.371179	-0.303336	0.326117
C58	C	0.871179	0.196664	0.826117
C59	C	0.447828	-0.303335	0.326108
C60	C	0.947828	0.196665	0.826108
C61	C	0.508920	-0.303337	0.326105
C62	C	1.008920	0.196663	0.826105
C63	C	0.977942	-0.466881	0.326062
C64	C	1.477942	0.033119	0.826062
C65	C	0.977966	-0.536849	0.326069
C66	C	1.477966	-0.036849	0.826069
C67	C	1.021293	-0.569698	0.282828
C68	C	1.521293	-0.069698	0.782828
C69	C	1.021325	-0.635440	0.282843
C70	C	1.521325	-0.135440	0.782843
C71	C	0.978017	-0.668332	0.326092
C72	C	1.478017	-0.168332	0.826092
C73	C	0.934686	-0.635475	0.369341
C74	C	1.434686	-0.135475	0.869341
C75	C	0.934661	-0.569734	0.369329
C76	C	1.434661	-0.069734	0.869329
N77	N	0.918806	-0.771599	0.331245
N78	N	1.418806	-0.271599	0.831245
N79	N	0.918832	-0.834050	0.331252
N80	N	1.418832	-0.334050	0.831252
C81	C	0.978093	-0.866407	0.326131
C82	C	1.478093	-0.366407	0.826131
N83	N	1.037328	-0.833952	0.320989
N84	N	1.537328	-0.333952	0.820989
N85	N	1.037300	-0.771495	0.320979
N86	N	1.537300	-0.271495	0.820979
C87	C	0.978040	-0.739617	0.326110
C88	C	1.478040	-0.239617	0.826110
C89	C	1.021458	-0.970541	0.282904
C90	C	1.521458	-0.470541	0.782904
C91	C	1.021491	-1.036284	0.282924
C92	C	1.521491	-0.536284	0.782924
C93	C	0.934847	-1.036318	0.369419
C94	C	1.434847	-0.536318	0.869419
C95	C	0.934820	-0.970576	0.369402
C96	C	1.434820	-0.470576	0.869402
C97	C	0.978125	-0.937691	0.326142
C98	C	1.478125	-0.437691	0.826142
C99	C	1.154573	-0.303342	0.326122
C100	C	1.654573	0.196658	0.826122
C101	C	1.229805	-0.303348	0.326131
C102	C	1.729805	0.196652	0.826131
C103	C	0.978036	-0.303331	0.502642
C104	C	1.478036	0.196669	1.002642
C105	C	0.978039	-0.303331	0.577874
C106	C	1.478039	0.196669	1.077874
C107	C	0.978138	-0.139139	0.326152
C108	C	1.478138	0.360861	0.826152
C109	C	0.978184	-0.069171	0.326174
C110	C	1.478184	0.430829	0.826174
C111	C	1.021350	-0.263079	0.613238
C112	C	1.521350	0.236921	1.113238
C113	C	1.021344	-0.263077	0.683926
C114	C	1.521344	0.236923	1.183926
C115	C	0.978030	-0.303331	0.719250
C116	C	1.478030	0.196669	1.219250
C117	C	0.934714	-0.343585	0.683881
C118	C	1.434714	0.156415	1.183881
C119	C	0.934717	-0.343584	0.613194
C120	C	1.434717	0.156416	1.113194
C121	C	0.934701	-0.343593	0.968955
C122	C	1.434701	0.156407	1.468955
C123	C	0.934703	-0.343593	1.039647
C124	C	1.434703	0.156407	1.539647
C125	C	1.021328	-0.263086	1.039687
C126	C	1.521328	0.236914	1.539687
C127	C	1.021331	-0.263085	0.969000
C128	C	1.521331	0.236915	1.469000
C129	C	0.978013	-0.303336	0.933637
C130	C	1.478013	0.196664	1.433637
C131	C	0.978019	-0.303337	0.856989
C132	C	1.478019	0.196663	1.356989
C133	C	0.978027	-0.303334	0.795897
C134	C	1.478027	0.196666	1.295897
C135	C	0.978018	-0.303341	1.150244
C136	C	1.478018	0.196659	1.650244
C137	C	0.978011	-0.303337	1.075012
C138	C	1.478011	0.196663	1.575012
H139	H	0.592147	-0.230175	0.247717
H140	H	1.092147	0.269825	0.747717
H141	H	0.236352	-0.376504	0.404513
H142	H	0.736352	0.123496	0.904513
O143	O	0.892872	-1.068329	0.411467
O144	O	1.392872	-0.568329	0.911467
C145	C	0.931392	-1.106291	0.455238
C146	C	1.431392	-0.606291	0.955238
H147	H	0.982707	-1.116108	0.431415
H148	H	1.482707	-0.616108	0.931415
H149	H	0.938781	-1.080924	0.505398
H150	H	1.438781	-0.580924	1.005398
C151	C	0.831141	-1.156707	0.496736
C152	C	1.331141	-0.656707	0.996736
C153	C	0.894165	-1.168768	0.467473
C154	C	1.394165	-0.668768	0.967473
H155	H	0.808177	-1.195245	0.504286
H156	H	1.308177	-0.695245	1.004286
H157	H	0.805189	-1.131130	0.467248
H158	H	1.305189	-0.631130	0.967248
H159	H	0.837307	-1.135566	0.538532
H160	H	1.337307	-0.635566	1.038532
H161	H	0.887997	-1.189901	0.425674
H162	H	1.387997	-0.689901	0.925674
H163	H	0.920115	-1.194350	0.496954
H164	H	1.420115	-0.694350	0.996954
O165	O	0.230936	-0.223797	0.240933
O166	O	0.730936	0.276203	0.740933
C167	C	0.277293	-0.188211	0.202785
C168	C	0.777293	0.311789	0.702785
H169	H	0.327690	-0.186067	0.230508
H170	H	0.827690	0.313933	0.730508
H171	H	0.284787	-0.211182	0.151331
H172	H	0.784787	0.288818	0.651331
C173	C	0.187833	-0.123836	0.159125
C174	C	0.687833	0.376164	0.659125
C175	C	0.249729	-0.121198	0.193177
C176	C	0.749729	0.378802	0.693177
H177	H	0.170829	-0.082500	0.153195
H178	H	0.670829	0.417500	0.653195
H179	H	0.156600	-0.147812	0.184823
H180	H	0.656600	0.352188	0.684823
H181	H	0.194086	-0.142981	0.116250
H182	H	0.694086	0.357019	0.616250
H183	H	0.243474	-0.102060	0.236054
H184	H	0.743474	0.397940	0.736054
H185	H	0.280961	-0.097217	0.167485
H186	H	0.780961	0.402783	0.667485
H187	H	0.364596	-0.376499	0.404501
H188	H	0.864596	0.123501	0.904501
H189	H	0.720392	-0.230164	0.247704
H190	H	1.220392	0.269836	0.747704
H191	H	1.056556	-0.542925	0.247604
H192	H	1.556556	-0.042925	0.747604
H193	H	0.899442	-0.376355	0.584402
H194	H	1.399442	0.123645	1.084402
H195	H	0.899444	-0.376358	0.712647
H196	H	1.399444	0.123642	1.212647
O197	O	1.063334	-0.223887	0.934722
O198	O	1.563334	0.276113	1.434722
C199	C	1.048586	-0.161151	0.952033
C200	C	1.548586	0.338849	1.452033
H201	H	0.994514	-0.157976	0.971454
H202	H	1.494514	0.342024	1.471454
H203	H	1.084880	-0.144701	0.993080
H204	H	1.584880	0.355299	1.493080
C205	C	1.122902	-0.123031	0.865408
C206	C	1.622902	0.376969	1.365408
C207	C	1.056488	-0.119131	0.889256
C208	C	1.556488	0.380869	1.389256
H209	H	1.127779	-0.097109	0.826686
H210	H	1.627779	0.402891	1.326686
H211	H	1.132840	-0.165297	0.853747
H212	H	1.632840	0.334703	1.353747
H213	H	1.153140	-0.109323	0.899620
H214	H	1.653140	0.390677	1.399620
H215	H	1.026252	-0.132845	0.855047
H216	H	1.526252	0.367155	1.355047
H217	H	1.046545	-0.076865	0.900910
H218	H	1.546545	0.423135	1.400910
O219	O	1.063449	-0.223917	0.579032
O220	O	1.563449	0.276083	1.079032
C221	C	1.101685	-0.188399	0.625407
C222	C	1.601685	0.311601	1.125407
H223	H	1.073960	-0.186220	0.675790
H224	H	1.573960	0.313780	1.175790
H225	H	1.153076	-0.211455	0.632928
H226	H	1.653076	0.288545	1.132928
C227	C	1.145538	-0.124079	0.535964
C228	C	1.645538	0.375921	1.035964
C229	C	1.111483	-0.121398	0.597844
C230	C	1.611483	0.378602	1.097844
H231	H	1.151584	-0.082749	0.518961
H232	H	1.651584	0.417251	1.018961
H233	H	1.119779	-0.148008	0.504720
H234	H	1.619779	0.351992	1.004720
H235	H	1.188360	-0.143294	0.542240
H236	H	1.688360	0.356706	1.042240
H237	H	1.068659	-0.102190	0.591566
H238	H	1.568659	0.397810	1.091566
H239	H	1.137234	-0.097463	0.629086
H240	H	1.637234	0.402537	1.129086
O241	O	0.892821	-0.938636	0.411473
O242	O	1.392821	-0.438636	0.911473
C243	C	0.931305	-0.900545	0.455209
C244	C	1.431305	-0.400545	0.955209
H245	H	0.984619	-0.920309	0.459445
H246	H	1.484619	-0.420309	0.959445
H247	H	0.933633	-0.850728	0.434274
H248	H	1.433633	-0.350728	0.934274
C249	C	0.832700	-0.875258	0.520337
C250	C	1.332700	-0.375258	1.020337
C251	C	0.898179	-0.899536	0.525544
C252	C	1.398179	-0.399536	1.025544
H253	H	0.812266	-0.874633	0.563722
H254	H	1.312266	-0.374633	1.063722
H255	H	0.806772	-0.900919	0.490870
H256	H	1.306772	-0.400919	0.990870
H257	H	0.834649	-0.833746	0.502889
H258	H	1.334649	-0.333746	1.002889
H259	H	0.896229	-0.941050	0.542983
H260	H	1.396229	-0.441050	1.042983
H261	H	0.924106	-0.873883	0.555015
H262	H	1.424106	-0.373883	1.055015
H263	H	0.899438	-0.376377	0.940171
H264	H	1.399438	0.123623	1.440171
H265	H	1.056722	-0.943765	0.247681
H266	H	1.556722	-0.443765	0.747681
O267	O	1.063434	-0.667261	0.240771
O268	O	1.563434	-0.167261	0.740771
C269	C	1.101663	-0.624139	0.202600
C270	C	1.601663	-0.124139	0.702600
H271	H	1.073926	-0.577298	0.200225
H272	H	1.573926	-0.077298	0.700225
H273	H	1.153050	-0.617097	0.227426
H274	H	1.653050	-0.117097	0.727426
C275	C	1.145538	-0.707351	0.133493
C276	C	1.645538	-0.207351	0.633493
C277	C	1.111470	-0.649822	0.130571
C278	C	1.611470	-0.149822	0.630571
H279	H	1.151591	-0.723194	0.089063
H280	H	1.651591	-0.223194	0.589063
H281	H	1.119785	-0.736404	0.159211
H282	H	1.619785	-0.236404	0.659211
H283	H	1.188357	-0.701475	0.154184
H284	H	1.688357	-0.201475	0.654184
H285	H	1.068648	-0.655700	0.109887
H286	H	1.568648	-0.155700	0.609887
H287	H	1.137216	-0.620770	0.104848
H288	H	1.637216	-0.120770	0.604848
H289	H	0.899426	-0.662260	0.404556
H290	H	1.399426	-0.162260	0.904556
O291	O	0.370254	-0.223936	0.240904
O292	O	0.870254	0.276064	0.740904
C293	C	0.411102	-0.259706	0.197099
C294	C	0.911102	0.240294	0.697099
H295	H	0.421682	-0.307443	0.220876
H296	H	0.921682	0.192557	0.720876
H297	H	0.383840	-0.266556	0.146931
H298	H	0.883840	0.233444	0.646931
C299	C	0.465261	-0.166410	0.155697
C300	C	0.965261	0.333590	0.655697
C301	C	0.478260	-0.225040	0.184903
C302	C	0.978260	0.274960	0.684903
H303	H	0.506686	-0.145026	0.148171
H304	H	1.006686	0.354974	0.648171
H305	H	0.437739	-0.142311	0.185208
H306	H	0.937739	0.357689	0.685208
H307	H	0.442541	-0.172127	0.113894
H308	H	0.942541	0.327873	0.613894
H309	H	0.500972	-0.219323	0.226709
H310	H	1.000972	0.280677	0.726709
H311	H	0.505787	-0.249138	0.155399
H312	H	1.005787	0.250862	0.655399
H313	H	0.899378	-0.542988	0.404542
H314	H	1.399378	-0.042988	0.904542
H315	H	1.056778	-1.063028	0.247714
H316	H	1.556778	-0.563028	0.747714
O317	O	0.892557	-0.382715	1.073857
O318	O	1.392557	0.117285	1.573857
C319	C	0.854334	-0.418252	1.027488
C320	C	1.354334	0.081748	1.527488
H321	H	0.852008	-0.392468	0.977107
H322	H	1.352008	0.107532	1.477107
H323	H	0.879083	-0.466065	1.019959
H324	H	1.379083	0.033935	1.519959
C325	C	0.785149	-0.458980	1.116943
C326	C	1.285149	0.041020	1.616943
C327	C	0.782287	-0.427310	1.055066
C328	C	1.282287	0.072690	1.555066
H329	H	0.740707	-0.464571	1.133956
H330	H	1.240707	0.035429	1.633956
H331	H	0.810902	-0.435041	1.148184
H332	H	1.310902	0.064959	1.648184
H333	H	0.805776	-0.498821	1.110661
H334	H	1.305776	0.001179	1.610661
H335	H	0.761668	-0.387467	1.061352
H336	H	1.261668	0.112533	1.561352
H337	H	0.756528	-0.451243	1.023828
H338	H	1.256528	0.048757	1.523828
H339	H	1.056598	-0.230310	1.068487
H340	H	1.556598	0.269690	1.568487
O341	O	0.725809	-0.382836	0.411323
O342	O	1.225809	0.117164	0.911323
C343	C	0.679445	-0.418435	0.449450
C344	C	1.179445	0.081565	0.949450
H345	H	0.629070	-0.392657	0.451847
H346	H	1.129070	0.107343	0.951847
H347	H	0.671897	-0.466209	0.424571
H348	H	1.171897	0.033791	0.924571
C349	C	0.768914	-0.459270	0.518524
C350	C	1.268914	0.040730	1.018524
C351	C	0.707045	-0.427607	0.521473
C352	C	1.207045	0.072393	1.021473
H353	H	0.785939	-0.464931	0.562950
H354	H	1.285939	0.035069	1.062950
H355	H	0.800151	-0.435289	0.492836
H356	H	1.300151	0.064711	0.992836
H357	H	0.762615	-0.499079	0.497789
H358	H	1.262615	0.000921	0.997789
H359	H	0.713346	-0.387796	0.542200
H360	H	1.213346	0.112204	1.042200
H361	H	0.675809	-0.451582	0.547166
H362	H	1.175809	0.048418	1.047166
O363	O	0.586536	-0.382735	0.411344
O364	O	1.086536	0.117265	0.911344
C365	C	0.545665	-0.346970	0.455132
C366	C	1.045665	0.153030	0.955132
H367	H	0.566990	-0.297395	0.459413
H368	H	1.066990	0.202605	0.959413
H369	H	0.492087	-0.344775	0.434218
H370	H	0.992087	0.155225	0.934218
C371	C	0.518398	-0.438721	0.520171
C372	C	1.018398	0.061279	1.020171
C373	C	0.544593	-0.377834	0.525434
C374	C	1.044593	0.122166	1.025434
H375	H	0.517734	-0.457761	0.563536
H376	H	1.017734	0.042239	1.063536
H377	H	0.545931	-0.462818	0.490669
H378	H	1.045931	0.037182	0.990669
H379	H	0.473752	-0.436884	0.502741
H380	H	0.973752	0.063116	1.002741
H381	H	0.589241	-0.379672	0.542856
H382	H	1.089241	0.120328	1.042856
H383	H	0.517067	-0.353738	0.554941
H384	H	1.017067	0.146262	1.054941
H385	H	1.056615	-0.230301	0.712716
H386	H	1.556615	0.269699	1.212716
