data_functionalizedCrystal
_audit_creation_method	'MofGen! by Chris Wilmer'
_symmetry_space_group_name_H-M	'P1'
_symmetry_Int_Tables_number	1
_symmetry_cell_setting	triclinic
loop_
_symmetry_equiv_pos_as_xyz
  x,y,z
_cell_length_a	16.120484
_cell_length_b	14.908571
_cell_length_c	14.908694
_cell_angle_alpha	96.407528
_cell_angle_beta	96.323893
_cell_angle_gamma	90.212688
loop_
_atom_site_label
_atom_site_type_symbol
_atom_site_fract_x
_atom_site_fract_y
_atom_site_fract_z
Zn1	Zn	-0.438909	-1.390527	-0.614243
Zn2	Zn	-0.569792	-1.374892	-0.469658
Zn3	Zn	-0.421857	-1.231315	-0.453295
Zn4	Zn	-0.569728	-1.232327	-0.612253
O5	O	-0.500071	-1.307265	-0.537362
O6	O	-0.463434	-1.514747	-0.602744
O7	O	-0.543059	-1.348879	-0.340454
O8	O	-0.307459	-1.258555	-0.468630
O9	O	-0.559594	-1.503260	-0.496518
O10	O	-0.319987	-1.375527	-0.586878
O11	O	-0.434371	-1.243394	-0.328432
O12	O	-0.434309	-1.105155	-0.466700
O13	O	-0.559484	-1.260279	-0.739551
O14	O	-0.542949	-1.105898	-0.583486
O15	O	-0.463372	-1.376508	-0.741013
O16	O	-0.686443	-1.349860	-0.494588
O17	O	-0.686396	-1.245118	-0.599352
C18	C	-0.716670	-1.295928	-0.548551
C19	C	-0.809339	-1.291162	-0.553373
C20	C	-0.486772	-1.072780	-0.523102
C21	C	-0.481104	-0.972466	-0.517024
C22	C	-0.513323	-1.320250	-0.774141
C23	C	-0.518969	-1.325784	-0.875042
C24	C	-0.979006	-1.282467	-0.562196
C25	C	-1.020306	-1.332226	-0.512553
C26	C	-1.114715	-1.327388	-0.517462
C27	C	-0.884589	-1.287304	-0.557288
C28	C	-0.282629	-1.318672	-0.526151
C29	C	-0.189968	-1.323533	-0.521373
C30	C	-0.513423	-1.542666	-0.551679
C31	C	-0.519113	-1.642980	-0.557779
C32	C	-0.583736	-0.784771	-0.627064
C33	C	-0.578413	-0.690517	-0.621357
C34	C	-0.465131	-0.689703	-0.499907
C35	C	-0.470454	-0.783957	-0.505614
C36	C	-0.529759	-0.831487	-0.569194
C37	C	-0.535086	-0.925742	-0.574897
C38	C	-0.421801	-0.924928	-0.453452
C39	C	-0.416478	-0.830674	-0.447744
C40	C	-0.416405	-1.226319	-1.052128
C41	C	-0.421708	-1.231516	-1.146934
C42	C	-0.534881	-1.341368	-1.159460
C43	C	-0.529578	-1.336171	-1.064654
C44	C	-0.470337	-1.278646	-1.010992
C45	C	-0.465031	-1.273455	-0.916185
C46	C	-0.578208	-1.383302	-0.928713
C47	C	-0.583511	-1.388498	-1.023518
C48	C	-0.486815	-1.294385	-0.301504
C49	C	-0.480943	-1.289039	-0.200602
H50	H	-0.984760	-1.378458	-0.466364
C51	C	-0.400816	-1.210845	-0.857963
C52	C	-0.415220	-1.121861	-0.876513
C53	C	-0.356090	-1.064154	-0.822890
H54	H	-0.346380	-1.227714	-0.871365
H55	H	-0.405384	-1.215182	-0.795596
H56	H	-0.410644	-1.117528	-0.938865
H57	H	-0.469644	-1.104964	-0.863106
H58	H	-0.360657	-1.068491	-0.760523
H59	H	-0.301658	-1.081032	-0.836296
H60	H	-0.365859	-1.003772	-0.835462
C61	C	-0.363054	-0.975547	-0.390657
C62	C	-0.280414	-0.958006	-0.404900
C63	C	-0.226277	-1.004611	-0.347062
H64	H	-0.374602	-1.038504	-0.403097
H65	H	-0.370831	-0.956087	-0.329313
H66	H	-0.272640	-0.977471	-0.466229
H67	H	-0.268839	-0.895057	-0.392453
H68	H	-0.234055	-0.985151	-0.285718
H69	H	-0.237833	-1.067566	-0.359507
H70	H	-0.170200	-0.992710	-0.356712
H71	H	-0.583122	-1.388189	-1.203167
C72	C	-1.026248	-1.220796	-0.623865
C73	C	-0.969594	-1.175849	-0.668721
C74	C	-1.013094	-1.119039	-0.725543
H75	H	-1.056099	-1.177816	-0.588542
H76	H	-1.064327	-1.255738	-0.667321
H77	H	-0.931529	-1.140910	-0.625271
H78	H	-0.939741	-1.218806	-0.704061
H79	H	-1.051174	-1.153980	-0.768998
H80	H	-1.042943	-1.076065	-0.690212
H81	H	-0.974662	-1.088542	-0.755990
H82	H	-0.631745	-1.435330	-1.067223
C83	C	-0.599497	-0.977191	-0.644018
C84	C	-0.645611	-0.916101	-0.693494
C85	C	-0.704945	-0.963461	-0.757188
H86	H	-0.635986	-1.010156	-0.613440
H87	H	-0.571972	-1.017784	-0.684255
H88	H	-0.673135	-0.875524	-0.653263
H89	H	-0.609145	-0.883135	-0.724092
H90	H	-0.677419	-1.004054	-0.797425
H91	H	-0.741428	-0.996424	-0.726602
H92	H	-0.736235	-0.922020	-0.790771
H93	H	-0.622365	-0.652484	-0.668483
H94	H	-0.368162	-1.179489	-1.008435
C95	C	-0.400799	-0.637928	-0.430947
C96	C	-0.407691	-0.545387	-0.438343
C97	C	-0.348437	-0.497664	-0.374838
H98	H	-0.346395	-0.656944	-0.442339
H99	H	-0.410344	-0.649303	-0.371453
H100	H	-0.398140	-0.534017	-0.497823
H101	H	-0.462082	-0.526344	-0.426942
H102	H	-0.357982	-0.509039	-0.315344
H103	H	-0.294037	-0.516688	-0.386235
H104	H	-0.353110	-0.434870	-0.379842
H105	H	-0.632029	-0.823470	-0.678829
C106	C	-0.352140	-0.779167	-0.378580
C107	C	-0.366426	-0.796217	-0.291050
C108	C	-0.307169	-0.748796	-0.227312
H109	H	-0.356639	-0.716325	-0.383344
H110	H	-0.297749	-0.798291	-0.389947
H111	H	-0.420803	-0.777089	-0.279687
H112	H	-0.361919	-0.859050	-0.286257
H113	H	-0.252777	-0.767919	-0.238679
H114	H	-0.311673	-0.685956	-0.232084
H115	H	-0.316848	-0.760364	-0.167917
C116	C	-0.636813	-1.440227	-0.884221
C117	C	-0.689809	-1.491733	-0.951512
C118	C	-0.743793	-1.544195	-0.910561
H119	H	-0.669191	-1.401876	-0.847013
H120	H	-0.605099	-1.479244	-0.848013
H121	H	-0.721520	-1.452720	-0.987705
H122	H	-0.657454	-1.530102	-0.988725
H123	H	-0.712080	-1.583211	-0.874353
H124	H	-0.776166	-1.505836	-0.873354
H125	H	-0.779753	-1.579153	-0.956212
H126	H	-0.377790	-1.188906	-1.180423
