data_functionalizedCrystal
_audit_creation_method	'MofGen! by Chris Wilmer'
_symmetry_space_group_name_H-M	'P1'
_symmetry_Int_Tables_number	1
_symmetry_cell_setting	triclinic
loop_
_symmetry_equiv_pos_as_xyz
  x,y,z
_cell_length_a	27.440280
_cell_length_b	14.395555
_cell_length_c	14.395555
_cell_angle_alpha	60.000749
_cell_angle_beta	90.004690
_cell_angle_gamma	60.000070
loop_
_atom_site_label
_atom_site_type_symbol
_atom_site_fract_x
_atom_site_fract_y
_atom_site_fract_z
Zr1	Zr	0.469518	1.016682	-0.121806
O2	O	0.391703	1.210488	-0.270151
O3	O	0.493370	0.822882	-0.076328
O4	O	0.493374	1.016670	-0.270124
O5	O	0.391698	1.016708	0.076512
O6	O	0.573577	1.016652	-0.270105
O7	O	0.391699	1.016701	-0.076355
O8	O	0.573570	0.670002	0.076560
O9	O	0.391705	1.363358	-0.270154
O10	O	0.563400	0.902579	-0.056921
O11	O	0.503545	0.902597	0.057148
O12	O	0.503550	1.130757	-0.171021
O13	O	0.443695	1.130775	-0.056953
Zr14	Zr	0.597431	1.016664	0.122030
Zr15	Zr	0.597432	1.016653	-0.121775
Zr16	Zr	0.469517	1.016693	0.122000
Zr17	Zr	0.469522	1.260491	-0.121810
Zr18	Zr	0.597427	0.772855	0.122034
O19	O	0.573579	1.210463	0.076552
O20	O	0.573580	1.210447	-0.270108
O21	O	0.391701	1.210504	0.076509
O22	O	0.675247	0.822857	0.270375
O23	O	0.675248	0.822842	-0.076285
O24	O	0.493369	0.822898	0.270332
O25	O	0.675251	1.016638	-0.076288
O26	O	0.573575	1.016676	0.270348
O27	O	0.493372	1.016694	0.270329
O28	O	0.675250	1.016645	0.076579
O29	O	0.493380	1.363335	-0.270129
O30	O	0.573569	0.670011	0.270353
O31	O	0.675244	0.669988	0.270378
O32	O	0.675245	0.669979	0.076585
O33	O	0.391704	1.363366	-0.076361
O34	O	0.493379	1.363344	-0.076336
O35	O	0.563399	0.902589	0.171246
O36	O	0.623254	0.902570	0.057177
O37	O	0.563404	1.130748	-0.056924
O38	O	0.503549	1.130767	0.057145
C39	C	0.533470	0.711705	0.000117
C40	C	0.533468	0.608201	0.000118
C41	C	0.500834	0.547619	0.062317
C42	C	0.477183	0.561876	-0.044963
C43	C	0.557105	0.409548	0.107366
C44	C	0.509784	0.623884	-0.107226
C45	C	0.589737	0.471494	0.045181
C46	C	0.566100	0.485798	-0.062163
C47	C	0.373473	1.016709	0.000074
C48	C	0.319170	1.016721	0.000061
C49	C	0.013714	0.897545	0.059703
C50	C	-0.037304	0.897537	0.059713
O51	O	-0.037123	0.796242	0.110401
N52	N	-0.094062	1.016643	0.000152
C53	C	-0.099801	1.135763	-0.059413
O54	O	-0.152763	1.237070	-0.110072
C55	C	-0.048783	1.135769	-0.059415
C56	C	0.007974	1.016656	0.000140
C57	C	0.070469	0.778441	0.119254
C58	C	0.121484	0.778449	0.119242
C59	C	0.115744	0.897560	0.059679
C60	C	0.058989	1.016663	0.000127
C61	C	-0.054523	1.254887	-0.118973
C62	C	-0.003499	1.254883	-0.118970
C63	C	0.053259	1.135770	-0.059415
C64	C	0.104264	1.135782	-0.059448
N65	N	0.161022	1.016677	0.000113
C66	C	0.166762	0.897566	0.059676
C67	C	-0.206940	1.135741	-0.059401
C68	C	-0.257957	1.135737	-0.059405
C69	C	-0.195457	0.897511	0.059722
C70	C	-0.144439	0.897517	0.059720
C71	C	-0.150182	1.016636	0.000160
C72	C	0.273894	0.897591	0.059645
C73	C	0.324911	0.897610	0.059624
C74	C	0.262406	1.135835	-0.059498
C75	C	0.211393	1.135817	-0.059482
C76	C	0.217142	1.016685	0.000098
O77	O	0.104128	1.237026	-0.110106
O78	O	0.219725	0.796276	0.110339
C79	C	0.693476	1.016637	0.000150
C80	C	0.747779	1.016625	0.000163
C81	C	0.533476	1.016659	-0.304852
C82	C	0.533476	1.016654	-0.408353
C83	C	0.533479	1.321641	0.000107
C84	C	0.533481	1.425144	0.000106
C85	C	0.566112	0.892242	-0.406729
C86	C	0.509833	0.954445	-0.499765
C87	C	0.589742	0.954456	-0.499746
C88	C	0.477163	1.078858	-0.500026
C89	C	0.557113	1.078852	-0.499992
C90	C	0.500800	1.141146	-0.593046
C91	C	0.533473	1.016687	0.305076
C92	C	0.533473	1.016691	0.408577
C93	C	0.693471	0.711669	0.000155
C94	C	0.747772	0.608153	0.000169
C95	C	0.533469	0.711718	0.305080
C96	C	0.533467	0.608220	0.408584
C97	C	0.693470	0.711683	0.305118
C98	C	0.747771	0.608172	0.408635
C99	C	0.373479	1.321663	-0.304894
C100	C	0.319179	1.425174	-0.408411
C101	C	0.373478	1.321677	0.000069
C102	C	0.319177	1.425192	0.000055
C103	C	0.533481	1.321627	-0.304856
C104	C	0.533483	1.425126	-0.408360
C105	C	0.742029	0.559546	-0.059392
C106	C	0.793046	0.462295	-0.059401
C107	C	0.849805	0.413648	0.000158
C108	C	0.855547	0.462265	0.059721
C109	C	0.804531	0.559520	0.059723
C110	C	0.804520	0.559552	0.397704
C111	C	0.855546	0.462306	0.494960
C112	C	0.849822	0.413675	0.603144
C113	C	0.793067	0.462304	0.614072
C114	C	0.742042	0.559555	0.516818
C115	C	0.262429	1.473805	-0.397480
C116	C	0.211403	1.571081	-0.494736
C117	C	0.217127	1.619718	-0.602920
C118	C	0.273882	1.571082	-0.613848
C119	C	0.324907	1.473815	-0.516594
C120	C	0.324920	1.473810	0.059606
C121	C	0.273903	1.571087	0.059588
C122	C	0.217144	1.619738	0.000025
C123	C	0.211402	1.571116	-0.059533
C124	C	0.262418	1.473848	-0.059521
C125	C	0.500829	0.547642	0.406962
C126	C	0.557109	0.409532	0.499996
C127	C	0.477202	0.561883	0.499982
C128	C	0.589780	0.471410	0.500254
C129	C	0.509832	0.623835	0.500225
C130	C	0.566146	0.485734	0.593276
H131	H	0.429602	0.599070	-0.083089
N132	N	0.916767	0.409791	0.123956
H133	H	0.948209	0.340802	0.114914
H134	H	0.921497	0.369501	0.207241
N135	N	0.786844	0.409856	-0.123629
H136	H	0.827772	0.340866	-0.114604
H137	H	0.764273	0.484138	-0.206912
N138	N	0.483348	0.884807	-0.501021
H139	H	0.446837	0.947687	-0.571067
H140	H	0.471718	0.852421	-0.430737
H141	H	0.429556	1.131409	-0.499217
H142	H	0.695836	0.599128	0.525734
N143	N	0.583614	1.148441	-0.498696
H144	H	0.626141	1.101344	-0.497631
H145	H	0.583012	1.148643	-0.428647
H146	H	0.371114	1.434220	-0.525507
N147	N	0.583586	0.288206	0.227515
H148	H	0.620101	0.211430	0.234268
H149	H	0.553112	0.268158	0.246577
H150	H	0.371131	1.434206	0.108116
N151	N	0.464119	1.280388	-0.698848
H152	H	0.421614	1.327136	-0.699716
H153	H	0.464770	1.278904	-0.768255
N154	N	0.256250	1.421366	-0.280801
H155	H	0.276019	1.323743	-0.237789
H156	H	0.212543	1.467041	-0.288741
N157	N	0.256224	1.421392	-0.123735
H158	H	0.275998	1.438297	-0.183664
H159	H	0.212515	1.466994	-0.161390
N160	N	0.652770	0.884775	-0.500943
H161	H	0.677384	0.790791	-0.431448
H162	H	0.670834	0.930896	-0.500485
N163	N	0.602613	0.752901	-0.301061
H164	H	0.644945	0.705404	-0.300805
H165	H	0.584631	0.706179	-0.300252
N166	N	0.810729	0.611938	0.123972
H167	H	0.854428	0.566353	0.161700
H168	H	0.790926	0.595007	0.183846
H169	H	0.278589	1.610659	0.108092
N170	N	-0.189276	0.769043	0.123974
H171	H	-0.166735	0.716974	0.207286
H172	H	-0.166757	0.717064	0.092656
N173	N	0.280052	1.623545	-0.730536
H174	H	0.239113	1.692537	-0.790478
H175	H	0.302606	1.549273	-0.739547
N176	N	-0.083223	0.769051	0.123963
H177	H	-0.060662	0.763736	0.069349
H178	H	-0.087383	0.693672	0.161691
H179	H	0.429620	0.599067	0.500885
H180	H	0.809192	0.599134	0.309624
N181	N	0.483243	0.745160	-0.227433
H182	H	0.483387	0.814806	-0.226685
H183	H	0.440877	0.779439	-0.261540
H184	H	-0.008182	1.351887	-0.167457
N185	N	0.602658	0.450071	-0.131924
H186	H	0.618895	0.504817	-0.164005
H187	H	0.576635	0.467551	-0.196342
N188	N	0.150191	1.623523	-0.482944
H189	H	0.145417	1.663851	-0.439967
H190	H	0.145453	1.549261	-0.440026
N191	N	0.602760	0.449912	0.698768
H192	H	0.602280	0.380302	0.768553
H193	H	0.585271	0.530501	0.698802
N194	N	0.162121	1.724650	0.000018
H195	H	0.174377	1.748057	0.046787
H196	H	0.137585	1.690740	0.033881
N197	N	0.680815	0.612001	-0.123633
H198	H	0.684927	0.566443	-0.161364
H199	H	0.658286	0.709630	-0.183503
H200	H	0.175574	1.698919	-0.682102
H201	H	0.637386	0.434025	0.499441
N202	N	0.904828	0.308753	0.000149
H203	H	0.892572	0.285347	-0.046621
H204	H	0.929363	0.228114	0.080838
H205	H	0.901754	0.422722	0.486042
H206	H	0.473274	0.574729	0.327197
N207	N	0.464236	0.583689	0.131895
H208	H	0.421733	0.618750	0.097703
H209	H	0.464846	0.653211	0.131989
H210	H	0.165182	1.610743	-0.108027
N211	N	0.483336	0.745223	0.498947
H212	H	0.440811	0.780250	0.497890
H213	H	0.483936	0.814333	0.428902
H214	H	0.637307	0.434319	0.083333
N215	N	0.583601	0.288159	0.501242
H216	H	0.558919	0.310709	0.431752
H217	H	0.583767	0.218384	0.572080
N218	N	0.386129	0.769133	0.123852
H219	H	0.382019	0.693679	0.161587
H220	H	0.408665	0.763941	0.183719
H221	H	0.891375	0.334487	0.682326
H222	H	-0.100729	1.351882	-0.167468
N223	N	0.150174	1.264284	-0.123733
H224	H	0.154282	1.339740	-0.161472
H225	H	0.127650	1.269477	-0.069049
H226	H	0.167694	0.681455	0.167733
N227	N	0.280097	0.769103	0.123906
H228	H	0.323796	0.693662	0.161623
H229	H	0.260289	0.763904	0.069232
H230	H	-0.304168	1.232731	-0.107916
H231	H	0.257742	1.232812	-0.107997
N232	N	0.786897	0.409845	0.730760
H233	H	0.827836	0.340856	0.790702
H234	H	0.764341	0.369558	0.739771
H235	H	0.075153	0.681442	0.167764
H236	H	-0.211624	1.232749	-0.107907
