data_functionalizedCrystal
_audit_creation_method	'MofGen! by Chris Wilmer'
_symmetry_space_group_name_H-M	'P1'
_symmetry_Int_Tables_number	1
_symmetry_cell_setting	triclinic
loop_
_symmetry_equiv_pos_as_xyz
  x,y,z
_cell_length_a	14.044191
_cell_length_b	15.944493
_cell_length_c	12.503572
_cell_angle_alpha	93.528588
_cell_angle_beta	86.162165
_cell_angle_gamma	88.333410
loop_
_atom_site_label
_atom_site_type_symbol
_atom_site_fract_x
_atom_site_fract_y
_atom_site_fract_z
O1	O	1.263136	0.198090	-0.089242
O2	O	1.513136	0.448090	0.160758
O3	O	1.763136	0.698090	0.410758
O4	O	2.013136	0.948090	0.660758
O5	O	0.987168	0.190776	-0.089257
O6	O	1.237168	0.440776	0.160743
O7	O	1.487168	0.690776	0.410743
O8	O	1.737168	0.940776	0.660743
O9	O	1.132717	0.072721	-0.089258
O10	O	1.382717	0.322721	0.160742
O11	O	1.632717	0.572721	0.410742
O12	O	1.882717	0.822721	0.660742
O13	O	1.117587	0.316145	-0.089241
O14	O	1.367587	0.566145	0.160759
O15	O	1.617587	0.816145	0.410759
O16	O	1.867587	1.066145	0.660759
O17	O	1.121771	0.081615	0.089384
O18	O	1.371771	0.331615	0.339384
O19	O	1.621771	0.581615	0.589384
O20	O	1.871771	0.831615	0.839384
O21	O	0.976222	0.199670	0.089385
O22	O	1.226222	0.449670	0.339385
O23	O	1.476222	0.699670	0.589385
O24	O	1.726222	0.949670	0.839385
O25	O	1.252190	0.206985	0.089400
O26	O	1.502190	0.456985	0.339400
O27	O	1.752190	0.706985	0.589400
O28	O	2.002190	0.956985	0.839400
Cu29	Cu	1.113206	0.204140	0.105704
Cu30	Cu	1.363206	0.454140	0.355704
Cu31	Cu	1.613206	0.704140	0.605704
Cu32	Cu	1.863206	0.954140	0.855704
Cu33	Cu	1.126151	0.193621	-0.105561
Cu34	Cu	1.376151	0.443621	0.144439
Cu35	Cu	1.626151	0.693621	0.394439
Cu36	Cu	1.876151	0.943621	0.644439
O37	O	1.106641	0.325039	0.089401
O38	O	1.356641	0.575039	0.339401
O39	O	1.606641	0.825039	0.589401
O40	O	1.856641	1.075039	0.839401
C41	C	0.946381	0.192023	0.000062
C42	C	1.196381	0.442023	0.250062
C43	C	1.446381	0.692023	0.500062
C44	C	1.696381	0.942023	0.750062
C45	C	0.841157	0.182479	0.000056
C46	C	1.091157	0.432479	0.250056
C47	C	1.341157	0.682479	0.500056
C48	C	1.591157	0.932479	0.750056
C49	C	0.590861	0.232718	0.000070
C50	C	0.840861	0.482718	0.250070
C51	C	1.090861	0.732718	0.500070
C52	C	1.340861	0.982718	0.750070
C53	C	0.648502	0.165045	0.000063
C54	C	0.898502	0.415045	0.250063
C55	C	1.148502	0.665045	0.500063
C56	C	1.398502	0.915045	0.750063
C57	C	0.755705	0.174748	0.000059
C58	C	1.005705	0.424748	0.250059
C59	C	1.255705	0.674748	0.500059
C60	C	1.505705	0.924748	0.750059
C61	C	0.483648	0.223017	0.000074
C62	C	0.733648	0.473017	0.250074
C63	C	0.983648	0.723017	0.500074
C64	C	1.233648	0.973017	0.750074
C65	C	1.126626	0.045827	0.000058
C66	C	1.376626	0.295827	0.250058
C67	C	1.626626	0.545827	0.500058
C68	C	1.876626	0.795827	0.750058
C69	C	1.124773	-0.047561	0.000045
C70	C	1.374773	0.202439	0.250045
C71	C	1.624773	0.452439	0.500045
C72	C	1.874773	0.702439	0.750045
C73	C	1.210445	-0.276903	0.000069
C74	C	1.460445	-0.026903	0.250069
C75	C	1.710445	0.223097	0.500069
C76	C	1.960445	0.473097	0.750069
C77	C	1.169642	-0.335317	-0.088012
C78	C	1.419642	-0.085317	0.161988
C79	C	1.669642	0.164683	0.411988
C80	C	1.919642	0.414683	0.661988
C81	C	1.121337	-0.218539	0.000058
C82	C	1.371337	0.031461	0.250058
C83	C	1.621337	0.281461	0.500058
C84	C	1.871337	0.531461	0.750058
C85	C	1.158829	-0.326525	0.088115
C86	C	1.408829	-0.076525	0.338115
C87	C	1.658829	0.173475	0.588115
C88	C	1.908829	0.423475	0.838115
C89	C	1.118025	-0.383696	0.000075
C90	C	1.368025	-0.133696	0.250075
C91	C	1.618025	0.116304	0.500075
C92	C	1.868025	0.366304	0.750075
C93	C	1.080562	-0.275727	-0.088097
C94	C	1.330562	-0.025727	0.161903
C95	C	1.580562	0.224273	0.411903
C96	C	1.830562	0.474273	0.661903
C97	C	1.069758	-0.266927	0.088109
C98	C	1.319758	-0.016927	0.338109
C99	C	1.569758	0.233073	0.588109
C100	C	1.819758	0.483073	0.838109
C101	C	1.028890	-0.325314	0.000006
C102	C	1.278890	-0.075314	0.250006
C103	C	1.528890	0.174686	0.500006
C104	C	1.778890	0.424686	0.750006
C105	C	1.123248	-0.123397	0.000047
C106	C	1.373248	0.126603	0.250047
C107	C	1.623248	0.376603	0.500047
C108	C	1.873248	0.626603	0.750047
C109	C	1.116107	-0.478836	0.000078
C110	C	1.366107	-0.228836	0.250078
C111	C	1.616107	0.021164	0.500078
C112	C	1.866107	0.271164	0.750078
C113	C	1.292977	0.205737	0.000078
C114	C	1.542977	0.455737	0.250078
C115	C	1.792977	0.705737	0.500078
C116	C	2.042977	0.955737	0.750078
C117	C	1.398201	0.215281	0.000078
C118	C	1.648201	0.465281	0.250078
C119	C	1.898201	0.715281	0.500078
C120	C	2.148201	0.965281	0.750078
C121	C	1.112732	0.351933	0.000082
C122	C	1.362732	0.601933	0.250082
C123	C	1.612732	0.851933	0.500082
C124	C	1.862732	1.101933	0.750082
C125	C	1.114585	0.445321	0.000089
C126	C	1.364585	0.695321	0.250089
C127	C	1.614585	0.945321	0.500089
C128	C	1.864585	1.195321	0.750089
N129	N	1.104108	0.211538	0.254296
N130	N	1.354108	0.461538	0.504296
N131	N	1.604108	0.711538	0.754296
N132	N	1.854108	0.961538	1.004296
N133	N	1.135257	0.186216	-0.254153
N134	N	1.385257	0.436216	-0.004153
N135	N	1.635257	0.686216	0.245847
N136	N	1.885257	0.936216	0.495847
C137	C	1.090725	0.222428	0.473412
C138	C	1.340725	0.472428	0.723412
C139	C	1.590725	0.722428	0.973412
C140	C	1.840725	0.972428	1.223412
C141	C	1.148637	0.175329	0.526738
C142	C	1.398637	0.425329	0.776738
C143	C	1.648637	0.675329	1.026738
C144	C	1.898637	0.925329	1.276738
C145	C	1.141191	0.181388	0.648662
C146	C	1.391191	0.431388	0.898662
C147	C	1.641191	0.681388	1.148662
C148	C	1.891191	0.931388	1.398662
C149	C	1.098170	0.216370	0.351477
C150	C	1.348170	0.466370	0.601477
C151	C	1.598170	0.716370	0.851477
C152	C	1.848170	0.966370	1.101477
H153	H	0.617343	0.099817	-0.000017
H154	H	0.867343	0.349817	0.249983
H155	H	1.117343	0.599817	0.499983
H156	H	1.367343	0.849817	0.749983
H157	H	0.622024	0.297937	0.000071
H158	H	0.872024	0.547937	0.250071
H159	H	1.122024	0.797937	0.500071
H160	H	1.372024	1.047937	0.750071
H161	H	1.027595	-0.237075	0.162575
H162	H	1.277595	0.012925	0.412575
H163	H	1.527595	0.262925	0.662575
H164	H	1.777595	0.512925	0.912575
H165	H	1.047520	-0.253435	-0.162643
H166	H	1.297520	-0.003435	0.087357
H167	H	1.547520	0.246565	0.337357
H168	H	1.797520	0.496565	0.587357
H169	H	1.287206	-0.255530	-0.000015
H170	H	1.537206	-0.005530	0.249985
H171	H	1.787206	0.244470	0.499985
H172	H	2.037206	0.494470	0.749985
F173	F	1.224791	-0.374315	-0.185341
F174	F	1.474791	-0.124315	0.064659
F175	F	1.724791	0.125685	0.314659
F176	F	1.974791	0.375685	0.564659
H177	H	0.952078	-0.346536	-0.000046
H178	H	1.202078	-0.096536	0.249954
H179	H	1.452078	0.153464	0.499954
H180	H	1.702078	0.403464	0.749954
H181	H	1.191917	-0.348929	0.162576
H182	H	1.441917	-0.098929	0.412576
H183	H	1.691917	0.151071	0.662576
H184	H	1.941917	0.401071	0.912576
H185	H	1.035556	0.267300	0.519320
H186	H	1.285556	0.517300	0.769320
H187	H	1.535556	0.767300	1.019320
H188	H	1.785556	1.017300	1.269320
F189	F	1.221037	0.116948	0.466730
F190	F	1.471037	0.366948	0.716730
F191	F	1.721037	0.616948	0.966730
F192	F	1.971037	0.866948	1.216730
