data_functionalizedCrystal
_audit_creation_method	'MofGen! by Chris Wilmer'
_symmetry_space_group_name_H-M	'P1'
_symmetry_Int_Tables_number	1
_symmetry_cell_setting	triclinic
loop_
_symmetry_equiv_pos_as_xyz
  x,y,z
_cell_length_a	13.339070
_cell_length_b	17.666332
_cell_length_c	19.188924
_cell_angle_alpha	90.008552
_cell_angle_beta	99.385629
_cell_angle_gamma	90.009041
loop_
_atom_site_label
_atom_site_type_symbol
_atom_site_fract_x
_atom_site_fract_y
_atom_site_fract_z
O1	O	1.340730	0.062989	0.349727
O2	O	1.840730	0.562989	0.849727
O3	O	1.046407	0.062983	0.303823
O4	O	1.546407	0.562983	0.803823
O5	O	1.202066	0.062978	0.226783
O6	O	1.702066	0.562978	0.726783
O7	O	1.185071	0.062995	0.426767
O8	O	1.685071	0.562995	0.926767
O9	O	1.202038	-0.062919	0.226772
O10	O	1.702038	0.437081	0.726772
O11	O	1.046380	-0.062914	0.303812
O12	O	1.546380	0.437086	0.803812
O13	O	1.340702	-0.062907	0.349716
O14	O	1.840702	0.437093	0.849716
Cu15	Cu	1.193539	-0.074406	0.326763
Cu16	Cu	1.693539	0.425594	0.826763
Cu17	Cu	1.193571	0.074482	0.326776
Cu18	Cu	1.693571	0.574482	0.826776
O19	O	1.185044	-0.062902	0.426756
O20	O	1.685044	0.437098	0.926756
C21	C	1.008739	0.000034	0.296064
C22	C	1.508739	0.500034	0.796064
C23	C	0.896540	0.000031	0.272951
C24	C	1.396540	0.500031	0.772951
N25	N	1.193524	-0.179125	0.326755
N26	N	1.693524	0.320875	0.826755
C27	C	0.530946	0.000059	0.452664
C28	C	1.030946	0.500059	0.952664
C29	C	0.636362	0.000064	0.474382
C30	C	1.136362	0.500064	0.974382
C31	C	0.701411	0.000055	0.424026
C32	C	1.201411	0.500055	0.924026
C33	C	0.661035	0.000042	0.351949
C34	C	1.161035	0.500042	0.851949
C35	C	0.555609	0.000043	0.330229
C36	C	1.055609	0.500043	0.830229
C37	C	0.726075	0.000040	0.301591
C38	C	1.226075	0.500040	0.801591
C39	C	0.685698	0.000027	0.229513
C40	C	1.185698	0.500027	0.729513
C41	C	0.580282	0.000028	0.207797
C42	C	1.080282	0.500028	0.707797
C43	C	0.515233	0.000036	0.258153
C44	C	1.015233	0.500036	0.758153
C45	C	0.831501	0.000039	0.323311
C46	C	1.331501	0.500039	0.823311
C47	C	0.856164	0.000024	0.200875
C48	C	1.356164	0.500024	0.700875
C49	C	0.750748	0.000019	0.179158
C50	C	1.250748	0.500019	0.679158
C51	C	1.262471	-0.218737	0.292669
C52	C	1.762471	0.281263	0.792669
C53	C	1.262477	-0.297985	0.292667
C54	C	1.762477	0.202015	0.792667
C55	C	1.193545	-0.337617	0.326764
C56	C	1.693545	0.162383	0.826764
C57	C	1.124584	-0.297996	0.360851
C58	C	1.624584	0.202004	0.860851
C59	C	1.124574	-0.218750	0.360847
C60	C	1.624574	0.281250	0.860847
N61	N	1.180404	-0.462031	0.385998
N62	N	1.680404	0.037969	0.885998
N63	N	1.180420	-0.537311	0.386002
N64	N	1.680420	-0.037311	0.886002
C65	C	1.193572	-0.576381	0.326779
C66	C	1.693572	-0.076381	0.826779
N67	N	1.206726	-0.537327	0.267555
N68	N	1.706726	-0.037327	0.767555
N69	N	1.206715	-0.462040	0.267553
N70	N	1.706715	0.037960	0.767553
C71	C	1.193548	-0.423547	0.326773
C72	C	1.693548	0.076453	0.826773
C73	C	1.262529	-0.701923	0.292688
C74	C	1.762529	-0.201923	0.792688
C75	C	1.262528	-0.781172	0.292683
C76	C	1.762528	-0.281172	0.792683
C77	C	1.124640	-0.781181	0.360875
C78	C	1.624640	-0.281181	0.860875
C79	C	1.124637	-0.701934	0.360872
C80	C	1.624637	-0.201934	0.860872
C81	C	1.193586	-0.662309	0.326781
C82	C	1.693586	-0.162309	0.826781
C83	C	1.378371	0.000044	0.357475
C84	C	1.878371	0.500044	0.857475
C85	C	1.490569	0.000051	0.380588
C86	C	1.990569	0.500051	0.880588
C87	C	1.201503	0.000028	0.200659
C88	C	1.701503	0.500028	0.700659
C89	C	1.199854	0.000026	0.122831
C90	C	1.699854	0.500026	0.622831
N91	N	1.193594	0.179201	0.326780
N92	N	1.693594	0.679201	0.826780
C93	C	1.199100	0.068653	0.086288
C94	C	1.699100	0.568653	0.586288
C95	C	1.197536	0.068659	0.013159
C96	C	1.697536	0.568659	0.513159
C97	C	1.196748	0.000034	-0.023421
C98	C	1.696748	0.500034	0.476579
C99	C	1.197497	-0.068602	0.013130
C100	C	1.697497	0.431398	0.513130
C101	C	1.199050	-0.068605	0.086257
C102	C	1.699050	0.431395	0.586257
N103	N	1.251817	-0.051041	-0.132303
N104	N	1.751817	0.448959	0.367697
N105	N	1.250343	-0.051032	-0.201770
N106	N	1.750343	0.448968	0.298230
C107	C	1.192066	0.000041	-0.243747
C108	C	1.692066	0.500041	0.256253
N109	N	1.135331	0.051118	-0.213633
N110	N	1.635331	0.551118	0.286367
N111	N	1.136809	0.051112	-0.144159
N112	N	1.636809	0.551112	0.355841
C113	C	1.195063	0.000030	-0.102715
C114	C	1.695063	0.500030	0.397285
C115	C	1.189615	0.068679	-0.359586
C116	C	1.689615	0.568679	0.140414
C117	C	1.188045	0.068681	-0.432717
C118	C	1.688045	0.568681	0.067283
C119	C	1.188016	-0.068581	-0.432743
C120	C	1.688016	0.431419	0.067257
C121	C	1.189576	-0.068582	-0.359614
C122	C	1.689576	0.431418	0.140386
C123	C	1.190380	0.000050	-0.323040
C124	C	1.690380	0.500050	0.176960
C125	C	1.185607	0.000049	0.452880
C126	C	1.685607	0.500049	0.952880
C127	C	1.187255	0.000056	0.530708
C128	C	1.687255	0.500056	1.030708
H129	H	0.864364	0.000046	0.381996
H130	H	1.364364	0.500046	0.881996
H131	H	1.318671	-0.813425	0.264922
H132	H	1.818671	-0.313425	0.764922
H133	H	1.190199	-0.124465	-0.329859
H134	H	1.690199	0.375535	0.170141
H135	H	1.187426	0.124568	-0.462470
H136	H	1.687426	0.624568	0.037530
H137	H	1.068457	-0.330268	0.388613
H138	H	1.568457	0.169732	0.888613
H139	H	1.318624	-0.330243	0.264909
H140	H	1.818624	0.169757	0.764909
H141	H	0.909128	0.000020	0.159871
H142	H	1.409128	0.500020	0.659871
H143	H	1.068427	-0.186497	0.388604
H144	H	1.568427	0.313503	0.888604
H145	H	0.477974	0.000072	0.493655
H146	H	0.977974	0.500072	0.993655
H147	H	1.318612	-0.186478	0.264908
H148	H	1.818612	0.313522	0.764908
H149	H	1.068497	-0.669679	0.388632
H150	H	1.568497	-0.169679	0.888632
H151	H	1.187367	-0.124456	-0.462527
H152	H	1.687367	0.375544	0.037473
H153	H	0.429393	0.000032	0.240474
H154	H	0.929393	0.500032	0.740474
H155	H	1.318670	-0.669660	0.264926
H156	H	1.818670	-0.169660	0.764926
H157	H	0.787245	0.000061	0.441713
H158	H	1.287245	0.500061	0.941713
H159	H	1.196852	-0.124476	-0.016658
H160	H	1.696852	0.375524	0.483342
H161	H	1.068510	-0.813449	0.388634
H162	H	1.568510	-0.313449	0.888634
H163	H	1.199752	0.124538	0.116062
H164	H	1.699752	0.624538	0.616062
H165	H	0.669228	0.000080	0.533067
H166	H	1.169228	0.500080	1.033067
H167	H	1.196916	0.124544	-0.016601
H168	H	1.696916	0.624544	0.483399
H169	H	1.199660	-0.124491	0.116010
H170	H	1.699660	0.375509	0.616010
H171	H	0.547412	0.000026	0.149107
H172	H	1.047412	0.500026	0.649107
H173	H	0.717858	0.000015	0.120471
H174	H	1.217858	0.500015	0.620471
H175	H	1.190264	0.124563	-0.329806
H176	H	1.690264	0.624563	0.170194
