data_functionalizedCrystal
_audit_creation_method	'MofGen! by Chris Wilmer'
_symmetry_space_group_name_H-M	'P1'
_symmetry_Int_Tables_number	1
_symmetry_cell_setting	triclinic
loop_
_symmetry_equiv_pos_as_xyz
  x,y,z
_cell_length_a	18.101390
_cell_length_b	18.215407
_cell_length_c	18.215405
_cell_angle_alpha	90.025333
_cell_angle_beta	90.035371
_cell_angle_gamma	90.017596
loop_
_atom_site_label
_atom_site_type_symbol
_atom_site_fract_x
_atom_site_fract_y
_atom_site_fract_z
Zn1	Zn	-0.418723	-1.125056	0.292948
Zn2	Zn	0.081277	-0.625056	0.792948
Zn3	Zn	-0.294876	-1.124969	0.416030
Zn4	Zn	0.205124	-0.624969	0.916030
Zn5	Zn	-0.294896	-1.001993	0.292982
Zn6	Zn	0.205104	-0.501993	0.792982
Zn7	Zn	-0.418676	-1.001954	0.415978
Zn8	Zn	0.081324	-0.501954	0.915978
O9	O	-0.356793	-1.063493	0.354485
O10	O	0.143207	-0.563493	0.854485
O11	O	-0.402306	-1.228028	0.309282
O12	O	0.097694	-0.728028	0.809282
O13	O	-0.191246	-1.108636	0.399743
O14	O	0.308754	-0.608636	0.899743
O15	O	-0.311350	-1.018370	0.189994
O16	O	0.188650	-0.518370	0.689994
O17	O	-0.311317	-1.227965	0.399710
O18	O	0.188683	-0.727965	0.899710
O19	O	-0.402325	-1.108784	0.189968
O20	O	0.097675	-0.608784	0.689968
O21	O	-0.191260	-1.018286	0.309341
O22	O	0.308740	-0.518286	0.809341
O23	O	-0.311304	-0.899004	0.309291
O24	O	0.188696	-0.399004	0.809291
O25	O	-0.522315	-1.018304	0.399622
O26	O	-0.022315	-0.518304	0.899622
O27	O	-0.402245	-0.898975	0.399656
O28	O	0.097755	-0.398975	0.899656
O29	O	-0.522350	-1.108746	0.309232
O30	O	-0.022350	-0.608746	0.809232
O31	O	-0.311271	-1.108598	0.519007
O32	O	0.188729	-0.608598	1.019007
O33	O	-0.402226	-1.018220	0.518969
O34	O	0.097774	-0.518220	1.018969
C35	C	-0.356772	-0.872287	0.354472
C36	C	0.143228	-0.372287	0.854472
C37	C	-0.356780	-0.790488	0.354484
C38	C	0.143220	-0.290488	0.854484
C39	C	-0.356757	-1.063415	0.545691
C40	C	0.143243	-0.563415	1.045691
C41	C	-0.356767	-1.063449	0.627490
C42	C	0.143233	-0.563449	1.127490
C43	C	-0.549955	-1.063530	0.354418
C44	C	-0.049955	-0.563530	0.854418
C45	C	-0.632269	-1.063546	0.354389
C46	C	-0.132269	-0.563546	0.854389
C47	C	-0.782977	-1.063573	0.354366
C48	C	-0.282977	-0.563573	0.854366
C49	C	-0.814353	-1.120478	0.297490
C50	C	-0.314353	-0.620478	0.797490
C51	C	-0.899971	-1.120716	0.297644
C52	C	-0.399971	-0.620716	0.797644
C53	C	-0.931360	-1.063599	0.354342
C54	C	-0.431360	-0.563599	0.854342
C55	C	-0.900246	-1.084352	0.431965
C56	C	-0.400246	-0.584352	0.931965
C57	C	-0.814601	-1.084750	0.431649
C58	C	-0.314601	-0.584750	0.931649
C59	C	-0.814535	-0.985775	0.334293
C60	C	-0.314535	-0.485775	0.834293
C61	C	-0.900187	-0.986207	0.332568
C62	C	-0.400187	-0.486207	0.832568
C63	C	-1.015220	-1.063612	0.354334
C64	C	-0.515220	-0.563612	0.854334
C65	C	-0.699118	-1.063561	0.354380
C66	C	-0.199118	-0.563561	0.854380
C67	C	-0.164382	-1.063498	0.354498
C68	C	0.335618	-0.563498	0.854498
C69	C	-0.082069	-1.063625	0.354319
C70	C	0.417931	-0.563625	0.854319
C71	C	-0.356815	-1.255446	0.354498
C72	C	0.143185	-0.755446	0.854498
C73	C	-0.356824	-1.337245	0.354503
C74	C	0.143176	-0.837245	0.854503
C75	C	-0.404074	-0.602298	0.401611
C76	C	0.095926	-0.102298	0.901611
C77	C	-0.404083	-0.525440	0.401613
C78	C	0.095917	-0.025440	0.901613
C79	C	-0.309528	-0.525440	0.307371
C80	C	0.190472	-0.025440	0.807371
C81	C	-0.309523	-0.602297	0.307366
C82	C	0.190477	-0.102297	0.807366
C83	C	-0.356795	-0.640724	0.354490
C84	C	0.143205	-0.140724	0.854490
C85	C	-0.356809	-0.487008	0.354498
C86	C	0.143191	0.012992	0.854498
C87	C	-0.356819	-0.403675	0.354500
C88	C	0.143181	0.096325	0.854500
C89	C	-0.356786	-0.724063	0.354487
C90	C	0.143214	-0.224063	0.854487
C91	C	-0.356845	-1.063591	0.162532
C92	C	0.143155	-0.563591	0.662532
C93	C	-0.356867	-1.063633	0.080733
C94	C	0.143133	-0.563633	0.580733
C95	C	-0.309494	-1.110620	0.815679
C96	C	0.190506	-0.610620	1.315679
C97	C	-0.309511	-1.110653	0.892538
C98	C	0.190489	-0.610653	1.392538
C99	C	-0.404145	-1.016460	0.892538
C100	C	0.095855	-0.516460	1.392538
C101	C	-0.404131	-1.016432	0.815681
C102	C	0.095869	-0.516432	1.315681
C103	C	-0.356801	-1.063510	0.777253
C104	C	0.143199	-0.563510	1.277253
C105	C	-0.356833	-1.063572	0.930969
C106	C	0.143167	-0.563572	1.430969
C107	C	-0.356853	-1.063607	1.014303
C108	C	0.143147	-0.563607	1.514303
C109	C	-0.356781	-1.063476	0.693914
C110	C	0.143219	-0.563476	1.193914
H111	H	-0.921011	-1.107749	0.240097
H112	H	-0.421011	-0.607749	0.740097
F113	F	-0.259204	-0.643195	0.257207
F114	F	0.240796	-0.143195	0.757207
H115	H	-0.270990	-1.149015	0.923820
H116	H	0.229010	-0.649015	1.423820
H117	H	-0.442679	-0.978129	0.923836
H118	H	0.057321	-0.478129	1.423836
F119	F	-0.454487	-0.966292	0.774783
F120	F	0.045513	-0.466292	1.274783
H121	H	-0.921718	-1.140585	0.449241
H122	H	-0.421718	-0.640585	0.949241
H123	H	-0.792839	-1.177798	0.310635
H124	H	-0.292839	-0.677798	0.810635
F125	F	-0.787465	-1.032913	0.488945
F126	F	-0.287465	-0.532913	0.988945
H127	H	-0.793783	-1.107667	0.239766
H128	H	-0.293783	-0.607667	0.739766
F129	F	-0.926815	-1.031848	0.488862
F130	F	-0.426815	-0.531848	0.988862
H131	H	-0.920467	-1.178370	0.310945
H132	H	-0.420467	-0.678370	0.810945
F133	F	-0.786328	-0.961001	0.261575
F134	F	-0.286328	-0.461001	0.761575
H135	H	-0.794241	-0.943381	0.375716
H136	H	-0.294241	-0.443381	0.875716
F137	F	-0.788496	-1.159071	0.453843
F138	F	-0.288496	-0.659071	0.953843
F139	F	-0.926772	-0.965741	0.257903
F140	F	-0.426772	-0.465741	0.757903
H141	H	-0.442567	-0.633583	0.439981
H142	H	0.057433	-0.133583	0.939981
H143	H	-0.271040	-0.494143	0.269006
H144	H	0.228960	0.005857	0.769006
H145	H	-0.270956	-1.148955	0.784393
H146	H	0.229044	-0.648955	1.284393
F147	F	-0.928111	-0.927861	0.382730
F148	F	-0.428111	-0.427861	0.882730
H149	H	-0.442583	-0.494156	0.439983
H150	H	0.057417	0.005844	0.939983
