data_functionalizedCrystal
_audit_creation_method	'MofGen! by Chris Wilmer'
_symmetry_space_group_name_H-M	'P1'
_symmetry_Int_Tables_number	1
_symmetry_cell_setting	triclinic
loop_
_symmetry_equiv_pos_as_xyz
  x,y,z
_cell_length_a	27.732048
_cell_length_b	19.188930
_cell_length_c	17.666332
_cell_angle_alpha	90.011603
_cell_angle_beta	90.003861
_cell_angle_gamma	82.893719
loop_
_atom_site_label
_atom_site_type_symbol
_atom_site_fract_x
_atom_site_fract_y
_atom_site_fract_z
O1	O	-0.641184	-0.083079	-0.062859
O2	O	-0.141184	0.416921	0.437141
O3	O	-0.500430	-0.095711	-0.062883
O4	O	-0.000430	0.404289	0.437117
O5	O	-0.574869	0.012286	-0.062856
O6	O	-0.074869	0.512286	0.437144
O7	O	-0.566745	-0.191077	-0.062887
O8	O	-0.066745	0.308923	0.437113
O9	O	-0.574856	0.012292	0.063041
O10	O	-0.074856	0.512292	0.563041
O11	O	-0.500417	-0.095706	0.063014
O12	O	-0.000417	0.404294	0.563014
O13	O	-0.641171	-0.083074	0.063038
O14	O	-0.141171	0.416926	0.563038
Cu15	Cu	-0.570793	-0.089389	0.074521
Cu16	Cu	-0.070793	0.410611	0.574521
Cu17	Cu	-0.570808	-0.089396	-0.074367
Cu18	Cu	-0.070808	0.410604	0.425633
O19	O	-0.566732	-0.191071	0.063010
O20	O	-0.066732	0.308929	0.563010
C21	C	-0.482415	-0.095443	0.000062
C22	C	0.017585	0.404557	0.500062
C23	C	-0.428758	-0.094645	0.000054
C24	C	0.071242	0.405355	0.500054
C25	C	-0.574599	0.038299	0.000095
C26	C	-0.074599	0.538299	0.500095
C27	C	-0.573810	0.115798	0.000101
C28	C	-0.073810	0.615798	0.500101
C29	C	-0.659186	-0.083341	0.000090
C30	C	-0.159186	0.416659	0.500090
C31	C	-0.712843	-0.084140	0.000094
C32	C	-0.212843	0.415860	0.500094
C33	C	-0.090123	-0.153438	0.000078
C34	C	0.409877	0.346562	0.500078
C35	C	0.111546	-0.150475	0.000085
C36	C	0.611546	0.349525	0.500085
O37	O	0.142637	-0.204237	0.000109
O38	O	0.642637	0.295763	0.500109
N39	N	0.130866	-0.086437	0.000093
N40	N	0.630866	0.413563	0.500093
C41	C	0.099764	-0.023135	0.000105
C42	C	0.599764	0.476865	0.500105
O43	O	0.120824	0.031401	0.000120
O44	O	0.620824	0.531401	0.500120
C45	C	-0.101903	-0.026098	0.000103
C46	C	0.398097	0.473902	0.500103
C47	C	-0.121220	-0.090140	0.000087
C48	C	0.378780	0.409860	0.500087
C49	C	-0.109440	-0.217475	0.000062
C50	C	0.390560	0.282525	0.500062
C51	C	-0.159854	-0.218215	0.000056
C52	C	0.340146	0.281785	0.500056
C53	C	-0.190951	-0.154917	0.000066
C54	C	0.309049	0.345083	0.500066
C55	C	-0.171634	-0.090880	0.000081
C56	C	0.328366	0.409120	0.500081
C57	C	-0.133003	0.037203	0.000120
C58	C	0.366997	0.537203	0.500120
C59	C	-0.183423	0.036457	0.000121
C60	C	0.316577	0.536457	0.500121
C61	C	-0.202740	-0.027586	0.000105
C62	C	0.297260	0.472414	0.500105
C63	C	-0.253145	-0.028323	0.000084
C64	C	0.246855	0.471677	0.500084
N65	N	-0.272465	-0.092361	0.000076
N66	N	0.227535	0.407639	0.500076
C67	C	-0.241368	-0.155658	0.000067
C68	C	0.258632	0.344342	0.500067
C69	C	0.205643	-0.021584	0.000104
C70	C	0.705643	0.478416	0.500104
C71	C	0.256060	-0.020843	0.000103
C72	C	0.756060	0.479157	0.500103
C73	C	0.267838	-0.148183	0.000085
C74	C	0.767838	0.351817	0.500085
C75	C	0.217420	-0.148923	0.000080
C76	C	0.717420	0.351077	0.500080
C77	C	0.186324	-0.085622	0.000096
C78	C	0.686324	0.414378	0.500096
C79	C	-0.347242	-0.157208	0.000054
C80	C	0.152758	0.342792	0.500054
C81	C	-0.397661	-0.157942	0.000044
C82	C	0.102339	0.342058	0.500044
C83	C	-0.409435	-0.030602	0.000067
C84	C	0.090565	0.469398	0.500067
C85	C	-0.359020	-0.029867	0.000072
C86	C	0.140980	0.470133	0.500072
C87	C	-0.327924	-0.093176	0.000068
C88	C	0.172076	0.406824	0.500068
O89	O	-0.284265	0.025410	0.000068
O90	O	0.215735	0.525410	0.500068
O91	O	-0.262437	-0.210187	0.000068
O92	O	0.237563	0.289813	0.500068
C93	C	-0.039708	-0.152698	0.000084
C94	C	0.460292	0.347302	0.500084
C95	C	-0.020391	-0.088661	0.000099
C96	C	0.479609	0.411339	0.500099
C97	C	-0.051489	-0.025363	0.000108
C98	C	0.448511	0.474637	0.500108
C99	C	0.030025	-0.087920	0.000098
C100	C	0.530025	0.412080	0.500098
C101	C	0.061122	-0.151217	0.000089
C102	C	0.561122	0.348783	0.500089
C103	C	0.041803	-0.215255	0.000080
C104	C	0.541803	0.284745	0.500080
C105	C	-0.008611	-0.215995	0.000074
C106	C	0.491389	0.284005	0.500074
C107	C	-0.032169	0.038675	0.000116
C108	C	0.467831	0.538675	0.500116
C109	C	0.018246	0.039409	0.000122
C110	C	0.518246	0.539409	0.500122
C111	C	0.049343	-0.023888	0.000112
C112	C	0.549343	0.476112	0.500112
C113	C	-0.567002	-0.217083	0.000058
C114	C	-0.067002	0.282917	0.500058
C115	C	-0.567791	-0.294583	0.000047
C116	C	-0.067791	0.205417	0.500047
N117	N	-0.570786	-0.089384	0.179240
N118	N	-0.070786	0.410616	0.679240
C119	C	-0.617488	0.161001	0.000112
C120	C	-0.117488	0.661001	0.500112
C121	C	-0.616746	0.233820	0.000100
C122	C	-0.116746	0.733820	0.500100
C123	C	-0.572323	0.261433	0.000092
C124	C	-0.072323	0.761433	0.500092
C125	C	-0.528639	0.216220	0.000077
C126	C	-0.028639	0.716220	0.500077
C127	C	-0.529382	0.143403	0.000081
C128	C	-0.029382	0.643403	0.500081
N129	N	-0.538363	0.369223	0.042931
N130	N	-0.038363	0.869223	0.542931
N131	N	-0.537660	0.438397	0.042928
N132	N	-0.037660	0.938397	0.542928
C133	C	-0.570081	0.480827	0.000076
C134	C	-0.070081	0.980827	0.500076
N135	N	-0.603240	0.451471	-0.042764
N136	N	-0.103240	0.951471	0.457236
N137	N	-0.603944	0.382291	-0.042757
N138	N	-0.103944	0.882291	0.457243
C139	C	-0.571512	0.340390	0.000086
C140	C	-0.071512	0.840390	0.500086
C141	C	-0.612959	0.604989	0.000073
C142	C	-0.112959	1.104989	0.500073
C143	C	-0.612215	0.677809	0.000056
C144	C	-0.112215	1.177809	0.500056
C145	C	-0.524106	0.660208	0.000040
C146	C	-0.024106	1.160208	0.500040
C147	C	-0.524851	0.587390	0.000049
C148	C	-0.024851	1.087390	0.500049
C149	C	-0.569279	0.559785	0.000069
C150	C	-0.069279	1.059785	0.500069
N151	N	-0.570819	-0.089395	-0.179086
N152	N	-0.070819	0.410605	0.320914
C153	C	-0.603758	-0.041586	0.218862
C154	C	-0.103758	0.458414	0.718862
C155	C	-0.603761	-0.041582	0.298110
C156	C	-0.103761	0.458418	0.798110
C157	C	-0.570796	-0.089389	0.337733
C158	C	-0.070796	0.410611	0.837733
C159	C	-0.537817	-0.137191	0.298101
C160	C	-0.037817	0.362809	0.798101
C161	C	-0.537812	-0.137188	0.218855
C162	C	-0.037812	0.362812	0.718855
N163	N	-0.564512	-0.151237	0.462141
N164	N	-0.064512	0.348763	0.962141
N165	N	-0.564520	-0.151237	0.537422
N166	N	-0.064520	0.348763	1.037422
C167	C	-0.570808	-0.089399	0.576497
C168	C	-0.070808	0.410601	1.076497
N169	N	-0.577098	-0.027558	0.537447
N170	N	-0.077098	0.472442	1.037447
N171	N	-0.577093	-0.027559	0.462160
N172	N	-0.077093	0.472441	0.962160
C173	C	-0.570797	-0.089397	0.423662
C174	C	-0.070797	0.410603	0.923662
C175	C	-0.603786	-0.041593	0.702048
C176	C	-0.103786	0.458407	1.202048
C177	C	-0.603785	-0.041589	0.781297
C178	C	-0.103785	0.458411	1.281297
C179	C	-0.537844	-0.137203	0.781286
C180	C	-0.037844	0.362797	1.281286
C181	C	-0.537842	-0.137202	0.702039
C182	C	-0.037842	0.362798	1.202039
C183	C	-0.570816	-0.089397	0.662424
C184	C	-0.070816	0.410603	1.162424
H185	H	-0.413385	-0.210095	0.000031
H186	H	0.086615	0.289905	0.500031
C187	C	-0.029852	-0.286447	0.000066
C188	C	0.470148	0.213553	0.500066
N189	N	-0.045848	-0.339515	0.000063
N190	N	0.454152	0.160485	0.500063
H191	H	-0.652316	0.270631	0.000106
H192	H	-0.152316	0.770631	0.500106
H193	H	-0.493813	0.106598	0.000072
H194	H	0.006187	0.606598	0.500072
C195	C	-0.476801	0.537665	0.000041
C196	C	0.023199	1.037665	0.500041
N197	N	-0.440607	0.500212	0.000032
N198	N	0.059393	1.000212	0.500032
H199	H	-0.630612	-0.002658	0.330376
H200	H	-0.130612	0.497342	0.830376
C201	C	-0.640051	0.011008	0.824881
C202	C	-0.140051	0.511008	1.324881
N203	N	-0.667365	0.050628	0.857709
N204	N	-0.167365	0.550628	1.357709
H205	H	-0.487936	0.682690	0.000030
H206	H	0.012064	1.182690	0.500030
H207	H	-0.208740	0.088006	0.000135
H208	H	0.291260	0.588006	0.500135
C209	C	-0.666360	0.130640	0.000128
C210	C	-0.166360	0.630640	0.500128
N211	N	-0.703170	0.107771	0.000138
N212	N	-0.203170	0.607771	0.500138
C213	C	-0.501554	-0.189776	0.341688
C214	C	-0.001554	0.310224	0.841688
N215	N	-0.474237	-0.229382	0.374517
N216	N	0.025763	0.270618	0.874517
C217	C	-0.661829	0.574621	0.000083
C218	C	-0.161829	1.074621	0.500083
N219	N	-0.698639	0.551750	0.000089
N220	N	-0.198639	1.051750	0.500089
H221	H	-0.492469	0.238708	0.000068
H222	H	0.007531	0.738708	0.500068
C223	C	0.076020	-0.284882	0.000073
C224	C	0.576020	0.215118	0.500073
N225	N	0.101794	-0.337322	0.000072
N226	N	0.601794	0.162678	0.500072
H227	H	-0.510961	-0.176112	0.186594
H228	H	-0.010961	0.323888	0.686594
H229	H	-0.343292	0.022281	0.000074
H230	H	0.156708	0.522281	0.500074
H231	H	-0.647785	0.714613	0.000061
H232	H	-0.147785	1.214613	0.500061
H233	H	-0.630606	-0.002659	0.186610
H234	H	-0.130606	0.497341	0.686610
C235	C	-0.640052	0.010999	0.658469
C236	C	-0.140052	0.510999	1.158469
N237	N	-0.667368	0.050613	0.625648
N238	N	-0.167368	0.550613	1.125648
C239	C	0.039487	0.109866	0.000144
C240	C	0.539487	0.609866	0.500144
N241	N	0.055485	0.162932	0.000169
N242	N	0.555485	0.662932	0.500169
H243	H	-0.511001	-0.176126	0.813547
H244	H	-0.011001	0.323874	1.313547
H245	H	-0.321929	-0.208759	0.000053
H246	H	0.178071	0.291241	0.500053
C247	C	-0.501604	-0.189834	0.658453
C248	C	-0.001604	0.310166	1.158453
N249	N	-0.474319	-0.229495	0.625625
N250	N	0.025681	0.270505	1.125625
H251	H	-0.084125	-0.269022	0.000058
H252	H	0.415875	0.230978	0.500058
C253	C	-0.181095	-0.288667	0.000055
C254	C	0.318905	0.211333	0.500055
N255	N	-0.197090	-0.341735	0.000060
N256	N	0.302910	0.158265	0.500060
H257	H	0.201697	-0.201072	0.000071
H258	H	0.701697	0.298928	0.500071
H259	H	0.293166	-0.199722	0.000077
H260	H	0.793166	0.300278	0.500077
H261	H	0.271783	0.031307	0.000105
H262	H	0.771783	0.531307	0.500105
H263	H	0.180328	0.029967	0.000117
H264	H	0.680328	0.529967	0.500117
H265	H	-0.434763	0.020933	0.000072
H266	H	0.065237	0.520933	0.500072
C267	C	-0.111767	0.107656	0.000153
C268	C	0.388233	0.607656	0.500153
N269	N	-0.095773	0.160725	0.000183
N270	N	0.404227	0.660725	0.500183
H271	H	-0.057484	0.090220	0.000126
H272	H	0.442516	0.590220	0.500126
