data_functionalizedCrystal
_audit_creation_method	'MofGen! by Chris Wilmer'
_symmetry_space_group_name_H-M	'P1'
_symmetry_Int_Tables_number	1
_symmetry_cell_setting	triclinic
loop_
_symmetry_equiv_pos_as_xyz
  x,y,z
_cell_length_a	18.101398
_cell_length_b	12.594516
_cell_length_c	18.101389
_cell_angle_alpha	89.987481
_cell_angle_beta	89.975673
_cell_angle_gamma	90.011320
loop_
_atom_site_label
_atom_site_type_symbol
_atom_site_fract_x
_atom_site_fract_y
_atom_site_fract_z
Zn1	Zn	1.132198	-0.423988	-0.418869
Zn2	Zn	1.132127	-0.601956	-0.295040
Zn3	Zn	1.008357	-0.423977	-0.295030
Zn4	Zn	1.008341	-0.601910	-0.418829
O5	O	1.070256	-0.512958	-0.356942
O6	O	1.235822	-0.447620	-0.402464
O7	O	1.115686	-0.578361	-0.191406
O8	O	1.024822	-0.275033	-0.311470
O9	O	1.235769	-0.578372	-0.311488
O10	O	1.115808	-0.275041	-0.402454
O11	O	1.024753	-0.447601	-0.191399
O12	O	0.904722	-0.447557	-0.311431
O13	O	1.024794	-0.578294	-0.522467
O14	O	0.904710	-0.578283	-0.402386
O15	O	1.115791	-0.447575	-0.522497
O16	O	1.115669	-0.750896	-0.311449
O17	O	1.024724	-0.750862	-0.402395
C18	C	0.877845	-0.512915	-0.356904
C19	C	0.795531	-0.512922	-0.356905
C20	C	0.496440	-0.512988	-0.356967
C21	C	0.527748	-0.430327	-0.300020
C22	C	0.613367	-0.430549	-0.299777
C23	C	0.644823	-0.512954	-0.356936
C24	C	0.613725	-0.625071	-0.335619
C25	C	0.528080	-0.624611	-0.335223
C26	C	0.528050	-0.484507	-0.435364
C27	C	0.613700	-0.482010	-0.434936
C28	C	0.728682	-0.512942	-0.356920
C29	C	0.412581	-0.513008	-0.356981
C30	C	1.070207	-0.789499	-0.356935
C31	C	1.070254	-0.907804	-0.356957
C32	C	1.020784	-0.977078	-0.406388
C33	C	1.002743	-1.047918	-0.338810
C34	C	1.088363	-1.047763	-0.424546
C35	C	1.052177	-0.977086	-0.289343
C36	C	1.137829	-0.976925	-0.375124
C37	C	1.119813	-1.047733	-0.307500
C38	C	1.263418	-0.513002	-0.356981
C39	C	1.345732	-0.513021	-0.356998
C40	C	1.070299	-0.512931	-0.550104
C41	C	1.070317	-0.512919	-0.632418
C42	C	1.070325	-0.235337	-0.356966
C43	C	1.070354	-0.117032	-0.356976
C44	C	1.070360	-0.512720	-0.931509
C45	C	1.012909	-0.594703	-0.900166
C46	C	1.013065	-0.595083	-0.814547
C47	C	1.070338	-0.512819	-0.783127
C48	C	1.148369	-0.543275	-0.814235
C49	C	1.148049	-0.543813	-0.899880
C50	C	1.050458	-0.400099	-0.899926
C51	C	1.048722	-0.400749	-0.814275
C52	C	1.070330	-0.512873	-0.699267
C53	C	1.070373	-0.512668	-1.015369
C54	C	1.070256	-0.512908	-0.164532
C55	C	1.070381	-0.512619	-0.082218
H56	H	0.634101	-0.688309	-0.375799
H57	H	1.103640	-1.078808	-0.481697
C58	C	0.964172	-0.935153	-0.462777
C59	C	0.971604	-0.964613	-0.545007
C60	C	0.914990	-0.922686	-0.601391
C61	C	0.850944	-0.851299	-0.575546
C62	C	0.843509	-0.821834	-0.493313
C63	C	0.900123	-0.863761	-0.436928
H64	H	1.019017	-1.017462	-0.564142
H65	H	0.920494	-0.944498	-0.662266
H66	H	0.809035	-0.820262	-0.617285
H67	H	0.796096	-0.768986	-0.474177
H68	H	0.894619	-0.841950	-0.376054
C69	C	0.499937	-0.317662	-0.317857
C70	C	0.555578	-0.228675	-0.335481
C71	C	0.527761	-0.116006	-0.353317
C72	C	0.444303	-0.092323	-0.353528
C73	C	0.388657	-0.181313	-0.335903
C74	C	0.416474	-0.293982	-0.318068
H75	H	0.617363	-0.246204	-0.335325
H76	H	0.568955	-0.050130	-0.366364
H77	H	0.423712	-0.008919	-0.366731
H78	H	0.326872	-0.163784	-0.336059
H79	H	0.375281	-0.359858	-0.305020
C80	C	1.207849	-0.466677	-0.927905
C81	C	1.289368	-0.484680	-0.907091
C82	C	1.349173	-0.407557	-0.935115
C83	C	1.327458	-0.312432	-0.983953
C84	C	1.245934	-0.294425	-1.004770
C85	C	1.186130	-0.371548	-0.976746
H86	H	1.305447	-0.555101	-0.870935
H87	H	1.409522	-0.420888	-0.919705
H88	H	1.371729	-0.255342	-1.004698
H89	H	1.229856	-0.224004	-1.040925
H90	H	1.125780	-0.358217	-0.992156
C91	C	1.214949	-0.934760	-0.395904
C92	C	1.282457	-0.964183	-0.348385
C93	C	1.359577	-0.922017	-0.369175
C94	C	1.369189	-0.850427	-0.437483
C95	C	1.301679	-0.820999	-0.485007
C96	C	1.224559	-0.863166	-0.464217
H97	H	1.275343	-1.017182	-0.297815
H98	H	1.409553	-0.943801	-0.333995
H99	H	1.426278	-0.819212	-0.452873
H100	H	1.308793	-0.768001	-0.535577
H101	H	1.174583	-0.841382	-0.499397
C102	C	0.642651	-0.658274	-0.259028
C103	C	0.619779	-0.765884	-0.225701
C104	C	0.648703	-0.799081	-0.149108
C105	C	0.700499	-0.724667	-0.105842
C106	C	0.723374	-0.617050	-0.139168
C107	C	0.694450	-0.583854	-0.215762
H108	H	0.581434	-0.820976	-0.257729
H109	H	0.631769	-0.878746	-0.124437
H110	H	0.721911	-0.749241	-0.049143
H111	H	0.761720	-0.561958	-0.107140
H112	H	0.711384	-0.504188	-0.240432
C113	C	1.207753	-0.465149	-0.786742
C114	C	1.273393	-0.506021	-0.740727
C115	C	1.332775	-0.427891	-0.713233
C116	C	1.326517	-0.308890	-0.731753
C117	C	1.260875	-0.268012	-0.777770
C118	C	1.201493	-0.346141	-0.805265
H119	H	1.278028	-0.594118	-0.727015
H120	H	1.381368	-0.458153	-0.679168
H121	H	1.370475	-0.251054	-0.711400
H122	H	1.256240	-0.179915	-0.791482
H123	H	1.152901	-0.315880	-0.839330
H124	H	0.994546	-0.372353	-0.921510
C125	C	0.925604	-1.090052	-0.318054
C126	C	0.858345	-1.062205	-0.366379
C127	C	0.781204	-1.104336	-0.345629
C128	C	0.771323	-1.174314	-0.276554
C129	C	0.838584	-1.202165	-0.228225
C130	C	0.915724	-1.160034	-0.248975
H131	H	0.865658	-1.010400	-0.417516
H132	H	0.731413	-1.083719	-0.381406
H133	H	0.714219	-1.205501	-0.261194
H134	H	0.831271	-1.253970	-0.177088
H135	H	0.965515	-1.180651	-0.213198
C136	C	1.106981	-0.317576	-0.927314
C137	C	1.081074	-0.222030	-0.973643
C138	C	1.137599	-0.139520	-1.001037
C139	C	1.220031	-0.152555	-0.982101
C140	C	1.245941	-0.248105	-0.935769
C141	C	1.189416	-0.330616	-0.908375
H142	H	1.020050	-0.212377	-0.987663
H143	H	1.118418	-0.068787	-1.035334
H144	H	1.261874	-0.091476	-1.002379
H145	H	1.306966	-0.257759	-0.921749
H146	H	1.208598	-0.401349	-0.874077
C147	C	0.500098	-0.710636	-0.388806
C148	C	0.451289	-0.679520	-0.455015
C149	C	0.423313	-0.765548	-0.508593
C150	C	0.444146	-0.882693	-0.495960
C151	C	0.492958	-0.913814	-0.429747
C152	C	0.520934	-0.827786	-0.376170
H153	H	0.435865	-0.592797	-0.464369
H154	H	0.387179	-0.742509	-0.557608
H155	H	0.423437	-0.946376	-0.535621
H156	H	0.508383	-1.000537	-0.420393
H157	H	0.557068	-0.850825	-0.327155
H158	H	0.991298	-0.377782	-0.793941
C159	C	0.498641	-0.455460	-0.221996
C160	C	0.446617	-0.550632	-0.209818
C161	C	0.417509	-0.575769	-0.131796
C162	C	0.440425	-0.505734	-0.065951
C163	C	0.492451	-0.410557	-0.078127
C164	C	0.521559	-0.385420	-0.156150
H165	H	0.429651	-0.602481	-0.258562
H166	H	0.378996	-0.646226	-0.122783
H167	H	0.418877	-0.524342	-0.008194
H168	H	0.509417	-0.358707	-0.029383
H169	H	0.560073	-0.314962	-0.165163
C170	C	0.498892	-0.375986	-0.461554
C171	C	0.415239	-0.358151	-0.470746
C172	C	0.386080	-0.249626	-0.496927
C173	C	0.440574	-0.158935	-0.513916
C174	C	0.524233	-0.176767	-0.504725
C175	C	0.553391	-0.285292	-0.478544
H176	H	0.374894	-0.425288	-0.458169
H177	H	0.324150	-0.236426	-0.503731
H178	H	0.418989	-0.078598	-0.533297
H179	H	0.564577	-0.109630	-0.517301
H180	H	0.615321	-0.298492	-0.471740
H181	H	0.635115	-0.537830	-0.479639
C182	C	1.176387	-1.089393	-0.250979
C183	C	1.241265	-1.159212	-0.276823
C184	C	1.297835	-1.200875	-0.220300
C185	C	1.289527	-1.172719	-0.137932
C186	C	1.224646	-1.102896	-0.112084
C187	C	1.168076	-1.061233	-0.168608
H188	H	1.247418	-1.180059	-0.337799
H189	H	1.345865	-1.252563	-0.239434
H190	H	1.331404	-1.203560	-0.096091
H191	H	1.218494	-1.082049	-0.051108
H192	H	1.120047	-1.009545	-0.149473
C193	C	0.934897	-0.569340	-0.786125
C194	C	0.871896	-0.548290	-0.841359
C195	C	0.793724	-0.522554	-0.812941
C196	C	0.778553	-0.517868	-0.729290
C197	C	0.841556	-0.538919	-0.674052
C198	C	0.919728	-0.564655	-0.702469
H199	H	0.883125	-0.551759	-0.903287
H200	H	0.747085	-0.506971	-0.853833
H201	H	0.720685	-0.498817	-0.708254
H202	H	0.830327	-0.535450	-0.612123
H203	H	0.966367	-0.580238	-0.661577
H204	H	0.954873	-0.575839	-0.920750
C205	C	1.030481	-0.706796	-0.929242
C206	C	0.972833	-0.767392	-0.975441
C207	C	0.990407	-0.879485	-1.004515
C208	C	1.065630	-0.930982	-0.987392
C209	C	1.123283	-0.870385	-0.941191
C210	C	1.105709	-0.758292	-0.912116
H211	H	0.917144	-0.729271	-0.988119
H212	H	0.947728	-0.924342	-1.038716
H213	H	1.078639	-1.013960	-1.008915
H214	H	1.178972	-0.908506	-0.928513
H215	H	1.148388	-0.713435	-0.877915
H216	H	1.165530	-0.624728	-0.792798
C217	C	1.030854	-0.707843	-0.786877
C218	C	1.044967	-0.797824	-0.842711
C219	C	1.062759	-0.910588	-0.815041
C220	C	1.066438	-0.933372	-0.731538
C221	C	1.052325	-0.843389	-0.675699
C222	C	1.034533	-0.730624	-0.703369
H223	H	1.042243	-0.780960	-0.904530
H224	H	1.073207	-0.977200	-0.856377
H225	H	1.079609	-1.016847	-0.711055
H226	H	1.055048	-0.860253	-0.613880
H227	H	1.024085	-0.664013	-0.662033
H228	H	0.634029	-0.399505	-0.451010
H229	H	0.507804	-0.544714	-0.477795
H230	H	1.036835	-0.946169	-0.232176
H231	H	1.164918	-0.626141	-0.919869
H232	H	1.087511	-0.336424	-0.792886
H233	H	0.634392	-0.347409	-0.313138
H234	H	0.633824	-0.449376	-0.241685
H235	H	0.508073	-0.648767	-0.277911
