data_functionalizedCrystal
_audit_creation_method	'MofGen! by Chris Wilmer'
_symmetry_space_group_name_H-M	'P1'
_symmetry_Int_Tables_number	1
_symmetry_cell_setting	triclinic
loop_
_symmetry_equiv_pos_as_xyz
  x,y,z
_cell_length_a	14.853569
_cell_length_b	15.995292
_cell_length_c	13.330367
_cell_angle_alpha	89.998548
_cell_angle_beta	89.994419
_cell_angle_gamma	83.552090
loop_
_atom_site_label
_atom_site_type_symbol
_atom_site_fract_x
_atom_site_fract_y
_atom_site_fract_z
O1	O	1.196196	0.109326	-0.083370
O2	O	1.696196	0.609326	0.416630
O3	O	0.933716	0.122347	-0.083382
O4	O	1.433716	0.622347	0.416618
O5	O	1.072158	-0.006046	-0.083377
O6	O	1.572158	0.493954	0.416623
O7	O	1.057754	0.237719	-0.083375
O8	O	1.557754	0.737719	0.416625
O9	O	1.072138	-0.006049	0.083470
O10	O	1.572138	0.493951	0.583470
O11	O	0.933696	0.122344	0.083466
O12	O	1.433696	0.622344	0.583466
O13	O	1.196176	0.109323	0.083477
O14	O	1.696176	0.609323	0.583477
Cu15	Cu	1.064934	0.115834	0.098706
Cu16	Cu	1.564934	0.615834	0.598706
Cu17	Cu	1.064958	0.115837	-0.098610
Cu18	Cu	1.564958	0.615837	0.401390
O19	O	1.057734	0.237716	0.083472
O20	O	1.557734	0.737716	0.583472
C21	C	0.900118	0.121756	0.000041
C22	C	1.400118	0.621756	0.500041
C23	C	0.800038	0.119987	0.000036
C24	C	1.300038	0.619987	0.500036
C25	C	0.763782	0.042889	0.000032
C26	C	1.263782	0.542889	0.500032
C27	C	0.742253	0.195423	0.000044
C28	C	1.242253	0.695423	0.500044
C29	C	0.648221	0.193764	0.000046
C30	C	1.148221	0.693764	0.500046
C31	C	0.611966	0.116666	0.000041
C32	C	1.111966	0.616666	0.500041
C33	C	0.669742	0.041227	0.000036
C34	C	1.169742	0.541227	0.500036
C35	C	0.590438	0.269202	0.000061
C36	C	1.090438	0.769202	0.500061
C37	C	0.496401	0.267546	0.000063
C38	C	0.996401	0.767546	0.500063
C39	C	0.460144	0.190446	0.000052
C40	C	0.960144	0.690446	0.500052
C41	C	0.517926	0.115004	0.000045
C42	C	1.017926	0.615004	0.500045
C43	C	0.481671	0.037906	0.000041
C44	C	0.981671	0.537906	0.500041
C45	C	0.539452	-0.037537	0.000027
C46	C	1.039452	0.462463	0.500027
C47	C	0.633485	-0.035872	0.000024
C48	C	1.133485	0.464128	0.500024
C49	C	0.366110	0.188782	0.000055
C50	C	0.866110	0.688782	0.500055
C51	C	0.387631	0.036245	0.000045
C52	C	0.887631	0.536245	0.500045
C53	C	1.071562	-0.037244	0.000044
C54	C	1.571562	0.462756	0.500044
C55	C	1.069805	-0.130199	0.000036
C56	C	1.569805	0.369801	0.500036
C57	C	1.063343	-0.467945	0.000045
C58	C	1.563343	0.032055	0.500045
C59	C	1.163267	-0.444516	0.000422
C60	C	1.663267	0.055484	0.500422
C61	C	1.165166	-0.347838	0.000043
C62	C	1.665166	0.152162	0.500043
C63	C	1.066549	-0.300385	0.000041
C64	C	1.566549	0.199615	0.500041
C65	C	1.016603	-0.329543	-0.095236
C66	C	1.516603	0.170457	0.404764
C67	C	1.015401	-0.426335	-0.095312
C68	C	1.515401	0.073665	0.404688
C69	C	1.013337	-0.426197	0.094425
C70	C	1.513337	0.073803	0.594425
C71	C	1.017040	-0.329700	0.095680
C72	C	1.517040	0.170300	0.595680
C73	C	1.068356	-0.205687	0.000036
C74	C	1.568356	0.294313	0.500036
C75	C	1.061533	-0.562642	0.000044
C76	C	1.561533	-0.062642	0.500044
C77	C	1.229774	0.109915	0.000053
C78	C	1.729774	0.609915	0.500053
C79	C	1.329855	0.111684	0.000051
C80	C	1.829855	0.611684	0.500051
C81	C	1.058330	0.268914	0.000049
C82	C	1.558330	0.768914	0.500049
C83	C	1.060088	0.361869	0.000050
C84	C	1.560088	0.861869	0.500050
N85	N	1.064924	0.115831	0.237487
N86	N	1.564924	0.615831	0.737487
N87	N	1.064975	0.115833	-0.237392
N88	N	1.564975	0.615833	0.262608
C89	C	1.003653	0.172667	0.710108
C90	C	1.503653	0.672667	1.210108
C91	C	1.126287	0.059000	0.710080
C92	C	1.626287	0.559000	1.210080
C93	C	1.126277	0.058998	0.605062
C94	C	1.626277	0.558998	1.105062
C95	C	1.064955	0.115832	0.552562
C96	C	1.564955	0.615832	1.052562
C97	C	1.003643	0.172668	0.605080
C98	C	1.503643	0.672668	1.105080
C99	C	1.187594	0.002168	0.552535
C100	C	1.687594	0.502168	1.052535
C101	C	1.187587	0.002164	0.447511
C102	C	1.687587	0.502164	0.947511
C103	C	1.126260	0.058994	0.395009
C104	C	1.626260	0.558994	0.895009
C105	C	1.064945	0.115832	0.447534
C106	C	1.564945	0.615832	0.947534
C107	C	1.003622	0.172666	0.395034
C108	C	1.503622	0.672666	0.895034
C109	C	0.942302	0.229501	0.447557
C110	C	1.442302	0.729501	0.947557
C111	C	0.942316	0.229499	0.552578
C112	C	1.442316	0.729499	1.052578
C113	C	1.126246	0.058997	0.289987
C114	C	1.626246	0.558997	0.789987
C115	C	1.003612	0.172667	0.290006
C116	C	1.503612	0.672667	0.790006
H117	H	0.449363	0.328976	0.000073
H118	H	0.949363	0.828976	0.500073
H119	H	0.810831	-0.018535	0.000016
H120	H	1.310831	0.481465	0.500016
C121	C	0.697040	-0.118851	0.000009
C122	C	1.197040	0.381149	0.500009
H123	H	0.661983	-0.165008	-0.000005
H124	H	1.161983	0.334992	0.499995
H125	H	0.734169	-0.121380	0.058189
H126	H	1.234169	0.378620	0.558189
H127	H	0.734170	-0.121363	-0.058185
H128	H	1.234170	0.378637	0.441815
H129	H	0.358120	-0.026539	0.000036
H130	H	0.858120	0.473461	0.500036
H131	H	0.771778	0.258193	0.000055
H132	H	1.271778	0.758193	0.500055
H133	H	0.953725	0.218939	0.752875
H134	H	1.453725	0.718939	1.252875
H135	H	0.619965	0.331971	0.000071
H136	H	1.119965	0.831971	0.500071
H137	H	0.892377	0.275779	0.404799
H138	H	1.392377	0.775779	0.904799
H139	H	1.237516	-0.044114	0.404753
H140	H	1.737516	0.455886	0.904753
H141	H	1.176218	0.012732	0.752829
H142	H	1.676218	0.512732	1.252829
C143	C	0.918574	-0.286603	-0.100042
C144	C	1.418574	0.213397	0.399958
H145	H	0.889626	-0.305124	-0.158208
H146	H	1.389626	0.194876	0.341792
H147	H	0.919111	-0.227320	-0.102900
H148	H	1.419111	0.272680	0.397100
H149	H	0.886502	-0.300886	-0.041982
H150	H	1.386502	0.199114	0.458018
H151	H	1.176176	0.012727	0.247228
H152	H	1.676176	0.512727	0.747228
C153	C	1.215299	-0.482281	0.092718
C154	C	1.715299	0.017719	0.592718
H155	H	1.275442	-0.467413	0.091543
H156	H	1.775442	0.032587	0.591543
H157	H	1.216819	-0.541801	0.091453
H158	H	1.716819	-0.041801	0.591453
H159	H	1.185740	-0.460914	0.152104
H160	H	1.685740	0.039086	0.652104
H161	H	1.237525	-0.044101	0.595284
H162	H	1.737525	0.455899	1.095284
H163	H	0.319069	0.250206	0.000075
H164	H	0.819069	0.750206	0.500075
C165	C	0.936161	0.235187	0.232259
C166	C	1.436161	0.735187	0.732259
H167	H	0.944933	0.227048	0.162189
H168	H	1.444933	0.727048	0.662189
H169	H	0.945936	0.291086	0.249472
H170	H	1.445936	0.791086	0.749472
H171	H	0.875996	0.225984	0.249480
H172	H	1.375996	0.725984	0.749480
H173	H	1.204283	-0.328768	0.068339
H174	H	1.704283	0.171232	0.568339
C175	C	1.063399	-0.302286	-0.191022
C176	C	1.563399	0.197714	0.308978
H177	H	1.113375	-0.273160	-0.173155
H178	H	1.613375	0.226840	0.326845
H179	H	1.021448	-0.266269	-0.229476
H180	H	1.521448	0.233731	0.270524
H181	H	1.084238	-0.350593	-0.229522
H182	H	1.584238	0.149407	0.270478
H183	H	1.201576	-0.473487	-0.067518
H184	H	1.701576	0.026513	0.432482
H185	H	1.204530	-0.329386	-0.068372
H186	H	1.704530	0.170614	0.431628
H187	H	0.509920	-0.100310	0.000017
H188	H	1.009920	0.399690	0.500017
H189	H	0.942136	-0.440970	-0.099630
H190	H	1.442136	0.059030	0.400370
H191	H	1.050007	-0.453109	-0.166532
H192	H	1.550007	0.046891	0.333468
C193	C	1.055610	-0.464318	0.191983
C194	C	1.555610	0.035682	0.691983
H195	H	1.104159	-0.506055	0.176064
H196	H	1.604159	-0.006055	0.676064
H197	H	1.010961	-0.489133	0.229184
H198	H	1.510961	0.010867	0.729184
H199	H	1.077815	-0.421282	0.230877
H200	H	1.577815	0.078718	0.730877
C201	C	1.066159	-0.304558	0.190903
C202	C	1.566159	0.195442	0.690903
H203	H	1.116626	-0.276308	0.172462
H204	H	1.616626	0.223692	0.672462
H205	H	1.086531	-0.353600	0.228317
H206	H	1.586531	0.146400	0.728317
H207	H	1.025622	-0.268233	0.230667
H208	H	1.525622	0.231767	0.730667
H209	H	0.945059	-0.296815	0.101433
H210	H	1.445059	0.203185	0.601433
H211	H	0.892392	0.275772	0.595349
H212	H	1.392392	0.775772	1.095349
C213	C	0.913977	-0.445211	0.095295
C214	C	1.413977	0.054789	0.595295
H215	H	0.902985	-0.478427	0.038455
H216	H	1.402985	0.021573	0.538455
H217	H	0.875023	-0.393906	0.093201
H218	H	1.375023	0.106094	0.593201
H219	H	0.902633	-0.475049	0.154757
H220	H	1.402633	0.024951	0.654757
