data_functionalizedCrystal
_audit_creation_method	'MofGen! by Chris Wilmer'
_symmetry_space_group_name_H-M	'P1'
_symmetry_Int_Tables_number	1
_symmetry_cell_setting	triclinic
loop_
_symmetry_equiv_pos_as_xyz
  x,y,z
_cell_length_a	16.120530
_cell_length_b	12.594516
_cell_length_c	16.120297
_cell_angle_alpha	87.122232
_cell_angle_beta	89.871860
_cell_angle_gamma	87.111852
loop_
_atom_site_label
_atom_site_type_symbol
_atom_site_fract_x
_atom_site_fract_y
_atom_site_fract_z
Zn1	Zn	1.247493	-0.539249	0.534603
Zn2	Zn	1.497493	-0.289249	0.784603
Zn3	Zn	1.747493	-0.039249	1.034603
Zn4	Zn	1.997493	0.210751	1.284603
Zn5	Zn	1.254461	-0.708692	0.395557
Zn6	Zn	1.504461	-0.458692	0.645557
Zn7	Zn	1.754461	-0.208692	0.895557
Zn8	Zn	2.004461	0.041308	1.145557
Zn9	Zn	1.115482	-0.521263	0.388519
Zn10	Zn	1.365482	-0.271263	0.638519
Zn11	Zn	1.615482	-0.021263	0.888519
Zn12	Zn	1.865482	0.228737	1.138519
Zn13	Zn	1.108417	-0.707712	0.527526
Zn14	Zn	1.358417	-0.457712	0.777526
Zn15	Zn	1.608417	-0.207712	1.027526
Zn16	Zn	1.858417	0.042288	1.277526
O17	O	1.181463	-0.619229	0.461551
O18	O	1.431463	-0.369229	0.711551
O19	O	1.681463	-0.119229	0.961551
O20	O	1.931463	0.130771	1.211551
O21	O	1.364785	-0.569664	0.522065
O22	O	1.614785	-0.319664	0.772065
O23	O	1.864785	-0.069664	1.022065
O24	O	2.114785	0.180336	1.272065
O25	O	1.241897	-0.676712	0.278258
O26	O	1.491897	-0.426712	0.528258
O27	O	1.741897	-0.176712	0.778258
O28	O	1.991897	0.073288	1.028258
O29	O	1.133034	-0.374707	0.407914
O30	O	1.383034	-0.124707	0.657914
O31	O	1.633034	0.125293	0.907914
O32	O	1.883034	0.375293	1.157914
O33	O	1.369904	-0.694153	0.419909
O34	O	1.619904	-0.444153	0.669909
O35	O	1.869904	-0.194153	0.919909
O36	O	2.119904	0.055847	1.169909
O37	O	1.230022	-0.387921	0.515241
O38	O	1.480022	-0.137921	0.765241
O39	O	1.730022	0.112079	1.015241
O40	O	1.980022	0.362079	1.265241
O41	O	1.139790	-0.539009	0.273087
O42	O	1.389790	-0.289009	0.523087
O43	O	1.639790	-0.039009	0.773087
O44	O	1.889790	0.210991	1.023087
O45	O	0.998178	-0.538058	0.401052
O46	O	1.248178	-0.288058	0.651052
O47	O	1.498178	-0.038058	0.901052
O48	O	1.748178	0.211942	1.151052
O49	O	1.120993	-0.692482	0.644831
O50	O	1.370993	-0.442482	0.894831
O51	O	1.620993	-0.192482	1.144831
O52	O	1.870993	0.057518	1.394831
O53	O	0.992987	-0.675042	0.503180
O54	O	1.242987	-0.425042	0.753180
O55	O	1.492987	-0.175042	1.003180
O56	O	1.742987	0.074958	1.253180
O57	O	1.223172	-0.568713	0.650030
O58	O	1.473172	-0.318713	0.900030
O59	O	1.723172	-0.068713	1.150030
O60	O	1.973172	0.181287	1.400030
O61	O	1.235047	-0.857504	0.413047
O62	O	1.485047	-0.607504	0.663047
O63	O	1.735047	-0.357504	0.913047
O64	O	1.985047	-0.107504	1.163047
O65	O	1.127749	-0.856784	0.510004
O66	O	1.377749	-0.606784	0.760004
O67	O	1.627749	-0.356784	1.010004
O68	O	1.877749	-0.106784	1.260004
C69	C	0.965410	-0.604493	0.450585
C70	C	1.215410	-0.354493	0.700585
C71	C	1.465410	-0.104493	0.950585
C72	C	1.715410	0.145507	1.200585
C73	C	0.872980	-0.598215	0.445913
C74	C	1.122980	-0.348215	0.695913
C75	C	1.372980	-0.098215	0.945913
C76	C	1.622980	0.151785	1.195913
C77	C	1.181409	-0.895766	0.461540
C78	C	1.431409	-0.645766	0.711540
C79	C	1.681409	-0.395766	0.961540
C80	C	1.931409	-0.145766	1.211540
C81	C	1.181461	-1.014076	0.461567
C82	C	1.431461	-0.764076	0.711567
C83	C	1.681461	-0.514076	0.961567
C84	C	1.931461	-0.264076	1.211567
C85	C	0.703749	-0.586730	0.437391
C86	C	0.953749	-0.336730	0.687391
C87	C	1.203749	-0.086730	0.937391
C88	C	1.453749	0.163270	1.187391
C89	C	0.660015	-0.651810	0.485772
C90	C	0.910015	-0.401810	0.735772
C91	C	1.160015	-0.151810	0.985772
C92	C	1.410015	0.098190	1.235772
C93	C	0.565849	-0.645420	0.481031
C94	C	0.815849	-0.395420	0.731031
C95	C	1.065849	-0.145420	0.981031
C96	C	1.315849	0.104580	1.231031
C97	C	0.797924	-0.593119	0.442132
C98	C	1.047924	-0.343119	0.692132
C99	C	1.297924	-0.093119	0.942132
C100	C	1.547924	0.156881	1.192132
C101	C	1.123098	-1.082974	0.514263
C102	C	1.373098	-0.832974	0.764263
C103	C	1.623098	-0.582974	1.014263
C104	C	1.873098	-0.332974	1.264263
C105	C	1.106686	-1.147787	0.437359
C106	C	1.356686	-0.897787	0.687359
C107	C	1.606686	-0.647787	0.937359
C108	C	1.856686	-0.397787	1.187359
C109	C	1.197948	-1.160068	0.538488
C110	C	1.447948	-0.910068	0.788488
C111	C	1.697948	-0.660068	1.038488
C112	C	1.947948	-0.410068	1.288488
C113	C	1.165010	-1.077326	0.384621
C114	C	1.415010	-0.827326	0.634621
C115	C	1.665010	-0.577326	0.884621
C116	C	1.915010	-0.327326	1.134621
C117	C	1.256305	-1.089606	0.485803
C118	C	1.506305	-0.839606	0.735803
C119	C	1.756305	-0.589606	0.985803
C120	C	2.006305	-0.339606	1.235803
C121	C	1.239924	-1.154387	0.408848
C122	C	1.489924	-0.904387	0.658848
C123	C	1.739924	-0.654387	0.908848
C124	C	1.989924	-0.404387	1.158848
C125	C	1.398360	-0.634024	0.472561
C126	C	1.648360	-0.384024	0.722561
C127	C	1.898360	-0.134024	0.972561
C128	C	2.148360	0.115976	1.222561
C129	C	1.490789	-0.640328	0.477253
C130	C	1.740789	-0.390328	0.727253
C131	C	1.990789	-0.140328	0.977253
C132	C	2.240789	0.109672	1.227253
C133	C	1.170517	-0.632495	0.678446
C134	C	1.420517	-0.382495	0.928446
C135	C	1.670517	-0.132495	1.178446
C136	C	1.920517	0.117505	1.428446
C137	C	1.165853	-0.638148	0.770874
C138	C	1.415853	-0.388148	1.020874
C139	C	1.665853	-0.138148	1.270874
C140	C	1.915853	0.111852	1.520874
C141	C	1.181539	-0.341615	0.461582
C142	C	1.431539	-0.091615	0.711582
C143	C	1.681539	0.158385	0.961582
C144	C	1.931539	0.408385	1.211582
C145	C	1.181572	-0.223313	0.461595
C146	C	1.431572	0.026687	0.711595
C147	C	1.681572	0.276687	0.961595
C148	C	1.931572	0.526687	1.211595
C149	C	1.192414	-0.605942	0.245502
C150	C	1.442414	-0.355942	0.495502
C151	C	1.692414	-0.105942	0.745502
C152	C	1.942414	0.144058	0.995502
C153	C	1.197240	-0.600000	0.153083
C154	C	1.447240	-0.350000	0.403083
C155	C	1.697240	-0.100000	0.653083
C156	C	1.947240	0.150000	0.903083
C157	C	1.157306	-0.648443	0.940100
C158	C	1.407306	-0.398443	1.190100
C159	C	1.657306	-0.148443	1.440100
C160	C	1.907306	0.101557	1.690100
C161	C	1.205784	-0.589708	0.983863
C162	C	1.455784	-0.339708	1.233863
C163	C	1.705784	-0.089708	1.483863
C164	C	1.955784	0.160292	1.733863
C165	C	1.201029	-0.595436	1.078026
C166	C	1.451029	-0.345436	1.328026
C167	C	1.701029	-0.095436	1.578026
C168	C	1.951029	0.154564	1.828026
C169	C	1.162061	-0.642716	0.845928
C170	C	1.412061	-0.392716	1.095928
C171	C	1.662061	-0.142716	1.345928
C172	C	1.912061	0.107284	1.595928
H173	H	0.693293	-0.712326	0.530755
H174	H	0.943293	-0.462326	0.780755
H175	H	1.193293	-0.212326	1.030755
H176	H	1.443293	0.037674	1.280755
H177	H	0.670473	-0.526218	0.392412
H178	H	0.920473	-0.276218	0.642412
H179	H	1.170473	-0.026218	0.892412
H180	H	1.420473	0.223782	1.142412
H181	H	1.073662	-1.051620	0.558754
H182	H	1.323662	-0.801620	0.808754
H183	H	1.573662	-0.551620	1.058754
H184	H	1.823662	-0.301620	1.308754
Br185	Br	1.082185	-0.739423	0.995518
Br186	Br	1.332185	-0.489423	1.245518
Br187	Br	1.582185	-0.239423	1.495518
Br188	Br	1.832185	0.010577	1.745518
Br189	Br	1.322275	-1.206302	0.334509
Br190	Br	1.572275	-0.956302	0.584509
Br191	Br	1.822275	-0.706302	0.834509
Br192	Br	2.072275	-0.456302	1.084509
Br193	Br	1.001272	-1.190729	0.403200
Br194	Br	1.251272	-0.940729	0.653200
Br195	Br	1.501272	-0.690729	0.903200
Br196	Br	1.751272	-0.440729	1.153200
H197	H	1.151036	-1.041305	0.319560
H198	H	1.401036	-0.791305	0.569560
H199	H	1.651036	-0.541305	0.819560
H200	H	1.901036	-0.291305	1.069560
H201	H	1.319532	-1.063819	0.506317
H202	H	1.569532	-0.813819	0.756317
H203	H	1.819532	-0.563819	1.006317
H204	H	2.069532	-0.313819	1.256317
H205	H	1.211849	-1.196211	0.603528
H206	H	1.461849	-0.946211	0.853528
H207	H	1.711849	-0.696211	1.103528
H208	H	1.961849	-0.446211	1.353528
Br209	Br	1.280932	-0.498750	0.928448
Br210	Br	1.530932	-0.248750	1.178448
Br211	Br	1.780932	0.001250	1.428448
Br212	Br	2.030932	0.251250	1.678448
