data_functionalizedCrystal
_audit_creation_method	'MofGen! by Chris Wilmer'
_symmetry_space_group_name_H-M	'P1'
_symmetry_Int_Tables_number	1
_symmetry_cell_setting	triclinic
loop_
_symmetry_equiv_pos_as_xyz
  x,y,z
_cell_length_a	19.805407
_cell_length_b	15.297327
_cell_length_c	19.805383
_cell_angle_alpha	99.584692
_cell_angle_beta	89.935707
_cell_angle_gamma	99.704146
loop_
_atom_site_label
_atom_site_type_symbol
_atom_site_fract_x
_atom_site_fract_y
_atom_site_fract_z
Zn1	Zn	0.988534	-0.358515	-0.429219
Zn2	Zn	1.321867	-0.025181	-0.095886
Zn3	Zn	1.655201	0.308152	0.237447
Zn4	Zn	0.968763	-0.509543	-0.335632
Zn5	Zn	1.302096	-0.176210	-0.002299
Zn6	Zn	1.635430	0.157124	0.331034
Zn7	Zn	0.875229	-0.358726	-0.316075
Zn8	Zn	1.208562	-0.025393	0.017259
Zn9	Zn	1.541896	0.307940	0.350592
Zn10	Zn	0.855750	-0.509294	-0.448751
Zn11	Zn	1.189084	-0.175961	-0.115417
Zn12	Zn	1.522417	0.157373	0.217916
O13	O	0.922069	-0.434020	-0.382419
O14	O	1.255402	-0.100686	-0.049086
O15	O	1.588736	0.232647	0.284248
O16	O	1.080626	-0.378564	-0.416816
O17	O	1.413959	-0.045231	-0.083483
O18	O	1.747292	0.288102	0.249851
O19	O	0.956233	-0.489730	-0.238346
O20	O	1.289566	-0.156397	0.094987
O21	O	1.622900	0.176937	0.428321
O22	O	0.906685	-0.232479	-0.314725
O23	O	1.240019	0.100854	0.018609
O24	O	1.573352	0.434187	0.351942
O25	O	1.066100	-0.489524	-0.348058
O26	O	1.399433	-0.156191	-0.014725
O27	O	1.732767	0.177142	0.318609
O28	O	0.989930	-0.232324	-0.397852
O29	O	1.323263	0.101010	-0.064518
O30	O	1.656597	0.434343	0.268815
O31	O	0.887514	-0.378926	-0.223977
O32	O	1.220848	-0.045592	0.109356
O33	O	1.554181	0.287741	0.442690
O34	O	0.777931	-0.378684	-0.333663
O35	O	1.111264	-0.045351	-0.000330
O36	O	1.444597	0.287983	0.333003
O37	O	0.873487	-0.489100	-0.540851
O38	O	1.206820	-0.155766	-0.207518
O39	O	1.540153	0.177567	0.125815
O40	O	0.763620	-0.489305	-0.431140
O41	O	1.096953	-0.155972	-0.097806
O42	O	1.430286	0.177361	0.235527
O43	O	0.971042	-0.378323	-0.526502
O44	O	1.304375	-0.044989	-0.193169
O45	O	1.637709	0.288344	0.140165
O46	O	0.937345	-0.635729	-0.366996
O47	O	1.270679	-0.302396	-0.033663
O48	O	1.604012	0.030938	0.299670
O49	O	0.854316	-0.635546	-0.450104
O50	O	1.187649	-0.302213	-0.116771
O51	O	1.520982	0.031121	0.216563
C52	C	0.746217	-0.433991	-0.382399
C53	C	1.079550	-0.100658	-0.049066
C54	C	1.412883	0.232675	0.284268
C55	C	0.670983	-0.434001	-0.382409
C56	C	1.004317	-0.100668	-0.049076
C57	C	1.337650	0.232666	0.284257
C58	C	0.643190	-0.376326	-0.418291
C59	C	0.976524	-0.042993	-0.084957
C60	C	1.309857	0.290341	0.248376
C61	C	0.572501	-0.376331	-0.418294
C62	C	0.905835	-0.042997	-0.084961
C63	C	1.239168	0.290336	0.248373
C64	C	0.529606	-0.434016	-0.382419
C65	C	0.862939	-0.100682	-0.049086
C66	C	1.196273	0.232651	0.284247
C67	C	0.557404	-0.491693	-0.346534
C68	C	0.890737	-0.158360	-0.013200
C69	C	1.224070	0.174974	0.320133
C70	C	0.628092	-0.491683	-0.346527
C71	C	0.961426	-0.158350	-0.013193
C72	C	1.294759	0.174984	0.320140
C73	C	0.272325	-0.491734	-0.346560
C74	C	0.605659	-0.158400	-0.013226
C75	C	0.938992	0.174933	0.320107
C76	C	0.201632	-0.491741	-0.346571
C77	C	0.534965	-0.158408	-0.013238
C78	C	0.868299	0.174926	0.320096
C79	C	0.216734	-0.376381	-0.418327
C80	C	0.550068	-0.043048	-0.084993
C81	C	0.883401	0.290285	0.248340
C82	C	0.287423	-0.376371	-0.418320
C83	C	0.620756	-0.043038	-0.084987
C84	C	0.954089	0.290295	0.248347
C85	C	0.315215	-0.434045	-0.382431
C86	C	0.648548	-0.100712	-0.049098
C87	C	0.981881	0.232622	0.284235
C88	C	0.391864	-0.434038	-0.382427
C89	C	0.725197	-0.100705	-0.049094
C90	C	1.058531	0.232629	0.284239
C91	C	0.452957	-0.434028	-0.382427
C92	C	0.786291	-0.100695	-0.049094
C93	C	1.119624	0.232639	0.284240
C94	C	0.891590	-0.668365	-0.412807
C95	C	1.224923	-0.335031	-0.079473
C96	C	1.558256	-0.001698	0.253860
C97	C	0.878612	-0.768618	-0.425829
C98	C	1.211946	-0.435285	-0.092496
C99	C	1.545279	-0.101952	0.240837
C100	C	1.015099	-1.051473	-0.289576
C101	C	1.348432	-0.718139	0.043757
C102	C	1.681765	-0.384806	0.377091
C103	C	1.027291	-0.957279	-0.277337
C104	C	1.360624	-0.623946	0.055996
C105	C	1.693958	-0.290613	0.389329
C106	C	0.990123	-0.910109	-0.314459
C107	C	1.323456	-0.576776	0.018874
C108	C	1.656789	-0.243443	0.352207
C109	C	0.940759	-0.957142	-0.363822
C110	C	1.274093	-0.623809	-0.030489
C111	C	1.607426	-0.290476	0.302845
C112	C	0.928562	-1.051345	-0.376058
C113	C	1.261895	-0.718012	-0.042725
C114	C	1.595229	-0.384678	0.290609
C115	C	0.903586	-0.909982	-0.400941
C116	C	1.236919	-0.576648	-0.067608
C117	C	1.570253	-0.243315	0.265725
C118	C	0.854223	-0.957014	-0.450304
C119	C	1.187556	-0.623681	-0.116971
C120	C	1.520889	-0.290348	0.216363
C121	C	0.842028	-1.051208	-0.462538
C122	C	1.175361	-0.717874	-0.129205
C123	C	1.508695	-0.384541	0.204128
C124	C	0.879196	-1.098378	-0.425416
C125	C	1.212530	-0.765044	-0.092083
C126	C	1.545863	-0.431711	0.241250
C127	C	0.915783	-0.815779	-0.388705
C128	C	1.249117	-0.482446	-0.055372
C129	C	1.582450	-0.149112	0.277961
C130	C	0.829247	-0.815651	-0.475187
C131	C	1.162580	-0.482318	-0.141854
C132	C	1.495913	-0.148984	0.191479
C133	C	0.817054	-0.909845	-0.487426
C134	C	1.150388	-0.576511	-0.154093
C135	C	1.483721	-0.243178	0.179240
C136	C	1.098608	-0.434048	-0.382440
C137	C	1.431941	-0.100715	-0.049106
C138	C	1.765275	0.232618	0.284227
C139	C	1.173838	-0.434061	-0.382449
C140	C	1.507172	-0.100728	-0.049115
C141	C	1.840505	0.232606	0.284218
C142	C	0.922297	-0.433660	-0.558916
C143	C	1.255630	-0.100327	-0.225582
C144	C	1.588964	0.233007	0.107751
C145	C	0.922394	-0.433507	-0.634128
C146	C	1.255727	-0.100173	-0.300795
C147	C	1.589061	0.233160	0.032539
C148	C	0.952686	-0.198759	-0.351928
C149	C	1.286019	0.134574	-0.018594
C150	C	1.619353	0.467907	0.314739
C151	C	0.965733	-0.098505	-0.338934
C152	C	1.299066	0.234828	-0.005601
C153	C	1.632400	0.568161	0.327732
C154	C	0.921889	-0.434313	-0.206601
C155	C	1.255223	-0.100979	0.126733
C156	C	1.588556	0.232354	0.460066
C157	C	0.921956	-0.434212	-0.131356
C158	C	1.255290	-0.100879	0.201978
C159	C	1.588623	0.232455	0.535311
C160	C	0.871458	-0.492256	-0.103346
C161	C	1.204792	-0.158923	0.229987
C162	C	1.538125	0.174411	0.563320
C163	C	0.871518	-0.492153	-0.032645
C164	C	1.204851	-0.158820	0.300688
C165	C	1.538185	0.174513	0.634022
C166	C	0.922079	-0.434010	0.010046
C167	C	1.255413	-0.100677	0.343379
C168	C	1.588746	0.232656	0.676712
C169	C	0.972580	-0.375960	-0.017968
C170	C	1.305913	-0.042626	0.315365
C171	C	1.639247	0.290707	0.648699
C172	C	0.972517	-0.376058	-0.088668
C173	C	1.305850	-0.042725	0.244666
C174	C	1.639183	0.290608	0.577999
C175	C	0.972835	-0.375559	0.267157
C176	C	1.306169	-0.042225	0.600490
C177	C	1.639502	0.291108	0.933823
C178	C	0.972896	-0.375466	0.337861
C179	C	1.306229	-0.042133	0.671194
C180	C	1.639562	0.291200	1.004527
C181	C	0.871836	-0.491654	0.323180
C182	C	1.205170	-0.158320	0.656513
C183	C	1.538503	0.175013	0.989846
C184	C	0.871773	-0.491752	0.252480
C185	C	1.205107	-0.158419	0.585813
C186	C	1.538440	0.174914	0.919146
C187	C	0.922272	-0.433699	0.224473
C188	C	1.255605	-0.100366	0.557806
C189	C	1.588938	0.232968	0.891140
C190	C	0.922205	-0.433810	0.147810
C191	C	1.255539	-0.100476	0.481144
C192	C	1.588872	0.232857	0.814477
C193	C	0.922149	-0.433903	0.086706
C194	C	1.255482	-0.100570	0.420040
C195	C	1.588815	0.232763	0.753373
H196	H	0.650720	-0.538647	-0.317308
H197	H	0.984053	-0.205314	0.016025
H198	H	1.317386	0.128019	0.349359
H199	H	0.322345	-0.329401	-0.447535
H200	H	0.655678	0.003932	-0.114202
H201	H	0.989012	0.337265	0.219131
H202	H	0.798980	-0.777246	-0.505414
H203	H	1.132313	-0.443913	-0.172081
H204	H	1.465646	-0.110579	0.161253
H205	H	1.067482	-0.918989	-0.237146
H206	H	1.400815	-0.585655	0.096187
H207	H	1.734148	-0.252322	0.429521
H208	H	0.830404	-0.539429	-0.009845
H209	H	1.163737	-0.206095	0.323489
H210	H	1.497070	0.127238	0.656822
H211	H	0.776862	-0.948152	-0.527618
H212	H	1.110195	-0.614819	-0.194284
H213	H	1.443529	-0.281485	0.139049
H214	H	1.045352	-1.089887	-0.259352
H215	H	1.378685	-0.756554	0.073981
H216	H	1.712018	-0.423220	0.407314
H217	H	0.194098	-0.329417	-0.447546
H218	H	0.527432	0.003916	-0.114213
H219	H	0.860765	0.337249	0.219121
H220	H	0.830288	-0.539607	-0.138101
H221	H	1.163621	-0.206273	0.195232
H222	H	1.496954	0.127060	0.528565
H223	H	0.869273	-1.175078	-0.435380
H224	H	1.202607	-0.841744	-0.102047
H225	H	1.535940	-0.508411	0.231286
H226	H	0.549876	-0.329368	-0.447514
H227	H	0.883209	0.003966	-0.114180
H228	H	1.216542	0.337299	0.219153
H229	H	0.830603	-0.539102	0.217724
H230	H	1.163936	-0.205768	0.551057
H231	H	1.497270	0.127565	0.884390
H232	H	1.013957	-0.328293	0.244362
H233	H	1.347290	0.005041	0.577695
H234	H	1.680624	0.338374	0.911029
H235	H	0.294944	-0.538696	-0.317338
H236	H	0.628278	-0.205363	0.015996
H237	H	0.961611	0.127971	0.349329
H238	H	0.801825	-1.089499	-0.502725
H239	H	1.135158	-0.756166	-0.169392
H240	H	1.468492	-0.422833	0.163942
H241	H	0.830716	-0.538921	0.345991
H242	H	1.164050	-0.205587	0.679325
H243	H	1.497383	0.127746	1.012658
H244	H	1.014070	-0.328115	0.372619
H245	H	1.347404	0.005219	0.705952
H246	H	1.680737	0.338552	1.039286
H247	H	0.166708	-0.538717	-0.317355
H248	H	0.500041	-0.205384	0.015978
H249	H	0.833374	0.127949	0.349311
H250	H	1.013745	-0.328615	0.016797
H251	H	1.347079	0.004719	0.350130
H252	H	1.680412	0.338052	0.683464
H253	H	1.013636	-0.328790	-0.111471
H254	H	1.346969	0.004544	0.221863
H255	H	1.680302	0.337877	0.555196
H256	H	0.522473	-0.538657	-0.317320
H257	H	0.855807	-0.205323	0.016013
H258	H	1.189140	0.128010	0.349347
H259	H	0.678111	-0.329355	-0.447506
H260	H	1.011444	0.003979	-0.114173
H261	H	1.344778	0.337312	0.219161
H262	H	0.955975	-0.777493	-0.348514
H263	H	1.289309	-0.444160	-0.015180
H264	H	1.622642	-0.110827	0.318153
H265	H	1.000052	-0.833413	-0.304491
H266	H	1.333385	-0.500080	0.028843
H267	H	1.666719	-0.166746	0.362176
