data_functionalizedCrystal
_audit_creation_method	'MofGen! by Chris Wilmer'
_symmetry_space_group_name_H-M	'P1'
_symmetry_Int_Tables_number	1
_symmetry_cell_setting	triclinic
loop_
_symmetry_equiv_pos_as_xyz
  x,y,z
_cell_length_a	6.817900
_cell_length_b	16.256208
_cell_length_c	16.255661
_cell_angle_alpha	95.350611
_cell_angle_beta	103.488922
_cell_angle_gamma	103.499088
loop_
_atom_site_label
_atom_site_type_symbol
_atom_site_fract_x
_atom_site_fract_y
_atom_site_fract_z
V1	V	-4.026770	-0.117778	-0.264174
O2	O	-4.014188	0.004956	-0.258835
O3	O	-3.978378	-0.232858	-0.262666
O4	O	-3.978331	-0.116275	-0.379254
O5	O	-4.014235	-0.112433	-0.141440
V6	V	-4.510402	-0.103061	-0.249458
O7	O	-4.287789	-0.150061	-0.296455
O8	O	-4.699579	-0.070778	-0.217177
O9	O	-4.335587	0.012018	-0.250966
O10	O	-4.640380	-0.225796	-0.254797
O11	O	-4.640333	-0.108406	-0.372192
O12	O	-4.335634	-0.104564	-0.134379
C13	C	-3.823382	-0.260902	-0.258575
C14	C	-3.865103	-0.354983	-0.258109
C15	C	-4.180993	-0.643087	-0.261101
C16	C	-4.024588	-0.573415	-0.189040
C17	C	-4.015127	-0.693616	-0.256396
C18	C	-4.097310	-0.595653	-0.329275
C19	C	-3.941426	-0.527235	-0.257239
C20	C	-3.859240	-0.625174	-0.184270
C21	C	-3.932023	-0.647427	-0.324568
C22	C	-3.775481	-0.577774	-0.252486
C23	C	-4.057590	-0.789464	-0.255909
C24	C	-3.898947	-0.431387	-0.257719
C25	C	-3.823321	-0.112188	-0.407294
C26	C	-3.865001	-0.111721	-0.501374
C27	C	-3.775555	-0.106138	-0.724178
C28	C	-3.932006	-0.178197	-0.793840
C29	C	-3.941385	-0.110845	-0.673620
C30	C	-3.859223	-0.037961	-0.771594
C31	C	-4.015152	-0.109994	-0.840001
C32	C	-4.097318	-0.182968	-0.742052
C33	C	-4.024473	-0.042668	-0.719790
C34	C	-4.181062	-0.114748	-0.789432
C35	C	-3.898884	-0.111335	-0.577772
C36	C	-4.057670	-0.109510	-0.935849
C37	C	-4.153925	0.040058	-0.255055
C38	C	-4.091442	0.134138	-0.255526
C39	C	-4.153986	-0.108654	-0.106334
C40	C	-4.091545	-0.109117	-0.012253
H41	H	-4.063276	-0.541196	-0.131743
C42	C	-3.853565	-0.687826	-0.055980
C43	C	-3.723931	-0.643114	-0.101444
H44	H	-3.770035	-0.698897	-0.004843
H45	H	-3.936743	-0.740503	-0.090249
H46	H	-3.941810	-0.654394	-0.042000
H47	H	-3.635696	-0.676549	-0.115429
H48	H	-3.640717	-0.590429	-0.067167
H49	H	-4.352750	-0.671603	-0.264649
C50	C	-4.060054	-0.307060	-0.896873
C51	C	-3.879850	-0.255545	-0.837365
H52	H	-4.027842	-0.354811	-0.923736
H53	H	-4.109792	-0.274653	-0.938921
H54	H	-4.164730	-0.326664	-0.868313
H55	H	-3.775179	-0.235936	-0.865926
H56	H	-3.830083	-0.287957	-0.795310
C57	C	-3.418863	-0.554013	-0.171609
C58	C	-3.543462	-0.539452	-0.247547
H59	H	-3.275627	-0.530348	-0.168557
H60	H	-3.444023	-0.613880	-0.170817
H61	H	-3.452419	-0.527673	-0.123952
H62	H	-3.509916	-0.565798	-0.295205
H63	H	-3.518289	-0.479574	-0.248347
H64	H	-3.893415	-0.679666	-0.381870
C65	C	-4.192011	-0.265513	-0.635549
C66	C	-4.232639	-0.265793	-0.724094
H67	H	-4.275537	-0.316648	-0.624464
H68	H	-4.224547	-0.217440	-0.609507
H69	H	-4.048397	-0.262273	-0.612631
H70	H	-4.376252	-0.269026	-0.747012
H71	H	-4.200119	-0.313878	-0.750147
H72	H	-4.197564	-0.582244	-0.390559
H73	H	-3.603799	-0.102591	-0.695688
C74	C	-4.516693	-0.123868	-0.762685
C75	C	-4.413081	-0.119686	-0.827720
H76	H	-4.659933	-0.126926	-0.786327
H77	H	-4.454706	-0.074174	-0.720585
H78	H	-4.505736	-0.173352	-0.737048
H79	H	-4.424024	-0.070199	-0.853353
H80	H	-4.475087	-0.169386	-0.869835
H81	H	-4.063040	0.014633	-0.687534
C82	C	-3.512187	0.049118	-0.756620
C83	C	-3.723884	0.044775	-0.789707
H84	H	-3.428630	0.100197	-0.767796
H85	H	-3.480728	0.000966	-0.783063
H86	H	-3.483630	0.049152	-0.696555
H87	H	-3.752446	0.044735	-0.849773
H88	H	-3.755356	0.092940	-0.763266
