data_functionalizedCrystal
_audit_creation_method	'MofGen! by Chris Wilmer'
_symmetry_space_group_name_H-M	'P1'
_symmetry_Int_Tables_number	1
_symmetry_cell_setting	triclinic
loop_
_symmetry_equiv_pos_as_xyz
  x,y,z
_cell_length_a	18.101398
_cell_length_b	21.295417
_cell_length_c	18.101398
_cell_angle_alpha	90.004117
_cell_angle_beta	90.012704
_cell_angle_gamma	90.025773
loop_
_atom_site_label
_atom_site_type_symbol
_atom_site_fract_x
_atom_site_fract_y
_atom_site_fract_z
Zn1	Zn	1.132039	-0.250869	0.418817
Zn2	Zn	1.131961	-0.356089	0.294967
Zn3	Zn	1.008223	-0.250829	0.294978
Zn4	Zn	1.008150	-0.356096	0.418755
O5	O	1.070093	-0.303471	0.356879
O6	O	1.235662	-0.264841	0.402409
O7	O	1.115545	-0.342106	0.191335
O8	O	1.024711	-0.162745	0.311437
O9	O	1.235605	-0.342145	0.311417
O10	O	1.115678	-0.162775	0.402420
O11	O	1.024635	-0.264772	0.191344
O12	O	0.904581	-0.264779	0.311377
O13	O	1.024586	-0.342157	0.522396
O14	O	0.904527	-0.342118	0.402315
O15	O	1.115607	-0.264848	0.522442
O16	O	1.115474	-0.444179	0.311357
O17	O	1.024511	-0.444184	0.402304
C18	C	0.877683	-0.303445	0.356841
C19	C	0.795369	-0.303449	0.356842
C20	C	0.496278	-0.303489	0.356904
C21	C	0.527612	-0.254586	0.299967
C22	C	0.613230	-0.254717	0.299724
C23	C	0.644660	-0.303469	0.356873
C24	C	0.613547	-0.369771	0.335543
C25	C	0.527902	-0.369499	0.335147
C26	C	0.527876	-0.286666	0.435305
C27	C	0.613527	-0.285189	0.434877
C28	C	0.728520	-0.303461	0.356857
C29	C	0.412418	-0.303500	0.356918
C30	C	1.069996	-0.467022	0.356838
C31	C	1.070023	-0.536991	0.356846
C32	C	1.117429	-0.569834	0.309538
C33	C	1.117464	-0.635576	0.309555
C34	C	1.070079	-0.668473	0.356871
C35	C	1.022669	-0.635622	0.404188
C36	C	1.022640	-0.569881	0.404175
N37	N	1.005293	-0.771737	0.362504
N38	N	1.005322	-0.834188	0.362512
C39	C	1.070162	-0.866548	0.356914
N40	N	1.134973	-0.834097	0.351293
N41	N	1.134943	-0.771640	0.351281
C42	C	1.070104	-0.739758	0.356891
C43	C	1.117610	-0.970676	0.309622
C44	C	1.117646	-1.036420	0.309643
C45	C	1.022844	-1.036465	0.404273
C46	C	1.022815	-0.970722	0.404255
C47	C	1.070197	-0.937832	0.356925
C48	C	1.263255	-0.303497	0.356919
C49	C	1.345569	-0.303508	0.356935
C50	C	1.070097	-0.303508	0.550041
C51	C	1.070098	-0.303523	0.632355
C52	C	1.070211	-0.139281	0.356937
C53	C	1.070261	-0.069312	0.356961
C54	C	1.070081	-0.303487	0.931446
C55	C	1.012622	-0.351965	0.900092
C56	C	1.012795	-0.352167	0.814474
C57	C	1.070089	-0.303505	0.783064
C58	C	1.148108	-0.321526	0.814168
C59	C	1.147771	-0.321868	0.899813
C60	C	1.050205	-0.236872	0.899876
C61	C	1.048486	-0.237234	0.814225
C62	C	1.070098	-0.303514	0.699204
C63	C	1.070077	-0.303480	1.015306
C64	C	1.070081	-0.303457	1.164469
C65	C	1.070071	-0.303469	1.082155
H66	H	0.506075	-0.265579	0.242211
O67	O	1.163707	-0.938820	0.263628
C68	C	1.205550	-0.981909	0.221866
H69	H	1.208115	-1.028762	0.252214
H70	H	1.178476	-0.988936	0.165596
C71	C	1.281212	-0.898649	0.173986
C72	C	1.284368	-0.956194	0.211264
H73	H	1.329830	-0.882787	0.167443
H74	H	1.253020	-0.869619	0.202120
H75	H	1.258647	-0.904513	0.127099
H76	H	1.306924	-0.950328	0.258153
H77	H	1.312566	-0.985223	0.183138
O78	O	1.167772	-0.379957	0.923747
C79	C	1.110183	-0.405861	0.966433
H80	H	1.074206	-0.366457	0.989262
H81	H	1.075141	-0.438141	0.930399
C82	C	1.187399	-0.492177	1.002858
C83	C	1.143215	-0.443780	1.030902
H84	H	1.207773	-0.515569	1.042624
H85	H	1.226198	-0.474726	0.974098
H86	H	1.158190	-0.519070	0.972831
H87	H	1.172426	-0.416883	1.060921
H88	H	1.104422	-0.461226	1.059669
H89	H	0.633696	-0.265836	0.241630
O90	O	1.163839	-1.068326	0.263826
C91	C	1.211644	-1.106280	0.306095
H92	H	1.216074	-1.086451	0.364429
H93	H	1.188828	-1.156141	0.308605
C94	C	1.283261	-1.131525	0.198432
C95	C	1.288706	-1.107167	0.270077
H96	H	1.330795	-1.132075	0.176213
H97	H	1.251052	-1.105956	0.169954
H98	H	1.264244	-1.173073	0.200534
H99	H	1.307713	-1.065617	0.267974
H100	H	1.320920	-1.132729	0.298554
O101	O	0.637864	-0.414476	0.383356
C102	C	0.678405	-0.460225	0.344313
H103	H	0.661088	-0.459800	0.283761
H104	H	0.739921	-0.449334	0.348677
C105	C	0.684253	-0.526006	0.451936
C106	C	0.662979	-0.525488	0.377566
H107	H	0.674742	-0.566263	0.472450
H108	H	0.656943	-0.495183	0.478241
H109	H	0.735516	-0.516927	0.455563
H110	H	0.611716	-0.534558	0.373942
H111	H	0.690281	-0.556314	0.351261
O112	O	0.976515	-0.538071	0.450153
C113	C	0.934713	-0.581200	0.491938
H114	H	0.932193	-0.628072	0.461615
H115	H	0.961793	-0.588159	0.548211
C116	C	0.858971	-0.498027	0.539772
C117	C	0.855870	-0.555594	0.502525
H118	H	0.810338	-0.482231	0.546306
H119	H	0.887135	-0.468969	0.511623
H120	H	0.881541	-0.503833	0.586662
H121	H	0.833309	-0.549785	0.455632
H122	H	0.827700	-0.584650	0.530666
O123	O	0.976840	-1.068510	0.450170
C124	C	0.987046	-1.133578	0.440055
H125	H	1.011346	-1.142554	0.382928
H126	H	1.026460	-1.152195	0.484024
C127	C	0.882280	-1.156360	0.516942
C128	C	0.912120	-1.167384	0.446776
H129	H	0.836064	-1.177214	0.521091
H130	H	0.875405	-1.112522	0.523760
H131	H	0.915132	-1.171874	0.553576
H132	H	0.879273	-1.151863	0.410145
H133	H	0.918988	-1.211220	0.439953
H134	H	0.507902	-0.383769	0.277832
O135	O	1.100025	-0.193706	0.924100
C136	C	1.063175	-0.146880	0.964992
H137	H	1.002560	-0.145416	0.947980
H138	H	1.067373	-0.158030	1.026448
C139	C	1.173579	-0.084445	0.970519
C140	C	1.099132	-0.082643	0.949620
H141	H	1.195761	-0.044821	0.961041
H142	H	1.198407	-0.115994	0.942972
H143	H	1.177068	-0.093739	1.021732
H144	H	1.095645	-0.073358	0.898407
H145	H	1.074304	-0.051092	0.977158
O146	O	0.639243	-0.387052	0.267943
C147	C	0.717058	-0.389602	0.269599
H148	H	0.738509	-0.358570	0.316232
H149	H	0.735558	-0.440106	0.279248
C150	C	0.721744	-0.404197	0.138106
C151	C	0.748091	-0.366079	0.195378
H152	H	0.740888	-0.389690	0.092322
H153	H	0.669319	-0.402482	0.136990
H154	H	0.737163	-0.446281	0.146157
H155	H	0.732664	-0.323997	0.187332
H156	H	0.800515	-0.367786	0.196491
O157	O	0.976686	-0.938912	0.450226
C158	C	0.934881	-0.982042	0.492006
H159	H	0.932363	-1.028914	0.461681
H160	H	0.961956	-0.989002	0.548281
C161	C	0.859134	-0.898870	0.539837
C162	C	0.856037	-0.956437	0.502587
H163	H	0.810501	-0.883075	0.546367
H164	H	0.887301	-0.869812	0.511691
H165	H	0.881701	-0.904678	0.586728
H166	H	0.833480	-0.950627	0.455693
H167	H	0.827865	-0.985494	0.530726
O168	O	0.503249	-0.414398	0.382553
C169	C	0.529385	-0.401395	0.454325
H170	H	0.580981	-0.370838	0.450678
H171	H	0.484866	-0.375530	0.486838
C172	C	0.485003	-0.500939	0.498212
C173	C	0.548378	-0.463413	0.493732
H174	H	0.496715	-0.539194	0.522522
H175	H	0.467392	-0.509699	0.449858
H176	H	0.447910	-0.479378	0.525304
H177	H	0.585465	-0.484971	0.466633
H178	H	0.565995	-0.454658	0.542083
H179	H	1.025614	-0.401040	0.921614
H180	H	0.954585	-0.340814	0.920679
O181	O	1.094691	-0.191756	0.788765
C182	C	1.073312	-0.133180	0.818086
H183	H	1.012583	-0.135032	0.834610
H184	H	1.108408	-0.122049	0.868729
C185	C	1.159174	-0.079452	0.739088
C186	C	1.084583	-0.081725	0.759377
H187	H	1.166130	-0.047711	0.702876
H188	H	1.173580	-0.118916	0.719336
H189	H	1.188412	-0.070178	0.781296
H190	H	1.055348	-0.091006	0.717172
H191	H	1.070173	-0.042261	0.779122
O192	O	0.502096	-0.229972	0.458318
C193	C	0.455026	-0.204640	0.403885
H194	H	0.468779	-0.226320	0.347973
H195	H	0.395141	-0.215515	0.418612
C196	C	0.449036	-0.106366	0.468729
C197	C	0.465932	-0.132990	0.400056
H198	H	0.455760	-0.062168	0.466369
H199	H	0.480745	-0.123433	0.505403
H200	H	0.399132	-0.115435	0.480994
H201	H	0.515838	-0.123927	0.387797
H202	H	0.434231	-0.115920	0.363379
H203	H	0.633867	-0.236398	0.450961
H204	H	0.634267	-0.205550	0.313095
O205	O	0.503036	-0.195736	0.315614
C206	C	0.462691	-0.172320	0.254949
H207	H	0.480329	-0.197955	0.202557
H208	H	0.401155	-0.180135	0.264731
C209	C	0.456254	-0.070070	0.310588
C210	C	0.477922	-0.101552	0.246239
H211	H	0.465646	-0.026417	0.305216
H212	H	0.483432	-0.085846	0.351461
H213	H	0.404975	-0.076589	0.318733
H214	H	0.529201	-0.095039	0.238100
H215	H	0.450753	-0.085773	0.205364
O216	O	0.639087	-0.324662	0.488107
C217	C	0.685937	-0.369866	0.455836
H218	H	0.672182	-0.374732	0.394642
H219	H	0.745900	-0.354410	0.462283
C220	C	0.691585	-0.427572	0.569701
C221	C	0.674687	-0.433553	0.494542
H222	H	0.684649	-0.466857	0.593578
H223	H	0.660024	-0.397117	0.591444
H224	H	0.741554	-0.414690	0.575063
H225	H	0.624717	-0.446427	0.489182
H226	H	0.706240	-0.464012	0.472800
O227	O	1.168445	-0.379010	0.788549
C228	C	1.112345	-0.403059	0.742483
H229	H	1.057544	-0.379700	0.756846
H230	H	1.126628	-0.392990	0.682301
C231	C	1.173103	-0.503174	0.736418
C232	C	1.105794	-0.474488	0.754063
H233	H	1.169063	-0.547236	0.743558
H234	H	1.210900	-0.486972	0.767452
H235	H	1.184998	-0.494777	0.686267
H236	H	1.093905	-0.482879	0.804215
H237	H	1.067995	-0.490694	0.723038
O238	O	0.943735	-0.338815	0.789417
C239	C	0.893760	-0.384488	0.815574
H240	H	0.925095	-0.429391	0.829440
H241	H	0.864982	-0.366202	0.867291
C242	C	0.797231	-0.343270	0.738525
C243	C	0.835717	-0.398423	0.755550
H244	H	0.761425	-0.351864	0.701502
H245	H	0.830899	-0.312498	0.720905
H246	H	0.773256	-0.328037	0.781628
H247	H	0.859698	-0.413650	0.712450
H248	H	0.802052	-0.429198	0.773162
O249	O	0.503791	-0.329115	0.486009
C250	C	0.532441	-0.313568	0.556103
H251	H	0.584532	-0.284059	0.549103
H252	H	0.489520	-0.285646	0.588409
C253	C	0.487371	-0.410408	0.607085
C254	C	0.551353	-0.374169	0.598487
H255	H	0.499034	-0.447789	0.633231
H256	H	0.468066	-0.420882	0.559862
H257	H	0.451610	-0.387132	0.634004
H258	H	0.587110	-0.397441	0.571561
H259	H	0.570665	-0.363700	0.645707
H260	H	1.156012	-0.543056	0.271001
O261	O	1.200626	-0.281662	0.924651
C262	C	1.252322	-0.314942	0.967785
H263	H	1.225601	-0.359588	0.990016
H264	H	1.302078	-0.327825	0.932290
C265	C	1.310497	-0.218748	1.005513
C266	C	1.277675	-0.273580	1.032823
H267	H	1.326140	-0.193234	1.045630
H268	H	1.275670	-0.196326	0.976451
H269	H	1.351956	-0.229492	0.975934
H270	H	1.236212	-0.262836	1.062393
H271	H	1.312496	-0.295999	1.061891
O272	O	1.028366	-0.411066	0.789998
C273	C	0.969119	-0.433357	0.746734
H274	H	0.916502	-0.407098	0.762275
H275	H	0.981808	-0.425284	0.685783
C276	C	1.022960	-0.536336	0.741727
C277	C	0.958334	-0.504088	0.760820
H278	H	1.016309	-0.579967	0.750412
H279	H	1.062878	-0.521318	0.770872
H280	H	1.033528	-0.529602	0.690935
H281	H	0.947772	-0.510817	0.811612
H282	H	0.918414	-0.519109	0.731683
H283	H	1.156071	-0.662322	0.271031
O284	O	0.976740	-0.667644	0.450186
C285	C	1.018883	-0.705623	0.498078
H286	H	1.075030	-0.715438	0.472016
H287	H	1.026967	-0.680272	0.552963
C288	C	0.909192	-0.756041	0.543466
C289	C	0.978150	-0.768100	0.511454
H290	H	0.884065	-0.794579	0.551720
H291	H	0.880799	-0.730452	0.511203
H292	H	0.915938	-0.734913	0.589200
H293	H	0.971402	-0.789220	0.465716
H294	H	1.006541	-0.793694	0.543710
O295	O	1.200482	-0.280678	0.789805
C296	C	1.167261	-0.235053	0.744187
H297	H	1.113412	-0.254423	0.720757
H298	H	1.155231	-0.191067	0.778004
C299	C	1.286100	-0.194676	0.709102
C300	C	1.219965	-0.218469	0.680320
H301	H	1.318611	-0.184444	0.669707
H302	H	1.308483	-0.225413	0.739838
H303	H	1.276065	-0.158024	0.737283
H304	H	1.230000	-0.255125	0.652147
H305	H	1.197586	-0.187738	0.649577
O306	O	0.983479	-0.217404	0.925674
C307	C	0.953734	-0.263717	0.972728
H308	H	0.979298	-0.311207	0.958949
H309	H	0.966510	-0.251186	1.032617
C310	C	0.838050	-0.208754	0.978765
C311	C	0.869445	-0.267084	0.961837
H312	H	0.786056	-0.210830	0.972050
H313	H	0.858091	-0.177551	0.947066
H314	H	0.848704	-0.198318	1.028672
H315	H	0.858798	-0.277515	0.911929
H316	H	0.849400	-0.298289	0.993528
O317	O	0.980038	-0.220908	0.789941
C318	C	0.984680	-0.164868	0.748726
H319	H	1.036451	-0.137928	0.765561
H320	H	0.987514	-0.176574	0.687334
C321	C	0.852403	-0.157320	0.743218
C322	C	0.915986	-0.124229	0.763899
H323	H	0.810028	-0.132252	0.752574
H324	H	0.849275	-0.195077	0.770983
H325	H	0.854775	-0.167073	0.692059
H326	H	0.913618	-0.114483	0.815058
H327	H	0.919112	-0.086469	0.736143
