data_functionalizedCrystal
_audit_creation_method	'MofGen! by Chris Wilmer'
_symmetry_space_group_name_H-M	'P1'
_symmetry_Int_Tables_number	1
_symmetry_cell_setting	triclinic
loop_
_symmetry_equiv_pos_as_xyz
  x,y,z
_cell_length_a	14.519709
_cell_length_b	16.992695
_cell_length_c	15.455313
_cell_angle_alpha	87.152573
_cell_angle_beta	92.680598
_cell_angle_gamma	87.174184
loop_
_atom_site_label
_atom_site_type_symbol
_atom_site_fract_x
_atom_site_fract_y
_atom_site_fract_z
O1	O	-1.235028	-0.099376	-0.072018
O2	O	-0.735028	0.400624	0.427982
O3	O	-0.967421	-0.111480	-0.072044
O4	O	-0.467421	0.388520	0.427956
O5	O	-1.100152	0.008716	-0.072024
O6	O	-0.600152	0.508716	0.427976
O7	O	-1.102298	-0.219572	-0.072038
O8	O	-0.602298	0.280428	0.427962
O9	O	-1.092559	0.001871	0.072237
O10	O	-0.592559	0.501871	0.572237
O11	O	-0.959829	-0.118325	0.072217
O12	O	-0.459829	0.381675	0.572217
O13	O	-1.227436	-0.106221	0.072243
O14	O	-0.727436	0.393779	0.572243
Cu15	Cu	-1.092939	-0.112898	0.085402
Cu16	Cu	-0.592939	0.387102	0.585402
Cu17	Cu	-1.101918	-0.104803	-0.085203
Cu18	Cu	-0.601918	0.395197	0.414797
O19	O	-1.094706	-0.226417	0.072223
O20	O	-0.594706	0.273583	0.572223
C21	C	-1.093595	0.034510	0.000106
C22	C	-0.593595	0.534510	0.500106
C23	C	-1.085360	0.121566	0.000105
C24	C	-0.585360	0.621566	0.500105
C25	C	-0.929225	-0.114338	0.000083
C26	C	-0.429225	0.385662	0.500083
C27	C	-0.826723	-0.112647	0.000073
C28	C	-0.326723	0.387353	0.500073
C29	C	-1.265632	-0.103363	0.000114
C30	C	-0.765632	0.396637	0.500114
C31	C	-1.368134	-0.105053	0.000118
C32	C	-0.868134	0.394947	0.500118
C33	C	-0.451378	-0.106425	0.000113
C34	C	0.048622	0.393575	0.500113
C35	C	-0.555811	-0.108153	0.000101
C36	C	-0.055811	0.391847	0.500101
C37	C	-0.639047	-0.109536	0.000092
C38	C	-0.139047	0.390464	0.500092
C39	C	-0.743487	-0.111264	0.000082
C40	C	-0.243487	0.388736	0.500082
C41	C	-1.101262	-0.252211	0.000091
C42	C	-0.601262	0.247789	0.500091
C43	C	-1.109498	-0.339266	0.000086
C44	C	-0.609498	0.160734	0.500086
N45	N	-1.086631	-0.118591	0.205397
N46	N	-0.586631	0.381409	0.705397
C47	C	-1.164819	0.171694	0.000114
C48	C	-0.664819	0.671694	0.500114
C49	C	-1.157076	0.253492	0.000105
C50	C	-0.657076	0.753492	0.500105
C51	C	-1.069873	0.285159	0.000093
C52	C	-0.569873	0.785159	0.500093
C53	C	-0.990408	0.235025	0.000082
C54	C	-0.490408	0.735025	0.500082
C55	C	-0.998152	0.153229	0.000084
C56	C	-0.498152	0.653229	0.500084
C57	C	-1.037776	0.528803	0.000078
C58	C	-0.537776	1.028803	0.500078
C59	C	-1.030038	0.610605	0.000078
C60	C	-0.530038	1.110605	0.500078
C61	C	-1.196708	0.629067	0.000099
C62	C	-0.696708	1.129067	0.500099
C63	C	-1.204444	0.547269	0.000107
C64	C	-0.704444	1.047269	0.500107
C65	C	-1.124979	0.497141	0.000091
C66	C	-0.624979	0.997141	0.500091
N67	N	-1.061956	0.368770	0.000087
N68	N	-0.561956	0.868770	0.500087
N69	N	-1.132897	0.413533	0.000091
N70	N	-0.632897	0.913533	0.500091
N71	N	-1.108233	-0.099104	-0.205198
N72	N	-0.608233	0.400896	0.294802
C73	C	-1.143042	-0.067546	0.250799
C74	C	-0.643042	0.432454	0.750799
C75	C	-1.138280	-0.071859	0.341606
C76	C	-0.638280	0.428141	0.841606
C77	C	-1.077111	-0.127221	0.387009
C78	C	-0.577111	0.372779	0.887009
C79	C	-1.020694	-0.178268	0.341600
C80	C	-0.520694	0.321732	0.841600
C81	C	-1.025452	-0.173951	0.250795
C82	C	-0.525452	0.326049	0.750795
C83	C	-1.056574	-0.145834	0.658588
C84	C	-0.556574	0.354166	1.158588
C85	C	-1.051822	-0.150148	0.749400
C86	C	-0.551822	0.349852	1.249400
C87	C	-1.169407	-0.043738	0.749399
C88	C	-0.669407	0.456262	1.249399
C89	C	-1.174163	-0.039429	0.658592
C90	C	-0.674163	0.460571	1.158592
C91	C	-1.117743	-0.090473	0.613191
C92	C	-0.617743	0.409527	1.113191
N93	N	-1.072245	-0.131632	0.479829
N94	N	-0.572245	0.368368	0.979829
N95	N	-1.122606	-0.086058	0.520373
N96	N	-0.622606	0.413942	1.020373
H97	H	-1.221781	0.294304	0.000114
H98	H	-0.721781	0.794304	0.500114
H99	H	-1.235830	0.145917	0.000128
H100	H	-0.735830	0.645917	0.500128
O101	O	-0.960650	0.480028	0.000183
O102	O	-0.460650	0.980028	0.500183
C103	C	-0.956196	0.428631	0.074906
C104	C	-0.456196	0.928631	0.574906
H105	H	-1.028397	0.423212	0.099824
H106	H	-0.528397	0.923212	0.599824
H107	H	-0.927257	0.368001	0.058097
H108	H	-0.427257	0.868001	0.558097
H109	H	-0.909333	0.453117	0.127220
H110	H	-0.409333	0.953117	0.627220
H111	H	-0.919405	0.260815	0.000067
H112	H	-0.419405	0.760815	0.500067
O113	O	-1.289124	0.516461	0.000266
O114	O	-0.789124	1.016461	0.500266
C115	C	-1.294645	0.466143	0.074970
C116	C	-0.794645	0.966143	0.574970
H117	H	-1.242278	0.483083	0.127187
H118	H	-0.742278	0.983083	0.627187
H119	H	-1.367118	0.472186	0.100055
H120	H	-0.867118	0.972186	0.600055
H121	H	-1.279006	0.402472	0.058078
H122	H	-0.779006	0.902472	0.558078
H123	H	-1.261404	0.669890	0.000110
H124	H	-0.761404	1.169890	0.500110
O125	O	-1.192949	-0.022200	0.385744
O126	O	-0.692949	0.477800	0.885744
C127	C	-1.137252	0.023772	0.438300
C128	C	-0.637252	0.523772	0.938300
H129	H	-1.065850	0.026540	0.410948
H130	H	-0.565850	0.526540	0.910948
H131	H	-1.170247	0.085980	0.439329
H132	H	-0.670247	0.585980	0.939329
H133	H	-1.130622	-0.004026	0.507118
H134	H	-0.630622	0.495974	1.007118
H135	H	-1.002009	-0.195234	0.786362
H136	H	-0.502009	0.304766	1.286362
H137	H	-0.933447	0.112414	0.000077
H138	H	-0.433447	0.612414	0.500077
H139	H	-1.223972	0.005650	0.621627
H140	H	-0.723972	0.505650	1.121627
O141	O	-0.945255	0.641240	0.000019
O142	O	-0.445255	1.141240	0.500019
C143	C	-0.876776	0.579456	0.000023
C144	C	-0.376776	1.079456	0.500023
H145	H	-0.908162	0.525148	-0.027281
H146	H	-0.408162	1.025148	0.472719
H147	H	-0.818469	0.598622	-0.041875
H148	H	-0.318469	1.098622	0.458125
H149	H	-0.848321	0.564639	0.069226
H150	H	-0.348321	1.064639	0.569226
O151	O	-1.224292	0.005888	0.793368
O152	O	-0.724292	0.505888	1.293368
C153	C	-1.279278	0.055694	0.733822
C154	C	-0.779278	0.555694	1.233822
H155	H	-1.286087	0.026614	0.669089
H156	H	-0.786087	0.526614	1.169089
H157	H	-1.350676	0.066282	0.760053
H158	H	-0.850676	0.566282	1.260053
H159	H	-1.245536	0.114459	0.724173
H160	H	-0.745536	0.614459	1.224173
H161	H	-1.192855	-0.022468	0.213838
H162	H	-0.692855	0.477532	0.713838
O163	O	-1.001738	-0.195502	0.614627
O164	O	-0.501738	0.304498	1.114627
C165	C	-0.946719	-0.245278	0.674176
C166	C	-0.446719	0.254722	1.174176
H167	H	-0.981212	-0.249310	0.738898
H168	H	-0.481212	0.250690	1.238898
H169	H	-0.938632	-0.306631	0.647932
H170	H	-0.438632	0.193369	1.147932
H171	H	-0.875823	-0.220144	0.683851
H172	H	-0.375823	0.279856	1.183851
H173	H	-0.979515	-0.215516	0.213829
H174	H	-0.479515	0.284484	0.713829
H175	H	-0.970885	-0.223342	0.378573
H176	H	-0.470885	0.276658	0.878573
