data_functionalizedCrystal
_audit_creation_method	'MofGen! by Chris Wilmer'
_symmetry_space_group_name_H-M	'P1'
_symmetry_Int_Tables_number	1
_symmetry_cell_setting	triclinic
loop_
_symmetry_equiv_pos_as_xyz
  x,y,z
_cell_length_a	10.686220
_cell_length_b	19.121063
_cell_length_c	10.685880
_cell_angle_alpha	96.950877
_cell_angle_beta	89.641569
_cell_angle_gamma	96.652836
loop_
_atom_site_label
_atom_site_type_symbol
_atom_site_fract_x
_atom_site_fract_y
_atom_site_fract_z
Zn1	Zn	1.956641	-0.220680	-0.580432
Zn2	Zn	1.932645	-0.330611	-0.379675
Zn3	Zn	1.730668	-0.222121	-0.386872
Zn4	Zn	1.737791	-0.348580	-0.606918
O5	O	1.839436	-0.280498	-0.488474
O6	O	2.129575	-0.227140	-0.539705
O7	O	1.892829	-0.309303	-0.204523
O8	O	1.767706	-0.122999	-0.404476
O9	O	2.111945	-0.307906	-0.392210
O10	O	1.933727	-0.121941	-0.546683
O11	O	1.744438	-0.229595	-0.209810
O12	O	1.555496	-0.247019	-0.430158
O13	O	1.779845	-0.338531	-0.779511
O14	O	1.560729	-0.339928	-0.591825
O15	O	1.940633	-0.244563	-0.760052
O16	O	1.899736	-0.431925	-0.417892
O17	O	1.756577	-0.445127	-0.584846
C18	C	1.512447	-0.295580	-0.514647
C19	C	1.372560	-0.302051	-0.525875
C20	C	1.826362	-0.464177	-0.503487
C21	C	1.820886	-0.542752	-0.509942
C22	C	1.892917	-0.572770	-0.426113
C23	C	1.887775	-0.646600	-0.432191
C24	C	1.810596	-0.690411	-0.522093
C25	C	1.738563	-0.660389	-0.605932
C26	C	1.743712	-0.586560	-0.599859
C27	C	1.791323	-0.913671	-0.544781
C28	C	1.786177	-0.987505	-0.550846
C29	C	1.935391	-0.973711	-0.377105
C30	C	1.940528	-0.899881	-0.371035
C31	C	1.868500	-0.869865	-0.454878
C32	C	1.805336	-0.765877	-0.528306
C33	C	1.873768	-0.794400	-0.448670
C34	C	2.167702	-0.265357	-0.462200
C35	C	2.307590	-0.258905	-0.451004
C36	C	1.863710	-0.293391	-0.816721
C37	C	1.874054	-0.298885	-0.956601
C38	C	1.852598	-0.096101	-0.473428
C39	C	1.858207	-0.017522	-0.467016
C40	C	1.815333	-0.267601	-0.161494
C41	C	1.805247	-0.261896	-0.021580
H42	H	1.955758	-0.537103	-0.352899
C43	C	2.025370	-0.851691	-0.272099
H44	H	2.018094	-0.803423	-0.280467
H45	H	2.110459	-0.860550	-0.284753
H46	H	1.999860	-0.861364	-0.190015
H47	H	1.321160	-0.343946	-0.598564
C48	C	1.964339	-0.347344	-1.026002
H49	H	1.959695	-0.344800	-1.114064
H50	H	1.940965	-0.394860	-1.009872
H51	H	2.048071	-0.332256	-0.996903
C52	C	1.714961	-0.213433	-0.952173
H53	H	1.719617	-0.215968	-0.864109
H54	H	1.631234	-0.228511	-0.981272
H55	H	1.738355	-0.165914	-0.968303
H56	H	1.946429	-0.671036	-0.363927
C57	C	1.377005	-0.202311	-0.352806
H58	H	1.317489	-0.176114	-0.307335
H59	H	1.434045	-0.171101	-0.394456
H60	H	1.422296	-0.224808	-0.296028
C61	C	2.014624	-1.006730	-0.284896
H62	H	2.000515	-1.056974	-0.301392
H63	H	1.990867	-0.992185	-0.200800
H64	H	2.101388	-0.991409	-0.295629
H65	H	1.723345	-1.023175	-0.624076
H66	H	1.732673	-0.889238	-0.613047
C67	C	1.653665	-0.708579	-0.704820
H68	H	1.660903	-0.756848	-0.696423
H69	H	1.679110	-0.698927	-0.786926
H70	H	1.568589	-0.699697	-0.692098
H71	H	1.685059	-0.562121	-0.668123
H72	H	1.936612	-0.758727	-0.375476
H73	H	1.742494	-0.801557	-0.601502
