data_functionalizedCrystal
_audit_creation_method	'MofGen! by Chris Wilmer'
_symmetry_space_group_name_H-M	'P1'
_symmetry_Int_Tables_number	1
_symmetry_cell_setting	triclinic
loop_
_symmetry_equiv_pos_as_xyz
  x,y,z
_cell_length_a	19.805407
_cell_length_b	21.295417
_cell_length_c	19.805399
_cell_angle_alpha	89.969157
_cell_angle_beta	89.980427
_cell_angle_gamma	90.030507
loop_
_atom_site_label
_atom_site_type_symbol
_atom_site_fract_x
_atom_site_fract_y
_atom_site_fract_z
Zn1	Zn	1.034716	-0.250624	-0.382704
Zn2	Zn	1.534716	0.249376	0.117296
Zn3	Zn	1.034623	-0.355893	-0.269510
Zn4	Zn	1.534623	0.144107	0.230490
Zn5	Zn	0.921531	-0.250641	-0.269529
Zn6	Zn	1.421531	0.249359	0.230471
Zn7	Zn	0.921486	-0.355859	-0.382656
Zn8	Zn	1.421486	0.144141	0.117344
O9	O	0.978089	-0.303254	-0.326100
O10	O	1.478089	0.196746	0.173900
O11	O	1.129421	-0.264595	-0.367701
O12	O	1.629421	0.235405	0.132299
O13	O	1.019601	-0.341952	-0.174796
O14	O	1.519601	0.158048	0.325204
O15	O	0.936603	-0.162549	-0.284570
O16	O	1.436603	0.337451	0.215430
O17	O	1.129352	-0.341935	-0.284537
O18	O	1.629352	0.158065	0.215463
O19	O	1.019760	-0.162537	-0.367719
O20	O	1.519760	0.337463	0.132281
O21	O	0.936513	-0.264624	-0.174810
O22	O	1.436513	0.235376	0.325190
O23	O	0.826809	-0.264592	-0.284523
O24	O	1.326809	0.235408	0.215477
O25	O	0.936527	-0.341878	-0.477379
O26	O	1.436527	0.158122	0.022621
O27	O	0.826776	-0.341895	-0.367638
O28	O	1.326776	0.158105	0.132362
O29	O	1.019717	-0.264562	-0.477415
O30	O	1.519717	0.235438	0.022585
O31	O	1.019558	-0.443977	-0.284491
O32	O	1.519558	0.056023	0.215509
O33	O	0.936437	-0.443953	-0.367619
O34	O	1.436437	0.056047	0.132381
C35	C	0.802233	-0.303242	-0.326078
C36	C	1.302233	0.196758	0.173922
C37	C	0.727001	-0.303252	-0.326085
C38	C	1.227001	0.196748	0.173915
C39	C	0.691658	-0.343564	-0.369292
C40	C	1.191658	0.156436	0.130708
C41	C	0.620969	-0.343566	-0.369302
C42	C	1.120969	0.156434	0.130698
C43	C	0.585626	-0.303257	-0.326100
C44	C	1.085626	0.196743	0.173900
C45	C	0.620974	-0.262940	-0.282890
C46	C	1.120974	0.237060	0.217110
C47	C	0.691661	-0.262936	-0.282885
C48	C	1.191661	0.237064	0.217115
C49	C	0.335901	-0.262954	-0.282913
C50	C	0.835901	0.237046	0.217087
C51	C	0.265209	-0.262962	-0.282920
C52	C	0.765209	0.237038	0.217080
C53	C	0.265209	-0.343583	-0.369330
C54	C	0.765209	0.156417	0.130670
C55	C	0.335896	-0.343579	-0.369324
C56	C	0.835896	0.156421	0.130676
C57	C	0.371238	-0.303261	-0.326117
C58	C	0.871238	0.196739	0.173883
C59	C	0.447887	-0.303259	-0.326109
C60	C	0.947887	0.196741	0.173891
C61	C	0.508979	-0.303261	-0.326105
C62	C	1.008979	0.196739	0.173895
C63	C	0.978001	-0.466806	-0.326062
C64	C	1.478001	0.033194	0.173938
C65	C	0.978024	-0.536774	-0.326069
C66	C	1.478024	-0.036774	0.173931
C67	C	1.021344	-0.569632	-0.282828
C68	C	1.521344	-0.069632	0.217172
C69	C	1.021376	-0.635375	-0.282844
C70	C	1.521376	-0.135375	0.217156
C71	C	0.978076	-0.668256	-0.326092
C72	C	1.478076	-0.168256	0.173908
C73	C	0.934753	-0.635390	-0.369341
C74	C	1.434753	-0.135390	0.130659
C75	C	0.934728	-0.569649	-0.369330
C76	C	1.434728	-0.069649	0.130670
N77	N	0.918865	-0.771522	-0.331245
N78	N	1.418865	-0.271522	0.168755
N79	N	0.918892	-0.833974	-0.331252
N80	N	1.418892	-0.333974	0.168748
C81	C	0.978152	-0.866331	-0.326131
C82	C	1.478152	-0.366331	0.173869
N83	N	1.037386	-0.833878	-0.320989
N84	N	1.537386	-0.333878	0.179011
N85	N	1.037358	-0.771421	-0.320979
N86	N	1.537358	-0.271421	0.179021
C87	C	0.978099	-0.739542	-0.326110
C88	C	1.478099	-0.239542	0.173890
C89	C	1.021509	-0.970475	-0.282905
C90	C	1.521509	-0.470475	0.217095
C91	C	1.021542	-1.036219	-0.282925
C92	C	1.521542	-0.536219	0.217075
C93	C	0.934914	-1.036233	-0.369419
C94	C	1.434914	-0.536233	0.130581
C95	C	0.934887	-0.970490	-0.369402
C96	C	1.434887	-0.470490	0.130598
C97	C	0.978184	-0.937615	-0.326142
C98	C	1.478184	-0.437615	0.173858
C99	C	1.154632	-0.303267	-0.326122
C100	C	1.654632	0.196733	0.173878
C101	C	1.229864	-0.303272	-0.326132
C102	C	1.729864	0.196728	0.173868
C103	C	0.978127	-0.303214	-0.502643
C104	C	1.478127	0.196786	-0.002643
C105	C	0.978143	-0.303198	-0.577875
C106	C	1.478143	0.196802	-0.077875
C107	C	0.978197	-0.139064	-0.326152
C108	C	1.478197	0.360936	0.173848
C109	C	0.978243	-0.069096	-0.326175
C110	C	1.478243	0.430904	0.173825
C111	C	1.021461	-0.262937	-0.613238
C112	C	1.521461	0.237063	-0.113238
C113	C	1.021468	-0.262919	-0.683927
C114	C	1.521468	0.237081	-0.183927
C115	C	0.978160	-0.303165	-0.719250
C116	C	1.478160	0.196835	-0.219250
C117	C	0.934838	-0.343427	-0.683882
C118	C	1.434838	0.156573	-0.183882
C119	C	0.934828	-0.343442	-0.613195
C120	C	1.434828	0.156558	-0.113195
C121	C	0.934876	-0.343368	-0.968955
C122	C	1.434876	0.156632	-0.468955
C123	C	0.934891	-0.343352	-1.039647
C124	C	1.434891	0.156648	-0.539647
C125	C	1.021516	-0.262846	-1.039687
C126	C	1.521516	0.237154	-0.539687
C127	C	1.021506	-0.262860	-0.969000
C128	C	1.521506	0.237140	-0.469000
C129	C	0.978182	-0.303120	-0.933638
C130	C	1.478182	0.196880	-0.433638
C131	C	0.978174	-0.303138	-0.856989
C132	C	1.478174	0.196862	-0.356989
C133	C	0.978171	-0.303150	-0.795897
C134	C	1.478171	0.196850	-0.295897
C135	C	0.978090	-0.303248	-0.150244
C136	C	1.478090	0.196752	0.349756
C137	C	0.978205	-0.303088	-0.075012
C138	C	1.478205	0.196912	0.424988
H139	H	0.236434	-0.230134	-0.247740
H140	H	0.736434	0.269866	0.252260
H141	H	0.720429	-0.376391	-0.404470
H142	H	1.220429	0.123609	0.095530
H143	H	0.592192	-0.230118	-0.247718
H144	H	1.092192	0.269882	0.252282
C145	C	0.887215	-0.387653	-0.930066
C146	C	1.387215	0.112347	-0.430066
N147	N	0.851314	-0.421009	-0.900772
N148	N	1.351314	0.078991	-0.400772
H149	H	0.899451	-0.542895	-0.404542
H150	H	1.399451	-0.042895	0.095458
C151	C	0.226326	-0.387930	-0.416864
C152	C	0.726326	0.112070	0.083136
N153	N	0.197041	-0.421332	-0.452665
N154	N	0.697041	0.078668	0.047335
C155	C	0.887192	-0.387692	-0.722740
C156	C	1.387192	0.112308	-0.222740
N157	N	0.851304	-0.421033	-0.752008
N158	N	1.351304	0.078967	-0.252008
H159	H	1.056743	-0.230136	-0.712717
H160	H	1.556743	0.269864	-0.212717
H161	H	0.899547	-0.376219	-0.584402
H162	H	1.399547	0.123781	-0.084402
H163	H	1.056791	-0.230062	-1.068488
H164	H	1.556791	0.269938	-0.568488
C165	C	0.374768	-0.218606	-0.235380
C166	C	0.874768	0.281394	0.264620
N167	N	0.404045	-0.185202	-0.199575
N168	N	0.904045	0.314798	0.300425
C169	C	0.730539	-0.218591	-0.235352
C170	C	1.230539	0.281409	0.264648
N171	N	0.759820	-0.185188	-0.199549
N172	N	1.259820	0.314812	0.300451
C173	C	1.069104	-0.218662	-0.574389
C174	C	1.569104	0.281338	-0.074389
N175	N	1.104987	-0.185311	-0.545129
N176	N	1.604987	0.314689	-0.045129
H177	H	1.056767	-0.943707	-0.247681
H178	H	1.556767	-0.443707	0.252319
H179	H	1.056601	-0.542868	-0.247605
H180	H	1.556601	-0.042868	0.252395
H181	H	1.056654	-0.662134	-0.247632
H182	H	1.556654	-0.162134	0.252368
H183	H	0.592196	-0.376393	-0.404485
H184	H	1.092196	0.123607	0.095515
C185	C	1.069199	-1.072363	-0.235353
C186	C	1.569199	-0.572363	0.264647
N187	N	1.105094	-1.099587	-0.199520
N188	N	1.605094	-0.599587	0.300480
C189	C	0.374770	-0.387923	-0.416848
C190	C	0.874770	0.112077	0.083152
N191	N	0.404049	-0.421322	-0.452647
N192	N	0.904049	0.078678	0.047353
C193	C	0.887121	-0.671561	-0.416913
C194	C	1.387121	-0.171561	0.083087
N195	N	0.851243	-0.698805	-0.452745
N196	N	1.351243	-0.198805	0.047255
H197	H	0.899661	-1.063004	-0.404636
H198	H	1.399661	-0.563004	0.095364
C199	C	0.887245	-0.934344	-0.416985
C200	C	1.387245	-0.434344	0.083015
N201	N	0.851366	-0.907119	-0.452834
N202	N	1.351366	-0.407119	0.047166
C203	C	1.069146	-0.218584	-0.930148
C204	C	1.569146	0.281416	-0.430148
N205	N	1.105026	-0.185232	-0.900886
N206	N	1.605026	0.314768	-0.400886
H207	H	0.899621	-0.376126	-1.068406
H208	H	1.399621	0.123874	-0.568406
