data_functionalizedCrystal
_audit_creation_method	'MofGen! by Chris Wilmer'
_symmetry_space_group_name_H-M	'P1'
_symmetry_Int_Tables_number	1
_symmetry_cell_setting	triclinic
loop_
_symmetry_equiv_pos_as_xyz
  x,y,z
_cell_length_a	12.594516
_cell_length_b	14.908783
_cell_length_c	14.908308
_cell_angle_alpha	89.788727
_cell_angle_beta	93.270509
_cell_angle_gamma	93.309297
loop_
_atom_site_label
_atom_site_type_symbol
_atom_site_fract_x
_atom_site_fract_y
_atom_site_fract_z
Zn1	Zn	-0.372278	1.345326	-0.587852
Zn2	Zn	0.127722	1.845326	-0.087852
Zn3	Zn	-0.539464	1.353911	-0.437502
Zn4	Zn	-0.039464	1.853911	0.062498
Zn5	Zn	-0.371126	1.203639	-0.428823
Zn6	Zn	0.128874	1.703639	0.071177
Zn7	Zn	-0.559846	1.194937	-0.579125
Zn8	Zn	-0.059846	1.694937	-0.079125
O9	O	-0.460679	1.274453	-0.508326
O10	O	0.039321	1.774453	-0.008326
O11	O	-0.386408	1.472292	-0.575192
O12	O	0.113592	1.972292	-0.075192
O13	O	-0.508122	1.341212	-0.310527
O14	O	-0.008122	1.841212	0.189473
O15	O	-0.222331	1.222483	-0.449939
O16	O	0.277669	1.722483	0.050061
O17	O	-0.509239	1.478600	-0.464731
O18	O	-0.009239	1.978600	0.035269
O19	O	-0.223178	1.326579	-0.566777
O20	O	0.276822	1.826579	-0.066777
O21	O	-0.384445	1.230808	-0.304151
O22	O	0.115555	1.730808	0.195849
O23	O	-0.404208	1.076657	-0.441477
O24	O	0.095792	1.576657	0.058523
O25	O	-0.543976	1.207652	-0.706107
O26	O	-0.043976	1.707652	-0.206107
O27	O	-0.542859	1.070264	-0.551903
O28	O	-0.042859	1.570264	-0.051903
O29	O	-0.406171	1.318142	-0.712518
O30	O	0.093829	1.818142	-0.212518
O31	O	-0.691116	1.332774	-0.456269
O32	O	-0.191116	1.832774	0.043731
O33	O	-0.706090	1.215977	-0.560319
O34	O	-0.206090	1.715977	-0.060319
C35	C	-0.475621	1.040835	-0.494802
C36	C	0.024379	1.540835	0.005198
C37	C	-0.482041	0.940891	-0.489037
C38	C	0.017959	1.440891	0.010963
C39	C	-0.366399	0.746505	-0.593405
C40	C	0.133601	1.246505	-0.093405
C41	C	-0.372427	0.652598	-0.587992
C42	C	0.127573	1.152598	-0.087992
C43	C	-0.500119	0.659169	-0.472794
C44	C	-0.000119	1.159169	0.027206
C45	C	-0.494091	0.753076	-0.478207
C46	C	0.005909	1.253076	0.021793
C47	C	-0.427230	0.796740	-0.538515
C48	C	0.072770	1.296740	-0.038515
C49	C	-0.421208	0.890648	-0.543933
C50	C	0.078792	1.390648	-0.043933
C51	C	-0.548894	0.897218	-0.428731
C52	C	-0.048894	1.397218	0.071269
C53	C	-0.554922	0.803311	-0.423318
C54	C	-0.054922	1.303311	0.076682
C55	C	-0.737223	1.274386	-0.508310
C56	C	-0.237223	1.774386	-0.008310
C57	C	-0.855527	1.274438	-0.508337
C58	C	-0.355527	1.774438	-0.008337
C59	C	-1.003721	1.210963	-0.564902
C60	C	-0.503721	1.710963	-0.064902
C61	C	-0.929148	1.291663	-0.591699
C62	C	-0.429148	1.791663	-0.091699
C63	C	-0.928531	1.193744	-0.481582
C64	C	-0.428531	1.693744	0.018418
C65	C	-0.991733	1.355324	-0.535221
C66	C	-0.491733	1.855324	-0.035221
C67	C	-0.991122	1.257352	-0.425062
C68	C	-0.491122	1.757352	0.074938
C69	C	-0.916575	1.338111	-0.451831
C70	C	-0.416575	1.838111	0.048169
C71	C	-0.183054	1.274544	-0.508363
C72	C	0.316946	1.774544	-0.008363
C73	C	-0.064747	1.274582	-0.508379
C74	C	0.435253	1.774582	-0.008379
C75	C	-0.477476	1.260969	-0.742849
C76	C	0.022524	1.760969	-0.242849
C77	C	-0.484634	1.255222	-0.842789
C78	C	0.015366	1.755222	-0.342789
C79	C	-0.445679	1.508984	-0.521903
C80	C	0.054321	2.008984	-0.021903
C81	C	-0.439287	1.608927	-0.527689
C82	C	0.060713	2.108927	-0.027689
C83	C	-0.354563	1.359474	-1.037265
C84	C	0.145437	1.859474	-0.537265
C85	C	-0.361285	1.354078	-1.131168
C86	C	0.138715	1.854078	-0.631168
C87	C	-0.504793	1.239029	-1.124499
C88	C	-0.004793	1.739029	-0.624499
C89	C	-0.498071	1.244425	-1.030596
C90	C	0.001929	1.744425	-0.530596
C91	C	-0.422955	1.304651	-0.986983
C92	C	0.077045	1.804651	-0.486983
C93	C	-0.416239	1.310051	-0.893079
C94	C	0.083761	1.810051	-0.393079
C95	C	-0.559741	1.194998	-0.886411
C96	C	-0.059741	1.694998	-0.386411
C97	C	-0.566463	1.189602	-0.980314
C98	C	-0.066463	1.689602	-0.480314
C99	C	-0.443867	1.287937	-0.274718
C100	C	0.056133	1.787937	0.225282
C101	C	-0.436398	1.293858	-0.174788
C102	C	0.063602	1.793858	0.325212
H103	H	-0.366767	0.926198	-0.593040
H104	H	0.133233	1.426198	-0.093040
Br105	Br	-0.275677	0.805767	-0.675260
Br106	Br	0.224323	1.305767	-0.175260
H107	H	-0.598435	0.938130	-0.384043
H108	H	-0.098435	1.438130	0.115957
H109	H	-1.018518	1.242808	-0.354639
H110	H	-0.518518	1.742808	0.145361
Br111	Br	-0.883532	1.315867	-0.709106
Br112	Br	-0.383532	1.815867	-0.209106
Br113	Br	-0.606717	1.157292	-1.183704
Br114	Br	-0.106717	1.657292	-0.683704
Br115	Br	-1.067053	1.121494	-0.644667
Br116	Br	-0.567053	1.621494	-0.144667
Br117	Br	-0.268460	1.428480	-1.199407
Br118	Br	0.231540	1.928480	-0.699407
Br119	Br	-0.314302	1.391789	-0.833889
Br120	Br	0.185698	1.891789	-0.333889
Br121	Br	-0.590834	0.599896	-0.390940
Br122	Br	-0.090834	1.099896	0.109060
Br123	Br	-0.853559	1.427773	-0.372134
Br124	Br	-0.353559	1.927773	0.127866
Br125	Br	-0.645651	0.744045	-0.341470
Br126	Br	-0.145651	1.244045	0.158530
Br127	Br	-0.252638	1.441219	-0.978072
Br128	Br	0.247362	1.941219	-0.478072
H129	H	-1.019492	1.423643	-0.557949
H130	H	-0.519492	1.923643	-0.057949
Br131	Br	-0.882046	1.079903	-0.443834
Br132	Br	-0.382046	1.579903	0.056166
H133	H	-0.627618	1.140566	-1.015837
H134	H	-0.127618	1.640566	-0.515837
H135	H	-0.322890	0.611700	-0.632686
H136	H	0.177110	1.111700	-0.132686
Br137	Br	-0.652579	1.120604	-0.818167
Br138	Br	-0.152579	1.620604	-0.318167
