data_functionalizedCrystal
_audit_creation_method	'MofGen! by Chris Wilmer'
_symmetry_space_group_name_H-M	'P1'
_symmetry_Int_Tables_number	1
_symmetry_cell_setting	triclinic
loop_
_symmetry_equiv_pos_as_xyz
  x,y,z
_cell_length_a	15.944545
_cell_length_b	15.944493
_cell_length_c	15.021413
_cell_angle_alpha	90.009890
_cell_angle_beta	89.995468
_cell_angle_gamma	83.485608
loop_
_atom_site_label
_atom_site_type_symbol
_atom_site_fract_x
_atom_site_fract_y
_atom_site_fract_z
O1	O	1.114510	0.108299	-0.073963
O2	O	0.869956	0.121661	-0.073976
O3	O	0.998937	-0.007299	-0.073976
O4	O	0.985529	0.237258	-0.073962
O5	O	0.998916	-0.007280	0.074088
O6	O	0.869936	0.121679	0.074089
O7	O	1.114489	0.108317	0.074102
Zn8	Zn	0.992209	0.115001	0.097603
Zn9	Zn	0.992236	0.114977	-0.097478
O10	O	0.985509	0.237276	0.074102
C11	C	0.838652	0.121116	0.000055
C12	C	0.745406	0.119456	0.000049
C13	C	0.474791	0.034560	0.000054
C14	C	0.525354	0.075499	0.073061
C15	C	0.409764	0.113535	0.000064
C16	C	0.525355	0.075502	-0.072918
C17	C	0.574677	0.116440	0.000055
C18	C	0.459098	0.154453	0.073132
C19	C	0.459096	0.154445	-0.072913
C20	C	0.509626	0.195442	0.000113
C21	C	0.314762	0.111860	0.000070
C22	C	0.669676	0.118122	0.000056
C23	C	0.998378	-0.038584	0.000052
C24	C	0.996735	-0.131833	0.000041
C25	C	1.072656	-0.367594	0.000062
C26	C	1.031725	-0.418171	-0.072944
C27	C	0.993691	-0.302554	0.000051
C28	C	1.031687	-0.418128	0.073036
C29	C	0.990757	-0.467463	0.000066
C30	C	0.952782	-0.351902	-0.073014
C31	C	0.952755	-0.351856	0.073031
C32	C	0.911766	-0.402400	0.000008
C33	C	0.995384	-0.207554	0.000042
C34	C	0.989058	-0.562460	0.000068
C35	C	1.145793	0.108862	0.000069
C36	C	1.239039	0.110522	0.000069
C37	C	0.986067	0.268562	0.000072
C38	C	0.987710	0.361811	0.000077
N39	N	0.992197	0.115017	0.230741
N40	N	0.992255	0.114954	-0.230615
C41	C	0.932547	0.174620	0.470425
C42	C	1.008445	0.190926	0.529764
C43	C	0.992218	0.114996	0.412348
C44	C	0.916342	0.098709	0.529750
C45	C	0.992232	0.114978	0.587772
C46	C	1.068154	0.131340	0.470381
C47	C	0.976001	0.039090	0.470362
C48	C	1.051953	0.055364	0.529675
C49	C	0.992209	0.115009	0.311291
C50	C	0.992250	0.114964	0.688827
H51	H	0.525104	0.263508	0.000159
H52	H	0.430151	0.187761	-0.134634
C53	C	0.564061	0.030950	0.155247
C54	C	0.622466	-0.036828	0.129139
C55	C	0.658142	-0.077884	0.204820
H56	H	0.520877	0.010518	0.189913
H57	H	0.591843	0.069510	0.189624
H58	H	0.594685	-0.075381	0.094776
H59	H	0.665665	-0.016419	0.094483
H60	H	0.685924	-0.039324	0.239197
H61	H	0.614953	-0.098311	0.239481
H62	H	0.697780	-0.123871	0.187116
H63	H	1.065042	-0.447053	0.134752
C64	C	0.908453	-0.313625	-0.155518
C65	C	0.949659	-0.348093	-0.231682
C66	C	0.908846	-0.312862	-0.307701
H67	H	0.909786	-0.254217	-0.155163
H68	H	0.851481	-0.325770	-0.155782
H69	H	1.006617	-0.335942	-0.231418
H70	H	0.948328	-0.407497	-0.232066
H71	H	0.851874	-0.325007	-0.307965
H72	H	0.910181	-0.253455	-0.307337
H73	H	0.936793	-0.336249	-0.359387
C74	C	0.865229	0.241772	0.435673
C75	C	0.806873	0.203452	0.384439
C76	C	0.744847	0.265284	0.352419
H77	H	0.890912	0.280876	0.399957
H78	H	0.837044	0.270599	0.484431
H79	H	0.835054	0.174639	0.335687
H80	H	0.781169	0.164353	0.420136
H81	H	0.716663	0.294111	0.401177
H82	H	0.770538	0.304385	0.316706
H83	H	0.705241	0.239292	0.317660
C84	C	0.830814	0.080167	0.564469
C85	C	0.813446	0.001264	0.533098
C86	C	0.734670	-0.015843	0.565069
H87	H	0.788399	0.122507	0.544203
H88	H	0.831580	0.079731	0.627709
H89	H	0.812673	0.001707	0.469871
H90	H	0.855840	-0.041092	0.553361
H91	H	0.735435	-0.016279	0.628309
H92	H	0.692261	0.026502	0.544801
H93	H	0.722879	-0.069382	0.543795
H94	H	0.843695	-0.417864	-0.000035
C95	C	1.026586	0.276574	0.564515
C96	C	0.963911	0.338767	0.534520
C97	C	0.980583	0.417676	0.566520
H98	H	1.080048	0.288665	0.543335
H99	H	1.026932	0.275826	0.627756
H100	H	0.963574	0.339517	0.471292
H101	H	0.910443	0.326704	0.555698
H102	H	0.980929	0.416928	0.629761
H103	H	1.034047	0.429757	0.545338
H104	H	0.938058	0.459882	0.546181
H105	H	0.459152	-0.033454	0.000121
C106	C	0.908174	-0.313157	0.155218
C107	C	0.839460	-0.255905	0.129143
C108	C	0.798373	-0.220248	0.204837
H109	H	0.946404	-0.284472	0.189052
H110	H	0.888668	-0.356496	0.190414
H111	H	0.858967	-0.212572	0.093962
H112	H	0.801211	-0.284570	0.095319
H113	H	0.778867	-0.263587	0.240032
H114	H	0.836610	-0.191567	0.238665
H115	H	0.751742	-0.181404	0.187155
C116	C	1.153650	0.149899	0.435590
C117	C	1.152617	0.149778	0.342388
C118	C	1.231344	0.166915	0.310305
H119	H	1.196168	0.107848	0.456237
H120	H	1.165230	0.203669	0.456392
H121	H	1.141047	0.096015	0.321594
H122	H	1.110116	0.191829	0.321717
H123	H	1.242925	0.220685	0.331108
H124	H	1.273856	0.124862	0.330959
H125	H	1.230651	0.166843	0.247066
C126	C	1.119185	-0.011988	0.564203
C127	C	1.080981	-0.070414	0.615446
C128	C	1.142888	-0.132472	0.647259
H129	H	1.158360	0.013657	0.599869
H130	H	1.147913	-0.040108	0.515350
H131	H	1.052267	-0.042296	0.664293
H132	H	1.041812	-0.096080	0.579800
H133	H	1.171616	-0.160593	0.598406
H134	H	1.182059	-0.106820	0.682921
H135	H	1.116975	-0.172125	0.682024
H136	H	0.554288	0.042128	-0.134637
C137	C	0.420518	0.198821	0.155498
C138	C	0.332977	0.196700	0.154574
C139	C	0.297409	0.237545	0.230442
H140	H	0.432550	0.255818	0.155800
H141	H	0.443735	0.170956	0.207293
H142	H	0.309768	0.224567	0.102793
H143	H	0.320921	0.139713	0.154285
H144	H	0.320626	0.209680	0.282237
H145	H	0.309447	0.294540	0.230738
H146	H	0.238010	0.236105	0.229829
C147	C	1.163350	-0.346760	-0.000233
C148	C	1.204322	-0.380456	-0.076860
C149	C	1.287858	-0.361252	-0.077182
H150	H	1.191796	-0.370402	0.051037
H151	H	1.163776	-0.287226	0.000241
H152	H	1.203902	-0.439978	-0.077326
H153	H	1.175903	-0.356819	-0.128142
H154	H	1.288284	-0.301718	-0.076708
H155	H	1.316296	-0.384895	-0.025909
H156	H	1.315666	-0.384104	-0.129176
H157	H	1.065082	-0.447125	-0.134661
H158	H	0.962248	-0.025073	0.444249
