data_functionalizedCrystal
_audit_creation_method	'MofGen! by Chris Wilmer'
_symmetry_space_group_name_H-M	'P1'
_symmetry_Int_Tables_number	1
_symmetry_cell_setting	triclinic
loop_
_symmetry_equiv_pos_as_xyz
  x,y,z
_cell_length_a	19.077236
_cell_length_b	17.640280
_cell_length_c	19.076919
_cell_angle_alpha	98.508881
_cell_angle_beta	90.112677
_cell_angle_gamma	80.604502
loop_
_atom_site_label
_atom_site_type_symbol
_atom_site_fract_x
_atom_site_fract_y
_atom_site_fract_z
Zn1	Zn	1.111128	-0.282337	0.391906
Zn2	Zn	1.611128	0.217663	0.891906
Zn3	Zn	1.139095	-0.406982	0.252928
Zn4	Zn	1.639095	0.093018	0.752928
Zn5	Zn	0.998268	-0.281929	0.269756
Zn6	Zn	1.498268	0.218071	0.769756
Zn7	Zn	1.018856	-0.417359	0.363878
Zn8	Zn	1.518856	0.082641	0.863878
O9	O	1.066837	-0.347152	0.319617
O10	O	1.566837	0.152848	0.819617
O11	O	1.212391	-0.294700	0.378157
O12	O	1.712391	0.205300	0.878157
O13	O	1.123502	-0.385880	0.157607
O14	O	1.623502	0.114120	0.657607
O15	O	0.992919	-0.173141	0.304732
O16	O	1.492919	0.326859	0.804732
O17	O	1.232938	-0.386276	0.276050
O18	O	1.732938	0.113724	0.776050
O19	O	1.075837	-0.173441	0.394475
O20	O	1.575837	0.326559	0.894475
O21	O	1.020036	-0.294004	0.169971
O22	O	1.520036	0.205996	0.669971
O23	O	0.903446	-0.304066	0.277555
O24	O	1.403446	0.195934	0.777555
O25	O	1.028008	-0.403961	0.465150
O26	O	1.528008	0.096039	0.965150
O27	O	0.918572	-0.403565	0.346706
O28	O	1.418572	0.096435	0.846706
O29	O	1.095801	-0.304761	0.485741
O30	O	1.595801	0.195239	0.985741
O31	O	1.143465	-0.517201	0.248873
O32	O	1.643465	-0.017201	0.748873
O33	O	1.055126	-0.524824	0.330388
O34	O	1.555126	-0.024824	0.830388
C35	C	0.885715	-0.354898	0.310916
C36	C	1.385715	0.145102	0.810916
C37	C	0.808233	-0.358232	0.307206
C38	C	1.308233	0.141768	0.807206
C39	C	0.761147	-0.312201	0.358680
C40	C	1.261147	0.187799	0.858680
C41	C	0.688344	-0.315329	0.355189
C42	C	1.188344	0.184671	0.855189
C43	C	0.662629	-0.364492	0.300227
C44	C	1.162629	0.135508	0.800227
C45	C	0.709720	-0.410525	0.248749
C46	C	1.209720	0.089475	0.748749
C47	C	0.782521	-0.407392	0.252237
C48	C	1.282521	0.092608	0.752237
C49	C	0.446043	-0.378962	0.284085
C50	C	0.946043	0.121038	0.784085
C51	C	0.373237	-0.382093	0.280602
C52	C	0.873237	0.117907	0.780602
C53	C	0.351866	-0.286895	0.387042
C54	C	0.851866	0.213105	0.887042
C55	C	0.424670	-0.283770	0.390528
C56	C	0.924670	0.216230	0.890528
C57	C	0.471754	-0.329800	0.339047
C58	C	0.971754	0.170200	0.839047
N59	N	0.588213	-0.367693	0.296659
N60	N	1.088213	0.132307	0.796659
N61	N	0.546168	-0.326595	0.342613
N62	N	1.046168	0.173405	0.842613
C63	C	1.104583	-0.549234	0.284779
C64	C	1.604583	-0.049234	0.784779
C65	C	1.120794	-0.635684	0.269902
C66	C	1.620794	-0.135684	0.769902
C67	C	0.943961	-0.939986	0.432906
C68	C	1.443961	-0.439986	0.932906
C69	C	0.959196	-1.021218	0.418904
C70	C	1.459196	-0.521218	0.918904
C71	C	1.051236	-1.013216	0.334116
C72	C	1.551236	-0.513216	0.834116
C73	C	1.036011	-0.931982	0.348113
C74	C	1.536011	-0.431982	0.848113
C75	C	0.982373	-0.895373	0.397508
C76	C	1.482373	-0.395373	0.897508
C77	C	1.074423	-0.887369	0.312715
C78	C	1.574423	-0.387369	0.812715
C79	C	1.059196	-0.806142	0.326708
C80	C	1.559196	-0.306142	0.826708
C81	C	1.005559	-0.769528	0.376100
C82	C	1.505559	-0.269528	0.876100
C83	C	0.967147	-0.814146	0.411502
C84	C	1.467147	-0.314146	0.911502
C85	C	1.128058	-0.923979	0.263316
C86	C	1.628058	-0.423979	0.763316
C87	C	1.166469	-0.879366	0.227918
C88	C	1.666469	-0.379366	0.727918
C89	C	1.151246	-0.798138	0.241915
C90	C	1.651246	-0.298138	0.741915
C91	C	1.097609	-0.761523	0.291306
C92	C	1.597609	-0.261523	0.791306
C93	C	1.189659	-0.753519	0.206513
C94	C	1.689659	-0.253519	0.706513
C95	C	1.174432	-0.672292	0.220507
C96	C	1.674432	-0.172292	0.720507
C97	C	1.082383	-0.680296	0.305300
C98	C	1.582383	-0.180296	0.805300
C99	C	1.248666	-0.339376	0.328353
C100	C	1.748666	0.160624	0.828353
C101	C	1.326151	-0.336062	0.332076
C102	C	1.826151	0.163938	0.832076
C103	C	1.061081	-0.355564	0.501447
C104	C	1.561081	0.144436	1.001447
C105	C	1.058629	-0.359149	0.578932
C106	C	1.558629	0.140851	1.078932
C107	C	1.028962	-0.144280	0.354607
C108	C	1.528962	0.355720	0.854607
C109	C	1.012822	-0.057829	0.369518
C110	C	1.512822	0.442171	0.869518
C111	C	1.072599	-0.338714	0.138506
C112	C	1.572599	0.161286	0.638506
C113	C	1.075146	-0.334905	0.061065
C114	C	1.575146	0.165095	0.561065
C115	C	1.092771	-0.309187	0.626057
C116	C	1.592771	0.190813	1.126057
C117	C	1.090457	-0.312553	0.698862
C118	C	1.590457	0.187447	1.198862
C119	C	1.054006	-0.365885	0.724542
C120	C	1.554006	0.134115	1.224542
C121	C	1.019860	-0.415848	0.677412
C122	C	1.519860	0.084152	1.177412
C123	C	1.022169	-0.412478	0.604608
C124	C	1.522169	0.087522	1.104608
C125	C	1.043309	-0.381498	0.941132
C126	C	1.543309	0.118502	1.441132
C127	C	1.041004	-0.384866	1.013941
C128	C	1.541004	0.115134	1.513941
C129	C	1.111601	-0.281569	1.035387
C130	C	1.611601	0.218431	1.535387
C131	C	1.113911	-0.278207	0.962580
C132	C	1.613911	0.221793	1.462580
C133	C	1.079762	-0.328168	0.915457
C134	C	1.579762	0.171832	1.415457
N135	N	1.051642	-0.369328	0.798960
N136	N	1.551642	0.130672	1.298960
N137	N	1.082121	-0.324721	0.841040
N138	N	1.582121	0.175279	1.341040
H139	H	1.038709	-0.650489	0.345528
H140	H	1.538709	-0.150489	0.845528
H141	H	1.139402	-0.240893	1.073762
H142	H	1.639402	0.259107	1.573762
H143	H	1.011319	-0.428297	1.034845
H144	H	1.511319	0.071703	1.534845
H145	H	1.205710	-0.635968	0.191681
H146	H	1.705710	-0.135968	0.691681
H147	H	0.900288	-0.910178	0.473134
H148	H	1.400288	-0.410178	0.973134
H149	H	0.650010	-0.277848	0.397105
H150	H	1.150010	0.222152	0.897105
H151	H	1.015515	-0.422191	0.902770
H152	H	1.515515	0.077809	1.402770
H153	H	1.210139	-0.909184	0.187698
H154	H	1.710139	-0.409184	0.687698
O155	O	1.123690	-0.263991	0.744538
O156	O	1.623690	0.236009	1.244538
C157	C	1.156348	-0.216188	0.706262
C158	C	1.656348	0.283812	1.206262
H159	H	1.166354	-0.245543	0.648987
H160	H	1.666354	0.254457	1.148987
H161	H	1.209059	-0.206521	0.731371
H162	H	1.709059	0.293479	1.231371
H163	H	1.120041	-0.157847	0.707479
H164	H	1.620041	0.342153	1.207479
O165	O	0.921837	-1.064439	0.453383
O166	O	1.421837	-0.564439	0.953383
C167	C	0.871220	-1.014706	0.499966
C168	C	1.371220	-0.514706	0.999966
H169	H	0.888834	-0.955668	0.513752
H170	H	1.388834	-0.455668	1.013752
H171	H	0.866399	-1.041029	0.550485
H172	H	1.366399	-0.541029	1.050485
H173	H	0.817496	-1.007205	0.473330
H174	H	1.317496	-0.507205	0.973330
H175	H	0.993158	-0.703387	0.387487
H176	H	1.493158	-0.203387	0.887487
H177	H	1.233326	-0.783338	0.166290
H178	H	1.733326	-0.283338	0.666290
H179	H	0.313522	-0.249420	0.428954
H180	H	0.813522	0.250580	0.928954
H181	H	1.143596	-0.234781	0.941678
H182	H	1.643596	0.265219	1.441678
O183	O	0.984506	-0.467631	0.702470
O184	O	1.484506	0.032369	1.202470
C185	C	0.989774	-0.459881	0.776835
C186	C	1.489774	0.040119	1.276835
H187	H	1.038503	-0.432570	0.793761
H188	H	1.538503	0.067430	1.293761
H189	H	0.995043	-0.519624	0.794227
H190	H	1.495043	-0.019624	1.294227
H191	H	0.940037	-0.421184	0.802651
H192	H	1.440037	0.078816	1.302651
O193	O	1.128077	-0.257340	0.601042
O194	O	1.628077	0.242660	1.101042
C195	C	1.080339	-0.206840	0.565702
C196	C	1.580339	0.293160	1.065702
H197	H	1.032979	-0.236029	0.547518
H198	H	1.532979	0.263971	1.047518
H199	H	1.108411	-0.192827	0.517673
H200	H	1.608411	0.307173	1.017673
H201	H	1.061024	-0.150830	0.603336
H202	H	1.561024	0.349170	1.103336
H203	H	0.445601	-0.243739	0.435286
H204	H	0.945601	0.256261	0.935286
O205	O	0.989003	-0.461100	0.558922
O206	O	1.489003	0.038900	1.058922
C207	C	0.956325	-0.508886	0.597198
C208	C	1.456325	-0.008886	1.097198
H209	H	0.983730	-0.512752	0.650008
H210	H	1.483730	-0.012752	1.150008
H211	H	0.961008	-0.569515	0.565237
H212	H	1.461008	-0.069515	1.065237
H213	H	0.897814	-0.483036	0.607299
H214	H	1.397814	0.016964	1.107299
H215	H	0.923473	-0.784339	0.451730
H216	H	1.423473	-0.284339	0.951730
H217	H	1.094907	-1.043033	0.293896
H218	H	1.594907	-0.543033	0.793896
H219	H	0.782078	-0.272169	0.403437
H220	H	1.282078	0.227831	0.903437
H221	H	1.140455	-0.990119	0.251926
H222	H	1.640455	-0.490119	0.751926
H223	H	0.352303	-0.422131	0.235845
H224	H	0.852303	0.077869	0.735845
H225	H	0.688776	-0.450551	0.203995
H226	H	1.188776	0.049449	0.703995
O227	O	0.491681	-0.423752	0.234041
O228	O	0.991681	0.076248	0.734041
C229	C	0.453368	-0.467801	0.184776
C230	C	0.953368	0.032199	0.684776
H231	H	0.401089	-0.474098	0.210372
H232	H	0.901089	0.025902	0.710372
H233	H	0.486089	-0.527816	0.167691
H234	H	0.986089	-0.027816	0.667691
H235	H	0.441944	-0.437111	0.136429
H236	H	0.941944	0.062889	0.636429
H237	H	0.820858	-0.444875	0.210322
H238	H	1.320858	0.055125	0.710322
