data_functionalizedCrystal
_audit_creation_method	'MofGen! by Chris Wilmer'
_symmetry_space_group_name_H-M	'P1'
_symmetry_Int_Tables_number	1
_symmetry_cell_setting	triclinic
loop_
_symmetry_equiv_pos_as_xyz
  x,y,z
_cell_length_a	14.044220
_cell_length_b	14.044220
_cell_length_c	8.140239
_cell_angle_alpha	89.995422
_cell_angle_beta	90.002157
_cell_angle_gamma	93.188878
loop_
_atom_site_label
_atom_site_type_symbol
_atom_site_fract_x
_atom_site_fract_y
_atom_site_fract_z
O1	O	1.277166	0.230166	-0.136445
O2	O	1.527166	0.480166	0.113555
O3	O	1.777166	0.730166	0.363555
O4	O	2.027166	0.980166	0.613555
O5	O	1.000494	0.221860	-0.136487
O6	O	1.250494	0.471860	0.113513
O7	O	1.500494	0.721860	0.363513
O8	O	1.750494	0.971860	0.613513
O9	O	1.134677	0.087677	-0.136450
O10	O	1.384677	0.337677	0.113550
O11	O	1.634677	0.587677	0.363550
O12	O	1.884677	0.837677	0.613550
O13	O	1.142983	0.364349	-0.136482
O14	O	1.392983	0.614349	0.113518
O15	O	1.642983	0.864349	0.363518
O16	O	1.892983	1.114349	0.613518
O17	O	1.134669	0.087675	0.136777
O18	O	1.384669	0.337675	0.386777
O19	O	1.634669	0.587675	0.636777
O20	O	1.884669	0.837675	0.886777
O21	O	1.000486	0.221858	0.136740
O22	O	1.250486	0.471858	0.386740
O23	O	1.500486	0.721858	0.636740
O24	O	1.750486	0.971858	0.886740
O25	O	1.277157	0.230164	0.136782
O26	O	1.527157	0.480164	0.386782
O27	O	1.777157	0.730164	0.636782
O28	O	2.027157	0.980164	0.886782
Zn29	Zn	1.138820	0.226010	0.180142
Zn30	Zn	1.388820	0.476010	0.430142
Zn31	Zn	1.638820	0.726010	0.680142
Zn32	Zn	1.888820	0.976010	0.930142
Zn33	Zn	1.138831	0.226013	-0.179847
Zn34	Zn	1.388831	0.476013	0.070153
Zn35	Zn	1.638831	0.726013	0.320153
Zn36	Zn	1.888831	0.976013	0.570153
O37	O	1.142974	0.364346	0.136746
O38	O	1.392974	0.614346	0.386746
O39	O	1.642974	0.864346	0.636746
O40	O	1.892974	1.114346	0.886746
C41	C	0.964868	0.218223	0.000122
C42	C	1.214868	0.468223	0.250122
C43	C	1.464868	0.718223	0.500122
C44	C	1.714868	0.968223	0.750122
C45	C	0.858725	0.207379	0.000106
C46	C	1.108725	0.457379	0.250106
C47	C	1.358725	0.707379	0.500106
C48	C	1.608725	0.957379	0.750106
C49	C	1.131037	0.052054	0.000163
C50	C	1.381037	0.302054	0.250163
C51	C	1.631037	0.552054	0.500163
C52	C	1.881037	0.802054	0.750163
C53	C	1.120193	-0.054088	0.000164
C54	C	1.370193	0.195912	0.250164
C55	C	1.620193	0.445912	0.500164
C56	C	1.870193	0.695912	0.750164
C57	C	0.664388	0.187553	0.000141
C58	C	0.914388	0.437553	0.250141
C59	C	1.164388	0.687553	0.500141
C60	C	1.414388	0.937553	0.750141
C61	C	0.613258	0.264467	0.000140
C62	C	0.863258	0.514467	0.250140
C63	C	1.113258	0.764467	0.500140
C64	C	1.363258	1.014467	0.750140
C65	C	0.505122	0.253435	0.000159
C66	C	0.755122	0.503435	0.250159
C67	C	1.005122	0.753435	0.500159
C68	C	1.255122	1.003435	0.750159
C69	C	0.772534	0.198583	0.000122
C70	C	1.022534	0.448583	0.250122
C71	C	1.272534	0.698583	0.500122
C72	C	1.522534	0.948583	0.750122
C73	C	1.100366	-0.248426	0.000137
C74	C	1.350366	0.001574	0.250137
C75	C	1.600366	0.251574	0.500137
C76	C	1.850366	0.501574	0.750137
C77	C	1.177281	-0.299556	0.000144
C78	C	1.427281	-0.049556	0.250144
C79	C	1.677281	0.200444	0.500144
C80	C	1.927281	0.450444	0.750144
C81	C	1.166249	-0.407692	0.000129
C82	C	1.416249	-0.157692	0.250129
C83	C	1.666249	0.092308	0.500129
C84	C	1.916249	0.342308	0.750129
C85	C	1.111397	-0.140280	0.000152
C86	C	1.361397	0.109720	0.250152
C87	C	1.611397	0.359720	0.500152
C88	C	1.861397	0.609720	0.750152
C89	C	1.312783	0.233800	0.000170
C90	C	1.562783	0.483800	0.250170
C91	C	1.812783	0.733800	0.500170
C92	C	2.062783	0.983800	0.750170
C93	C	1.418926	0.244645	0.000174
C94	C	1.668926	0.494645	0.250174
C95	C	1.918926	0.744645	0.500174
C96	C	2.168926	0.994645	0.750174
C97	C	1.146614	0.399969	0.000128
C98	C	1.396614	0.649969	0.250128
C99	C	1.646614	0.899969	0.500128
C100	C	1.896614	1.149969	0.750128
C101	C	1.157459	0.506112	0.000117
C102	C	1.407459	0.756112	0.250117
C103	C	1.657459	1.006112	0.500117
C104	C	1.907459	1.256112	0.750117
N105	N	1.138820	0.226008	0.425824
N106	N	1.388820	0.476008	0.675824
N107	N	1.638820	0.726008	0.925824
N108	N	1.888820	0.976008	1.175824
N109	N	1.138839	0.226009	-0.425529
N110	N	1.388839	0.476009	-0.175529
N111	N	1.638839	0.726009	0.074471
N112	N	1.888839	0.976009	0.324471
H113	H	0.650697	0.338600	0.000123
H114	H	0.900697	0.588600	0.250123
H115	H	1.150697	0.838600	0.500123
H116	H	1.400697	1.088600	0.750123
H117	H	1.251414	-0.262117	0.000044
H118	H	1.501414	-0.012117	0.250044
H119	H	1.751414	0.237883	0.500044
H120	H	2.001414	0.487883	0.750044
H121	H	0.626951	0.113425	0.000159
H122	H	0.876951	0.363425	0.250159
H123	H	1.126951	0.613425	0.500159
H124	H	1.376951	0.863425	0.750159
O125	O	1.002170	-0.298006	0.000148
O126	O	1.252170	-0.048006	0.250148
O127	O	1.502170	0.201994	0.500148
O128	O	1.752170	0.451994	0.750148
H129	H	1.008808	-0.376391	0.000162
H130	H	1.258808	-0.126391	0.250162
H131	H	1.508808	0.123609	0.500162
H132	H	1.758808	0.373609	0.750162
