data_functionalizedCrystal
_audit_creation_method	'MofGen! by Chris Wilmer'
_symmetry_space_group_name_H-M	'P1'
_symmetry_Int_Tables_number	1
_symmetry_cell_setting	triclinic
loop_
_symmetry_equiv_pos_as_xyz
  x,y,z
_cell_length_a	12.759395
_cell_length_b	16.959454
_cell_length_c	12.759387
_cell_angle_alpha	90.030080
_cell_angle_beta	90.020509
_cell_angle_gamma	90.021612
loop_
_atom_site_label
_atom_site_type_symbol
_atom_site_fract_x
_atom_site_fract_y
_atom_site_fract_z
Zn1	Zn	1.606229	-0.314607	0.594010
Zn2	Zn	1.606104	-0.446808	0.418333
Zn3	Zn	1.430528	-0.314651	0.418347
Zn4	Zn	1.430504	-0.446751	0.593972
O5	O	1.518341	-0.380704	0.506166
O6	O	1.753234	-0.332150	0.570716
O7	O	1.582770	-0.429318	0.271314
O8	O	1.453898	-0.204034	0.441671
O9	O	1.753141	-0.429276	0.441647
O10	O	1.582985	-0.204002	0.570730
O11	O	1.453776	-0.332223	0.271324
O12	O	1.283503	-0.332169	0.441634
O13	O	1.453857	-0.429181	0.740998
O14	O	1.283486	-0.429222	0.570665
O15	O	1.582962	-0.332095	0.741026
O16	O	1.582747	-0.557411	0.441610
O17	O	1.453734	-0.557370	0.570651
C18	C	1.245374	-0.380695	0.506148
C19	C	1.128597	-0.380710	0.506165
C20	C	1.128617	-0.481935	0.640307
C21	C	1.073766	-0.532554	0.707381
C22	C	0.964045	-0.532564	0.707394
C23	C	0.909171	-0.481947	0.640328
C24	C	0.964022	-0.431328	0.573254
C25	C	1.073746	-0.431326	0.573246
C26	C	0.964002	-0.330100	0.439118
C27	C	1.073723	-0.330093	0.439098
C28	C	0.909128	-0.279483	0.372052
C29	C	0.963979	-0.228867	0.304971
C30	C	1.073707	-0.228860	0.304960
C31	C	1.128574	-0.279474	0.372024
C32	C	1.518253	-0.586071	0.506148
C33	C	1.518311	-0.673927	0.506175
C34	C	1.451262	-1.045411	0.573350
C35	C	1.585713	-1.045394	0.439088
C36	C	1.585676	-0.962848	0.439078
C37	C	1.518430	-0.921580	0.506205
C38	C	1.451221	-0.962858	0.573340
C39	C	1.652877	-0.921565	0.371936
C40	C	1.652842	-0.839014	0.371923
C41	C	1.585601	-0.797744	0.439055
C42	C	1.518389	-0.839026	0.506195
C43	C	1.451143	-0.797758	0.573321
C44	C	1.383936	-0.839039	0.640466
C45	C	1.383979	-0.921588	0.640473
C46	C	1.585558	-0.715195	0.439049
C47	C	1.451102	-0.715205	0.573311
C48	C	1.792374	-0.380714	0.506184
C49	C	1.909151	-0.380719	0.506192
C50	C	1.518420	-0.380627	0.780199
C51	C	1.518454	-0.380594	0.896976
C52	C	1.518458	-0.174536	0.506207
C53	C	1.518508	-0.086679	0.506224
C54	C	1.518322	-0.380724	0.233198
C55	C	1.518492	-0.380535	0.116422
C56	C	1.652900	-0.279505	0.897025
C57	C	1.720138	-0.228949	0.951910
C58	C	1.720164	-0.228920	1.061632
C59	C	1.652942	-0.279451	1.116471
C60	C	1.585704	-0.330007	1.061586
C61	C	1.585688	-0.330032	0.951861
C62	C	1.451254	-0.431091	1.061537
C63	C	1.451233	-0.431125	0.951815
C64	C	1.384033	-0.481622	1.116375
C65	C	1.316799	-0.532183	1.061490
C66	C	1.316777	-0.532211	0.951762
C67	C	1.383995	-0.481681	0.896930
H68	H	1.217958	-0.481938	0.640296
C69	C	1.652961	-0.279418	1.237162
H70	H	1.603297	-0.316748	1.261960
H71	H	1.720754	-0.293083	1.261995
H72	H	1.634822	-0.228398	1.261987
H73	H	1.774908	-0.187748	1.106320
H74	H	1.774867	-0.187806	0.907249
H75	H	1.396546	-1.079026	0.628021
C76	C	1.659471	-0.669786	0.365200
H77	H	1.649814	-0.614712	0.374803
H78	H	1.730062	-0.683269	0.380630
H79	H	1.644125	-0.683354	0.294594
H80	H	0.819787	-0.279491	0.372072
H81	H	0.919385	-0.573778	0.762017
H82	H	1.640456	-1.079000	0.384431
C83	C	1.249265	-0.279466	0.372011
H84	H	1.274076	-0.242074	0.322456
H85	H	1.274121	-0.265865	0.439841
H86	H	1.274055	-0.330458	0.353710
H87	H	1.707566	-0.805408	0.317251
C88	C	1.310049	-0.966998	0.714312
H89	H	1.319696	-1.022071	0.704692
H90	H	1.325372	-0.953435	0.784919
H91	H	1.239458	-0.953513	0.698860
H92	H	1.652896	-0.279531	0.807684
C93	C	1.384058	-0.481595	1.237066
H94	H	1.334390	-0.518925	1.261862
H95	H	1.451851	-0.495267	1.261893
H96	H	1.365926	-0.430577	1.261901
H97	H	1.118456	-0.573764	0.761987
C98	C	1.309970	-0.793643	0.714305
H99	H	1.269947	-0.830046	0.754293
H100	H	1.350125	-0.761392	0.760104
H101	H	1.264193	-0.761488	0.674062
C102	C	1.726854	-0.966959	0.298119
H103	H	1.717265	-1.022034	0.307756
H104	H	1.711523	-0.953483	0.227507
H105	H	1.797429	-0.953377	0.313574
H106	H	1.262067	-0.573317	1.106149
H107	H	1.118360	-0.187634	0.250347
H108	H	1.262012	-0.573371	0.907081
H109	H	1.383988	-0.481702	0.807588
C110	C	0.903624	-0.173193	0.231209
H111	H	0.952003	-0.143043	0.191261
H112	H	0.860780	-0.203386	0.185370
H113	H	0.860862	-0.138790	0.271498
C114	C	0.788481	-0.481955	0.640348
H115	H	0.763673	-0.519352	0.689897
H116	H	0.763688	-0.430966	0.658636
H117	H	0.763623	-0.495568	0.572516
H118	H	1.396346	-0.681609	0.627978
