data_functionalizedCrystal
_audit_creation_method	'MofGen! by Chris Wilmer'
_symmetry_space_group_name_H-M	'P1'
_symmetry_Int_Tables_number	1
_symmetry_cell_setting	triclinic
loop_
_symmetry_equiv_pos_as_xyz
  x,y,z
_cell_length_a	19.188930
_cell_length_b	27.732048
_cell_length_c	17.666332
_cell_angle_alpha	89.988553
_cell_angle_beta	89.976766
_cell_angle_gamma	82.893716
loop_
_atom_site_label
_atom_site_type_symbol
_atom_site_fract_x
_atom_site_fract_y
_atom_site_fract_z
O1	O	0.925765	0.060348	-0.063200
O2	O	1.425765	0.560348	0.436800
O3	O	0.722402	0.068472	-0.063149
O4	O	1.222402	0.568472	0.436851
O5	O	0.830399	-0.005968	-0.063161
O6	O	1.330399	0.494032	0.436839
O7	O	0.817767	0.134787	-0.063187
O8	O	1.317767	0.634787	0.436813
O9	O	0.830380	-0.005971	0.062735
O10	O	1.330380	0.494029	0.562735
O11	O	0.722383	0.068468	0.062748
O12	O	1.222383	0.568468	0.562748
O13	O	0.925746	0.060344	0.062697
O14	O	1.425746	0.560344	0.562697
Cu15	Cu	0.824063	0.064406	0.074218
Cu16	Cu	1.324063	0.564406	0.574218
Cu17	Cu	0.824085	0.064410	-0.074670
Cu18	Cu	1.324085	0.564410	0.425330
O19	O	0.817748	0.134783	0.062710
O20	O	1.317748	0.634783	0.562710
C21	C	0.696383	0.068207	-0.000194
C22	C	1.196383	0.568207	0.499806
C23	C	0.618883	0.067417	-0.000174
C24	C	1.118883	0.567417	0.499826
C25	C	0.573681	0.111096	-0.000194
C26	C	1.073681	0.611096	0.499806
C27	C	0.500862	0.110354	-0.000202
C28	C	1.000862	0.610354	0.499798
C29	C	0.473249	0.065931	-0.000205
C30	C	0.973249	0.565931	0.499795
C31	C	0.518461	0.022246	-0.000181
C32	C	1.018461	0.522246	0.499819
C33	C	0.591278	0.022990	-0.000165
C34	C	1.091278	0.522990	0.499835
N35	N	0.365491	0.031976	-0.043078
N36	N	0.865491	0.531976	0.456922
N37	N	0.296317	0.031273	-0.043094
N38	N	0.796317	0.531273	0.456906
C39	C	0.253854	0.063689	-0.000251
C40	C	0.753854	0.563689	0.499749
N41	N	0.283177	0.096841	0.042600
N42	N	0.783177	0.596841	0.542600
N43	N	0.352357	0.097546	0.042613
N44	N	0.852357	0.597546	0.542613
C45	C	0.394291	0.065120	-0.000222
C46	C	0.894291	0.565120	0.499778
C47	C	0.129692	0.106566	-0.000279
C48	C	0.629692	0.606566	0.499721
C49	C	0.056872	0.105822	-0.000282
C50	C	0.556872	0.605822	0.499718
C51	C	0.074473	0.017714	-0.000269
C52	C	0.574473	0.517714	0.499731
C53	C	0.147292	0.018459	-0.000258
C54	C	0.647292	0.518459	0.499742
C55	C	0.174897	0.062886	-0.000267
C56	C	0.674897	0.562886	0.499733
C57	C	0.830125	-0.023977	-0.000211
C58	C	1.330125	0.476023	0.499789
C59	C	0.829326	-0.077635	-0.000204
C60	C	1.329326	0.422365	0.499796
C61	C	0.888119	-0.416270	-0.000258
C62	C	1.388119	0.083730	0.499742
C63	C	0.885157	-0.617939	-0.000268
C64	C	1.385157	-0.117939	0.499732
O65	O	0.938918	-0.649030	-0.000314
O66	O	1.438918	-0.149030	0.499686
N67	N	0.821118	-0.637258	-0.000251
N68	N	1.321118	-0.137258	0.499749
C69	C	0.757816	-0.606157	-0.000237
C70	C	1.257816	-0.106157	0.499763
O71	O	0.703280	-0.627217	-0.000231
O72	O	1.203280	-0.127217	0.499769
C73	C	0.760780	-0.404489	-0.000233
C74	C	1.260780	0.095511	0.499767
C75	C	0.824822	-0.385173	-0.000242
C76	C	1.324822	0.114827	0.499758
C77	C	0.952156	-0.396953	-0.000268
C78	C	1.452156	0.103047	0.499732
C79	C	0.952896	-0.346539	-0.000261
C80	C	1.452896	0.153461	0.499739
C81	C	0.889599	-0.315441	-0.000245
C82	C	1.389599	0.184559	0.499755
C83	C	0.825562	-0.334759	-0.000235
C84	C	1.325562	0.165241	0.499765
C85	C	0.697478	-0.373389	-0.000224
C86	C	1.197478	0.126611	0.499776
C87	C	0.698225	-0.322969	-0.000225
C88	C	1.198225	0.177031	0.499775
C89	C	0.762267	-0.303653	-0.000234
C90	C	1.262267	0.196347	0.499766
C91	C	0.763005	-0.253247	-0.000212
C92	C	1.263005	0.246753	0.499788
N93	N	0.827043	-0.233928	-0.000229
N94	N	1.327043	0.266072	0.499771
C95	C	0.890340	-0.265025	-0.000245
C96	C	1.390340	0.234975	0.499755
C97	C	0.756265	-0.712036	-0.000238
C98	C	1.256265	-0.212036	0.499762
C99	C	0.755524	-0.762452	-0.000238
C100	C	1.255524	-0.262452	0.499762
C101	C	0.882865	-0.774231	-0.000270
C102	C	1.382865	-0.274231	0.499730
C103	C	0.883605	-0.723813	-0.000265
C104	C	1.383605	-0.223813	0.499735
C105	C	0.820303	-0.692716	-0.000254
C106	C	1.320303	-0.192716	0.499746
C107	C	0.891889	-0.159151	-0.000231
C108	C	1.391889	0.340849	0.499769
C109	C	0.892623	-0.108732	-0.000221
C110	C	1.392623	0.391268	0.499779
C111	C	0.765283	-0.096958	-0.000193
C112	C	1.265283	0.403042	0.499807
C113	C	0.764549	-0.147373	-0.000198
C114	C	1.264549	0.352627	0.499802
C115	C	0.827857	-0.178468	-0.000220
C116	C	1.327857	0.321532	0.499780
O117	O	0.709272	-0.222127	-0.000174
O118	O	1.209272	0.277873	0.499826
O119	O	0.944868	-0.243956	-0.000268
O120	O	1.444868	0.256044	0.499732
C121	C	0.887379	-0.466684	-0.000265
C122	C	1.387379	0.033316	0.499735
C123	C	0.823342	-0.486001	-0.000255
C124	C	1.323342	0.013999	0.499745
C125	C	0.760045	-0.454904	-0.000238
C126	C	1.260045	0.045096	0.499762
C127	C	0.822601	-0.536418	-0.000254
C128	C	1.322601	-0.036418	0.499746
C129	C	0.885898	-0.567515	-0.000271
C130	C	1.385898	-0.067515	0.499729
C131	C	0.949936	-0.548195	-0.000288
C132	C	1.449936	-0.048195	0.499712
C133	C	0.950676	-0.497781	-0.000281
C134	C	1.450676	0.002219	0.499719
C135	C	0.696007	-0.474223	-0.000222
C136	C	1.196007	0.025777	0.499778
C137	C	0.695272	-0.524638	-0.000227
C138	C	1.195272	-0.024638	0.499773
C139	C	0.758569	-0.555735	-0.000244
C140	C	1.258569	-0.055735	0.499756
C141	C	0.951765	0.060609	-0.000260
C142	C	1.451765	0.560609	0.499740
C143	C	1.029264	0.061399	-0.000285
C144	C	1.529264	0.561399	0.499715
C145	C	0.818023	0.152793	-0.000243
C146	C	1.318023	0.652793	0.499757
C147	C	0.818821	0.206450	-0.000254
C148	C	1.318821	0.706450	0.499746
N149	N	0.824052	0.064402	0.178937
N150	N	1.324052	0.564402	0.678937
N151	N	0.824101	0.064410	-0.179389
N152	N	1.324101	0.564410	0.320611
C153	C	0.871889	0.031456	0.218541
C154	C	1.371889	0.531456	0.718541
C155	C	0.871893	0.031454	0.297789
C156	C	1.371893	0.531454	0.797789
C157	C	0.824067	0.064406	0.337429
C158	C	1.324067	0.564406	0.837429
C159	C	0.776221	0.097354	0.297816
C160	C	1.276221	0.597354	0.797816
C161	C	0.776214	0.097352	0.218570
C162	C	1.276214	0.597352	0.718570
N163	N	0.814718	0.107196	0.461842
N164	N	1.314718	0.607196	0.961842
N165	N	0.814729	0.107196	0.537122
N166	N	1.314729	0.607196	1.037122
C167	C	0.824085	0.064412	0.576193
C168	C	1.324085	0.564412	1.076193
N169	N	0.833444	0.021627	0.537140
N170	N	1.333444	0.521627	1.037140
N171	N	0.833436	0.021628	0.461853
N172	N	1.333436	0.521628	0.961853
C173	C	0.824069	0.064411	0.423359
C174	C	1.324069	0.564411	0.923359
C175	C	0.871929	0.031462	0.701727
C176	C	1.371929	0.531462	1.201727
C177	C	0.871928	0.031459	0.780976
C178	C	1.371928	0.531459	1.280976
C179	C	0.776260	0.097363	0.781001
C180	C	1.276260	0.597363	1.281001
C181	C	0.776257	0.097361	0.701754
C182	C	1.276257	0.597361	1.201754
C183	C	0.824096	0.064411	0.662121
C184	C	1.324096	0.564411	1.162121
H185	H	0.943441	-0.184464	-0.000251
H186	H	1.443441	0.315536	0.499749
H187	H	0.646676	-0.297652	-0.000217
H188	H	1.146676	0.202348	0.499783
H189	H	0.934404	-0.799559	-0.000283
H190	H	1.434404	-0.299559	0.499717
C191	C	0.641003	-0.025059	-0.000153
C192	C	1.141003	0.474941	0.499847
H193	H	0.614132	-0.051623	-0.000160
H194	H	1.114132	0.448377	0.499840
H195	H	0.669756	-0.026603	0.043753
H196	H	1.169756	0.473397	0.543753
H197	H	0.669794	-0.026597	-0.044058
H198	H	1.169794	0.473403	0.455942
C199	C	0.488093	-0.026619	-0.000187
C200	C	0.988093	0.473381	0.499813
H201	H	0.525446	-0.052527	-0.000167
H202	H	1.025446	0.447473	0.499833
H203	H	0.460078	-0.028740	-0.044096
H204	H	0.960078	0.471260	0.455904
H205	H	0.460028	-0.028740	0.043716
H206	H	0.960028	0.471260	0.543716
C207	C	0.007146	0.153870	-0.000305
C208	C	0.507146	0.653870	0.499695
H209	H	-0.040176	0.147066	-0.000305
H210	H	0.459824	0.647066	0.499695
H211	H	0.015487	0.172091	-0.044211
H212	H	0.515487	0.672091	0.455789
H213	H	0.015441	0.172093	0.043600
H214	H	0.515441	0.672093	0.543600
C215	C	0.695662	-0.062745	-0.000179
C216	C	1.195662	0.437255	0.499821
H217	H	0.705281	-0.029954	-0.000186
H218	H	1.205281	0.470046	0.499814
H219	H	0.669365	-0.068589	0.043726
H220	H	1.169365	0.431411	0.543726
H221	H	0.669393	-0.068580	-0.044086
H222	H	1.169393	0.431420	0.455914
C223	C	0.924501	-0.004792	0.174950
C224	C	1.424501	0.495208	0.674950
H225	H	0.952987	-0.024417	0.209892
H226	H	1.452987	0.475583	0.709892
H227	H	0.953372	0.012544	0.144010
H228	H	1.453372	0.512544	0.644010
H229	H	0.899596	-0.024874	0.144062
H230	H	1.399596	0.475126	0.644062
H231	H	1.005046	-0.330816	-0.000272
H232	H	1.505046	0.169184	0.499728
C233	C	0.924552	-0.004783	0.824541
C234	C	1.424552	0.495217	1.324541
H235	H	0.953044	-0.024402	0.789584
H236	H	1.453044	0.475598	1.289584
H237	H	0.899664	-0.024864	0.855476
H238	H	1.399664	0.475136	1.355476
H239	H	0.953427	0.012563	0.855432
H240	H	1.453427	0.512563	1.355432
C241	C	0.924537	-0.004786	0.658125
C242	C	1.424537	0.495214	1.158125
H243	H	0.917687	-0.000065	0.605256
H244	H	1.417687	0.499935	1.105256
H245	H	0.917303	-0.037033	0.671127
H246	H	1.417303	0.462967	1.171127
H247	H	0.971080	0.000384	0.671085
H248	H	1.471080	0.500384	1.171085
H249	H	0.184097	-0.017109	-0.000246
H250	H	0.684097	0.482891	0.499754
C251	C	0.044107	-0.031151	-0.000278
C252	C	0.544107	0.468849	0.499722
H253	H	-0.005735	-0.025338	-0.000295
H254	H	0.494265	0.474662	0.499705
H255	H	0.059632	-0.049134	0.043628
H256	H	0.559632	0.450866	0.543628
H257	H	0.059681	-0.049124	-0.044184
H258	H	0.559681	0.450876	0.455816
C259	C	0.723600	0.133598	0.175000
C260	C	1.223600	0.633598	0.675000
H261	H	0.730446	0.128877	0.122127
H262	H	1.230446	0.628877	0.622127
H263	H	0.730834	0.165845	0.187974
H264	H	1.230834	0.665845	0.687974
H265	H	0.677058	0.128427	0.188009
H266	H	1.177058	0.628427	0.688009
H267	H	0.644461	-0.448908	-0.000210
H268	H	1.144461	0.051092	0.499790
C269	C	0.963072	-0.087486	-0.000235
C270	C	1.463072	0.412514	0.499765
H271	H	1.000662	-0.113230	-0.000254
H272	H	1.500662	0.386770	0.499746
H273	H	0.966006	-0.068071	0.043668
H274	H	1.466006	0.431929	0.543668
H275	H	0.966014	-0.068058	-0.044143
H276	H	1.466014	0.431942	0.455857
C277	C	1.021789	-0.431153	-0.000280
C278	C	1.521789	0.068847	0.499720
H279	H	1.060027	-0.412420	-0.000280
H280	H	1.560027	0.087580	0.499720
H281	H	1.024166	-0.451063	-0.044180
H282	H	1.524166	0.048937	0.455820
H283	H	1.024141	-0.451067	0.043631
H284	H	1.524141	0.048933	0.543631
C285	C	0.954050	-0.702569	-0.000282
C286	C	1.454050	-0.202569	0.499718
H287	H	0.991638	-0.728314	-0.000295
H288	H	1.491638	-0.228314	0.499705
H289	H	0.956984	-0.683150	0.043618
H290	H	1.456984	-0.183150	0.543618
H291	H	0.956995	-0.683144	-0.044193
H292	H	1.456995	-0.183144	0.455807
H293	H	0.737317	0.124191	0.813276
H294	H	1.237317	0.624191	1.313276
H295	H	0.737307	0.124191	0.669506
H296	H	1.237307	0.624191	1.169506
H297	H	0.910848	0.004625	0.330041
H298	H	1.410848	0.504625	0.830041
C299	C	0.685078	-0.783695	-0.000221
C300	C	1.185078	-0.283695	0.499779
H301	H	0.647490	-0.757950	-0.000220
H302	H	1.147490	-0.257950	0.499780
H303	H	0.682129	-0.803124	0.043680
H304	H	1.182129	-0.303124	0.543680
H305	H	0.682149	-0.803110	-0.044132
H306	H	1.182149	-0.303110	0.455868
H307	H	0.704714	-0.686720	-0.000229
H308	H	1.204714	-0.186720	0.499771
H309	H	0.596152	0.147272	-0.000202
H310	H	1.096152	0.647272	0.499798
C311	C	0.160061	0.155433	-0.000280
C312	C	0.660061	0.655433	0.499720
H313	H	0.122708	0.181341	-0.000282
H314	H	0.622708	0.681341	0.499718
H315	H	0.188124	0.157556	-0.044179
H316	H	0.688124	0.657556	0.455821
H317	H	0.188079	0.157552	0.043632
H318	H	0.688079	0.657552	0.543632
H319	H	0.464051	0.145923	-0.000216
H320	H	0.964051	0.645923	0.499784
C321	C	0.627031	-0.394626	-0.000220
C322	C	1.127031	0.105374	0.499780
H323	H	0.589446	-0.368879	-0.000221
H324	H	1.089446	0.131121	0.499779
H325	H	0.624075	-0.414055	0.043679
H326	H	1.124075	0.085945	0.543679
H327	H	0.624103	-0.414040	-0.044132
H328	H	1.124103	0.085960	0.455868
H329	H	1.002826	-0.482059	-0.000289
H330	H	1.502826	0.017941	0.499711
C331	C	0.694105	-0.168622	-0.000190
C332	C	1.194105	0.331378	0.499810
H333	H	0.656514	-0.142879	-0.000184
H334	H	1.156514	0.357121	0.499816
H335	H	0.691155	-0.188057	0.043705
H336	H	1.191155	0.311943	0.543705
H337	H	0.691181	-0.188032	-0.044107
H338	H	1.191181	0.311968	0.455893
C339	C	1.019561	-0.582409	-0.000312
C340	C	1.519561	-0.082409	0.499688
H341	H	1.009941	-0.615200	-0.000320
H342	H	1.509941	-0.115200	0.499680
H343	H	1.045844	-0.576578	0.043583
H344	H	1.545844	-0.076578	0.543583
H345	H	1.045845	-0.576561	-0.044229
H346	H	1.545845	-0.076561	0.455771
H347	H	0.643117	-0.540360	-0.000213
H348	H	1.143117	-0.040360	0.499787
C349	C	0.723616	0.133601	0.341417
C350	C	1.223616	0.633601	0.841417
H351	H	0.730477	0.128887	0.394286
H352	H	1.230477	0.628887	0.894286
H353	H	0.677076	0.128431	0.328460
H354	H	1.177076	0.628431	0.828460
H355	H	0.730851	0.165850	0.328410
H356	H	1.230851	0.665850	0.828410
