data_functionalizedCrystal
_audit_creation_method	'MofGen! by Chris Wilmer'
_symmetry_space_group_name_H-M	'P1'
_symmetry_Int_Tables_number	1
_symmetry_cell_setting	triclinic
loop_
_symmetry_equiv_pos_as_xyz
  x,y,z
_cell_length_a	15.995292
_cell_length_b	17.038272
_cell_length_c	15.072220
_cell_angle_alpha	89.999202
_cell_angle_beta	89.986330
_cell_angle_gamma	87.290086
loop_
_atom_site_label
_atom_site_type_symbol
_atom_site_fract_x
_atom_site_fract_y
_atom_site_fract_z
O1	O	1.118189	0.100556	-0.073808
O2	O	0.875297	0.113048	-0.073804
O3	O	0.995300	-0.007013	-0.073799
O4	O	0.998187	0.220618	-0.073813
O5	O	0.995268	-0.007006	0.073766
O6	O	0.875266	0.113055	0.073761
O7	O	1.118158	0.100563	0.073757
Zn8	Zn	0.996707	0.106810	0.097188
Zn9	Zn	0.996748	0.106801	-0.097235
O10	O	0.998155	0.220624	0.073752
C11	C	0.844050	0.112543	-0.000021
C12	C	0.750988	0.111019	-0.000020
C13	C	0.992658	-0.036138	-0.000016
C14	C	0.984824	-0.122932	-0.000017
C15	C	0.412851	0.105415	-0.000029
C16	C	0.442336	0.192073	-0.000364
C17	C	0.539129	0.193720	-0.000028
C18	C	0.580605	0.108196	-0.000025
C19	C	0.548399	0.064875	0.084241
C20	C	0.451534	0.063832	0.084308
C21	C	0.451588	0.062055	-0.083501
C22	C	0.548309	0.065266	-0.084611
C23	C	0.675412	0.109763	-0.000020
C24	C	0.318043	0.103846	-0.000029
C25	C	1.056753	-0.173042	-0.000017
C26	C	1.049387	-0.254593	-0.000025
C27	C	0.970090	-0.286032	-0.000027
C28	C	0.898155	-0.235915	-0.000029
C29	C	0.905522	-0.154365	-0.000028
C30	C	0.944064	-0.531791	-0.000039
C31	C	0.936702	-0.613347	-0.000038
C32	C	1.087934	-0.632019	-0.000035
C33	C	1.095294	-0.550468	-0.000028
C34	C	1.023359	-0.500358	-0.000035
C35	C	0.962559	-0.369390	-0.000033
C36	C	1.030892	-0.417001	-0.000036
C37	C	1.149405	0.101068	-0.000028
C38	C	1.242467	0.102592	-0.000035
C39	C	1.000797	0.249749	-0.000032
C40	C	1.008632	0.336543	-0.000038
N41	N	0.996685	0.106816	0.229877
N42	N	0.996776	0.106789	-0.229924
C43	C	0.996746	0.106798	0.589079
C44	C	0.932289	0.170825	0.551469
C45	C	0.932464	0.171059	0.448643
C46	C	0.996715	0.106807	0.410875
C47	C	1.085350	0.124608	0.448163
C48	C	1.084996	0.125063	0.551021
C49	C	0.973334	0.024780	0.551184
C50	C	0.971368	0.025328	0.448321
C51	C	0.996703	0.106810	0.310161
C52	C	0.996764	0.106797	0.689792
H53	H	0.560585	0.227642	-0.060436
N54	N	0.410212	0.233967	-0.076178
N55	N	0.365207	0.200450	-0.130847
H56	H	0.342513	0.230038	-0.184393
H57	H	0.570588	0.094964	0.146950
H58	H	0.432457	0.000295	0.088138
N59	N	1.110507	0.198796	0.415839
N60	N	1.067273	0.259989	0.432803
H61	H	1.085034	0.312388	0.409975
N62	N	0.408884	0.233739	0.075019
N63	N	0.363422	0.199890	0.128988
H64	H	0.339795	0.229315	0.182229
N65	N	1.109750	0.200107	0.581090
N66	N	1.067773	0.260962	0.559874
H67	H	1.085253	0.313966	0.581104
H68	H	1.095455	-0.391400	-0.000054
H69	H	0.426841	0.093840	0.147297
N70	N	0.817163	-0.268042	-0.000022
N71	N	0.796173	-0.311465	0.062183
H72	H	0.738971	-0.334155	0.062192
N73	N	0.893599	0.003327	0.583761
N74	N	0.853058	0.048232	0.635310
H75	H	0.796739	0.033092	0.658314
N76	N	1.147361	0.068816	0.582272
N77	N	1.126812	0.012861	0.629930
H78	H	1.170867	-0.026849	0.652007
H79	H	0.575783	0.001941	0.087377
H80	H	0.846949	-0.113565	-0.000028
H81	H	0.559951	0.227857	0.060477
N82	N	1.137755	-0.140933	-0.000033
N83	N	1.158751	-0.097513	-0.062237
H84	H	1.215960	-0.074838	-0.062252
H85	H	1.134702	0.079213	0.423696
H86	H	0.906137	0.011818	0.423951
N87	N	1.161401	-0.683216	-0.000026
N88	N	1.154817	-0.756027	-0.000026
H89	H	1.206706	-0.792186	-0.000022
H90	H	0.425204	0.089138	-0.147370
H91	H	1.014819	-0.024549	0.422615
H92	H	0.866767	0.160456	0.423434
H93	H	0.897995	-0.394996	-0.000032
H94	H	0.872126	-0.638940	-0.000025
H95	H	0.885489	-0.491001	-0.000044
H96	H	1.020272	-0.022866	0.575505
H97	H	0.569139	0.096808	-0.146951
N98	N	0.849633	0.157742	0.582559
N99	N	0.834504	0.158396	0.663930
H100	H	0.776127	0.149153	0.685897
H101	H	1.159866	-0.524877	-0.000026
N102	N	0.584106	-0.013039	-0.090993
N103	N	0.634221	-0.038598	-0.033042
H104	H	0.659506	-0.093903	-0.037545
H105	H	0.433051	-0.001731	-0.084068
H106	H	1.107960	-0.295390	-0.000023
N107	N	0.951581	0.246746	0.583884
N108	N	1.012596	0.253903	0.634564
H109	H	1.026225	0.307521	0.657459
H110	H	0.948019	0.231923	0.424025
