data_functionalizedCrystal
_audit_creation_method	'MofGen! by Chris Wilmer'
_symmetry_space_group_name_H-M	'P1'
_symmetry_Int_Tables_number	1
_symmetry_cell_setting	triclinic
loop_
_symmetry_equiv_pos_as_xyz
  x,y,z
_cell_length_a	13.262402
_cell_length_b	13.339070
_cell_length_c	7.681481
_cell_angle_alpha	82.700297
_cell_angle_beta	111.563932
_cell_angle_gamma	99.431904
loop_
_atom_site_label
_atom_site_type_symbol
_atom_site_fract_x
_atom_site_fract_y
_atom_site_fract_z
O1	O	1.459336	0.100431	0.552530
O2	O	1.150869	0.124892	0.404786
O3	O	1.269701	-0.033643	0.461707
O4	O	1.340504	0.258966	0.495609
O5	O	1.284314	-0.053199	0.761564
O6	O	1.165482	0.105336	0.704643
O7	O	1.473949	0.080875	0.852387
Zn8	Zn	1.322036	0.090001	0.826124
Zn9	Zn	1.302782	0.115766	0.431049
O10	O	1.355118	0.239410	0.795466
C11	C	1.117889	0.115540	0.535419
C12	C	0.997843	0.116797	0.477921
C13	C	0.933478	0.128046	0.287451
C14	C	0.820691	0.129237	0.233433
C15	C	0.772256	0.119170	0.369879
C16	C	0.836620	0.107913	0.560353
C17	C	0.949420	0.106731	0.614377
C18	C	0.788198	0.097855	0.696805
C19	C	0.852562	0.086598	0.887278
C20	C	0.965350	0.085415	0.941293
C21	C	1.013785	0.095481	0.804847
C22	C	0.675398	0.099037	0.642780
C23	C	0.691339	0.077722	0.969706
C24	C	0.804127	0.076531	1.023724
C25	C	1.265047	-0.080786	0.605905
C26	C	1.229396	-0.192122	0.588822
C27	C	1.506596	-0.564426	0.721591
C28	C	1.540095	-0.459822	0.737653
C29	C	1.462423	-0.392892	0.700446
C30	C	1.351246	-0.430575	0.647176
C31	C	1.317744	-0.535191	0.631127
C32	C	1.273571	-0.363657	0.609981
C33	C	1.162394	-0.401341	0.556711
C34	C	1.128898	-0.505946	0.540664
C35	C	1.206570	-0.572876	0.577871
C36	C	1.307074	-0.259042	0.626030
C37	C	1.118222	-0.229807	0.535566
C38	C	1.084722	-0.334410	0.519505
C39	C	1.506929	0.090227	0.721750
C40	C	1.626975	0.088971	0.779236
C41	C	1.359771	0.286553	0.651264
C42	C	1.395421	0.397889	0.668335
N43	N	1.335184	0.072415	1.095756
N44	N	1.289641	0.133343	0.161420
H45	H	0.680419	0.120140	0.325886
H46	H	0.972926	0.136249	0.176378
H47	H	1.381689	0.010229	1.193238
C48	C	1.226824	0.217355	1.029742
N49	N	1.179507	0.280634	0.930550
C50	C	1.137850	0.094122	0.864254
N51	N	1.231294	0.093081	0.908993
H52	H	1.569824	-0.618929	0.751894
H53	H	1.489706	-0.307719	0.713527
H54	H	1.017754	0.076258	1.096389
H55	H	1.630615	-0.429147	0.781027
C56	C	0.604609	0.111410	0.433264
N57	N	0.551290	0.120726	0.275443
C58	C	0.749897	0.141605	0.023918
N59	N	0.696572	0.150916	-0.133900
H60	H	1.179299	-0.658054	0.564789
H61	H	0.856548	0.067367	1.178811
C62	C	1.006601	-0.547396	0.482084
N63	N	0.914486	-0.578614	0.437959
C64	C	0.962430	-0.375879	0.460934
N65	N	0.870320	-0.407115	0.416825
H66	H	0.651905	0.069528	1.080813
C67	C	1.032776	-0.156187	0.494630
N68	N	0.968424	-0.100731	0.463802
H69	H	1.397595	-0.228370	0.669404
