data_functionalizedCrystal
_audit_creation_method	'MofGen! by Chris Wilmer'
_symmetry_space_group_name_H-M	'P1'
_symmetry_Int_Tables_number	1
_symmetry_cell_setting	triclinic
loop_
_symmetry_equiv_pos_as_xyz
  x,y,z
_cell_length_a	12.759401
_cell_length_b	19.121063
_cell_length_c	12.759393
_cell_angle_alpha	92.404035
_cell_angle_beta	89.979062
_cell_angle_gamma	92.470439
loop_
_atom_site_label
_atom_site_type_symbol
_atom_site_fract_x
_atom_site_fract_y
_atom_site_fract_z
Zn1	Zn	1.588334	-0.279551	-0.611809
Zn2	Zn	2.088334	0.220449	-0.111809
Zn3	Zn	1.580690	-0.397017	-0.443603
Zn4	Zn	2.080690	0.102983	0.056397
Zn5	Zn	1.412630	-0.279588	-0.436146
Zn6	Zn	1.912630	0.220412	0.063854
Zn7	Zn	1.405092	-0.396968	-0.619238
Zn8	Zn	1.905092	0.103032	-0.119238
O9	O	1.496686	-0.338281	-0.527699
O10	O	1.996686	0.161719	-0.027699
O11	O	1.734340	-0.295138	-0.589508
O12	O	2.234340	0.204862	-0.089508
O13	O	1.558352	-0.381476	-0.295595
O14	O	2.058352	0.118524	0.204405
O15	O	1.442291	-0.181299	-0.453218
O16	O	1.942291	0.318701	0.046782
O17	O	1.728724	-0.381440	-0.465928
O18	O	2.228724	0.118560	0.034072
O19	O	1.571380	-0.181271	-0.582277
O20	O	2.071380	0.318729	-0.082277
O21	O	1.434879	-0.295201	-0.290117
O22	O	1.934879	0.204799	0.209883
O23	O	1.264609	-0.295154	-0.460422
O24	O	1.764609	0.204846	0.039578
O25	O	1.429444	-0.381356	-0.765271
O26	O	1.929444	0.118644	-0.265271
O27	O	1.259071	-0.381393	-0.594938
O28	O	1.759071	0.118607	-0.094938
O29	O	1.564071	-0.295090	-0.759813
O30	O	2.064071	0.204910	-0.259813
O31	O	1.551042	-0.495295	-0.473132
O32	O	2.051042	0.004705	0.026868
O33	O	1.422032	-0.495259	-0.602169
O34	O	1.922032	0.004741	-0.102169
C35	C	1.223720	-0.338272	-0.527678
C36	C	1.723720	0.161728	-0.027678
C37	C	1.106942	-0.338286	-0.527694
C38	C	1.606942	0.161714	-0.027694
C39	C	1.049220	-0.383259	-0.597636
C40	C	1.549220	0.116741	-0.097636
C41	C	0.939495	-0.383261	-0.597657
C42	C	1.439495	0.116739	-0.097657
C43	C	0.945226	-0.293316	-0.457786
C44	C	1.445226	0.206684	0.042214
C45	C	1.054948	-0.293311	-0.457771
C46	C	1.554948	0.206689	0.042229
C47	C	1.484918	-0.520761	-0.539289
C48	C	1.984918	-0.020761	-0.039289
C49	C	1.479980	-0.598827	-0.544282
C50	C	1.979980	-0.098827	-0.044282
C51	C	1.544881	-0.635498	-0.479500
C52	C	2.044881	-0.135498	0.020500
C53	C	1.540243	-0.708849	-0.484203
C54	C	2.040243	-0.208849	0.015797
C55	C	1.470697	-0.745528	-0.553682
C56	C	1.970697	-0.245528	-0.053682
C57	C	1.405794	-0.708852	-0.618471
C58	C	1.905794	-0.208852	-0.118471
C59	C	1.410438	-0.635502	-0.613773
C60	C	1.910438	-0.135502	-0.113773
C61	C	1.453316	-0.966997	-0.571229
C62	C	1.953316	-0.466997	-0.071229
C63	C	1.448675	-1.040352	-0.575920
C64	C	1.948675	-0.540352	-0.075920
C65	C	1.583126	-1.040344	-0.441653
C66	C	2.083126	-0.540344	0.058347
C67	C	1.587759	-0.966993	-0.436957
C68	C	2.087759	-0.466993	0.063043
C69	C	1.522860	-0.930323	-0.501749
C70	C	2.022860	-0.430323	-0.001749
C71	C	1.465952	-0.820504	-0.558488
C72	C	1.965952	-0.320504	-0.058488
C73	C	1.527611	-0.855348	-0.496948
C74	C	2.027611	-0.355348	0.003052
C75	C	1.770719	-0.338290	-0.527721
C76	C	2.270719	0.161710	-0.027721
C77	C	1.887495	-0.338294	-0.527731
C78	C	2.387495	0.161706	-0.027731
C79	C	1.496769	-0.338214	-0.801728
C80	C	1.996769	0.161786	-0.301728
C81	C	1.496805	-0.338185	-0.918503
C82	C	1.996805	0.161815	-0.418503
C83	C	1.508529	-0.155088	-0.516087
C84	C	2.008529	0.344912	-0.016087
C85	C	1.513576	-0.077023	-0.511139
C86	C	2.013576	0.422977	-0.011139
C87	C	1.566910	-0.293259	-0.970524
C88	C	2.066910	0.206741	-0.470524
C89	C	1.566930	-0.293229	-1.080246
C90	C	2.066930	0.206771	-0.580246
C91	C	1.426735	-0.383056	-1.085917
C92	C	1.926735	0.116944	-0.585917
C93	C	1.426711	-0.383083	-0.976196
C94	C	1.926711	0.116917	-0.476196
C95	C	1.496667	-0.338298	-0.254733
C96	C	1.996667	0.161702	0.245267
C97	C	1.496848	-0.338128	-0.137946
C98	C	1.996848	0.161872	0.362054
H99	H	1.101948	-0.256684	-0.400816
H100	H	1.601948	0.243316	0.099184
O101	O	0.883384	-0.426849	-0.665701
O102	O	1.383384	0.073151	-0.165701
C103	C	0.822508	-0.386923	-0.731119
C104	C	1.322508	0.113077	-0.231119
H105	H	0.859143	-0.331610	-0.734230
H106	H	1.359143	0.168390	-0.234230
H107	H	0.819665	-0.412393	-0.813526
H108	H	1.319665	0.087607	-0.313526
H109	H	0.739491	-0.384480	-0.698502
H110	H	1.239491	0.115520	-0.198502
O111	O	1.635134	-0.249567	-1.130616
O112	O	2.135134	0.250433	-0.630616
C113	C	1.696971	-0.209934	-1.056161
C114	C	2.196971	0.290066	-0.556161
H115	H	1.698730	-0.238723	-0.979774
H116	H	2.198730	0.261277	-0.479774
H117	H	1.780239	-0.202439	-1.087402
H118	H	2.280239	0.297561	-0.587402
H119	H	1.661948	-0.156593	-1.041100
H120	H	2.161948	0.343407	-0.541100
O121	O	1.099769	-0.427015	-0.665418
O122	O	1.599769	0.072985	-0.165418
C123	C	1.160308	-0.472318	-0.608367
C124	C	1.660308	0.027682	-0.108367
H125	H	1.126927	-0.476595	-0.525885
H126	H	1.626927	0.023405	-0.025885
H127	H	1.158084	-0.526398	-0.649671
H128	H	1.658084	-0.026398	-0.149671
H129	H	1.244863	-0.450596	-0.603411
H130	H	1.744863	0.049404	-0.103411
H131	H	1.623982	-0.256698	-0.923553
H132	H	2.123982	0.243302	-0.423553
O133	O	1.358714	-0.426828	-0.925709
O134	O	1.858714	0.073172	-0.425709
C135	C	1.377134	-0.496824	-0.956974
C136	C	1.877134	0.003176	-0.456974
H137	H	1.460841	-0.500369	-0.987378
H138	H	1.960841	-0.000369	-0.487378
H139	H	1.365826	-0.531537	-0.887011
H140	H	1.865826	-0.031537	-0.387011
H141	H	1.319630	-0.515167	-1.021813
H142	H	1.819630	-0.015167	-0.521813
H143	H	1.584239	-0.825482	-0.440382
H144	H	2.084239	-0.325482	0.059618
H145	H	0.902879	-0.256700	-0.400855
H146	H	1.402879	0.243300	0.099145
H147	H	1.601508	-0.605639	-0.422919
H148	H	2.101508	-0.105639	0.077081
O149	O	1.603325	-0.744362	-0.421165
O150	O	2.103325	-0.244362	0.078835
C151	C	1.665715	-0.696260	-0.358847
C152	C	2.165715	-0.196260	0.141153
H153	H	1.625990	-0.644001	-0.351827
H154	H	2.125990	-0.144001	0.148173
H155	H	1.675617	-0.717491	-0.277438
H156	H	2.175617	-0.217491	0.222562
H157	H	1.745989	-0.688391	-0.396882
H158	H	2.245989	-0.188391	0.103118
O159	O	1.358755	-0.426649	-1.142124
O160	O	1.858755	0.073351	-0.642124
C161	C	1.373791	-0.416982	-1.250121
C162	C	1.873791	0.083018	-0.750121
H163	H	1.456362	-0.393980	-1.263662
H164	H	1.956362	0.106020	-0.763662
H165	H	1.363270	-0.469580	-1.295152
H166	H	1.863270	0.030420	-0.795152
H167	H	1.313900	-0.379569	-1.278878
H168	H	1.813900	0.120431	-0.778878
H169	H	1.644389	-0.937130	-0.380382
H170	H	2.144389	-0.437130	0.119618
H171	H	1.349173	-0.738721	-0.675047
H172	H	1.849173	-0.238721	-0.175047
O173	O	1.646138	-1.076074	-0.378837
O174	O	2.146138	-0.576074	0.121163
C175	C	1.627116	-1.148679	-0.397863
C176	C	2.127116	-0.648679	0.102137
H177	H	1.592020	-1.158673	-0.479547
H178	H	2.092020	-0.658673	0.020453
H179	H	1.704058	-1.176511	-0.392603
H180	H	2.204058	-0.676511	0.107397
H181	H	1.569891	-1.169564	-0.336824
H182	H	2.069891	-0.669564	0.163176
H183	H	1.400470	-0.937146	-0.623984
H184	H	1.900470	-0.437146	-0.123984
O185	O	1.381095	-1.075874	-0.643516
O186	O	1.881095	-0.575874	-0.143516
C187	C	1.324792	-1.027781	-0.699681
C188	C	1.824792	-0.527781	-0.199681
H189	H	1.371132	-0.975467	-0.700007
H190	H	1.871132	-0.475467	-0.200007
H191	H	1.312214	-1.048940	-0.783803
H192	H	1.812214	-0.548940	-0.283803
H193	H	1.245503	-1.020046	-0.660653
H194	H	1.745503	-0.520046	-0.160653
H195	H	1.357590	-0.605645	-0.666526
H196	H	1.857590	-0.105645	-0.166526
H197	H	1.409326	-0.850376	-0.615056
H198	H	1.909326	-0.350376	-0.115056
