data_functionalizedCrystal
_audit_creation_method	'MofGen! by Chris Wilmer'
_symmetry_space_group_name_H-M	'P1'
_symmetry_Int_Tables_number	1
_symmetry_cell_setting	triclinic
loop_
_symmetry_equiv_pos_as_xyz
  x,y,z
_cell_length_a	19.188933
_cell_length_b	16.992695
_cell_length_c	16.053802
_cell_angle_alpha	87.258926
_cell_angle_beta	92.571113
_cell_angle_gamma	86.906896
loop_
_atom_site_label
_atom_site_type_symbol
_atom_site_fract_x
_atom_site_fract_y
_atom_site_fract_z
O1	O	-0.934631	-0.094570	-0.069402
O2	O	-0.732091	-0.107744	-0.069410
O3	O	-0.832549	0.012983	-0.069399
O4	O	-0.834173	-0.215297	-0.069413
O5	O	-0.827018	0.006365	0.069459
O6	O	-0.726560	-0.114362	0.069448
O7	O	-0.929100	-0.101188	0.069456
Zn8	Zn	-0.826952	-0.108826	0.091499
Zn9	Zn	-0.834239	-0.100106	-0.091453
O10	O	-0.828642	-0.221914	0.069446
C11	C	-0.703290	-0.110626	0.000018
C12	C	-0.625711	-0.109344	0.000015
C13	C	-0.957902	-0.098306	0.000026
C14	C	-1.035481	-0.099587	0.000024
C15	C	-0.074935	-0.096592	-0.075667
C16	C	-0.147829	-0.097791	-0.075670
C17	C	-0.181266	-0.102002	0.000021
C18	C	-0.141804	-0.104993	0.075722
C19	C	-0.068912	-0.103786	0.075723
N20	N	-0.290764	-0.151192	0.056359
N21	N	-0.360009	-0.152340	0.056353
C22	C	-0.400888	-0.105637	0.000023
N23	N	-0.369906	-0.057752	-0.056314
N24	N	-0.300654	-0.056607	-0.056310
C25	C	-0.260306	-0.103310	0.000029
C26	C	-0.519382	-0.103940	-0.075677
C27	C	-0.592278	-0.105135	-0.075677
C28	C	-0.586251	-0.112345	0.075717
C29	C	-0.513357	-0.111143	0.075715
C30	C	-0.479927	-0.106944	0.000016
C31	C	-0.827695	0.038879	0.000030
C32	C	-0.821462	0.125902	0.000029
C33	C	-0.833497	-0.247811	0.000015
C34	C	-0.839730	-0.334833	0.000010
N35	N	-0.821984	-0.114776	0.216359
C36	C	-0.881601	0.176348	0.000032
C37	C	-0.875741	0.258115	0.000024
C38	C	-0.809740	0.289434	0.000019
C39	C	-0.749596	0.238981	0.000013
C40	C	-0.755457	0.157216	0.000015
C41	C	-0.785448	0.532949	0.000006
C42	C	-0.779591	0.614720	0.000007
C43	C	-0.905736	0.633848	0.000016
C44	C	-0.911591	0.552081	0.000023
C45	C	-0.851448	0.501636	0.000013
N46	N	-0.803748	0.373012	0.000013
N47	N	-0.857440	0.418059	0.000013
N48	N	-0.839213	-0.094150	-0.216313
C49	C	-0.864746	-0.063425	0.260057
C50	C	-0.861278	-0.067594	0.347464
C51	C	-0.815050	-0.123119	0.391170
C52	C	-0.772283	-0.174473	0.347466
C53	C	-0.775748	-0.170299	0.260061
C54	C	-0.799911	-0.141329	0.652578
C55	C	-0.796450	-0.145501	0.739989
C56	C	-0.885445	-0.038621	0.739981
C57	C	-0.888909	-0.034455	0.652575
C58	C	-0.846140	-0.085806	0.608878
N59	N	-0.811505	-0.127384	0.480513
N60	N	-0.849681	-0.081537	0.519536
H61	H	-0.047720	-0.093170	-0.137307
H62	H	-0.725842	0.640216	0.000016
Cl63	Cl	-0.019310	-0.107556	0.170884
Cl64	Cl	-0.641878	-0.101360	-0.170840
H65	H	-0.169034	-0.108420	0.137350
Cl66	Cl	-0.964577	0.136984	0.000048
Cl67	Cl	-0.915037	-0.003037	0.402400
Cl68	Cl	-0.709838	0.469543	-0.000008
H69	H	-0.758804	-0.190719	0.775571
Cl70	Cl	-0.666624	0.278354	-0.000004
Cl71	Cl	-0.679850	0.093798	0.000008
H72	H	-0.179958	-0.095356	-0.137308
Cl73	Cl	-0.477352	-0.098656	-0.170839
Cl74	Cl	-0.628281	-0.117626	0.170873
Cl75	Cl	-0.463755	-0.114922	0.170874
Cl76	Cl	-0.947026	0.035347	0.597629
Cl77	Cl	-0.951348	0.321530	0.000031
Cl78	Cl	-0.721984	-0.234855	0.205126
H79	H	-0.902393	-0.018214	0.224477
H80	H	-0.965336	0.526587	0.000028
Cl81	Cl	-0.939207	0.025933	0.794918
H82	H	-0.954701	0.674929	0.000023
Cl83	Cl	-0.746148	-0.205886	0.597651
H84	H	-0.734639	-0.219680	0.383056
