data_functionalizedCrystal
_audit_creation_method	'MofGen! by Chris Wilmer'
_symmetry_space_group_name_H-M	'P1'
_symmetry_Int_Tables_number	1
_symmetry_cell_setting	triclinic
loop_
_symmetry_equiv_pos_as_xyz
  x,y,z
_cell_length_a	11.169417
_cell_length_b	13.897441
_cell_length_c	11.169416
_cell_angle_alpha	89.974103
_cell_angle_beta	90.011219
_cell_angle_gamma	89.981458
loop_
_atom_site_label
_atom_site_type_symbol
_atom_site_fract_x
_atom_site_fract_y
_atom_site_fract_z
Zn1	Zn	1.834947	-0.545356	-0.477741
Zn2	Zn	1.834841	-0.384071	-0.678464
Zn3	Zn	1.634237	-0.384081	-0.477796
Zn4	Zn	1.634240	-0.545330	-0.678384
O5	O	1.734567	-0.464709	-0.578096
O6	O	2.002883	-0.523968	-0.504377
O7	O	1.808185	-0.249091	-0.651902
O8	O	1.660905	-0.405490	-0.309839
O9	O	2.002805	-0.405473	-0.651848
O10	O	1.808366	-0.523978	-0.309798
O11	O	1.660802	-0.249098	-0.504472
O12	O	1.466288	-0.405464	-0.504395
O13	O	1.660910	-0.680315	-0.651711
O14	O	1.466290	-0.523933	-0.651765
O15	O	1.808369	-0.680334	-0.504300
O16	O	1.808188	-0.405447	-0.846403
O17	O	1.660807	-0.523923	-0.846344
C18	C	1.422742	-0.464697	-0.578078
C19	C	1.289342	-0.464715	-0.578099
C20	C	1.734652	-0.716303	-0.577990
C21	C	1.734688	-0.823517	-0.577945
C22	C	1.734721	-1.019812	-0.577864
C23	C	1.734699	-0.910579	-0.577912
C24	C	2.047609	-0.464722	-0.578115
C25	C	2.181009	-0.464728	-0.578123
C26	C	1.734519	-0.464702	-0.889921
C27	C	1.734608	-0.464731	-1.023321
C28	C	1.734551	-0.214095	-0.578115
C29	C	1.734747	-0.106882	-0.577822
C30	C	1.734647	-0.464738	-0.265054
C31	C	1.734681	-0.464750	-0.131654
