data_functionalizedCrystal
_audit_creation_method	'MofGen! by Chris Wilmer'
_symmetry_space_group_name_H-M	'P1'
_symmetry_Int_Tables_number	1
_symmetry_cell_setting	triclinic
loop_
_symmetry_equiv_pos_as_xyz
  x,y,z
_cell_length_a	16.959454
_cell_length_b	19.805407
_cell_length_c	19.805399
_cell_angle_alpha	90.017803
_cell_angle_beta	90.022387
_cell_angle_gamma	90.017392
loop_
_atom_site_label
_atom_site_type_symbol
_atom_site_fract_x
_atom_site_fract_y
_atom_site_fract_z
Zn1	Zn	-0.314756	1.034765	0.382712
Zn2	Zn	-0.446939	1.034693	0.269534
Zn3	Zn	-0.314772	0.921580	0.269540
Zn4	Zn	-0.446891	0.921556	0.382684
O5	O	-0.380840	0.978149	0.326118
O6	O	-0.332304	1.129472	0.367708
O7	O	-0.429433	1.019668	0.174818
O8	O	-0.204159	0.936635	0.284567
O9	O	-0.429418	1.129419	0.284556
O10	O	-0.204148	1.019792	0.367714
O11	O	-0.332331	0.936564	0.174823
O12	O	-0.332284	0.826860	0.284540
O13	O	-0.429336	0.936594	0.477405
O14	O	-0.429351	0.826843	0.367666
O15	O	-0.332258	1.019768	0.477425
O16	O	-0.557543	1.019645	0.284530
O17	O	-0.557508	0.936524	0.367661
C18	C	-0.380815	0.802293	0.326101
C19	C	-0.380823	0.727061	0.326110
C20	C	-0.330345	0.691745	0.369473
C21	C	-0.330350	0.621056	0.369476
C22	C	-0.380836	0.585685	0.326118
C23	C	-0.431316	0.621006	0.282751
C24	C	-0.431307	0.691693	0.282745
C25	C	-0.431352	0.335932	0.282772
C26	C	-0.431358	0.265240	0.282782
C27	C	-0.330394	0.265296	0.369502
C28	C	-0.330385	0.335983	0.369496
C29	C	-0.380862	0.371298	0.326127
C30	C	-0.380856	0.447946	0.326123
C31	C	-0.380847	0.509038	0.326125
C32	C	-0.586206	0.978092	0.326106
C33	C	-0.674062	0.978130	0.326124
C34	C	-1.045549	0.934930	0.369399
C35	C	-1.045526	1.021555	0.282905
C36	C	-0.962981	1.021532	0.282899
C37	C	-0.921715	0.978206	0.326143
C38	C	-0.962996	0.934904	0.369393
C39	C	-0.921694	1.064828	0.239644
C40	C	-0.839143	1.064806	0.239636
C41	C	-0.797876	1.021483	0.282884
C42	C	-0.839162	0.978180	0.326136
C43	C	-0.797897	0.934854	0.369380
C44	C	-0.839181	0.891553	0.412637
C45	C	-0.921729	0.891581	0.412641
C46	C	-0.715328	1.021455	0.282880
C47	C	-0.715343	0.934827	0.369374
C48	C	-0.174671	0.978224	0.326144
C49	C	-0.086815	0.978256	0.326155
C50	C	-0.380790	0.978187	0.502660
C51	C	-0.380769	0.978203	0.577892
C52	C	-0.380865	1.154691	0.326135
C53	C	-0.380876	1.229923	0.326142
C54	C	-0.380832	0.978150	0.150262
C55	C	-0.380631	0.978265	0.075030
C56	C	-0.330217	1.021513	0.613248
C57	C	-0.330194	1.021520	0.683937
C58	C	-0.380727	0.978220	0.719268
C59	C	-0.431281	0.934905	0.683907
C60	C	-0.431299	0.934895	0.613220
C61	C	-0.431207	0.934943	0.968981
C62	C	-0.431186	0.934958	1.039673
C63	C	-0.330102	1.021568	1.039697
C64	C	-0.330121	1.021558	0.969010
C65	C	-0.380671	0.978241	0.933656
C66	C	-0.380694	0.978233	0.857007
C67	C	-0.380709	0.978230	0.795915
H68	H	-0.289247	0.592306	0.404787
O69	O	-0.485685	0.888244	1.077780
H70	H	-0.525905	0.918523	1.109980
O71	O	-0.485766	0.582859	0.235981
H72	H	-0.526039	0.550663	0.266216
O73	O	-0.794621	1.111516	0.192991
H74	H	-0.757054	1.081238	0.158519
H75	H	-0.472380	0.899682	0.940204
O76	O	-0.485804	0.227085	0.236008
H77	H	-0.520895	0.263516	0.205843
H78	H	-1.079167	0.899678	0.404620
H79	H	-0.472423	0.899647	0.712680
H80	H	-0.681718	1.056707	0.247658
O81	O	-0.275887	0.729895	0.416233
H82	H	-0.240781	0.693459	0.446380
O83	O	-0.275926	0.374136	0.416253
H84	H	-0.240817	0.337702	0.446401
H85	H	-0.289070	1.056775	0.584487
O86	O	-0.275936	0.227208	0.416272
H87	H	-0.284412	0.172112	0.408988
H88	H	-0.472454	0.364677	0.247458
H89	H	-0.472411	0.720446	0.247434
O90	O	-0.275676	1.068236	0.722073
H91	H	-0.240550	1.098350	0.685630
H92	H	-0.681750	0.899549	0.404591
O93	O	-0.485811	0.888174	0.575081
H94	H	-0.520948	0.858066	0.611523
O95	O	-0.794672	0.844824	0.459280
H96	H	-0.730336	0.852085	0.452006
H97	H	-1.079129	1.056825	0.247694
H98	H	-0.955298	1.100097	0.204432
O99	O	-0.966254	0.844868	0.459280
H100	H	-1.030587	0.852157	0.452009
H101	H	-0.288974	1.056819	0.940247
H102	H	-0.288939	1.056836	1.068492
