data_functionalizedCrystal
_audit_creation_method	'MofGen! by Chris Wilmer'
_symmetry_space_group_name_H-M	'P1'
_symmetry_Int_Tables_number	1
_symmetry_cell_setting	triclinic
loop_
_symmetry_equiv_pos_as_xyz
  x,y,z
_cell_length_a	10.654549
_cell_length_b	15.944493
_cell_length_c	9.730223
_cell_angle_alpha	90.001475
_cell_angle_beta	89.997731
_cell_angle_gamma	83.979910
loop_
_atom_site_label
_atom_site_type_symbol
_atom_site_fract_x
_atom_site_fract_y
_atom_site_fract_z
O1	O	1.666276	0.117978	-0.114238
O2	O	1.300649	0.129219	-0.114246
O3	O	1.493485	0.001378	-0.114254
O4	O	1.473440	0.245818	-0.114231
O5	O	1.493472	0.001375	0.114326
O6	O	1.300636	0.129215	0.114334
O7	O	1.666264	0.117974	0.114341
Zn8	Zn	1.483448	0.123594	0.150630
Zn9	Zn	1.483464	0.123599	-0.150534
O10	O	1.473428	0.245815	0.114349
C11	C	1.253855	0.128391	0.000042
C12	C	1.114445	0.125922	0.000038
C13	C	0.902964	0.198866	0.000051
C14	C	1.033953	0.201193	0.000043
C15	C	1.063941	0.048320	0.000028
C16	C	0.932953	0.045995	0.000026
C17	C	1.492659	-0.029923	0.000030
C18	C	1.490203	-0.123186	0.000013
C19	C	1.603711	-0.358289	0.000041
C20	C	1.542507	-0.409210	-0.112661
C21	C	1.485652	-0.293933	0.000030
C22	C	1.542467	-0.409189	0.112701
C23	C	1.481265	-0.458868	0.000052
C24	C	1.424479	-0.343626	-0.112766
C25	C	1.424457	-0.343602	0.112697
C26	C	1.363166	-0.394490	-0.000033
C27	C	1.488183	-0.198919	0.000016
C28	C	1.478725	-0.553880	0.000056
C29	C	1.713057	0.118801	0.000050
C30	C	1.852468	0.121271	0.000045
C31	C	1.474253	0.277116	0.000062
C32	C	1.476709	0.370379	0.000070
N33	N	1.483446	0.123590	0.356166
N34	N	1.483476	0.123596	-0.356071
C35	C	1.568863	0.067007	0.428089
C36	C	1.568875	0.067007	0.571972
C37	C	1.398050	0.180182	0.571996
C38	C	1.398033	0.180177	0.428116
H39	H	1.129488	-0.012966	0.000017
H40	H	1.374655	-0.315093	-0.208149
H41	H	0.891840	-0.017197	0.000017
H42	H	1.328470	0.226255	0.369553
Cl43	Cl	1.206041	-0.419283	-0.000126
Cl44	Cl	1.676258	-0.004131	0.662385
H45	H	0.837435	0.260161	0.000065
Cl46	Cl	1.760713	-0.333247	-0.000124
H47	H	1.638410	0.020929	0.369510
H48	H	1.374637	-0.314931	0.207981
H49	H	1.592370	-0.437865	-0.207942
H50	H	1.592344	-0.437833	0.207976
H51	H	1.075060	0.264379	0.000047
Cl52	Cl	1.290683	0.251320	0.662454
