data_functionalizedCrystal
_audit_creation_method	'MofGen! by Chris Wilmer'
_symmetry_space_group_name_H-M	'P1'
_symmetry_Int_Tables_number	1
_symmetry_cell_setting	triclinic
loop_
_symmetry_equiv_pos_as_xyz
  x,y,z
_cell_length_a	17.077404
_cell_length_b	25.639240
_cell_length_c	17.077396
_cell_angle_alpha	89.961743
_cell_angle_beta	89.980499
_cell_angle_gamma	90.032983
loop_
_atom_site_label
_atom_site_type_symbol
_atom_site_fract_x
_atom_site_fract_y
_atom_site_fract_z
Zn1	Zn	1.200001	-0.208148	-0.443789
Zn2	Zn	1.700001	0.291852	0.056211
Zn3	Zn	1.199885	-0.295585	-0.312501
Zn4	Zn	1.699885	0.204415	0.187499
Zn5	Zn	1.068733	-0.208166	-0.312537
Zn6	Zn	1.568733	0.291834	0.187463
Zn7	Zn	1.068678	-0.295554	-0.443725
Zn8	Zn	1.568678	0.204446	0.056275
O9	O	1.134324	-0.251863	-0.378138
O10	O	1.634324	0.248137	0.121862
O11	O	1.309832	-0.219752	-0.426386
O12	O	1.809832	0.280248	0.073614
O13	O	1.182462	-0.284010	-0.202659
O14	O	1.682462	0.215990	0.297341
O15	O	1.086217	-0.134998	-0.329991
O16	O	1.586217	0.365002	0.170009
O17	O	1.309747	-0.283992	-0.329929
O18	O	1.809747	0.216008	0.170071
O19	O	1.182659	-0.134985	-0.426421
O20	O	1.682659	0.365015	0.073579
O21	O	1.086105	-0.219783	-0.202686
O22	O	1.586105	0.280217	0.297314
O23	O	0.958878	-0.219753	-0.329928
O24	O	1.458878	0.280247	0.170072
O25	O	1.086124	-0.283939	-0.553580
O26	O	1.586124	0.216061	-0.053580
O27	O	0.958838	-0.283957	-0.426310
O28	O	1.458838	0.216043	0.073690
O29	O	1.182606	-0.219722	-0.553628
O30	O	1.682606	0.280278	-0.053628
O31	O	1.182409	-0.368746	-0.329866
O32	O	1.682409	0.131254	0.170134
O33	O	1.086012	-0.368724	-0.426275
O34	O	1.586012	0.131276	0.073725
C35	C	0.930376	-0.251854	-0.378116
C36	C	1.430376	0.248146	0.121884
C37	C	0.843126	-0.251862	-0.378126
C38	C	1.343126	0.248138	0.121874
C39	C	0.802136	-0.285344	-0.428232
C40	C	1.302136	0.214656	0.071768
C41	C	0.720155	-0.285345	-0.428244
C42	C	1.220155	0.214655	0.071756
C43	C	0.679167	-0.251867	-0.378146
C44	C	1.179167	0.248133	0.121854
C45	C	0.720163	-0.218382	-0.328038
C46	C	1.220163	0.281618	0.171962
C47	C	0.802142	-0.218378	-0.328030
C48	C	1.302142	0.281622	0.171970
C49	C	0.549293	-0.218392	-0.328057
C50	C	1.049293	0.281608	0.171943
C51	C	0.467309	-0.218396	-0.328064
C52	C	0.967309	0.281604	0.171936
C53	C	0.467307	-0.285358	-0.428271
C54	C	0.967307	0.214642	0.071729
C55	C	0.549285	-0.285355	-0.428263
C56	C	1.049285	0.214645	0.071737
C57	C	0.590276	-0.251871	-0.378154
C58	C	1.090276	0.248129	0.121846
C59	C	1.134213	-0.387706	-0.378077
C60	C	1.634213	0.112294	0.121923
C61	C	1.134238	-0.445820	-0.378076
C62	C	1.634238	0.054180	0.121924
C63	C	1.184567	-0.806137	-0.428440
C64	C	1.684567	-0.306137	0.071560
C65	C	1.184590	-0.860742	-0.428456
C66	C	1.684590	-0.360742	0.071544
O67	O	1.227249	-0.888940	-0.471213
O68	O	1.727249	-0.388940	0.028787
N69	N	1.134433	-0.888102	-0.378214
N70	N	1.634433	-0.388102	0.121786
C71	C	1.084244	-0.860856	-0.327958
C72	C	1.584244	-0.360856	0.172042
O73	O	1.041584	-0.889142	-0.285226
O74	O	1.541584	-0.389142	0.214774
C75	C	1.084218	-0.806252	-0.327947
C76	C	1.584218	-0.306252	0.172053
C77	C	1.134383	-0.778895	-0.378187
C78	C	1.634383	-0.278895	0.121813
C79	C	1.234727	-0.778780	-0.478676
C80	C	1.734727	-0.278780	0.021324
C81	C	1.234705	-0.724179	-0.478659
C82	C	1.734705	-0.224179	0.021341
C83	C	1.184522	-0.696936	-0.428406
C84	C	1.684522	-0.196936	0.071594
C85	C	1.134361	-0.724294	-0.378169
C86	C	1.634361	-0.224294	0.121831
C87	C	1.034026	-0.779007	-0.277696
C88	C	1.534026	-0.279007	0.222304
C89	C	1.034003	-0.724400	-0.277689
C90	C	1.534003	-0.224400	0.222311
C91	C	1.084169	-0.697042	-0.327929
C92	C	1.584169	-0.197042	0.172071
C93	C	1.084156	-0.642451	-0.327899
C94	C	1.584156	-0.142451	0.172101
N95	N	1.134312	-0.615090	-0.378141
N96	N	1.634312	-0.115090	0.121859
C97	C	1.184495	-0.642333	-0.428394
C98	C	1.684495	-0.142333	0.071606
C99	C	1.084303	-0.975526	-0.327987
C100	C	1.584303	-0.475526	0.172013
C101	C	1.084333	-1.030129	-0.327994
C102	C	1.584333	-0.530129	0.172006
C103	C	1.184677	-1.030011	-0.428493
C104	C	1.684677	-0.530011	0.071507
C105	C	1.184651	-0.975408	-0.428481
C106	C	1.684651	-0.475408	0.071519
C107	C	1.134460	-0.948166	-0.378229
C108	C	1.634460	-0.448166	0.121771
C109	C	1.184445	-0.527668	-0.428354
C110	C	1.684445	-0.027668	0.071646
C111	C	1.184421	-0.473063	-0.428330
C112	C	1.684421	0.026937	0.071670
C113	C	1.084074	-0.473185	-0.327834
C114	C	1.584074	0.026815	0.172166
C115	C	1.084101	-0.527786	-0.327855
C116	C	1.584101	-0.027786	0.172145
C117	C	1.134289	-0.555026	-0.378121
C118	C	1.634289	-0.055026	0.121879
O119	O	1.041516	-0.614218	-0.285165
O120	O	1.541516	-0.114218	0.214835
O121	O	1.227141	-0.614040	-0.471127
O122	O	1.727141	-0.114040	0.028873
C123	C	1.339068	-0.251873	-0.378160
C124	C	1.839068	0.248127	0.121840
C125	C	1.426318	-0.251877	-0.378170
C126	C	1.926318	0.248123	0.121830
C127	C	1.134372	-0.251825	-0.582882
C128	C	1.634372	0.248175	-0.082882
C129	C	1.134392	-0.251808	-0.670132
C130	C	1.634392	0.248192	-0.170132
C131	C	1.134457	-0.115490	-0.378217
C132	C	1.634457	0.384510	0.121783
C133	C	1.134513	-0.057376	-0.378251
C134	C	1.634513	0.442624	0.121749
C135	C	1.184632	-0.218368	-0.711149
C136	C	1.684632	0.281632	-0.211149
C137	C	1.184641	-0.218350	-0.793129
C138	C	1.684641	0.281650	-0.293129
C139	C	1.134414	-0.251777	-0.834092
C140	C	1.634414	0.248223	-0.334092
C141	C	1.084168	-0.285219	-0.793070
C142	C	1.584168	0.214781	-0.293070
C143	C	1.084156	-0.285233	-0.711091
C144	C	1.584156	0.214767	-0.211091
C145	C	1.084200	-0.285187	-0.963940
C146	C	1.584200	0.214813	-0.463940
C147	C	1.084214	-0.285174	-1.045925
C148	C	1.584214	0.214826	-0.545925
C149	C	1.184686	-0.218304	-1.045978
C150	C	1.684686	0.281696	-0.545978
C151	C	1.184673	-0.218319	-0.963999
C152	C	1.684673	0.281681	-0.463999
C153	C	1.134428	-0.251762	-0.922983
C154	C	1.634428	0.248238	-0.422983
C155	C	1.134322	-0.251864	-0.174190
C156	C	1.634322	0.248136	0.325810
C157	C	1.134454	-0.251733	-0.086941
C158	C	1.634454	0.248267	0.413059
H159	H	0.686785	-0.312609	-0.469045
H160	H	1.186785	0.187391	0.030955
C161	C	1.073207	-0.355533	-0.885214
C162	C	1.573207	0.144467	-0.385214
C163	C	1.028957	-0.321962	-0.838094
C164	C	1.528957	0.178038	-0.338094
H165	H	1.039120	-0.378219	-0.913004
H166	H	1.539120	0.121781	-0.413004
H167	H	1.103123	-0.335615	-0.921372
H168	H	1.603123	0.164385	-0.421372
H169	H	1.107379	-0.375538	-0.853217
H170	H	1.607379	0.124462	-0.353217
H171	H	0.994788	-0.301955	-0.870091
H172	H	1.494788	0.198045	-0.370091
H173	H	0.999028	-0.341883	-0.801931
H174	H	1.499028	0.158117	-0.301931
C175	C	0.641434	-0.355688	-0.438952
C176	C	1.141434	0.144312	0.061048
C177	C	0.594343	-0.322154	-0.483331
C178	C	1.094343	0.177846	0.016669
H179	H	0.669247	-0.378406	-0.472952
H180	H	1.169247	0.121594	0.027048
H181	H	0.677573	-0.335745	-0.409114
H182	H	1.177573	0.164255	0.090886
H183	H	0.609415	-0.375660	-0.404702
H184	H	1.109415	0.124340	0.095298
H185	H	0.626363	-0.302178	-0.517577
H186	H	1.126363	0.197822	-0.017577
H187	H	0.558201	-0.342098	-0.513182
H188	H	1.058201	0.157902	-0.013182
H189	H	1.043312	-0.312391	-1.079274
H190	H	1.543312	0.187609	-0.579274
C191	C	0.985127	-0.981136	-0.228641
C192	C	1.485127	-0.481136	0.271359
C193	C	1.029138	-0.945585	-0.272734
C194	C	1.529138	-0.445585	0.227266
H195	H	0.951074	-0.962652	-0.194528
H196	H	1.451074	-0.462652	0.305472
H197	H	0.955093	-1.002430	-0.262820
H198	H	1.455093	-0.502430	0.237180
H199	H	1.019369	-1.002431	-0.198659
H200	H	1.519369	-0.502431	0.301341
H201	H	0.994896	-0.924292	-0.302721
H202	H	1.494896	-0.424292	0.197279
H203	H	1.059174	-0.924282	-0.238550
H204	H	1.559174	-0.424282	0.261450
H205	H	1.225535	-0.191150	-0.677802
H206	H	1.725535	0.308850	-0.177802
C207	C	1.195467	-0.913941	-0.534071
C208	C	1.695467	-0.413941	-0.034071
C209	C	1.239787	-0.945336	-0.483710
C210	C	1.739787	-0.445336	0.016290
H211	H	1.229508	-0.895376	-0.568165
H212	H	1.729508	-0.395376	-0.068165
H213	H	1.161266	-0.935249	-0.564065
H214	H	1.661266	-0.435249	-0.064065
H215	H	1.165580	-0.889900	-0.504135
H216	H	1.665580	-0.389900	-0.004135
H217	H	1.269670	-0.969380	-0.513646
H218	H	1.769670	-0.469380	-0.013646
H219	H	1.274001	-0.924027	-0.453713
H220	H	1.774001	-0.424027	0.046287
H221	H	1.043237	-0.312459	-0.677696
H222	H	1.543237	0.187541	-0.177696
H223	H	0.993176	-0.801272	-0.236785
H224	H	1.493176	-0.301272	0.263215
H225	H	0.433928	-0.312621	-0.469074
H226	H	0.933928	0.187379	0.030926
H227	H	1.225577	-0.191103	-0.930649
H228	H	1.725577	0.308897	-0.430649
H229	H	0.993129	-0.702222	-0.236769
H230	H	1.493129	-0.202222	0.263231
H231	H	1.225596	-0.191073	-1.079378
H232	H	1.725596	0.308927	-0.579378
C233	C	1.229253	-1.113667	-0.473141
C234	C	1.729253	-0.613667	0.026859
C235	C	1.239834	-1.059963	-0.483741
C236	C	1.739834	-0.559963	0.016259
H237	H	1.263299	-1.132158	-0.507250
H238	H	1.763299	-0.632158	-0.007250
H239	H	1.240781	-1.122634	-0.420418
H240	H	1.740781	-0.622634	0.079582
H241	H	1.176503	-1.122630	-0.484578
H242	H	1.676503	-0.622630	0.015422
H243	H	1.292583	-1.050999	-0.472298
H244	H	1.792583	-0.550999	0.027702
H245	H	1.228311	-1.050993	-0.536475
H246	H	1.728311	-0.550993	-0.036475
C247	C	1.195327	-0.588997	-0.533987
C248	C	1.695327	-0.088997	-0.033987
C249	C	1.239613	-0.557607	-0.483604
C250	C	1.739613	-0.057607	0.016396
H251	H	1.229388	-0.607478	-0.568095
H252	H	1.729388	-0.107478	-0.068095
H253	H	1.165467	-0.613107	-0.504073
H254	H	1.665467	-0.113107	-0.004073
H255	H	1.161101	-0.567693	-0.563971
H256	H	1.661101	-0.067693	-0.063971
H257	H	1.273835	-0.578912	-0.453615
H258	H	1.773835	-0.078912	0.046385
H259	H	1.269486	-0.533494	-0.513521
H260	H	1.769486	-0.033494	-0.013521
H261	H	0.433938	-0.191129	-0.287279
H262	H	0.933938	0.308871	0.212721
C263	C	0.984910	-0.522415	-0.228517
C264	C	1.484910	-0.022415	0.271483
C265	C	1.028961	-0.557861	-0.272630
C266	C	1.528961	-0.057861	0.227370
H267	H	0.950862	-0.540980	-0.194432
H268	H	1.450862	-0.040980	0.305568
H269	H	1.019121	-0.501121	-0.198513
H270	H	1.519121	-0.001121	0.301487
H271	H	0.954863	-0.501110	-0.262692
H272	H	1.454863	-0.001110	0.237308
H273	H	1.059013	-0.579163	-0.238455
H274	H	1.559013	-0.079163	0.261545
H275	H	0.994745	-0.579164	-0.302636
H276	H	1.494745	-0.079164	0.197364
C277	C	0.541065	-0.152212	-0.228989
C278	C	1.041065	0.347788	0.271011
C279	C	0.594352	-0.181591	-0.272967
C280	C	1.094352	0.318409	0.227033
H281	H	0.568884	-0.129499	-0.194973
H282	H	1.068884	0.370501	0.305027
H283	H	0.509127	-0.132238	-0.263247
H284	H	1.009127	0.367762	0.236753
H285	H	0.509054	-0.174975	-0.198909
H286	H	1.009054	0.325025	0.301091
H287	H	0.626360	-0.158828	-0.303051
H288	H	1.126360	0.341172	0.196949
H289	H	0.626303	-0.201567	-0.238704
H290	H	1.126303	0.298433	0.261296
H291	H	0.686784	-0.191121	-0.287251
H292	H	1.186784	0.308879	0.212749
H293	H	1.275552	-0.701908	-0.519570
H294	H	1.775552	-0.201908	-0.019570
H295	H	1.043273	-0.312412	-0.930547
H296	H	1.543273	0.187588	-0.430547
H297	H	0.835503	-0.312607	-0.469025
H298	H	1.335503	0.187393	0.030975
C299	C	0.793915	-0.152198	-0.228969
C300	C	1.293915	0.347802	0.271031
C301	C	0.847202	-0.181579	-0.272945
C302	C	1.347202	0.318421	0.227055
H303	H	0.821735	-0.129482	-0.194958
H304	H	1.321735	0.370518	0.305042
H305	H	0.761975	-0.132228	-0.263229
H306	H	1.261975	0.367772	0.236771
H307	H	0.761907	-0.174961	-0.198884
H308	H	1.261907	0.325039	0.301116
H309	H	0.879207	-0.158817	-0.303034
H310	H	1.379207	0.341183	0.196966
H311	H	0.879157	-0.201551	-0.238680
H312	H	1.379157	0.298449	0.261320
H313	H	1.225554	-0.191121	-0.826521
H314	H	1.725554	0.308879	-0.326521
H315	H	1.225274	-0.450790	-0.469241
H316	H	1.725274	0.049210	0.030759
H317	H	1.275592	-0.800955	-0.519603
H318	H	1.775592	-0.300955	-0.019603
C319	C	0.978772	-1.091595	-0.317002
C320	C	1.478772	-0.591595	0.182998
C321	C	1.029193	-1.060197	-0.272765
C322	C	1.529193	-0.560197	0.227235
H323	H	0.944731	-1.110158	-0.282906
H324	H	1.444731	-0.610158	0.217094
H325	H	0.948724	-1.070290	-0.351164
H326	H	1.448724	-0.570290	0.148836
H327	H	1.008667	-1.115638	-0.346926
H328	H	1.508667	-0.615638	0.153074
H329	H	0.999298	-1.036152	-0.242845
H330	H	1.499298	-0.536152	0.257155
H331	H	1.059244	-1.081504	-0.238589
H332	H	1.559244	-0.581504	0.261411
H333	H	1.043217	-0.450996	-0.286916
H334	H	1.543217	0.049004	0.213084
