data_functionalizedCrystal
_audit_creation_method	'MofGen! by Chris Wilmer'
_symmetry_space_group_name_H-M	'P1'
_symmetry_Int_Tables_number	1
_symmetry_cell_setting	triclinic
loop_
_symmetry_equiv_pos_as_xyz
  x,y,z
_cell_length_a	16.974885
_cell_length_b	27.731996
_cell_length_c	16.053802
_cell_angle_alpha	92.537600
_cell_angle_beta	91.069328
_cell_angle_gamma	83.008319
loop_
_atom_site_label
_atom_site_type_symbol
_atom_site_fract_x
_atom_site_fract_y
_atom_site_fract_z
O1	O	1.048299	0.061630	0.001325
O2	O	0.818747	0.069026	-0.014174
O3	O	0.940673	-0.005028	-0.005923
O4	O	0.926373	0.135684	-0.006925
O5	O	0.933962	-0.000969	0.132481
O6	O	0.812036	0.073085	0.124231
O7	O	1.041588	0.065689	0.139730
Zn8	Zn	0.925747	0.070032	0.153955
Zn9	Zn	0.934589	0.064683	-0.028399
O10	O	0.919662	0.139743	0.131480
C11	C	0.786033	0.070700	0.053047
C12	C	0.698555	0.069633	0.047141
C13	C	0.206543	0.063371	0.005743
C14	C	0.288738	0.064374	0.011304
C15	C	0.326168	0.067092	0.089529
C16	C	0.281400	0.068802	0.162199
C17	C	0.199208	0.067795	0.156638
C18	C	0.571594	0.070336	0.114250
C19	C	0.653793	0.071344	0.119806
C20	C	0.661125	0.066915	-0.031090
C21	C	0.578929	0.065912	-0.036644
C22	C	0.534169	0.067619	0.036026
N23	N	0.410184	0.068119	0.095214
N24	N	0.450156	0.066589	0.030340
C25	C	0.937024	-0.021007	0.063262
C26	C	0.936138	-0.074669	0.063211
C27	C	0.934231	-0.409632	-0.012650
C28	C	0.930871	-0.611310	-0.012892
O29	O	0.933514	-0.639265	-0.077087
N30	N	0.926796	-0.634317	0.062524
C31	C	0.923555	-0.606900	0.138005
O32	O	0.920003	-0.631096	0.202144
C33	C	0.926909	-0.405223	0.138245
C34	C	0.930993	-0.382219	0.062825
C35	C	0.938313	-0.386628	-0.088064
C36	C	0.939158	-0.336212	-0.088003
C37	C	0.935919	-0.308799	-0.012527
C38	C	0.931837	-0.331803	0.062886
C39	C	0.923662	-0.377807	0.213725
C40	C	0.924499	-0.327384	0.213778
C41	C	0.928583	-0.304381	0.138358
C42	C	0.929442	-0.253974	0.138423
N43	N	0.933518	-0.230967	0.063008
C44	C	0.936756	-0.258380	-0.012468
C45	C	0.921796	-0.712785	0.137873
C46	C	0.920959	-0.763204	0.137814
C47	C	0.928274	-0.767610	-0.013083
C48	C	0.929117	-0.717190	-0.013022
C49	C	0.925871	-0.689778	0.062458
C50	C	0.938529	-0.152502	-0.012333
C51	C	0.939377	-0.102081	-0.012265
C52	C	0.932057	-0.097679	0.138632
C53	C	0.931214	-0.148096	0.138564
C54	C	0.934448	-0.175506	0.063075
O55	O	0.926793	-0.225988	0.202584
O56	O	0.940290	-0.234174	-0.076599
C57	C	0.933387	-0.460048	-0.012712
C58	C	0.929304	-0.483052	0.062702
C59	C	0.926066	-0.455639	0.138178
C60	C	0.928467	-0.533471	0.062642
C61	C	0.931706	-0.560883	-0.012833
C62	C	0.935781	-0.537877	-0.088248
C63	C	0.936625	-0.487460	-0.088187
C64	C	0.921991	-0.478646	0.213593
C65	C	0.921148	-0.529063	0.213526
C66	C	0.924386	-0.556475	0.138050
C67	C	1.074302	0.064016	0.072508
C68	C	1.161781	0.065082	0.078408
C69	C	0.923312	0.155723	0.062293
C70	C	0.924197	0.209384	0.062338
N71	N	0.919718	0.073682	0.278408
N72	N	0.940623	0.061030	-0.152851
C73	C	0.971616	0.042183	0.325613
C74	C	0.967406	0.044740	0.412735
C75	C	0.911301	0.078800	0.452650
C76	C	0.859398	0.110300	0.405438
C77	C	0.863604	0.107739	0.318317
C78	C	0.892926	0.089970	0.712816
C79	C	0.888725	0.092529	0.799943
C80	C	0.996733	0.026968	0.807235
C81	C	1.000938	0.024413	0.720112
C82	C	0.949032	0.055911	0.672908
N83	N	0.906999	0.081416	0.541703
N84	N	0.953331	0.053293	0.583856
H85	H	0.535162	0.071719	0.173423
C86	C	0.920843	-0.297670	0.295781
C87	C	0.850606	-0.303261	0.336702
C88	C	0.847213	-0.275901	0.412247
H89	H	0.921880	-0.264333	0.285133
H90	H	0.965147	-0.308662	0.329928
H91	H	0.806313	-0.292267	0.302563
H92	H	0.849553	-0.336592	0.347372
H93	H	0.891517	-0.286893	0.446394
H94	H	0.848253	-0.242566	0.401590
H95	H	0.799562	-0.279694	0.440025
C96	C	0.166059	0.060397	-0.079266
C97	C	0.222860	0.059100	-0.141711
C98	C	0.185600	0.056353	-0.220034
H99	H	0.127790	0.088063	-0.085130
H100	H	0.140533	0.031739	-0.084178
H101	H	0.248373	0.087755	-0.136802
H102	H	0.261131	0.031435	-0.135875
H103	H	0.160074	0.027695	-0.224945
H104	H	0.147332	0.084020	-0.225889
H105	H	0.224134	0.055469	-0.262412
H106	H	1.046623	-0.003321	0.687616
H107	H	1.009665	0.019091	0.451170
C108	C	0.827926	0.129565	0.843329
C109	C	0.867116	0.160706	0.896109
C110	C	0.811138	0.194833	0.936079
H111	H	0.793676	0.113180	0.875200
H112	H	0.797625	0.147985	0.802762
H113	H	0.897404	0.142289	0.936671
H114	H	0.901362	0.177103	0.864259
H115	H	0.780838	0.213252	0.895512
H116	H	0.776892	0.178443	0.967946
H117	H	0.837721	0.215968	0.971890
C118	C	1.032587	0.005267	0.282219
C119	C	1.082942	0.029606	0.235405
C120	C	1.139107	-0.004392	0.195419
H121	H	1.006188	-0.015901	0.246303
H122	H	1.062942	-0.013133	0.322772
H123	H	1.052591	0.047998	0.194856
H124	H	1.109360	0.050771	0.271301
H125	H	1.169462	-0.022792	0.235973
H126	H	1.112701	-0.025558	0.159508
H127	H	1.173284	0.012117	0.163658
C128	C	0.926744	-0.172982	0.220532
C129	C	0.924073	-0.138180	0.286641
C130	C	0.919936	-0.161081	0.362161
H131	H	0.972217	-0.196189	0.226869
H132	H	0.880263	-0.188912	0.220583
H133	H	0.970550	-0.122258	0.286591
H134	H	0.878603	-0.114971	0.280331
H135	H	0.873455	-0.177011	0.362213
H136	H	0.965410	-0.184288	0.368490
H137	H	0.918116	-0.137471	0.407025
C138	C	0.943770	-0.077193	-0.094244
C139	C	0.946401	-0.111993	-0.160353
C140	C	0.950436	-0.089085	-0.235882
H141	H	0.990220	-0.061247	-0.094374
H142	H	0.898259	-0.053996	-0.100509
H143	H	0.991908	-0.135181	-0.154090
H144	H	0.899956	-0.127941	-0.160250
H145	H	0.904925	-0.065889	-0.242147
H146	H	0.996887	-0.073140	-0.236004
H147	H	0.952215	-0.112693	-0.280747
H148	H	0.920338	-0.396527	0.275140
C149	C	0.918409	-0.682976	0.219776
C150	C	0.986497	-0.659245	0.228790
C151	C	0.983404	-0.631778	0.304222
H152	H	0.915903	-0.703848	0.264750
H153	H	0.872632	-0.659560	0.219849
H154	H	1.032261	-0.682658	0.228724
H155	H	0.989016	-0.638365	0.183834
H156	H	0.937627	-0.608363	0.304295
H157	H	0.980896	-0.652654	0.349190
H158	H	1.029596	-0.615671	0.310344
C159	C	0.709579	0.065079	-0.110082
C160	C	0.659204	0.062496	-0.179777
C161	C	0.703810	0.060809	-0.252561
H162	H	0.748167	0.037223	-0.110730
H163	H	0.735412	0.093551	-0.111535
H164	H	0.633384	0.034026	-0.178324
H165	H	0.620616	0.090349	-0.179156
H166	H	0.729643	0.089281	-0.254015
H167	H	0.742396	0.032953	-0.253201
H168	H	0.669636	0.059060	-0.299858
H169	H	0.325180	0.062977	-0.047868
C170	C	0.807172	0.141861	0.267013
C171	C	0.761653	0.114562	0.213802
C172	C	0.709648	0.145978	0.166537
H173	H	0.836818	0.161041	0.234831
H174	H	0.773111	0.162505	0.303231
H175	H	0.795709	0.093927	0.177588
H176	H	0.731990	0.095383	0.245961
H177	H	0.675587	0.166622	0.202756
H178	H	0.739301	0.165156	0.134361
H179	H	0.678752	0.127461	0.130434
C180	C	0.943493	-0.311143	-0.169809
C181	C	0.943499	-0.261117	-0.153621
C182	C	0.947443	-0.238009	-0.228968
H183	H	0.898854	-0.316655	-0.203894
H184	H	0.990818	-0.323888	-0.197810
H185	H	0.896179	-0.248377	-0.125633
H186	H	0.988135	-0.255591	-0.119548
H187	H	0.994768	-0.250753	-0.256969
H188	H	0.902802	-0.243524	-0.263048
H189	H	0.947454	-0.204064	-0.217995
C190	C	0.836534	0.124229	0.661721
C191	C	0.786518	0.154613	0.715328
C192	C	0.734564	0.186184	0.668286
H193	H	0.805509	0.105845	0.625545
H194	H	0.866249	0.143426	0.629631
H195	H	0.756806	0.135418	0.747404
H196	H	0.817521	0.173007	0.751505
H197	H	0.764279	0.205382	0.636196
H198	H	0.703544	0.167797	0.632112
H199	H	0.700627	0.206807	0.704652
C200	C	0.798398	0.147294	0.448615
C201	C	0.753831	0.174321	0.388622
C202	C	0.697623	0.208401	0.428363
H203	H	0.824756	0.168508	0.484478
H204	H	0.764129	0.130860	0.480395
H205	H	0.788095	0.190755	0.356856
H206	H	0.727455	0.153120	0.352756
H207	H	0.663354	0.191967	0.460143
H208	H	0.723988	0.229612	0.464225
H209	H	0.667373	0.226740	0.387664
H210	H	0.311883	0.071012	0.225892
H211	H	0.684265	0.073560	0.183509
C212	C	0.538233	0.063059	-0.121558
C213	C	0.481887	0.103905	-0.129818
C214	C	0.444391	0.101299	-0.208035
H215	H	0.512618	0.034443	-0.126512
H216	H	0.576639	0.062208	-0.164062
H217	H	0.443488	0.104751	-0.087326
H218	H	0.507482	0.132528	-0.124880
H219	H	0.482797	0.100449	-0.250539
H220	H	0.418781	0.072682	-0.212982
H221	H	0.406162	0.129015	-0.213653
C222	C	0.916687	-0.788218	0.219681
C223	C	0.983824	-0.822383	0.228660
C224	C	0.979911	-0.845430	0.304071
H225	H	0.870277	-0.804205	0.219765
H226	H	0.914914	-0.764687	0.264667
H227	H	0.985589	-0.845911	0.183686
H228	H	1.030243	-0.806409	0.228592
H229	H	0.978138	-0.821898	0.349057
H230	H	0.933499	-0.861413	0.304148
H231	H	1.025465	-0.868610	0.310177
H232	H	0.929424	-0.075351	0.200082
C233	C	0.941015	-0.462575	-0.170164
C234	C	0.943649	-0.497380	-0.236267
C235	C	0.947681	-0.474477	-0.311801
H236	H	0.987464	-0.446628	-0.170299
H237	H	0.895502	-0.439380	-0.176432
H238	H	0.989157	-0.520566	-0.230000
H239	H	0.897205	-0.513329	-0.236159
H240	H	0.902168	-0.451282	-0.318069
H241	H	0.994130	-0.458530	-0.311927
H242	H	0.949461	-0.498088	-0.356661
C243	C	0.933506	-0.692303	-0.094997
C244	C	0.936145	-0.727106	-0.161103
C245	C	0.940176	-0.704200	-0.236635
H246	H	0.979952	-0.676354	-0.095129
H247	H	0.887991	-0.669110	-0.101265
H248	H	0.981656	-0.750291	-0.154837
H249	H	0.889703	-0.743058	-0.160999
H250	H	0.894661	-0.681007	-0.242903
H251	H	0.986623	-0.688252	-0.236758
H252	H	0.941960	-0.727810	-0.281497
C253	C	0.939125	-0.567660	-0.170177
C254	C	0.871012	-0.591366	-0.179188
C255	C	0.874054	-0.618805	-0.254648
H256	H	0.984872	-0.591089	-0.170313
H257	H	0.941632	-0.546758	-0.215122
H258	H	0.868514	-0.612267	-0.134255
H259	H	0.825256	-0.567948	-0.179067
H260	H	0.876560	-0.597903	-0.299593
H261	H	0.919802	-0.642232	-0.254778
H262	H	0.827837	-0.634890	-0.260776
C263	C	0.916671	-0.553941	0.295502
C264	C	0.913993	-0.519135	0.361605
C265	C	0.909851	-0.542032	0.437129
H266	H	0.962144	-0.577147	0.301847
H267	H	0.870191	-0.569872	0.295552
H268	H	0.960468	-0.503213	0.361556
H269	H	0.868522	-0.495928	0.355288
H270	H	0.863370	-0.557963	0.437179
H271	H	0.955325	-0.565238	0.443465
H272	H	0.908026	-0.518419	0.481989
C273	C	0.918319	-0.448853	0.295509
C274	C	0.850752	-0.414429	0.295399
C275	C	0.847343	-0.386982	0.370856
H276	H	0.964417	-0.432679	0.301853
H277	H	0.915728	-0.469761	0.340429
H278	H	0.853349	-0.393523	0.250492
H279	H	0.804643	-0.430589	0.289068
H280	H	0.844752	-0.407891	0.415776
H281	H	0.893444	-0.370811	0.377194
H282	H	0.801496	-0.363625	0.370795
H283	H	0.941159	-0.174813	-0.073804
C284	C	1.053171	-0.007261	0.858341
C285	C	1.103214	-0.037630	0.804738
C286	C	1.155219	-0.069168	0.851787
H287	H	1.023520	-0.026475	0.890452
H288	H	1.084166	0.011163	0.894499
H289	H	1.072222	-0.056052	0.768595
H290	H	1.132882	-0.018430	0.772627
H291	H	1.186214	-0.050744	0.887945
H292	H	1.125561	-0.088379	0.883896
H293	H	1.189184	-0.089774	0.815425
H294	H	0.940948	-0.408942	-0.149529
H295	H	0.930911	-0.789938	-0.074538
H296	H	0.162762	0.069194	0.215809
