data_functionalizedCrystal
_audit_creation_method	'MofGen! by Chris Wilmer'
_symmetry_space_group_name_H-M	'P1'
_symmetry_Int_Tables_number	1
_symmetry_cell_setting	triclinic
loop_
_symmetry_equiv_pos_as_xyz
  x,y,z
_cell_length_a	12.811457
_cell_length_b	12.837942
_cell_length_c	14.586319
_cell_angle_alpha	89.996741
_cell_angle_beta	95.428442
_cell_angle_gamma	89.411937
loop_
_atom_site_label
_atom_site_type_symbol
_atom_site_fract_x
_atom_site_fract_y
_atom_site_fract_z
O1	O	1.406629	0.139674	0.040714
O2	O	1.102567	0.154865	0.015431
O3	O	1.247855	-0.003662	0.027517
O4	O	1.261340	0.298201	0.028627
O5	O	1.247844	-0.003665	0.179997
O6	O	1.102555	0.154863	0.167911
O7	O	1.406617	0.139672	0.193194
Cu8	Cu	1.254585	0.147267	0.194475
Cu9	Cu	1.254599	0.147270	0.014150
O10	O	1.261328	0.298199	0.181107
C11	C	1.063372	0.154013	0.088412
C12	C	0.946601	0.151465	0.078703
C13	C	1.243294	-0.042304	0.103378
C14	C	1.229709	-0.157439	0.102247
C15	C	0.727161	0.146655	0.226710
C16	C	0.617444	0.144261	0.217591
C17	C	0.617447	0.144274	0.051349
C18	C	0.727165	0.146669	0.060467
C19	C	0.782018	0.147860	0.148150
C20	C	0.891737	0.150262	0.157268
C21	C	0.891738	0.150269	-0.008974
C22	C	0.782021	0.147874	-0.018092
C23	C	1.393036	-0.397694	0.115808
C24	C	1.380276	-0.505875	0.114746
C25	C	1.191429	-0.481984	0.099053
C26	C	1.204189	-0.373803	0.100115
C27	C	1.304996	-0.331662	0.108495
C28	C	1.317755	-0.223480	0.109564
C29	C	1.128909	-0.199590	0.093864
C30	C	1.116148	-0.307771	0.092801
C31	C	1.445812	0.140524	0.120210
C32	C	1.562583	0.143072	0.129914
C33	C	1.265889	0.336840	0.105244
C34	C	1.279475	0.451976	0.106370
N35	N	1.254583	0.147264	0.321306
N36	N	1.254608	0.147264	-0.112681
C37	C	1.318943	0.077092	0.561667
C38	C	1.318946	0.077090	0.657648
C39	C	1.190241	0.217440	0.646951
C40	C	1.190233	0.217436	0.550971
C41	C	1.254591	0.147264	0.508332
C42	C	1.254601	0.147265	0.700293
C43	C	1.254603	0.147262	0.804361
C44	C	1.254587	0.147264	0.404258
H45	H	0.936396	0.151239	0.228664
O46	O	0.728896	0.146684	-0.103332
C47	C	0.800845	0.148297	-0.170715
H48	H	0.880119	0.117202	-0.139764
H49	H	0.809816	0.231657	-0.195514
C50	C	0.662864	0.117647	-0.290646
C51	C	0.760228	0.079447	-0.252633
H52	H	0.637810	0.075182	-0.341179
H53	H	0.614390	0.116564	-0.245249
H54	H	0.670354	0.187114	-0.311304
H55	H	0.752735	0.009987	-0.231965
H56	H	0.808701	0.080517	-0.298028
H57	H	1.034074	-0.342097	0.085975
H58	H	1.137845	0.274574	0.681677
O59	O	1.381479	0.008823	0.520390
C60	C	1.438296	-0.053095	0.588053
H61	H	1.395132	-0.054470	0.652887
H62	H	1.519669	-0.019045	0.605016
C63	C	1.501760	-0.163182	0.471844
C64	C	1.448740	-0.164878	0.551470
H65	H	1.508208	-0.232133	0.449277
H66	H	1.463485	-0.121464	0.426257
H67	H	1.569566	-0.134802	0.485990
H68	H	1.380932	-0.193245	0.537321
H69	H	1.487005	-0.206603	0.597054
H70	H	1.399838	-0.189171	0.116390
O71	O	0.780291	0.147766	0.311948
C72	C	0.708343	0.146222	0.379334
H73	H	0.631197	0.111724	0.348558
H74	H	0.693977	0.229067	0.403695
C75	C	0.848122	0.121597	0.499407
C76	C	0.753372	0.079218	0.461609
H77	H	0.875899	0.080270	0.550160
H78	H	0.896595	0.122641	0.454009
H79	H	0.836137	0.190633	0.519700
H80	H	0.765361	0.010188	0.441306
H81	H	0.704902	0.078160	0.507006
H82	H	1.057220	-0.145815	0.087916
O83	O	1.127689	0.285706	0.499294
C84	C	1.070875	0.347632	0.557507
H85	H	1.114046	0.349020	0.629510
H86	H	0.989505	0.313578	0.560961
C87	C	1.007391	0.457695	0.430729
C88	C	1.060420	0.459408	0.519163
H89	H	1.000937	0.526643	0.407076
H90	H	1.045664	0.415973	0.391509
H91	H	0.939588	0.429312	0.433619
H92	H	1.128225	0.487777	0.516269
H93	H	1.022157	0.501137	0.558381
O94	O	1.491028	-0.356924	0.123914
C95	C	1.566002	-0.438405	0.130170
H96	H	1.529228	-0.512018	0.098247
H97	H	1.593675	-0.453586	0.205623
C98	C	1.705357	-0.317052	0.117410
C99	C	1.660194	-0.407463	0.078194
H100	H	1.763462	-0.297965	0.085353
H101	H	1.654847	-0.262156	0.113199
H102	H	1.728410	-0.329714	0.180286
H103	H	1.637131	-0.394795	0.015323
H104	H	1.710702	-0.462356	0.082393
H105	H	0.572784	0.143284	0.281563
H106	H	1.109356	-0.516314	0.092221
O107	O	0.564095	0.143295	-0.033798
C108	C	0.497689	0.231601	-0.044272
H109	H	0.528719	0.295024	0.005469
H110	H	0.415201	0.209496	-0.028783
C111	C	0.456547	0.194347	-0.204922
C112	C	0.494665	0.272249	-0.143834
H113	H	0.454677	0.219419	-0.266337
H114	H	0.501283	0.134852	-0.197865
H115	H	0.387811	0.175934	-0.192003
H116	H	0.563404	0.290652	-0.156746
H117	H	0.449940	0.331749	-0.150895
O118	O	1.465718	-0.570125	0.121968
C119	C	1.464003	-0.633405	0.200806
H120	H	1.380111	-0.639243	0.220165
H121	H	1.515517	-0.597613	0.260386
C122	C	1.608903	-0.735823	0.156516
C123	C	1.505864	-0.743000	0.180288
H124	H	1.634729	-0.803425	0.143863
H125	H	1.610062	-0.693187	0.103403
H126	H	1.651819	-0.705992	0.206170
H127	H	1.462948	-0.772818	0.130631
H128	H	1.504699	-0.785644	0.233393
O129	O	1.381306	0.008824	0.709486
C130	C	1.318682	-0.055417	0.759823
H131	H	1.235695	-0.057572	0.724008
H132	H	1.316428	-0.022988	0.832376
C133	C	1.467348	-0.163837	0.809172
C134	C	1.365424	-0.166491	0.765178
H135	H	1.496182	-0.232352	0.812480
H136	H	1.509540	-0.120555	0.775262
H137	H	1.465455	-0.136808	0.869629
H138	H	1.367319	-0.193507	0.704720
H139	H	1.323232	-0.209780	0.799079
H140	H	0.936414	0.151257	-0.072943
