data_functionalizedCrystal
_audit_creation_method	'MofGen! by Chris Wilmer'
_symmetry_space_group_name_H-M	'P1'
_symmetry_Int_Tables_number	1
_symmetry_cell_setting	triclinic
loop_
_symmetry_equiv_pos_as_xyz
  x,y,z
_cell_length_a	9.065218
_cell_length_b	13.101039
_cell_length_c	9.065218
_cell_angle_alpha	86.586078
_cell_angle_beta	85.015885
_cell_angle_gamma	93.407648
loop_
_atom_site_label
_atom_site_type_symbol
_atom_site_fract_x
_atom_site_fract_y
_atom_site_fract_z
O1	O	1.968410	0.085213	0.208321
O2	O	1.539125	0.085214	0.226068
O3	O	1.762641	0.085211	0.002552
O4	O	1.744894	0.085215	0.431837
O5	O	1.746604	-0.085218	0.018616
O6	O	1.523088	-0.085216	0.242132
O7	O	1.952373	-0.085217	0.224385
Zn8	Zn	1.735185	-0.112276	0.235809
Zn9	Zn	1.756314	0.112273	0.214644
O10	O	1.728858	-0.085214	0.447901
C11	C	1.476120	-0.000001	0.232394
C12	C	1.312277	-0.000000	0.227294
N13	N	1.720776	-0.265524	0.250253
C14	C	1.701171	-0.474566	0.269917
C15	C	1.790334	-0.525443	0.180529
C16	C	1.779426	-0.641761	0.191471
C17	C	1.712078	-0.358238	0.258978
C18	C	2.015378	0.000000	0.218059
C19	C	2.179222	0.000006	0.223158
C20	C	1.752917	-0.000002	-0.044402
C21	C	1.747818	0.000003	-0.208246
N22	N	1.770734	0.265521	0.200189
C23	C	1.738582	0.000001	0.494855
C24	C	1.743682	0.000003	0.658698
H25	H	1.874861	-0.481642	0.095785
O26	O	1.600213	-0.526652	0.371056
C27	C	1.405220	-0.515647	0.566688
C28	C	1.519460	-0.456518	0.452195
H29	H	1.339923	-0.458969	0.632341
H30	H	1.325807	-0.565858	0.506814
H31	H	1.465443	-0.565902	0.645745
H32	H	1.459363	-0.406207	0.373106
H33	H	1.598868	-0.406372	0.512167
