data_functionalizedCrystal
_audit_creation_method	'MofGen! by Chris Wilmer'
_symmetry_space_group_name_H-M	'P1'
_symmetry_Int_Tables_number	1
_symmetry_cell_setting	triclinic
loop_
_symmetry_equiv_pos_as_xyz
  x,y,z
_cell_length_a	14.853567
_cell_length_b	15.021413
_cell_length_c	14.853559
_cell_angle_alpha	89.993787
_cell_angle_beta	83.633192
_cell_angle_gamma	90.004355
loop_
_atom_site_label
_atom_site_type_symbol
_atom_site_fract_x
_atom_site_fract_y
_atom_site_fract_z
O1	O	1.196366	0.073966	0.117693
O2	O	0.933906	0.073981	0.131714
O3	O	1.072151	0.073972	-0.006527
O4	O	1.058122	0.073975	0.255934
O5	O	1.072129	-0.074092	-0.006507
O6	O	0.933884	-0.074083	0.131734
O7	O	1.196344	-0.074098	0.117712
Zn8	Zn	1.065111	-0.097599	0.124726
Zn9	Zn	1.065140	0.097482	0.124700
O10	O	1.058100	-0.074089	0.255953
C11	C	0.900307	-0.000049	0.131089
C12	C	0.800223	-0.000043	0.129185
N13	N	1.065097	-0.230737	0.124743
C14	C	0.387692	-0.000064	0.039019
C15	C	0.366406	-0.000062	0.203252
C16	C	0.460440	-0.000059	0.205042
C17	C	0.518104	-0.000057	0.123819
C18	C	0.481735	-0.000059	0.040806
C19	C	0.496816	-0.000048	0.288054
C20	C	0.590855	-0.000045	0.289847
C21	C	0.648521	-0.000049	0.208623
C22	C	0.612147	-0.000052	0.125607
C23	C	0.669811	-0.000050	0.044384
C24	C	0.633438	-0.000059	-0.038633
C25	C	0.539401	-0.000064	-0.040417
C26	C	0.742559	-0.000045	0.210408
C27	C	0.763854	-0.000045	0.046172
C28	C	1.001163	-0.470416	0.188636
C29	C	1.082648	-0.529755	0.206236
C30	C	1.065121	-0.412344	0.124721
C31	C	0.983658	-0.529746	0.107141
C32	C	1.065135	-0.587768	0.124701
C33	C	1.146646	-0.470376	0.142361
C34	C	1.047603	-0.470362	0.043231
C35	C	1.129146	-0.529674	0.060797
C36	C	1.065111	-0.311286	0.124735
C37	C	1.065155	-0.688823	0.124687
C38	C	1.229944	-0.000066	0.118338
C39	C	1.330027	-0.000066	0.120242
C40	C	1.071506	-0.000058	-0.040106
C41	C	1.069605	-0.000053	-0.140190
N42	N	1.065160	0.230620	0.124676
C43	C	1.061553	0.080657	-0.563376
C44	C	1.061529	-0.080768	-0.563349
C45	C	1.063322	-0.080769	-0.469316
C46	C	1.064230	-0.000055	-0.422308
C47	C	1.063344	0.080659	-0.469333
C48	C	1.064199	-0.161482	-0.422282
C49	C	1.065992	-0.161486	-0.328243
C50	C	1.066906	-0.080771	-0.281234
C51	C	1.066021	-0.000054	-0.328266
C52	C	1.066928	0.080660	-0.281258
C53	C	1.066050	0.161378	-0.328288
C54	C	1.064258	0.161373	-0.422325
C55	C	1.068697	-0.080767	-0.187198
C56	C	1.068719	0.080661	-0.187215
C57	C	1.058745	-0.000057	0.289532
C58	C	1.060646	-0.000056	0.389616
H59	H	0.810799	-0.000047	-0.019971
C60	C	0.248304	0.076048	0.296501
C61	C	0.303020	-0.000063	0.292527
H62	H	0.209166	0.076041	0.351616
H63	H	0.285435	0.127672	0.293788
H64	H	0.213191	0.076039	0.246800
H65	H	0.338138	-0.000050	0.342224
H66	H	0.265885	-0.051700	0.295249
C67	C	0.982105	0.174292	-0.659102
C68	C	1.060575	0.169374	-0.615076
H69	H	0.981498	0.229063	-0.691018
H70	H	0.981321	0.126223	-0.700546
H71	H	0.930279	0.170939	-0.615595
H72	H	1.112401	0.172720	-0.658584
H73	H	1.061368	0.217457	-0.573628
H74	H	1.066782	0.227095	-0.290002
H75	H	0.772169	-0.000039	0.277999
H76	H	0.509777	-0.000092	-0.108006
C77	C	0.969129	-0.382706	0.323508
C78	C	0.928225	-0.435275	0.261655
H79	H	0.924101	-0.361007	0.368583
H80	H	1.011732	-0.417509	0.351303
H81	H	0.999280	-0.333940	0.292585
H82	H	0.898079	-0.484045	0.292577
H83	H	0.885606	-0.400471	0.233858
C84	C	0.787047	-0.000048	-0.108803
C85	C	0.696829	-0.000058	-0.127912
H86	H	0.826182	-0.000052	-0.163920
H87	H	0.798073	0.051587	-0.074784
H88	H	0.798072	-0.051680	-0.074758
H89	H	0.685802	0.051579	-0.161952
H90	H	0.685799	-0.051697	-0.161946
C91	C	0.983520	-0.218354	-0.582253
C92	C	1.060531	-0.169481	-0.615024
H93	H	0.982905	-0.273121	-0.614164
H94	H	0.984723	-0.229911	-0.519527
H95	H	0.930705	-0.185180	-0.590857
H96	H	1.113347	-0.202654	-0.606413
H97	H	1.059336	-0.157928	-0.677764
C98	C	1.238779	-0.342115	0.162512
C99	C	1.239654	-0.435327	0.162612
H100	H	1.296187	-0.320478	0.175043
H101	H	1.226284	-0.321273	0.104814
H102	H	1.193279	-0.321380	0.207623
H103	H	1.285150	-0.456062	0.117496
H104	H	1.252159	-0.456177	0.220318
C105	C	1.030137	-0.617604	0.336622
C106	C	1.102666	-0.564983	0.299251
H107	H	1.042495	-0.639354	0.394045
H108	H	0.976420	-0.582820	0.343690
H109	H	1.022320	-0.666335	0.297480
H110	H	1.110480	-0.516249	0.338391
H111	H	1.156399	-0.599769	0.292188
C112	C	1.287448	-0.534457	0.006437
C113	C	1.202244	-0.564591	-0.012183
H114	H	1.332576	-0.556021	-0.038613
H115	H	1.288161	-0.471230	0.006378
H116	H	1.299397	-0.555698	0.064170
H117	H	1.190292	-0.543345	-0.069914
H118	H	1.201530	-0.627832	-0.012133
H119	H	0.620461	-0.000037	0.357445
C120	C	0.252999	-0.000076	-0.036656
C121	C	0.347716	-0.000070	-0.052231
H122	H	0.228321	-0.000074	-0.092991
H123	H	0.233219	-0.051708	-0.003209
H124	H	0.233221	0.051559	-0.003215
H125	H	0.367494	-0.051709	-0.085667
H126	H	0.367504	0.051567	-0.085692
H127	H	1.032747	-0.444254	-0.025652
C128	C	0.823782	-0.535026	0.154098
C129	C	0.890650	-0.564946	0.087067
H130	H	0.766362	-0.556750	0.141705
H131	H	0.836668	-0.556241	0.211533
H132	H	0.822958	-0.471792	0.154504
H133	H	0.891478	-0.628179	0.086666
H134	H	0.877760	-0.543735	0.029617
C135	C	0.986190	-0.299065	-0.441212
C136	C	1.063205	-0.250190	-0.473966
H137	H	0.985579	-0.353828	-0.473132
H138	H	0.987384	-0.310631	-0.378488
H139	H	0.933377	-0.265888	-0.449819
H140	H	1.116019	-0.283365	-0.465353
H141	H	1.062019	-0.238627	-0.536706
H142	H	1.069462	0.146389	-0.148949
H143	H	1.063542	0.227090	-0.460625
H144	H	1.066710	-0.227212	-0.289959
C145	C	1.068457	-0.240327	-0.196617
C146	C	1.069645	-0.169483	-0.135500
H147	H	1.069043	-0.295099	-0.164699
H148	H	1.015235	-0.236952	-0.226487
H149	H	1.120298	-0.236982	-0.240105
H150	H	1.017800	-0.172824	-0.092015
H151	H	1.122873	-0.172860	-0.105615
C152	C	0.378702	0.076054	0.381293
C153	C	0.433427	-0.000051	0.377326
H154	H	0.339561	0.076045	0.436406
H155	H	0.415827	0.127682	0.378580
H156	H	0.343592	0.076037	0.331590
H157	H	0.468542	-0.000032	0.427026
H158	H	0.396298	-0.051693	0.380048
