data_functionalizedCrystal
_audit_creation_method	'MofGen! by Chris Wilmer'
_symmetry_space_group_name_H-M	'P1'
_symmetry_Int_Tables_number	1
_symmetry_cell_setting	triclinic
loop_
_symmetry_equiv_pos_as_xyz
  x,y,z
_cell_length_a	12.594517
_cell_length_b	29.839131
_cell_length_c	12.594509
_cell_angle_alpha	90.042620
_cell_angle_beta	90.011478
_cell_angle_gamma	90.031117
loop_
_atom_site_label
_atom_site_type_symbol
_atom_site_fract_x
_atom_site_fract_y
_atom_site_fract_z
Zn1	Zn	1.627125	-0.178889	0.601474
Zn2	Zn	1.626956	-0.254024	0.423451
Zn3	Zn	1.449129	-0.178903	0.423533
Zn4	Zn	1.449052	-0.253987	0.601411
O5	O	1.538065	-0.216451	0.512467
O6	O	1.776048	-0.188865	0.577850
O7	O	1.603329	-0.244080	0.274516
O8	O	1.472843	-0.116034	0.447198
O9	O	1.775924	-0.244066	0.447057
O10	O	1.603616	-0.116024	0.577930
O11	O	1.472680	-0.188889	0.274576
O12	O	1.300173	-0.188854	0.447138
O13	O	1.472712	-0.244004	0.750365
O14	O	1.300116	-0.244018	0.577824
O15	O	1.603541	-0.188830	0.750411
O16	O	1.603254	-0.316886	0.446997
O17	O	1.472548	-0.316859	0.577744
C18	C	1.261524	-0.216434	0.512483
C19	C	1.143219	-0.216437	0.512516
C20	C	1.073966	-0.246500	0.583458
C21	C	1.003190	-0.205539	0.609661
C22	C	1.003196	-0.257433	0.486289
C23	C	1.074001	-0.175454	0.538769
C24	C	1.074014	-0.227376	0.415352
C25	C	1.003270	-0.186386	0.441518
C26	C	1.537903	-0.333174	0.512378
C27	C	1.537931	-0.383108	0.512375
C28	C	1.606144	-0.692711	0.580636
C29	C	1.606260	-0.880384	0.580700
O30	O	1.664098	-0.904615	0.638672
N31	N	1.538246	-0.903893	0.512585
C32	C	1.470194	-0.880481	0.444454
O33	O	1.412339	-0.904783	0.386527
C34	C	1.470074	-0.692809	0.444397
C35	C	1.538099	-0.669302	0.512508
C36	C	1.674163	-0.669205	0.648744
C37	C	1.674138	-0.622289	0.648723
C38	C	1.606093	-0.598880	0.580595
C39	C	1.538074	-0.622387	0.512488
C40	C	1.402017	-0.669397	0.376272
C41	C	1.401991	-0.622476	0.376265
C42	C	1.470017	-0.598970	0.444377
C43	C	1.470004	-0.552062	0.444339
N44	N	1.538017	-0.528553	0.512454
C45	C	1.606062	-0.551962	0.580582
C46	C	1.470263	-0.979011	0.444488
C47	C	1.470295	-1.025929	0.444501
C48	C	1.606359	-1.025829	0.580749
C49	C	1.606332	-0.978911	0.580730
C50	C	1.538277	-0.955502	0.512603
C51	C	1.606004	-0.453436	0.580533
C52	C	1.605976	-0.406517	0.580503
C53	C	1.469908	-0.406621	0.444259
C54	C	1.469940	-0.453536	0.444285
C55	C	1.537991	-0.476943	0.512430
O56	O	1.412188	-0.527803	0.386406
O57	O	1.663891	-0.527652	0.638517
C58	C	1.606170	-0.739626	0.580657
C59	C	1.538150	-0.763133	0.512550
C60	C	1.470106	-0.739724	0.444422
C61	C	1.538182	-0.810051	0.512563
C62	C	1.606226	-0.833460	0.580691
C63	C	1.674240	-0.809951	0.648806
C64	C	1.674214	-0.763035	0.648785
C65	C	1.402092	-0.763233	0.376307
C66	C	1.402124	-0.810148	0.376332
C67	C	1.470169	-0.833557	0.444460
C68	C	1.815686	-0.216468	0.512452
C69	C	1.933992	-0.216476	0.512445
C70	C	1.538137	-0.216412	0.790088
C71	C	1.538167	-0.216395	0.908394
C72	C	1.538257	-0.099273	0.512581
C73	C	1.538339	-0.049338	0.512629
C74	C	1.538056	-0.216458	0.235926
C75	C	1.538232	-0.216348	0.117621
C76	C	1.467031	-0.246387	0.977622
C77	C	1.564143	-0.257367	1.048389
C78	C	1.441131	-0.205388	1.048426
C79	C	1.635330	-0.227396	0.977603
C80	C	1.512252	-0.175398	0.977633
C81	C	1.609431	-0.186362	1.048368
H82	H	1.105147	-0.236626	0.333237
N83	N	1.743663	-0.598285	0.718268
N84	N	1.811511	-0.572110	0.680836
H85	H	1.860632	-0.555163	0.729947
N86	N	1.332572	-0.739332	0.306709
N87	N	1.271854	-0.760333	0.245904
H88	H	1.222753	-0.743455	0.196742
H89	H	1.669686	-0.160979	1.079235
H90	H	0.972090	-0.292085	0.464140
H91	H	1.729607	-0.743900	0.704249
H92	H	1.661374	-0.387379	0.635967
N93	N	1.112844	-0.131972	0.566707
N94	N	1.089393	-0.115180	0.654574
H95	H	1.116827	-0.084472	0.674310
H96	H	1.661411	-0.472489	0.636030
N97	N	1.338145	-0.193734	1.087433
N98	N	1.264403	-0.185760	1.023763
H99	H	1.191666	-0.177532	1.051307
N100	N	1.112901	-0.278331	0.658821
N101	N	1.090174	-0.274255	0.754949
H102	H	1.117671	-0.296734	0.808177
H103	H	1.586097	-0.292017	1.079470
N104	N	1.391643	-0.278255	0.938621
N105	N	1.378994	-0.283155	0.840857
H106	H	1.325759	-0.305663	0.813307
H107	H	1.414556	-0.472676	0.388814
N108	N	1.484701	-0.131941	0.938602
N109	N	1.540297	-0.098723	0.962550
H110	H	1.520831	-0.068031	0.934982
H111	H	1.717443	-0.236725	0.946624
H112	H	1.661724	-0.959774	0.636193
N113	N	0.964173	-0.193951	0.712707
N114	N	0.986824	-0.217820	0.791012
H115	H	0.959274	-0.209639	0.863792
N116	N	1.332647	-0.834164	0.306751
N117	N	1.370134	-0.860360	0.238961
H118	H	1.321063	-0.877321	0.189826
H119	H	0.972424	-0.160951	0.381494
H120	H	1.729648	-0.829019	0.704275
H121	H	1.729573	-0.688259	0.704228
N122	N	1.675865	-1.049752	0.650328
N123	N	1.675875	-1.091643	0.650321
H124	H	1.724957	-1.108541	0.699461
N125	N	1.400820	-1.049931	0.374900
N126	N	1.340077	-1.029018	0.314079
H127	H	1.291005	-1.045968	0.264922
H128	H	1.414843	-0.959956	0.389008
N129	N	1.400423	-0.382697	0.374666
N130	N	1.400420	-0.340807	0.374665
H131	H	1.351345	-0.323909	0.325517
H132	H	1.346624	-0.688528	0.320807
H133	H	1.346569	-0.603420	0.320789
