data_functionalizedCrystal
_audit_creation_method	'MofGen! by Chris Wilmer'
_symmetry_space_group_name_H-M	'P1'
_symmetry_Int_Tables_number	1
_symmetry_cell_setting	triclinic
loop_
_symmetry_equiv_pos_as_xyz
  x,y,z
_cell_length_a	13.032831
_cell_length_b	16.625546
_cell_length_c	13.034296
_cell_angle_alpha	82.786634
_cell_angle_beta	74.814550
_cell_angle_gamma	82.826778
loop_
_atom_site_label
_atom_site_type_symbol
_atom_site_fract_x
_atom_site_fract_y
_atom_site_fract_z
Zn1	Zn	1.700150	-0.408761	-0.806419
Zn2	Zn	2.033484	-0.075427	-0.473086
Zn3	Zn	2.366817	0.257906	-0.139753
Zn4	Zn	1.677445	-0.558797	-0.628778
Zn5	Zn	2.010779	-0.225464	-0.295444
Zn6	Zn	2.344112	0.107870	0.037889
Zn7	Zn	1.499953	-0.408768	-0.606300
Zn8	Zn	1.833286	-0.075435	-0.272967
Zn9	Zn	2.166620	0.257899	0.060366
Zn10	Zn	1.522480	-0.528334	-0.783834
Zn11	Zn	1.855814	-0.195001	-0.450501
Zn12	Zn	2.189147	0.138333	-0.117167
O13	O	1.600007	-0.476165	-0.706333
O14	O	1.933341	-0.142832	-0.372999
O15	O	2.266674	0.190502	-0.039666
O16	O	1.845775	-0.441409	-0.801714
O17	O	2.179108	-0.108076	-0.468380
O18	O	2.512442	0.225258	-0.135047
O19	O	1.634971	-0.551647	-0.477154
O20	O	1.968304	-0.218314	-0.143821
O21	O	2.301638	0.115019	0.189513
O22	O	1.526584	-0.295937	-0.632892
O23	O	1.859917	0.037396	-0.299559
O24	O	2.193251	0.370729	0.033775
O25	O	1.829094	-0.551640	-0.671201
O26	O	2.162427	-0.218307	-0.337868
O27	O	2.495761	0.115027	-0.004534
O28	O	1.673668	-0.295932	-0.779918
O29	O	2.007001	0.037401	-0.446585
O30	O	2.340335	0.370735	-0.113252
O31	O	1.504568	-0.441422	-0.460640
O32	O	1.837902	-0.108088	-0.127307
O33	O	2.171235	0.225245	0.206027
O34	O	1.354305	-0.411883	-0.610992
O35	O	1.687638	-0.078550	-0.277658
O36	O	2.020972	0.254784	0.055675
O37	O	1.564978	-0.499720	-0.935472
O38	O	1.898312	-0.166387	-0.602139
O39	O	2.231645	0.166946	-0.268805
O40	O	1.370855	-0.499728	-0.741425
O41	O	1.704189	-0.166394	-0.408091
O42	O	2.037522	0.166939	-0.074758
O43	O	1.695512	-0.411870	-0.952065
O44	O	2.028845	-0.078537	-0.618732
O45	O	2.362178	0.254796	-0.285399
O46	O	1.656815	-0.667586	-0.649301
O47	O	1.990148	-0.334252	-0.315968
O48	O	2.323481	-0.000919	0.017366
O49	O	1.542963	-0.645205	-0.763220
O50	O	1.876296	-0.311871	-0.429887
O51	O	2.209629	0.021462	-0.096553
C52	C	1.324040	-0.452501	-0.671319
C53	C	1.657374	-0.119168	-0.337986
C54	C	1.990707	0.214166	-0.004652
C55	C	1.205984	-0.442395	-0.656365
C56	C	1.539317	-0.109061	-0.323032
C57	C	1.872650	0.224272	0.010302
C58	C	1.161555	-0.481440	-0.714137
C59	C	1.494888	-0.148106	-0.380804
C60	C	1.828221	0.185227	-0.047471
C61	C	1.039537	-0.470995	-0.698683
C62	C	1.372870	-0.137662	-0.365350
C63	C	1.706204	0.195671	-0.032016
C64	C	1.599901	-0.685651	-0.706276
C65	C	1.933234	-0.352318	-0.372942
C66	C	2.266568	-0.018984	-0.039609
C67	C	1.599957	-0.775275	-0.706299
C68	C	1.933291	-0.441942	-0.372966
C69	C	2.266624	-0.108609	-0.039632
C70	C	1.600157	-1.103457	-0.706433
C71	C	1.933490	-0.770124	-0.373100
C72	C	2.266823	-0.436791	-0.039766
C73	C	1.600098	-1.012146	-0.706398
C74	C	1.933432	-0.678813	-0.373065
C75	C	2.266765	-0.345480	-0.039732
C76	C	1.600056	-0.939369	-0.706365
C77	C	1.933389	-0.606036	-0.373032
C78	C	2.266723	-0.272702	-0.039699
C79	C	1.599999	-0.848053	-0.706332
C80	C	1.933333	-0.514719	-0.372999
C81	C	2.266666	-0.181386	-0.039665
C82	C	1.877052	-0.499922	-0.741484
C83	C	2.210385	-0.166588	-0.408151
C84	C	2.543719	0.166745	-0.074817
C85	C	1.995112	-0.510046	-0.756463
C86	C	2.328445	-0.176712	-0.423130
C87	C	2.661778	0.156621	-0.089797
C88	C	1.635290	-0.452396	-0.983387
C89	C	1.968624	-0.119063	-0.650054
C90	C	2.301957	0.214270	-0.316721
C91	C	1.650326	-0.442268	-1.101452
C92	C	1.983659	-0.108934	-0.768118
C93	C	2.316993	0.224399	-0.434785
C94	C	1.600146	-0.265861	-0.706417
C95	C	1.933479	0.067472	-0.373084
C96	C	2.266812	0.400805	-0.039750
C97	C	1.600205	-0.176242	-0.706453
C98	C	1.933538	0.157091	-0.373120
C99	C	2.266871	0.490424	-0.039786
C100	C	1.592444	-0.481218	-1.145878
C101	C	1.925777	-0.147885	-0.812545
C102	C	2.259111	0.185448	-0.479212
C103	C	1.607983	-0.470751	-1.267903
C104	C	1.941316	-0.137418	-0.934570
C105	C	2.274649	0.195916	-0.601237
C106	C	1.564922	-0.499788	-0.430364
C107	C	1.898256	-0.166455	-0.097030
C108	C	2.231589	0.166879	0.236303
C109	C	1.550093	-0.509707	-0.312326
C110	C	1.883426	-0.176374	0.021007
C111	C	2.216759	0.156960	0.354340
H112	H	1.213851	-0.522596	-0.775043
H113	H	1.547184	-0.189263	-0.441710
H114	H	1.880517	0.144070	-0.108376
O115	O	1.064369	-0.564571	-0.837144
O116	O	1.397703	-0.231238	-0.503811
O117	O	1.731036	0.102096	-0.170478
H118	H	1.053786	-0.541876	-0.917874
H119	H	1.387119	-0.208543	-0.584541
H120	H	1.720453	0.124791	-0.251208
H121	H	1.711388	-0.401174	-1.153756
H122	H	2.044721	-0.067841	-0.820422
H123	H	2.378055	0.265493	-0.487089
O124	O	0.970269	-0.416484	-0.617990
O125	O	1.303602	-0.083151	-0.284657
O126	O	1.636936	0.250182	0.048677
H127	H	0.925807	-0.367140	-0.659264
H128	H	1.259140	-0.033807	-0.325930
H129	H	1.592473	0.299527	0.007403
H130	H	1.669049	-0.429654	-1.320204
H131	H	2.002382	-0.096321	-0.986871
H132	H	2.335716	0.237012	-0.653537
O133	O	1.136725	-0.387886	-0.575670
O134	O	1.470058	-0.054553	-0.242337
O135	O	1.803392	0.278781	0.090997
H136	H	1.051754	-0.388249	-0.576180
H137	H	1.385087	-0.054915	-0.242847
H138	H	1.718421	0.278418	0.090486
O139	O	1.511556	-0.535655	-1.076611
O140	O	1.844889	-0.202322	-0.743277
O141	O	2.178223	0.131012	-0.409944
H142	H	1.512038	-0.535328	-0.991636
H143	H	1.845371	-0.201995	-0.658303
H144	H	2.178705	0.131338	-0.324969
O145	O	1.469167	-0.564116	-1.243052
O146	O	1.802501	-0.230783	-0.909718
O147	O	2.135834	0.102551	-0.576385
H148	H	1.429123	-0.591047	-1.294158
H149	H	1.762456	-0.257714	-0.960825
H150	H	2.095790	0.075620	-0.627491
