data_functionalizedCrystal
_audit_creation_method	'MofGen! by Chris Wilmer'
_symmetry_space_group_name_H-M	'P1'
_symmetry_Int_Tables_number	1
_symmetry_cell_setting	triclinic
loop_
_symmetry_equiv_pos_as_xyz
  x,y,z
_cell_length_a	13.032831
_cell_length_b	16.959454
_cell_length_c	13.033454
_cell_angle_alpha	82.785136
_cell_angle_beta	89.091650
_cell_angle_gamma	82.825094
loop_
_atom_site_label
_atom_site_type_symbol
_atom_site_fract_x
_atom_site_fract_y
_atom_site_fract_z
Zn1	Zn	1.498529	-0.383759	-0.780886
Zn2	Zn	1.998529	0.116241	-0.280886
Zn3	Zn	1.520248	-0.534574	-0.608900
Zn4	Zn	2.020248	-0.034574	-0.108900
Zn5	Zn	1.348370	-0.387973	-0.587117
Zn6	Zn	1.848370	0.112027	-0.087117
Zn7	Zn	1.326511	-0.501452	-0.759033
Zn8	Zn	1.826511	-0.001452	-0.259033
O9	O	1.423415	-0.451939	-0.683984
O10	O	1.923415	0.048061	-0.183984
O11	O	1.645332	-0.415863	-0.776334
O12	O	2.145332	0.084137	-0.276334
O13	O	1.515685	-0.530752	-0.462086
O14	O	2.015685	-0.030752	0.037914
O15	O	1.368348	-0.276806	-0.612850
O16	O	1.868348	0.223194	-0.112850
O17	O	1.661288	-0.526666	-0.649977
O18	O	2.161288	-0.026666	-0.149977
O19	O	1.478669	-0.273710	-0.755212
O20	O	1.978669	0.226290	-0.255212
O21	O	1.389407	-0.423045	-0.446082
O22	O	1.889407	0.076955	0.053918
O23	O	1.201549	-0.390928	-0.591660
O24	O	1.701549	0.109072	-0.091660
O25	O	1.331093	-0.470215	-0.905856
O26	O	1.831093	0.029785	-0.405856
O27	O	1.185489	-0.474300	-0.717966
O28	O	1.685489	0.025700	-0.217966
O29	O	1.457474	-0.383746	-0.921912
O30	O	1.957474	0.116254	-0.421912
O31	O	1.494489	-0.640788	-0.628786
O32	O	1.994489	-0.140788	-0.128786
O33	O	1.352152	-0.616454	-0.739088
O34	O	1.852152	-0.116454	-0.239088
C35	C	1.156202	-0.429478	-0.650078
C36	C	1.656202	0.070522	-0.150078
C37	C	1.041884	-0.419885	-0.635597
C38	C	1.541884	0.080115	-0.135597
C39	C	0.983011	-0.456946	-0.691542
C40	C	1.483011	0.043054	-0.191542
C41	C	0.864857	-0.447032	-0.676576
C42	C	1.364857	0.052968	-0.176576
C43	C	1.423331	-0.657300	-0.683956
C44	C	1.923331	-0.157300	-0.183956
C45	C	1.423384	-0.745159	-0.683990
C46	C	1.923384	-0.245159	-0.183990
C47	C	1.349396	-1.104006	-0.741423
C48	C	1.849396	-0.604006	-0.241423
C49	C	1.497706	-1.129283	-0.626686
C50	C	1.997706	-0.629283	-0.126686
C51	C	1.497672	-1.046735	-0.626672
C52	C	1.997672	-0.546735	-0.126672
C53	C	1.423497	-0.992818	-0.684033
C54	C	1.923497	-0.492818	-0.184033
C55	C	1.349357	-1.021450	-0.741409
C56	C	1.849357	-0.521450	-0.241409
C57	C	1.571804	-1.018097	-0.569289
C58	C	2.071804	-0.518097	-0.069289
C59	C	1.571772	-0.935545	-0.569272
C60	C	2.071772	-0.435545	-0.069272
C61	C	1.497600	-0.881627	-0.626640
C62	C	1.997600	-0.381627	-0.126640
C63	C	1.423458	-0.910263	-0.684018
C64	C	1.923458	-0.410263	-0.184018
C65	C	1.349283	-0.856346	-0.741380
C66	C	1.849283	-0.356346	-0.241380
C67	C	1.275145	-0.884980	-0.798765
C68	C	1.775145	-0.384980	-0.298765
C69	C	1.275186	-0.967531	-0.798776
C70	C	1.775186	-0.467531	-0.298776
C71	C	1.497559	-0.799075	-0.626628
C72	C	1.997559	-0.299075	-0.126628
C73	C	1.349244	-0.773790	-0.741365
C74	C	1.849244	-0.273790	-0.241365
C75	C	1.691671	-0.474490	-0.718023
C76	C	2.191671	0.025510	-0.218023
C77	C	1.805986	-0.484099	-0.732528
C78	C	2.305986	0.015901	-0.232528
C79	C	1.389422	-0.422816	-0.952245
C80	C	1.889422	0.077184	-0.452245
C81	C	1.374937	-0.410405	-1.066562
C82	C	1.874937	0.089595	-0.566562
C83	C	1.423524	-0.245776	-0.684039
C84	C	1.923524	0.254224	-0.184039
C85	C	1.423571	-0.157922	-0.684062
C86	C	1.923571	0.342078	-0.184062
C87	C	1.430959	-0.458163	-1.125447
C88	C	1.930959	0.041837	-0.625447
C89	C	1.415989	-0.445337	-1.243600
C90	C	1.915989	0.054663	-0.743600
C91	C	1.457334	-0.480898	-0.416774
C92	C	1.957334	0.019102	0.083226
C93	C	1.472018	-0.493102	-0.302483
C94	C	1.972018	0.006898	0.197517
H95	H	0.827792	-0.407957	-0.617601
H96	H	1.327792	0.092043	-0.117601
H97	H	1.004814	-0.380812	-0.576627
H98	H	1.504814	0.119188	-0.076627
H99	H	1.356944	-0.394948	-1.280654
H100	H	1.856944	0.105052	-0.780654
H101	H	1.531072	-0.543487	-1.265431
H102	H	2.031072	-0.043487	-0.765431
C103	C	1.033085	-0.509731	-0.771214
C104	C	1.533085	-0.009731	-0.271214
N105	N	1.070799	-0.549491	-0.831223
N106	N	1.570799	-0.049491	-0.331223
C107	C	1.295168	-0.342337	-1.116622
C108	C	1.795168	0.157663	-0.616622
N109	N	1.235084	-0.291068	-1.154325
N110	N	1.735084	0.208932	-0.654325
C111	C	1.193554	-0.825662	-0.861860
C112	C	1.693554	-0.325662	-0.361860
N113	N	1.132103	-0.780980	-0.909382
N114	N	1.632103	-0.280980	-0.409382
H115	H	1.288845	-0.729895	-0.788080
H116	H	1.788845	-0.229895	-0.288080
C117	C	0.856053	-0.536884	-0.812208
C118	C	1.356053	-0.036884	-0.312208
N119	N	0.893764	-0.576643	-0.872221
N120	N	1.393764	-0.076643	-0.372221
H121	H	1.214825	-0.990853	-0.845495
H122	H	1.714825	-0.490853	-0.345495
C123	C	1.267844	-1.135504	-0.804539
C124	C	1.767844	-0.635504	-0.304539
N125	N	1.206415	-1.159229	-0.852076
N126	N	1.706415	-0.659229	-0.352076
C127	C	1.579108	-0.767581	-0.563510
C128	C	2.079108	-0.267581	-0.063510
N129	N	1.640537	-0.743861	-0.515970
N130	N	2.140537	-0.243861	-0.015970
H131	H	1.490008	-0.508544	-1.088389
H132	H	1.990008	-0.008544	-0.588389
H133	H	1.558091	-1.173186	-0.579978
H134	H	2.058091	-0.673186	-0.079978
C135	C	1.653319	-0.904056	-0.506141
C136	C	2.153319	-0.404056	-0.006141
N137	N	1.714741	-0.880337	-0.458588
N138	N	2.214741	-0.380337	0.041412
C139	C	1.653377	-1.077410	-0.506179
C140	C	2.153377	-0.577410	-0.006179
N141	N	1.714819	-1.122088	-0.458640
N142	N	2.214819	-0.622088	0.041360
