data_functionalizedCrystal
_audit_creation_method	'MofGen! by Chris Wilmer'
_symmetry_space_group_name_H-M	'P1'
_symmetry_Int_Tables_number	1
_symmetry_cell_setting	triclinic
loop_
_symmetry_equiv_pos_as_xyz
  x,y,z
_cell_length_a	13.033855
_cell_length_b	19.077269
_cell_length_c	13.033429
_cell_angle_alpha	99.144056
_cell_angle_beta	76.646658
_cell_angle_gamma	80.844711
loop_
_atom_site_label
_atom_site_type_symbol
_atom_site_fract_x
_atom_site_fract_y
_atom_site_fract_z
Zn1	Zn	-0.419690	1.071422	-0.473689
Zn2	Zn	-0.622256	1.106010	-0.271175
Zn3	Zn	-0.435352	0.969659	-0.303042
Zn4	Zn	-0.590303	0.969656	-0.458064
O5	O	-0.516900	1.029187	-0.376493
O6	O	-0.453378	1.175663	-0.440028
O7	O	-0.617390	1.102399	-0.125773
O8	O	-0.283653	0.968685	-0.345554
O9	O	-0.602203	1.201074	-0.291242
O10	O	-0.272146	1.043450	-0.470928
O11	O	-0.480073	1.002223	-0.149185
O12	O	-0.449089	0.870006	-0.330404
O13	O	-0.547744	0.968679	-0.609767
O14	O	-0.562931	0.870004	-0.444298
O15	O	-0.422395	1.043446	-0.621246
O16	O	-0.767639	1.102396	-0.276091
O17	O	-0.744164	1.002217	-0.413398
C18	C	-0.504243	0.844166	-0.389114
C19	C	-0.498851	0.765014	-0.394535
C20	C	-0.573704	0.741054	-0.319530
C21	C	-0.568636	0.666680	-0.324638
C22	C	-0.488708	0.616268	-0.404747
C23	C	-0.413851	0.640231	-0.479759
C24	C	-0.418925	0.714604	-0.474655
C25	C	-0.465239	0.392419	-0.428333
C26	C	-0.460169	0.318042	-0.433429
C27	C	-0.614956	0.344496	-0.278308
C28	C	-0.620019	0.418869	-0.273207
C29	C	-0.545165	0.442826	-0.348223
N30	N	-0.483524	0.540246	-0.409968
N31	N	-0.550355	0.518847	-0.343006
C32	C	-0.794695	1.056076	-0.339613
C33	C	-0.913536	1.067641	-0.323867
C34	C	-0.954944	1.023204	-0.384728
C35	C	-1.077773	1.035156	-0.368456
C36	C	-0.238019	1.002209	-0.413538
C37	C	-0.119177	0.990713	-0.429325
C38	C	-0.479758	1.002204	-0.655389
C39	C	-0.463930	0.990706	-0.774238
C40	C	-0.529608	1.214930	-0.363823
C41	C	-0.535023	1.294083	-0.358424
C42	C	-0.508473	1.023267	-0.938470
C43	C	-0.524826	1.035150	-0.815635
C44	C	-0.553824	1.056098	-0.098689
C45	C	-0.569360	1.067705	0.020129
H46	H	-0.685104	0.459911	-0.207973
H47	H	-0.899464	0.976309	-0.448878
C48	C	-0.368580	0.921210	-0.951606
C49	C	-0.421753	0.960027	-1.013374
H50	H	-0.315038	0.882171	-0.997849
H51	H	-0.419059	0.902662	-0.903725
H52	H	-0.335565	0.952472	-0.911367
H53	H	-0.454774	0.928766	-1.053607
H54	H	-0.371265	0.978575	-1.061274
C55	C	-0.610967	1.097923	-0.633546
C56	C	-0.611551	1.098392	-0.740733
H57	H	-0.664512	1.136962	-0.587306
H58	H	-0.542261	1.103152	-0.624140
H59	H	-0.625752	1.053339	-0.616494
H60	H	-0.596759	1.142974	-0.757787
H61	H	-0.680273	1.093169	-0.750144
C62	C	-1.106070	0.888598	-0.569094
C63	C	-1.044294	0.927401	-0.515934
H64	H	-1.059840	0.849510	-0.622556
H65	H	-1.146225	0.919844	-0.602197
H66	H	-1.154030	0.870114	-0.518579
H67	H	-0.996340	0.945890	-0.566448
H68	H	-1.004122	0.896149	-0.482831
C69	C	-0.307690	0.299358	-0.586274
C70	C	-0.372316	0.262625	-0.521501
H71	H	-0.253462	0.265145	-0.640646
H72	H	-0.274883	0.328887	-0.543214
H73	H	-0.350898	0.328946	-0.618904
H74	H	-0.329109	0.233042	-0.488865
H75	H	-0.405124	0.233085	-0.564567
H76	H	-0.675899	0.324982	-0.217236
H77	H	-0.357970	0.734109	-0.535732
H78	H	-0.969019	1.114532	-0.259712
H79	H	-1.133253	1.082051	-0.304296
C80	C	-0.757357	1.123230	-0.918861
C81	C	-0.656080	1.130944	-0.904969
H82	H	-0.810894	1.162274	-0.872624
H83	H	-0.772134	1.078655	-0.901793
H84	H	-0.757731	1.123540	-0.991586
H85	H	-0.655704	1.130628	-0.832245
H86	H	-0.641299	1.175531	-0.922029
H87	H	-0.399686	0.943862	-0.829727
H88	H	-0.629590	0.647177	-0.263561
C89	C	-0.763209	0.786536	-0.241562
C90	C	-0.661567	0.796467	-0.231475
H91	H	-0.817453	0.820749	-0.187205
H92	H	-0.770894	0.738819	-0.233863
H93	H	-0.770218	0.793318	-0.310456
H94	H	-0.654554	0.789680	-0.162584
H95	H	-0.653879	0.844195	-0.239165
C96	C	-0.404288	0.494672	-0.489404
C97	C	-0.382959	0.418748	-0.510786
H98	H	-0.353492	0.510926	-0.540315
H99	H	-0.398917	0.512267	-0.418855
H100	H	-0.474918	0.512312	-0.494559
H101	H	-0.312332	0.401107	-0.505622
H102	H	-0.388320	0.401145	-0.581353
C103	C	-0.374359	0.541281	-0.631287
C104	C	-0.325993	0.584817	-0.567816
H105	H	-0.320115	0.507068	-0.685644
H106	H	-0.417539	0.570868	-0.663929
H107	H	-0.418212	0.516371	-0.587334
H108	H	-0.282147	0.609730	-0.611768
H109	H	-0.282795	0.555225	-0.535173
