data_functionalizedCrystal
_audit_creation_method	'MofGen! by Chris Wilmer'
_symmetry_space_group_name_H-M	'P1'
_symmetry_Int_Tables_number	1
_symmetry_cell_setting	triclinic
loop_
_symmetry_equiv_pos_as_xyz
  x,y,z
_cell_length_a	12.827893
_cell_length_b	13.032721
_cell_length_c	12.827885
_cell_angle_alpha	97.149035
_cell_angle_beta	89.980728
_cell_angle_gamma	97.204267
loop_
_atom_site_label
_atom_site_type_symbol
_atom_site_fract_x
_atom_site_fract_y
_atom_site_fract_z
Zn1	Zn	1.544798	-0.415987	-0.643644
Zn2	Zn	1.522478	-0.590766	-0.491086
Zn3	Zn	1.370033	-0.416038	-0.468924
Zn4	Zn	1.347821	-0.590688	-0.665776
O5	O	1.446282	-0.503370	-0.567357
O6	O	1.688072	-0.439183	-0.623419
O7	O	1.502211	-0.567642	-0.341917
O8	O	1.411853	-0.269794	-0.473563
O9	O	1.671673	-0.567593	-0.511336
O10	O	1.540252	-0.269756	-0.601929
O11	O	1.390210	-0.439270	-0.325634
O12	O	1.220852	-0.439194	-0.495024
O13	O	1.373995	-0.567460	-0.809070
O14	O	1.204532	-0.567509	-0.639651
O15	O	1.518714	-0.439108	-0.792809
O16	O	1.480672	-0.736993	-0.532797
O17	O	1.352352	-0.736936	-0.661141
C18	C	1.174775	-0.503350	-0.567335
C19	C	1.058620	-0.503366	-0.567353
C20	C	0.998775	-0.566960	-0.638834
C21	C	0.878722	-0.566978	-0.638854
C22	C	1.411708	-0.774882	-0.601798
C23	C	1.397013	-0.891037	-0.616567
C24	C	1.454008	-0.942815	-0.559696
C25	C	1.438821	-1.062867	-0.574959
C26	C	1.718850	-0.503391	-0.567381
C27	C	1.835002	-0.503400	-0.567391
C28	C	1.446366	-0.503270	-0.839915
C29	C	1.446402	-0.503227	-0.956063
C30	C	1.481020	-0.230797	-0.532805
C31	C	1.495823	-0.114643	-0.518081
C32	C	1.518022	-0.439702	-0.999800
C33	C	1.518061	-0.439656	-1.119844
C34	C	1.446269	-0.503394	-0.295851
C35	C	1.446473	-0.503143	-0.179666
H36	H	1.020978	-0.448931	-0.506175
H37	H	1.385108	-0.557572	-1.007490
H38	H	1.514051	-0.898270	-0.499712
C39	C	0.841031	-0.371118	-0.418687
C40	C	0.904420	-0.429898	-0.484763
H41	H	0.883893	-0.325748	-0.367673
H42	H	0.803570	-0.331164	-0.459183
H43	H	0.792650	-0.416582	-0.384381
H44	H	0.952796	-0.384435	-0.519075
H45	H	0.941898	-0.469855	-0.444262
H46	H	1.036418	-0.621387	-0.700019
H47	H	1.579306	-0.385345	-0.948371
C48	C	1.591493	-0.262723	-1.131214
C49	C	1.600843	-0.366229	-1.170647
H50	H	1.642606	-0.217392	-1.162574
H51	H	1.523225	-0.247442	-1.147116
H52	H	1.602325	-0.253136	-1.057207
H53	H	1.590003	-0.375818	-1.244653
H54	H	1.669127	-0.381515	-1.154752
H55	H	1.385157	-0.557536	-1.142030
C56	C	1.408801	-1.185650	-0.731014
C57	C	1.357764	-1.122991	-0.655949
H58	H	1.358759	-1.222773	-0.781008
H59	H	1.459655	-1.142998	-0.765641
H60	H	1.442589	-1.233687	-0.697300
H61	H	1.323983	-1.074950	-0.689663
H62	H	1.306892	-1.165647	-0.621319
C63	C	0.703807	-0.626269	-0.705506
C64	C	0.809296	-0.640479	-0.721476
H65	H	0.660947	-0.671643	-0.756520
H66	H	0.684009	-0.641471	-0.637191
H67	H	0.694921	-0.556056	-0.711994
H68	H	0.818183	-0.710691	-0.714980
H69	H	0.829100	-0.625284	-0.789808
H70	H	1.555870	-1.070100	-0.458092
H71	H	1.336978	-0.935584	-0.676559
