data_functionalizedCrystal
_audit_creation_method	'MofGen! by Chris Wilmer'
_symmetry_space_group_name_H-M	'P1'
_symmetry_Int_Tables_number	1
_symmetry_cell_setting	triclinic
loop_
_symmetry_equiv_pos_as_xyz
  x,y,z
_cell_length_a	17.038272
_cell_length_b	19.288856
_cell_length_c	18.366186
_cell_angle_alpha	90.011039
_cell_angle_beta	89.993834
_cell_angle_gamma	92.877841
loop_
_atom_site_label
_atom_site_type_symbol
_atom_site_fract_x
_atom_site_fract_y
_atom_site_fract_z
O1	O	0.097482	-0.927388	-0.060584
O2	O	0.430815	-0.594054	0.272749
O3	O	0.764149	-0.260721	0.606083
O4	O	0.110643	-0.725941	-0.060578
O5	O	0.443977	-0.392607	0.272755
O6	O	0.777310	-0.059274	0.606088
O7	O	-0.009749	-0.825467	-0.060575
O8	O	0.323585	-0.492134	0.272758
O9	O	0.656918	-0.158800	0.606091
O10	O	0.217874	-0.827861	-0.060587
O11	O	0.551207	-0.494528	0.272746
O12	O	0.884541	-0.161195	0.606080
O13	O	-0.009755	-0.825448	0.060524
O14	O	0.323579	-0.492115	0.393857
O15	O	0.656912	-0.158782	0.727191
O16	O	0.110637	-0.725922	0.060521
O17	O	0.443971	-0.392589	0.393854
O18	O	0.777304	-0.059255	0.727188
O19	O	0.097476	-0.927369	0.060515
O20	O	0.430809	-0.594036	0.393849
O21	O	0.764143	-0.260703	0.727182
Zn22	Zn	0.104056	-0.826643	0.079745
Zn23	Zn	0.437389	-0.493309	0.413079
Zn24	Zn	0.770722	-0.159976	0.746412
Zn25	Zn	0.104064	-0.826667	-0.079808
Zn26	Zn	0.437397	-0.493334	0.253525
Zn27	Zn	0.770730	-0.160000	0.586858
O28	O	0.217868	-0.827843	0.060513
O29	O	0.551202	-0.494510	0.393846
O30	O	0.884535	-0.161176	0.727179
C31	C	0.110218	-0.700029	-0.000028
C32	C	0.443551	-0.366695	0.333306
C33	C	0.776885	-0.033362	0.666639
C34	C	0.108950	-0.622846	-0.000025
C35	C	0.442283	-0.289513	0.333308
C36	C	0.775617	0.043820	0.666641
C37	C	-0.038873	-0.823280	-0.000026
C38	C	0.294460	-0.489947	0.333308
C39	C	0.627794	-0.156613	0.666641
C40	C	-0.125645	-0.816782	-0.000026
C41	C	0.207689	-0.483449	0.333308
C42	C	0.541022	-0.150116	0.666641
C43	C	0.171013	-0.062645	-0.000018
C44	C	0.504347	0.270688	0.333315
C45	C	0.837680	0.604022	0.666649
C46	C	0.172212	-0.135166	-0.000023
C47	C	0.505545	0.198168	0.333310
C48	C	0.838878	0.531501	0.666643
C49	C	0.101571	-0.175502	-0.000019
C50	C	0.434904	0.157831	0.333314
C51	C	0.768238	0.491165	0.666647
C52	C	0.029727	-0.143312	-0.000029
C53	C	0.363060	0.190022	0.333305
C54	C	0.696394	0.523355	0.666638
C55	C	0.028531	-0.070792	-0.000030
C56	C	0.361864	0.262541	0.333303
C57	C	0.695198	0.595874	0.666636
C58	C	0.048885	-0.293506	0.042410
C59	C	0.382218	0.039827	0.375743
C60	C	0.715552	0.373160	0.709077
C61	C	0.050084	-0.366024	0.042416
C62	C	0.383417	-0.032691	0.375750
C63	C	0.716751	0.300643	0.709083
C64	C	0.105257	-0.399176	-0.000017
C65	C	0.438591	-0.065843	0.333317
C66	C	0.771924	0.267491	0.666650
C67	C	0.159245	-0.359800	-0.042447
C68	C	0.492578	-0.026467	0.290886
C69	C	0.825912	0.306866	0.624220
C70	C	0.158049	-0.287281	-0.042449
C71	C	0.491382	0.046052	0.290885
C72	C	0.824715	0.379386	0.624218
C73	C	0.102860	-0.254137	-0.000018
C74	C	0.436193	0.079196	0.333316
C75	C	0.769527	0.412529	0.666649
C76	C	0.178396	-0.509993	-0.000018
C77	C	0.511729	-0.176660	0.333315
C78	C	0.845063	0.156674	0.666648
C79	C	0.179591	-0.582515	-0.000028
C80	C	0.512925	-0.249182	0.333305
C81	C	0.846258	0.084152	0.666638
C82	C	0.037105	-0.590660	-0.000026
C83	C	0.370438	-0.257327	0.333307
C84	C	0.703771	0.076007	0.666641
C85	C	0.035912	-0.518139	-0.000024
C86	C	0.369245	-0.184806	0.333310
C87	C	0.702578	0.148528	0.666643
C88	C	0.106560	-0.477810	-0.000016
C89	C	0.439893	-0.144476	0.333317
C90	C	0.773226	0.188857	0.666650
C91	C	-0.175953	-0.876438	-0.000027
C92	C	0.157380	-0.543105	0.333307
C93	C	0.490713	-0.209772	0.666640
C94	C	-0.257484	-0.870329	-0.000033
C95	C	0.075849	-0.536996	0.333300
C96	C	0.409183	-0.203662	0.666633
C97	C	-0.288704	-0.804563	-0.000034
C98	C	0.044629	-0.471229	0.333299
C99	C	0.377962	-0.137896	0.666633
C100	C	-0.238389	-0.744902	-0.000035
C101	C	0.094944	-0.411569	0.333298
C102	C	0.428278	-0.078236	0.666632
C103	C	-0.156860	-0.751012	-0.000034
C104	C	0.176473	-0.417679	0.333300
C105	C	0.509807	-0.084346	0.666633
C106	C	-0.534392	-0.782977	-0.000043
C107	C	-0.201058	-0.449644	0.333290
C108	C	0.132275	-0.116311	0.666623
C109	C	-0.615927	-0.776872	-0.000043
C110	C	-0.282594	-0.443538	0.333291
C111	C	0.050739	-0.110205	0.666624
C112	C	-0.635017	-0.902299	-0.000042
C113	C	-0.301683	-0.568966	0.333291
C114	C	0.031650	-0.235632	0.666625
C115	C	-0.553485	-0.908403	-0.000036
C116	C	-0.220152	-0.575070	0.333297
C117	C	0.113182	-0.241737	0.666630
C118	C	-0.503177	-0.848743	-0.000041
C119	C	-0.169844	-0.515409	0.333292
C120	C	0.163490	-0.182076	0.666625
C121	C	-0.372041	-0.798316	-0.000038
C122	C	-0.038708	-0.464983	0.333295
C123	C	0.294625	-0.131650	0.666628
C124	C	-0.419842	-0.854990	-0.000042
C125	C	-0.086508	-0.521656	0.333291
C126	C	0.246825	-0.188323	0.666625
C127	C	0.246992	-0.830030	-0.000039
C128	C	0.580326	-0.496697	0.333295
C129	C	0.913659	-0.163363	0.666628
C130	C	0.333764	-0.836528	-0.000044
C131	C	0.667097	-0.503194	0.333290
C132	C	1.000431	-0.169861	0.666623
C133	C	0.097904	0.046719	-0.000031
C134	C	0.431237	0.380052	0.333302
C135	C	0.764570	0.713386	0.666635
C136	C	0.099179	-0.030463	-0.000023
C137	C	0.432512	0.302870	0.333310
C138	C	0.765845	0.636204	0.666643
N139	N	0.104050	-0.826631	0.188637
N140	N	0.437383	-0.493298	0.521970
N141	N	0.770717	-0.159965	0.855303
N142	N	0.104063	-0.826684	-0.188699
N143	N	0.437396	-0.493351	0.144634
N144	N	0.770730	-0.160017	0.477967
C145	C	0.050767	-0.870719	0.226738
C146	C	0.384100	-0.537385	0.560072
C147	C	0.717433	-0.204052	0.893405
C148	C	0.050763	-0.870723	0.302966
C149	C	0.384096	-0.537389	0.636299
C150	C	0.717430	-0.204056	0.969633
C151	C	0.104056	-0.826647	0.341089
C152	C	0.437390	-0.493314	0.674423
C153	C	0.770723	-0.159980	1.007756
C154	C	0.157344	-0.782551	0.302978
C155	C	0.490677	-0.449218	0.636312
C156	C	0.824011	-0.115884	0.969645
C157	C	0.157341	-0.782543	0.226752
C158	C	0.490674	-0.449210	0.560085
C159	C	0.824008	-0.115877	0.893419
C160	C	0.175280	-0.821756	0.461846
C161	C	0.508614	-0.488422	0.795179
C162	C	0.841947	-0.155089	1.128513
C163	C	0.175285	-0.821768	0.538071
C164	C	0.508618	-0.488435	0.871404
C165	C	0.841951	-0.155102	1.204738
C166	C	0.104066	-0.826667	0.576197
C167	C	0.437400	-0.493334	0.909530
C168	C	0.770733	-0.160001	1.242864
C169	C	0.032840	-0.831568	0.538088
C170	C	0.366174	-0.498235	0.871422
C171	C	0.699507	-0.164902	1.204755
C172	C	0.032837	-0.831560	0.461862
C173	C	0.366171	-0.498227	0.795195
C174	C	0.699504	-0.164894	1.128529
C175	C	0.104066	-0.826650	0.423744
C176	C	0.437399	-0.493317	0.757077
C177	C	0.770732	-0.159984	1.090411
C178	C	0.050775	-0.870762	0.696953
C179	C	0.384108	-0.537428	1.030287
C180	C	0.717441	-0.204095	1.363620
C181	C	0.050770	-0.870761	0.773183
C182	C	0.384103	-0.537428	1.106516
C183	C	0.717437	-0.204094	1.439849
C184	C	0.157358	-0.782593	0.773194
C185	C	0.490691	-0.449260	1.106527
C186	C	0.824025	-0.115926	1.439860
C187	C	0.157356	-0.782590	0.696966
C188	C	0.490689	-0.449257	1.030299
C189	C	0.824022	-0.115923	1.363632
C190	C	0.104065	-0.826678	0.658850
C191	C	0.437398	-0.493345	0.992184
C192	C	0.770731	-0.160011	1.325517
H193	H	0.228541	-0.029813	-0.000016
H194	H	0.561874	0.303520	0.333318
H195	H	0.895207	0.636854	0.666651
Br196	Br	-0.026045	-0.248525	0.099954
Br197	Br	0.307288	0.084809	0.433287
Br198	Br	0.640622	0.418142	0.766620
H199	H	-0.022584	-0.491937	-0.000023
H200	H	0.310749	-0.158603	0.333310
H201	H	0.644083	0.174730	0.666643
H202	H	0.007372	-0.906616	0.195707
H203	H	0.340706	-0.573282	0.529040
H204	H	0.674039	-0.239949	0.862374
H205	H	0.200735	-0.746663	0.334022
H206	H	0.534069	-0.413329	0.667355
H207	H	0.867402	-0.079996	1.000689
H208	H	-0.027789	-0.176158	-0.000027
H209	H	0.305545	0.157175	0.333306
H210	H	0.638878	0.490509	0.666639
Br211	Br	-0.063820	-0.838226	0.589820
Br212	Br	0.269513	-0.504892	0.923153
Br213	Br	0.602846	-0.171559	1.256487
Br214	Br	-0.023175	-0.419455	0.100008
Br215	Br	0.310158	-0.086121	0.433342
Br216	Br	0.643492	0.247212	0.766675
H217	H	-0.528072	-0.961957	-0.000036
H218	H	-0.194739	-0.628624	0.333298
H219	H	0.138595	-0.295290	0.666631
Br220	Br	0.229659	-0.722705	0.175038
Br221	Br	0.562992	-0.389372	0.508371
Br222	Br	0.896326	-0.056039	0.841705
H223	H	-0.115899	-0.702434	-0.000033
H224	H	0.217435	-0.369100	0.333300
H225	H	0.550768	-0.035767	0.666634
Br226	Br	-0.280758	-0.655647	-0.000048
Br227	Br	0.052575	-0.322314	0.333285
Br228	Br	0.385908	0.011020	0.666618
H229	H	-0.397470	-0.744769	-0.000037
H230	H	-0.064137	-0.411436	0.333296
H231	H	0.269197	-0.078103	0.666629
Br232	Br	0.271945	-0.815176	0.410112
Br233	Br	0.605278	-0.481843	0.743445
Br234	Br	0.938612	-0.148510	1.076779
H235	H	-0.493440	-0.734397	-0.000047
H236	H	-0.160107	-0.401064	0.333286
H237	H	0.173226	-0.067730	0.666619
H238	H	-0.394418	-0.908536	-0.000058
H239	H	-0.061085	-0.575203	0.333276
H240	H	0.272248	-0.241869	0.666609
H241	H	0.007371	-0.906625	0.333994
H242	H	0.340705	-0.573292	0.667328
H243	H	0.674038	-0.239958	1.000661
Br244	Br	-0.068967	-0.027114	-0.000042
Br245	Br	0.264367	0.306220	0.333291
Br246	Br	0.597700	0.639553	0.666625
Br247	Br	0.231310	-0.233845	-0.100033
Br248	Br	0.564643	0.099489	0.233301
Br249	Br	0.897977	0.432822	0.566634
Br250	Br	0.269708	-0.178852	-0.000017
Br251	Br	0.603042	0.154481	0.333317
Br252	Br	0.936375	0.487815	0.666650
Br253	Br	-0.063821	-0.838204	0.410145
Br254	Br	0.269513	-0.504871	0.743478
Br255	Br	0.602846	-0.171538	1.076811
H256	H	0.204174	-0.386791	-0.076998
H257	H	0.537508	-0.053457	0.256335
H258	H	0.870841	0.279876	0.589669
H259	H	0.007376	-0.906660	0.804206
H260	H	0.340709	-0.573326	1.137539
H261	H	0.674043	-0.239993	1.470872
Br262	Br	0.274272	-0.455256	-0.000009
Br263	Br	0.607606	-0.121923	0.333324
Br264	Br	0.940939	0.211410	0.666658
Br265	Br	-0.133592	-0.965697	-0.000015
Br266	Br	0.199742	-0.632363	0.333318
Br267	Br	0.533075	-0.299030	0.666651
H268	H	0.238090	-0.608716	-0.000030
H269	H	0.571423	-0.275382	0.333303
H270	H	0.904757	0.057951	0.666636
H271	H	-0.020412	-0.623501	-0.000028
H272	H	0.312921	-0.290168	0.333305
H273	H	0.646255	0.043166	0.666638
H274	H	0.007379	-0.906659	0.665919
H275	H	0.340713	-0.573325	0.999252
H276	H	0.674046	-0.239992	1.332585
H277	H	0.200747	-0.746703	0.804233
H278	H	0.534081	-0.413370	1.137566
H279	H	0.867414	-0.080036	1.470900
H280	H	0.200747	-0.746693	0.665941
H281	H	0.534081	-0.413359	0.999275
H282	H	0.867414	-0.080026	1.332608
H283	H	-0.298443	-0.918908	-0.000032
H284	H	0.034891	-0.585574	0.333301
H285	H	0.368224	-0.252241	0.666634
Br286	Br	-0.703295	-0.983262	-0.000035
Br287	Br	-0.369961	-0.649929	0.333298
Br288	Br	-0.036628	-0.316596	0.666631
Br289	Br	-0.658297	-0.687612	-0.000036
Br290	Br	-0.324964	-0.354278	0.333297
Br291	Br	0.008370	-0.020945	0.666631
H292	H	0.233281	-0.817782	0.569093
H293	H	0.566614	-0.484449	0.902427
H294	H	0.899947	-0.151116	1.235760
