data_functionalizedCrystal
_audit_creation_method	'MofGen! by Chris Wilmer'
_symmetry_space_group_name_H-M	'P1'
_symmetry_Int_Tables_number	1
_symmetry_cell_setting	triclinic
loop_
_symmetry_equiv_pos_as_xyz
  x,y,z
_cell_length_a	19.805407
_cell_length_b	19.121063
_cell_length_c	19.121605
_cell_angle_alpha	90.075163
_cell_angle_beta	87.543967
_cell_angle_gamma	92.469032
loop_
_atom_site_label
_atom_site_type_symbol
_atom_site_fract_x
_atom_site_fract_y
_atom_site_fract_z
Zn1	Zn	1.040717	-0.262209	-0.408313
Zn2	Zn	1.374050	0.071125	-0.074980
Zn3	Zn	1.707384	0.404458	0.258354
Zn4	Zn	1.030995	-0.384450	-0.296069
Zn5	Zn	1.364328	-0.051117	0.037264
Zn6	Zn	1.697661	0.282216	0.370598
Zn7	Zn	0.922511	-0.267230	-0.291087
Zn8	Zn	1.255845	0.066103	0.042246
Zn9	Zn	1.589178	0.399437	0.375579
Zn10	Zn	0.922877	-0.379413	-0.413264
Zn11	Zn	1.256211	-0.046079	-0.079931
Zn12	Zn	1.589544	0.287254	0.253403
O13	O	0.979275	-0.323325	-0.352183
O14	O	1.312608	0.010008	-0.018850
O15	O	1.645942	0.343341	0.314483
O16	O	1.134144	-0.278431	-0.393436
O17	O	1.467477	0.054902	-0.060103
O18	O	1.800811	0.388235	0.273230
O19	O	1.012382	-0.373111	-0.197302
O20	O	1.345715	-0.039777	0.136031
O21	O	1.679049	0.293556	0.469364
O22	O	0.942107	-0.168457	-0.302480
O23	O	1.275441	0.164877	0.030853
O24	O	1.608774	0.498210	0.364186
O25	O	1.127001	-0.368242	-0.310971
O26	O	1.460334	-0.034908	0.022362
O27	O	1.793668	0.298425	0.355695
O28	O	1.028952	-0.164768	-0.388606
O29	O	1.362286	0.168566	-0.055272
O30	O	1.695619	0.501899	0.278061
O31	O	0.932680	-0.286989	-0.193642
O32	O	1.266013	0.046344	0.139691
O33	O	1.599346	0.379677	0.473024
O34	O	0.827843	-0.282104	-0.307282
O35	O	1.161176	0.051229	0.026052
O36	O	1.494510	0.384562	0.359385
O37	O	0.942731	-0.359656	-0.510713
O38	O	1.276064	-0.026322	-0.177380
O39	O	1.609398	0.307011	0.155953
O40	O	0.828112	-0.364524	-0.397044
O41	O	1.161445	-0.031191	-0.063711
O42	O	1.494779	0.302142	0.269622
O43	O	1.029307	-0.273546	-0.507076
O44	O	1.362641	0.059787	-0.173742
O45	O	1.695974	0.393120	0.159591
O46	O	1.012737	-0.481890	-0.315772
O47	O	1.346070	-0.148556	0.017561
O48	O	1.679404	0.184777	0.350894
O49	O	0.933304	-0.478188	-0.401875
O50	O	1.266637	-0.144855	-0.068542
O51	O	1.599970	0.188478	0.264792
C52	C	0.803419	-0.323313	-0.352160
C53	C	1.136752	0.010020	-0.018827
C54	C	1.470085	0.343354	0.314507
C55	C	0.728186	-0.323324	-0.352168
C56	C	1.061520	0.010009	-0.018834
C57	C	1.394853	0.343343	0.314499
C58	C	0.692994	-0.366311	-0.398837
C59	C	1.026328	-0.032977	-0.065504
C60	C	1.359661	0.300356	0.267829
C61	C	0.622306	-0.366311	-0.398847
C62	C	0.955640	-0.032978	-0.065514
C63	C	1.288973	0.300355	0.267819
C64	C	0.586811	-0.323329	-0.352183
C65	C	0.920145	0.010005	-0.018850
C66	C	1.253478	0.343338	0.314483
C67	C	0.622009	-0.280337	-0.305511
C68	C	0.955342	0.052996	0.027822
C69	C	1.288675	0.386330	0.361155
C70	C	0.692696	-0.280333	-0.305505
C71	C	1.026029	0.053000	0.027828
C72	C	1.359362	0.386334	0.361161
C73	C	0.336936	-0.280352	-0.305535
C74	C	0.670269	0.052982	0.027798
C75	C	1.003602	0.386315	0.361131
C76	C	0.266244	-0.280360	-0.305543
C77	C	0.599577	0.052973	0.027790
C78	C	0.932910	0.386306	0.361123
C79	C	0.266546	-0.366330	-0.398877
C80	C	0.599880	-0.032997	-0.065544
C81	C	0.933213	0.300337	0.267790
C82	C	0.337233	-0.366326	-0.398871
C83	C	0.670567	-0.032993	-0.065538
C84	C	1.003900	0.300341	0.267796
C85	C	0.372425	-0.323332	-0.352202
C86	C	0.705758	0.010001	-0.018869
C87	C	1.039091	0.343335	0.314465
C88	C	0.449073	-0.323331	-0.352193
C89	C	0.782406	0.010003	-0.018859
C90	C	1.115739	0.343336	0.314474
C91	C	0.510164	-0.323333	-0.352189
C92	C	0.843498	0.010000	-0.018855
C93	C	1.176831	0.343333	0.314478
C94	C	0.972024	-0.505476	-0.359917
C95	C	1.305357	-0.172143	-0.026583
C96	C	1.638691	0.161190	0.306750
C97	C	0.968985	-0.583400	-0.363249
C98	C	1.302318	-0.250067	-0.029915
C99	C	1.635652	0.083266	0.303418
C100	C	1.008949	-0.621911	-0.320022
C101	C	1.342282	-0.288578	0.013311
C102	C	1.675616	0.044755	0.346645
C103	C	1.006095	-0.695129	-0.323160
C104	C	1.339428	-0.361795	0.010174
C105	C	1.672762	-0.028462	0.343507
C106	C	0.963273	-0.729834	-0.369521
C107	C	1.296606	-0.396501	-0.036188
C108	C	1.629940	-0.063167	0.297146
C109	C	0.923307	-0.691318	-0.412752
C110	C	1.256641	-0.357984	-0.079419
C111	C	1.589974	-0.024651	0.253914
C112	C	0.926165	-0.618101	-0.409618
C113	C	1.259499	-0.284768	-0.076284
C114	C	1.592832	0.048565	0.257049
C115	C	0.952576	-0.950805	-0.381230
C116	C	1.285909	-0.617471	-0.047897
C117	C	1.619243	-0.284138	0.285437
C118	C	0.949719	-1.024026	-0.384360
C119	C	1.283053	-0.690693	-0.051026
C120	C	1.616386	-0.357360	0.282307
C121	C	1.032508	-1.027832	-0.294768
C122	C	1.365842	-0.694499	0.038566
C123	C	1.699175	-0.361166	0.371899
C124	C	1.035360	-0.954615	-0.291634
C125	C	1.368693	-0.621281	0.041699
C126	C	1.702026	-0.287948	0.375033
C127	C	0.995397	-0.916104	-0.334868
C128	C	1.328730	-0.582771	-0.001535
C129	C	1.662063	-0.249438	0.331799
C130	C	0.960353	-0.804674	-0.372728
C131	C	1.293686	-0.471341	-0.039394
C132	C	1.627020	-0.138008	0.293939
C133	C	0.998321	-0.841266	-0.331664
C134	C	1.331654	-0.507932	0.001669
C135	C	1.664987	-0.174599	0.335002
C136	C	1.155818	-0.323338	-0.352207
C137	C	1.489152	0.009995	-0.018874
C138	C	1.822485	0.343328	0.314460
C139	C	1.231050	-0.323344	-0.352217
C140	C	1.564384	0.009989	-0.018884
C141	C	1.897717	0.343323	0.314449
C142	C	0.987145	-0.315479	-0.535043
C143	C	1.320478	0.017854	-0.201710
C144	C	1.653811	0.351188	0.131623
C145	C	0.990498	-0.312135	-0.612967
C146	C	1.323831	0.021198	-0.279634
C147	C	1.657165	0.354531	0.053699
C148	C	0.986573	-0.140463	-0.344435
C149	C	1.319907	0.192871	-0.011102
C150	C	1.653240	0.526204	0.322232
C151	C	0.989684	-0.062537	-0.341133
C152	C	1.323017	0.270796	-0.007800
C153	C	1.656350	0.604129	0.325534
C154	C	1.011760	-0.290978	-1.053596
C155	C	1.345093	0.042355	-0.720262
C156	C	1.678427	0.375689	-0.386929
C157	C	1.008605	-0.294123	-0.980378
C158	C	1.341938	0.039210	-0.647044
C159	C	1.675271	0.372544	-0.313711
C160	C	0.961948	-0.340524	-0.945666
C161	C	1.295282	-0.007191	-0.612333
C162	C	1.628615	0.326143	-0.278999
C163	C	0.918449	-0.383788	-0.984176
C164	C	1.251782	-0.050454	-0.650843
C165	C	1.585116	0.282879	-0.317510
C166	C	0.921608	-0.380646	-1.057393
C167	C	1.254941	-0.047312	-0.724060
C168	C	1.588275	0.286021	-0.390726
C169	C	0.950158	-0.352257	-0.724694
C170	C	1.283491	-0.018924	-0.391361
C171	C	1.616825	0.314410	-0.058028
C172	C	0.947001	-0.355394	-0.651472
C173	C	1.280334	-0.022061	-0.318139
C174	C	1.613667	0.311272	0.015194
C175	C	1.037158	-0.265730	-0.647679
C176	C	1.370491	0.067603	-0.314345
C177	C	1.703824	0.400937	0.018988
C178	C	1.040310	-0.262589	-0.720897
C179	C	1.373643	0.070744	-0.387564
C180	C	1.706976	0.404077	-0.054230
C181	C	0.996813	-0.305855	-0.759401
C182	C	1.330146	0.027478	-0.426068
C183	C	1.663480	0.360811	-0.092734
C184	C	0.958720	-0.343738	-0.870826
C185	C	1.292054	-0.010405	-0.537492
C186	C	1.625387	0.322928	-0.204159
C187	C	1.000044	-0.302644	-0.834240
C188	C	1.333378	0.030689	-0.500907
C189	C	1.666711	0.364022	-0.167573
C190	C	0.971477	-0.331091	-0.170033
C191	C	1.304810	0.002243	0.163301
C192	C	1.638144	0.335576	0.496634
C193	C	0.968263	-0.334237	-0.092100
C194	C	1.301596	-0.000904	0.241233
C195	C	1.634929	0.332430	0.574566
H196	H	0.721889	-0.401315	-0.436834
H197	H	1.055222	-0.067981	-0.103501
H198	H	1.388556	0.265352	0.229832
C199	C	0.354923	-0.251103	-0.185420
C200	C	0.688257	0.082231	0.147914
C201	C	1.021590	0.415564	0.481247
C202	C	0.375609	-0.233095	-0.254234
C203	C	0.708943	0.100238	0.079100
C204	C	1.042276	0.433572	0.412433
H205	H	0.378804	-0.221928	-0.153748
H206	H	0.712137	0.111405	0.179585
H207	H	1.045470	0.444739	0.512919
H208	H	0.307750	-0.244958	-0.178753
H209	H	0.641083	0.088375	0.154580
H210	H	0.974417	0.421709	0.487914
H211	H	0.364199	-0.298633	-0.177087
H212	H	0.697532	0.034700	0.156246
H213	H	1.030865	0.368033	0.489580
H214	H	0.366330	-0.185565	-0.262568
H215	H	0.699663	0.147768	0.070765
H216	H	1.032996	0.481101	0.404098
H217	H	0.422794	-0.239234	-0.260903
H218	H	0.756127	0.094100	0.072430
H219	H	1.089460	0.427433	0.405763
C220	C	0.775521	-0.186418	-0.291906
C221	C	1.108854	0.146916	0.041427
C222	C	1.442187	0.480249	0.374760
C223	C	0.731379	-0.233081	-0.254202
C224	C	1.064712	0.100252	0.079131
C225	C	1.398046	0.433586	0.412465
H226	H	0.799397	-0.157242	-0.260232
H227	H	1.132731	0.176092	0.073101
H228	H	1.466064	0.509425	0.406434
H229	H	0.806774	-0.212015	-0.319689
H230	H	1.140107	0.121318	0.013644
H231	H	1.473440	0.454652	0.346978
H232	H	0.750324	-0.158341	-0.321360
H233	H	1.083657	0.174992	0.011974
H234	H	1.416990	0.508325	0.345307
H235	H	0.756577	-0.261161	-0.224752
H236	H	1.089910	0.072172	0.108581
H237	H	1.423243	0.405506	0.441914
H238	H	0.700122	-0.207481	-0.226407
H239	H	1.033455	0.125852	0.106926
H240	H	1.366789	0.459186	0.440259
H241	H	1.078305	-0.224808	-0.749154
H242	H	1.411638	0.108526	-0.415821
H243	H	1.744972	0.441859	-0.082487
C244	C	0.868183	-1.012913	-0.472622
C245	C	1.201517	-0.679580	-0.139288
C246	C	1.534850	-0.346247	0.194045
C247	C	0.902653	-1.062176	-0.435331
C248	C	1.235986	-0.728842	-0.101998
C249	C	1.569320	-0.395509	0.231336
H250	H	0.839132	-1.036467	-0.504090
H251	H	1.172465	-0.703134	-0.170757
H252	H	1.505799	-0.369800	0.162577
H253	H	0.842110	-0.985705	-0.440837
H254	H	1.175443	-0.652371	-0.107503
H255	H	1.508776	-0.319038	0.225830
H256	H	0.899934	-0.983166	-0.498238
H257	H	1.233267	-0.649833	-0.164905
H258	H	1.566600	-0.316500	0.168428
H259	H	0.870903	-1.091920	-0.409710
H260	H	1.204236	-0.758586	-0.076377
H261	H	1.537569	-0.425253	0.256956
H262	H	0.928728	-1.089396	-0.467121
H263	H	1.262062	-0.756063	-0.133787
H264	H	1.595395	-0.422730	0.199546
H265	H	1.072571	-0.230506	-0.616321
H266	H	1.405904	0.102827	-0.282988
H267	H	1.739237	0.436161	0.050346
H268	H	0.593103	-0.245337	-0.267520
H269	H	0.926437	0.087997	0.065813
H270	H	1.259770	0.421330	0.399147
H271	H	1.065045	-1.059195	-0.259570
H272	H	1.398378	-0.725862	0.073763
H273	H	1.731712	-0.392528	0.407097
C274	C	0.420412	-0.372156	-0.493567
C275	C	0.753746	-0.038823	-0.160234
C276	C	1.087079	0.294511	0.173099
C277	C	0.376250	-0.413571	-0.450167
C278	C	0.709583	-0.080238	-0.116834
C279	C	1.042916	0.253096	0.216500
H280	H	0.444501	-0.401324	-0.525234
H281	H	0.777834	-0.067990	-0.191901
H282	H	1.111168	0.265343	0.141433
H283	H	0.395209	-0.340508	-0.519138
H284	H	0.728542	-0.007174	-0.185804
H285	H	1.061876	0.326159	0.147529
H286	H	0.451485	-0.346559	-0.465762
H287	H	0.784819	-0.013225	-0.132428
H288	H	1.118152	0.320108	0.200905
H289	H	0.345173	-0.439165	-0.477972
H290	H	0.678507	-0.105831	-0.144639
H291	H	1.011840	0.227502	0.188694
H292	H	0.401455	-0.445232	-0.424595
H293	H	0.734788	-0.111898	-0.091261
H294	H	1.068121	0.221435	0.242072
H295	H	0.920732	-0.381517	-0.842555
H296	H	1.254065	-0.048184	-0.509222
H297	H	1.587398	0.285150	-0.175889
C298	C	0.852000	-0.368686	-0.569558
C299	C	1.185333	-0.035352	-0.236224
C300	C	1.518666	0.297981	0.097109
C301	C	0.895714	-0.406414	-0.613330
C302	C	1.229047	-0.073081	-0.279996
C303	C	1.562381	0.260253	0.053337
H304	H	0.820337	-0.400185	-0.546018
H305	H	1.153670	-0.066851	-0.212685
H306	H	1.487003	0.266482	0.120649
H307	H	0.877444	-0.343379	-0.536142
H308	H	1.210778	-0.010046	-0.202808
H309	H	1.544111	0.323287	0.130525
H310	H	0.828563	-0.336914	-0.596833
H311	H	1.161896	-0.003581	-0.263499
H312	H	1.495230	0.329753	0.069834
H313	H	0.919154	-0.438182	-0.586054
H314	H	1.252488	-0.104849	-0.252721
H315	H	1.585821	0.228484	0.080613
H316	H	0.870266	-0.431732	-0.646750
H317	H	1.203600	-0.098399	-0.313417
H318	H	1.536933	0.234934	0.019917
H319	H	1.038034	-0.264867	-0.862505
H320	H	1.371367	0.068466	-0.529172
H321	H	1.704701	0.401799	-0.195839
C322	C	0.158322	-0.404509	-0.440345
C323	C	0.491656	-0.071176	-0.107011
C324	C	0.824989	0.262157	0.226322
C325	C	0.227862	-0.413583	-0.450186
C326	C	0.561196	-0.080250	-0.116852
C327	C	0.894529	0.253083	0.216481
H328	H	0.134444	-0.433679	-0.472022
H329	H	0.467777	-0.100346	-0.138689
H330	H	0.801111	0.232987	0.194645
H331	H	0.144297	-0.416720	-0.393663
H332	H	0.477630	-0.083386	-0.060330
H333	H	0.810963	0.249947	0.273003
H334	H	0.149066	-0.356975	-0.448687
H335	H	0.482399	-0.023642	-0.115354
H336	H	0.815733	0.309691	0.217980
H337	H	0.237120	-0.461117	-0.441838
H338	H	0.570453	-0.127783	-0.108505
H339	H	0.903786	0.205550	0.224829
H340	H	0.241893	-0.401378	-0.496878
H341	H	0.575227	-0.068045	-0.163545
H342	H	0.908560	0.265289	0.169789
H343	H	1.038638	-0.726481	-0.287959
H344	H	1.371971	-0.393148	0.045374
H345	H	1.705304	-0.059815	0.378707
C346	C	0.629704	-0.451311	-0.491085
C347	C	0.963037	-0.117978	-0.157752
C348	C	1.296371	0.215355	0.175581
C349	C	0.583622	-0.413576	-0.450137
C350	C	0.916955	-0.080243	-0.116804
C351	C	1.250289	0.253091	0.216529
H352	H	0.605820	-0.480496	-0.522746
H353	H	0.939153	-0.147163	-0.189412
H354	H	1.272487	0.186170	0.143921
H355	H	0.659645	-0.419658	-0.516663
H356	H	0.992978	-0.086325	-0.183329
H357	H	1.326311	0.247009	0.150004
H358	H	0.654891	-0.479381	-0.461616
H359	H	0.988224	-0.146048	-0.128283
H360	H	1.321558	0.187286	0.205051
H361	H	0.558438	-0.385502	-0.479606
H362	H	0.891772	-0.052169	-0.146273
H363	H	1.225105	0.281165	0.187060
H364	H	0.553669	-0.445233	-0.424558
H365	H	0.887003	-0.111900	-0.091225
H366	H	1.220336	0.221433	0.242108
H367	H	0.237346	-0.245354	-0.267544
H368	H	0.570679	0.087979	0.065789
H369	H	0.904012	0.421312	0.399123
H370	H	1.043816	-0.593659	-0.282267
H371	H	1.377150	-0.260326	0.051067
H372	H	1.710483	0.073007	0.384400
H373	H	1.070229	-0.926359	-0.253883
H374	H	1.403562	-0.593026	0.079450
H375	H	1.736895	-0.259692	0.412784
C376	C	0.950361	-0.864406	-0.472010
C377	C	1.283694	-0.531073	-0.138677
C378	C	1.617027	-0.197739	0.194656
C379	C	0.908642	-0.908486	-0.428749
C380	C	1.241975	-0.575153	-0.095416
C381	C	1.575308	-0.241819	0.237918
H382	H	0.923234	-0.838283	-0.501350
H383	H	1.256567	-0.504950	-0.168017
H384	H	1.589900	-0.171617	0.165316
H385	H	0.976264	-0.833256	-0.443956
H386	H	1.309598	-0.499922	-0.110623
H387	H	1.642931	-0.166589	0.222710
H388	H	0.979871	-0.891788	-0.500072
H389	H	1.313204	-0.558455	-0.166739
H390	H	1.646537	-0.225121	0.166594
H391	H	0.879135	-0.881103	-0.400683
H392	H	1.212468	-0.547770	-0.067350
H393	H	1.545802	-0.214437	0.265984
H394	H	0.882726	-0.939640	-0.456806
H395	H	1.216060	-0.606306	-0.123473
H396	H	1.549393	-0.272973	0.209861
C397	C	0.884864	-0.498387	-1.084960
C398	C	1.218197	-0.165054	-0.751627
C399	C	1.551531	0.168279	-0.418293
C400	C	0.873793	-0.428197	-1.099719
C401	C	1.207126	-0.094863	-0.766386
C402	C	1.540459	0.238470	-0.433052
H403	H	0.855342	-0.527745	-1.111087
H404	H	1.188675	-0.194411	-0.777754
H405	H	1.522009	0.138922	-0.444421
H406	H	0.930443	-0.508133	-1.097398
H407	H	1.263777	-0.174799	-0.764064
H408	H	1.597110	0.158534	-0.430731
H409	H	0.876304	-0.506889	-1.036386
H410	H	1.209637	-0.173555	-0.703052
H411	H	1.542970	0.159778	-0.369719
H412	H	0.882358	-0.419694	-1.148293
H413	H	1.215691	-0.086361	-0.814959
H414	H	1.549025	0.246973	-0.481626
H415	H	0.828203	-0.418448	-1.087286
H416	H	1.161536	-0.085114	-0.753953
H417	H	1.494869	0.248219	-0.420619
C418	C	1.006940	-0.763009	-0.233852
C419	C	1.340273	-0.429676	0.099481
C420	C	1.673607	-0.096343	0.432815
C421	C	1.045388	-0.803120	-0.280702
C422	C	1.378721	-0.469787	0.052632
C423	C	1.712054	-0.136454	0.385965
H424	H	1.035996	-0.739459	-0.202386
H425	H	1.369330	-0.406126	0.130947
H426	H	1.702663	-0.072793	0.464280
H427	H	0.983554	-0.729601	-0.259154
H428	H	1.316888	-0.396268	0.074180
H429	H	1.650221	-0.062935	0.407513
H430	H	0.975201	-0.792768	-0.208235
H431	H	1.308535	-0.459435	0.125099
H432	H	1.641868	-0.126102	0.458432
H433	H	1.077123	-0.773360	-0.306323
H434	H	1.410457	-0.440027	0.027010
H435	H	1.743790	-0.106694	0.360344
H436	H	1.068785	-0.836532	-0.255397
H437	H	1.402118	-0.503199	0.077936
H438	H	1.735451	-0.169866	0.411269
H439	H	0.888444	-0.719581	-0.450504
H440	H	1.221777	-0.386247	-0.117170
H441	H	1.555110	-0.052914	0.216163
C442	C	0.844046	-0.621689	-0.498490
C443	C	1.177379	-0.288356	-0.165156
C444	C	1.510712	0.044978	0.168177
C445	C	0.882237	-0.575767	-0.457135
C446	C	1.215570	-0.242434	-0.123802
C447	C	1.548904	0.090899	0.209532
H448	H	0.816926	-0.595553	-0.527825
H449	H	1.150259	-0.262219	-0.194491
H450	H	1.483592	0.071114	0.138842
H451	H	0.873557	-0.649059	-0.526551
H452	H	1.206891	-0.315725	-0.193217
H453	H	1.540224	0.017608	0.140116
H454	H	0.815745	-0.651592	-0.469137
H455	H	1.149078	-0.318259	-0.135804
H456	H	1.482411	0.015075	0.197530
H457	H	0.910542	-0.545868	-0.486488
H458	H	1.243875	-0.212534	-0.153154
H459	H	1.577209	0.120799	0.180179
H460	H	0.852722	-0.548386	-0.429071
H461	H	1.186055	-0.215052	-0.095738
H462	H	1.519389	0.118281	0.237595
C463	C	1.100562	-0.202671	-1.042484
C464	C	1.433896	0.130662	-0.709151
C465	C	1.767229	0.463996	-0.375817
C466	C	1.063048	-0.239973	-1.091747
C467	C	1.396381	0.093360	-0.758414
C468	C	1.729714	0.426694	-0.425080
H469	H	1.132229	-0.171186	-1.066038
H470	H	1.465563	0.162147	-0.732704
H471	H	1.798896	0.495480	-0.399371
H472	H	1.070913	-0.177076	-1.012792
H473	H	1.404246	0.156258	-0.679459
H474	H	1.737579	0.489591	-0.346126
H475	H	1.123996	-0.234455	-1.015221
H476	H	1.457329	0.098878	-0.681887
H477	H	1.790663	0.432212	-0.348554
H478	H	1.039610	-0.208189	-1.119007
H479	H	1.372943	0.125144	-0.785674
H480	H	1.706277	0.458477	-0.452340
H481	H	1.092702	-0.265570	-1.121451
H482	H	1.426035	0.067764	-0.788118
H483	H	1.759368	0.401097	-0.454784
C484	C	0.940548	-0.443051	-0.810996
C485	C	1.273881	-0.109717	-0.477663
C486	C	1.607215	0.223616	-0.144330
C487	C	0.902349	-0.399825	-0.767003
C488	C	1.235682	-0.066492	-0.433670
C489	C	1.569015	0.266841	-0.100336
H490	H	0.911031	-0.472425	-0.837112
H491	H	1.244364	-0.139092	-0.503779
H492	H	1.577698	0.194242	-0.170445
H493	H	0.968773	-0.414970	-0.842154
H494	H	1.302106	-0.081637	-0.508820
H495	H	1.635439	0.251696	-0.175487
H496	H	0.967739	-0.471080	-0.783556
H497	H	1.301072	-0.137747	-0.450223
H498	H	1.634406	0.195586	-0.116889
H499	H	0.875161	-0.371792	-0.794444
H500	H	1.208495	-0.038459	-0.461111
H501	H	1.541828	0.294875	-0.127777
H502	H	0.874112	-0.427909	-0.735842
H503	H	1.207446	-0.094576	-0.402509
H504	H	1.540779	0.238758	-0.069175
C505	C	1.018190	-0.203331	-0.894070
C506	C	1.351524	0.130002	-0.560737
C507	C	1.684857	0.463336	-0.227404
C508	C	1.056403	-0.246544	-0.938064
C509	C	1.389737	0.086790	-0.604731
C510	C	1.723070	0.420123	-0.271397
H511	H	1.047699	-0.173953	-0.867949
H512	H	1.381032	0.159381	-0.534616
H513	H	1.714366	0.492714	-0.201282
H514	H	0.990996	-0.175312	-0.921506
H515	H	1.324329	0.158021	-0.588172
H516	H	1.657662	0.491355	-0.254839
H517	H	0.989969	-0.231425	-0.862912
H518	H	1.323302	0.101908	-0.529578
H519	H	1.656635	0.435242	-0.196245
H520	H	1.084622	-0.218450	-0.969226
H521	H	1.417955	0.114884	-0.635893
H522	H	1.751288	0.448217	-0.302560
H523	H	1.083610	-0.274566	-0.910626
H524	H	1.416943	0.058768	-0.577293
H525	H	1.750276	0.392101	-0.243960
H526	H	0.925486	-0.832939	-0.410474
H527	H	1.258819	-0.499606	-0.077141
H528	H	1.592152	-0.166273	0.256193
H529	H	0.880463	-0.421572	-0.955909
H530	H	1.213797	-0.088238	-0.622575
H531	H	1.547130	0.245095	-0.289242
