data_functionalizedCrystal
_audit_creation_method	'MofGen! by Chris Wilmer'
_symmetry_space_group_name_H-M	'P1'
_symmetry_Int_Tables_number	1
_symmetry_cell_setting	triclinic
loop_
_symmetry_equiv_pos_as_xyz
  x,y,z
_cell_length_a	17.019383
_cell_length_b	17.038272
_cell_length_c	14.421503
_cell_angle_alpha	89.995673
_cell_angle_beta	93.883595
_cell_angle_gamma	87.246883
loop_
_atom_site_label
_atom_site_type_symbol
_atom_site_fract_x
_atom_site_fract_y
_atom_site_fract_z
O1	O	1.053363	0.099636	0.161143
O2	O	0.824551	0.112327	0.142892
O3	O	0.937597	-0.007832	0.151902
O4	O	0.940317	0.219796	0.152133
O5	O	0.937578	-0.007815	-0.002323
O6	O	0.824532	0.112345	-0.011333
O7	O	1.053344	0.099654	0.006918
Cu8	Cu	0.938936	0.106001	-0.016289
Cu9	Cu	0.938959	0.105980	0.166100
O10	O	0.940298	0.219814	-0.002091
C11	C	0.795120	0.111853	0.063433
C12	C	0.707454	0.110405	0.056440
C13	C	0.666271	0.109717	0.137216
C14	C	0.583898	0.108369	0.130631
C15	C	0.542709	0.107703	0.043270
C16	C	0.583898	0.108394	-0.037511
C17	C	0.666269	0.109748	-0.030926
C18	C	0.294001	0.103621	0.019182
C19	C	0.211624	0.102265	0.012603
C20	C	0.211630	0.102241	0.180746
C21	C	0.294003	0.103590	0.187324
C22	C	0.335184	0.104285	0.106542
C23	C	0.458511	0.106322	0.036538
C24	C	0.419380	0.105671	0.113275
C25	C	0.935114	-0.036950	0.074592
C26	C	0.927734	-0.123737	0.074004
C27	C	0.995493	-0.173906	0.079408
C28	C	0.988554	-0.255451	0.078863
C29	C	0.913854	-0.286825	0.072908
C30	C	0.846089	-0.236649	0.067506
C31	C	0.853029	-0.155106	0.068057
C32	C	0.889337	-0.532563	0.070965
C33	C	0.882402	-0.614112	0.070411
C34	C	1.024867	-0.632909	0.081769
C35	C	1.031800	-0.551363	0.082315
C36	C	0.964036	-0.501194	0.076918
C37	C	0.906759	-0.370177	0.072348
C38	C	0.971131	-0.417844	0.077485
C39	C	1.082775	0.100128	0.086380
C40	C	1.170441	0.101576	0.093379
C41	C	0.942781	0.248931	0.075220
C42	C	0.950161	0.335718	0.075815
N43	N	0.938926	0.106016	-0.144571
C44	C	0.886642	0.161553	-0.398392
C45	C	0.958934	0.176650	-0.454427
C46	C	0.938944	0.105997	-0.333731
C47	C	0.866672	0.090918	-0.461788
C48	C	0.938955	0.105981	-0.516452
C49	C	1.011275	0.121130	-0.388403
C50	C	0.918963	0.035367	-0.395762
C51	C	0.991305	0.050434	-0.451766
C52	C	0.938937	0.106008	-0.228471
C53	C	0.938971	0.105969	-0.621710
N54	N	0.938974	0.105960	0.294382
H55	H	0.178091	0.101677	0.246514
H56	H	0.842463	0.208572	-0.374815
H57	H	1.035591	0.003443	-0.475164
H58	H	0.785267	-0.262200	0.062663
F59	F	0.540071	0.107637	0.216605
F60	F	0.786779	0.074255	-0.503675
F61	F	0.780910	-0.101712	0.062309
F62	F	1.075000	-0.140523	0.085737
H63	H	0.975845	0.236373	-0.480247
H64	H	0.327521	0.104181	-0.046597
H65	H	1.031951	-0.392296	0.082354
H66	H	0.834157	-0.491725	0.066570
F67	F	1.091193	0.137882	-0.346670
H68	H	0.902032	-0.024337	-0.369923
H69	H	0.699799	0.110311	-0.096703
F70	F	0.710099	0.110420	0.230198
H71	H	0.178090	0.101745	-0.058541
F72	F	0.540060	0.107691	-0.130488
H73	H	0.327533	0.104127	0.258462
H74	H	0.452919	0.106218	0.184404
H75	H	0.424967	0.105778	-0.034591
H76	H	1.092629	-0.525825	0.087164
F77	F	1.096982	-0.686307	0.087514
F78	F	1.060674	-0.308842	0.084613
H79	H	0.821569	-0.639653	0.065546
F80	F	0.827260	-0.403574	0.066014
