data_functionalizedCrystal
_audit_creation_method	'MofGen! by Chris Wilmer'
_symmetry_space_group_name_H-M	'P1'
_symmetry_Int_Tables_number	1
_symmetry_cell_setting	triclinic
loop_
_symmetry_equiv_pos_as_xyz
  x,y,z
_cell_length_a	15.944551
_cell_length_b	15.944551
_cell_length_c	14.421503
_cell_angle_alpha	90.003340
_cell_angle_beta	89.996859
_cell_angle_gamma	83.498738
loop_
_atom_site_label
_atom_site_type_symbol
_atom_site_fract_x
_atom_site_fract_y
_atom_site_fract_z
O1	O	1.114529	0.108320	-0.077017
O2	O	0.869980	0.121677	-0.077040
O3	O	0.998933	-0.007276	-0.077020
O4	O	0.985576	0.237273	-0.077038
O5	O	0.998911	-0.007257	0.077204
O6	O	0.869958	0.121696	0.077183
O7	O	1.114508	0.108340	0.077206
Cu8	Cu	0.992231	0.115020	0.091277
Cu9	Cu	0.992256	0.114997	-0.091110
O10	O	0.985555	0.237293	0.077186
C11	C	0.838675	0.121132	0.000069
C12	C	0.745429	0.119470	0.000060
C13	C	0.530572	0.035565	0.000084
C14	C	0.469563	0.074518	-0.075959
C15	C	0.574703	0.116462	0.000071
C16	C	0.469564	0.074556	0.076093
C17	C	0.409790	0.113551	0.000086
C18	C	0.514922	0.155437	-0.076035
C19	C	0.514929	0.155464	0.076086
C20	C	0.453937	0.194476	0.000024
C21	C	0.669705	0.118137	0.000062
C22	C	0.314789	0.111883	0.000089
C23	C	0.998367	-0.038561	0.000092
C24	C	0.996705	-0.131807	0.000093
C25	C	0.912801	-0.346663	0.000072
C26	C	0.951753	-0.407671	0.076117
C27	C	0.993698	-0.302533	0.000085
C28	C	0.951793	-0.407674	-0.075935
C29	C	0.990787	-0.467445	0.000074
C30	C	1.032672	-0.362312	0.076193
C31	C	1.032701	-0.362308	-0.075927
C32	C	1.071711	-0.423298	0.000136
C33	C	0.995372	-0.207530	0.000092
C34	C	0.989119	-0.562446	0.000073
C35	C	1.145813	0.108885	0.000096
C36	C	1.239059	0.110547	0.000098
C37	C	0.986120	0.268577	0.000072
C38	C	0.987782	0.361823	0.000066
N39	N	0.992219	0.115035	0.219558
N40	N	0.992275	0.114975	-0.219392
C41	C	0.932581	0.174636	0.469202
C42	C	1.008481	0.190943	0.531011
C43	C	0.992240	0.115015	0.408719
C44	C	0.916359	0.098727	0.531005
C45	C	0.992253	0.114997	0.591441
C46	C	1.068178	0.131360	0.469167
C47	C	0.976007	0.039111	0.469156
C48	C	1.051961	0.055386	0.530936
C49	C	0.992231	0.115027	0.303458
C50	C	0.992270	0.114985	0.696700
H51	H	0.534918	0.189620	-0.140394
N52	N	1.115337	-0.007864	0.564736
N53	N	1.173380	0.012567	0.615287
H54	H	1.218143	-0.032098	0.639160
H55	H	0.882181	0.225096	0.442096
N56	N	1.025704	0.271462	0.565101
N57	N	0.973176	0.313722	0.615812
H58	H	0.985333	0.370591	0.639886
N59	N	1.075595	-0.337070	-0.156581
N60	N	1.048034	-0.351357	-0.235481
H61	H	1.078323	-0.333531	-0.292451
H62	H	0.917575	-0.427758	-0.140230
N63	N	0.958750	-0.041376	0.435021
N64	N	1.011803	-0.084202	0.385426
H65	H	0.999609	-0.141046	0.361315
N66	N	0.444358	0.031581	-0.156605
N67	N	0.472129	-0.043913	-0.170153
H68	H	0.454335	-0.074242	-0.227109
N69	N	0.908811	-0.432883	0.156757
N70	N	0.833315	-0.405118	0.170298
H71	H	0.802981	-0.422920	0.227246
N72	N	1.075551	-0.337219	0.156928
N73	N	1.083718	-0.261067	0.169978
H74	H	1.113998	-0.243342	0.226997
H75	H	0.852183	0.084959	0.558170
N76	N	0.540196	0.198368	0.156719
N77	N	0.576551	0.263411	0.148298
H78	H	0.594399	0.293707	0.205252
N79	N	1.148703	0.148722	0.435229
N80	N	1.161684	0.151559	0.349867
H81	H	1.218553	0.163822	0.325895
N82	N	1.156013	-0.464917	0.000206
N83	N	1.168420	-0.543740	-0.000398
H84	H	1.227957	-0.573136	-0.000344
H85	H	0.563905	-0.031573	-0.000005
H86	H	0.845652	-0.313356	0.000141
N87	N	0.412332	0.278782	-0.000061
N88	N	0.363413	0.303179	-0.064787
H89	H	0.334027	0.362720	-0.064857
N90	N	0.444356	0.031616	0.156734
N91	N	0.472128	-0.043878	0.170266
H92	H	0.454328	-0.074211	0.227214
