data_functionalizedCrystal
_audit_creation_method	'MofGen! by Chris Wilmer'
_symmetry_space_group_name_H-M	'P1'
_symmetry_Int_Tables_number	1
_symmetry_cell_setting	triclinic
loop_
_symmetry_equiv_pos_as_xyz
  x,y,z
_cell_length_a	6.817900
_cell_length_b	10.773890
_cell_length_c	11.102302
_cell_angle_alpha	95.423810
_cell_angle_beta	108.605901
_cell_angle_gamma	96.645716
loop_
_atom_site_label
_atom_site_type_symbol
_atom_site_fract_x
_atom_site_fract_y
_atom_site_fract_z
V1	V	-4.050663	-0.172597	-0.394187
O2	O	-4.073489	0.008291	-0.388813
O3	O	-3.967617	-0.342228	-0.389442
O4	O	-4.028381	-0.169943	-0.567040
O5	O	-4.012304	-0.165186	-0.209986
V6	V	-4.535396	-0.150961	-0.372404
O7	O	-4.309267	-0.220058	-0.441969
O8	O	-4.726990	-0.103499	-0.324621
O9	O	-4.395236	0.018671	-0.377148
O10	O	-4.629967	-0.331849	-0.377777
O11	O	-4.691152	-0.158371	-0.556604
O12	O	-4.334472	-0.153614	-0.199550
C13	C	-3.803344	-0.383581	-0.382695
C14	C	-3.816905	-0.522257	-0.379967
C15	C	-3.995696	-0.590120	-0.384706
C16	C	-4.009716	-0.733448	-0.381888
C17	C	-3.880854	-0.163812	-0.609237
C18	C	-3.943690	-0.162765	-0.750532
C19	C	-4.214054	-0.167509	-0.956080
C20	C	-4.155029	-0.168501	-0.823320
C21	C	-3.791370	-0.156050	-0.810512
C22	C	-3.850398	-0.155067	-0.943271
C23	C	-4.222849	0.060017	-0.383892
C24	C	-4.188527	0.198691	-0.386628
C25	C	-4.145339	-0.159749	-0.157347
C26	C	-4.061743	-0.160790	-0.016051
H27	H	-4.331235	-0.753306	-0.392777
H28	H	-3.726357	-0.149599	-0.992100
H29	H	-3.867016	-0.781455	-0.375750
C30	C	-3.675437	-0.716499	-0.370477
C31	C	-3.624261	-0.587055	-0.371667
H32	H	-3.556495	-0.756496	-0.365344
H33	H	-3.786705	-0.751792	-0.446952
H34	H	-3.717784	-0.728994	-0.298312
H35	H	-3.581929	-0.574560	-0.443838
H36	H	-3.512957	-0.551751	-0.295184
C37	C	-4.352371	-0.577374	-0.505726
C38	C	-4.188338	-0.525323	-0.392993
H39	H	-4.471298	-0.537368	-0.510839
H40	H	-4.387050	-0.665182	-0.504911
H41	H	-4.310017	-0.564853	-0.577883
H42	H	-4.230687	-0.537853	-0.320835
H43	H	-4.153658	-0.437495	-0.393797
H44	H	-4.386142	-0.172176	-1.015335
H45	H	-4.279062	-0.173974	-0.774499
H46	H	-3.619292	-0.151388	-0.751238
