data_functionalizedCrystal
_audit_creation_method	'MofGen! by Chris Wilmer'
_symmetry_space_group_name_H-M	'P1'
_symmetry_Int_Tables_number	1
_symmetry_cell_setting	triclinic
loop_
_symmetry_equiv_pos_as_xyz
  x,y,z
_cell_length_a	23.532407
_cell_length_b	19.188930
_cell_length_c	17.666332
_cell_angle_alpha	90.011603
_cell_angle_beta	90.004018
_cell_angle_gamma	82.996730
loop_
_atom_site_label
_atom_site_type_symbol
_atom_site_fract_x
_atom_site_fract_y
_atom_site_fract_z
O1	O	-0.755443	-0.084758	-0.062862
O2	O	-0.589606	-0.097021	-0.062886
O3	O	-0.677310	0.010782	-0.062858
O4	O	-0.667739	-0.192560	-0.062889
O5	O	-0.677295	0.010787	0.063038
O6	O	-0.589591	-0.097016	0.063011
O7	O	-0.755428	-0.084752	0.063035
Cu8	Cu	-0.672508	-0.090883	0.074518
Cu9	Cu	-0.672526	-0.090890	-0.074369
O10	O	-0.667724	-0.192555	0.063007
C11	C	-0.568382	-0.096706	0.000060
C12	C	-0.505163	-0.095767	0.000052
C13	C	-0.676993	0.036794	0.000092
C14	C	-0.676062	0.114296	0.000098
C15	C	-0.776652	-0.085067	0.000087
C16	C	-0.839871	-0.086006	0.000091
C17	C	-0.106183	-0.153674	0.000077
C18	C	-0.046780	-0.152801	0.000082
O19	O	-0.010150	-0.206481	0.000101
N20	N	-0.024018	-0.088713	0.000090
C21	C	-0.060662	-0.025492	0.000102
O22	O	-0.035846	0.029100	0.000110
C23	C	-0.120062	-0.026365	0.000102
C24	C	-0.142821	-0.090458	0.000086
C25	C	-0.128942	-0.217761	0.000062
C26	C	-0.188340	-0.218633	0.000056
C27	C	-0.224979	-0.155417	0.000065
C28	C	-0.202219	-0.091330	0.000080
C29	C	-0.156705	0.036855	0.000119
C30	C	-0.216109	0.035976	0.000121
C31	C	-0.238868	-0.028116	0.000104
C32	C	-0.298256	-0.028986	0.000083
N33	N	-0.321018	-0.093075	0.000075
C34	C	-0.284379	-0.156290	0.000065
C35	C	0.064085	-0.023664	0.000102
C36	C	0.123485	-0.022790	0.000096
C37	C	0.137362	-0.150099	0.000077
C38	C	0.077961	-0.150972	0.000078
C39	C	0.041323	-0.087752	0.000093
C40	C	-0.409120	-0.158117	0.000052
C41	C	-0.468524	-0.158983	0.000043
C42	C	-0.482396	-0.031674	0.000065
C43	C	-0.422997	-0.030807	0.000070
C44	C	-0.386360	-0.094034	0.000066
O45	O	-0.334921	0.024666	0.000067
O46	O	-0.309203	-0.210874	0.000067
C47	C	-0.668041	-0.218568	0.000055
C48	C	-0.668972	-0.296069	0.000044
N49	N	-0.672499	-0.090878	0.179238
C50	C	-0.727524	0.159384	0.000109
C51	C	-0.726650	0.232205	0.000097
C52	C	-0.674311	0.259935	0.000089
C53	C	-0.622842	0.214837	0.000074
C54	C	-0.623718	0.142017	0.000079
N55	N	-0.634299	0.367814	0.042929
N56	N	-0.633471	0.436990	0.042926
C57	C	-0.671670	0.479335	0.000073
N58	N	-0.710737	0.449892	-0.042766
N59	N	-0.711567	0.380710	-0.042760
C60	C	-0.673356	0.338894	0.000084
C61	C	-0.722188	0.603384	0.000070
C62	C	-0.721311	0.676206	0.000053
C63	C	-0.617502	0.658836	0.000038
C64	C	-0.618380	0.586016	0.000047
C65	C	-0.670724	0.558295	0.000067
N66	N	-0.672539	-0.090890	-0.179089
C67	C	-0.711347	-0.043166	0.218859
C68	C	-0.711351	-0.043163	0.298107
C69	C	-0.672511	-0.090883	0.337730
C70	C	-0.633656	-0.138599	0.298098
C71	C	-0.633650	-0.138596	0.218852
N72	N	-0.665108	-0.152714	0.462138
N73	N	-0.665117	-0.152715	0.537419
C74	C	-0.672526	-0.090893	0.576494
N75	N	-0.679937	-0.029069	0.537444
N76	N	-0.679931	-0.029070	0.462157
C77	C	-0.672513	-0.090891	0.423659
C78	C	-0.711380	-0.043174	0.702045
C79	C	-0.711380	-0.043169	0.781294
C80	C	-0.633688	-0.138611	0.781284
C81	C	-0.633686	-0.138610	0.702036
C82	C	-0.672535	-0.090891	0.662422
H83	H	-0.379297	-0.209602	0.000051
C84	C	-0.590963	-0.191104	0.824861
C85	C	-0.591005	-0.191153	0.912028
C86	C	-0.548277	-0.243645	0.955610
C87	C	-0.505507	-0.296087	0.912023
C88	C	-0.505463	-0.296040	0.824851
C89	C	-0.548191	-0.243548	0.781270
H90	H	-0.622667	-0.152331	0.944297
H91	H	-0.548310	-0.243680	1.020141
H92	H	-0.473877	-0.334945	0.944285
H93	H	-0.473801	-0.334862	0.792582
H94	H	-0.548158	-0.243513	0.716739
H95	H	-0.764810	0.580813	0.000083
C96	C	-0.561770	0.536414	0.000049
C97	C	-0.504196	0.566910	0.000042
C98	C	-0.447583	0.517307	0.000043
C99	C	-0.448544	0.437209	0.000050
C100	C	-0.506120	0.406708	0.000057
C101	C	-0.562733	0.456311	0.000056
H102	H	-0.503483	0.626208	0.000037
H103	H	-0.404962	0.539886	0.000038
H104	H	-0.406636	0.400490	0.000050
H105	H	-0.506833	0.347410	0.000062
H106	H	-0.605354	0.433732	0.000061
H107	H	-0.602054	-0.177464	0.669774
H108	H	-0.602032	-0.177453	0.330363
C109	C	-0.754108	0.009321	0.658464
C110	C	-0.754108	0.009325	0.571297
C111	C	-0.796836	0.061820	0.527720
C112	C	-0.839563	0.114312	0.571310
C113	C	-0.839564	0.114310	0.658482
C114	C	-0.796836	0.061815	0.702060
H115	H	-0.722478	-0.029534	0.539024
H116	H	-0.796835	0.061822	0.463189
H117	H	-0.871193	0.153172	0.539052
H118	H	-0.871194	0.153169	0.690755
H119	H	-0.796837	0.061813	0.766591
H120	H	-0.743013	-0.004313	0.813555
H121	H	-0.742979	-0.004310	0.186607
H122	H	-0.768558	0.268923	0.000103
H123	H	-0.487050	-0.211177	0.000029
H124	H	-0.206864	-0.270824	0.000042
H125	H	-0.099116	-0.269242	0.000057
C126	C	-0.565269	0.245336	0.000065
C127	C	-0.550382	0.293021	0.065436
C128	C	-0.492806	0.323520	0.065422
C129	C	-0.450118	0.306334	0.000037
C130	C	-0.465004	0.258647	-0.065338
C131	C	-0.522579	0.228148	-0.065324
H132	H	-0.581983	0.305746	0.113842
H133	H	-0.481786	0.358822	0.113817
H134	H	-0.407497	0.328911	0.000027
H135	H	-0.433402	0.245922	-0.113744
H136	H	-0.533599	0.192846	-0.113720
H137	H	-0.574886	0.681413	0.000027
C138	C	0.023785	0.045885	0.000105
C139	C	0.026236	0.098525	0.065484
C140	C	-0.014060	0.168072	0.065488
C141	C	-0.056806	0.184980	0.000114
C142	C	-0.059259	0.132338	-0.065270
C143	C	-0.018963	0.062790	-0.065274
H144	H	0.057880	0.086010	0.113882
H145	H	-0.012245	0.207041	0.113889
H146	H	-0.086636	0.236463	0.000117
H147	H	-0.090903	0.144852	-0.113668
H148	H	-0.020778	0.023822	-0.113675
H149	H	0.167204	-0.201573	0.000073
C150	C	0.052929	-0.221475	0.000067
C151	C	0.066831	-0.273864	0.065433
C152	C	0.041802	-0.344369	0.065424
C153	C	0.002872	-0.362485	0.000049
C154	C	-0.011032	-0.310095	-0.065323
C155	C	0.013996	-0.239589	-0.065314
H156	H	0.095651	-0.260454	0.113833
H157	H	0.052095	-0.383152	0.113817
H158	H	-0.015656	-0.414677	0.000042
H159	H	-0.039853	-0.323504	-0.113722
H160	H	0.003703	-0.200807	-0.113706
H161	H	0.142009	0.029401	0.000097
H162	H	-0.742986	-0.004309	0.330373
H163	H	-0.138185	0.089046	0.000133
H164	H	-0.245938	0.087459	0.000134
H165	H	-0.404466	0.021383	0.000072
H166	H	-0.512238	0.019795	0.000070
H167	H	-0.770147	0.136819	0.000123
H168	H	-0.581810	0.105305	0.000070
H169	H	-0.763220	0.712917	0.000058
H170	H	-0.602015	-0.177450	0.186592
