data_functionalizedCrystal
_audit_creation_method	'MofGen! by Chris Wilmer'
_symmetry_space_group_name_H-M	'P1'
_symmetry_Int_Tables_number	1
_symmetry_cell_setting	triclinic
loop_
_symmetry_equiv_pos_as_xyz
  x,y,z
_cell_length_a	12.837943
_cell_length_b	27.732048
_cell_length_c	11.892095
_cell_angle_alpha	93.851775
_cell_angle_beta	85.689438
_cell_angle_gamma	88.735798
loop_
_atom_site_label
_atom_site_type_symbol
_atom_site_fract_x
_atom_site_fract_y
_atom_site_fract_z
O1	O	1.380115	0.122782	-0.094008
O2	O	1.078409	0.116579	-0.094014
O3	O	1.238631	0.049749	-0.093989
O4	O	1.219894	0.189612	-0.094033
O5	O	1.225272	0.055311	0.094016
O6	O	1.065051	0.122142	0.093992
O7	O	1.366757	0.128345	0.093997
Zn8	Zn	1.213783	0.126126	0.123844
Zn9	Zn	1.231383	0.118797	-0.123861
O10	O	1.206535	0.195175	0.093973
C11	C	1.033143	0.117265	-0.000011
C12	C	0.918166	0.111016	-0.000012
C13	C	0.676005	0.186144	-0.000019
C14	C	0.567973	0.180275	-0.000020
C15	C	0.594068	0.093407	-0.000005
C16	C	0.702100	0.099277	-0.000005
C17	C	0.743064	0.145647	-0.000014
C18	C	0.851099	0.151516	-0.000022
C19	C	0.877191	0.064649	0.000001
C20	C	0.769159	0.058780	0.000001
C21	C	1.231558	0.034504	0.000017
C22	C	1.230373	-0.019210	0.000026
C23	C	1.317601	-0.353705	-0.000031
C24	C	1.313207	-0.555583	-0.000046
O25	O	1.392971	-0.582888	-0.000094
N26	N	1.218201	-0.579414	-0.000047
C27	C	1.124288	-0.552772	-0.000051
O28	O	1.043379	-0.577674	-0.000064
C29	C	1.128683	-0.350895	-0.000043
C30	C	1.223695	-0.327067	-0.000031
C31	C	1.412605	-0.329876	-0.000020
C32	C	1.413702	-0.279410	-0.000010
C33	C	1.319795	-0.252772	-0.000010
C34	C	1.224792	-0.276600	-0.000021
C35	C	1.034772	-0.324255	-0.000056
C36	C	1.035879	-0.273783	-0.000056
C37	C	1.130890	-0.249954	-0.000044
C38	C	1.131982	-0.199496	-0.000012
N39	N	1.226988	-0.175665	-0.000011
C40	C	1.320894	-0.202303	-0.000010
C41	C	1.121987	-0.658760	-0.000053
C42	C	1.120887	-0.709229	-0.000053
C43	C	1.309807	-0.712036	-0.000050
C44	C	1.310905	-0.661566	-0.000042
C45	C	1.216992	-0.634929	-0.000052
C46	C	1.323191	-0.096319	0.000012
C47	C	1.324280	-0.045848	0.000027
C48	C	1.135361	-0.043045	0.000018
C49	C	1.134271	-0.093512	0.000009
C50	C	1.228195	-0.120148	0.000002
O51	O	1.052262	-0.172160	0.000024
O52	O	1.401793	-0.177392	-0.000023
C53	C	1.316504	-0.404172	-0.000041
C54	C	1.221500	-0.428000	-0.000051
C55	C	1.127594	-0.401362	-0.000052
C56	C	1.220401	-0.478469	-0.000051
C57	C	1.314308	-0.505107	-0.000051
C58	C	1.409314	-0.481276	-0.000050
C59	C	1.410411	-0.430810	-0.000040
C60	C	1.032588	-0.425193	-0.000053
C61	C	1.031499	-0.475660	-0.000062
C62	C	1.125405	-0.502298	-0.000061
C63	C	1.412023	0.127658	-0.000008
C64	C	1.527001	0.133908	-0.000014
C65	C	1.213608	0.210420	-0.000035
C66	C	1.214794	0.264133	-0.000052
N67	N	1.201778	0.131128	0.292897
N68	N	1.243396	0.113792	-0.292913
C69	C	1.326930	0.078958	0.529564
C70	C	1.318546	0.082459	0.647904
C71	C	1.176623	0.141626	0.647921
C72	C	1.185007	0.138126	0.529580
C73	C	1.260163	0.106791	0.470406
C74	C	1.268551	0.103294	0.352063
C75	C	1.126624	0.162459	0.352082
C76	C	1.118240	0.165959	0.470422
H77	H	1.401652	-0.026449	0.000039
O78	O	0.944593	-0.247965	-0.000215
C79	C	0.893799	-0.262309	-0.097606
H80	H	0.922174	-0.300309	-0.130072
H81	H	0.805793	-0.262107	-0.075716
H82	H	0.912357	-0.236110	-0.165783
O83	O	0.942304	0.025285	-0.000192
C84	C	0.930733	-0.005455	-0.097542
H85	H	0.898234	0.016334	-0.165600
H86	H	1.010016	-0.022264	-0.130227
H87	H	0.874595	-0.035292	-0.075521
H88	H	0.735790	0.021027	0.000022
H89	H	1.491070	-0.260013	-0.000004
H90	H	0.957404	-0.343648	-0.000072
H91	H	0.709358	0.223900	-0.000028
H92	H	1.399673	-0.118000	0.000002
H93	H	1.072261	0.185124	0.303902
H94	H	0.513376	0.213252	-0.000021
O95	O	0.941420	-0.399263	0.000101
C96	C	0.929467	-0.367123	0.097492
H97	H	1.009336	-0.359820	0.129953
H98	H	0.891806	-0.331687	0.075603
H99	H	0.877594	-0.383873	0.165671
O100	O	0.554095	0.048400	-0.000033
C101	C	0.444361	0.051908	0.000006
H102	H	0.420925	0.087380	-0.035602
H103	H	0.415501	0.020324	-0.054559
H104	H	0.407923	0.050857	0.090207
H105	H	0.884449	0.189273	-0.000027
O106	O	1.400939	-0.737992	-0.000109
C107	C	1.379581	-0.787645	-0.000085
H108	H	1.300771	-0.794374	-0.035665
H109	H	1.443352	-0.809338	-0.054683
H110	H	1.377349	-0.799373	0.090107
H111	H	1.056903	-0.112913	0.000031
H112	H	1.372913	0.059793	0.696067
O113	O	1.028505	-0.732298	-0.000102
C114	C	0.945862	-0.697957	-0.000077
H115	H	0.976876	-0.663446	-0.035666
H116	H	0.883357	-0.713164	-0.054665
H117	H	0.910525	-0.689494	0.090117
H118	H	1.489079	-0.351560	-0.000023
H119	H	1.045507	-0.637077	-0.000061
H120	H	1.485775	-0.502974	-0.000045
O121	O	1.403293	-0.638499	-0.000092
C122	C	1.485932	-0.672838	-0.000060
H123	H	1.459975	-0.709453	-0.035647
H124	H	1.556194	-0.660856	-0.054645
H125	H	1.508451	-0.675973	0.090137
O126	O	1.044243	-0.017092	-0.000034
C127	C	1.065595	0.032562	-0.000001
H128	H	1.149458	0.037192	-0.035582
H129	H	1.009577	0.051033	-0.054591
H130	H	1.055016	0.049614	0.090195
H131	H	1.487778	-0.411413	-0.000030
O132	O	0.939109	-0.498729	-0.000122
C133	C	0.856466	-0.464388	-0.000095
H134	H	0.887482	-0.429874	-0.035671
H135	H	0.793967	-0.479593	-0.054692
H136	H	0.821123	-0.455929	0.090099
O137	O	1.341446	0.072778	0.294654
C138	C	1.323304	0.025049	0.323647
H139	H	1.238063	0.021950	0.356180
H140	H	1.341122	-0.000954	0.245848
H141	H	1.376053	0.015558	0.392354
O142	O	1.399964	0.048485	0.472250
C143	C	1.457121	0.024680	0.549842
H144	H	1.408688	0.024661	0.634211
H145	H	1.475970	-0.014172	0.515654
H146	H	1.532922	0.044302	0.562405
O147	O	1.103707	0.172052	0.705588
C148	C	1.110608	0.169159	0.822723
H149	H	1.192104	0.155397	0.838866
H150	H	1.095311	0.206532	0.867702
H151	H	1.049989	0.143210	0.856319
O152	O	1.045188	0.196331	0.528036
C153	C	0.976831	0.169528	0.596487
H154	H	1.017431	0.134166	0.614211
H155	H	0.954230	0.191390	0.679706
H156	H	0.903559	0.161357	0.550898
