data_functionalizedCrystal
_audit_creation_method	'MofGen! by Chris Wilmer'
_symmetry_space_group_name_H-M	'P1'
_symmetry_Int_Tables_number	1
_symmetry_cell_setting	triclinic
loop_
_symmetry_equiv_pos_as_xyz
  x,y,z
_cell_length_a	11.792241
_cell_length_b	10.654550
_cell_length_c	10.268362
_cell_angle_alpha	90.001331
_cell_angle_beta	89.994572
_cell_angle_gamma	95.660827
loop_
_atom_site_label
_atom_site_type_symbol
_atom_site_fract_x
_atom_site_fract_y
_atom_site_fract_z
O1	O	0.159421	-1.667390	-0.108204
O2	O	0.174609	-1.301869	-0.108228
O3	O	0.001865	-1.493500	-0.108206
O4	O	0.332165	-1.475759	-0.108225
O5	O	0.001858	-1.493483	0.108395
O6	O	0.174602	-1.301852	0.108373
O7	O	0.159414	-1.667374	0.108397
Cu8	Cu	0.167007	-1.484611	0.128162
Cu9	Cu	0.167016	-1.484631	-0.127993
O10	O	0.332158	-1.475743	0.108375
C11	C	-0.040432	-1.492377	0.000094
C12	C	-0.166453	-1.489042	0.000092
C13	C	0.173491	-1.255066	0.000070
C14	C	0.170154	-1.115632	0.000061
C15	C	0.160533	-1.714177	0.000097
C16	C	0.163869	-1.853611	0.000097
C17	C	-0.397180	-1.482908	0.000070
C18	C	-0.268787	-1.486316	0.000082
C19	C	0.374455	-1.476865	0.000073
C20	C	0.500477	-1.480201	0.000066
N21	N	0.167001	-1.484606	0.308328
C22	C	0.271863	-1.035859	0.000059
C23	C	0.268721	-0.904847	0.000081
C24	C	0.062152	-0.933394	0.000103
C25	C	0.065295	-1.064403	0.000090
N26	N	0.167014	-1.484646	-0.308159
C27	C	0.167014	-1.484625	0.573999
C28	C	0.167010	-1.484611	0.426161
H29	H	0.357246	-1.077564	0.000045
O30	O	-0.050943	-0.878143	0.000125
H31	H	-0.036044	-0.773641	0.000122
O32	O	0.378426	-0.818810	0.000084
H33	H	0.358630	-0.719103	0.000115
O34	O	-0.044409	-1.150460	0.000095
H35	H	-0.117852	-1.092831	0.000100
