data_functionalizedCrystal
_audit_creation_method	'MofGen! by Chris Wilmer'
_symmetry_space_group_name_H-M	'P1'
_symmetry_Int_Tables_number	1
_symmetry_cell_setting	triclinic
loop_
_symmetry_equiv_pos_as_xyz
  x,y,z
_cell_length_a	10.654550
_cell_length_b	12.996460
_cell_length_c	10.654550
_cell_angle_alpha	89.999886
_cell_angle_beta	95.515069
_cell_angle_gamma	90.003002
loop_
_atom_site_label
_atom_site_type_symbol
_atom_site_fract_x
_atom_site_fract_y
_atom_site_fract_z
O1	O	1.667845	0.085490	-0.176391
O2	O	2.167845	0.585490	0.323609
O3	O	1.302367	0.085509	-0.193197
O4	O	1.802367	0.585509	0.306803
O5	O	1.493509	0.085492	-0.002054
O6	O	1.993509	0.585492	0.497946
O7	O	1.476703	0.085506	-0.367533
O8	O	1.976703	0.585506	0.132467
O9	O	1.493484	-0.085642	-0.002065
O10	O	1.993484	0.414358	0.497935
O11	O	1.302342	-0.085625	-0.193208
O12	O	1.802342	0.414375	0.306792
O13	O	1.667820	-0.085644	-0.176401
O14	O	2.167820	0.414356	0.323599
Cu15	Cu	1.485079	-0.101260	-0.184806
Cu16	Cu	1.985079	0.398740	0.315194
Cu17	Cu	1.485108	0.101125	-0.184793
Cu18	Cu	1.985108	0.601125	0.315207
O19	O	1.476678	-0.085628	-0.367544
O20	O	1.976678	0.414372	0.132456
C21	C	1.255556	-0.000056	-0.191968
C22	C	1.755556	0.499944	0.308032
C23	C	1.116113	-0.000049	-0.188276
C24	C	1.616113	0.499951	0.311724
N25	N	1.485068	-0.243608	-0.184814
N26	N	1.985068	0.256392	0.315186
C27	C	1.036628	-0.000048	-0.300818
C28	C	1.536628	0.499952	0.199182
C29	C	0.905607	-0.000066	-0.297341
C30	C	1.405607	0.499934	0.202659
C31	C	0.933570	-0.000082	-0.068772
C32	C	1.433570	0.499918	0.431228
C33	C	1.064588	-0.000071	-0.072250
C34	C	1.564588	0.499929	0.427750
C35	C	1.485073	-0.336714	-0.184817
C36	C	1.985073	0.163286	0.315183
C37	C	1.485085	-0.453519	-0.184809
C38	C	1.985085	0.046481	0.315191
C39	C	1.485100	-0.546617	-0.184795
C40	C	1.985100	-0.046617	0.315205
C41	C	1.485114	-0.663430	-0.184788
C42	C	1.985114	-0.163430	0.315212
C43	C	1.714631	-0.000077	-0.177630
C44	C	2.214631	0.499923	0.322370
C45	C	1.854074	-0.000078	-0.181322
C46	C	2.354074	0.499922	0.318678
C47	C	1.492263	-0.000074	0.044738
C48	C	1.992263	0.499926	0.544738
C49	C	1.488571	-0.000072	0.184181
C50	C	1.988571	0.499928	0.684181
N51	N	1.485130	0.243472	-0.184774
N52	N	1.985130	0.743472	0.315226
C53	C	1.477925	-0.000059	-0.414336
C54	C	1.977925	0.499941	0.085664
C55	C	1.481616	-0.000054	-0.553779
C56	C	1.981616	0.499946	-0.053779
C57	C	1.601112	-0.000078	0.263667
C58	C	2.101112	0.499922	0.763667
C59	C	1.597636	-0.000065	0.394688
C60	C	2.097636	0.499935	0.894688
C61	C	1.369066	-0.000046	0.366725
C62	C	1.869066	0.499954	0.866725
C63	C	1.372544	-0.000051	0.235706
C64	C	1.872544	0.499949	0.735706
H65	H	0.840894	-0.000067	-0.388984
H66	H	1.340894	0.499933	0.111016
N67	N	0.877979	-0.000094	0.056358
N68	N	1.377979	0.499906	0.556358
H69	H	0.906891	0.063344	0.105722
H70	H	1.406891	0.563344	0.605722
H71	H	0.906904	-0.063577	0.105611
H72	H	1.406904	0.436423	0.605611
N73	N	1.150331	-0.000085	0.049140
N74	N	1.650331	0.499915	0.549140
H75	H	1.097812	-0.000095	0.123170
H76	H	1.597812	0.499905	0.623170
H77	H	1.205304	0.063358	0.052685
H78	H	1.705304	0.563358	0.552685
N79	N	1.726249	-0.000092	0.208090
N80	N	2.226249	0.499908	0.708090
H81	H	1.732776	-0.063537	0.154363
H82	H	2.232776	0.436463	0.654363
H83	H	1.796939	-0.000054	0.278401
H84	H	2.296939	0.499946	0.778401
H85	H	1.689279	-0.000067	0.459401
H86	H	2.189279	0.499933	0.959401
H87	H	1.274601	-0.000030	0.408693
H88	H	1.774601	0.499970	0.908693
H89	H	1.078574	-0.000037	-0.395294
H90	H	1.578574	0.499963	0.104706
H91	H	1.280893	-0.000044	0.170985
H92	H	1.780893	0.499956	0.670985
