data_functionalizedCrystal
_audit_creation_method	'MofGen! by Chris Wilmer'
_symmetry_space_group_name_H-M	'P1'
_symmetry_Int_Tables_number	1
_symmetry_cell_setting	triclinic
loop_
_symmetry_equiv_pos_as_xyz
  x,y,z
_cell_length_a	10.654545
_cell_length_b	17.019294
_cell_length_c	9.730223
_cell_angle_alpha	86.116633
_cell_angle_beta	89.997167
_cell_angle_gamma	83.937426
loop_
_atom_site_label
_atom_site_type_symbol
_atom_site_fract_x
_atom_site_fract_y
_atom_site_fract_z
O1	O	1.666108	0.110778	-0.127384
O2	O	1.300463	0.121337	-0.128639
O3	O	1.493486	0.001280	-0.114421
O4	O	1.473085	0.230834	-0.141602
O5	O	1.493473	0.001277	0.114159
O6	O	1.300451	0.121334	0.099941
O7	O	1.666095	0.110774	0.101196
Zn8	Zn	1.483271	0.116053	0.136861
Zn9	Zn	1.483287	0.116058	-0.164304
O10	O	1.473073	0.230831	0.086978
C11	C	1.253671	0.120561	-0.014258
C12	C	1.114264	0.118243	-0.013986
C13	C	1.048770	0.117151	0.110743
C14	C	0.917784	0.114960	0.111003
C15	C	0.917798	0.114958	-0.138208
C16	C	1.048782	0.117143	-0.138465
C17	C	1.492706	-0.028115	0.003346
C18	C	1.490385	-0.115698	0.013708
C19	C	1.489305	-0.156838	-0.106023
C20	C	1.487117	-0.239131	-0.096283
C21	C	1.486018	-0.280283	0.033189
C22	C	1.487095	-0.239137	0.152928
C23	C	1.489274	-0.156845	0.143187
C24	C	1.479429	-0.528752	0.068835
C25	C	1.477253	-0.611050	0.078568
C26	C	1.477273	-0.611039	-0.170645
C27	C	1.479460	-0.528746	-0.180375
C28	C	1.480530	-0.487606	-0.060635
C29	C	1.483785	-0.364400	0.043148
C30	C	1.482754	-0.403490	-0.070596
C31	C	1.712887	0.111550	-0.013188
C32	C	1.852295	0.113868	-0.013469
C33	C	1.473852	0.260226	-0.030792
C34	C	1.476173	0.347809	-0.041163
N35	N	1.483269	0.116050	0.342397
N36	N	1.483299	0.116055	-0.369840
C37	C	1.568768	0.062911	0.420616
C38	C	1.568781	0.062912	0.564499
C39	C	1.397791	0.169196	0.551931
C40	C	1.397773	0.169191	0.408051
H41	H	1.490206	-0.123339	-0.211453
H42	H	1.102110	0.118031	-0.240040
H43	H	1.486242	-0.272625	-0.193780
H44	H	1.328184	0.212464	0.605400
N45	N	1.485924	-0.283519	0.292575
H46	H	1.407218	-0.311701	0.301472
H47	H	1.562891	-0.323584	0.302777
H48	H	1.638400	0.019641	0.628182
N49	N	1.119390	0.118329	0.245003
H50	H	1.184010	0.070423	0.256233
H51	H	1.163379	0.168080	0.244590
H52	H	0.864465	0.114070	0.212569
H53	H	1.490136	-0.123348	0.240684
H54	H	1.483640	-0.369980	-0.176011
H55	H	0.864467	0.114063	-0.239554
H56	H	1.328144	0.212463	0.344360
N57	N	1.480649	-0.484363	-0.320019
H58	H	1.479632	-0.522913	-0.394392
H59	H	1.403742	-0.444249	-0.330197
H60	H	1.476399	-0.644544	-0.268129
N61	N	1.476072	-0.655439	0.218218
H62	H	1.477079	-0.616891	0.292596
H63	H	1.397359	-0.683618	0.226971
H64	H	1.480325	-0.495268	0.166336
N65	N	1.482632	-0.408791	0.182789
H66	H	1.403924	-0.436972	0.191686
H67	H	1.559598	-0.448858	0.192971
H68	H	1.638382	0.019639	0.367165
