data_functionalizedCrystal
_audit_creation_method	'MofGen! by Chris Wilmer'
_symmetry_space_group_name_H-M	'P1'
_symmetry_Int_Tables_number	1
_symmetry_cell_setting	triclinic
loop_
_symmetry_equiv_pos_as_xyz
  x,y,z
_cell_length_a	14.519731
_cell_length_b	16.098538
_cell_length_c	14.519709
_cell_angle_alpha	92.726950
_cell_angle_beta	96.315501
_cell_angle_gamma	92.744038
loop_
_atom_site_label
_atom_site_type_symbol
_atom_site_fract_x
_atom_site_fract_y
_atom_site_fract_z
O1	O	1.227978	0.069260	-0.116870
O2	O	1.727978	0.569260	0.383130
O3	O	0.959504	0.069261	-0.131086
O4	O	1.459504	0.569261	0.368914
O5	O	1.100859	0.069253	0.010259
O6	O	1.600859	0.569253	0.510259
O7	O	1.086623	0.069268	-0.258216
O8	O	1.586623	0.569268	0.241784
O9	O	1.092602	-0.069259	0.002035
O10	O	1.592602	0.430741	0.502035
O11	O	0.951247	-0.069251	-0.139310
O12	O	1.451247	0.430749	0.360690
O13	O	1.219721	-0.069253	-0.125095
O14	O	1.719721	0.430747	0.374905
Zn15	Zn	1.084173	-0.091244	-0.133508
Zn16	Zn	1.584173	0.408756	0.366492
Zn17	Zn	1.095052	0.091252	-0.122672
Zn18	Zn	1.595052	0.591252	0.377328
O19	O	1.078366	-0.069244	-0.266440
O20	O	1.578366	0.430756	0.233560
C21	C	0.921016	0.000005	-0.134532
C22	C	1.421016	0.500005	0.365468
C23	C	0.818636	0.000006	-0.132536
C24	C	1.318636	0.500006	0.367464
N25	N	1.076755	-0.215792	-0.140903
N26	N	1.576755	0.284208	0.359097
C27	C	0.735492	0.000009	-0.130914
C28	C	1.235492	0.500009	0.369086
C29	C	0.631183	0.000009	-0.128887
C30	C	1.131183	0.500009	0.371113
C31	C	0.548044	0.000009	-0.127279
C32	C	1.048044	0.500009	0.372721
C33	C	0.443729	0.000011	-0.125253
C34	C	0.943729	0.500011	0.374747
C35	C	1.136773	-0.259381	-0.080932
C36	C	1.636773	0.240619	0.419068
C37	C	1.131592	-0.346570	-0.086113
C38	C	1.631592	0.153430	0.413887
C39	C	1.066397	-0.390168	-0.151271
C40	C	1.566397	0.109832	0.348729
C41	C	1.006372	-0.346574	-0.211245
C42	C	1.506372	0.153426	0.288755
C43	C	1.011549	-0.259386	-0.206058
C44	C	1.511549	0.240614	0.293942
C45	C	1.047630	-0.653417	-0.170058
C46	C	1.547630	-0.153417	0.329942
C47	C	1.042459	-0.740610	-0.175242
C48	C	1.542459	-0.240610	0.324758
C49	C	1.167679	-0.740600	-0.050108
C50	C	1.667679	-0.240600	0.449892
C51	C	1.172854	-0.653412	-0.044931
C52	C	1.672854	-0.153412	0.455069
C53	C	1.112826	-0.609825	-0.104901
C54	C	1.612826	-0.109825	0.395099
C55	C	1.061102	-0.479289	-0.156571
C56	C	1.561102	0.020711	0.343429
C57	C	1.118117	-0.520705	-0.099596
C58	C	1.618117	-0.020705	0.400404
C59	C	1.258209	0.000005	-0.121648
C60	C	1.758209	0.500005	0.378352
C61	C	1.360590	0.000010	-0.123644
C62	C	1.860590	0.500010	0.376356
C63	C	1.096067	-0.000003	0.040507
C64	C	1.596067	0.499997	0.540507
C65	C	1.094078	-0.000004	0.142888
C66	C	1.594078	0.499996	0.642888
N67	N	1.102478	0.215801	-0.115270
N68	N	1.602478	0.715801	0.384730
C69	C	1.083158	0.000014	-0.296687
C70	C	1.583158	0.500014	0.203313
C71	C	1.085147	0.000020	-0.399069
C72	C	1.585147	0.500020	0.100931
C73	C	1.086760	0.000018	0.517786
C74	C	1.586760	0.500018	1.017786
C75	C	1.088793	0.000012	0.413478
C76	C	1.588793	0.500012	0.913478
C77	C	1.090419	0.000006	0.330340
C78	C	1.590419	0.500006	0.830340
C79	C	1.092452	0.000002	0.226025
C80	C	1.592452	0.500002	0.726025
H81	H	1.180464	-0.382059	-0.037279
H82	H	1.680464	0.117941	0.462721
H83	H	1.008020	-0.514794	-0.209626
H84	H	1.508020	-0.014794	0.290374
H85	H	0.998754	-0.617935	-0.218890
H86	H	1.498754	-0.117935	0.281110
H87	H	0.953283	-0.382076	-0.264295
H88	H	1.453283	0.117924	0.235705
H89	H	0.989366	-0.776104	-0.228305
H90	H	1.489366	-0.276104	0.271695
O91	O	1.199965	-0.216960	-0.017557
O92	O	1.699965	0.283040	0.482443
C93	C	1.153444	-0.166590	0.042462
C94	C	1.653444	0.333410	0.542462
H95	H	1.082138	-0.153517	0.006641
H96	H	1.582138	0.346483	0.506641
H97	H	1.195552	-0.105283	0.060670
H98	H	1.695552	0.394717	0.560670
H99	H	1.145026	-0.200238	0.108606
H100	H	1.645026	0.299762	0.608606
O101	O	1.236209	-0.611192	0.018449
O102	O	1.736209	-0.111192	0.518449
C103	C	1.288090	-0.668361	0.070256
C104	C	1.788090	-0.168361	0.570256
H105	H	1.246590	-0.730520	0.067690
H106	H	1.746590	-0.230520	0.567690
H107	H	1.303537	-0.643178	0.145372
H108	H	1.803537	-0.143178	0.645372
H109	H	1.356093	-0.677615	0.039601
H110	H	1.856093	-0.177615	0.539601
H111	H	0.962674	-0.223897	-0.254892
H112	H	1.462674	0.276103	0.245108
O113	O	1.181352	-0.478412	-0.036165
O114	O	1.681352	0.021588	0.463835
C115	C	1.164954	-0.499769	0.053886
C116	C	1.664954	0.000231	0.553886
H117	H	1.089694	-0.523747	0.053069
H118	H	1.589694	-0.023747	0.553069
H119	H	1.178894	-0.442448	0.103572
H120	H	1.678894	0.057552	0.603572
H121	H	1.213012	-0.550381	0.077835
H122	H	1.713012	-0.050381	0.577835
H123	H	1.216550	-0.776097	-0.001282
H124	H	1.716550	-0.276097	0.498718
