data_functionalizedCrystal
_audit_creation_method	'MofGen! by Chris Wilmer'
_symmetry_space_group_name_H-M	'P1'
_symmetry_Int_Tables_number	1
_symmetry_cell_setting	triclinic
loop_
_symmetry_equiv_pos_as_xyz
  x,y,z
_cell_length_a	6.817900
_cell_length_b	16.255661
_cell_length_c	11.102210
_cell_angle_alpha	93.853881
_cell_angle_beta	108.604261
_cell_angle_gamma	103.488922
loop_
_atom_site_label
_atom_site_type_symbol
_atom_site_fract_x
_atom_site_fract_y
_atom_site_fract_z
V1	V	-4.052930	-0.263869	-0.176865
O2	O	-4.013087	-0.258848	0.007443
O3	O	-4.030099	-0.262063	-0.349678
O4	O	-4.004157	-0.378952	-0.174608
O5	O	-4.039208	-0.141149	-0.168839
V6	V	-4.533293	-0.249191	-0.154765
O7	O	-4.321120	-0.296067	-0.225343
O8	O	-4.715300	-0.216994	-0.106287
O9	O	-4.332917	-0.250998	0.018048
O10	O	-4.690533	-0.254212	-0.339073
O11	O	-4.664411	-0.371911	-0.162791
O12	O	-4.358859	-0.134108	-0.157022
C13	C	-3.881332	-0.257900	-0.391791
C14	C	-3.943949	-0.257190	-0.533071
C15	C	-3.989272	-0.178700	-0.713759
C16	C	-3.930414	-0.179357	-0.581009
C17	C	-4.016327	-0.334369	-0.617889
C18	C	-4.075169	-0.333711	-0.750636
C19	C	-3.680722	-0.084429	-0.373270
C20	C	-3.608376	-0.007252	-0.288457
C21	C	-3.707234	0.058677	-0.319430
C22	C	-3.878484	0.047430	-0.435215
C23	C	-3.950846	-0.029749	-0.520021
C24	C	-3.851940	-0.095674	-0.489048
C25	C	-4.324876	-0.428634	-0.958377
C26	C	-4.397254	-0.505814	-1.043187
C27	C	-4.298413	-0.571750	-1.012219
C28	C	-4.127196	-0.560513	-0.896433
C29	C	-4.054818	-0.483332	-0.811623
C30	C	-4.153659	-0.417396	-0.842601
C31	C	-3.848240	-0.407003	-0.168471
C32	C	-3.889815	-0.501084	-0.167769
C33	C	-3.799129	-0.723903	-0.159385
C34	C	-3.971586	-0.793378	-0.267594
C35	C	-3.966005	-0.673333	-0.166453
C36	C	-3.867655	-0.771495	-0.057005
C37	C	-4.039584	-0.839716	-0.165176
C38	C	-4.137958	-0.741578	-0.274759
C39	C	-4.033951	-0.719680	-0.064074
C40	C	-4.206549	-0.789135	-0.172314
C41	C	-3.923613	-0.577484	-0.167190
C42	C	-4.081994	-0.935565	-0.164449
C43	C	-4.145027	-0.255158	0.060154
C44	C	-4.061648	-0.255874	0.201433
C45	C	-4.178119	-0.106053	-0.163163
C46	C	-4.115781	-0.011971	-0.163859
H47	H	-4.090276	-0.038906	-0.614290
N48	N	-3.879893	-0.471858	-0.693365
N49	N	-3.700373	-0.476781	-0.694772
H50	H	-3.576830	-0.468677	-0.611254
H51	H	-3.600193	-0.138105	-0.348046
N52	N	-4.066402	-0.679394	0.043855
N53	N	-4.245522	-0.700604	0.057548
H54	H	-4.268424	-0.672149	0.133782
H55	H	-3.958988	0.101115	-0.460416
N56	N	-4.372325	-0.650586	-1.098858
N57	N	-4.247152	-0.675233	-1.145017
H58	H	-4.299341	-0.730910	-1.206202
H59	H	-3.753782	-0.785106	0.034998
N60	N	-4.026188	-0.627855	-0.864803
N61	N	-3.830498	-0.615538	-0.847263
H62	H	-3.759165	-0.663102	-0.824927
H63	H	-3.978252	-0.115320	-0.752779
H64	H	-4.405357	-0.374942	-0.983610
N65	N	-4.030122	-0.413867	-0.568904
N66	N	-3.977582	-0.414445	-0.450379
H67	H	-3.987329	-0.470592	-0.415783
H68	H	-3.648322	0.121516	-0.250366
H69	H	-4.251831	-0.728110	-0.366886
N70	N	-4.423179	-0.824723	-0.179227
N71	N	-4.490057	-0.903123	-0.178951
H72	H	-4.643056	-0.928264	-0.183844
N73	N	-3.433412	0.004246	-0.170210
N74	N	-3.265732	0.063230	-0.147590
H75	H	-3.142168	0.071352	-0.064078
N76	N	-4.572144	-0.517317	-1.161470
N77	N	-4.739851	-0.576292	-1.184121
H78	H	-4.863358	-0.584419	-1.267664
N79	N	-3.582694	-0.688167	-0.152727
N80	N	-3.546553	-0.649933	-0.240610
H81	H	-3.393702	-0.624694	-0.235916
H82	H	-3.945668	-0.825463	-0.353639
