data_functionalizedCrystal
_audit_creation_method	'MofGen! by Chris Wilmer'
_symmetry_space_group_name_H-M	'P1'
_symmetry_Int_Tables_number	1
_symmetry_cell_setting	triclinic
loop_
_symmetry_equiv_pos_as_xyz
  x,y,z
_cell_length_a	10.654550
_cell_length_b	16.176319
_cell_length_c	10.654550
_cell_angle_alpha	89.999586
_cell_angle_beta	95.515069
_cell_angle_gamma	90.004201
loop_
_atom_site_label
_atom_site_type_symbol
_atom_site_fract_x
_atom_site_fract_y
_atom_site_fract_z
O1	O	1.667847	0.068685	-0.176391
O2	O	1.302369	0.068700	-0.193197
O3	O	1.493511	0.068687	-0.002055
O4	O	1.476705	0.068698	-0.367533
O5	O	1.493482	-0.068807	-0.002065
O6	O	1.302340	-0.068793	-0.193207
O7	O	1.667818	-0.068809	-0.176401
Cu8	Cu	1.485076	-0.081355	-0.184805
Cu9	Cu	1.485111	0.081246	-0.184793
O10	O	1.476676	-0.068795	-0.367543
C11	C	1.255556	-0.000045	-0.191968
C12	C	1.116113	-0.000039	-0.188276
N13	N	1.485061	-0.195720	-0.184813
C14	C	1.036628	-0.000038	-0.300818
C15	C	0.905607	-0.000053	-0.297341
C16	C	0.933570	-0.000066	-0.068772
C17	C	1.064588	-0.000057	-0.072250
C18	C	1.569784	-0.761109	-0.100168
C19	C	1.569779	-0.674562	-0.100177
C20	C	1.485118	-0.631296	-0.184787
C21	C	1.400465	-0.674581	-0.269403
C22	C	1.400477	-0.761127	-0.269400
C23	C	1.400414	-0.325553	-0.269420
C24	C	1.400406	-0.239002	-0.269415
C25	C	1.569716	-0.238988	-0.100198
C26	C	1.569728	-0.325533	-0.100194
C27	C	1.485080	-0.368812	-0.184814
C28	C	1.485089	-0.462656	-0.184805
C29	C	1.485102	-0.537453	-0.184791
C30	C	1.714631	-0.000062	-0.177630
C31	C	1.854074	-0.000062	-0.181322
C32	C	1.492263	-0.000059	0.044738
C33	C	1.488571	-0.000058	0.184181
N34	N	1.485136	0.195612	-0.184775
C35	C	1.477925	-0.000048	-0.414336
C36	C	1.481616	-0.000044	-0.553779
C37	C	1.601112	-0.000062	0.263667
C38	C	1.597636	-0.000052	0.394688
C39	C	1.369066	-0.000037	0.366725
C40	C	1.372544	-0.000041	0.235706
H41	H	0.840894	-0.000054	-0.388984
O42	O	1.150325	-0.000063	0.049146
H43	H	1.250085	-0.000066	0.027232
H44	H	1.078574	-0.000030	-0.395294
O45	O	1.309190	-0.807808	-0.360672
H46	H	1.211141	-0.791218	-0.343771
O47	O	0.877999	-0.000079	0.056369
H48	H	0.773539	-0.000077	0.039883
O49	O	1.661108	-0.807774	-0.008919
H50	H	1.719979	-0.763135	0.049900
H51	H	1.638707	-0.639324	-0.031285
O52	O	1.661054	-0.372201	-0.008951
H53	H	1.719930	-0.327565	0.049869
H54	H	1.638645	-0.203742	-0.031299
O55	O	1.309100	-0.192331	-0.360687
H56	H	1.250250	-0.236964	-0.419539
H57	H	1.689279	-0.000054	0.459401
H58	H	1.331489	-0.360783	-0.338318
H59	H	1.331536	-0.639349	-0.338301
O60	O	1.726248	-0.000064	0.208086
H61	H	1.803920	-0.000054	0.285375
O62	O	1.243926	-0.000036	0.422296
H63	H	1.260412	-0.000046	0.526756
H64	H	1.280893	-0.000035	0.170985
