data_functionalizedCrystal
_audit_creation_method	'MofGen! by Chris Wilmer'
_symmetry_space_group_name_H-M	'P1'
_symmetry_Int_Tables_number	1
_symmetry_cell_setting	triclinic
loop_
_symmetry_equiv_pos_as_xyz
  x,y,z
_cell_length_a	12.759401
_cell_length_b	12.759400
_cell_length_c	12.759393
_cell_angle_alpha	90.031564
_cell_angle_beta	90.020011
_cell_angle_gamma	90.010763
loop_
_atom_site_label
_atom_site_type_symbol
_atom_site_fract_x
_atom_site_fract_y
_atom_site_fract_z
Zn1	Zn	-1.606255	0.418314	-0.594024
Zn2	Zn	-1.606150	0.594033	-0.418344
Zn3	Zn	-1.430557	0.418357	-0.418359
Zn4	Zn	-1.430546	0.593940	-0.593981
O5	O	-1.518377	0.506161	-0.506177
O6	O	-1.753262	0.441645	-0.570731
O7	O	-1.582818	0.570786	-0.271325
O8	O	-1.453913	0.271330	-0.441685
O9	O	-1.753185	0.570745	-0.441660
O10	O	-1.582998	0.271299	-0.570746
O11	O	-1.453811	0.441717	-0.271335
O12	O	-1.283535	0.441627	-0.441643
O13	O	-1.453894	0.570586	-0.741008
O14	O	-1.283527	0.570627	-0.570672
O15	O	-1.582987	0.441554	-0.741039
O16	O	-1.582807	0.741042	-0.441618
O17	O	-1.453791	0.740973	-0.570658
C18	C	-1.245410	0.506122	-0.506155
C19	C	-1.128633	0.506131	-0.506171
C20	C	-1.073805	0.439033	-0.573481
C21	C	-0.964081	0.439047	-0.573485
C22	C	-0.964023	0.573267	-0.438866
C23	C	-1.073745	0.573247	-0.438857
C24	C	-1.128692	0.371917	-0.640795
C25	C	-1.073864	0.304814	-0.708111
C26	C	-0.964140	0.304828	-0.708115
C27	C	-0.909244	0.371946	-0.640803
C28	C	-1.518315	0.779128	-0.506155
C29	C	-1.518384	0.895905	-0.506181
C30	C	-1.518451	0.506055	-0.780210
C31	C	-1.518482	0.506010	-0.896987
C32	C	-0.792410	0.506188	-0.506193
C33	C	-0.909187	0.506166	-0.506183
C34	C	-1.518468	0.232128	-0.506222
C35	C	-1.518507	0.115351	-0.506241
C36	C	-1.585637	0.950768	-0.439064
C37	C	-1.585702	1.060492	-0.439096
C38	C	-1.451252	1.060480	-0.573365
C39	C	-1.451193	0.950758	-0.573337
C40	C	-1.652828	0.895914	-0.371907
C41	C	-1.720086	0.950777	-0.304784
C42	C	-1.720150	1.060501	-0.304817
C43	C	-1.652957	1.115362	-0.371972
C44	C	-1.585710	0.438817	-0.951867
C45	C	-1.585735	0.438779	-1.061591
C46	C	-1.451301	0.573136	-1.061545
C47	C	-1.451272	0.573168	-0.951823
C48	C	-1.652920	0.371659	-0.897031
C49	C	-1.720155	0.304461	-0.951911
C50	C	-1.720180	0.304423	-1.061635
C51	C	-1.652970	0.371583	-1.116479
C52	C	-1.518364	0.506191	-0.233209
C53	C	-1.518537	0.505940	-0.116433
H54	H	-0.819900	0.371930	-0.640789
H55	H	-1.774798	0.906104	-0.250115
H56	H	-1.218035	0.371897	-0.640799
H57	H	-0.919319	0.627913	-0.384065
H58	H	-1.652910	0.371684	-0.807688
N59	N	-1.792695	1.119678	-0.232434
H60	H	-1.835249	1.068276	-0.189890
H61	H	-1.749979	1.165276	-0.183791
N62	N	-1.652984	0.371534	-1.234825
H63	H	-1.705768	0.318773	-1.261272
H64	H	-1.672244	0.443635	-1.261161
N65	N	-1.133064	0.232433	-0.780717
H66	H	-1.210893	0.242610	-0.770509
H67	H	-1.113904	0.248893	-0.855717
H68	H	-1.396431	0.906089	-0.627991
N69	N	-0.905000	0.232440	-0.780697
H70	H	-0.956424	0.189920	-0.823332
H71	H	-0.859487	0.275263	-0.829247
N72	N	-1.378821	0.645582	-1.120682
H73	H	-1.303756	0.629255	-1.101583
H74	H	-1.389125	0.635341	-1.198501
N75	N	-1.378772	0.645645	-0.892619
H76	H	-1.330089	0.602951	-0.847103
H77	H	-1.336276	0.688177	-0.944069
N78	N	-1.132892	0.645611	-0.366257
H79	H	-1.081473	0.688137	-0.323620
H80	H	-1.178436	0.694272	-0.408934
H81	H	-1.652780	0.806572	-0.371871
N82	N	-1.378776	1.119656	-0.645777
H83	H	-1.303709	1.100626	-0.629387
H84	H	-1.395128	1.100472	-0.720828
H85	H	-1.653024	1.204707	-0.372001
N86	N	-1.792651	0.232038	-0.892766
H87	H	-1.782444	0.242263	-0.814930
H88	H	-1.867677	0.248415	-0.911962
H89	H	-1.774917	0.249700	-1.106316
