data_functionalizedCrystal
_audit_creation_method	'MofGen! by Chris Wilmer'
_symmetry_space_group_name_H-M	'P1'
_symmetry_Int_Tables_number	1
_symmetry_cell_setting	triclinic
loop_
_symmetry_equiv_pos_as_xyz
  x,y,z
_cell_length_a	16.992694
_cell_length_b	16.992695
_cell_length_c	16.053802
_cell_angle_alpha	87.258926
_cell_angle_beta	92.750953
_cell_angle_gamma	90.668223
loop_
_atom_site_label
_atom_site_type_symbol
_atom_site_fract_x
_atom_site_fract_y
_atom_site_fract_z
O1	O	-1.053959	-0.163815	-0.069325
O2	O	-0.553959	0.336185	0.430675
O3	O	-0.825560	-0.161983	-0.069350
O4	O	-0.325560	0.338017	0.430650
O5	O	-0.938844	-0.048699	-0.069331
O6	O	-0.438844	0.451301	0.430669
O7	O	-0.940676	-0.277099	-0.069344
O8	O	-0.440676	0.222901	0.430656
O9	O	-0.932607	-0.054907	0.069527
O10	O	-0.432607	0.445093	0.569527
O11	O	-0.819323	-0.168191	0.069508
O12	O	-0.319323	0.331809	0.569508
O13	O	-1.047722	-0.170023	0.069533
O14	O	-0.547722	0.329977	0.569533
Zn15	Zn	-0.932532	-0.170093	0.091567
Zn16	Zn	-0.432532	0.329907	0.591567
Zn17	Zn	-0.940750	-0.161913	-0.091384
Zn18	Zn	-0.440750	0.338087	0.408616
O19	O	-0.934438	-0.283307	0.069514
O20	O	-0.434438	0.216693	0.569514
C21	C	-0.793082	-0.162731	0.000076
C22	C	-0.293082	0.337269	0.500076
C23	C	-0.705597	-0.155702	0.000067
C24	C	-0.205597	0.344298	0.500067
N25	N	-0.926930	-0.175675	0.216427
N26	N	-0.426930	0.324325	0.716427
C27	C	-0.933370	-0.022443	0.000098
C28	C	-0.433370	0.477557	0.500098
C29	C	-0.926341	0.065042	0.000097
C30	C	-0.426341	0.565042	0.500097
C31	C	-1.080201	-0.169275	0.000105
C32	C	-0.580201	0.330725	0.500105
C33	C	-1.167685	-0.176304	0.000109
C34	C	-0.667685	0.323696	0.500109
C35	C	-0.659607	-0.223520	0.000064
C36	C	-0.159607	0.276480	0.500064
C37	C	-0.577405	-0.216911	0.000076
C38	C	-0.077405	0.283089	0.500076
C39	C	-0.541197	-0.142484	0.000085
C40	C	-0.041197	0.357516	0.500085
C41	C	-0.587193	-0.074661	0.000091
C42	C	-0.087193	0.425339	0.500091
C43	C	-0.669393	-0.081270	0.000085
C44	C	-0.169393	0.418730	0.500085
C45	C	-0.295881	-0.115090	0.000109
C46	C	0.204119	0.384910	0.500109
C47	C	-0.213676	-0.108486	0.000112
C48	C	0.286324	0.391514	0.500112
C49	C	-0.203893	-0.250737	0.000099
C50	C	0.296107	0.249263	0.500099
C51	C	-0.286095	-0.257339	0.000088
C52	C	0.213905	0.242661	0.500088
C53	C	-0.332084	-0.189517	0.000098
C54	C	0.167916	0.310483	0.500098
N55	N	-0.457174	-0.135727	0.000094
N56	N	0.042826	0.364273	0.500094
N57	N	-0.416105	-0.196275	0.000094
N58	N	0.083895	0.303725	0.500094
C59	C	-0.939913	-0.309563	0.000084
C60	C	-0.439913	0.190437	0.500084
C61	C	-0.946942	-0.397047	0.000079
C62	C	-0.446942	0.102953	0.500079
C63	C	-0.994158	0.111032	0.000105
C64	C	-0.494158	0.611032	0.500105
C65	C	-0.987550	0.193233	0.000096
C66	C	-0.487550	0.693233	0.500096
C67	C	-0.913123	0.229442	0.000086
C68	C	-0.413123	0.729442	0.500086
C69	C	-0.845300	0.183446	0.000075
C70	C	-0.345300	0.683446	0.500075
C71	C	-0.851910	0.101246	0.000078
C72	C	-0.351910	0.601246	0.500078
C73	C	-0.885729	0.474757	0.000071
C74	C	-0.385729	0.974757	0.500071
C75	C	-0.879124	0.556962	0.000071
C76	C	-0.379124	1.056962	0.500071
C77	C	-1.021375	0.566745	0.000091
C78	C	-0.521375	1.066745	0.500091
C79	C	-1.027978	0.484543	0.000099
C80	C	-0.527978	0.984543	0.500099
C81	C	-0.960155	0.438554	0.000083
C82	C	-0.460155	0.938554	0.500083
N83	N	-0.906366	0.313465	0.000079
N84	N	-0.406366	0.813465	0.500079
N85	N	-0.966913	0.354533	0.000084
N86	N	-0.466913	0.854533	0.500084
N87	N	-0.946358	-0.156325	-0.216243
N88	N	-0.446358	0.343675	0.283757
C89	C	-0.975152	-0.127492	0.260129
C90	C	-0.475152	0.372508	0.760129
C91	C	-0.971241	-0.131404	0.347535
C92	C	-0.471241	0.368596	0.847535
C93	C	-0.919110	-0.183504	0.391237
C94	C	-0.419110	0.316496	0.891237
C95	C	-0.870883	-0.231689	0.347529
C96	C	-0.370883	0.268311	0.847529
C97	C	-0.874791	-0.227772	0.260125
C98	C	-0.374791	0.272228	0.760125
C99	C	-0.902039	-0.200593	0.652644
C100	C	-0.402039	0.299407	1.152644
C101	C	-0.898136	-0.204508	0.740055
C102	C	-0.398136	0.295492	1.240055
C103	C	-0.998493	-0.104222	0.740054
C104	C	-0.498493	0.395778	1.240054
C105	C	-1.002400	-0.100313	0.652648
C106	C	-0.502400	0.399687	1.152648
C107	C	-0.954169	-0.148494	0.608948
C108	C	-0.454169	0.351506	1.108948
N109	N	-0.915113	-0.187507	0.480580
N110	N	-0.415113	0.312493	0.980580
N111	N	-0.958163	-0.144487	0.519606
N112	N	-0.458163	0.355513	1.019606
H113	H	-0.689081	-0.284126	0.000056
H114	H	-0.189081	0.215874	0.500056
H115	H	-0.315571	-0.317945	0.000071
H116	H	0.184429	0.182055	0.500071
N117	N	-0.174610	-0.028212	0.000125
N118	N	0.325390	0.471788	0.500125
H119	H	-0.193357	0.004041	-0.051345
H120	H	0.306643	0.504041	0.448655
H121	H	-0.188752	-0.000635	0.051639
H122	H	0.311248	0.499365	0.551639
H123	H	-1.037759	-0.064994	0.775643
H124	H	-0.537759	0.435006	1.275643
H125	H	-1.017605	-0.085070	0.224552
H126	H	-0.517605	0.414930	0.724552
N127	N	-0.841916	-0.260712	0.787194
N128	N	-0.341916	0.239288	1.287194
H129	H	-0.811956	-0.290643	0.746248
H130	H	-0.311956	0.209357	1.246248
H131	H	-0.803610	-0.230004	0.823477
H132	H	-0.303610	0.269996	1.323477
H133	H	-0.539963	-0.272136	0.000072
H134	H	-0.039963	0.227864	0.500072
N135	N	-1.094518	0.616352	0.000106
N136	N	-0.594518	1.116352	0.500106
H137	H	-1.097260	0.652973	-0.051370
H138	H	-0.597260	1.152973	0.448630
H139	H	-1.142629	0.580890	0.000145
H140	H	-0.642629	1.080890	0.500145
H141	H	-1.010506	-0.092170	0.383116
H142	H	-0.510506	0.407830	0.883116
H143	H	-0.830503	0.437322	0.000059
H144	H	-0.330503	0.937322	0.500059
N145	N	-0.850035	-0.252565	0.605509
N146	N	-0.350035	0.247435	1.105509
H147	H	-0.814917	-0.218655	0.569256
H148	H	-0.314917	0.281345	1.069256
H149	H	-0.816470	-0.286161	0.646506
H150	H	-0.316470	0.213839	1.146506
N151	N	-0.154292	-0.323885	0.000089
N152	N	0.345708	0.176115	0.500089
H153	H	-0.096724	-0.308408	0.000095
H154	H	0.403276	0.191592	0.500095
H155	H	-0.164220	-0.358400	0.051563
H156	H	0.335780	0.141600	0.551563
H157	H	-0.796685	0.063801	0.000071
H158	H	-0.296685	0.563801	0.500071
H159	H	-0.706838	-0.026046	0.000087
H160	H	-0.206838	0.473954	0.500087
N161	N	-0.345478	-0.041943	0.000125
N162	N	0.154522	0.458057	0.500125
H163	H	-0.310064	0.006207	0.000130
H164	H	0.189936	0.506207	0.500130
H165	H	-0.382105	-0.039278	-0.051350
H166	H	0.117895	0.460722	0.448650
N167	N	-0.814650	-0.287878	0.394661
N168	N	-0.314650	0.212122	0.894661
H169	H	-0.819492	-0.283051	0.456663
H170	H	-0.319492	0.216949	0.956663
H171	H	-0.827921	-0.343613	0.379370
H172	H	-0.327921	0.156387	0.879370
H173	H	-0.835522	-0.267007	0.224543
H174	H	-0.335522	0.232993	0.724543
H175	H	-0.557705	-0.014061	0.000110
H176	H	-0.057705	0.485939	0.500110
H177	H	-1.044848	-0.057889	0.617067
H178	H	-0.544848	0.442111	1.117067
N179	N	-0.765024	0.222495	0.000058
N180	N	-0.265024	0.722495	0.500058
H181	H	-0.771126	0.281547	0.000060
H182	H	-0.271126	0.781547	0.500060
H183	H	-0.732808	0.203690	0.051530
H184	H	-0.232808	0.703690	0.551530
H185	H	-1.054765	0.081557	0.000119
H186	H	-0.554765	0.581557	0.500119
N187	N	-1.060695	0.242838	0.000110
N188	N	-0.560695	0.742838	0.500110
H189	H	-1.108847	0.207427	0.000125
H190	H	-0.608847	0.707427	0.500125
H191	H	-1.058732	0.274858	0.051586
H192	H	-0.558732	0.774858	0.551586
N193	N	-1.108252	0.445490	0.000115
N194	N	-0.608252	0.945490	0.500115
H195	H	-1.150213	0.487099	0.000119
H196	H	-0.650213	0.987099	0.500119
H197	H	-1.116407	0.413894	-0.051358
H198	H	-0.616407	0.913894	0.448642
H199	H	-0.818513	0.586440	0.000076
H200	H	-0.318513	1.086440	0.500076
