data_functionalizedCrystal
_audit_creation_method	'MofGen! by Chris Wilmer'
_symmetry_space_group_name_H-M	'P1'
_symmetry_Int_Tables_number	1
_symmetry_cell_setting	triclinic
loop_
_symmetry_equiv_pos_as_xyz
  x,y,z
_cell_length_a	10.686220
_cell_length_b	13.033915
_cell_length_c	10.686551
_cell_angle_alpha	102.084060
_cell_angle_beta	89.691918
_cell_angle_gamma	87.739593
loop_
_atom_site_label
_atom_site_type_symbol
_atom_site_fract_x
_atom_site_fract_y
_atom_site_fract_z
Zn1	Zn	2.008231	-0.255139	0.520541
Zn2	Zn	2.018687	-0.444557	0.279715
Zn3	Zn	1.786121	-0.281910	0.322467
Zn4	Zn	1.824818	-0.442436	0.505841
O5	O	1.909464	-0.356010	0.407141
O6	O	2.183707	-0.269949	0.476855
O7	O	1.976017	-0.435073	0.107858
O8	O	1.795014	-0.131906	0.372786
O9	O	2.191389	-0.409114	0.299921
O10	O	1.958197	-0.112237	0.518309
O11	O	1.805152	-0.315577	0.139268
O12	O	1.617166	-0.313520	0.358532
O13	O	1.860968	-0.405499	0.685319
O14	O	1.645597	-0.431458	0.493256
O15	O	1.995720	-0.267893	0.696119
O16	O	2.013541	-0.590728	0.285668
O17	O	1.871106	-0.589170	0.451801
C18	C	1.586242	-0.375165	0.428939
C19	C	1.447972	-0.383382	0.438290
C20	C	1.947693	-0.627919	0.362525
C21	C	1.964163	-0.744233	0.343474
C22	C	1.917977	-0.915579	0.397418
C23	C	1.900961	-0.795362	0.417119
C24	C	2.233949	-0.336782	0.385259
C25	C	2.372225	-0.328588	0.375934
C26	C	1.931494	-0.333473	0.738038
C27	C	1.940882	-0.323869	0.879046
C28	C	1.871123	-0.083036	0.451956
C29	C	1.854784	0.033289	0.471054
C30	C	1.887581	-0.378380	0.077539
C31	C	1.878393	-0.387675	-0.063436
H32	H	1.407036	-0.436590	0.498825
O33	O	2.021274	-0.241774	0.956712
H34	H	2.065576	-0.196554	0.892399
H35	H	1.413156	-0.275390	0.315393
H36	H	1.817716	-0.449652	0.877931
O37	O	2.006368	-0.975465	0.294616
H38	H	2.005885	-1.060489	0.295295
H39	H	1.834251	-0.750142	0.494748
O40	O	2.052538	-0.804115	0.240646
H41	H	2.052051	-0.889140	0.241316
H42	H	1.788079	-0.921487	0.548677
