data_functionalizedCrystal
_audit_creation_method	'MofGen! by Chris Wilmer'
_symmetry_space_group_name_H-M	'P1'
_symmetry_Int_Tables_number	1
_symmetry_cell_setting	triclinic
loop_
_symmetry_equiv_pos_as_xyz
  x,y,z
_cell_length_a	12.837939
_cell_length_b	8.965430
_cell_length_c	12.837942
_cell_angle_alpha	89.998990
_cell_angle_beta	85.171210
_cell_angle_gamma	89.996522
loop_
_atom_site_label
_atom_site_type_symbol
_atom_site_fract_x
_atom_site_fract_y
_atom_site_fract_z
O1	O	-1.402335	0.124024	0.272129
O2	O	-1.099201	0.124030	0.258686
O3	O	-1.244047	0.124018	0.113841
O4	O	-1.257490	0.124036	0.416974
O5	O	-1.244034	-0.124061	0.113850
O6	O	-1.099189	-0.124049	0.258696
O7	O	-1.402322	-0.124055	0.272138
Cu8	Cu	-1.250755	-0.146704	0.265418
Cu9	Cu	-1.250769	0.146678	0.265407
O10	O	-1.257477	-0.124043	0.416984
C11	C	-1.060126	-0.000009	0.254150
C12	C	-0.943711	-0.000007	0.240606
C13	C	-0.718837	-0.000020	0.403436
C14	C	-0.609454	-0.000019	0.390714
C15	C	-0.615562	-0.000015	0.202443
C16	C	-0.724944	-0.000015	0.215164
C17	C	-0.776578	-0.000016	0.315664
C18	C	-0.885962	-0.000006	0.328384
C19	C	-0.892067	-0.000012	0.140114
C20	C	-0.782685	-0.000011	0.127393
N21	N	-1.250752	-0.353053	0.265426
C22	C	-1.183741	-0.450353	0.332385
C23	C	-1.280344	-0.549767	0.362042
C24	C	-1.154189	-0.549766	0.235781
C25	C	-1.347408	-0.450278	0.295135
C26	C	-1.221186	-0.450268	0.168826
C27	C	-1.317854	-0.549637	0.198450
C28	C	-0.441398	-0.000015	0.276675
C29	C	-0.557813	-0.000014	0.290222
C30	C	-1.239499	-0.000021	0.074776
C31	C	-1.225954	-0.000018	-0.041639
N32	N	-1.250780	0.353028	0.265391
C33	C	-1.388784	0.000010	-0.266513
C34	C	-1.376062	0.000013	-0.375896
C35	C	-1.187791	0.000001	-0.369788
C36	C	-1.200513	-0.000002	-0.260405
C37	C	-1.301012	0.000000	-0.208772
C38	C	-1.313733	-0.000013	-0.099388
C39	C	-1.125462	-0.000014	-0.093282
C40	C	-1.112741	-0.000011	-0.202664
C41	C	-1.262025	-0.000001	0.456048
C42	C	-1.275569	0.000006	0.572463
H43	H	-0.573502	-0.000137	0.120621
C44	C	-1.187572	-0.392013	0.059976
C45	C	-1.086352	-0.442302	0.029354
C46	C	-1.055334	-0.388648	-0.070907
H47	H	-1.234377	-0.427450	0.012082
H48	H	-1.188370	-0.286053	0.060639
H49	H	-1.085562	-0.548239	0.028684
H50	H	-1.039523	-0.406869	0.077220
H51	H	-1.056132	-0.282688	-0.070244
H52	H	-1.102146	-0.424089	-0.118792
H53	H	-0.986651	-0.422749	-0.091693
H54	H	-1.447536	0.000025	-0.422905
C55	C	-1.456432	-0.392561	0.328653
C56	C	-1.524129	-0.513360	0.349408
C57	C	-1.624569	-0.460246	0.380277
H58	H	-1.454315	-0.333628	0.389927
H59	H	-1.480771	-0.333536	0.274226
H60	H	-1.499797	-0.572360	0.403830
H61	H	-1.526278	-0.572304	0.288149
H62	H	-1.648907	-0.401221	0.325850
H63	H	-1.622441	-0.401314	0.441548
H64	H	-1.670515	-0.542199	0.394354
C65	C	-0.954703	0.000299	0.044770
C66	C	-0.929956	0.127951	-0.015099
C67	C	-0.987644	0.128304	-0.102926
H68	H	-0.938078	-0.086109	0.003887
H69	H	-1.027255	0.000382	0.066692
H70	H	-0.857420	0.127853	-0.037021
H71	H	-0.946584	0.214379	0.025753
H72	H	-1.060196	0.128388	-0.081005
H73	H	-0.971015	0.041891	-0.143800
H74	H	-0.970868	0.214921	-0.143553
C75	C	-0.941833	-0.000086	0.437580
C76	C	-0.867848	-0.000134	0.511722
C77	C	-0.919273	-0.000232	0.612326
H78	H	-0.984379	0.086400	0.446608
H79	H	-0.984348	-0.086632	0.446507
H80	H	-0.825351	0.086404	0.502799
H81	H	-0.825298	-0.086614	0.502727
H82	H	-0.961788	-0.086779	0.621253
H83	H	-0.961818	0.086255	0.621343
H84	H	-0.869083	-0.000278	0.662643
H85	H	-1.072516	-0.593470	0.210724
H86	H	-1.374604	-0.592957	0.141813
C87	C	-1.422928	0.000075	-0.043517
C88	C	-1.497071	0.000131	-0.117503
C89	C	-1.597674	0.000241	-0.066077
H90	H	-1.431959	-0.086410	-0.000974
H91	H	-1.431854	0.086622	-0.001000
H92	H	-1.488150	-0.086407	-0.160002
H93	H	-1.488074	0.086610	-0.160049
H94	H	-1.606600	0.086788	-0.023560
H95	H	-1.606694	-0.086246	-0.023536
H96	H	-1.647992	0.000292	-0.116268
H97	H	-0.760878	-0.000019	0.485266
C98	C	-0.546948	0.000059	0.486141
C99	C	-0.615584	0.000096	0.576871
C100	C	-0.558042	0.000187	0.664801
H101	H	-0.504137	-0.086426	0.485240
H102	H	-0.504178	0.086607	0.485150
H103	H	-0.658337	-0.086443	0.577861
H104	H	-0.658396	0.086574	0.577806
H105	H	-0.515271	0.086734	0.663811
H106	H	-0.515232	-0.086300	0.663890
H107	H	-0.604602	0.000225	0.726371
C108	C	-1.003570	-0.000246	-0.258590
C109	C	-0.949865	-0.127865	-0.230122
C110	C	-0.849287	-0.128125	-0.281605
H111	H	-1.008411	-0.000316	-0.332016
H112	H	-0.966924	0.086215	-0.239380
H113	H	-0.986502	-0.214304	-0.249339
H114	H	-0.944995	-0.127822	-0.156705
H115	H	-0.812641	-0.041664	-0.262396
H116	H	-0.854139	-0.128191	-0.355029
H117	H	-0.812832	-0.214706	-0.262290
H118	H	-1.105969	0.000015	-0.411847
H119	H	-0.740630	-0.000028	0.045569
H120	H	-1.470614	-0.000003	-0.224473
H121	H	-1.127134	-0.406760	0.389074
C122	C	-1.313516	-0.607974	0.471013
C123	C	-1.243072	-0.557713	0.540812
C124	C	-1.273581	-0.611313	0.641202
H125	H	-1.381634	-0.572482	0.492662
H126	H	-1.313860	-0.713934	0.470119
H127	H	-1.242739	-0.451776	0.541709
H128	H	-1.174949	-0.593202	0.519197
H129	H	-1.273925	-0.717273	0.640308
H130	H	-1.341699	-0.575817	0.662841
H131	H	-1.225785	-0.577231	0.688571
H132	H	-1.053992	-0.000034	-0.046257
