data_functionalizedCrystal
_audit_creation_method	'MofGen! by Chris Wilmer'
_symmetry_space_group_name_H-M	'P1'
_symmetry_Int_Tables_number	1
_symmetry_cell_setting	triclinic
loop_
_symmetry_equiv_pos_as_xyz
  x,y,z
_cell_length_a	14.519709
_cell_length_b	12.996460
_cell_length_c	14.519709
_cell_angle_alpha	90.001234
_cell_angle_beta	96.319855
_cell_angle_gamma	89.999398
loop_
_atom_site_label
_atom_site_type_symbol
_atom_site_fract_x
_atom_site_fract_y
_atom_site_fract_z
O1	O	-1.223870	0.085435	0.120885
O2	O	-0.890537	0.418768	0.454218
O3	O	-0.557204	0.752102	0.787552
O4	O	-0.955394	0.085467	0.135121
O5	O	-0.622060	0.418800	0.468455
O6	O	-0.288727	0.752133	0.801788
O7	O	-1.096750	0.085441	-0.006235
O8	O	-0.763417	0.418774	0.327098
O9	O	-0.430084	0.752108	0.660431
O10	O	-1.082514	0.085461	0.262242
O11	O	-0.749180	0.418794	0.595575
O12	O	-0.415847	0.752128	0.928908
O13	O	-1.096732	-0.085693	-0.006227
O14	O	-0.763399	0.247640	0.327106
O15	O	-0.430065	0.580974	0.660440
O16	O	-0.955375	-0.085667	0.135130
O17	O	-0.622042	0.247666	0.468463
O18	O	-0.288709	0.581000	0.801796
O19	O	-1.223852	-0.085699	0.120893
O20	O	-0.890519	0.247635	0.454226
O21	O	-0.557186	0.580968	0.787560
Cu22	Cu	-1.089612	-0.101309	0.128012
Cu23	Cu	-0.756279	0.232025	0.461345
Cu24	Cu	-0.422945	0.565358	0.794679
Cu25	Cu	-1.089634	0.101077	0.128002
Cu26	Cu	-0.756300	0.434410	0.461336
Cu27	Cu	-0.422967	0.767744	0.794669
O28	O	-1.082496	-0.085673	0.262250
O29	O	-0.749162	0.247661	0.595583
O30	O	-0.415829	0.580994	0.928916
C31	C	-0.921025	-0.000096	0.134462
C32	C	-0.587691	0.333237	0.467795
C33	C	-0.254358	0.666571	0.801129
C34	C	-0.818643	-0.000084	0.132474
C35	C	-0.485310	0.333249	0.465807
C36	C	-0.151977	0.666582	0.799141
C37	C	-1.096078	-0.000126	-0.040591
C38	C	-0.762744	0.333207	0.292742
C39	C	-0.429411	0.666541	0.626076
C40	C	-1.094090	-0.000126	-0.142972
C41	C	-0.760756	0.333207	0.190361
C42	C	-0.427423	0.666540	0.523694
C43	C	-1.258221	-0.000134	0.121553
C44	C	-0.924888	0.333200	0.454886
C45	C	-0.591554	0.666533	0.788219
C46	C	-1.360602	-0.000139	0.123541
C47	C	-1.027269	0.333195	0.456874
C48	C	-0.693936	0.666528	0.790207
N49	N	-1.089604	-0.243656	0.128018
N50	N	-0.756270	0.089678	0.461352
N51	N	-0.422937	0.423011	0.794685
C52	C	-0.443748	-0.000132	0.125154
C53	C	-0.110414	0.333202	0.458488
C54	C	0.222919	0.666535	0.791821
C55	C	-0.548056	-0.000118	0.127187
C56	C	-0.214722	0.333215	0.460520
C57	C	0.118611	0.666549	0.793854
C58	C	-0.631192	-0.000107	0.128814
C59	C	-0.297859	0.333226	0.462147
C60	C	0.035474	0.666560	0.795481
C61	C	-0.735507	-0.000095	0.130847
C62	C	-0.402173	0.333238	0.464180
C63	C	-0.068840	0.666571	0.797514
C64	C	-1.089608	-0.336762	0.128021
C65	C	-0.756275	-0.003428	0.461354
C66	C	-0.422941	0.329905	0.794687
C67	C	-1.089616	-0.453567	0.128015
C68	C	-0.756283	-0.120234	0.461348
C69	C	-0.422950	0.213100	0.794681
C70	C	-1.089628	-0.546665	0.128004
C71	C	-0.756295	-0.213332	0.461338
C72	C	-0.422961	0.120001	0.794671
C73	C	-1.089638	-0.663478	0.127999
C74	C	-0.756304	-0.330144	0.461332
C75	C	-0.422971	0.003189	0.794666
N76	N	-1.089649	0.243424	0.127989
N77	N	-0.756316	0.576757	0.461322
N78	N	-0.422983	0.910091	0.794656
C79	C	-1.086770	-0.000099	-0.517868
C80	C	-0.753437	0.333234	-0.184535
C81	C	-0.420103	0.666568	0.148799
C82	C	-1.088803	-0.000107	-0.413560
C83	C	-0.755469	0.333226	-0.080227
C84	C	-0.422136	0.666560	0.253107
C85	C	-1.090430	-0.000114	-0.330423
C86	C	-0.757096	0.333220	0.002910
C87	C	-0.423763	0.666553	0.336243
C88	C	-1.092463	-0.000120	-0.226109
C89	C	-0.759129	0.333214	0.107224
C90	C	-0.425796	0.666547	0.440558
C91	C	-1.083168	-0.000103	0.296606
C92	C	-0.749835	0.333230	0.629939
C93	C	-0.416501	0.666563	0.963272
C94	C	-1.085156	-0.000096	0.398987
C95	C	-0.751823	0.333237	0.732320
C96	C	-0.418490	0.666570	1.065653
