data_functionalizedCrystal
_audit_creation_method	'MofGen! by Chris Wilmer'
_symmetry_space_group_name_H-M	'P1'
_symmetry_Int_Tables_number	1
_symmetry_cell_setting	triclinic
loop_
_symmetry_equiv_pos_as_xyz
  x,y,z
_cell_length_a	34.571875
_cell_length_b	34.571051
_cell_length_c	34.567439
_cell_angle_alpha	60.004367
_cell_angle_beta	60.008842
_cell_angle_gamma	59.994195
loop_
_atom_site_label
_atom_site_type_symbol
_atom_site_fract_x
_atom_site_fract_y
_atom_site_fract_z
O1	O	0.053721	-0.565181	0.472559
O2	O	0.020283	-0.440038	0.380761
O3	O	0.099534	-0.519209	0.380676
O4	O	-0.025530	-0.486010	0.472643
O5	O	0.125831	-0.492917	0.406885
O6	O	0.046580	-0.413746	0.406969
O7	O	0.080018	-0.538889	0.498767
Zn8	Zn	0.067475	-0.472143	0.457030
Zn9	Zn	0.032827	-0.506784	0.422498
O10	O	0.000767	-0.459718	0.498852
N11	N	0.091122	-0.448505	0.480598
N12	N	0.009184	-0.530426	0.398930
C13	C	0.124402	-0.415465	0.717633
C14	C	0.328327	-0.415388	0.513477
C15	C	0.124221	-0.415437	0.513630
C16	C	0.124201	-0.211364	0.513624
C17	C	0.157075	-0.309853	0.546423
C18	C	0.157084	-0.382601	0.546423
C19	C	0.175289	-0.364414	0.564591
C20	C	0.254624	-0.350722	0.522790
C21	C	0.304220	-0.367243	0.506229
C22	C	0.304249	-0.447494	0.536832
C23	C	0.254655	-0.430972	0.553394
C24	C	0.169014	-0.285043	0.497667
C25	C	0.152454	-0.235444	0.481153
C26	C	0.112020	-0.235469	0.562154
C27	C	0.128580	-0.285068	0.578668
C28	C	0.108321	-0.370634	0.558439
C29	C	0.091776	-0.387168	0.541918
C30	C	0.172754	-0.427637	0.501375
C31	C	0.189301	-0.411103	0.517891
C32	C	0.108399	-0.370649	0.643978
C33	C	0.091911	-0.387197	0.693575
C34	C	0.172928	-0.427676	0.693511
C35	C	0.189415	-0.411128	0.643912
C36	C	0.157149	-0.382613	0.619147
C37	C	0.229844	-0.382585	0.546371
C38	C	0.105624	-0.433333	0.772186
C39	C	0.382878	-0.432925	0.495007
C40	C	0.105380	-0.433313	0.495792
C41	C	0.105683	-0.156808	0.496094
C42	C	-0.023527	-0.563458	0.161535
C43	C	-0.023851	-0.767445	0.365663
C44	C	-0.023821	-0.563448	0.365756
C45	C	-0.227785	-0.563229	0.365355
C46	C	-0.129302	-0.596153	0.332678
C47	C	-0.056593	-0.596234	0.332823
C48	C	-0.074746	-0.614396	0.314578
C49	C	-0.088477	-0.693710	0.356299
C50	C	-0.071982	-0.743310	0.372851
C51	C	0.008266	-0.743392	0.342376
C52	C	-0.008230	-0.693794	0.325823
C53	C	-0.154162	-0.608103	0.381422
C54	C	-0.203757	-0.591517	0.397874
C55	C	-0.203630	-0.551037	0.316836
C56	C	-0.154034	-0.567623	0.300384
C57	C	-0.068543	-0.547475	0.320829
C58	C	-0.052041	-0.530969	0.337421
C59	C	-0.011639	-0.611977	0.377990
C60	C	-0.028141	-0.628485	0.361404
C61	C	-0.068417	-0.547482	0.235199
C62	C	-0.051814	-0.530977	0.185602
C63	C	-0.011349	-0.611990	0.185649
C64	C	-0.027951	-0.628493	0.235248
C65	C	-0.056486	-0.596238	0.260022
C66	C	-0.056602	-0.668955	0.332787
C67	C	-0.005599	-0.544662	0.106983
C68	C	-0.006342	-0.821999	0.384121
C69	C	-0.005979	-0.544649	0.383673
C70	C	-0.282336	-0.544682	0.382817
N71	N	0.427518	-0.448428	0.480350
O72	O	0.589573	-0.456297	0.363634
O73	O	0.589761	-0.548399	0.488643
O74	O	0.589681	-0.548188	0.409364
O75	O	0.589654	-0.456508	0.442913
O76	O	0.510890	-0.521988	0.435708
O77	O	0.510970	-0.522199	0.514987
O78	O	0.510782	-0.430098	0.389978
Zn79	Zn	0.498366	-0.471989	0.456665
Zn80	Zn	0.602177	-0.506508	0.421956
O81	O	0.510862	-0.430308	0.469257
N82	N	0.673025	-0.530068	0.398267
N83	N	0.091092	-0.112167	0.480590
O84	O	-0.025539	0.049976	0.472612
O85	O	0.099472	0.050011	0.380491
O86	O	0.020155	0.049979	0.380751
O87	O	0.053778	0.050009	0.472352
O88	O	0.046458	-0.028818	0.407008
O89	O	0.125775	-0.028785	0.406748
O90	O	0.000764	-0.028821	0.498869
Zn91	Zn	0.067445	-0.041314	0.456977
Zn92	Zn	0.032791	0.062504	0.422382
O93	O	0.080081	-0.028788	0.498609
N94	N	0.009138	0.133358	0.398771
N95	N	0.091421	-0.448552	0.816827
O96	O	0.083469	-0.565164	0.978960
O97	O	-0.008614	-0.440110	0.979002
O98	O	-0.008399	-0.519410	0.978978
O99	O	0.083253	-0.485863	0.978984
O100	O	0.017837	-0.493128	0.900185
O101	O	0.017621	-0.413827	0.900208
O102	O	0.109704	-0.538881	0.900167
Zn103	Zn	0.067828	-0.472181	0.887677
Zn104	Zn	0.033262	-0.506810	0.991491
O105	O	0.109489	-0.459581	0.900191
N106	N	0.009668	-0.530444	1.062341
C107	C	0.030297	-0.411123	0.381218
C108	C	0.128439	-0.509167	0.381113
C109	C	0.070004	-0.567805	0.498310
C110	C	-0.028138	-0.469761	0.498415
C111	C	0.550388	-0.547982	0.517564
C112	C	0.550290	-0.547721	0.419387
C113	C	0.550153	-0.430514	0.361058
C114	C	0.550253	-0.430775	0.459234
C115	C	0.128339	0.010714	0.380902
C116	C	0.030148	0.010577	0.381256
C117	C	-0.028136	0.010574	0.498426
C118	C	0.070089	0.010613	0.498104
C119	C	-0.008178	-0.411214	0.939610
C120	C	-0.007906	-0.509413	0.939566
C121	C	0.109268	-0.567777	0.939558
C122	C	0.109002	-0.469572	0.939586
H123	H	0.052212	-0.377448	0.713786
O124	O	0.550085	-0.392213	0.313500
H125	H	0.517959	-0.383554	0.306804
O126	O	0.020610	0.010571	0.343133
H127	H	0.052602	0.010583	0.310920
O128	O	-0.075692	0.010571	0.536733
H129	H	-0.098945	0.010566	0.523356
H130	H	0.164166	0.010943	0.351910
O131	O	0.176019	-0.518535	0.342858
H132	H	0.176073	-0.486475	0.310707
H133	H	0.137795	-0.462392	0.939581
H134	H	0.082121	-0.347425	0.623816
H135	H	0.550436	-0.576894	0.553469
H136	H	0.138179	-0.603691	0.939539
O137	O	0.020838	-0.363505	0.343024
H138	H	0.024978	-0.368335	0.311579
O139	O	0.207728	-0.458464	0.720221
H140	H	0.244397	-0.464019	0.694619
H141	H	-0.037087	-0.375298	0.939623
H142	H	0.550247	-0.401977	0.466412
H143	H	0.077290	0.010621	0.526881
O144	O	-0.046031	-0.518896	0.939511
H145	H	-0.032469	-0.555549	0.939483
H146	H	0.229113	-0.420876	0.623698
H147	H	0.550303	-0.576522	0.412207
O148	O	0.079467	-0.615421	0.536505
H149	H	0.053893	-0.632021	0.546586
H150	H	0.052069	-0.377412	0.551692
O151	O	0.073574	-0.339900	0.589219
H152	H	0.036887	-0.334355	0.594795
H153	H	0.198991	-0.450848	0.478149
H154	H	0.229008	-0.420842	0.508101
H155	H	0.234479	-0.456922	0.572596
H156	H	0.324452	-0.486894	0.542541
O157	O	-0.099234	-0.512691	0.290008
H158	H	-0.104777	-0.476013	0.284463
H159	H	0.234427	-0.311322	0.517070
O160	O	0.330952	-0.332878	0.480795
H161	H	0.305366	-0.296455	0.478691
H162	H	0.192214	-0.305222	0.471410
H163	H	0.088825	-0.215289	0.588411
O164	O	0.165334	-0.208681	0.428563
H165	H	0.151984	-0.218202	0.412326
O166	O	0.115680	-0.311823	0.631260
H167	H	0.129024	-0.302310	0.647508
O168	O	-0.064691	-0.478387	0.158832
H169	H	-0.087326	-0.458733	0.184394
H170	H	-0.091654	-0.521212	0.255368
H171	H	0.011877	-0.638258	0.165483
H172	H	-0.018232	-0.668197	0.255455
O173	O	-0.075716	-0.460396	0.536673
H174	H	-0.098923	-0.423753	0.523230
H175	H	-0.061773	-0.491265	0.327657
H176	H	0.011532	-0.638242	0.401256
H177	H	0.017729	-0.673638	0.306677
O178	O	-0.015251	-0.681075	0.374331
H179	H	0.007310	-0.700730	0.396988
H180	H	0.047655	-0.763617	0.336709
O181	O	-0.140651	-0.666924	0.363812
H182	H	-0.146770	-0.628275	0.348357
H183	H	-0.134026	-0.631339	0.407719
O184	O	-0.106360	-0.770014	0.398215
H185	H	-0.142768	-0.744409	0.400281
H186	H	-0.223999	-0.601245	0.437568
H187	H	-0.133793	-0.557888	0.260690
O188	O	-0.230311	-0.520267	0.282008
H189	H	-0.204692	-0.514747	0.245348
