data_functionalizedCrystal
_audit_creation_method	'MofGen! by Chris Wilmer'
_symmetry_space_group_name_H-M	'P1'
_symmetry_Int_Tables_number	1
_symmetry_cell_setting	triclinic
loop_
_symmetry_equiv_pos_as_xyz
  x,y,z
_cell_length_a	13.635800
_cell_length_b	27.923496
_cell_length_c	10.943624
_cell_angle_alpha	84.543120
_cell_angle_beta	108.838799
_cell_angle_gamma	81.036054
loop_
_atom_site_label
_atom_site_type_symbol
_atom_site_fract_x
_atom_site_fract_y
_atom_site_fract_z
V1	V	2.033097	-0.067113	0.403367
O2	O	2.037791	0.003238	0.394849
O3	O	1.997840	-0.133086	0.401416
O4	O	2.022459	-0.066075	0.578921
O5	O	2.013001	-0.064237	0.216115
V6	V	2.274586	-0.058699	0.380872
O7	O	2.164323	-0.085570	0.452712
O8	O	2.368459	-0.040242	0.331528
O9	O	2.198240	0.007274	0.382823
O10	O	2.328590	-0.129049	0.389391
O11	O	2.353380	-0.061574	0.568124
O12	O	2.173620	-0.059737	0.205318
V13	V	2.533097	-0.067113	0.403367
O14	O	2.537791	0.003238	0.394849
O15	O	2.497840	-0.133086	0.401416
O16	O	2.522459	-0.066075	0.578921
O17	O	2.513001	-0.064237	0.216115
V18	V	2.774586	-0.058699	0.380872
O19	O	2.664323	-0.085570	0.452712
O20	O	2.868459	-0.040242	0.331528
O21	O	2.698240	0.007274	0.382823
O22	O	2.828590	-0.129049	0.389391
O23	O	2.853380	-0.061574	0.568124
O24	O	2.673620	-0.059737	0.205318
C25	C	1.917212	-0.149169	0.395261
C26	C	1.929119	-0.203103	0.394836
C27	C	2.094241	-0.540030	0.398814
C28	C	2.139061	-0.742739	0.397277
O29	O	2.222382	-0.771055	0.402639
N30	N	2.053519	-0.765614	0.390607
C31	C	1.956768	-0.737809	0.384329
O32	O	1.885041	-0.761918	0.378634
C33	C	1.911951	-0.535102	0.385875
C34	C	1.997496	-0.512229	0.392533
C35	C	2.179779	-0.517157	0.405472
C36	C	2.168572	-0.466482	0.405849
C37	C	2.071827	-0.438681	0.399568
C38	C	1.986289	-0.461554	0.392910
C39	C	1.815203	-0.507298	0.379607
C40	C	1.804007	-0.456619	0.379997
C41	C	1.889552	-0.433746	0.386655
C42	C	1.878337	-0.383078	0.387005
N43	N	1.963879	-0.360203	0.393675
C44	C	2.060624	-0.388004	0.399957
C45	C	1.980303	-0.844234	0.383516
C46	C	1.991506	-0.894910	0.383127
C47	C	2.173800	-0.899837	0.396077
C48	C	2.162593	-0.849159	0.396457
C49	C	2.065844	-0.821359	0.390186
C50	C	2.037081	-0.281584	0.400747
C51	C	2.025864	-0.230904	0.401118
C52	C	1.843573	-0.225982	0.388174
C53	C	1.854787	-0.276657	0.387796
C54	C	1.951550	-0.304457	0.394087
O55	O	1.795053	-0.354733	0.381661
O56	O	2.132344	-0.363888	0.405680
C57	C	2.105448	-0.590705	0.398437
C58	C	2.019910	-0.613578	0.391779
C59	C	1.923165	-0.585777	0.385497
C60	C	2.031113	-0.664255	0.391390
C61	C	2.127858	-0.692056	0.397671
C62	C	2.213400	-0.669181	0.404341
C63	C	2.202193	-0.618506	0.404718
C64	C	1.837623	-0.608652	0.378827
C65	C	1.848837	-0.659327	0.378449
C66	C	1.945582	-0.687128	0.384731
C67	C	1.948616	-0.063689	0.621685
C68	C	1.980487	-0.063277	0.765206
C69	C	2.110538	0.023355	0.388975
C70	C	2.088251	0.077288	0.389408
C71	C	2.079134	-0.062124	0.162548
C72	C	2.036883	-0.062534	0.019025
C73	C	2.417212	-0.149169	0.395261
C74	C	2.429119	-0.203103	0.394836
C75	C	2.448616	-0.063689	0.621685
C76	C	2.480487	-0.063277	0.765206
C77	C	1.903922	-0.060501	0.842320
C78	C	1.983467	-0.101703	0.948811
C79	C	1.957742	-0.021345	0.914447
C80	C	2.059624	-0.104517	0.869821
C81	C	2.033872	-0.024123	0.835433
C82	C	2.113482	-0.065337	0.941895
C83	C	2.610538	0.023355	0.388975
C84	C	2.588251	0.077288	0.389408
C85	C	2.579134	-0.062124	0.162548
C86	C	2.536883	-0.062534	0.019025
C87	C	2.525864	-0.230904	0.401118
C88	C	2.537071	-0.281582	0.400738
C89	C	2.451529	-0.304457	0.394068
C90	C	2.354777	-0.276652	0.387790
C91	C	2.343574	-0.225976	0.388179
C92	C	2.664000	0.105089	0.383130
C93	C	2.643066	0.155767	0.383516
C94	C	2.546384	0.178642	0.390189
C95	C	2.470629	0.150837	0.396463
C96	C	2.491561	0.100161	0.396068
C97	C	2.403922	-0.060501	0.842320
C98	C	2.483467	-0.101703	0.948811
C99	C	2.457742	-0.021345	0.914447
C100	C	2.559624	-0.104517	0.869821
C101	C	2.533872	-0.024123	0.835433
C102	C	2.613482	-0.065337	0.941895
H103	H	2.095528	-0.212283	0.406534
H104	H	2.529353	0.219906	0.390509
Br105	Br	2.448508	-0.156369	1.031062
Br106	Br	2.641976	-0.199872	0.410181
H107	H	2.202384	-0.067391	0.985164
Br108	Br	1.886464	0.037243	0.948271
Br109	Br	2.466752	-0.373234	0.393541
Br110	Br	2.238693	-0.307704	0.378734
H111	H	2.102390	-0.139707	0.849704
H112	H	1.815052	-0.058511	0.798847
Br113	Br	2.305099	-0.937577	0.404606
Br114	Br	2.386464	0.037243	0.948271
Br115	Br	2.388744	0.062437	0.404590
Br116	Br	2.212263	-0.188250	0.379645
Br117	Br	1.948508	-0.156369	1.031062
H118	H	1.921841	-0.913528	0.377689
H119	H	2.615857	-0.304214	0.405847
H120	H	2.742729	0.086471	0.377698
Br121	Br	2.168401	-0.319304	0.409286
H122	H	2.054808	0.008677	0.786051
Br123	Br	2.630910	-0.163169	0.836303
H124	H	2.704762	0.178399	0.378408
Br125	Br	2.339419	0.181890	0.405508
Br126	Br	2.761657	-0.068757	1.014015
Br127	Br	2.255801	-0.057182	0.769854
Br128	Br	2.284673	-0.435447	0.414865
Br129	Br	2.568767	0.030545	0.753119
Br130	Br	1.738689	-0.307700	0.378756
Br131	Br	2.311091	-0.554879	0.413999
H132	H	1.745538	-0.525912	0.374176
H133	H	1.901515	-0.821603	0.378407
Br134	Br	1.712276	-0.188241	0.379630
Br135	Br	1.672700	-0.418893	0.371495
H136	H	2.271854	-0.599888	0.410139
Br137	Br	1.706315	-0.570929	0.370301
Br138	Br	1.732722	-0.690361	0.369395
Br139	Br	2.344695	-0.706921	0.412855
H140	H	2.232252	-0.830539	0.401875
