data_functionalizedCrystal
_audit_creation_method	'MofGen! by Chris Wilmer'
_symmetry_space_group_name_H-M	'P1'
_symmetry_Int_Tables_number	1
_symmetry_cell_setting	triclinic
loop_
_symmetry_equiv_pos_as_xyz
  x,y,z
_cell_length_a	13.897449
_cell_length_b	21.295417
_cell_length_c	13.897441
_cell_angle_alpha	89.965596
_cell_angle_beta	89.981404
_cell_angle_gamma	90.030982
loop_
_atom_site_label
_atom_site_type_symbol
_atom_site_fract_x
_atom_site_fract_y
_atom_site_fract_z
Zn1	Zn	1.474602	-0.250574	-0.545349
Zn2	Zn	1.974602	0.249426	-0.045349
Zn3	Zn	1.474468	-0.355851	-0.384037
Zn4	Zn	1.974468	0.144149	0.115963
Zn5	Zn	1.313297	-0.250602	-0.384068
Zn6	Zn	1.813297	0.249398	0.115932
Zn7	Zn	1.313239	-0.355811	-0.545290
Zn8	Zn	1.813239	0.144189	-0.045290
O9	O	1.393901	-0.303209	-0.464686
O10	O	1.893901	0.196791	0.035314
O11	O	1.609566	-0.264544	-0.523963
O12	O	2.109566	0.235456	-0.023963
O13	O	1.453057	-0.341918	-0.249059
O14	O	1.953057	0.158082	0.250941
O15	O	1.334775	-0.162509	-0.405499
O16	O	1.834775	0.337491	0.094501
O17	O	1.609467	-0.341890	-0.405448
O18	O	2.109467	0.158110	0.094552
O19	O	1.453285	-0.162488	-0.523992
O20	O	1.953285	0.337512	-0.023992
O21	O	1.334645	-0.264592	-0.249082
O22	O	1.834645	0.235408	0.250918
O23	O	1.178308	-0.264553	-0.405442
O24	O	1.678308	0.235447	0.094558
O25	O	1.334676	-0.341823	-0.680279
O26	O	1.834676	0.158177	-0.180279
O27	O	1.178265	-0.341850	-0.523891
O28	O	1.678265	0.158150	-0.023891
O29	O	1.453228	-0.264505	-0.680323
O30	O	1.953228	0.235495	-0.180323
O31	O	1.453000	-0.443935	-0.405390
O32	O	1.953000	0.056065	0.094610
O33	O	1.334546	-0.443906	-0.523862
O34	O	1.834546	0.056094	-0.023862
C35	C	1.143287	-0.303201	-0.464664
C36	C	1.643287	0.196799	0.035336
C37	C	1.036073	-0.303213	-0.464677
C38	C	1.536073	0.196787	0.035323
C39	C	1.393778	-0.466761	-0.464637
C40	C	1.893778	0.033239	0.035363
C41	C	1.393814	-0.536729	-0.464648
C42	C	1.893814	-0.036729	0.035352
C43	C	0.839778	-0.303215	-0.464703
C44	C	1.339778	0.196785	0.035297
C45	C	0.949010	-0.303212	-0.464686
C46	C	1.449010	0.196788	0.035314
C47	C	1.455487	-0.569528	-0.526392
C48	C	1.955487	-0.069528	-0.026392
C49	C	1.455521	-0.635270	-0.526416
C50	C	1.955521	-0.135270	-0.026416
C51	C	1.393892	-0.668212	-0.464679
C52	C	1.893892	-0.168212	0.035321
C53	C	1.332207	-0.635405	-0.402931
C54	C	1.832207	-0.135405	0.097069
C55	C	1.332168	-0.569664	-0.402916
C56	C	1.832168	-0.069664	0.097084
N57	N	1.386606	-0.771477	-0.380261
N58	N	1.886606	-0.271477	0.119739
N59	N	1.386649	-0.833929	-0.380279
N60	N	1.886649	-0.333929	0.119721
C61	C	1.394005	-0.866286	-0.464722
C62	C	1.894005	-0.366286	0.035278
N63	N	1.401335	-0.833833	-0.549150
N64	N	1.901335	-0.333833	-0.049150
N65	N	1.401297	-0.771376	-0.549132
N66	N	1.901297	-0.271376	-0.049132
C67	C	1.393927	-0.739497	-0.464689
C68	C	1.893927	-0.239497	0.035311
C69	C	1.455718	-0.970371	-0.526497
C70	C	1.955718	-0.470371	-0.026497
C71	C	1.455745	-1.036114	-0.526522
C72	C	1.955745	-0.536114	-0.026522
C73	C	1.332437	-1.036248	-0.403029
C74	C	1.832437	-0.536248	0.096971
C75	C	1.332405	-0.970505	-0.403012
C76	C	1.832405	-0.470505	0.096988
C77	C	1.394050	-0.937571	-0.464745
C78	C	1.894050	-0.437571	0.035255
C79	C	1.645494	-0.303218	-0.464708
C80	C	2.145494	0.196782	0.035292
C81	C	1.752708	-0.303222	-0.464718
C82	C	2.252708	0.196778	0.035282
C83	C	1.393960	-0.303157	-0.716279
C84	C	1.893960	0.196843	-0.216279
C85	C	1.393986	-0.303134	-0.823493
C86	C	1.893986	0.196866	-0.323493
C87	C	1.394051	-0.139019	-0.464756
C88	C	1.894051	0.360981	0.035244
C89	C	1.394115	-0.069051	-0.464786
C90	C	1.894115	0.430949	0.035214
C91	C	1.394005	-0.303116	-0.910563
C92	C	1.894005	0.196884	-0.410563
C93	C	1.394033	-0.303088	-1.019795
C94	C	1.894033	0.196912	-0.519795
C95	C	1.393898	-0.303217	-0.214072
C96	C	1.893898	0.196783	0.285928
C97	C	1.394060	-0.303062	-0.106858
C98	C	1.894060	0.196938	0.393142
H99	H	1.505680	-0.542714	-0.576660
H100	H	2.005680	-0.042714	-0.076660
Br101	Br	1.539437	-1.080628	-0.610340
Br102	Br	2.039437	-0.580628	-0.110340
Br103	Br	1.539230	-0.679793	-0.610211
Br104	Br	2.039230	-0.179793	-0.110211
H105	H	1.282252	-1.063068	-0.352768
H106	H	1.782252	-0.563068	0.147232
H107	H	1.282027	-0.662230	-0.352667
H108	H	1.782027	-0.162230	0.147333
Br109	Br	1.248460	-0.525148	-0.319118
Br110	Br	1.748460	-0.025148	0.180882
Br111	Br	1.539375	-0.925670	-0.610276
Br112	Br	2.039375	-0.425670	-0.110276
Br113	Br	1.248698	-0.925989	-0.319215
Br114	Br	1.748698	-0.425989	0.180785
