data_functionalizedCrystal
_audit_creation_method	'MofGen! by Chris Wilmer'
_symmetry_space_group_name_H-M	'P1'
_symmetry_Int_Tables_number	1
_symmetry_cell_setting	triclinic
loop_
_symmetry_equiv_pos_as_xyz
  x,y,z
_cell_length_a	14.044191
_cell_length_b	14.044220
_cell_length_c	11.295483
_cell_angle_alpha	94.468632
_cell_angle_beta	85.522629
_cell_angle_gamma	93.190327
loop_
_atom_site_label
_atom_site_type_symbol
_atom_site_fract_x
_atom_site_fract_y
_atom_site_fract_z
O1	O	1.283056	0.224317	-0.098972
O2	O	1.783056	0.724317	0.401028
O3	O	1.006385	0.216004	-0.098987
O4	O	1.506385	0.716004	0.401013
O5	O	1.140567	0.081826	-0.098968
O6	O	1.640567	0.581826	0.401032
O7	O	1.148874	0.358496	-0.098991
O8	O	1.648874	0.858496	0.401009
O9	O	1.128780	0.093591	0.099081
O10	O	1.628780	0.593591	0.599081
O11	O	0.994598	0.227769	0.099062
O12	O	1.494598	0.727769	0.599062
O13	O	1.271269	0.236083	0.099077
O14	O	1.771269	0.736083	0.599077
Cu15	Cu	1.131857	0.233000	0.117153
Cu16	Cu	1.631857	0.733000	0.617153
Cu17	Cu	1.145797	0.219086	-0.117063
Cu18	Cu	1.645797	0.719086	0.382937
O19	O	1.137087	0.370261	0.099058
O20	O	1.637087	0.870261	0.599058
C21	C	0.964869	0.218250	0.000036
C22	C	1.464869	0.718250	0.500036
C23	C	0.858727	0.207402	0.000030
C24	C	1.358727	0.707402	0.500030
C25	C	0.613268	0.264503	0.000037
C26	C	1.113268	0.764503	0.500037
C27	C	0.664393	0.187587	0.000042
C28	C	1.164393	0.687587	0.500042
C29	C	0.772530	0.198615	0.000035
C30	C	1.272530	0.698615	0.500035
C31	C	0.505121	0.253477	0.000044
C32	C	1.005121	0.753477	0.500044
C33	C	1.131038	0.052086	0.000057
C34	C	1.631038	0.552086	0.500057
C35	C	1.120193	-0.054057	0.000058
C36	C	1.620193	0.445943	0.500058
C37	C	1.100368	-0.248396	0.000039
C38	C	1.600368	0.251604	0.500039
C39	C	1.177283	-0.299524	0.000040
C40	C	1.677283	0.200476	0.500040
C41	C	1.166252	-0.407661	0.000030
C42	C	1.666252	0.092339	0.500030
C43	C	1.111398	-0.140249	0.000050
C44	C	1.611398	0.359751	0.500050
C45	C	1.312785	0.233837	0.000051
C46	C	1.812785	0.733837	0.500051
C47	C	1.418928	0.244684	0.000049
C48	C	1.918928	0.744684	0.500049
C49	C	1.146616	0.400000	0.000030
C50	C	1.646616	0.900000	0.500030
C51	C	1.157462	0.506143	0.000022
C52	C	1.657462	1.006143	0.500022
N53	N	1.122060	0.242787	0.281888
N54	N	1.622060	0.742787	0.781888
N55	N	1.155601	0.209293	-0.281798
N56	N	1.655601	0.709293	0.218202
C57	C	1.226125	0.138793	0.531192
C58	C	1.726125	0.638793	1.031192
C59	C	1.218728	0.146196	0.655855
C60	C	1.718728	0.646196	1.155855
C61	C	1.099865	0.264990	0.655878
C62	C	1.599865	0.764990	1.155878
C63	C	1.107262	0.257587	0.531215
C64	C	1.607262	0.757587	1.031215
C65	C	1.170395	0.194487	0.468877
C66	C	1.670395	0.694487	0.968877
C67	C	1.177796	0.187090	0.344212
C68	C	1.677796	0.687090	0.844212
C69	C	1.058928	0.305879	0.344237
C70	C	1.558928	0.805879	0.844237
C71	C	1.051532	0.313282	0.468900
C72	C	1.551532	0.813282	0.968900
H73	H	0.626954	0.113450	-0.000036
H74	H	1.126954	0.613450	0.499964
O75	O	0.662855	0.362697	0.000014
O76	O	1.162855	0.862697	0.500014
H77	H	0.741240	0.356056	-0.000001
H78	H	1.241240	0.856056	0.499999
O79	O	1.275479	-0.249928	0.000057
O80	O	1.775479	0.250072	0.500057
H81	H	1.319611	-0.275713	-0.080667
H82	H	1.819611	0.224287	0.419333
H83	H	1.026241	-0.285835	0.000033
H84	H	1.526241	0.214165	0.500033
H85	H	1.229205	0.135714	0.293457
H86	H	1.729205	0.635714	0.793457
H87	H	1.048457	0.316357	0.706650
H88	H	1.548457	0.816357	1.206650
O89	O	0.983446	0.381343	0.536137
O90	O	1.483446	0.881343	1.036137
H91	H	0.987670	0.377141	0.633293
H92	H	1.487670	0.877141	1.133293
H93	H	1.277537	0.087422	0.480435
H94	H	1.777537	0.587422	0.980435
O95	O	1.278847	0.086138	0.723072
O96	O	1.778847	0.586138	1.223072
H97	H	1.323995	0.041028	0.658776
H98	H	1.823995	0.541028	1.158776
H99	H	1.013552	0.351232	0.293486
H100	H	1.513552	0.851232	0.793486
