data_functionalizedCrystal
_audit_creation_method	'MofGen! by Chris Wilmer'
_symmetry_space_group_name_H-M	'P1'
_symmetry_Int_Tables_number	1
_symmetry_cell_setting	triclinic
loop_
_symmetry_equiv_pos_as_xyz
  x,y,z
_cell_length_a	11.792241
_cell_length_b	19.288865
_cell_length_c	18.366186
_cell_angle_alpha	89.988521
_cell_angle_beta	89.995167
_cell_angle_gamma	83.664832
loop_
_atom_site_label
_atom_site_type_symbol
_atom_site_fract_x
_atom_site_fract_y
_atom_site_fract_z
O1	O	1.505472	0.095201	-0.060488
O2	O	2.005472	0.595201	0.439512
O3	O	1.174982	0.105012	-0.060506
O4	O	1.674982	0.605012	0.439494
O5	O	1.349777	-0.000970	-0.060482
O6	O	1.849777	0.499030	0.439518
O7	O	1.330678	0.201182	-0.060512
O8	O	1.830678	0.701182	0.439488
O9	O	1.349747	-0.000975	0.060617
O10	O	1.849747	0.499025	0.560617
O11	O	1.174953	0.105007	0.060593
O12	O	1.674953	0.605007	0.560593
O13	O	1.505442	0.095195	0.060611
O14	O	2.005442	0.595195	0.560611
Zn15	Zn	1.340193	0.100100	0.079829
Zn16	Zn	1.840193	0.600100	0.579829
Zn17	Zn	1.340232	0.100107	-0.079724
Zn18	Zn	1.840232	0.600107	0.420276
O19	O	1.330648	0.201177	0.060587
O20	O	1.830648	0.701177	0.560587
C21	C	1.349147	-0.026852	0.000070
C22	C	1.849147	0.473148	0.500070
C23	C	1.347303	-0.103966	0.000076
C24	C	1.847303	0.396034	0.500076
C25	C	1.132686	0.104393	0.000042
C26	C	1.632686	0.604393	0.500042
C27	C	1.006700	0.102548	0.000035
C28	C	1.506700	0.602548	0.500035
C29	C	1.449864	-0.148080	0.000085
C30	C	1.949864	0.351920	0.500085
C31	C	1.448131	-0.220537	0.000074
C32	C	1.948131	0.279463	0.500074
C33	C	1.343830	-0.248877	0.000067
C34	C	1.843830	0.251123	0.500067
C35	C	1.241255	-0.204754	0.000054
C36	C	1.741255	0.295246	0.500054
C37	C	1.242992	-0.132298	0.000058
C38	C	1.742992	0.367702	0.500058
C39	C	1.261828	-0.357632	0.042481
C40	C	1.761828	0.142368	0.542481
C41	C	1.260096	-0.430086	0.042482
C42	C	1.760096	0.069914	0.542482
C43	C	1.338472	-0.472353	0.000051
C44	C	1.838472	0.027647	0.500051
C45	C	1.418598	-0.442158	-0.042371
C46	C	1.918598	0.057842	0.457629
C47	C	1.420334	-0.369703	-0.042366
C48	C	1.920334	0.130297	0.457634
C49	C	1.341936	-0.327442	0.000062
C50	C	1.841936	0.172558	0.500062
C51	C	1.439161	-0.595033	0.000046
C52	C	1.939161	-0.095033	0.500046
C53	C	1.437423	-0.667491	0.000030
C54	C	1.937423	-0.167491	0.500030
C55	C	1.230545	-0.651706	0.000018
C56	C	1.730545	-0.151706	0.500018
C57	C	1.232285	-0.579250	0.000027
C58	C	1.732285	-0.079250	0.500027
C59	C	1.336596	-0.550918	0.000044
C60	C	1.836596	-0.050918	0.500044
C61	C	0.776039	0.099156	0.000057
C62	C	1.276039	0.599156	0.500057
C63	C	0.904396	0.101041	0.000045
C64	C	1.404396	0.601041	0.500045
C65	C	1.547739	0.095814	0.000062
C66	C	2.047739	0.595814	0.500062
C67	C	1.673725	0.097659	0.000063
C68	C	2.173725	0.597659	0.500063
C69	C	1.331277	0.227060	0.000034
C70	C	1.831277	0.727060	0.500034
C71	C	1.333122	0.304174	0.000023
C72	C	1.833122	0.804174	0.500023
N73	N	1.340174	0.100095	0.188721
N74	N	1.840174	0.600095	0.688721
N75	N	1.340259	0.100107	-0.188615
N76	N	1.840259	0.600107	0.311385
C77	C	1.417599	0.053190	0.226832
C78	C	1.917599	0.553190	0.726832
C79	C	1.417606	0.053186	0.303059
C80	C	1.917606	0.553186	0.803059
C81	C	1.340200	0.100101	0.341173
C82	C	1.840200	0.600101	0.841173
C83	C	1.262761	0.147010	0.303053
C84	C	1.762761	0.647010	0.803053
C85	C	1.262748	0.147007	0.226827
C86	C	1.762748	0.647007	0.726827
C87	C	1.325007	0.163302	0.461924
C88	C	1.825007	0.663302	0.961924
C89	C	1.325027	0.163306	0.538149
C90	C	1.825027	0.663306	1.038149
C91	C	1.340232	0.100110	0.576281
C92	C	1.840232	0.600110	1.076281
C93	C	1.355440	0.036907	0.538179
C94	C	1.855440	0.536907	1.038179
C95	C	1.355428	0.036904	0.461952
C96	C	1.855428	0.536904	0.961952
C97	C	1.340204	0.100109	0.423828
C98	C	1.840204	0.600109	0.923828
C99	C	1.417668	0.053197	0.697047
C100	C	1.917668	0.553197	1.197047
C101	C	1.417667	0.053193	0.773276
C102	C	1.917667	0.553193	1.273276
C103	C	1.262828	0.147022	0.773268
C104	C	1.762828	0.647022	1.273268
C105	C	1.262823	0.147020	0.697041
C106	C	1.762823	0.647020	1.197041
C107	C	1.340249	0.100108	0.658934
C108	C	1.840249	0.600108	1.158934
H109	H	1.534802	-0.125017	0.000097
H110	H	2.034802	0.374983	0.500097
H111	H	1.367821	-0.014554	0.569224
H112	H	1.867821	0.485446	1.069224
C113	C	1.502793	0.001592	0.344990
C114	C	2.002793	0.501592	0.844990
N115	N	1.566961	-0.037267	0.376570
N116	N	2.066961	0.462733	0.876570
H117	H	1.199699	0.185203	0.195796
H118	H	1.699699	0.685203	0.695796
C119	C	1.550256	-0.716017	0.000044
C120	C	2.050256	-0.216017	0.500044
N121	N	1.635243	-0.752568	0.000058
N122	N	2.135243	-0.252568	0.500058
H123	H	1.199782	0.185218	0.666008
H124	H	1.699782	0.685218	1.166008
C125	C	1.502827	0.001587	0.655127
C126	C	2.002827	0.501587	1.155127
N127	N	1.566968	-0.037287	0.623556
N128	N	2.066968	0.462713	1.123556
C129	C	1.502826	0.001579	0.815198
C130	C	2.002826	0.501579	1.315198
N131	N	1.566964	-0.037301	0.846774
N132	N	2.066964	0.462699	1.346774
H133	H	1.367808	-0.014558	0.430932
H134	H	1.867808	0.485442	0.930932
H135	H	1.194847	-0.454665	0.077020
H136	H	1.694847	0.045335	0.577020
H137	H	1.531651	-0.256461	0.000078
H138	H	2.031651	0.243539	0.500078
H139	H	1.480641	0.014990	0.195808
H140	H	1.980641	0.514990	0.695808
H141	H	1.482419	-0.476570	-0.076922
H142	H	1.982419	0.023430	0.423078
C143	C	1.508464	-0.336490	-0.089035
C144	C	2.008464	0.163510	0.410965
N145	N	1.574840	-0.311474	-0.124189
N146	N	2.074840	0.188526	0.375811
H147	H	1.199798	0.185218	0.804300
H148	H	1.699798	0.685218	1.304300
H149	H	1.312651	0.214770	0.569166
H150	H	1.812651	0.714770	1.069166
H151	H	1.312605	0.214768	0.430883
H152	H	1.812605	0.714768	0.930883
H153	H	1.199734	0.185207	0.334089
H154	H	1.699734	0.685207	0.834089
H155	H	1.148769	-0.543331	0.000024
H156	H	1.648769	-0.043331	0.500024
H157	H	1.198002	-0.323224	0.077038
H158	H	1.698002	0.176776	0.577038
H159	H	1.524097	-0.571964	0.000057
H160	H	2.024097	-0.071964	0.500057
H161	H	1.145622	-0.674780	0.000010
H162	H	1.645622	-0.174780	0.500010
C163	C	1.126525	-0.235929	0.000053
C164	C	1.626525	0.264071	0.500053
N165	N	1.040106	-0.259410	0.000051
N166	N	1.540106	0.240590	0.500051
H167	H	1.159471	-0.096380	0.000051
H168	H	1.659471	0.403620	0.500051
