data_functionalizedCrystal
_audit_creation_method	'MofGen! by Chris Wilmer'
_symmetry_space_group_name_H-M	'P1'
_symmetry_Int_Tables_number	1
_symmetry_cell_setting	triclinic
loop_
_symmetry_equiv_pos_as_xyz
  x,y,z
_cell_length_a	6.394989
_cell_length_b	10.654550
_cell_length_c	9.130313
_cell_angle_alpha	90.000276
_cell_angle_beta	90.001550
_cell_angle_gamma	85.491321
loop_
_atom_site_label
_atom_site_type_symbol
_atom_site_fract_x
_atom_site_fract_y
_atom_site_fract_z
O1	O	-0.293442	-1.670947	-0.121679
O2	O	-0.321399	-1.305765	-0.121705
O3	O	-0.003431	-1.493540	-0.121693
O4	O	-0.611409	-1.483173	-0.121692
O5	O	-0.003422	-1.493526	0.121906
O6	O	-0.321389	-1.305752	0.121893
O7	O	-0.293432	-1.670934	0.121919
Cu8	Cu	-0.307410	-1.488342	0.144149
Cu9	Cu	-0.307421	-1.488357	-0.143935
O10	O	-0.611400	-1.483159	0.121907
C11	C	-0.319341	-1.258939	0.000091
C12	C	-0.313200	-1.119430	0.000080
C13	C	-0.295490	-1.717760	0.000120
C14	C	-0.301631	-1.857269	0.000121
N15	N	-0.307401	-1.488340	0.346772
C16	C	0.074425	-1.491483	0.000101
C17	C	0.310750	-1.485219	0.000099
N18	N	-0.307414	-1.488369	-0.346558
C19	C	-0.500414	-1.041927	0.000085
C20	C	-0.494631	-0.910845	0.000110
C21	C	-0.114403	-0.934782	0.000121
C22	C	-0.120188	-1.065861	0.000106
C23	C	-0.166665	-1.571516	0.423429
C24	C	-0.166665	-1.571528	0.576766
C25	C	-0.448157	-1.405184	0.576774
C26	C	-0.448145	-1.405167	0.423440
H27	H	-0.657577	-1.085539	0.000075
O28	O	-0.585068	-1.324321	0.349193
C29	C	-0.709271	-1.250900	0.449739
H30	H	-0.712450	-1.302444	0.559034
H31	H	-0.639983	-1.156524	0.466066
C32	C	-0.930340	-1.165252	0.255637
C33	C	-0.934259	-1.228564	0.389871
H34	H	-1.069122	-1.151468	0.218707
H35	H	-0.846658	-1.214713	0.187896
H36	H	-0.872591	-1.086612	0.269261
H37	H	-0.991983	-1.307208	0.376242
H38	H	-1.017957	-1.179115	0.457609
O39	O	-0.029881	-1.652448	0.651003
C40	C	0.094374	-1.725825	0.550446
H41	H	0.008694	-1.728583	0.441141
H42	H	0.250215	-1.682594	0.534149
C43	C	0.240563	-1.857266	0.744521
C44	C	0.135320	-1.860662	0.610274
H45	H	0.265831	-1.940438	0.781427
H46	H	0.156857	-1.807828	0.812269
H47	H	0.370419	-1.821234	0.730922
H48	H	0.005457	-1.896679	0.623878
H49	H	0.219007	-1.910109	0.542529
O50	O	0.061741	-1.141103	-0.000161
C51	C	0.178839	-1.116327	-0.126298
H52	H	0.069199	-1.073282	-0.214479
H53	H	0.300743	-1.047709	-0.097765
C54	C	0.424845	-1.292971	-0.075207
C55	C	0.290181	-1.240112	-0.183516
H56	H	0.493535	-1.369324	-0.110500
H57	H	0.345960	-1.309660	0.009777
H58	H	0.526413	-1.235777	-0.051439
H59	H	0.188601	-1.297299	-0.207270
H60	H	0.369052	-1.223434	-0.268506
H61	H	-0.647080	-0.847747	0.000117
H62	H	0.042741	-0.891149	0.000150
H63	H	-0.052060	-1.639239	0.361009
H64	H	-0.562750	-1.337468	0.639213
