data_functionalizedCrystal
_audit_creation_method	'MofGen! by Chris Wilmer'
_symmetry_space_group_name_H-M	'P1'
_symmetry_Int_Tables_number	1
_symmetry_cell_setting	triclinic
loop_
_symmetry_equiv_pos_as_xyz
  x,y,z
_cell_length_a	11.026607
_cell_length_b	14.044220
_cell_length_c	9.482900
_cell_angle_alpha	100.188801
_cell_angle_beta	78.636152
_cell_angle_gamma	100.887447
loop_
_atom_site_label
_atom_site_type_symbol
_atom_site_fract_x
_atom_site_fract_y
_atom_site_fract_z
O1	O	1.671574	0.392560	-0.120918
O2	O	2.171574	0.892560	0.379082
O3	O	1.313283	0.346512	-0.120917
O4	O	1.813283	0.846512	0.379083
O5	O	1.487049	0.230635	-0.120903
O6	O	1.987049	0.730635	0.379097
O7	O	1.497809	0.508437	-0.120932
O8	O	1.997809	1.008437	0.379068
O9	O	1.451766	0.254293	0.120886
O10	O	1.951766	0.754293	0.620886
O11	O	1.278001	0.370170	0.120872
O12	O	1.778001	0.870170	0.620872
O13	O	1.636292	0.416218	0.120871
O14	O	2.136292	0.916218	0.620871
Cu15	Cu	1.453925	0.395354	0.142949
Cu16	Cu	1.953925	0.895354	0.642949
Cu17	Cu	1.495650	0.367376	-0.142995
Cu18	Cu	1.995650	0.867376	0.357005
O19	O	1.462526	0.532095	0.120857
O20	O	1.962526	1.032095	0.620857
C21	C	1.249512	0.349846	-0.000022
C22	C	1.749512	0.849846	0.499978
C23	C	1.112056	0.324521	-0.000022
C24	C	1.612056	0.824521	0.499978
C25	C	1.045821	0.394445	-0.000030
C26	C	1.545821	0.894445	0.499970
C27	C	0.903753	0.368273	-0.000029
C28	C	1.403753	0.868273	0.499971
C29	C	1.464699	0.206346	-0.000008
C30	C	1.964699	0.706346	0.499992
C31	C	1.450655	0.098724	-0.000006
C32	C	1.950655	0.598724	0.499994
C33	C	1.424983	-0.098320	-0.000027
C34	C	1.924983	0.401680	0.499973
C35	C	1.524588	-0.138958	-0.000032
C36	C	2.024588	0.361042	0.499968
C37	C	1.510304	-0.248600	-0.000043
C38	C	2.010304	0.251400	0.499957
C39	C	1.439266	0.011332	-0.000015
C40	C	1.939266	0.511332	0.499985
C41	C	1.700064	0.412884	-0.000027
C42	C	2.200064	0.912884	0.499973
C43	C	1.837521	0.438207	-0.000037
C44	C	2.337521	0.938207	0.499963
C45	C	1.484876	0.556383	-0.000041
C46	C	1.984876	1.056383	0.499959
C47	C	1.498922	0.664004	-0.000053
C48	C	1.998922	1.164004	0.499947
N49	N	1.424586	0.415033	0.344067
N50	N	1.924586	0.915033	0.844067
N51	N	1.524998	0.347690	-0.344113
N52	N	2.024998	0.847690	0.155887
C53	C	1.486988	0.373174	0.416271
C54	C	1.986988	0.873174	0.916271
C55	C	1.462587	0.389556	0.583687
C56	C	1.962587	0.889556	1.083687
H57	H	0.855294	0.289024	-0.000058
H58	H	1.355294	0.789024	0.499942
H59	H	0.885983	0.517453	-0.000036
H60	H	1.385983	1.017453	0.499964
H61	H	1.328988	-0.145870	-0.000030
H62	H	1.828988	0.354130	0.499970
H63	H	1.063591	0.245278	-0.000051
H64	H	1.563591	0.745278	0.499949
O65	O	1.103537	0.489020	0.000219
O66	O	1.603537	0.989020	0.500219
C67	C	1.050595	0.547500	0.125418
C68	C	1.550595	1.047500	0.625418
H69	H	1.005282	0.499539	0.212949
H70	H	1.505282	0.999539	0.712949
H71	H	1.127100	0.605956	0.167448
H72	H	1.627100	1.105956	0.667448
H73	H	0.976594	0.584295	0.097099
H74	H	1.476594	1.084295	0.597099
O75	O	1.639021	-0.082087	0.000047
O76	O	2.139021	0.417913	0.500047
C77	C	1.628001	0.016308	0.000023
C78	C	2.128001	0.516308	0.500023
H79	H	1.527352	0.027849	0.045789
H80	H	2.027352	0.527849	0.545789
H81	H	1.693834	0.066606	0.070234
H82	H	2.193834	0.566606	0.570234
H83	H	1.653906	0.034036	-0.115971
H84	H	2.153906	0.534036	0.384029
H85	H	1.558472	0.325203	0.354149
H86	H	2.058472	0.825203	0.854149
H87	H	1.391089	0.437521	0.645805
H88	H	1.891089	0.937521	1.145805
H89	H	1.596487	0.299716	0.593768
H90	H	2.096487	0.799716	1.093768
H91	H	1.353092	0.462995	0.406191
H92	H	1.853092	0.962995	0.906191
