data_functionalizedCrystal
_audit_creation_method	'MofGen! by Chris Wilmer'
_symmetry_space_group_name_H-M	'P1'
_symmetry_Int_Tables_number	1
_symmetry_cell_setting	triclinic
loop_
_symmetry_equiv_pos_as_xyz
  x,y,z
_cell_length_a	19.288864
_cell_length_b	18.366186
_cell_length_c	19.288865
_cell_angle_alpha	90.011479
_cell_angle_beta	83.136245
_cell_angle_gamma	90.022894
loop_
_atom_site_label
_atom_site_type_symbol
_atom_site_fract_x
_atom_site_fract_y
_atom_site_fract_z
O1	O	-0.921353	-0.060791	-0.086649
O2	O	-0.588019	0.272542	0.246685
O3	O	-0.254686	0.605875	0.580018
O4	O	-0.719092	-0.060743	-0.098337
O5	O	-0.385759	0.272591	0.234996
O6	O	-0.052425	0.605924	0.568329
O7	O	-0.826067	-0.060754	0.008637
O8	O	-0.492733	0.272579	0.341971
O9	O	-0.159400	0.605913	0.675304
O10	O	-0.814378	-0.060780	-0.193623
O11	O	-0.481045	0.272553	0.139710
O12	O	-0.147711	0.605887	0.473043
O13	O	-0.826049	0.060345	0.008643
O14	O	-0.492715	0.393679	0.341976
O15	O	-0.159382	0.727012	0.675309
O16	O	-0.719074	0.060357	-0.098332
O17	O	-0.385741	0.393690	0.235001
O18	O	-0.052407	0.727023	0.568335
O19	O	-0.921335	0.060308	-0.086643
O20	O	-0.588001	0.393641	0.246690
O21	O	-0.254668	0.726975	0.580023
Zn22	Zn	-0.820201	0.079559	-0.092487
Zn23	Zn	-0.486868	0.412893	0.240846
Zn24	Zn	-0.153535	0.746226	0.574180
Zn25	Zn	-0.820225	-0.079994	-0.092494
Zn26	Zn	-0.486892	0.253339	0.240839
Zn27	Zn	-0.153559	0.586672	0.574173
O28	O	-0.814360	0.060319	-0.193618
O29	O	-0.481027	0.393653	0.139715
O30	O	-0.147693	0.726986	0.473049
C31	C	-0.693207	-0.000187	-0.097959
C32	C	-0.359873	0.333147	0.235375
C33	C	-0.026540	0.666480	0.568708
C34	C	-0.616103	-0.000167	-0.096830
C35	C	-0.282770	0.333166	0.236504
C36	C	0.050564	0.666499	0.569837
C37	C	-0.825682	-0.000202	0.034516
C38	C	-0.492348	0.333131	0.367850
C39	C	-0.159015	0.666465	0.701183
C40	C	-0.824553	-0.000195	0.111620
C41	C	-0.491219	0.333138	0.444953
C42	C	-0.157886	0.666471	0.778287
N43	N	-0.820190	0.188451	-0.092482
N44	N	-0.486857	0.521784	0.240852
N45	N	-0.153524	0.855117	0.574185
C46	C	-0.947220	-0.000250	-0.087022
C47	C	-0.613887	0.333084	0.246311
C48	C	-0.280553	0.666417	0.579645
C49	C	-1.024324	-0.000274	-0.088151
C50	C	-0.690990	0.333060	0.245182
C51	C	-0.357657	0.666393	0.578516
C52	C	-0.571407	-0.000187	-0.159598
C53	C	-0.238073	0.333146	0.173736
C54	C	0.095260	0.666480	0.507069
C55	C	-0.498960	-0.000195	-0.158537
C56	C	-0.165626	0.333138	0.174796
C57	C	0.167707	0.666472	0.508130
C58	C	-0.471212	-0.000198	-0.094705
C59	C	-0.137879	0.333135	0.238629
C60	C	0.195455	0.666469	0.571962
C61	C	-0.515918	-0.000174	-0.031929
C62	C	-0.182585	0.333159	0.301405
C63	C	0.150748	0.666492	0.634738
C64	C	-0.588364	-0.000159	-0.032991
C65	C	-0.255030	0.333174	0.300342
C66	C	0.078303	0.666508	0.633676
C67	C	-0.362956	-0.042642	-0.044527
C68	C	-0.029623	0.290691	0.288806
C69	C	0.303710	0.624024	0.622139
C70	C	-0.290512	-0.042662	-0.043468
C71	C	0.042821	0.290671	0.289866
C72	C	0.376155	0.624005	0.623199
C73	C	-0.247767	-0.000241	-0.091425
C74	C	0.085567	0.333092	0.241908
C75	C	0.418900	0.666425	0.575242
C76	C	-0.277473	0.042189	-0.140454
C77	C	0.055860	0.375523	0.192879
C78	C	0.389194	0.708856	0.526212
C79	C	-0.349918	0.042205	-0.141517
C80	C	-0.016585	0.375538	0.191817
C81	C	0.316748	0.708871	0.525150
C82	C	-0.392658	-0.000214	-0.093546
C83	C	-0.059325	0.333119	0.239788
C84	C	0.274009	0.666453	0.573121
C85	C	-0.124514	-0.000269	-0.153047
C86	C	0.208819	0.333065	0.180286
C87	C	0.542152	0.666398	0.513619
C88	C	-0.052066	-0.000272	-0.151984
C89	C	0.281267	0.333061	0.181349
C90	C	0.614600	0.666395	0.514683
C91	C	-0.069026	-0.000259	-0.025374
C92	C	0.264307	0.333075	0.307960
C93	C	0.597640	0.666408	0.641293
C94	C	-0.141473	-0.000248	-0.026439
C95	C	0.191860	0.333085	0.306894
C96	C	0.525194	0.666419	0.640228
C97	C	-0.169212	-0.000256	-0.090278
C98	C	0.164121	0.333077	0.243056
C99	C	0.497454	0.666410	0.576389
N100	N	-0.820242	-0.188885	-0.092493
N101	N	-0.486909	0.144448	0.240840
N102	N	-0.153575	0.477781	0.574173
C103	C	-0.867574	0.226546	-0.045137
C104	C	-0.534241	0.559879	0.288197
C105	C	-0.200907	0.893213	0.621530
C106	C	-0.867578	0.302774	-0.045134
C107	C	-0.534245	0.636107	0.288200
C108	C	-0.200912	0.969440	0.621533
C109	C	-0.820206	0.340903	-0.092488
C110	C	-0.486872	0.674237	0.240846
C111	C	-0.153539	1.007570	0.574179
C112	C	-0.772813	0.302799	-0.139836
C113	C	-0.439480	0.636132	0.193497
C114	C	-0.106146	0.969465	0.526830
C115	C	-0.772805	0.226572	-0.139834
C116	C	-0.439472	0.559906	0.193500
C117	C	-0.106139	0.893239	0.526833
C118	C	-0.810907	0.461657	-0.155775
C119	C	-0.477574	0.794990	0.177558
C120	C	-0.144241	1.128324	0.510891
C121	C	-0.810920	0.537882	-0.155779
C122	C	-0.477587	0.871215	0.177554
C123	C	-0.144253	1.204548	0.510888
C124	C	-0.820225	0.576011	-0.092496
C125	C	-0.486892	0.909344	0.240837
C126	C	-0.153559	1.242677	0.574170
C127	C	-0.829533	0.537905	-0.029207
C128	C	-0.496200	0.871239	0.304127
C129	C	-0.162866	1.204572	0.637460
C130	C	-0.829525	0.461679	-0.029204
C131	C	-0.496192	0.795012	0.304129
C132	C	-0.162859	1.128346	0.637463
C133	C	-0.820208	0.423558	-0.092496
C134	C	-0.486875	0.756891	0.240838
C135	C	-0.153542	1.090225	0.574171
C136	C	-0.867617	0.696761	-0.045144
C137	C	-0.534283	1.030094	0.288190
C138	C	-0.200950	1.363428	0.621523
C139	C	-0.867616	0.772990	-0.045140
C140	C	-0.534283	1.106324	0.288194
C141	C	-0.200949	1.439657	0.621527
C142	C	-0.772854	0.773014	-0.139849
C143	C	-0.439521	1.106347	0.193485
C144	C	-0.106187	1.439681	0.526818
C145	C	-0.772851	0.696786	-0.139847
C146	C	-0.439518	1.030119	0.193487
C147	C	-0.106184	1.363453	0.526820
C148	C	-0.820236	0.658664	-0.092495
C149	C	-0.486903	0.991998	0.240838
C150	C	-0.153569	1.325331	0.574172
C151	C	-0.814745	-0.000234	-0.219497
C152	C	-0.481412	0.333099	0.113836
C153	C	-0.148078	0.666432	0.447169
C154	C	-0.815874	-0.000246	-0.296601
C155	C	-0.482541	0.333088	0.036733
C156	C	-0.149207	0.666421	0.370066
C157	C	-0.887321	-0.000207	0.156316
C158	C	-0.553987	0.333126	0.489650
C159	C	-0.220654	0.666460	0.822983
C160	C	-0.886260	-0.000218	0.228763
C161	C	-0.552927	0.333115	0.562097
C162	C	-0.219593	0.666448	0.895430
C163	C	-0.822428	-0.000203	0.256511
C164	C	-0.489094	0.333130	0.589844
C165	C	-0.155761	0.666463	0.923178
C166	C	-0.759652	-0.000196	0.211805
C167	C	-0.426318	0.333137	0.545138
C168	C	-0.092985	0.666471	0.878471
C169	C	-0.760714	-0.000192	0.139359
C170	C	-0.427381	0.333141	0.472693
C171	C	-0.094047	0.666475	0.806026
C172	C	-0.772242	0.042227	0.364800
C173	C	-0.438908	0.375561	0.698133
C174	C	-0.105575	0.708894	1.031467
C175	C	-0.771182	0.042228	0.437245
C176	C	-0.437849	0.375561	0.770578
C177	C	-0.104515	0.708894	1.103911
C178	C	-0.819148	-0.000219	0.479956
C179	C	-0.485815	0.333114	0.813290
C180	C	-0.152481	0.666448	1.146623
C181	C	-0.868186	-0.042657	0.450216
C182	C	-0.534852	0.290677	0.783550
C183	C	-0.201519	0.624010	1.116883
C184	C	-0.869248	-0.042653	0.377771
C185	C	-0.535915	0.290681	0.711104
C186	C	-0.202582	0.624014	1.044438
C187	C	-0.821269	-0.000208	0.335065
C188	C	-0.487935	0.333125	0.668398
C189	C	-0.154602	0.666459	1.001732
C190	C	-0.880770	-0.000244	0.603209
C191	C	-0.547437	0.333090	0.936542
C192	C	-0.214104	0.666423	1.269875
C193	C	-0.879707	-0.000259	0.675657
C194	C	-0.546374	0.333074	1.008990
C195	C	-0.213040	0.666407	1.342323
C196	C	-0.753097	-0.000230	0.658697
C197	C	-0.419763	0.333104	0.992030
C198	C	-0.086430	0.666437	1.325363
C199	C	-0.754162	-0.000221	0.586250
C200	C	-0.420829	0.333112	0.919583
C201	C	-0.087495	0.666445	1.252917
C202	C	-0.818001	-0.000225	0.558511
C203	C	-0.484667	0.333109	0.891844
C204	C	-0.151334	0.666442	1.225177
H205	H	-0.593987	-0.000195	-0.211580
H206	H	-0.260654	0.333138	0.121753
H207	H	0.072680	0.666471	0.455087
H208	H	-0.734240	0.333848	-0.178392
H209	H	-0.400907	0.667181	0.154942
H210	H	-0.067573	1.000514	0.488275
H211	H	-0.462561	-0.000209	-0.209652
H212	H	-0.129228	0.333125	0.123682
H213	H	0.204106	0.666458	0.457015
H214	H	-0.906165	0.333797	-0.006578
H215	H	-0.572832	0.667130	0.326755
H216	H	-0.239499	1.000463	0.660089
O217	O	-0.381951	0.087997	-0.194377
O218	O	-0.048618	0.421330	0.138956
O219	O	0.284716	0.754663	0.472290
H220	H	-0.360868	0.070547	-0.247858
H221	H	-0.027534	0.403880	0.085475
H222	H	0.305799	0.737213	0.418808
H223	H	-0.803318	0.430619	-0.207311
H224	H	-0.469984	0.763952	0.126022
H225	H	-0.136651	1.097285	0.459355
O226	O	-0.839551	0.420576	0.039051
O227	O	-0.506218	0.753910	0.372385
O228	O	-0.172884	1.087243	0.705718
H229	H	-0.846017	0.459890	0.083059
H230	H	-0.512684	0.793223	0.416392
H231	H	-0.179351	1.126556	0.749726
H232	H	-0.734219	0.195554	-0.178388
H233	H	-0.400885	0.528888	0.154945
H234	H	-0.067552	0.862221	0.488278
O235	O	-0.953964	-0.000224	0.276981
O236	O	-0.620631	0.333110	0.610315
O237	O	-0.287297	0.666443	0.943648
H238	H	-0.956487	0.049133	0.310403
H239	H	-0.623153	0.382466	0.643736
H240	H	-0.289820	0.715800	0.977069
O241	O	-0.189685	-0.000230	0.041263
O242	O	0.143649	0.333104	0.374597
O243	O	0.476982	0.666437	0.707930
H244	H	-0.223130	-0.049576	0.043805
H245	H	0.110203	0.283757	0.377139
H246	H	0.443537	0.617090	0.710472
O247	O	-0.918702	0.655625	0.005936
O248	O	-0.585368	0.988959	0.339269
O249	O	-0.252035	1.322292	0.672603
H250	H	-0.972825	0.670219	-0.002760
H251	H	-0.639492	1.003552	0.330574
H252	H	-0.306159	1.336885	0.663907
H253	H	-0.906200	0.804008	-0.006582
H254	H	-0.572866	1.137342	0.326751
H255	H	-0.239533	1.470675	0.660085
H256	H	-0.939303	-0.000212	0.133736
H257	H	-0.605970	0.333121	0.467069
H258	H	-0.272636	0.666454	0.800403
H259	H	-0.932751	-0.000250	0.580622
H260	H	-0.599418	0.333083	0.913956
H261	H	-0.266085	0.666417	1.247289
O262	O	-0.947409	-0.000266	0.723871
O263	O	-0.614076	0.333067	1.057205
O264	O	-0.280743	0.666401	1.390538
H265	H	-0.991975	-0.000258	0.692408
H266	H	-0.658642	0.333075	1.025741
H267	H	-0.325309	0.666408	1.359074
O268	O	-0.721749	0.655687	-0.190915
O269	O	-0.388416	0.989020	0.142418
O270	O	-0.055083	1.322353	0.475752
H271	H	-0.730431	0.670291	-0.245042
H272	H	-0.397098	1.003624	0.088291
H273	H	-0.063765	1.336958	0.421624
H274	H	-0.909175	-0.077208	0.353560
H275	H	-0.575842	0.256125	0.686893
H276	H	-0.242508	0.589458	1.020226
H277	H	-0.701123	-0.000221	0.681288
H278	H	-0.367790	0.333112	1.014621
H279	H	-0.034457	0.666445	1.347954
H280	H	-0.266331	-0.077215	-0.003548
H281	H	0.067003	0.256119	0.329785
H282	H	0.400336	0.589452	0.663119
O283	O	-0.800896	0.578980	-0.224037
O284	O	-0.467562	0.912314	0.109297
O285	O	-0.134229	1.245647	0.442630
H286	H	-0.794414	0.539663	-0.268041
H287	H	-0.461081	0.872996	0.065293
H288	H	-0.127748	1.206329	0.398626
H289	H	-0.707679	-0.000185	0.234401
H290	H	-0.374346	0.333148	0.567735
H291	H	-0.041012	0.666481	0.901068
H292	H	-0.907244	-0.077221	0.484991
H293	H	-0.573911	0.256112	0.818325
H294	H	-0.240578	0.589446	1.151658
H295	H	-0.906156	0.195509	-0.006579
H296	H	-0.572823	0.528843	0.326755
H297	H	-0.239489	0.862176	0.660088
H298	H	-0.731250	0.076779	0.461452
H299	H	-0.397916	0.410112	0.794786
H300	H	-0.064583	0.743446	1.128119
O301	O	-0.686462	-0.000191	0.538034
O302	O	-0.353129	0.333143	0.871368
O303	O	-0.019796	0.666476	1.204701
H304	H	-0.641896	-0.000174	0.569498
H305	H	-0.308563	0.333160	0.902831
H306	H	0.024771	0.666493	1.236164
H307	H	-0.242671	0.076733	-0.179506
H308	H	0.090663	0.410066	0.153828
H309	H	0.423996	0.743399	0.487161
H310	H	-0.733180	0.076796	0.330029
H311	H	-0.399847	0.410130	0.663362
H312	H	-0.066514	0.743463	0.996696
O313	O	-0.721758	0.814127	-0.190928
O314	O	-0.388424	1.147460	0.142406
O315	O	-0.055091	1.480793	0.475739
H316	H	-0.729725	0.873533	-0.182979
H317	H	-0.396392	1.206866	0.150354
H318	H	-0.063059	1.540199	0.483687
H319	H	-0.709599	-0.000182	0.102967
H320	H	-0.376266	0.333151	0.436300
H321	H	-0.042933	0.666484	0.769633
H322	H	-0.493322	-0.000187	0.020044
H323	H	-0.159988	0.333147	0.353377
H324	H	0.173345	0.666480	0.686711
O325	O	-0.154442	-0.000263	-0.221897
O326	O	0.178891	0.333070	0.111437
O327	O	0.512224	0.666404	0.444770
H328	H	-0.111187	-0.000264	-0.265367
H329	H	0.222146	0.333070	0.067967
H330	H	0.555479	0.666403	0.401300
H331	H	-0.046435	-0.000306	0.026600
H332	H	0.286898	0.333027	0.359933
H333	H	0.620231	0.666360	0.693266
O334	O	-0.003852	-0.000290	-0.219686
O335	O	0.329482	0.333043	0.113647
O336	O	0.662815	0.666376	0.446980
H337	H	-0.035315	-0.000300	-0.264252
H338	H	0.298018	0.333034	0.069081
H339	H	0.631351	0.666367	0.402414
O340	O	-0.839565	0.579016	0.039057
O341	O	-0.506231	0.912350	0.372390
O342	O	-0.172898	1.245683	0.705724
H343	H	-0.837997	0.638423	0.028426
H344	H	-0.504663	0.971756	0.361759
H345	H	-0.171330	1.305089	0.695093
O346	O	-0.409059	-0.088403	0.007198
O347	O	-0.075726	0.244931	0.340531
O348	O	0.257607	0.578264	0.673864
H349	H	-0.376233	-0.117919	0.041459
H350	H	-0.042899	0.215414	0.374792
H351	H	0.290434	0.548747	0.708126
O352	O	-0.636579	-0.000141	0.034711
O353	O	-0.303246	0.333192	0.368044
O354	O	0.030087	0.666525	0.701377
H355	H	-0.605117	-0.000147	0.079278
H356	H	-0.271784	0.333187	0.412611
H357	H	0.061549	0.666520	0.745944
