data_functionalizedCrystal
_audit_creation_method	'MofGen! by Chris Wilmer'
_symmetry_space_group_name_H-M	'P1'
_symmetry_Int_Tables_number	1
_symmetry_cell_setting	triclinic
loop_
_symmetry_equiv_pos_as_xyz
  x,y,z
_cell_length_a	19.288864
_cell_length_b	10.654545
_cell_length_c	18.366186
_cell_angle_alpha	89.996152
_cell_angle_beta	89.977106
_cell_angle_gamma	83.810837
loop_
_atom_site_label
_atom_site_type_symbol
_atom_site_fract_x
_atom_site_fract_y
_atom_site_fract_z
O1	O	0.922379	0.156657	-0.060780
O2	O	0.720257	0.177789	-0.060729
O3	O	0.825965	-0.015616	-0.060755
O4	O	0.816671	0.350062	-0.060754
O5	O	0.825946	-0.015625	0.060344
O6	O	0.720239	0.177780	0.060370
O7	O	0.922361	0.156647	0.060320
Zn8	Zn	0.821297	0.167212	0.079572
Zn9	Zn	0.821321	0.167224	-0.079982
O10	O	0.816653	0.350052	0.060345
C11	C	0.694367	0.177105	-0.000173
C12	C	0.617250	0.175063	-0.000154
C13	C	0.825273	-0.062404	-0.000207
C14	C	0.823231	-0.201803	-0.000211
C15	C	0.573297	0.288545	-0.000165
C16	C	0.500837	0.286627	-0.000173
C17	C	0.472334	0.171222	-0.000185
C18	C	0.516296	0.057725	-0.000170
C19	C	0.588754	0.059646	-0.000155
C20	C	0.363484	0.080503	-0.042636
C21	C	0.291027	0.078587	-0.042656
C22	C	0.248849	0.165292	-0.000229
C23	C	0.279136	0.253935	0.042208
C24	C	0.351594	0.255855	0.042224
C25	C	0.393766	0.169126	-0.000201
C26	C	0.126327	0.276702	-0.000248
C27	C	0.053866	0.274779	-0.000251
C28	C	0.069327	0.045875	-0.000255
C29	C	0.141786	0.047800	-0.000244
C30	C	0.170281	0.163217	-0.000244
C31	C	0.823259	-0.201802	-0.132237
C32	C	0.822316	-0.267290	-0.198249
C33	C	0.820398	-0.398268	-0.198250
C34	C	0.819420	-0.463760	-0.132230
C35	C	0.820362	-0.398271	-0.066218
C36	C	0.822283	-0.267291	-0.066225
C37	C	0.820329	-0.398272	0.065807
C38	C	0.822253	-0.267295	0.065809
C39	C	0.819351	-0.463763	0.131826
C40	C	0.820299	-0.398276	0.197840
C41	C	0.822218	-0.267290	0.197838
C42	C	0.823196	-0.201806	0.131821
C43	C	0.948251	0.157332	-0.000238
C44	C	1.025368	0.159373	-0.000262
C45	C	0.817345	0.396840	-0.000205
C46	C	0.819387	0.536240	-0.000206
N47	N	0.821285	0.167203	0.188463
N48	N	0.821337	0.167224	-0.188873
C49	C	0.868109	0.081605	0.226552
C50	C	0.868113	0.081599	0.302780
C51	C	0.821301	0.167213	0.340916
C52	C	0.774469	0.252817	0.302818
C53	C	0.774461	0.252812	0.226591
C54	C	0.812752	0.281634	0.461678
C55	C	0.812765	0.281641	0.537903
C56	C	0.821321	0.167229	0.576023
C57	C	0.829879	0.052804	0.537909
C58	C	0.829871	0.052799	0.461683
C59	C	0.821304	0.167228	0.423571
C60	C	0.868151	0.081618	0.696767
C61	C	0.868151	0.081610	0.772996
C62	C	0.774510	0.252840	0.773033
C63	C	0.774507	0.252836	0.696805
C64	C	0.821331	0.167226	0.658677
H65	H	0.596493	0.382526	-0.000167
O66	O	0.485554	-0.066746	-0.000183
H67	H	0.503133	-0.121251	0.049183
H68	H	0.906278	0.011900	0.804009
O69	O	0.918626	-0.010715	0.343872
H70	H	0.909321	-0.108581	0.329255
O71	O	0.453422	0.409034	-0.000182
H72	H	0.398250	0.388305	-0.000187
H73	H	0.376251	0.328027	0.076780
H74	H	0.046120	-0.048091	-0.000310
O75	O	0.724019	0.345188	0.814152
H76	H	0.731892	0.330818	0.873557
O77	O	0.157067	0.401181	-0.000239
H78	H	0.189688	0.407517	0.049122
H79	H	0.819498	-0.451608	0.251588
H80	H	0.624542	-0.032767	-0.000146
H81	H	0.805773	0.374809	0.430647
H82	H	0.805801	0.374812	0.568929
O83	O	0.233658	0.347457	0.087979
H84	H	0.178186	0.331223	0.080849
O85	O	0.723950	0.345134	0.185508
H86	H	0.731806	0.330740	0.126097
O87	O	0.825349	-0.060558	0.131773
H88	H	0.778634	-0.014484	0.103267
O89	O	0.817346	-0.605028	-0.132216
H90	H	0.864088	-0.651010	-0.103717
H91	H	0.736382	0.322543	0.665791
O92	O	0.006453	0.397182	-0.000261
H93	H	0.038445	0.477755	-0.000264
H94	H	0.177574	-0.044609	-0.000239
O95	O	0.723981	0.345168	0.343943
H96	H	0.731858	0.330803	0.403348
H97	H	0.397820	0.009895	-0.077190
O98	O	0.258361	-0.017026	-0.088416
H99	H	0.299863	-0.077017	-0.117900
H100	H	0.824829	-0.095155	-0.132243
H101	H	0.823112	-0.213952	-0.252001
O102	O	0.817291	-0.605034	0.131811
H103	H	0.769520	-0.628137	0.160304
H104	H	0.819624	-0.451587	-0.252003
O105	O	0.823242	-0.196663	0.269040
H106	H	0.775613	-0.210349	0.300705
O107	O	0.918602	-0.010747	0.185431
H108	H	0.972823	0.004999	0.200035
O109	O	0.839037	-0.070537	0.420504
H110	H	0.889966	-0.123147	0.435041
O111	O	0.839102	-0.070613	0.579011
H112	H	0.837660	-0.051393	0.638419
O113	O	0.918642	-0.010727	0.655634
H114	H	0.951194	-0.070268	0.694930
