data_functionalizedCrystal
_audit_creation_method	'MofGen! by Chris Wilmer'
_symmetry_space_group_name_H-M	'P1'
_symmetry_Int_Tables_number	1
_symmetry_cell_setting	triclinic
loop_
_symmetry_equiv_pos_as_xyz
  x,y,z
_cell_length_a	21.295417
_cell_length_b	18.215407
_cell_length_c	18.215399
_cell_angle_alpha	89.983176
_cell_angle_beta	89.965438
_cell_angle_gamma	90.030955
loop_
_atom_site_label
_atom_site_type_symbol
_atom_site_fract_x
_atom_site_fract_y
_atom_site_fract_z
Zn1	Zn	-0.250593	1.125021	-0.416094
Zn2	Zn	0.082740	1.458355	-0.082761
Zn3	Zn	0.416073	1.791688	0.250572
Zn4	Zn	-0.355869	1.124924	-0.293019
Zn5	Zn	-0.022535	1.458257	0.040314
Zn6	Zn	0.310798	1.791591	0.373648
Zn7	Zn	-0.250618	1.001960	-0.293042
Zn8	Zn	0.082715	1.335294	0.040292
Zn9	Zn	0.416048	1.668627	0.373625
Zn10	Zn	-0.355829	1.001908	-0.416044
Zn11	Zn	-0.022496	1.335241	-0.082711
Zn12	Zn	0.310837	1.668574	0.250623
O13	O	-0.303227	1.063453	-0.354550
O14	O	0.030106	1.396787	-0.021216
O15	O	0.363439	1.730120	0.312117
O16	O	-0.264564	1.227993	-0.399780
O17	O	0.068769	1.561326	-0.066446
O18	O	0.402102	1.894659	0.266887
O19	O	-0.341934	1.108594	-0.190038
O20	O	-0.008601	1.441927	0.143296
O21	O	0.324733	1.775261	0.476629
O22	O	-0.162525	1.018347	-0.309396
O23	O	0.170808	1.351681	0.023938
O24	O	0.504141	1.685014	0.357271
O25	O	-0.341910	1.227921	-0.309357
O26	O	-0.008576	1.561255	0.023976
O27	O	0.324757	1.894588	0.357310
O28	O	-0.162507	1.108760	-0.399802
O29	O	0.170826	1.442093	-0.066468
O30	O	0.504160	1.775426	0.266865
O31	O	-0.264607	1.018253	-0.190054
O32	O	0.068726	1.351586	0.143279
O33	O	0.402060	1.684920	0.476612
O34	O	-0.264569	0.898969	-0.309347
O35	O	0.068765	1.232302	0.023987
O36	O	0.402098	1.565636	0.357320
O37	O	-0.341843	1.018258	-0.519035
O38	O	-0.008509	1.351591	-0.185702
O39	O	0.324824	1.684924	0.147632
O40	O	-0.341867	0.898930	-0.399716
O41	O	-0.008533	1.232264	-0.066383
O42	O	0.324800	1.565597	0.266951
O43	O	-0.264526	1.108709	-0.519072
O44	O	0.068807	1.442042	-0.185739
O45	O	0.402141	1.775375	0.147595
O46	O	-0.443953	1.108543	-0.309308
O47	O	-0.110620	1.441876	0.024025
O48	O	0.222714	1.775210	0.357359
O49	O	-0.443924	1.018163	-0.399694
O50	O	-0.110591	1.351497	-0.066361
O51	O	0.222743	1.684830	0.266973
C52	C	-0.303217	0.872247	-0.354529
C53	C	0.030117	1.205580	-0.021195
C54	C	0.363450	1.538914	0.312138
C55	C	-0.303227	0.790448	-0.354537
C56	C	0.030106	1.123782	-0.021204
C57	C	0.363440	1.457115	0.312130
C58	C	-0.466779	1.063357	-0.354509
C59	C	-0.133446	1.396690	-0.021176
C60	C	0.199888	1.730024	0.312158
C61	C	-0.536747	1.063383	-0.354516
C62	C	-0.203414	1.396716	-0.021183
C63	C	0.129920	1.730050	0.312150
C64	C	-0.343540	0.602253	-0.401533
C65	C	-0.010206	0.935587	-0.068200
C66	C	0.323127	1.268920	0.265133
C67	C	-0.343542	0.525395	-0.401542
C68	C	-0.010208	0.858728	-0.068209
C69	C	0.323125	1.192061	0.265124
C70	C	-0.262927	0.525405	-0.307582
C71	C	0.070407	0.858739	0.025751
C72	C	0.403740	1.192072	0.359084
C73	C	-0.262922	0.602263	-0.307577
C74	C	0.070411	0.935596	0.025756
C75	C	0.403745	1.268929	0.359089
C76	C	-0.303232	0.640685	-0.354552
C77	C	0.030101	0.974018	-0.021218
C78	C	0.363435	1.307351	0.312115
C79	C	-0.303239	0.486969	-0.354566
C80	C	0.030095	0.820302	-0.021233
C81	C	0.363428	1.153635	0.312101
C82	C	-0.303240	0.403635	-0.354575
C83	C	0.030093	0.736968	-0.021242
C84	C	0.363426	1.070302	0.312091
C85	C	-0.303229	0.724024	-0.354543
C86	C	0.030104	1.057357	-0.021210
C87	C	0.363437	1.390690	0.312123
C88	C	-0.569608	1.110485	-0.307500
C89	C	-0.236275	1.443819	0.025833
C90	C	0.097059	1.777152	0.359166
C91	C	-0.635350	1.110520	-0.307517
C92	C	-0.302017	1.443853	0.025816
C93	C	0.031316	1.777187	0.359150
C94	C	-0.668230	1.063439	-0.354542
C95	C	-0.334896	1.396772	-0.021208
C96	C	-0.001563	1.730106	0.312125
C97	C	-0.635361	1.016333	-0.401566
C98	C	-0.302027	1.349666	-0.068233
C99	C	0.031306	1.683000	0.265100
C100	C	-0.569620	1.016305	-0.401554
C101	C	-0.236286	1.349638	-0.068220
C102	C	0.097047	1.682972	0.265113
N103	N	-0.771496	0.999060	-0.360145
N104	N	-0.438162	1.332393	-0.026811
N105	N	-0.104829	1.665727	0.306522
N106	N	-0.833947	0.999088	-0.360153
N107	N	-0.500614	1.332422	-0.026819
N108	N	-0.167280	1.665755	0.306514
C109	C	-0.866304	1.063521	-0.354584
C110	C	-0.532971	1.396855	-0.021250
C111	C	-0.199638	1.730188	0.312083
N112	N	-0.833851	1.127926	-0.348993
N113	N	-0.500518	1.461259	-0.015659
N114	N	-0.167184	1.794592	0.317674
N115	N	-0.771394	1.127896	-0.348981
N116	N	-0.438060	1.461230	-0.015648
N117	N	-0.104727	1.794563	0.317686
C118	C	-0.739515	1.063464	-0.354561
C119	C	-0.406182	1.396798	-0.021228
C120	C	-0.072848	1.730131	0.312106
C121	C	-0.970451	1.110665	-0.307584
C122	C	-0.637117	1.443998	0.025750
C123	C	-0.303784	1.777332	0.359083
C124	C	-1.036194	1.110701	-0.307605
C125	C	-0.702861	1.444034	0.025728
C126	C	-0.369528	1.777368	0.359061
C127	C	-1.036203	1.016507	-0.401651
C128	C	-0.702870	1.349841	-0.068317
C129	C	-0.369537	1.683174	0.265016
C130	C	-0.970461	1.016478	-0.401633
C131	C	-0.637128	1.349812	-0.068300
C132	C	-0.303794	1.683145	0.265034
C133	C	-0.937589	1.063556	-0.354595
C134	C	-0.604255	1.396889	-0.021262
C135	C	-0.270922	1.730223	0.312071
C136	C	-0.139037	1.063570	-0.354607
C137	C	0.194296	1.396904	-0.021273
C138	C	0.527630	1.730237	0.312060
C139	C	-0.069069	1.063620	-0.354631
C140	C	0.264264	1.396953	-0.021298
C141	C	0.597598	1.730287	0.312036
C142	C	-0.303177	1.063488	-0.546503
C143	C	0.030156	1.396822	-0.213169
C144	C	0.363490	1.730155	0.120164
C145	C	-0.303156	1.063503	-0.628302
C146	C	0.030178	1.396836	-0.294968
C147	C	0.363511	1.730170	0.038365
C148	C	-0.303239	1.255406	-0.354571
C149	C	0.030095	1.588740	-0.021238
C150	C	0.363428	1.922073	0.312095
C151	C	-0.303243	1.337205	-0.354581
C152	C	0.030090	1.670539	-0.021247
C153	C	0.363423	2.003872	0.312086
C154	C	-0.262864	1.016502	-0.816505
C155	C	0.070469	1.349836	-0.483172
C156	C	0.403802	1.683169	-0.149839
C157	C	-0.262852	1.016515	-0.893364
C158	C	0.070482	1.349848	-0.560031
C159	C	0.403815	1.683182	-0.226697
C160	C	-0.343372	1.110592	-0.893336
C161	C	-0.010039	1.443925	-0.560003
C162	C	0.323295	1.777258	-0.226669
C163	C	-0.343387	1.110575	-0.816479
C164	C	-0.010054	1.443908	-0.483145
C165	C	0.323279	1.777241	-0.149812
C166	C	-0.303130	1.063531	-0.778065
C167	C	0.030203	1.396864	-0.444732
C168	C	0.363537	1.730198	-0.111399
C169	C	-0.303102	1.063561	-0.931781
C170	C	0.030231	1.396894	-0.598448
C171	C	0.363565	1.730228	-0.265115
C172	C	-0.303088	1.063575	-1.015115
C173	C	0.030245	1.396908	-0.681782
C174	C	0.363578	1.730242	-0.348449
C175	C	-0.303144	1.063516	-0.694726
C176	C	0.030189	1.396849	-0.361393
C177	C	0.363523	1.730182	-0.028060
C178	C	-0.303232	1.063461	-0.163344
C179	C	0.030101	1.396794	0.169990
C180	C	0.363435	1.730128	0.503323
C181	C	-0.303076	1.063589	-0.081545
C182	C	0.030257	1.396922	0.251788
C183	C	0.363591	1.730256	0.585122
H184	H	-0.376361	0.633534	-0.439785
H185	H	-0.043028	0.966868	-0.106451
H186	H	0.290306	1.300201	0.226882
C187	C	-0.423230	0.533109	-0.494408
C188	C	-0.089897	0.866443	-0.161075
C189	C	0.243436	1.199776	0.172258
C190	C	-0.387852	0.483151	-0.453183
C191	C	-0.054519	0.816484	-0.119850
C192	C	0.278815	1.149818	0.213484
H193	H	-0.450589	0.507028	-0.526287
H194	H	-0.117255	0.840362	-0.192954
H195	H	0.216078	1.173695	0.140379
H196	H	-0.395833	0.563111	-0.522614
H197	H	-0.062499	0.896444	-0.189281
H198	H	0.270834	1.229778	0.144053
H199	H	-0.447272	0.563062	-0.462281
H200	H	-0.113938	0.896395	-0.128947
H201	H	0.219395	1.229728	0.204386
H202	H	-0.363807	0.453202	-0.485311
H203	H	-0.030474	0.786535	-0.151977
H204	H	0.302860	1.119869	0.181356
H205	H	-0.415253	0.453137	-0.424975
H206	H	-0.081920	0.786470	-0.091642
H207	H	0.251414	1.119803	0.241691
H208	H	-0.230108	0.494113	-0.269336
H209	H	0.103225	0.827446	0.063997
H210	H	0.436558	1.160779	0.397330
C211	C	-0.254089	0.917537	-0.979777
C212	C	0.079244	1.250870	-0.646444
C213	C	0.412577	1.584204	-0.313111
C214	C	-0.218592	0.964815	-0.935614
C215	C	0.114742	1.298148	-0.602280
C216	C	0.448075	1.631481	-0.268947
H217	H	-0.226764	0.885614	-1.005855
H218	H	0.106569	1.218947	-0.672522
H219	H	0.439903	1.552280	-0.339188
H220	H	-0.278051	0.945555	-1.013656
H221	H	0.055282	1.278889	-0.680323
H222	H	0.388616	1.612222	-0.346989
H223	H	-0.281520	0.889371	-0.949768
H224	H	0.051813	1.222704	-0.616435
H225	H	0.385146	1.556037	-0.283102
H226	H	-0.191164	0.992985	-0.965623
H227	H	0.142170	1.326318	-0.632290
H228	H	0.475503	1.659652	-0.298957
H229	H	-0.194619	0.936793	-0.901731
H230	H	0.138714	1.270127	-0.568397
H231	H	0.472048	1.603460	-0.235064
H232	H	-0.230095	0.633554	-0.269319
H233	H	0.103239	0.966888	0.064014
H234	H	0.436572	1.300221	0.397347
H235	H	-0.542845	1.148821	-0.269202
H236	H	-0.209512	1.482154	0.064132
H237	H	0.123822	1.815487	0.397465
H238	H	-0.662111	1.148879	-0.269231
H239	H	-0.328778	1.482212	0.064102
H240	H	0.004556	1.815546	0.397435
H241	H	-0.662135	0.978001	-0.439855
H242	H	-0.328802	1.311334	-0.106522
H243	H	0.004531	1.644667	0.226811
C244	C	-0.379098	1.152394	-1.011141
C245	C	-0.045765	1.485727	-0.677808
C246	C	0.287568	1.819061	-0.344475
C247	C	-0.387617	1.162306	-0.935563
C248	C	-0.054283	1.495639	-0.602230
C249	C	0.279050	1.828973	-0.268896
H250	H	-0.406411	1.184326	-1.037208
H251	H	-0.073078	1.517659	-0.703874
H252	H	0.260256	1.850992	-0.370541
H253	H	-0.388309	1.102950	-1.023726
H254	H	-0.054976	1.436284	-0.690393
H255	H	0.278358	1.769617	-0.357060
H256	H	-0.336799	1.163197	-1.023747
H257	H	-0.003466	1.496530	-0.690414
H258	H	0.329868	1.829863	-0.357081
H259	H	-0.429915	1.151498	-0.922956
H260	H	-0.096582	1.484831	-0.589623
H261	H	0.236751	1.818165	-0.256289
H262	H	-0.378411	1.211761	-0.922973
H263	H	-0.045077	1.545094	-0.589640
H264	H	0.288256	1.878428	-0.256306
H265	H	-0.542864	0.977948	-0.439840
H266	H	-0.209530	1.311281	-0.106507
H267	H	0.123803	1.644615	0.226826
H268	H	-0.943685	1.149001	-0.269285
H269	H	-0.610351	1.482335	0.064048
H270	H	-0.277018	1.815668	0.397382
C271	C	-1.029578	1.203789	-0.214632
C272	C	-0.696244	1.537122	0.118702
C273	C	-0.362911	1.870456	0.452035
C274	C	-1.072318	1.162479	-0.255920
C275	C	-0.738984	1.495813	0.077413
C276	C	-0.405651	1.829146	0.410746
H277	H	-1.051881	1.235751	-0.182720
H278	H	-0.718547	1.569084	0.150613
H279	H	-0.385214	1.902418	0.483946
H280	H	-1.003893	1.231910	-0.246712
H281	H	-0.670560	1.565243	0.086621
H282	H	-0.337227	1.898576	0.419954
H283	H	-1.003980	1.171719	-0.186451
H284	H	-0.670647	1.505053	0.146882
H285	H	-0.337313	1.838386	0.480215
H286	H	-1.097913	1.194549	-0.284105
H287	H	-0.764579	1.527882	0.049228
H288	H	-0.431246	1.861216	0.382562
H289	H	-1.098013	1.134357	-0.223835
H290	H	-0.764680	1.467690	0.109498
H291	H	-0.431346	1.801023	0.442831
C292	C	-0.178201	1.006309	-0.730113
C293	C	0.155133	1.339642	-0.396780
C294	C	0.488466	1.672975	-0.063447
C295	C	-0.218618	0.964787	-0.774282
C296	C	0.114715	1.298120	-0.440949
C297	C	0.448048	1.631453	-0.107616
H298	H	-0.150883	0.974378	-0.704053
H299	H	0.182450	1.307711	-0.370719
H300	H	0.515783	1.641044	-0.037386
H301	H	-0.202182	1.034307	-0.696220
H302	H	0.131152	1.367641	-0.362887
H303	H	0.464485	1.700974	-0.029553
H304	H	-0.154118	1.038392	-0.760117
H305	H	0.179215	1.371726	-0.426784
H306	H	0.512548	1.705059	-0.093450
H307	H	-0.242704	0.932706	-0.744278
H308	H	0.090629	1.266040	-0.410945
H309	H	0.423963	1.599373	-0.077611
H310	H	-0.194635	0.936775	-0.808180
H311	H	0.138699	1.270109	-0.474846
H312	H	0.472032	1.603442	-0.141513
H313	H	-0.376179	1.148873	-0.785180
H314	H	-0.042846	1.482206	-0.451847
H315	H	0.290488	1.815540	-0.118513
H316	H	-1.062973	0.978176	-0.439942
H317	H	-0.729640	1.311510	-0.106609
H318	H	-0.396306	1.644843	0.226724
C319	C	-0.977076	0.923369	-0.494582
C320	C	-0.643742	1.256703	-0.161249
C321	C	-0.310409	1.590036	0.172085
C322	C	-0.934336	0.964691	-0.453305
C323	C	-0.601003	1.298024	-0.119971
C324	C	-0.267669	1.631357	0.213362
H325	H	-0.954772	0.891394	-0.526480
H326	H	-0.621439	1.224728	-0.193147
H327	H	-0.288106	1.558061	0.140186
H328	H	-1.002670	0.955425	-0.522769
H329	H	-0.669337	1.288759	-0.189436
H330	H	-0.336004	1.622092	0.143898
H331	H	-1.002763	0.895255	-0.462488
H332	H	-0.669430	1.228588	-0.129155
H333	H	-0.336096	1.561922	0.204179
H334	H	-0.908652	0.992810	-0.485399
H335	H	-0.575318	1.326143	-0.152065
H336	H	-0.241985	1.659476	0.181268
H337	H	-0.908730	0.932631	-0.425116
H338	H	-0.575397	1.265964	-0.091782
H339	H	-0.242064	1.599298	0.241551
