data_functionalizedCrystal
_audit_creation_method	'MofGen! by Chris Wilmer'
_symmetry_space_group_name_H-M	'P1'
_symmetry_Int_Tables_number	1
_symmetry_cell_setting	triclinic
loop_
_symmetry_equiv_pos_as_xyz
  x,y,z
_cell_length_a	16.959455
_cell_length_b	16.959454
_cell_length_c	12.759387
_cell_angle_alpha	89.969920
_cell_angle_beta	89.975828
_cell_angle_gamma	90.019023
loop_
_atom_site_label
_atom_site_type_symbol
_atom_site_fract_x
_atom_site_fract_y
_atom_site_fract_z
Zn1	Zn	1.208442	-0.314662	-0.594113
Zn2	Zn	1.708442	0.185338	-0.094113
Zn3	Zn	1.208347	-0.446862	-0.418436
Zn4	Zn	1.708347	0.053138	0.081564
Zn5	Zn	1.076253	-0.314699	-0.418439
Zn6	Zn	1.576253	0.185301	0.081561
Zn7	Zn	1.076235	-0.446800	-0.594063
Zn8	Zn	1.576235	0.053200	-0.094063
O9	O	1.142319	-0.380756	-0.506263
O10	O	1.642319	0.119244	-0.006263
O11	O	1.319040	-0.332209	-0.570828
O12	O	1.819040	0.167791	-0.070828
O13	O	1.190793	-0.429372	-0.271415
O14	O	1.690793	0.070628	0.228585
O15	O	1.093836	-0.204083	-0.441764
O16	O	1.593836	0.295917	0.058236
O17	O	1.318971	-0.429336	-0.441759
O18	O	1.818971	0.070664	0.058241
O19	O	1.190954	-0.204056	-0.570831
O20	O	1.690954	0.295944	-0.070831
O21	O	1.093744	-0.332272	-0.271417
O22	O	1.593744	0.167728	0.228583
O23	O	0.965640	-0.332212	-0.441716
O24	O	1.465640	0.167788	0.058284
O25	O	1.093805	-0.429230	-0.741091
O26	O	1.593805	0.070770	-0.241091
O27	O	0.965627	-0.429266	-0.570747
O28	O	1.465627	0.070734	-0.070747
O29	O	1.190936	-0.332149	-0.741128
O30	O	1.690936	0.167851	-0.241128
O31	O	1.190775	-0.557465	-0.441711
O32	O	1.690775	-0.057465	0.058289
O33	O	1.093713	-0.557419	-0.570744
O34	O	1.593713	-0.057419	-0.070744
C35	C	0.936953	-0.380737	-0.506227
C36	C	1.436953	0.119263	-0.006227
C37	C	0.849096	-0.380748	-0.506237
C38	C	1.349096	0.119252	-0.006237
C39	C	0.807806	-0.330144	-0.439164
C40	C	1.307806	0.169856	0.060836
C41	C	0.807833	-0.431357	-0.573325
C42	C	1.307833	0.068643	-0.073325
C43	C	0.725288	-0.431366	-0.573341
C44	C	1.225288	0.068634	-0.073341
C45	C	0.683997	-0.380763	-0.506268
C46	C	1.183997	0.119237	-0.006268
C47	C	0.725252	-0.330150	-0.439180
C48	C	1.225252	0.169850	0.060820
C49	C	0.684026	-0.481973	-0.640435
C50	C	1.184026	0.018027	-0.140435
C51	C	0.601475	-0.481983	-0.640454
C52	C	1.101475	0.018017	-0.140454
C53	C	0.560183	-0.431383	-0.573375
C54	C	1.060183	0.068617	-0.073375
C55	C	0.601444	-0.380769	-0.506283
C56	C	1.101444	0.119231	-0.006283
C57	C	0.560153	-0.330165	-0.439211
C58	C	1.060153	0.169835	0.060789
C59	C	0.601412	-0.279554	-0.372113
C60	C	1.101412	0.220446	0.127887
C61	C	0.683960	-0.279550	-0.372101
C62	C	1.183960	0.220450	0.127899
C63	C	0.477635	-0.431387	-0.573387
C64	C	0.977635	0.068613	-0.073387
C65	C	0.477599	-0.330171	-0.439226
C66	C	0.977599	0.169829	0.060774
C67	C	1.142253	-0.586122	-0.506245
C68	C	1.642253	-0.086122	-0.006245
C69	C	1.142297	-0.673979	-0.506272
C70	C	1.642297	-0.173979	-0.006272
C71	C	1.091852	-1.045460	-0.573443
C72	C	1.591852	-0.545460	-0.073443
C73	C	1.193006	-1.045448	-0.439189
C74	C	1.693006	-0.545448	0.060811
C75	C	1.192979	-0.962902	-0.439180
C76	C	1.692979	-0.462902	0.060820
C77	C	1.142386	-0.921632	-0.506302
C78	C	1.642386	-0.421632	-0.006302
C79	C	1.091822	-0.962907	-0.573433
C80	C	1.591822	-0.462907	-0.073433
C81	C	1.243537	-0.921621	-0.372042
C82	C	1.743537	-0.421621	0.127958
C83	C	1.243511	-0.839070	-0.372029
C84	C	1.743511	-0.339070	0.127971
C85	C	1.192922	-0.797798	-0.439157
C86	C	1.692922	-0.297798	0.060843
C87	C	1.142356	-0.839078	-0.506292
C88	C	1.642356	-0.339078	-0.006292
C89	C	1.091763	-0.797807	-0.573414
C90	C	1.591763	-0.297807	-0.073414
C91	C	1.041200	-0.839086	-0.640555
C92	C	1.541200	-0.339086	-0.140555
C93	C	1.041232	-0.921635	-0.640561
C94	C	1.541232	-0.421635	-0.140561
C95	C	1.192890	-0.715249	-0.439150
C96	C	1.692890	-0.215249	0.060850
C97	C	1.091732	-0.715254	-0.573404
C98	C	1.591732	-0.215254	-0.073404
C99	C	1.348488	-0.380775	-0.506299
C100	C	1.848488	0.119225	-0.006299
C101	C	1.436344	-0.380784	-0.506314
C102	C	1.936344	0.119216	-0.006314
C103	C	1.142379	-0.380678	-0.780296
C104	C	1.642379	0.119322	-0.280296
C105	C	1.142404	-0.380645	-0.897073
C106	C	1.642404	0.119355	-0.397073
C107	C	1.142407	-0.174588	-0.506304
C108	C	1.642407	0.325412	-0.006304
C109	C	1.142445	-0.086731	-0.506321
C110	C	1.642445	0.413269	-0.006321
C111	C	1.243555	-0.279561	-0.897131
C112	C	1.743555	0.220439	-0.397131
C113	C	1.294141	-0.229007	-0.952020
C114	C	1.794141	0.270993	-0.452020
C115	C	1.294160	-0.228979	-1.061742
C116	C	1.794160	0.271021	-0.561742
C117	C	1.243586	-0.279507	-1.116577
C118	C	1.743586	0.220493	-0.616577
C119	C	1.193000	-0.330061	-1.061687
C120	C	1.693000	0.169939	-0.561687
C121	C	1.192988	-0.330086	-0.951963
C122	C	1.692988	0.169914	-0.451963
C123	C	1.091847	-0.431140	-1.061629
C124	C	1.591847	0.068860	-0.561629
C125	C	1.091830	-0.431174	-0.951908
C126	C	1.591830	0.068826	-0.451908
C127	C	1.041273	-0.481669	-1.116464
C128	C	1.541273	0.018331	-0.616464
C129	C	0.990690	-0.532228	-1.061574
C130	C	1.490690	-0.032228	-0.561574
C131	C	0.990673	-0.532255	-0.951846
C132	C	1.490673	-0.032255	-0.451846
C133	C	1.041244	-0.481728	-0.897018
C134	C	1.541244	0.018272	-0.397018
C135	C	1.142305	-0.380776	-0.233295
C136	C	1.642305	0.119224	0.266705
C137	C	1.142433	-0.380586	-0.116519
C138	C	1.642433	0.119414	0.383481
H139	H	0.567889	-0.523195	-0.695088
H140	H	1.067889	-0.023195	-0.195088
F141	F	1.297380	-0.965547	-0.300615
F142	F	1.797380	-0.465547	0.199385
F143	F	1.243548	-0.279598	-0.780355
F144	F	1.743548	0.220402	-0.280355
F145	F	0.936827	-0.586059	-0.893436
F146	F	1.436827	-0.086059	-0.393436
F147	F	1.041294	-0.481636	-1.233240
F148	F	1.541294	0.018364	-0.733240
F149	F	1.246847	-1.089373	-0.367757
F150	F	1.746847	-0.589373	0.132243
H151	H	1.335316	-0.187867	-0.907362
H152	H	1.835316	0.312133	-0.407362
H153	H	1.234053	-0.681644	-0.384480
H154	H	1.734053	-0.181644	0.115520
F155	F	0.987354	-0.795154	-0.711984
F156	F	1.487354	-0.295154	-0.211984
F157	F	0.727876	-0.225688	-0.300701
F158	F	1.227876	0.274312	0.199299
F159	F	1.041234	-0.481756	-0.780242
F160	F	1.541234	0.018244	-0.280242
F161	F	1.347989	-0.175164	-1.120161
F162	F	1.847989	0.324836	-0.620161
F163	F	0.433661	-0.276314	-0.367831
F164	F	0.933661	0.223686	0.132169
F165	F	0.557458	-0.225695	-0.300739
F166	F	1.057458	0.274305	0.199261
H167	H	0.841403	-0.288940	-0.384532
H168	H	1.341403	0.211060	0.115468
F169	F	1.037887	-0.671337	-0.644851
F170	F	1.537887	-0.171337	-0.144851
F171	F	0.433728	-0.485242	-0.644799
F172	F	0.933728	0.014758	-0.144799
H173	H	0.717651	-0.523169	-0.695045
H174	H	1.217651	-0.023169	-0.195045
F175	F	1.297329	-0.795145	-0.300579
F176	F	1.797329	-0.295145	0.199421
F177	F	0.851780	-0.485214	-0.644699
F178	F	1.351780	0.014786	-0.144699
H179	H	1.000066	-0.955251	-0.695223
H180	H	1.500066	-0.455251	-0.195223
H181	H	1.050688	-1.079073	-0.628111
H182	H	1.550688	-0.579073	-0.128111
F183	F	1.243603	-0.279468	-1.233353
F184	F	1.743603	0.220532	-0.733353
F185	F	0.936867	-0.585994	-1.119938
F186	F	1.436867	-0.085994	-0.619938
