data_functionalizedCrystal
_audit_creation_method	'MofGen! by Chris Wilmer'
_symmetry_space_group_name_H-M	'P1'
_symmetry_Int_Tables_number	1
_symmetry_cell_setting	triclinic
loop_
_symmetry_equiv_pos_as_xyz
  x,y,z
_cell_length_a	10.489741
_cell_length_b	10.654550
_cell_length_c	9.730223
_cell_angle_alpha	90.000043
_cell_angle_beta	89.995878
_cell_angle_gamma	95.487948
loop_
_atom_site_label
_atom_site_type_symbol
_atom_site_fract_x
_atom_site_fract_y
_atom_site_fract_z
O1	O	0.179162	-1.667923	-0.114186
O2	O	0.196231	-1.302452	-0.114212
O3	O	0.002095	-1.493504	-0.114190
O4	O	0.373298	-1.476872	-0.114208
O5	O	0.002089	-1.493491	0.114390
O6	O	0.196226	-1.302440	0.114368
O7	O	0.179157	-1.667911	0.114393
Zn8	Zn	0.187690	-1.485173	0.150673
Zn9	Zn	0.187697	-1.485190	-0.150491
O10	O	0.373293	-1.476859	0.114372
C11	C	-0.045439	-1.492241	0.000099
C12	C	-0.187067	-1.488483	0.000096
C13	C	0.194975	-1.255648	0.000075
C14	C	0.191225	-1.116203	0.000066
C15	C	0.180413	-1.714715	0.000104
C16	C	0.184162	-1.854160	0.000104
C17	C	-0.255148	-1.366923	0.000078
C18	C	-0.347301	-1.424341	0.112783
C19	C	-0.347270	-1.424382	-0.112579
C20	C	-0.277354	-1.545951	0.112895
C21	C	-0.277314	-1.545975	-0.112568
C22	C	-0.369439	-1.603481	0.000165
C23	C	0.420827	-1.478122	0.000080
C24	C	0.562454	-1.481880	0.000074
N25	N	0.187685	-1.485171	0.356209
C26	C	0.305530	-1.036771	0.000064
C27	C	0.301999	-0.905748	0.000088
C28	C	0.069849	-0.933603	0.000110
C29	C	0.073381	-1.064623	0.000095
N30	N	0.187693	-1.485201	-0.356027
C31	C	0.101758	-1.569798	0.428145
C32	C	0.101758	-1.569811	0.572028
C33	C	0.273624	-1.400566	0.572027
C34	C	0.273616	-1.400548	0.428147
H35	H	-0.378290	-1.372900	0.208061
N36	N	-0.238406	-1.610446	-0.232108
N37	N	-0.260446	-1.569031	-0.349049
H38	H	-0.232965	-1.614556	-0.433486
H39	H	-0.019705	-1.129300	0.000100
H40	H	0.031787	-1.638720	0.630593
H41	H	0.343590	-1.331669	0.630613
H42	H	-0.246549	-1.597336	0.208286
H43	H	-0.378207	-1.372936	-0.207872
N44	N	0.361379	-1.314103	0.354633
N45	N	0.320156	-1.235782	0.274362
H46	H	0.382132	-1.174731	0.222439
N47	N	-0.431491	-1.728979	0.000258
N48	N	-0.413064	-1.802163	0.097116
H49	H	-0.456887	-1.890796	0.097187
N50	N	0.425911	-1.089439	0.000036
N51	N	0.527958	-1.018497	0.000037
H52	H	0.612982	-1.055689	0.000020
H53	H	-0.205449	-1.266977	0.000184
H54	H	0.395078	-0.841079	0.000090
H55	H	-0.026096	-0.891590	0.000142
H56	H	0.031785	-1.638702	0.369576
