data_functionalizedCrystal
_audit_creation_method	'MofGen! by Chris Wilmer'
_symmetry_space_group_name_H-M	'P1'
_symmetry_Int_Tables_number	1
_symmetry_cell_setting	triclinic
loop_
_symmetry_equiv_pos_as_xyz
  x,y,z
_cell_length_a	18.101395
_cell_length_b	11.169417
_cell_length_c	11.169409
_cell_angle_alpha	89.979436
_cell_angle_beta	89.964384
_cell_angle_gamma	90.031983
loop_
_atom_site_label
_atom_site_type_symbol
_atom_site_fract_x
_atom_site_fract_y
_atom_site_fract_z
Zn1	Zn	-0.294753	1.834798	-0.678515
Zn2	Zn	-0.418619	1.834612	-0.477820
Zn3	Zn	-0.294798	1.634081	-0.477849
Zn4	Zn	-0.418559	1.634019	-0.678465
O5	O	-0.356682	1.734377	-0.578162
O6	O	-0.311190	2.002723	-0.651901
O7	O	-0.402238	1.807960	-0.309874
O8	O	-0.191159	1.660811	-0.504501
O9	O	-0.402194	2.002586	-0.504451
O10	O	-0.191126	1.808276	-0.651929
O11	O	-0.311267	1.660630	-0.309896
O12	O	-0.311209	1.466123	-0.504453
O13	O	-0.402092	1.660704	-0.846421
O14	O	-0.402135	1.466077	-0.651844
O15	O	-0.311132	1.808216	-0.846458
O16	O	-0.522244	1.807899	-0.504403
O17	O	-0.522200	1.660524	-0.651816
C18	C	-0.356671	1.422553	-0.578147
C19	C	-0.356684	1.289153	-0.578169
C20	C	-0.549093	1.734217	-0.578127
C21	C	-0.631407	1.734258	-0.578152
C22	C	-0.930498	1.734521	-0.578217
C23	C	-0.899175	1.642012	-0.671195
C24	C	-0.813558	1.641572	-0.670904
C25	C	-0.782115	1.734391	-0.578186
C26	C	-0.813278	1.700137	-0.451699
C27	C	-0.898923	1.699541	-0.452255
C28	C	-0.898837	1.861486	-0.610612
C29	C	-0.813186	1.860740	-0.613386
C30	C	-0.698256	1.734319	-0.578160
C31	C	-1.014357	1.734590	-0.578234
C32	C	-0.163520	1.734571	-0.578224
C33	C	-0.081206	1.734654	-0.578250
C34	C	-0.356600	1.734474	-0.891205
C35	C	-0.356565	1.734515	-1.024605
C36	C	-0.356694	2.047420	-0.578178
C37	C	-0.356699	2.180820	-0.578185
C38	C	-0.356710	1.734351	-0.266338
C39	C	-0.356537	1.734542	-0.132938
H40	H	-0.919714	1.663231	-0.765288
O41	O	-0.788786	1.891409	-0.724423
C42	C	-0.743850	1.799037	-0.770162
H43	H	-0.720672	1.743962	-0.692898
H44	H	-0.696378	1.839656	-0.823630
H45	H	-0.778162	1.738802	-0.830944
O46	O	-0.925012	1.530432	-0.646096
C47	C	-0.965401	1.486864	-0.744808
H48	H	-0.985841	1.565383	-0.800953
H49	H	-1.014692	1.432717	-0.711441
H50	H	-0.928329	1.427262	-0.801852
H51	H	-0.792485	1.663004	-0.764693
O52	O	-0.787822	1.590620	-0.418163
C53	C	-0.816348	1.561201	-0.304399
H54	H	-0.832290	1.646703	-0.255056
H55	H	-0.772598	1.511104	-0.250794
H56	H	-0.867223	1.502006	-0.315354
O57	O	-0.789064	1.529362	-0.645367
C58	C	-0.711176	1.528525	-0.644975
H59	H	-0.689711	1.606273	-0.701284
H60	H	-0.690480	1.440483	-0.684175
H61	H	-0.690352	1.538143	-0.549151
H62	H	-0.919646	1.763997	-0.380617
O63	O	-0.922806	1.588740	-0.419723
C64	C	-0.895834	1.503238	-0.501627
H65	H	-0.882519	1.548979	-0.590314
H66	H	-0.939542	1.431298	-0.516721
H67	H	-0.843631	1.460297	-0.464079
O68	O	-0.787699	1.947478	-0.538623
C69	C	-0.816942	2.059154	-0.573434
H70	H	-0.833432	2.055573	-0.671854
H71	H	-0.773445	2.131759	-0.559998
H72	H	-0.867593	2.080434	-0.516602
O73	O	-0.788891	1.778059	-0.366932
C74	C	-0.743201	1.864980	-0.420895
H75	H	-0.719769	1.827976	-0.508106
H76	H	-0.695928	1.888398	-0.357694
H77	H	-0.776960	1.948851	-0.440519
O78	O	-0.924570	1.898540	-0.718815
C79	C	-0.971662	1.810235	-0.766902
H80	H	-0.957959	1.719715	-0.725319
H81	H	-0.963561	1.805400	-0.868009
H82	H	-1.031544	1.834185	-0.746262
H83	H	-0.919093	1.930409	-0.542892
