data_functionalizedCrystal
_audit_creation_method	'MofGen! by Chris Wilmer'
_symmetry_space_group_name_H-M	'P1'
_symmetry_Int_Tables_number	1
_symmetry_cell_setting	triclinic
loop_
_symmetry_equiv_pos_as_xyz
  x,y,z
_cell_length_a	13.033293
_cell_length_b	13.032721
_cell_length_c	13.033109
_cell_angle_alpha	105.143326
_cell_angle_beta	74.800007
_cell_angle_gamma	105.184121
loop_
_atom_site_label
_atom_site_type_symbol
_atom_site_fract_x
_atom_site_fract_y
_atom_site_fract_z
Zn1	Zn	1.665132	-0.311713	-0.842278
Zn2	Zn	1.624457	-0.471371	-0.682627
Zn3	Zn	1.464934	-0.311733	-0.642082
Zn4	Zn	1.464897	-0.511805	-0.842154
O5	O	1.554855	-0.401656	-0.752285
O6	O	1.810297	-0.315962	-0.838120
O7	O	1.586289	-0.433282	-0.526704
O8	O	1.508529	-0.161182	-0.651722
O9	O	1.780413	-0.433262	-0.720825
O10	O	1.655613	-0.161168	-0.798805
O11	O	1.469088	-0.315996	-0.496916
O12	O	1.314369	-0.355203	-0.651602
O13	O	1.508466	-0.502176	-0.992715
O14	O	1.314342	-0.502195	-0.798594
O15	O	1.655578	-0.355169	-0.992806
O16	O	1.586253	-0.627283	-0.720705
O17	O	1.469025	-0.656990	-0.837909
C18	C	1.275317	-0.433090	-0.720685
C19	C	1.155729	-0.446566	-0.707195
C20	C	1.117199	-0.394649	-0.759329
C21	C	0.993599	-0.408577	-0.745387
C22	C	1.523253	-0.681171	-0.783720
C23	C	1.509836	-0.800742	-0.797215
C24	C	1.561920	-0.839317	-0.745297
C25	C	1.548054	-0.962899	-0.759243
C26	C	1.835485	-0.370100	-0.784009
C27	C	1.955073	-0.356653	-0.797528
C28	C	1.586555	-0.433181	-1.032886
C29	C	1.600063	-0.446615	-1.152462
C30	C	1.586612	-0.121048	-0.720755
C31	C	1.600145	-0.001470	-0.707318
C32	C	1.548097	-0.394573	-1.191034
C33	C	1.562057	-0.408457	-1.314621
C34	C	1.523350	-0.370169	-0.472774
C35	C	1.510084	-0.356408	-0.353188
H36	H	0.935084	-0.463336	-0.690427
O37	O	1.634613	-0.761886	-0.672764
H38	H	1.634104	-0.676970	-0.673200
O39	O	1.194697	-0.322109	-0.832125
H40	H	1.279616	-0.322558	-0.831656
O41	O	1.672693	-0.519248	-1.229901
H42	H	1.672267	-0.518748	-1.314819
O43	O	1.032566	-0.284113	-0.870333
H44	H	1.117486	-0.284561	-0.869867
H45	H	1.493199	-1.021363	-0.814026
H46	H	1.655010	-0.943007	-0.652545
O47	O	1.437158	-0.878173	-0.869763
H48	H	1.437662	-0.963089	-0.869322
O49	O	1.475476	-0.321931	-1.113595
H50	H	1.475916	-0.322417	-1.028677
O51	O	1.634691	-0.481094	-1.392057
H52	H	1.634265	-0.480594	-1.476975
O53	O	1.437457	-0.283763	-1.275755
H54	H	1.437895	-0.284248	-1.190835
O55	O	1.078231	-0.519103	-0.634397
H56	H	0.993312	-0.518664	-0.634875
