data_functionalizedCrystal
_audit_creation_method	'MofGen! by Chris Wilmer'
_symmetry_space_group_name_H-M	'P1'
_symmetry_Int_Tables_number	1
_symmetry_cell_setting	triclinic
loop_
_symmetry_equiv_pos_as_xyz
  x,y,z
_cell_length_a	19.188929
_cell_length_b	10.654559
_cell_length_c	9.730223
_cell_angle_alpha	89.999563
_cell_angle_beta	90.023102
_cell_angle_gamma	96.183267
loop_
_atom_site_label
_atom_site_type_symbol
_atom_site_fract_x
_atom_site_fract_y
_atom_site_fract_z
O1	O	-0.098089	1.665752	-0.114371
O2	O	-0.107425	1.300077	-0.114379
O3	O	-0.001171	1.493467	-0.114290
O4	O	-0.204344	1.472362	-0.114460
O5	O	-0.001174	1.493465	0.114290
O6	O	-0.107428	1.300075	0.114201
O7	O	-0.098092	1.665749	0.114209
Zn8	Zn	-0.102761	1.482912	0.150497
Zn9	Zn	-0.102757	1.482915	-0.150667
O10	O	-0.204347	1.472360	0.114120
C11	C	-0.106740	1.253293	-0.000089
C12	C	-0.104685	1.113894	-0.000087
C13	C	-0.040193	1.063718	-0.000030
C14	C	-0.038266	0.932737	-0.000038
C15	C	-0.165330	0.902116	-0.000157
C16	C	-0.167256	1.033095	-0.000158
C17	C	0.033167	1.081396	0.000044
C18	C	0.035093	0.950415	0.000036
C19	C	-0.230361	1.473044	-0.000192
C20	C	-0.307879	1.475096	-0.000257
C21	C	-0.352058	1.361621	-0.000232
C22	C	-0.424895	1.363548	-0.000201
C23	C	-0.453548	1.478957	-0.000168
C24	C	-0.409359	1.592447	-0.000201
C25	C	-0.336524	1.590516	-0.000246
N26	N	-0.562096	1.567172	0.077712
N27	N	-0.631287	1.568998	0.077757
C28	C	-0.672995	1.484781	-0.000035
N29	N	-0.642900	1.398650	-0.077858
N30	N	-0.573704	1.396820	-0.077898
C31	C	-0.532525	1.481064	-0.000120
C32	C	-0.796153	1.373389	0.000022
C33	C	-0.868990	1.375321	0.000044
C34	C	-0.853453	1.604223	0.000058
C35	C	-0.780617	1.602287	0.000022
C36	C	-0.751972	1.486867	0.000010
C37	C	0.024843	1.492782	0.000019
C38	C	0.102361	1.490731	0.000075
C39	C	-0.098778	1.712534	-0.000084
C40	C	-0.100833	1.851933	-0.000095
N41	N	-0.102763	1.482919	0.356033
N42	N	-0.102750	1.482918	-0.356203
C43	C	-0.055729	1.568574	0.427999
C44	C	-0.055721	1.568570	0.571882
C45	C	-0.149785	1.397254	0.571821
C46	C	-0.149790	1.397252	0.427941
C47	C	-0.001424	1.667486	0.428035
C48	C	-0.001415	1.667482	0.571918
H49	H	0.055328	1.127506	0.098760
H50	H	-0.216273	0.836315	-0.000214
C51	C	-0.201584	1.303121	0.348784
N52	N	-0.240619	1.232256	0.289163
H53	H	0.063778	0.921652	0.095721
H54	H	-0.219772	1.073941	-0.000228
C55	C	0.070513	1.138593	-0.129149
N56	N	0.098641	1.181672	-0.226456
C57	C	0.066668	0.902945	-0.133262
N58	N	0.090451	0.867190	-0.233659
H59	H	-0.328741	1.267637	-0.000254
H60	H	-0.460873	1.271141	-0.000178
H61	H	-0.432693	1.686414	-0.000199
C62	C	-0.024393	1.790186	0.367721
N63	N	-0.041694	1.882605	0.322292
H64	H	-0.300552	1.682924	-0.000267
C65	C	0.067089	1.627696	0.632256
N66	N	0.118684	1.597720	0.677704
H67	H	-0.772829	1.279406	0.000020
C68	C	-0.884967	1.731174	0.000091
N69	N	-0.908707	1.826798	0.000113
H70	H	-0.904962	1.282912	0.000055
C71	C	-0.017631	1.797488	0.624667
N72	N	-0.029866	1.895392	0.664396
C73	C	-0.732017	1.727120	0.000022
N74	N	-0.695411	1.821151	0.000024
C75	C	-0.201511	1.303024	0.650932
N76	N	-0.240472	1.232047	0.710518
C77	C	0.071070	1.640043	0.375329
N78	N	0.125671	1.619369	0.335631
