data_functionalizedCrystal
_audit_creation_method	'MofGen! by Chris Wilmer'
_symmetry_space_group_name_H-M	'P1'
_symmetry_Int_Tables_number	1
_symmetry_cell_setting	triclinic
loop_
_symmetry_equiv_pos_as_xyz
  x,y,z
_cell_length_a	14.560438
_cell_length_b	14.560438
_cell_length_c	14.560438
_cell_angle_alpha	90.000927
_cell_angle_beta	60.000905
_cell_angle_gamma	60.000361
loop_
_atom_site_label
_atom_site_type_symbol
_atom_site_fract_x
_atom_site_fract_y
_atom_site_fract_z
Zr1	Zr	1.005293	0.884751	-0.120516
O2	O	1.196893	0.738102	-0.267160
O3	O	0.813692	0.929707	-0.075564
O4	O	1.005296	0.929702	-0.267165
O5	O	1.005287	0.738110	0.075582
O6	O	1.005299	1.080840	-0.267167
O7	O	1.005289	0.738106	-0.075559
O8	O	0.662555	1.080848	0.075572
O9	O	1.348031	0.738102	-0.267157
O10	O	0.892503	1.061673	-0.056391
O11	O	0.892499	0.948883	0.056405
O12	O	1.118087	0.948878	-0.169180
O13	O	1.118084	0.836088	-0.056385
Zr14	Zr	1.005293	1.125805	0.120534
Zr15	Zr	1.005297	1.125799	-0.120518
Zr16	Zr	1.005289	0.884757	0.120536
Zr17	Zr	1.246341	0.884751	-0.120511
Zr18	Zr	0.764246	1.125805	0.120529
O19	O	1.196894	1.080849	0.075582
O20	O	1.196900	1.080841	-0.267163
O21	O	1.196888	0.738110	0.075586
O22	O	0.813693	1.272454	0.267177
O23	O	0.813699	1.272446	-0.075568
O24	O	0.813687	0.929715	0.267181
O25	O	1.005299	1.272446	-0.075564
O26	O	1.005290	1.080854	0.267183
O27	O	1.005287	0.929716	0.267184
O28	O	1.005297	1.272450	0.075577
O29	O	1.348035	0.929703	-0.267159
O30	O	0.662551	1.080853	0.267176
O31	O	0.662555	1.272454	0.267174
O32	O	0.662558	1.272449	0.075570
O33	O	1.348028	0.738107	-0.075552
O34	O	1.348032	0.929708	-0.075554
O35	O	0.892499	1.061678	0.169198
O36	O	0.892503	1.174468	0.056402
O37	O	1.118088	1.061673	-0.056387
O38	O	1.118084	0.948883	0.056409
C39	C	0.703779	1.005277	0.000003
C40	C	0.601448	1.005277	0.000001
C41	C	0.553374	1.064150	-0.058877
C42	C	0.457215	1.064154	-0.058867
C43	C	0.457216	0.946404	0.058902
C44	C	0.553367	0.946407	0.058898
C45	C	1.005288	0.703764	0.000012
C46	C	1.005286	0.601433	0.000013
C47	C	0.887543	0.516070	0.058883
C48	C	0.887534	0.612226	0.058884
C49	C	1.123053	0.494474	-0.058872
C50	C	1.123059	0.398321	-0.058879
C51	C	1.306807	1.005279	0.000015
C52	C	1.409138	1.005279	0.000016
C53	C	1.005298	1.005270	-0.301511
C54	C	1.005300	1.005268	-0.403844
C55	C	1.005299	1.306792	0.000006
C56	C	1.005300	1.409123	0.000005
C57	C	1.123051	0.946391	-0.510795
C58	C	1.123045	0.946404	-0.606943
C59	C	0.887526	1.064172	-0.489176
C60	C	0.887534	1.064165	-0.393030
C61	C	1.005288	1.005286	0.301528
C62	C	1.005286	1.005288	0.403861
C63	C	0.703785	1.306792	0.000000
C64	C	0.601456	1.409123	-0.000003
C65	C	0.703774	1.005285	0.301523
C66	C	0.601441	1.005287	0.403854
C67	C	0.703780	1.306799	0.301520
C68	C	0.601449	1.409133	0.403850
C69	C	1.306806	0.703757	-0.301502
C70	C	1.409137	0.601423	-0.403832
C71	C	1.306801	0.703764	0.000018
C72	C	1.409131	0.601433	0.000020
C73	C	1.306812	1.005271	-0.301505
C74	C	1.409145	1.005269	-0.403836
C75	C	0.553379	1.398323	-0.058879
C76	C	0.457237	1.494477	-0.058885
C77	C	0.457255	1.612228	0.058869
C78	C	0.553401	1.516075	0.058868
C79	C	0.553363	1.064166	0.510806
C80	C	0.457220	1.064155	0.606953
C81	C	0.457237	0.946387	0.489182
C82	C	0.553385	0.946391	0.393037
C83	C	0.553373	1.516084	0.393049
C84	C	0.457231	1.612234	0.489203
C85	C	0.457244	1.494466	0.606954
C86	C	0.553391	1.398319	0.510802
H87	H	0.592518	1.112088	-0.106832
Br88	Br	1.282886	0.253166	-0.138799
H89	H	0.418092	1.699317	0.480401
Br90	Br	1.282857	0.866502	-0.752092
Br91	Br	0.618654	1.253158	0.525459
Br92	Br	0.727709	1.144093	-0.474510
Br93	Br	0.618598	1.253176	-0.138779
Br94	Br	0.391999	1.479814	-0.138798
H95	H	1.218944	0.898433	-0.519606
Br96	Br	0.618652	0.866468	0.247875
H97	H	0.592549	1.524877	0.106812
Br98	Br	0.392017	1.479800	0.752105
H99	H	0.791641	1.112115	-0.305939
Br100	Br	0.391947	0.866523	0.138839
Br101	Br	0.618604	0.866515	0.138823
H102	H	0.418115	1.699319	0.106801
H103	H	0.592492	1.112118	0.519620
Br104	Br	0.391982	1.144058	0.752103
Br105	Br	0.618598	1.530762	0.247903
H106	H	0.418096	0.898437	0.480388
Br107	Br	0.727728	0.530732	0.138792
H108	H	0.418074	1.112096	-0.106809
H109	H	0.791644	0.699304	0.106829
H110	H	1.218928	0.485693	-0.106812
