data_functionalizedCrystal
_audit_creation_method	'MofGen! by Chris Wilmer'
_symmetry_space_group_name_H-M	'P1'
_symmetry_Int_Tables_number	1
_symmetry_cell_setting	triclinic
loop_
_symmetry_equiv_pos_as_xyz
  x,y,z
_cell_length_a	14.472310
_cell_length_b	16.109301
_cell_length_c	16.109298
_cell_angle_alpha	83.460834
_cell_angle_beta	89.995676
_cell_angle_gamma	90.010306
loop_
_atom_site_label
_atom_site_type_symbol
_atom_site_fract_x
_atom_site_fract_y
_atom_site_fract_z
O1	O	-0.076771	-1.103142	-0.106862
O2	O	0.423229	-0.603142	0.393138
O3	O	-0.076785	-0.861079	-0.120161
O4	O	0.423215	-0.361079	0.379839
O5	O	-0.076784	-0.988762	0.007520
O6	O	0.423216	-0.488762	0.507520
O7	O	-0.076772	-0.975459	-0.234542
O8	O	0.423228	-0.475459	0.265458
O9	O	0.076898	-0.988729	0.007512
O10	O	0.576898	-0.488729	0.507512
O11	O	0.076897	-0.861047	-0.120168
O12	O	0.576897	-0.361047	0.379832
O13	O	0.076911	-1.103109	-0.106869
O14	O	0.576911	-0.603109	0.393131
Cu15	Cu	0.090936	-0.982075	-0.113519
Cu16	Cu	0.590936	-0.482075	0.386481
Cu17	Cu	-0.090810	-0.982114	-0.113511
Cu18	Cu	0.409190	-0.482114	0.386489
O19	O	0.076910	-0.975427	-0.234550
O20	O	0.576910	-0.475427	0.265450
C21	C	0.000055	-0.830088	-0.119626
C22	C	0.500055	-0.330088	0.380374
C23	C	0.000049	-0.737793	-0.118011
C24	C	0.500049	-0.237793	0.381989
N25	N	0.218767	-0.982053	-0.113525
N26	N	0.718767	-0.482053	0.386475
N27	N	-0.218641	-0.982141	-0.113498
N28	N	0.281359	-0.482141	0.386502
C29	C	0.592859	-0.982112	-0.113507
C30	C	1.092859	-0.482112	0.386493
C31	C	0.553692	-0.913563	-0.181598
C32	C	1.053692	-0.413563	0.318402
C33	C	0.446604	-0.913721	-0.181846
C34	C	0.946604	-0.413721	0.318154
C35	C	0.407268	-0.982082	-0.113516
C36	C	0.907268	-0.482082	0.386484
C37	C	0.446111	-1.068826	-0.132440
C38	C	0.946111	-0.568826	0.367560
C39	C	0.553232	-1.068441	-0.132924
C40	C	1.053232	-0.568441	0.367076
C41	C	0.553382	-0.964692	-0.026291
C42	C	1.053382	-0.464692	0.473709
C43	C	0.446255	-0.962702	-0.026873
C44	C	0.946255	-0.462702	0.473127
C45	C	0.302379	-0.982071	-0.113519
C46	C	0.802379	-0.482071	0.386481
C47	C	0.697747	-0.982130	-0.113506
C48	C	1.197747	-0.482130	0.386494
C49	C	0.000053	-0.988207	0.038491
C50	C	0.500053	-0.488207	0.538491
C51	C	0.000042	-0.986593	0.130787
C52	C	0.500042	-0.486593	0.630787
C53	C	0.000070	-1.134100	-0.107404
C54	C	0.500070	-0.634100	0.392596
C55	C	0.000069	-1.226395	-0.109019
C56	C	0.500069	-0.726395	0.390981
C57	C	0.000063	-0.515520	-0.190019
C58	C	0.500063	-0.015520	0.309981
C59	C	0.000069	-0.428799	-0.188495
C60	C	0.500069	0.071201	0.311505
C61	C	0.000057	-0.448675	-0.037006
C62	C	0.500057	0.051325	0.462994
C63	C	0.000058	-0.535394	-0.038531
C64	C	0.500058	-0.035394	0.461469
C65	C	0.000056	-0.568814	-0.115039
C66	C	0.500056	-0.068814	0.384961
C67	C	0.000062	-0.395375	-0.111990
C68	C	0.500062	0.104625	0.388010
C69	C	0.000068	-0.301349	-0.110337
C70	C	0.500068	0.198651	0.389663
C71	C	0.000052	-0.662846	-0.116693
C72	C	0.500052	-0.162846	0.383307
C73	C	0.000071	-0.975981	-0.265521
C74	C	0.500071	-0.475981	0.234479
C75	C	0.000076	-0.977595	-0.357817
C76	C	0.500076	-0.477595	0.142183
C77	C	-0.083711	-0.981343	0.429859
C78	C	0.416289	-0.481343	0.929859
C79	C	-0.083717	-0.982871	0.343139
C80	C	0.416283	-0.482871	0.843139
C81	C	0.083835	-0.982847	0.343117
C82	C	0.583835	-0.482847	0.843117
C83	C	0.083841	-0.981325	0.429836
C84	C	0.583841	-0.481325	0.929836
C85	C	0.000065	-0.980569	0.473205
C86	C	0.500065	-0.480569	0.973205
C87	C	0.000053	-0.983619	0.299766
C88	C	0.500053	-0.483619	0.799766
C89	C	0.000047	-0.985276	0.205740
C90	C	0.500047	-0.485276	0.705740
C91	C	0.000071	-0.978914	0.567236
C92	C	0.500071	-0.478914	1.067236
H93	H	0.420344	-0.849242	-0.170575
H94	H	0.920344	-0.349242	0.329425
C95	C	0.000051	-0.411905	0.047150
C96	C	0.500051	0.088095	0.547150
N97	N	0.000042	-0.384211	0.110538
N98	N	0.500042	0.115789	0.610538
H99	H	0.000055	-0.578789	0.022530
H100	H	0.500055	-0.078789	0.522530
C101	C	0.175984	-0.983666	0.295402
C102	C	0.675984	-0.483666	0.795402
N103	N	0.245392	-0.984277	0.259463
N104	N	0.745392	-0.484277	0.759463
H105	H	0.000077	-0.385410	-0.249550
H106	H	0.500077	0.114590	0.250450
H107	H	-0.151926	-0.980727	0.465167
H108	H	0.348074	-0.480727	0.965167
H109	H	-0.151936	-0.983503	0.307852
H110	H	0.348064	-0.483503	0.807852
H111	H	0.152065	-0.980697	0.465129
H112	H	0.652065	-0.480697	0.965129
C113	C	0.588546	-0.826172	-0.166638
C114	C	1.088546	-0.326172	0.333362
N115	N	0.614810	-0.760348	-0.155372
N116	N	1.114810	-0.260348	0.344628
C117	C	0.411975	-0.928752	-0.269282
C118	C	0.911975	-0.428752	0.230718
N119	N	0.385894	-0.940078	-0.335142
N120	N	0.885894	-0.440078	0.164858
C121	C	0.586981	-1.089169	-0.218858
C122	C	1.086981	-0.589169	0.281142
N123	N	0.612396	-1.104775	-0.283588
N124	N	1.112396	-0.604775	0.216412
C125	C	0.590050	-0.928379	-0.268544
C126	C	1.090050	-0.428379	0.231456
N127	N	0.617435	-0.939541	-0.334031
N128	N	1.117435	-0.439541	0.165969
C129	C	0.409874	-1.090063	-0.217395
C130	C	0.909874	-0.590063	0.282605
N131	N	0.382585	-1.106052	-0.281387
N132	N	0.882585	-0.606052	0.218613
C133	C	0.588233	-1.139438	-0.068493
C134	C	1.088233	-0.639438	0.431507
N135	N	0.614592	-1.192921	-0.019975
N136	N	1.114592	-0.692921	0.480025
H137	H	0.420628	-1.121054	-0.084165
H138	H	0.920628	-0.621054	0.415835
C139	C	0.589909	-0.881077	-0.001718
C140	C	1.089909	-0.381077	0.498282
N141	N	0.617420	-0.818094	0.016781
N142	N	1.117420	-0.318094	0.516781
H143	H	0.420868	-0.898892	-0.012511
H144	H	0.920868	-0.398892	0.487489
H145	H	0.578709	-1.014682	0.024380
H146	H	1.078709	-0.514682	0.524380
C147	C	0.000073	-0.552278	-0.274180
C148	C	0.500073	-0.052278	0.225820
N149	N	0.000085	-0.579961	-0.337574
N150	N	0.500085	-0.079961	0.162426
C151	C	0.410104	-1.025787	0.044784
C152	C	0.910104	-0.525787	0.544784
N153	N	0.382883	-1.073315	0.098754
N154	N	0.882883	-0.573315	0.598754
