data_functionalizedCrystal
_audit_creation_method	'MofGen! by Chris Wilmer'
_symmetry_space_group_name_H-M	'P1'
_symmetry_Int_Tables_number	1
_symmetry_cell_setting	triclinic
loop_
_symmetry_equiv_pos_as_xyz
  x,y,z
_cell_length_a	19.077212
_cell_length_b	19.076808
_cell_length_c	12.759393
_cell_angle_alpha	87.665862
_cell_angle_beta	87.673583
_cell_angle_gamma	94.518968
loop_
_atom_site_label
_atom_site_type_symbol
_atom_site_fract_x
_atom_site_fract_y
_atom_site_fract_z
Zn1	Zn	1.066495	-0.237433	-0.643926
Zn2	Zn	1.061662	-0.355348	-0.460866
Zn3	Zn	0.948596	-0.242194	-0.460880
Zn4	Zn	0.943834	-0.360019	-0.629132
O5	O	1.005147	-0.298748	-0.548701
O6	O	1.164506	-0.249128	-0.625828
O7	O	1.046634	-0.340375	-0.313843
O8	O	0.968251	-0.142904	-0.491358
O9	O	1.160956	-0.335759	-0.491335
O10	O	1.054870	-0.139407	-0.625841
O11	O	0.963565	-0.257241	-0.313853
O12	O	0.849312	-0.261770	-0.477013
O13	O	0.960135	-0.343720	-0.778119
O14	O	0.845814	-0.348336	-0.600627
O15	O	1.050253	-0.253657	-0.788988
O16	O	1.042017	-0.454625	-0.476990
O17	O	0.955449	-0.458057	-0.600614
C18	C	0.821983	-0.306077	-0.537217
C19	C	0.743624	-0.309229	-0.532328
C20	C	0.302348	-0.331807	-0.497314
C21	C	0.375975	-0.328842	-0.501899
C22	C	0.414636	-0.282328	-0.574321
C23	C	0.379666	-0.238773	-0.642153
C24	C	0.306041	-0.241735	-0.637562
C25	C	0.635030	-0.268636	-0.595568
C26	C	0.708660	-0.265678	-0.600157
C27	C	0.704963	-0.355747	-0.459902
C28	C	0.631337	-0.358708	-0.455320
C29	C	0.596374	-0.315150	-0.523149
N30	N	0.489894	-0.279298	-0.579012
N31	N	0.521117	-0.318178	-0.518452
C32	C	0.997711	-0.481921	-0.537219
C33	C	0.994595	-0.560281	-0.532346
C34	C	1.038195	-0.595214	-0.600127
C35	C	1.035264	-0.668841	-0.595551
C36	C	0.988735	-0.707534	-0.523187
C37	C	0.945130	-0.672595	-0.455403
C38	C	0.948058	-0.598970	-0.459985
C39	C	0.975143	-0.927933	-0.501972
C40	C	0.972219	-1.001564	-0.497392
C41	C	1.062353	-0.997804	-0.637542
C42	C	1.065279	-0.924177	-0.642114
C43	C	1.021672	-0.889246	-0.574334
N44	N	0.985740	-0.782792	-0.518505
N45	N	1.024664	-0.813988	-0.579022
C46	C	1.189026	-0.291392	-0.560230
C47	C	1.267384	-0.288257	-0.565143
C48	C	1.005202	-0.298678	-0.822742
C49	C	1.005226	-0.298649	-0.939522
C50	C	1.012631	-0.114859	-0.560251
C51	C	1.015820	-0.036497	-0.565174
C52	C	1.052154	-0.251746	-1.000045
C53	C	1.052167	-0.251715	-1.109772
C54	C	0.958322	-0.345496	-1.098441
C55	C	0.958306	-0.345523	-0.988716
C56	C	1.005134	-0.298765	-0.275731
C57	C	1.005255	-0.298591	-0.158973
H58	H	0.733438	-0.391209	-0.404679
O59	O	0.899869	-0.710073	-0.385078
C60	C	0.862026	-0.663448	-0.326218
H61	H	0.861657	-0.611046	-0.372363
H62	H	0.888181	-0.654596	-0.248563
C63	C	0.786308	-0.759624	-0.247810
C64	C	0.785850	-0.695264	-0.304491
H65	H	0.739320	-0.779250	-0.234403
H66	H	0.811806	-0.791036	-0.287461
H67	H	0.808107	-0.752239	-0.183104
H68	H	0.764060	-0.702651	-0.369200
H69	H	0.760348	-0.663853	-0.264849
O70	O	1.097822	-0.206130	-1.168408
C71	C	1.139215	-0.164753	-1.101453
H72	H	1.140468	-0.193554	-1.021578
H73	H	1.115580	-0.112243	-1.091522
C74	C	1.213127	-0.116208	-1.247732
C75	C	1.214671	-0.151585	-1.149632
H76	H	1.259670	-0.108082	-1.277452
H77	H	1.185238	-0.144082	-1.292842
H78	H	1.193427	-0.072453	-1.239443
H79	H	1.234361	-0.195342	-1.157924
H80	H	1.242565	-0.123718	-1.104524
O81	O	0.912817	-0.391006	-1.146399
C82	C	0.922881	-0.380915	-1.256224
H83	H	0.978229	-0.355646	-1.276079
H84	H	0.882600	-0.345034	-1.287095
C85	C	0.845544	-0.483528	-1.283283
C86	C	0.913526	-0.452498	-1.307670
H87	H	0.839770	-0.527683	-1.315019
H88	H	0.838761	-0.490325	-1.209292
H89	H	0.811984	-0.453621	-1.309010
H90	H	0.947085	-0.482401	-1.281932
H91	H	0.920315	-0.445708	-1.381658
O92	O	1.097628	-0.206176	-0.952139
C93	C	1.059332	-0.162251	-0.889032
H94	H	1.004894	-0.189260	-0.867671
H95	H	1.053715	-0.110306	-0.934120
C96	C	1.165487	-0.114778	-0.814283
C97	C	1.098628	-0.147955	-0.788039
H98	H	1.189727	-0.105956	-0.751988
H99	H	1.191288	-0.144369	-0.856801
H100	H	1.160797	-0.071495	-0.851857
H101	H	1.103320	-0.191241	-0.750478
H102	H	1.072828	-0.118370	-0.745512
H103	H	1.103167	-0.892675	-0.701038
O104	O	0.601104	-0.226402	-0.661610
C105	C	0.618522	-0.241163	-0.766434
H106	H	0.636477	-0.296677	-0.769324
H107	H	0.662803	-0.201673	-0.799021
C108	C	0.531426	-0.167456	-0.829464
C109	C	0.553473	-0.235642	-0.833015
H110	H	0.491302	-0.164047	-0.870537
H111	H	0.519693	-0.157509	-0.758843
H112	H	0.568333	-0.134555	-0.856618
H113	H	0.516570	-0.268540	-0.805849
H114	H	0.565198	-0.245594	-0.903634
O115	O	0.912693	-0.391156	-0.930073
C116	C	0.871276	-0.432516	-0.997020
H117	H	0.900062	-0.433786	-1.076897
H118	H	0.818788	-0.408836	-1.006947
C119	C	0.822700	-0.506406	-0.850730
C120	C	0.858057	-0.507971	-0.948835
H121	H	0.814542	-0.552949	-0.821007
H122	H	0.850601	-0.478540	-0.805626
H123	H	0.778963	-0.486669	-0.859016
H124	H	0.901797	-0.527698	-0.940546
H125	H	0.830163	-0.535842	-0.993937
H126	H	0.740136	-0.227797	-0.659130
H127	H	0.912553	-0.570528	-0.404792
H128	H	0.270875	-0.369687	-0.438345
H129	H	0.404439	-0.364304	-0.446664
H130	H	1.070773	-0.697280	-0.650737
O131	O	0.926953	-1.039045	-0.427068
C132	C	0.889103	-0.992426	-0.368208
H133	H	0.888732	-0.940022	-0.414350
H134	H	0.915252	-0.983575	-0.290549
C135	C	0.813388	-1.088609	-0.289817
C136	C	0.812928	-1.024248	-0.346493
H137	H	0.766400	-1.108239	-0.276418
H138	H	0.838890	-1.120018	-0.329469
H139	H	0.835182	-1.081225	-0.225108
H140	H	0.791142	-1.031634	-0.411206
H141	H	0.787420	-0.992841	-0.306852
H142	H	0.599864	-0.396583	-0.396346
H143	H	0.411150	-0.200898	-0.701116
H144	H	0.277575	-0.206269	-0.692792
O145	O	1.083410	-0.557739	-0.670519
C146	C	1.121274	-0.604364	-0.729347
H147	H	1.090309	-0.658028	-0.727865
H148	H	1.174521	-0.610019	-0.693816
C149	C	1.170567	-0.509254	-0.845426
C150	C	1.132532	-0.575164	-0.843613
H151	H	1.177515	-0.491241	-0.915910
H152	H	1.145059	-0.477841	-0.805791
H153	H	1.214935	-0.513976	-0.815812
H154	H	1.088162	-0.570440	-0.873215
H155	H	1.158032	-0.606575	-0.883257
H156	H	1.097855	-1.026254	-0.692726
H157	H	0.939637	-0.899497	-0.446781
