data_functionalizedCrystal
_audit_creation_method	'MofGen! by Chris Wilmer'
_symmetry_space_group_name_H-M	'P1'
_symmetry_Int_Tables_number	1
_symmetry_cell_setting	triclinic
loop_
_symmetry_equiv_pos_as_xyz
  x,y,z
_cell_length_a	15.944551
_cell_length_b	15.500215
_cell_length_c	15.944551
_cell_angle_alpha	86.816342
_cell_angle_beta	96.501262
_cell_angle_gamma	93.178401
loop_
_atom_site_label
_atom_site_type_symbol
_atom_site_fract_x
_atom_site_fract_y
_atom_site_fract_z
O1	O	1.118003	0.071856	-0.111811
O2	O	0.873455	0.071878	-0.125168
O3	O	1.002407	0.071859	0.003786
O4	O	0.989051	0.071875	-0.240764
O5	O	0.995429	-0.072030	0.010756
O6	O	0.866477	-0.072011	-0.118198
O7	O	1.111025	-0.072033	-0.104841
Cu8	Cu	0.988114	-0.085160	-0.110883
Cu9	Cu	0.996366	0.085005	-0.119126
O10	O	0.982073	-0.072014	-0.233795
C11	C	0.838672	-0.000064	-0.121129
C12	C	0.745426	-0.000056	-0.119467
C13	C	0.530568	-0.000078	-0.035561
C14	C	0.472989	0.070869	-0.077960
C15	C	0.574700	-0.000066	-0.116459
C16	C	0.466131	-0.070994	-0.071108
C17	C	0.409786	-0.000080	-0.113548
C18	C	0.518351	0.070940	-0.158883
C19	C	0.511497	-0.070987	-0.152016
C20	C	0.453936	-0.000022	-0.194475
C21	C	0.669703	-0.000058	-0.118134
C22	C	0.314785	-0.000083	-0.111879
N23	N	0.982316	-0.204846	-0.105085
C24	C	1.031067	-0.250120	-0.153872
C25	C	1.026693	-0.340693	-0.149481
C26	C	0.973563	-0.385990	-0.096309
C27	C	0.924810	-0.340710	-0.047517
C28	C	0.929189	-0.250138	-0.051903
C29	C	0.957797	-0.659458	-0.080511
C30	C	0.953420	-0.750035	-0.076131
C31	C	1.055304	-0.750012	-0.178094
C32	C	1.059675	-0.659439	-0.182479
C33	C	1.010925	-0.614167	-0.133684
C34	C	0.969089	-0.478570	-0.091822
C35	C	1.015404	-0.521588	-0.138167
C36	C	1.145808	-0.000089	-0.108880
C37	C	1.239054	-0.000092	-0.110542
C38	C	0.998363	-0.000086	0.038565
C39	C	0.996701	-0.000086	0.131811
N40	N	1.002171	0.204690	-0.124917
C41	C	0.986117	-0.000067	-0.268574
C42	C	0.987779	-0.000061	-0.361820
C43	C	0.912798	-0.000067	0.346667
C44	C	0.948319	-0.071016	0.411121
C45	C	0.993694	-0.000079	0.302536
C46	C	0.955218	0.070847	0.404232
C47	C	0.990784	-0.000069	0.467449
C48	C	1.029235	-0.071087	0.365765
C49	C	1.036126	0.070840	0.358867
C50	C	1.071705	-0.000127	0.423304
C51	C	0.995368	-0.000086	0.207534
C52	C	0.989116	-0.000068	0.562450
H53	H	0.455787	0.130846	-0.046649
H54	H	1.094994	-0.786883	-0.217820
H55	H	0.563905	0.000005	0.031573
H56	H	0.911194	-0.130993	0.434134
N57	N	1.156003	-0.000192	0.464926
N58	N	1.168438	0.000371	0.543722
H59	H	1.227972	0.000321	0.573121
N60	N	0.907998	-0.613219	-0.030677
N61	N	0.943222	-0.562684	0.022401
H62	H	0.908044	-0.530027	0.057598
N63	N	0.547082	0.146253	-0.205440
N64	N	0.623820	0.158423	-0.214211
H65	H	0.644113	0.211609	-0.247096
N66	N	0.412347	0.000038	-0.278790
N67	N	0.427014	0.061010	-0.330585
H68	H	0.397642	0.061056	-0.390133
N69	N	0.533098	-0.146236	-0.191255
N70	N	0.515255	-0.219850	-0.160117
H71	H	0.530511	-0.273002	-0.187824
N72	N	0.437286	-0.146231	-0.024513
N73	N	0.464448	-0.158856	0.051594
H74	H	0.444079	-0.211989	0.084508
N75	N	0.899135	-0.796294	-0.021815
N76	N	0.855610	-0.755863	0.021744
H77	H	0.817270	-0.788533	0.060100
H78	H	1.074325	-0.213245	-0.197175
N79	N	1.068457	-0.146421	0.344329
N80	N	1.028079	-0.199249	0.296664
H81	H	1.055775	-0.252455	0.281522
N82	N	1.076501	-0.386925	-0.199317
N83	N	1.123933	-0.346471	-0.246791
H84	H	1.159114	-0.379122	-0.281988
N85	N	0.870552	-0.386990	0.006802
N86	N	0.866648	-0.467856	0.010712
H87	H	0.828327	-0.500542	0.049075
H88	H	1.073221	0.130819	0.335832
N89	N	1.113920	-0.613185	-0.236828
N90	N	1.157426	-0.653620	-0.280403
H91	H	1.195726	-0.620954	-0.318801
H92	H	0.845646	-0.000132	0.313362
N93	N	0.879404	-0.203902	-0.002046
N94	N	0.831979	-0.244354	0.045437
H95	H	0.796824	-0.211701	0.080659
N96	N	1.069687	-0.475318	-0.192463
N97	N	1.127659	-0.424779	-0.162137
H98	H	1.165996	-0.392091	-0.200484
H99	H	0.925830	-0.515461	-0.048529
N100	N	0.915916	0.146083	0.425788
N101	N	0.841033	0.158710	0.397404
H102	H	0.813269	0.211842	0.412626
