data_functionalizedCrystal
_audit_creation_method	'MofGen! by Chris Wilmer'
_symmetry_space_group_name_H-M	'P1'
_symmetry_Int_Tables_number	1
_symmetry_cell_setting	triclinic
loop_
_symmetry_equiv_pos_as_xyz
  x,y,z
_cell_length_a	21.295418
_cell_length_b	25.639239
_cell_length_c	25.639243
_cell_angle_alpha	90.009355
_cell_angle_beta	90.022930
_cell_angle_gamma	90.054499
loop_
_atom_site_label
_atom_site_type_symbol
_atom_site_fract_x
_atom_site_fract_y
_atom_site_fract_z
Zn1	Zn	0.962191	-0.208042	0.295888
Zn2	Zn	0.962116	-0.295447	0.208452
Zn3	Zn	0.856952	-0.208051	0.208436
Zn4	Zn	0.856868	-0.295473	0.295826
O5	O	0.909532	-0.251753	0.252150
O6	O	1.050270	-0.219622	0.284322
O7	O	0.948170	-0.283846	0.135285
O8	O	0.870978	-0.134885	0.220056
O9	O	1.050216	-0.283838	0.220083
O10	O	0.948297	-0.134878	0.284306
O11	O	0.870906	-0.219637	0.135273
O12	O	0.768852	-0.219663	0.219996
O13	O	0.870835	-0.283882	0.368999
O14	O	0.768790	-0.283891	0.284201
O15	O	0.948215	-0.219647	0.369045
O16	O	0.948089	-0.368615	0.220023
O17	O	0.870763	-0.368634	0.284217
C18	C	0.745980	-0.251781	0.252090
C19	C	0.676012	-0.251805	0.252077
C20	C	0.643130	-0.285293	0.285458
C21	C	0.577387	-0.285280	0.285482
C22	C	0.544529	-0.251785	0.252114
C23	C	0.577420	-0.218290	0.218731
C24	C	0.643161	-0.218301	0.218712
N25	N	0.441274	-0.247684	0.206385
N26	N	0.378823	-0.247678	0.206404
C27	C	0.346455	-0.251751	0.252170
N28	N	0.378898	-0.255842	0.297917
N29	N	0.441355	-0.255852	0.297897
C30	C	0.473244	-0.251770	0.252131
C31	C	0.242287	-0.285227	0.285580
C32	C	0.176543	-0.285211	0.285604
C33	C	0.176577	-0.218224	0.218848
C34	C	0.242320	-0.218238	0.218828
C35	C	0.275171	-0.251742	0.252194
C36	C	0.909426	-0.387596	0.252126
C37	C	0.909438	-0.445710	0.252134
C38	C	0.949900	-0.806050	0.218782
C39	C	0.949924	-0.860655	0.218789
O40	O	0.984217	-0.888872	0.190406
N41	N	0.909642	-0.887992	0.252185
C42	C	0.869338	-0.860723	0.285580
O43	O	0.835077	-0.888989	0.313987
C44	C	0.869317	-0.806119	0.285575
C45	C	0.909597	-0.778785	0.252173
C46	C	0.990177	-0.778716	0.185383
C47	C	0.990152	-0.724115	0.185376
C48	C	0.949849	-0.696849	0.218767
C49	C	0.909572	-0.724184	0.252166
C50	C	0.829016	-0.778851	0.318973
C51	C	0.828999	-0.724244	0.318965
C52	C	0.869279	-0.696909	0.285563
C53	C	0.869244	-0.642318	0.285550
N54	N	0.909526	-0.614980	0.252153
C55	C	0.949829	-0.642246	0.218762
C56	C	0.869385	-0.975393	0.285588
C57	C	0.869402	-1.029996	0.285591
C58	C	0.949990	-1.029924	0.218800
C59	C	0.949969	-0.975321	0.218795
C60	C	0.909667	-0.948056	0.252192
C61	C	0.949772	-0.527581	0.218748
C62	C	0.949741	-0.472976	0.218742
C63	C	0.869156	-0.473052	0.285535
C64	C	0.869184	-0.527653	0.285539
C65	C	0.909497	-0.554916	0.252144
O66	O	0.834971	-0.614066	0.313920
O67	O	0.984089	-0.613973	0.190365
C68	C	1.073722	-0.251726	0.252211
C69	C	1.143690	-0.251714	0.252237
C70	C	0.909524	-0.251766	0.388523
C71	C	0.909521	-0.251772	0.446637
C72	C	0.909655	-0.115380	0.252186
C73	C	0.909708	-0.057266	0.252201
C74	C	0.869233	-0.285205	0.697802
C75	C	0.869230	-0.285205	0.643197
O76	O	0.834953	-0.313634	0.614936
N77	N	0.909519	-0.251765	0.615911
C78	C	0.949809	-0.218317	0.643233
O79	O	0.984077	-0.189873	0.615010
C80	C	0.949808	-0.218314	0.697836
C81	C	0.909521	-0.251761	0.725119
C82	C	0.828949	-0.318649	0.725085
C83	C	0.828952	-0.318649	0.779685
C84	C	0.869240	-0.285205	0.807003
C85	C	0.909525	-0.251761	0.779719
C86	C	0.990094	-0.184865	0.725156
C87	C	0.990089	-0.184865	0.779763
C88	C	0.949802	-0.218311	0.807046
C89	C	0.949816	-0.218317	0.861637
N90	N	0.909527	-0.251758	0.888923
C91	C	0.869239	-0.285202	0.861606
C92	C	0.949807	-0.218325	0.528562
C93	C	0.949812	-0.218330	0.473960
C94	C	0.869232	-0.285218	0.473928
C95	C	0.869231	-0.285215	0.528531
C96	C	0.909518	-0.251766	0.555848
C97	C	0.869251	-0.285200	0.976271
C98	C	0.869260	-0.285198	1.030876
C99	C	0.949837	-0.218309	1.030903
C100	C	0.949830	-0.218312	0.976303
C101	C	0.909532	-0.251759	0.948988
O102	O	0.984075	-0.189902	0.889934
O103	O	0.834971	-0.313637	0.889835
C104	C	0.909537	-0.251754	1.116308
C105	C	0.909548	-0.251755	1.058194
H106	H	0.269036	-0.312506	0.312750
H107	H	0.982619	-0.191088	0.550800
O108	O	0.675070	-0.317887	0.317799
C109	C	0.713041	-0.351604	0.287964
H110	H	0.693190	-0.354767	0.246784
H111	H	0.762884	-0.335441	0.286178
C112	C	0.738383	-0.402113	0.363989
C113	C	0.713999	-0.406001	0.313413
H114	H	0.738977	-0.435667	0.379688
H115	H	0.712804	-0.379397	0.384090
H116	H	0.779917	-0.388642	0.362495
H117	H	0.672464	-0.419467	0.314909
H118	H	0.739572	-0.428722	0.293312
O119	O	0.830064	-0.317630	0.555090
C120	C	0.789418	-0.287870	0.586653
H121	H	0.811653	-0.248243	0.594849
H122	H	0.742776	-0.282135	0.565591
C123	C	0.750680	-0.365310	0.628445
C124	C	0.777992	-0.316641	0.638515
H125	H	0.743629	-0.383058	0.660435
H126	H	0.778062	-0.385361	0.607179
H127	H	0.711815	-0.360524	0.610892
H128	H	0.816860	-0.321429	0.656062
H129	H	0.750616	-0.296592	0.659785
H130	H	0.149772	-0.312479	0.312791
H131	H	0.982624	-0.191100	0.451750
O132	O	1.029247	-0.152322	0.698743
C133	C	1.064807	-0.122815	0.734573
H134	H	1.039020	-0.121018	0.773487
H135	H	1.112601	-0.141948	0.740394
C136	C	1.105595	-0.069369	0.665491
C137	C	1.073921	-0.067159	0.713284
H138	H	1.111220	-0.035039	0.652358
H139	H	1.081640	-0.089250	0.641351
H140	H	1.145420	-0.085316	0.670348
H141	H	1.034094	-0.051218	0.708425
H142	H	1.097870	-0.047274	0.737423
O143	O	0.545534	-0.317859	0.317929
C144	C	0.588626	-0.347419	0.347387
H145	H	0.635468	-0.349205	0.325955
H146	H	0.595681	-0.328338	0.387128
C147	C	0.505362	-0.400878	0.381153
C148	C	0.562892	-0.403075	0.354828
H149	H	0.489488	-0.435208	0.385746
H150	H	0.476329	-0.380961	0.361309
H151	H	0.511249	-0.384975	0.414268
H152	H	0.557003	-0.418972	0.321712
H153	H	0.591924	-0.422996	0.374667
O154	O	0.830122	-0.554187	0.318057
C155	C	0.843811	-0.540799	0.370177
H156	H	0.894088	-0.525728	0.372865
H157	H	0.810030	-0.509139	0.383803
C158	C	0.774726	-0.607810	0.401773
C159	C	0.836480	-0.589304	0.405075
H160	H	0.770202	-0.637730	0.423301
H161	H	0.765502	-0.616829	0.366659
H162	H	0.746583	-0.581422	0.413128
H163	H	0.864622	-0.615690	0.393714
H164	H	0.845709	-0.580291	0.440188
H165	H	0.796138	-0.345882	0.702849
H166	H	0.669933	-0.191029	0.191528
H167	H	1.022894	-0.157623	0.802001
O168	O	0.988988	-0.185777	0.949877
C169	C	1.024562	-0.156271	0.985700
H170	H	0.998784	-0.154468	1.024618
H171	H	1.072354	-0.175409	0.991515
C172	C	1.065343	-0.102835	0.916608
C173	C	1.033679	-0.100617	0.964405
H174	H	1.070970	-0.068506	0.903472
H175	H	1.041378	-0.122714	0.892473
H176	H	1.105166	-0.118786	0.921460
H177	H	0.993854	-0.084672	0.959552
H178	H	1.057637	-0.080733	0.988539
O179	O	0.789843	-0.351210	0.806123
C180	C	0.803563	-0.403317	0.792780
H181	H	0.827771	-0.404391	0.753146
H182	H	0.835901	-0.420928	0.823522
C183	C	0.712432	-0.433675	0.838893
C184	C	0.742160	-0.434995	0.790213
H185	H	0.674557	-0.453216	0.837312
H186	H	0.703189	-0.398570	0.847885
H187	H	0.739387	-0.448350	0.864507
H188	H	0.715208	-0.420313	0.764602
H189	H	0.751397	-0.470098	0.781217
O190	O	0.144570	-0.185748	0.186438
C191	C	0.079493	-0.192915	0.193616
H192	H	0.070478	-0.233284	0.210687
H193	H	0.060892	-0.161935	0.221504
C194	C	0.056782	-0.138478	0.119760
C195	C	0.045709	-0.188062	0.140722
H196	H	0.035942	-0.135482	0.087133
H197	H	0.100625	-0.133647	0.114925
H198	H	0.041281	-0.112667	0.143004
H199	H	0.061217	-0.213872	0.117481
H200	H	0.001868	-0.192897	0.145552
O201	O	0.545478	-0.185830	0.186258
C202	C	0.507372	-0.215537	0.152453
H203	H	0.527126	-0.256714	0.149146
H204	H	0.457558	-0.217358	0.168627
C205	C	0.482091	-0.139333	0.102207
C206	C	0.506356	-0.189906	0.098142
H207	H	0.481462	-0.123522	0.068706
H208	H	0.507762	-0.119318	0.124983
H209	H	0.440582	-0.140857	0.115687
H210	H	0.547867	-0.188381	0.084669
H211	H	0.480692	-0.209920	0.075363
O212	O	0.830336	-1.056522	0.318109
C213	C	0.844025	-1.043134	0.370229
H214	H	0.894306	-1.028071	0.372918
H215	H	0.810251	-1.011468	0.383853
C216	C	0.774924	-1.110134	0.401825
C217	C	0.836682	-1.091637	0.405128
H218	H	0.770392	-1.140052	0.423353
H219	H	0.765700	-1.119152	0.366710
H220	H	0.746786	-1.083741	0.413177
H221	H	0.864818	-1.118027	0.393770
H222	H	0.845911	-1.082624	0.440241
O223	O	1.029316	-0.697507	0.153006
C224	C	1.069942	-0.665883	0.182813
H225	H	1.047693	-0.657711	0.222409
H226	H	1.116591	-0.686879	0.188613
C227	C	1.108684	-0.624051	0.105416
C228	C	1.081356	-0.614010	0.154048
H229	H	1.115728	-0.592054	0.087672
H230	H	1.081315	-0.645358	0.085334
H231	H	1.147555	-0.641549	0.110256
H232	H	1.042482	-0.596518	0.149206
H233	H	1.108718	-0.592699	0.174128
O234	O	0.989131	-0.948713	0.186424
C235	C	1.029761	-0.917089	0.216229
H236	H	1.007518	-0.908918	0.255827
H237	H	1.076410	-0.938087	0.222025
C238	C	1.068496	-0.875256	0.138830
C239	C	1.041173	-0.865216	0.187464
H240	H	1.075538	-0.843260	0.121086
H241	H	1.041124	-0.896563	0.118749
H242	H	1.107367	-0.892756	0.143667
H243	H	1.002300	-0.847724	0.182626
H244	H	1.068539	-0.843906	0.207543
O245	O	0.830196	-0.948853	0.317954
C246	C	0.789543	-0.917330	0.288143
H247	H	0.811784	-0.909130	0.248544
H248	H	0.742911	-0.938429	0.282347
C249	C	0.750769	-0.875543	0.365533
C250	C	0.778088	-0.865468	0.316899
H251	H	0.743700	-0.843553	0.383272
H252	H	0.778155	-0.896782	0.385618
H253	H	0.711912	-0.893127	0.360697
H254	H	0.816947	-0.847890	0.321737
H255	H	0.750707	-0.844225	0.296815
H256	H	0.269093	-0.190971	0.191643
O257	O	0.789791	-0.697841	0.351426
C258	C	0.754261	-0.733681	0.380916
H259	H	0.752118	-0.772611	0.359500
H260	H	0.777281	-0.739454	0.420647
C261	C	0.689879	-0.664629	0.414691
C262	C	0.687243	-0.712442	0.388386
H263	H	0.648540	-0.651528	0.419302
H264	H	0.713817	-0.640482	0.394825
H265	H	0.709065	-0.669446	0.447798
H266	H	0.668064	-0.707623	0.355278
H267	H	0.663300	-0.736588	0.408247
H268	H	0.836426	-0.312449	0.451676
H269	H	0.982640	-0.191082	1.053155
H270	H	0.982809	-1.052134	0.191613
H271	H	0.982600	-0.549772	0.191556
O272	O	0.988842	-0.446481	0.186222
C273	C	0.975134	-0.459847	0.134100
H274	H	0.950952	-0.499519	0.132998
H275	H	0.942777	-0.429156	0.116450
C276	C	1.066237	-0.413590	0.103848
C277	C	1.036541	-0.462318	0.102494
H278	H	1.104114	-0.415112	0.084351
H279	H	1.075471	-0.404583	0.138963
H280	H	1.039266	-0.388020	0.089140
H281	H	1.063509	-0.487886	0.117207
H282	H	1.027313	-0.471329	0.067380
O283	O	1.029434	-0.805122	0.152969
C284	C	1.092145	-0.791692	0.164485
H285	H	1.093378	-0.752049	0.184602
H286	H	1.113349	-0.822396	0.191378
C287	C	1.128822	-0.837785	0.088853
C288	C	1.130337	-0.789093	0.113557
H289	H	1.152382	-0.836184	0.057439
H290	H	1.086573	-0.846835	0.081096
H291	H	1.146491	-0.863367	0.111270
H292	H	1.112661	-0.763514	0.091143
H293	H	1.172584	-0.780039	0.121310
O294	O	0.830062	-0.317706	1.057298
C295	C	0.794513	-0.347231	1.021473
H296	H	0.792354	-0.325814	0.982554
H297	H	0.817529	-0.386936	1.015665
C298	C	0.730162	-0.381082	1.090561
C299	C	0.727505	-0.354775	1.042761
H300	H	0.688829	-0.385739	1.103693
H301	H	0.754113	-0.361193	1.114697
H302	H	0.749344	-0.414167	1.085715
H303	H	0.708331	-0.321689	1.047609
H304	H	0.703549	-0.374660	1.018626
H305	H	0.796213	-0.801097	0.346170
O306	O	0.830198	-0.317718	0.949682
C307	C	0.866010	-0.351490	0.918116
H308	H	0.913728	-0.333038	0.909950
H309	H	0.872899	-0.390232	0.939159
C310	C	0.772755	-0.383634	0.876267
C311	C	0.831362	-0.360969	0.866234
H312	H	0.751382	-0.389484	0.844265
H313	H	0.748628	-0.360883	0.897536
H314	H	0.778504	-0.415917	0.893805
H315	H	0.825612	-0.328685	0.848703
H316	H	0.855488	-0.383716	0.844962
H317	H	0.836340	-0.450844	0.312720
