data_functionalizedCrystal
_audit_creation_method	'MofGen! by Chris Wilmer'
_symmetry_space_group_name_H-M	'P1'
_symmetry_Int_Tables_number	1
_symmetry_cell_setting	triclinic
loop_
_symmetry_equiv_pos_as_xyz
  x,y,z
_cell_length_a	25.639242
_cell_length_b	29.839132
_cell_length_c	29.839126
_cell_angle_alpha	89.973634
_cell_angle_beta	90.028678
_cell_angle_gamma	89.959210
loop_
_atom_site_label
_atom_site_type_symbol
_atom_site_fract_x
_atom_site_fract_y
_atom_site_fract_z
Zn1	Zn	0.799235	0.178941	0.254107
Zn2	Zn	1.049235	0.428941	0.504107
Zn3	Zn	1.299235	0.678941	0.754107
Zn4	Zn	1.549235	0.928941	1.004107
Zn5	Zn	0.799138	0.254062	0.178974
Zn6	Zn	1.049138	0.504062	0.428974
Zn7	Zn	1.299138	0.754062	0.678974
Zn8	Zn	1.549138	1.004062	0.928974
Zn9	Zn	0.711801	0.178941	0.178977
Zn10	Zn	0.961801	0.428941	0.428977
Zn11	Zn	1.211801	0.678941	0.678977
Zn12	Zn	1.461801	0.928941	0.928977
Zn13	Zn	0.711746	0.254039	0.254063
Zn14	Zn	0.961746	0.504039	0.504063
Zn15	Zn	1.211746	0.754039	0.754063
Zn16	Zn	1.461746	1.004039	1.004063
O17	O	0.755480	0.216496	0.216530
O18	O	1.005480	0.466496	0.466530
O19	O	1.255480	0.716496	0.716530
O20	O	1.505480	0.966496	0.966530
O21	O	0.872387	0.188916	0.244157
O22	O	1.122387	0.438916	0.494157
O23	O	1.372387	0.688916	0.744157
O24	O	1.622387	0.938916	0.994157
O25	O	0.787535	0.244106	0.116107
O26	O	1.037535	0.494106	0.366107
O27	O	1.287535	0.744106	0.616107
O28	O	1.537535	0.994106	0.866107
O29	O	0.723463	0.116074	0.188963
O30	O	0.973463	0.366074	0.438963
O31	O	1.223463	0.616074	0.688963
O32	O	1.473463	0.866074	0.938963
O33	O	0.872316	0.244107	0.188957
O34	O	1.122316	0.494107	0.438957
O35	O	1.372316	0.744107	0.688957
O36	O	1.622316	0.994107	0.938957
O37	O	0.787700	0.116074	0.244160
O38	O	1.037700	0.366074	0.494160
O39	O	1.287700	0.616074	0.744160
O40	O	1.537700	0.866074	0.994160
O41	O	0.723369	0.188915	0.116110
O42	O	0.973369	0.438915	0.366110
O43	O	1.223369	0.688915	0.616110
O44	O	1.473369	0.938915	0.866110
O45	O	0.638629	0.188893	0.188921
O46	O	0.888629	0.438893	0.438921
O47	O	1.138629	0.688893	0.688921
O48	O	1.388629	0.938893	0.938921
O49	O	0.723369	0.244068	0.316936
O50	O	0.973369	0.494068	0.566936
O51	O	1.223369	0.744068	0.816936
O52	O	1.473369	0.994068	1.066936
O53	O	0.638588	0.244067	0.244086
O54	O	0.888588	0.494067	0.494086
O55	O	1.138588	0.744067	0.744086
O56	O	1.388588	0.994067	0.994086
O57	O	0.787647	0.188894	0.316968
O58	O	1.037647	0.438894	0.566968
O59	O	1.287647	0.688894	0.816968
O60	O	1.537647	0.938894	1.066968
O61	O	0.787482	0.316926	0.188915
O62	O	1.037482	0.566926	0.438915
O63	O	1.287482	0.816926	0.688915
O64	O	1.537482	1.066926	0.938915
O65	O	0.723275	0.316909	0.244083
O66	O	0.973275	0.566909	0.494083
O67	O	1.223275	0.816909	0.744083
O68	O	1.473275	1.066909	0.994083
C69	C	0.619638	0.216478	0.216500
C70	C	0.869638	0.466478	0.466500
C71	C	1.119638	0.716478	0.716500
C72	C	1.369638	0.966478	0.966500
C73	C	0.561523	0.216481	0.216497
C74	C	0.811523	0.466481	0.466497
C75	C	1.061523	0.716481	0.716497
C76	C	1.311523	0.966481	0.966497
C77	C	0.755377	0.333218	0.216503
C78	C	1.005377	0.583218	0.466503
C79	C	1.255377	0.833218	0.716503
C80	C	1.505377	1.083218	0.966503
C81	C	0.755380	0.383153	0.216507
C82	C	1.005380	0.633153	0.466507
C83	C	1.255380	0.883153	0.716507
C84	C	1.505380	1.133153	0.966507
C85	C	0.201148	0.245273	0.245228
C86	C	0.451148	0.495273	0.495228
C87	C	0.701148	0.745273	0.745228
C88	C	0.951148	0.995273	0.995228
C89	C	0.146544	0.245276	0.245235
C90	C	0.396544	0.495276	0.495235
C91	C	0.646544	0.745276	0.745235
C92	C	0.896544	0.995276	0.995235
O93	O	0.118297	0.269734	0.269636
O94	O	0.368297	0.519734	0.519636
O95	O	0.618297	0.769734	0.769636
O96	O	0.868297	1.019734	1.019636
N97	N	0.119241	0.216508	0.216560
N98	N	0.369241	0.466508	0.466560
N99	N	0.619241	0.716508	0.716560
N100	N	0.869241	0.966508	0.966560
C101	C	0.146545	0.187733	0.187879
C102	C	0.396545	0.437733	0.437879
C103	C	0.646545	0.687733	0.687879
C104	C	0.896545	0.937733	0.937879
O105	O	0.118308	0.163263	0.163489
O106	O	0.368308	0.413263	0.413489
O107	O	0.618308	0.663263	0.663489
O108	O	0.868308	0.913263	0.913489
C109	C	0.201149	0.187728	0.187874
C110	C	0.451149	0.437728	0.437874
C111	C	0.701149	0.687728	0.687874
C112	C	0.951149	0.937728	0.937874
C113	C	0.228449	0.216501	0.216548
C114	C	0.478449	0.466501	0.466548
C115	C	0.728449	0.716501	0.716548
C116	C	0.978449	0.966501	0.966548
C117	C	0.228448	0.274043	0.273899
C118	C	0.478448	0.524043	0.523899
C119	C	0.728448	0.774043	0.773899
C120	C	0.978448	1.024043	1.023899
C121	C	0.283049	0.274041	0.273892
C122	C	0.533049	0.524041	0.523892
C123	C	0.783049	0.774041	0.773892
C124	C	1.033049	1.024041	1.023892
C125	C	0.310349	0.245269	0.245212
C126	C	0.560349	0.495269	0.495212
C127	C	0.810349	0.745269	0.745212
C128	C	1.060349	0.995269	0.995212
C129	C	0.283049	0.216498	0.216540
C130	C	0.533049	0.466498	0.466540
C131	C	0.783049	0.716498	0.716540
C132	C	1.033049	0.966498	0.966540
C133	C	0.228452	0.158950	0.159196
C134	C	0.478452	0.408950	0.409196
C135	C	0.728452	0.658950	0.659196
C136	C	0.978452	0.908950	0.909196
C137	C	0.283059	0.158948	0.159194
C138	C	0.533059	0.408948	0.409194
C139	C	0.783059	0.658948	0.659194
C140	C	1.033059	0.908948	0.909194
C141	C	0.310359	0.187721	0.187868
C142	C	0.560359	0.437721	0.437868
C143	C	0.810359	0.687721	0.687868
C144	C	1.060359	0.937721	0.937868
C145	C	0.364950	0.187724	0.187853
C146	C	0.614950	0.437724	0.437853
C147	C	0.864950	0.687724	0.687853
C148	C	1.114950	0.937724	0.937853
N149	N	0.392253	0.216492	0.216528
N150	N	0.642253	0.466492	0.466528
N151	N	0.892253	0.716492	0.716528
N152	N	1.142253	0.966492	0.966528
C153	C	0.364953	0.245264	0.245207
C154	C	0.614953	0.495264	0.495207
C155	C	0.864953	0.745264	0.745207
C156	C	1.114953	0.995264	0.995207
C157	C	0.031875	0.187744	0.187891
C158	C	0.281875	0.437744	0.437891
C159	C	0.531875	0.687744	0.687891
C160	C	0.781875	0.937744	0.937891
C161	C	-0.022728	0.187751	0.187893
C162	C	0.227272	0.437751	0.437893
C163	C	0.477272	0.687751	0.687893
C164	C	0.727272	0.937751	0.937893
C165	C	-0.022725	0.245293	0.245249
C166	C	0.227275	0.495293	0.495249
C167	C	0.477275	0.745293	0.745249
C168	C	0.727275	0.995293	0.995249
C169	C	0.031878	0.245289	0.245245
C170	C	0.281878	0.495289	0.495245
C171	C	0.531878	0.745289	0.745245
C172	C	0.781878	0.995289	0.995245
C173	C	0.059178	0.216512	0.216566
C174	C	0.309178	0.466512	0.466566
C175	C	0.559178	0.716512	0.716566
C176	C	0.809178	0.966512	0.966566
C177	C	0.479618	0.245257	0.245189
C178	C	0.729618	0.495257	0.495189
C179	C	0.979618	0.745257	0.745189
C180	C	1.229618	0.995257	0.995189
C181	C	0.534223	0.245254	0.245177
C182	C	0.784223	0.495254	0.495177
C183	C	1.034223	0.745254	0.745177
C184	C	1.284223	0.995254	0.995177
C185	C	0.534216	0.187709	0.187822
C186	C	0.784216	0.437709	0.437822
C187	C	1.034216	0.687709	0.687822
C188	C	1.284216	0.937709	0.937822
C189	C	0.479615	0.187714	0.187832
C190	C	0.729615	0.437714	0.437832
C191	C	0.979615	0.687714	0.687832
C192	C	1.229615	0.937714	0.937832
C193	C	0.452318	0.216490	0.216519
C194	C	0.702318	0.466490	0.466519
C195	C	0.952318	0.716490	0.716519
C196	C	1.202318	0.966490	0.966519
O197	O	0.393232	0.163277	0.163465
O198	O	0.643232	0.413277	0.413465
O199	O	0.893232	0.663277	0.663465
O200	O	1.143232	0.913277	0.913465
O201	O	0.393197	0.269725	0.269597
O202	O	0.643197	0.519725	0.519597
O203	O	0.893197	0.769725	0.769597
O204	O	1.143197	1.019725	1.019597
C205	C	0.788936	0.692792	0.187828
C206	C	1.038936	0.942792	0.437828
C207	C	1.288936	1.192792	0.687828
C208	C	1.538936	1.442792	0.937828
C209	C	0.788986	0.880465	0.187838
C210	C	1.038986	1.130465	0.437838
C211	C	1.288986	1.380465	0.687838
C212	C	1.538986	1.630465	0.937838
O213	O	0.817460	0.904727	0.163446
O214	O	1.067460	1.154727	0.413446
O215	O	1.317460	1.404727	0.663446
O216	O	1.567460	1.654727	0.913446
N217	N	0.755535	0.903938	0.216538
N218	N	1.005535	1.153938	0.466538
N219	N	1.255535	1.403938	0.716538
N220	N	1.505535	1.653938	0.966538
C221	C	0.722071	0.880489	0.245239
C222	C	0.972071	1.130489	0.495239
C223	C	1.222071	1.380489	0.745239
C224	C	1.472071	1.630489	0.995239
O225	O	0.693624	0.904760	0.269653
O226	O	0.943624	1.154760	0.519653
O227	O	1.193624	1.404760	0.769653
O228	O	1.443624	1.654760	1.019653
C229	C	0.722024	0.692817	0.245230
C230	C	0.972024	0.942817	0.495230
C231	C	1.222024	1.192817	0.745230
C232	C	1.472024	1.442817	0.995230
C233	C	0.755474	0.669347	0.216526
C234	C	1.005474	0.919347	0.466526
C235	C	1.255474	1.169347	0.716526
C236	C	1.505474	1.419347	0.966526
C237	C	0.822383	0.669322	0.159126
C238	C	1.072383	0.919322	0.409126
C239	C	1.322383	1.169322	0.659126
C240	C	1.572383	1.419322	0.909126
C241	C	0.822369	0.622407	0.159122
C242	C	1.072369	0.872407	0.409122
C243	C	1.322369	1.122407	0.659122
C244	C	1.572369	1.372407	0.909122
C245	C	0.788906	0.598961	0.187820
C246	C	1.038906	0.848961	0.437820
C247	C	1.288906	1.098961	0.687820
C248	C	1.538906	1.348961	0.937820
C249	C	0.755459	0.622431	0.216522
C250	C	1.005459	0.872431	0.466522
C251	C	1.255459	1.122431	0.716522
C252	C	1.505459	1.372431	0.966522
C253	C	0.688564	0.669369	0.273934
C254	C	0.938564	0.919369	0.523934
C255	C	1.188564	1.169369	0.773934
C256	C	1.438564	1.419369	1.023934
C257	C	0.688556	0.622448	0.273930
C258	C	0.938556	0.872448	0.523930
C259	C	1.188556	1.122448	0.773930
C260	C	1.438556	1.372448	1.023930
C261	C	0.722006	0.598978	0.245225
C262	C	0.972006	0.848978	0.495225
C263	C	1.222006	1.098978	0.745225
C264	C	1.472006	1.348978	0.995225
C265	C	0.721982	0.552071	0.245216
C266	C	0.971982	0.802071	0.495216
C267	C	1.221982	1.052071	0.745216
C268	C	1.471982	1.302071	0.995216
N269	N	0.755433	0.528598	0.216516
N270	N	1.005433	0.778598	0.466516
N271	N	1.255433	1.028598	0.716516
N272	N	1.505433	1.278598	0.966516
C273	C	0.788895	0.552043	0.187818
C274	C	1.038895	0.802043	0.437818
C275	C	1.288895	1.052043	0.687818
C276	C	1.538895	1.302043	0.937818
C277	C	0.722097	0.979020	0.245240
C278	C	0.972097	1.229020	0.495240
C279	C	1.222097	1.479020	0.745240
C280	C	1.472097	1.729020	0.995240
C281	C	0.722108	1.025938	0.245242
C282	C	0.972108	1.275938	0.495242
C283	C	1.222108	1.525938	0.745242
C284	C	1.472108	1.775938	0.995242
C285	C	0.789024	1.025910	0.187842
C286	C	1.039024	1.275910	0.437842
C287	C	1.289024	1.525910	0.687842
C288	C	1.539024	1.775910	0.937842
C289	C	0.789010	0.978992	0.187838
C290	C	1.039010	1.228992	0.437838
C291	C	1.289010	1.478992	0.687838
C292	C	1.539010	1.728992	0.937838
C293	C	0.755549	0.955547	0.216541
C294	C	1.005549	1.205547	0.466541
C295	C	1.255549	1.455547	0.716541
C296	C	1.505549	1.705547	0.966541
C297	C	0.788862	0.453518	0.187812
C298	C	1.038862	0.703518	0.437812
C299	C	1.288862	0.953518	0.687812
C300	C	1.538862	1.203518	0.937812
C301	C	0.788842	0.406598	0.187809
C302	C	1.038842	0.656598	0.437809
C303	C	1.288842	0.906598	0.687809
C304	C	1.538842	1.156598	0.937809
C305	C	0.721929	0.406629	0.245211
C306	C	0.971929	0.656629	0.495211
C307	C	1.221929	0.906629	0.745211
C308	C	1.471929	1.156629	0.995211
C309	C	0.721946	0.453545	0.245212
C310	C	0.971946	0.703545	0.495212
C311	C	1.221946	0.953545	0.745212
C312	C	1.471946	1.203545	0.995212
C313	C	0.755417	0.476988	0.216511
C314	C	1.005417	0.726988	0.466511
C315	C	1.255417	0.976988	0.716511
C316	C	1.505417	1.226988	0.966511
O317	O	0.693527	0.527780	0.269599
O318	O	0.943527	0.777780	0.519599
O319	O	1.193527	1.027780	0.769599
O320	O	1.443527	1.277780	1.019599
O321	O	0.817347	0.527764	0.163415
O322	O	1.067347	0.777764	0.413415
O323	O	1.317347	1.027764	0.663415
O324	O	1.567347	1.277764	0.913415
C325	C	0.788951	0.739708	0.187832
C326	C	1.038951	0.989708	0.437832
C327	C	1.288951	1.239708	0.687832
C328	C	1.538951	1.489708	0.937832
C329	C	0.755504	0.763178	0.216534
C330	C	1.005504	1.013178	0.466534
C331	C	1.255504	1.263178	0.716534
C332	C	1.505504	1.513178	0.966534
C333	C	0.722042	0.739733	0.245232
C334	C	0.972042	0.989733	0.495232
C335	C	1.222042	1.239733	0.745232
C336	C	1.472042	1.489733	0.995232
C337	C	0.755515	0.810096	0.216535
C338	C	1.005515	1.060096	0.466535
C339	C	1.255515	1.310096	0.716535
C340	C	1.505515	1.560096	0.966535
C341	C	0.788977	0.833541	0.187837
C342	C	1.038977	1.083541	0.437837
C343	C	1.288977	1.333541	0.687837
C344	C	1.538977	1.583541	0.937837
C345	C	0.822428	0.810068	0.159138
C346	C	1.072428	1.060068	0.409138
C347	C	1.322428	1.310068	0.659138
C348	C	1.572428	1.560068	0.909138
C349	C	0.822413	0.763153	0.159134
C350	C	1.072413	1.013153	0.409134
C351	C	1.322413	1.263153	0.659134
C352	C	1.572413	1.513153	0.909134
C353	C	0.688590	0.763205	0.273931
C354	C	0.938590	1.013205	0.523931
C355	C	1.188590	1.263205	0.773931
C356	C	1.438590	1.513205	1.023931
C357	C	0.688608	0.810121	0.273933
C358	C	0.938608	1.060121	0.523933
C359	C	1.188608	1.310121	0.773933
C360	C	1.438608	1.560121	1.023933
C361	C	0.722070	0.833566	0.245235
C362	C	0.972070	1.083566	0.495235
C363	C	1.222070	1.333566	0.745235
C364	C	1.472070	1.583566	0.995235
C365	C	0.891853	0.216514	0.216561
C366	C	1.141853	0.466514	0.466561
C367	C	1.391853	0.716514	0.716561
C368	C	1.641853	0.966514	0.966561
C369	C	0.949967	0.216522	0.216574
C370	C	1.199967	0.466522	0.466574
C371	C	1.449967	0.716522	0.716574
C372	C	1.699967	0.966522	0.966574
C373	C	0.755512	0.216479	0.333709
C374	C	1.005512	0.466479	0.583709
C375	C	1.255512	0.716479	0.833709
C376	C	1.505512	0.966479	1.083709
C377	C	0.755526	0.216471	0.383643
C378	C	1.005526	0.466471	0.633643
C379	C	1.255526	0.716471	0.883643
C380	C	1.505526	0.966471	1.133643
C381	C	0.755579	1.099317	0.216557
C382	C	1.005579	1.349317	0.466557
C383	C	1.255579	1.599317	0.716557
C384	C	1.505579	1.849317	0.966557
C385	C	0.755571	1.049383	0.216544
C386	C	1.005571	1.299383	0.466544
C387	C	1.255571	1.549383	0.716544
C388	C	1.505571	1.799383	0.966544
C389	C	0.755478	0.216481	0.099808
C390	C	1.005478	0.466481	0.349808
C391	C	1.255478	0.716481	0.599808
C392	C	1.505478	0.966481	0.849808
C393	C	0.755565	0.216361	0.049874
C394	C	1.005565	0.466361	0.299874
C395	C	1.255565	0.716361	0.549874
C396	C	1.505565	0.966361	0.799874
C397	C	0.722125	0.187688	0.693291
C398	C	0.972125	0.437688	0.943291
C399	C	1.222125	0.687688	1.193291
C400	C	1.472125	0.937688	1.443291
C401	C	0.722140	0.187657	0.880964
C402	C	0.972140	0.437657	1.130964
C403	C	1.222140	0.687657	1.380964
C404	C	1.472140	0.937657	1.630964
O405	O	0.693715	0.163230	0.905233
O406	O	0.943715	0.413230	1.155233
O407	O	1.193715	0.663230	1.405233
O408	O	1.443715	0.913230	1.655233
N409	N	0.755551	0.216387	0.904428
N410	N	1.005551	0.466387	1.154428
N411	N	1.255551	0.716387	1.404428
N412	N	1.505551	0.966387	1.654428
C413	C	0.788958	0.245129	0.880972
C414	C	1.038958	0.495129	1.130972
C415	C	1.288958	0.745129	1.380972
C416	C	1.538958	0.995129	1.630972
O417	O	0.817373	0.269568	0.905236
O418	O	1.067373	0.519568	1.155236
O419	O	1.317373	0.769568	1.405236
O420	O	1.567373	1.019568	1.655236
C421	C	0.788940	0.245162	0.693299
C422	C	1.038940	0.495162	0.943299
C423	C	1.288940	0.745162	1.193299
C424	C	1.538940	0.995162	1.443299
C425	C	0.755531	0.216427	0.669837
C426	C	1.005531	0.466427	0.919837
C427	C	1.255531	0.716427	1.169837
C428	C	1.505531	0.966427	1.419837
C429	C	0.688718	0.158956	0.669829
C430	C	0.938718	0.408956	0.919829
C431	C	1.188718	0.658956	1.169829
C432	C	1.438718	0.908956	1.419829
C433	C	0.688717	0.158962	0.622914
C434	C	0.938717	0.408962	0.872914
C435	C	1.188717	0.658962	1.122914
C436	C	1.438717	0.908962	1.372914
C437	C	0.722123	0.187701	0.599460
C438	C	0.972123	0.437701	0.849460
C439	C	1.222123	0.687701	1.099460
C440	C	1.472123	0.937701	1.349460
C441	C	0.755530	0.216433	0.622922
C442	C	1.005530	0.466433	0.872922
C443	C	1.255530	0.716433	1.122922
C444	C	1.505530	0.966433	1.372922
C445	C	0.822344	0.273906	0.669843
C446	C	1.072344	0.523906	0.919843
C447	C	1.322344	0.773906	1.169843
C448	C	1.572344	1.023906	1.419843
C449	C	0.822336	0.273912	0.622922
C450	C	1.072336	0.523912	0.872922
C451	C	1.322336	0.773912	1.122922
C452	C	1.572336	1.023912	1.372922
C453	C	0.788927	0.245177	0.599460
C454	C	1.038927	0.495177	0.849460
C455	C	1.288927	0.745177	1.099460
C456	C	1.538927	0.995177	1.349460
C457	C	0.788934	0.245178	0.552553
C458	C	1.038934	0.495178	0.802553
C459	C	1.288934	0.745178	1.052553
C460	C	1.538934	0.995178	1.302553
N461	N	0.755523	0.216448	0.529089
N462	N	1.005523	0.466448	0.779089
N463	N	1.255523	0.716448	1.029089
N464	N	1.505523	0.966448	1.279089
C465	C	0.722117	0.187710	0.552542
C466	C	0.972117	0.437710	0.802542
C467	C	1.222117	0.687710	1.052542
C468	C	1.472117	0.937710	1.302542
C469	C	0.788966	0.245109	0.979502
C470	C	1.038966	0.495109	1.229502
C471	C	1.288966	0.745109	1.479502
C472	C	1.538966	0.995109	1.729502
C473	C	0.788971	0.245100	1.026420
C474	C	1.038971	0.495100	1.276420
C475	C	1.288971	0.745100	1.526420
C476	C	1.538971	0.995100	1.776420
C477	C	0.722152	0.187629	1.026409
C478	C	0.972152	0.437629	1.276409
C479	C	1.222152	0.687629	1.526409
C480	C	1.472152	0.937629	1.776409
C481	C	0.722150	0.187636	0.979491
C482	C	0.972150	0.437636	1.229491
C483	C	1.222150	0.687636	1.479491
C484	C	1.472150	0.937636	1.729491
C485	C	0.755555	0.216379	0.956038
C486	C	1.005555	0.466379	1.206038
C487	C	1.255555	0.716379	1.456038
C488	C	1.505555	0.966379	1.706038
C489	C	0.722117	0.187725	0.454016
C490	C	0.972117	0.437725	0.704016
C491	C	1.222117	0.687725	0.954016
C492	C	1.472117	0.937725	1.204016
C493	C	0.722121	0.187733	0.407097
C494	C	0.972121	0.437733	0.657097
C495	C	1.222121	0.687733	0.907097
C496	C	1.472121	0.937733	1.157097
C497	C	0.788937	0.245205	0.407111
C498	C	1.038937	0.495205	0.657111
C499	C	1.288937	0.745205	0.907111
C500	C	1.538937	0.995205	1.157111
C501	C	0.788936	0.245196	0.454027
C502	C	1.038936	0.495196	0.704027
C503	C	1.288936	0.745196	0.954027
C504	C	1.538936	0.995196	1.204027
C505	C	0.755522	0.216455	0.477478
C506	C	1.005522	0.466455	0.727478
C507	C	1.255522	0.716455	0.977478
C508	C	1.505522	0.966455	1.227478
O509	O	0.817340	0.269596	0.528255
O510	O	1.067340	0.519596	0.778255
O511	O	1.317340	0.769596	1.028255
O512	O	1.567340	1.019596	1.278255
O513	O	0.693699	0.163281	0.528270
O514	O	0.943699	0.413281	0.778270
O515	O	1.193699	0.663281	1.028270
O516	O	1.443699	0.913281	1.278270
C517	C	0.722127	0.187682	0.740206
C518	C	0.972127	0.437682	0.990206
C519	C	1.222127	0.687682	1.240206
C520	C	1.472127	0.937682	1.490206
C521	C	0.755534	0.216414	0.763668
C522	C	1.005534	0.466414	1.013668
C523	C	1.255534	0.716414	1.263668
C524	C	1.505534	0.966414	1.513668
C525	C	0.788939	0.245153	0.740215
C526	C	1.038939	0.495153	0.990215
C527	C	1.288939	0.745153	1.240215
C528	C	1.538939	0.995153	1.490215
C529	C	0.755539	0.216405	0.810586
C530	C	1.005539	0.466405	1.060586
C531	C	1.255539	0.716405	1.310586
C532	C	1.505539	0.966405	1.560586
C533	C	0.722133	0.187667	0.834040
C534	C	0.972133	0.437667	1.084040
C535	C	1.222133	0.687667	1.334040
C536	C	1.472133	0.937667	1.584040
C537	C	0.688722	0.158937	0.810575
C538	C	0.938722	0.408937	1.060575
C539	C	1.188722	0.658937	1.310575
C540	C	1.438722	0.908937	1.560575
C541	C	0.688721	0.158943	0.763660
C542	C	0.938721	0.408943	1.013660
C543	C	1.188721	0.658943	1.263660
C544	C	1.438721	0.908943	1.513660
C545	C	0.822350	0.273883	0.763679
C546	C	1.072350	0.523883	1.013679
C547	C	1.322350	0.773883	1.263679
C548	C	1.572350	1.023883	1.513679
C549	C	0.822349	0.273874	0.810595
C550	C	1.072349	0.523874	1.060595
C551	C	1.322349	0.773874	1.310595
C552	C	1.572349	1.023874	1.560595
C553	C	0.788944	0.245135	0.834048
C554	C	1.038944	0.495135	1.084048
C555	C	1.288944	0.745135	1.334048
C556	C	1.538944	0.995135	1.584048
H557	H	0.556448	0.268686	0.268527
H558	H	0.806448	0.518686	0.518527
H559	H	1.056448	0.768686	0.768527
H560	H	1.306448	1.018686	1.018527
C561	C	0.449598	0.276896	0.276757
C562	C	0.699598	0.526896	0.526757
C563	C	0.949598	0.776896	0.776757
C564	C	1.199598	1.026896	1.026757
H565	H	0.473683	0.294025	0.293832
H566	H	0.723683	0.544025	0.543832
H567	H	0.973683	0.794025	0.793832
H568	H	1.223683	1.044025	1.043832
H569	H	0.428334	0.259728	0.296364
H570	H	0.678334	0.509728	0.546364
H571	H	0.928334	0.759728	0.796364
H572	H	1.178334	1.009728	1.046364
H573	H	0.428262	0.296456	0.259551
H574	H	0.678262	0.546456	0.509551
H575	H	0.928262	0.796456	0.759551
H576	H	1.178262	1.046456	1.009551
H577	H	0.694909	0.164320	0.473105
H578	H	0.944909	0.414320	0.723105
H579	H	1.194909	0.664320	0.973105
H580	H	1.444909	0.914320	1.223105
C581	C	-0.052752	0.156103	0.156349
C582	C	0.197248	0.406103	0.406349
C583	C	0.447248	0.656103	0.656349
C584	C	0.697248	0.906103	0.906349
H585	H	-0.028668	0.138967	0.139271
H586	H	0.221332	0.388967	0.389271
H587	H	0.471332	0.638967	0.639271
H588	H	0.721332	0.888967	0.889271
H589	H	-0.074082	0.173259	0.136744
H590	H	0.175918	0.423259	0.386744
H591	H	0.425918	0.673259	0.636744
H592	H	0.675918	0.923259	0.886744
H593	H	-0.074023	0.136551	0.173576
H594	H	0.175977	0.386551	0.423576
H595	H	0.425977	0.636551	0.673576
H596	H	0.675977	0.886551	0.923576
H597	H	0.816182	0.268494	1.045519
H598	H	1.066182	0.518494	1.295519
H599	H	1.316182	0.768494	1.545519
H600	H	1.566182	1.018494	1.795519
H601	H	0.305272	0.297470	0.297242
H602	H	0.555272	0.547470	0.547242
H603	H	0.805272	0.797470	0.797242
H604	H	1.055272	1.047470	1.047242
H605	H	0.694866	1.045043	0.268612
H606	H	0.944866	1.295043	0.518612
H607	H	1.194866	1.545043	0.768612
H608	H	1.444866	1.795043	1.018612
C609	C	0.564253	0.156060	0.156279
C610	C	0.814253	0.406060	0.406279
C611	C	1.064253	0.656060	0.656279
C612	C	1.314253	0.906060	0.906279
H613	H	0.600682	0.160178	0.160388
H614	H	0.850682	0.410178	0.410388
H615	H	1.100682	0.660178	0.660388
H616	H	1.350682	0.910178	0.910388
H617	H	0.555282	0.162587	0.126081
H618	H	0.805282	0.412587	0.376081
H619	H	1.055282	0.662587	0.626081
H620	H	1.305282	0.912587	0.876081
H621	H	0.555333	0.125884	0.162918
H622	H	0.805333	0.375884	0.412918
H623	H	1.055333	0.625884	0.662918
H624	H	1.305333	0.875884	0.912918
C625	C	0.859192	0.695105	0.127553
C626	C	1.109192	0.945105	0.377553
C627	C	1.359192	1.195105	0.627553
C628	C	1.609192	1.445105	0.877553
H629	H	0.879104	0.674401	0.110459
H630	H	1.129104	0.924401	0.360459
H631	H	1.379104	1.174401	0.610459
H632	H	1.629104	1.424401	0.860459
H633	H	0.881970	0.713383	0.144753
H634	H	1.131970	0.963383	0.394753
H635	H	1.381970	1.213383	0.644753
H636	H	1.631970	1.463383	0.894753
H637	H	0.839205	0.713429	0.107957
H638	H	1.089205	0.963429	0.357957
H639	H	1.339205	1.213429	0.607957
H640	H	1.589205	1.463429	0.857957
C641	C	0.825678	0.276817	0.381307
C642	C	1.075678	0.526817	0.631307
C643	C	1.325678	0.776817	0.881307
C644	C	1.575678	1.026817	1.131307
H645	H	0.820885	0.272707	0.350004
H646	H	1.070885	0.522707	0.600004
H647	H	1.320885	0.772707	0.850004
H648	H	1.570885	1.022707	1.100004
H649	H	0.860817	0.270252	0.389007
H650	H	1.110817	0.520252	0.639007
H651	H	1.360817	0.770252	0.889007
H652	H	1.610817	1.020252	1.139007
H653	H	0.817989	0.307001	0.388983
H654	H	1.067989	0.557001	0.638983
H655	H	1.317989	0.807001	0.888983
H656	H	1.567989	1.057001	1.138983
C657	C	0.198426	0.305696	0.305449
C658	C	0.448426	0.555696	0.555449
C659	C	0.698426	0.805696	0.805449
C660	C	0.948426	1.055696	1.055449
H661	H	0.222513	0.322829	0.322519
H662	H	0.472513	0.572829	0.572519
H663	H	0.722513	0.822829	0.822519
H664	H	0.972513	1.072829	1.072519
H665	H	0.177150	0.288546	0.325061
H666	H	0.427150	0.538546	0.575061
H667	H	0.677150	0.788546	0.825061
H668	H	0.927150	1.038546	1.075061
H669	H	0.177102	0.325253	0.288227
H670	H	0.427102	0.575253	0.538227
H671	H	0.677102	0.825253	0.788227
H672	H	0.927102	1.075253	1.038227
H673	H	0.849651	0.744047	0.135760
H674	H	1.099651	0.994047	0.385760
H675	H	1.349651	1.244047	0.635760
H676	H	1.599651	1.494047	0.885760
H677	H	-0.044963	0.268720	0.268603
H678	H	0.205037	0.518720	0.518603
H679	H	0.455037	0.768720	0.768603
H680	H	0.705037	1.018720	1.018603
C681	C	0.825641	0.380783	0.156235
C682	C	1.075641	0.630783	0.406235
C683	C	1.325641	0.880783	0.656235
C684	C	1.575641	1.130783	0.906235
H685	H	0.845575	0.401469	0.139148
H686	H	1.095575	0.651469	0.389148
H687	H	1.345575	0.901469	0.639148
H688	H	1.595575	1.151469	0.889148
H689	H	0.805651	0.362507	0.136639
H690	H	1.055651	0.612507	0.386639
H691	H	1.305651	0.862507	0.636639
H692	H	1.555651	1.112507	0.886639
H693	H	0.848407	0.362454	0.173443
H694	H	1.098407	0.612454	0.423443
H695	H	1.348407	0.862454	0.673443
H696	H	1.598407	1.112454	0.923443
C697	C	0.859102	0.305485	0.836398
C698	C	1.109102	0.555485	1.086398
C699	C	1.359102	0.805485	1.336398
C700	C	1.609102	1.055485	1.586398
H701	H	0.878991	0.322603	0.815706
H702	H	1.128991	0.572603	1.065706
H703	H	1.378991	0.822603	1.315706
H704	H	1.628991	1.072603	1.565706
H705	H	0.881904	0.288306	0.854717
H706	H	1.131904	0.538306	1.104717
H707	H	1.381904	0.788306	1.354717
H708	H	1.631904	1.038306	1.604717
H709	H	0.839076	0.325056	0.854683
H710	H	1.089076	0.575056	1.104683
H711	H	1.339076	0.825056	1.354683
H712	H	1.589076	1.075056	1.604683
H713	H	0.054102	0.268718	0.268594
H714	H	0.304102	0.518718	0.518594
H715	H	0.554102	0.768718	0.768594
H716	H	0.804102	1.018718	1.018594
H717	H	0.816169	0.268517	0.960411
H718	H	1.066169	0.518517	1.210411
H719	H	1.316169	0.768517	1.460411
H720	H	1.566169	1.018517	1.710411
C721	C	0.061899	0.156093	0.156337
C722	C	0.311899	0.406093	0.406337
C723	C	0.561899	0.656093	0.656337
C724	C	0.811899	0.906093	0.906337
H725	H	0.037815	0.138965	0.139259
H726	H	0.287815	0.388965	0.389259
H727	H	0.537815	0.638965	0.639259
H728	H	0.787815	0.888965	0.889259
H729	H	0.083227	0.136538	0.173552
H730	H	0.333227	0.386538	0.423552
H731	H	0.583227	0.636538	0.673552
H732	H	0.833227	0.886538	0.923552
H733	H	0.083172	0.173251	0.136725
H734	H	0.333172	0.423251	0.386725
H735	H	0.583172	0.673251	0.636725
H736	H	0.833172	0.923251	0.886725
C737	C	0.198433	0.127296	0.127658
C738	C	0.448433	0.377296	0.377658
C739	C	0.698433	0.627296	0.627658
C740	C	0.948433	0.877296	0.877658
H741	H	0.222520	0.110158	0.110584
H742	H	0.472520	0.360158	0.360584
H743	H	0.722520	0.610158	0.610584
H744	H	0.972520	0.860158	0.860584
H745	H	0.177103	0.144447	0.108049
H746	H	0.427103	0.394447	0.358049
H747	H	0.677103	0.644447	0.608049
H748	H	0.927103	0.894447	0.858049
H749	H	0.177163	0.107745	0.144887
H750	H	0.427163	0.357745	0.394887
H751	H	0.677163	0.607745	0.644887
H752	H	0.927163	0.857745	0.894887
C753	C	0.313085	0.127292	0.127647
C754	C	0.563085	0.377292	0.377647
C755	C	0.813085	0.627292	0.627647
C756	C	1.063085	0.877292	0.877647
H757	H	0.289002	0.110161	0.110571
H758	H	0.539002	0.360161	0.360571
H759	H	0.789002	0.610161	0.610571
H760	H	1.039002	0.860161	0.860571
H761	H	0.334414	0.107741	0.144866
H762	H	0.584414	0.357741	0.394866
H763	H	0.834414	0.607741	0.644866
H764	H	1.084414	0.857741	0.894866
H765	H	0.334357	0.144449	0.108033
H766	H	0.584357	0.394449	0.358033
H767	H	0.834357	0.644449	0.608033
H768	H	1.084357	0.894449	0.858033
C769	C	0.859103	0.305493	0.737886
C770	C	1.109103	0.555493	0.987886
C771	C	1.359103	0.805493	1.237886
C772	C	1.609103	1.055493	1.487886
H773	H	0.879002	0.322598	0.758584
H774	H	1.129002	0.572598	1.008584
H775	H	1.379002	0.822598	1.258584
H776	H	1.629002	1.072598	1.508584
H777	H	0.839089	0.325071	0.719567
H778	H	1.089089	0.575071	0.969567
H779	H	1.339089	0.825071	1.219567
H780	H	1.589089	1.075071	1.469567
H781	H	0.881903	0.288309	0.719602
H782	H	1.131903	0.538309	0.969602
H783	H	1.381903	0.788309	1.219602
H784	H	1.631903	1.038309	1.469602
H785	H	0.661510	0.135565	0.603815
H786	H	0.911510	0.385565	0.853815
H787	H	1.161510	0.635565	1.103815
H788	H	1.411510	0.885565	1.353815
H789	H	0.694953	0.164228	1.045513
H790	H	0.944953	0.414228	1.295513
H791	H	1.194953	0.664228	1.545513
H792	H	1.444953	0.914228	1.795513
H793	H	0.816118	0.472599	0.164442
H794	H	1.066118	0.722599	0.414442
H795	H	1.316118	0.972599	0.664442
H796	H	1.566118	1.222599	0.914442
H797	H	0.457386	0.164286	0.164483
H798	H	0.707386	0.414286	0.414483
H799	H	0.957386	0.664286	0.664483
H800	H	1.207386	0.914286	0.914483
H801	H	0.694710	0.472655	0.268587
H802	H	0.944710	0.722655	0.518587
H803	H	1.194710	0.972655	0.768587
H804	H	1.444710	1.222655	1.018587
H805	H	0.661308	0.603362	0.297304
H806	H	0.911308	0.853362	0.547304
H807	H	1.161308	1.103362	0.797304
H808	H	1.411308	1.353362	1.047304
H809	H	0.849607	0.603300	0.135749
H810	H	1.099607	0.853300	0.385749
H811	H	1.349607	1.103300	0.635749
H812	H	1.599607	1.353300	0.885749
C813	C	0.859083	0.305530	0.597127
C814	C	1.109083	0.555530	0.847127
C815	C	1.359083	0.805530	1.097127
C816	C	1.609083	1.055530	1.347127
H817	H	0.878981	0.322638	0.617822
H818	H	1.128981	0.572638	0.867822
H819	H	1.378981	0.822638	1.117822
H820	H	1.628981	1.072638	1.367822
H821	H	0.839062	0.325104	0.578810
H822	H	1.089062	0.575104	0.828810
H823	H	1.339062	0.825104	1.078810
H824	H	1.589062	1.075104	1.328810
H825	H	0.881885	0.288350	0.578839
H826	H	1.131885	0.538350	0.828839
H827	H	1.381885	0.788350	1.078839
H828	H	1.631885	1.038350	1.328839
H829	H	0.849550	0.297305	0.688938
H830	H	1.099550	0.547305	0.938938
H831	H	1.349550	0.797305	1.188938
H832	H	1.599550	1.047305	1.438938
H833	H	0.816248	0.959885	0.164465
H834	H	1.066248	1.209885	0.414465
H835	H	1.316248	1.459885	0.664465
H836	H	1.566248	1.709885	0.914465
C837	C	0.685128	0.380836	0.276781
C838	C	0.935128	0.630836	0.526781
C839	C	1.185128	0.880836	0.776781
C840	C	1.435128	1.130836	1.026781
H841	H	0.665206	0.401531	0.293877
H842	H	0.915206	0.651531	0.543877
H843	H	1.165206	0.901531	0.793877
H844	H	1.415206	1.151531	1.043877
H845	H	0.705118	0.362508	0.296368
H846	H	0.955118	0.612508	0.546368
H847	H	1.205118	0.862508	0.796368
H848	H	1.455118	1.112508	1.046368
H849	H	0.662350	0.362559	0.259575
H850	H	0.912350	0.612559	0.509575
H851	H	1.162350	0.862559	0.759575
H852	H	1.412350	1.112559	1.009575
C853	C	0.651966	0.127339	0.737858
C854	C	0.901966	0.377339	0.987858
C855	C	1.151966	0.627339	1.237858
C856	C	1.401966	0.877339	1.487858
H857	H	0.632070	0.110228	0.758551
H858	H	0.882070	0.360228	1.008551
H859	H	1.132070	0.610228	1.258551
H860	H	1.382070	0.860228	1.508551
H861	H	0.671979	0.107767	0.719567
H862	H	0.921979	0.357767	0.969567
H863	H	1.171979	0.607767	1.219567
H864	H	1.421979	0.857767	1.469567
H865	H	0.629162	0.144527	0.719544
H866	H	0.879162	0.394527	0.969544
H867	H	1.129162	0.644527	1.219544
H868	H	1.379162	0.894527	1.469544
H869	H	0.816270	1.045007	0.164475
H870	H	1.066270	1.295007	0.414475
H871	H	1.316270	1.545007	0.664475
H872	H	1.566270	1.795007	0.914475
C873	C	0.685393	0.156034	0.953687
C874	C	0.935393	0.406034	1.203687
C875	C	1.185393	0.656034	1.453687
C876	C	1.435393	0.906034	1.703687
H877	H	0.665497	0.138921	0.974379
H878	H	0.915497	0.388921	1.224379
H879	H	1.165497	0.638921	1.474379
H880	H	1.415497	0.888921	1.724379
H881	H	0.705404	0.136464	0.935393
H882	H	0.955404	0.386464	1.185393
H883	H	1.205404	0.636464	1.435393
H884	H	1.455404	0.886464	1.685393
H885	H	0.662590	0.173225	0.935375
H886	H	0.912590	0.423225	1.185375
H887	H	1.162590	0.673225	1.435375
H888	H	1.412590	0.923225	1.685375
H889	H	0.694848	0.959935	0.268614
H890	H	0.944848	1.209935	0.518614
H891	H	1.194848	1.459935	0.768614
H892	H	1.444848	1.709935	1.018614
C893	C	0.651772	0.695176	0.305512
C894	C	0.901772	0.945176	0.555512
C895	C	1.151772	1.195176	0.805512
C896	C	1.401772	1.445176	1.055512
H897	H	0.631851	0.674487	0.322605
H898	H	0.881851	0.924487	0.572605
H899	H	1.131851	1.174487	0.822605
H900	H	1.381851	1.424487	1.072605
H901	H	0.629003	0.713508	0.288315
H902	H	0.879003	0.963508	0.538315
H903	H	1.129003	1.213508	0.788315
H904	H	1.379003	1.463508	1.038315
H905	H	0.671770	0.713450	0.325109
H906	H	0.921770	0.963450	0.575109
H907	H	1.171770	1.213450	0.825109
H908	H	1.421770	1.463450	1.075109
H909	H	0.849672	0.829166	0.135770
H910	H	1.099672	1.079166	0.385770
H911	H	1.349672	1.329166	0.635770
H912	H	1.599672	1.579166	0.885770
C913	C	0.651811	0.835933	0.305511
C914	C	0.901811	1.085933	0.555511
C915	C	1.151811	1.335933	0.805511
C916	C	1.401811	1.585933	1.055511
H917	H	0.631886	0.815246	0.322603
H918	H	0.881886	1.065246	0.572603
H919	H	1.131886	1.315246	0.822603
H920	H	1.381886	1.565246	1.072603
H921	H	0.629045	0.854267	0.288312
H922	H	0.879045	1.104267	0.538312
H923	H	1.129045	1.354267	0.788312
H924	H	1.379045	1.604267	1.038312
H925	H	0.671810	0.854205	0.325108
H926	H	0.921810	1.104205	0.575108
H927	H	1.171810	1.354205	0.825108
H928	H	1.421810	1.604205	1.075108
H929	H	0.816147	0.268590	0.473131
H930	H	1.066147	0.518590	0.723131
H931	H	1.316147	0.768590	0.973131
H932	H	1.566147	1.018590	1.223131
C933	C	0.651972	0.127330	0.836380
C934	C	0.901972	0.377330	1.086380
C935	C	1.151972	0.627330	1.336380
C936	C	1.401972	0.877330	1.586380
H937	H	0.656757	0.131448	0.867682
H938	H	0.906757	0.381448	1.117682
H939	H	1.156757	0.631448	1.367682
H940	H	1.406757	0.881448	1.617682
H941	H	0.659645	0.097144	0.828709
H942	H	0.909645	0.347144	1.078709
H943	H	1.159645	0.597144	1.328709
H944	H	1.409645	0.847144	1.578709
H945	H	0.616834	0.133909	0.828676
H946	H	0.866834	0.383909	1.078676
H947	H	1.116834	0.633909	1.328676
H948	H	1.366834	0.883909	1.578676
C949	C	0.685365	0.156126	0.381291
C950	C	0.935365	0.406126	0.631291
C951	C	1.185365	0.656126	0.881291
C952	C	1.435365	0.906126	1.131291
H953	H	0.665467	0.139014	0.401982
H954	H	0.915467	0.389014	0.651982
H955	H	1.165467	0.639014	0.901982
H956	H	1.415467	0.889014	1.151982
H957	H	0.705380	0.136555	0.363001
H958	H	0.955380	0.386555	0.613001
H959	H	1.205380	0.636555	0.863001
H960	H	1.455380	0.886555	1.113001
H961	H	0.662564	0.173315	0.362976
H962	H	0.912564	0.423315	0.612976
H963	H	1.162564	0.673315	0.862976
H964	H	1.412564	0.923315	1.112976
H965	H	0.661513	0.135553	0.688920
H966	H	0.911513	0.385553	0.938920
H967	H	1.161513	0.635553	1.188920
H968	H	1.411513	0.885553	1.438920
H969	H	0.661342	0.744120	0.297301
H970	H	0.911342	0.994120	0.547301
H971	H	1.161342	1.244120	0.797301
H972	H	1.411342	1.494120	1.047301
