data_functionalizedCrystal
_audit_creation_method	'MofGen! by Chris Wilmer'
_symmetry_space_group_name_H-M	'P1'
_symmetry_Int_Tables_number	1
_symmetry_cell_setting	triclinic
loop_
_symmetry_equiv_pos_as_xyz
  x,y,z
_cell_length_a	10.654541
_cell_length_b	15.995292
_cell_length_c	9.730217
_cell_angle_alpha	89.999943
_cell_angle_beta	89.999932
_cell_angle_gamma	83.976272
loop_
_atom_site_label
_atom_site_type_symbol
_atom_site_fract_x
_atom_site_fract_y
_atom_site_fract_z
O1	O	1.666266	0.117594	-0.114237
O2	O	1.300637	0.128801	-0.114248
O3	O	1.493484	0.001365	-0.114244
O4	O	1.473418	0.245031	-0.114241
O5	O	1.493478	0.001364	0.114336
O6	O	1.300631	0.128800	0.114332
O7	O	1.666260	0.117593	0.114343
Zn8	Zn	1.483444	0.123196	0.150629
Zn9	Zn	1.483452	0.123198	-0.150535
O10	O	1.473412	0.245029	0.114339
C11	C	1.253847	0.127978	0.000040
C12	C	1.114436	0.125518	0.000036
C13	C	1.492664	-0.029836	0.000042
C14	C	1.490216	-0.122803	0.000032
C15	C	1.084427	0.277902	0.000021
C16	C	1.003929	0.352935	0.000008
C17	C	0.872942	0.350618	0.000006
C18	C	0.822451	0.273260	0.000022
C19	C	0.902949	0.198227	0.000035
C20	C	1.033938	0.200552	0.000033
C21	C	0.932958	0.045844	0.000060
C22	C	1.063946	0.048159	0.000052
C23	C	0.882468	-0.031514	0.000076
C24	C	0.962966	-0.106549	0.000079
C25	C	1.093960	-0.104228	0.000079
C26	C	1.144443	-0.026873	0.000065
C27	C	1.481215	-0.460594	0.000044
C28	C	1.620407	-0.436474	0.000559
C29	C	1.623052	-0.339783	0.000039
C30	C	1.485681	-0.293012	0.000039
C31	C	1.416095	-0.322516	-0.130490
C32	C	1.414420	-0.419316	-0.130594
C33	C	1.411570	-0.419191	0.129344
C34	C	1.416729	-0.322669	0.131065
C35	C	1.488198	-0.198301	0.000031
C36	C	1.478694	-0.555304	0.000042
C37	C	1.713050	0.118416	0.000051
C38	C	1.852460	0.120877	0.000047
C39	C	1.474232	0.276230	0.000050
C40	C	1.476680	0.369198	0.000051
N41	N	1.483448	0.123195	0.356166
N42	N	1.483458	0.123193	-0.356071
C43	C	1.654284	0.010383	0.356160
C44	C	1.739710	-0.046020	0.428097
C45	C	1.739723	-0.046020	0.571976
C46	C	1.654297	0.010387	0.643923
C47	C	1.568871	0.066790	0.571986
C48	C	1.568870	0.066786	0.428103
C49	C	1.398032	0.179596	0.571992
C50	C	1.398023	0.179602	0.428112
C51	C	1.312607	0.236004	0.643938
C52	C	1.227185	0.292412	0.572001
C53	C	1.227176	0.292411	0.428113
C54	C	1.312597	0.236006	0.356175
H55	H	1.191082	0.279797	-0.000008
O56	O	1.144086	0.347228	0.641674
C57	C	0.974678	0.459153	0.626511
C58	C	1.068701	0.397106	0.547430
H59	H	0.913722	0.499507	0.550350
H60	H	0.911882	0.422645	0.693829
H61	H	1.028894	0.501281	0.693918
H62	H	1.014587	0.354962	0.479949
H63	H	1.131496	0.433666	0.480200
O64	O	0.913712	-0.181614	0.000036
C65	C	0.725211	-0.252718	0.000148
C66	C	0.780828	-0.167648	0.000168
H67	H	0.617768	-0.241455	0.000284
H68	H	0.758262	-0.289853	-0.095533
H69	H	0.758444	-0.289830	0.095788
H70	H	0.747621	-0.130467	-0.095407
H71	H	0.747784	-0.130576	0.095912
O72	O	1.822644	-0.100926	0.641716
C73	C	1.896236	-0.246065	0.685831
C74	C	1.802283	-0.183977	0.606740
H75	H	1.879789	-0.313225	0.657604
H76	H	1.996839	-0.234602	0.657518
H77	H	1.881577	-0.236327	0.801014
H78	H	1.816827	-0.193678	0.491538
H79	H	1.701714	-0.195455	0.635167
H80	H	1.677550	-0.320442	0.093605
H81	H	0.775810	-0.033395	0.000082
H82	H	1.674056	-0.464160	0.094166
H83	H	1.673762	-0.465182	-0.092520
O84	O	1.053039	0.428056	-0.000250
C85	C	1.183579	0.519086	-0.118637
C86	C	1.128027	0.433994	-0.118539
H87	H	1.244241	0.523907	-0.214249
H88	H	1.103596	0.572350	-0.118732
H89	H	1.244099	0.523973	-0.022933
H90	H	1.067522	0.429025	-0.214227
H91	H	1.208070	0.380771	-0.118373
O92	O	1.472009	-0.450846	-0.247029
C93	C	1.577447	-0.420391	-0.457459
C94	C	1.512279	-0.384580	-0.325637
H95	H	1.610000	-0.366831	-0.521064
H96	H	1.662491	-0.466397	-0.428922
H97	H	1.508006	-0.454461	-0.520028
H98	H	1.581622	-0.350469	-0.263006
H99	H	1.427216	-0.338617	-0.354268
H100	H	1.157607	0.338338	0.369549
H101	H	1.677877	-0.321060	-0.093689
O102	O	1.171973	-0.177196	0.000029
C103	C	1.187898	-0.328588	0.000139
C104	C	1.099412	-0.246015	0.000165
H105	H	1.129268	-0.384250	0.000278
H106	H	1.249947	-0.331379	-0.095547
H107	H	1.250002	-0.331261	0.095774
H108	H	1.037229	-0.243287	-0.095405
H109	H	1.037449	-0.243259	0.095914
H110	H	0.807399	0.411716	0.000005
H111	H	0.715793	0.271380	0.000038
H112	H	1.312363	-0.434458	-0.136508
H113	H	1.251098	-0.024977	0.000048
H114	H	1.315008	-0.291235	-0.135342
O115	O	1.473570	-0.298148	-0.246420
C116	C	1.452100	-0.217679	-0.456019
C117	C	1.386856	-0.245193	-0.324774
H118	H	1.382013	-0.174875	-0.519419
H119	H	1.535646	-0.182292	-0.426737
H120	H	1.486928	-0.275560	-0.519114
H121	H	1.351949	-0.187357	-0.261619
H122	H	1.303368	-0.280610	-0.354152
O123	O	1.463573	-0.452739	0.247284
C124	C	1.512400	-0.577799	0.383349
C125	C	1.453480	-0.539916	0.249724
H126	H	1.504236	-0.648284	0.385379
H127	H	1.616147	-0.566393	0.388196
H128	H	1.460352	-0.546742	0.475454
H129	H	1.505428	-0.570948	0.157544
H130	H	1.349726	-0.551312	0.244998
H131	H	1.467398	-0.303810	0.227628
H132	H	1.309115	-0.433776	0.130223
O133	O	1.297171	-0.283952	0.140671
C134	C	1.148392	-0.194229	0.275126
C135	C	1.283845	-0.238010	0.264416
H136	H	1.137566	-0.157089	0.375180
H137	H	1.128712	-0.149666	0.184416
H138	H	1.078585	-0.243578	0.273744
H139	H	1.353739	-0.188720	0.265836
H140	H	1.303418	-0.282589	0.355120
H141	H	1.654292	0.010385	0.239005
H142	H	1.809260	-0.091948	0.369506
H143	H	1.654303	0.010376	0.761077
H144	H	1.312602	0.236003	0.239021
H145	H	1.312616	0.235997	0.761093
