data_functionalizedCrystal
_audit_creation_method	'MofGen! by Chris Wilmer'
_symmetry_space_group_name_H-M	'P1'
_symmetry_Int_Tables_number	1
_symmetry_cell_setting	triclinic
loop_
_symmetry_equiv_pos_as_xyz
  x,y,z
_cell_length_a	12.759401
_cell_length_b	16.625546
_cell_length_c	16.625539
_cell_angle_alpha	90.028532
_cell_angle_beta	90.013955
_cell_angle_gamma	90.021512
loop_
_atom_site_label
_atom_site_type_symbol
_atom_site_fract_x
_atom_site_fract_y
_atom_site_fract_z
Zn1	Zn	1.606151	-0.321036	0.455831
Zn2	Zn	2.106151	0.178964	0.955831
Zn3	Zn	1.606035	-0.455874	0.320993
Zn4	Zn	2.106035	0.044126	0.820993
Zn5	Zn	1.430467	-0.321057	0.321019
Zn6	Zn	1.930467	0.178943	0.821019
Zn7	Zn	1.430418	-0.455828	0.455790
Zn8	Zn	1.930418	0.044172	0.955790
O9	O	1.518268	-0.388449	0.388408
O10	O	2.018268	0.111551	0.888408
O11	O	1.753157	-0.338933	0.437951
O12	O	2.253157	0.161067	0.937951
O13	O	1.582718	-0.438019	0.208164
O14	O	2.082718	0.061981	0.708164
O15	O	1.453841	-0.208222	0.338929
O16	O	1.953841	0.291778	0.838929
O17	O	1.753072	-0.437998	0.338886
O18	O	2.253072	0.062002	0.838886
O19	O	1.582915	-0.208206	0.437975
O20	O	2.082915	0.291794	0.937975
O21	O	1.453729	-0.338970	0.208183
O22	O	1.953729	0.161030	0.708183
O23	O	1.283439	-0.338924	0.338890
O24	O	1.783439	0.161076	0.838890
O25	O	1.453757	-0.437919	0.568628
O26	O	1.953757	0.062081	1.068628
O27	O	1.283403	-0.437940	0.437906
O28	O	1.783403	0.062060	0.937906
O29	O	1.582867	-0.338888	0.568658
O30	O	2.082867	0.161112	1.068658
O31	O	1.582670	-0.568701	0.338847
O32	O	2.082670	-0.068701	0.838847
O33	O	1.453645	-0.568666	0.437882
O34	O	1.953645	-0.068666	0.937882
C35	C	1.245300	-0.388430	0.388397
C36	C	1.745300	0.111570	0.888397
C37	C	1.128524	-0.388441	0.388411
C38	C	1.628524	0.111559	0.888411
C39	C	1.073699	-0.336955	0.440074
C40	C	1.573699	0.163045	0.940074
C41	C	0.963975	-0.336971	0.440079
C42	C	1.463975	0.163029	0.940079
C43	C	0.963910	-0.439965	0.336756
C44	C	1.463910	0.060035	0.836756
C45	C	1.073632	-0.439945	0.336748
C46	C	1.573632	0.060055	0.836748
C47	C	1.073735	-0.277494	0.499730
C48	C	1.573735	0.222506	0.999730
C49	C	0.964011	-0.277510	0.499735
C50	C	1.464011	0.222490	0.999735
C51	C	1.518168	-0.597940	0.388375
C52	C	2.018168	-0.097940	0.888375
C53	C	1.518222	-0.687561	0.388387
C54	C	2.018222	-0.187561	0.888387
C55	C	1.518405	-1.015736	0.388471
C56	C	2.018405	-0.515736	0.888471
C57	C	1.518351	-0.924428	0.388450
C58	C	2.018351	-0.424428	0.888450
C59	C	1.518313	-0.851651	0.388429
C60	C	2.018313	-0.351651	0.888429
C61	C	1.518260	-0.760337	0.388408
C62	C	2.018260	-0.260337	0.888408
C63	C	1.792301	-0.388468	0.388420
C64	C	2.292301	0.111532	0.888420
C65	C	1.909078	-0.388477	0.388425
C66	C	2.409078	0.111523	0.888425
C67	C	1.518319	-0.388395	0.598717
C68	C	2.018319	0.111605	1.098717
C69	C	1.518341	-0.388373	0.688338
C70	C	2.018341	0.111627	1.188338
C71	C	1.518396	-0.178140	0.388460
C72	C	2.018396	0.321860	0.888460
C73	C	1.518451	-0.088519	0.388482
C74	C	2.018451	0.411481	0.888482
C75	C	1.518277	-0.388444	0.178917
C76	C	2.018277	0.111556	0.678917
C77	C	1.518458	-0.388239	0.089297
C78	C	2.018458	0.111761	0.589297
C79	C	1.518358	-0.388355	0.761121
C80	C	2.018358	0.111645	1.261121
C81	C	1.518383	-0.388325	0.852429
C82	C	2.018383	0.111675	1.352429
C83	C	1.518408	-0.388297	0.925206
C84	C	2.018408	0.111703	1.425206
C85	C	1.518434	-0.388267	1.016520
C86	C	2.018434	0.111733	1.516520
H87	H	0.919204	-0.481898	0.294694
H88	H	1.419204	0.018102	0.794694
H89	H	0.929982	-0.218161	0.477484
H90	H	1.429982	0.281839	0.977484
H91	H	0.934257	-0.294322	0.562155
H92	H	1.434257	0.205678	1.062155
H93	H	1.103515	-0.215019	0.483116
H94	H	1.603515	0.284981	0.983116
H95	H	1.107790	-0.299937	0.559005
H96	H	1.607790	0.200063	1.059005
H97	H	1.118267	-0.481862	0.294671
H98	H	1.618267	0.018138	0.794671
