data_functionalizedCrystal
_audit_creation_method	'MofGen! by Chris Wilmer'
_symmetry_space_group_name_H-M	'P1'
_symmetry_Int_Tables_number	1
_symmetry_cell_setting	triclinic
loop_
_symmetry_equiv_pos_as_xyz
  x,y,z
_cell_length_a	17.699104
_cell_length_b	17.699103
_cell_length_c	16.776229
_cell_angle_alpha	89.988386
_cell_angle_beta	89.991971
_cell_angle_gamma	83.291289
loop_
_atom_site_label
_atom_site_type_symbol
_atom_site_fract_x
_atom_site_fract_y
_atom_site_fract_z
O1	O	1.004075	0.095787	-0.066313
O2	O	1.504075	0.595787	0.433687
O3	O	0.783700	0.108223	-0.066312
O4	O	1.283700	0.608223	0.433688
O5	O	0.900106	-0.008183	-0.066297
O6	O	1.400106	0.491817	0.433703
O7	O	0.887669	0.212193	-0.066328
O8	O	1.387669	0.712193	0.433672
O9	O	0.900091	-0.008190	0.066279
O10	O	1.400091	0.491810	0.566279
O11	O	0.783685	0.108216	0.066264
O12	O	1.283685	0.608216	0.566264
O13	O	1.004060	0.095780	0.066263
O14	O	1.504060	0.595780	0.566263
Zn15	Zn	0.893870	0.101997	0.087313
Zn16	Zn	1.393870	0.601997	0.587313
Zn17	Zn	0.893890	0.102006	-0.087362
Zn18	Zn	1.393890	0.602006	0.412638
O19	O	0.887654	0.212186	0.066249
O20	O	1.387654	0.712186	0.566249
C21	C	0.755496	0.107771	-0.000024
C22	C	1.255496	0.607771	0.499976
C23	C	0.671478	0.106426	-0.000023
C24	C	1.171478	0.606426	0.499977
C25	C	0.899650	-0.036383	-0.000007
C26	C	1.399650	0.463617	0.499993
C27	C	0.898306	-0.120400	-0.000000
C28	C	1.398306	0.379600	0.500000
C29	C	0.146612	0.167170	-0.000039
C30	C	0.646612	0.667170	0.499961
C31	C	0.225555	0.168429	-0.000042
C32	C	0.725555	0.668429	0.499958
C33	C	0.274168	0.100094	-0.000032
C34	C	0.774168	0.600094	0.499968
C35	C	0.243833	0.030496	-0.000028
C36	C	0.743833	0.530496	0.499972
C37	C	0.164891	0.029238	-0.000032
C38	C	0.664891	0.529238	0.499968
C39	C	0.562200	0.035569	-0.000016
C40	C	1.062200	0.535569	0.499984
C41	C	0.641147	0.036833	-0.000011
C42	C	1.141147	0.536833	0.499989
C43	C	0.622864	0.174760	-0.000027
C44	C	1.122864	0.674760	0.499973
C45	C	0.543922	0.173502	-0.000030
C46	C	1.043922	0.673502	0.499970
C47	C	0.513594	0.103904	-0.000030
C48	C	1.013594	0.603904	0.499970
C49	C	0.427994	0.102540	-0.000029
C50	C	0.927994	0.602540	0.499971
C51	C	0.359767	0.101458	-0.000028
C52	C	0.859767	0.601458	0.499972
C53	C	0.890090	-0.636109	-0.072320
C54	C	1.390090	-0.136109	0.427680
C55	C	0.891352	-0.557165	-0.072313
C56	C	1.391352	-0.057165	0.427687
C57	C	0.891973	-0.517711	-0.000041
C58	C	1.391973	-0.017711	0.499959
C59	C	0.891340	-0.557205	0.072229
C60	C	1.391340	-0.057205	0.572229
C61	C	0.890083	-0.636147	0.072221
C62	C	1.390083	-0.136147	0.572221
C63	C	0.896410	-0.238838	0.072263
C64	C	1.396410	0.261162	0.572263
C65	C	0.897665	-0.159889	0.072265
C66	C	1.397665	0.340111	0.572265
C67	C	0.897679	-0.159856	-0.072272
C68	C	1.397679	0.340144	0.427728
C69	C	0.896422	-0.238798	-0.072280
C70	C	1.396422	0.261202	0.427720
C71	C	0.895793	-0.278286	-0.000010
C72	C	1.395793	0.221714	0.499990
C73	C	0.894425	-0.363886	-0.000019
C74	C	1.394425	0.136114	0.499981
C75	C	0.893335	-0.432112	-0.000031
C76	C	1.393335	0.067888	0.499969
C77	C	1.032264	0.096232	-0.000027
C78	C	1.532264	0.596232	0.499973
C79	C	1.116282	0.097577	-0.000033
C80	C	1.616282	0.597577	0.499967
C81	C	0.888110	0.240386	-0.000044
C82	C	1.388110	0.740386	0.499956
C83	C	0.889454	0.324403	-0.000055
C84	C	1.389454	0.824403	0.499945
N85	N	0.893861	0.101990	0.206524
N86	N	1.393861	0.601990	0.706524
N87	N	0.893904	0.102007	-0.206573
N88	N	1.393904	0.602007	0.293427
C89	C	0.945422	0.050467	0.248248
C90	C	1.445422	0.550467	0.748248
C91	C	0.945426	0.050466	0.331700
C92	C	1.445426	0.550466	0.831700
C93	C	0.893873	0.101993	0.373427
C94	C	1.393873	0.601993	0.873427
C95	C	0.842307	0.153519	0.331698
C96	C	1.342307	0.653519	0.831698
C97	C	0.842300	0.153515	0.248247
C98	C	1.342300	0.653515	0.748247
C99	C	0.842334	0.153533	0.668245
C100	C	1.342334	0.653533	1.168245
C101	C	0.842347	0.153535	0.751702
C102	C	1.342347	0.653535	1.251702
C103	C	0.945460	0.050484	0.751698
C104	C	1.445460	0.550484	1.251698
C105	C	0.945453	0.050481	0.668247
C106	C	1.445453	0.550481	1.168247
C107	C	0.893885	0.102004	0.626525
C108	C	1.393885	0.602004	1.126525
C109	C	0.893880	0.102003	0.536037
C110	C	1.393880	0.602003	1.036037
C111	C	0.893881	0.101998	0.463914
C112	C	1.393881	0.601998	0.963914
H113	H	0.250246	0.225098	-0.000055
H114	H	0.750246	0.725098	0.499945
H115	H	0.889565	-0.668297	0.131067
H116	H	1.389565	-0.168297	0.631067
H117	H	0.647566	0.231430	-0.000030
H118	H	1.147566	0.731430	0.499970
H119	H	0.895898	-0.270979	0.131109
H120	H	1.395898	0.229021	0.631109
H121	H	0.987410	0.008511	0.365671
H122	H	1.487410	0.508511	0.865671
O123	O	0.786753	0.209124	0.796712
O124	O	1.286753	0.709124	1.296712
H125	H	0.750893	0.244951	0.753681
H126	H	1.250893	0.744951	1.253681
O127	O	0.889407	-0.678661	-0.150271
O128	O	1.389407	-0.178661	0.349729
H129	H	0.890064	-0.637937	-0.200519
H130	H	1.390064	-0.137937	0.299481
O131	O	0.132175	-0.045824	-0.000023
O132	O	0.632175	0.454176	0.499977
H133	H	0.096632	-0.049696	0.054009
H134	H	0.596632	0.450304	0.554009
H135	H	0.891851	-0.525075	0.131075
H136	H	1.391851	-0.025075	0.631075
O137	O	0.491487	0.247204	-0.000041
O138	O	0.991487	0.747204	0.499959
H139	H	0.525841	0.295810	-0.000053
H140	H	1.025841	0.795810	0.499947
O141	O	0.693585	-0.036874	-0.000006
O142	O	1.193585	0.463126	0.499994
H143	H	0.659234	-0.085482	-0.000014
H144	H	1.159234	0.414518	0.499986
H145	H	0.537517	-0.021102	-0.000014
H146	H	1.037517	0.478898	0.499986
O147	O	0.296260	-0.043211	-0.000010
O148	O	0.796260	0.456789	0.499990
H149	H	0.356250	-0.030646	0.000002
H150	H	0.856250	0.469354	0.500002
O151	O	0.892023	-0.514569	-0.150254
O152	O	1.392023	-0.014569	0.349746
H153	H	0.891366	-0.555265	-0.200510
H154	H	1.391366	-0.055265	0.299490
O155	O	0.786704	0.209100	0.376697
O156	O	1.286704	0.709100	0.876697
H157	H	0.795377	0.200454	0.441736
H158	H	1.295377	0.700454	0.941736
H159	H	0.107036	0.222816	-0.000041
H160	H	0.607036	0.722816	0.499959
O161	O	0.895730	-0.281352	-0.150229
O162	O	1.395730	0.218648	0.349771
H163	H	0.896383	-0.240630	-0.200480
H164	H	1.396383	0.259370	0.299520
H165	H	0.800313	0.195470	0.214277
H166	H	1.300313	0.695470	0.714277
H167	H	0.987405	0.008511	0.214279
H168	H	1.487405	0.508511	0.714279
H169	H	0.987435	0.008525	0.634276
H170	H	1.487435	0.508525	1.134276
O171	O	1.001077	-0.005097	0.796697
O172	O	1.501077	0.494903	1.296697
H173	H	0.992418	0.003552	0.861736
H174	H	1.492418	0.503552	1.361736
H175	H	0.800347	0.195486	0.634281
H176	H	1.300347	0.695486	1.134281
H177	H	0.898167	-0.127767	0.131121
H178	H	1.398167	0.372233	0.631121
O179	O	0.898366	-0.117268	-0.150225
O180	O	1.398366	0.382732	0.349775
H181	H	0.899353	-0.055747	-0.138082
H182	H	1.399353	0.444253	0.361918
