data_functionalizedCrystal
_audit_creation_method	'MofGen! by Chris Wilmer'
_symmetry_space_group_name_H-M	'P1'
_symmetry_Int_Tables_number	1
_symmetry_cell_setting	triclinic
loop_
_symmetry_equiv_pos_as_xyz
  x,y,z
_cell_length_a	10.489741
_cell_length_b	10.489763
_cell_length_c	9.565339
_cell_angle_alpha	90.003189
_cell_angle_beta	89.997686
_cell_angle_gamma	95.456232
loop_
_atom_site_label
_atom_site_type_symbol
_atom_site_fract_x
_atom_site_fract_y
_atom_site_fract_z
O1	O	1.694070	-0.179954	-0.116190
O2	O	1.322876	-0.196847	-0.116213
O3	O	1.516905	-0.002805	-0.116175
O4	O	1.500042	-0.373997	-0.116228
O5	O	1.516883	-0.002822	0.116345
O6	O	1.322855	-0.196864	0.116307
O7	O	1.694049	-0.179972	0.116330
Zn8	Zn	1.508449	-0.188421	0.153236
Zn9	Zn	1.508476	-0.188398	-0.153119
O10	O	1.500021	-0.374014	0.116292
C11	C	1.275334	-0.195580	0.000044
C12	C	1.133704	-0.191763	0.000036
C13	C	1.065554	-0.068299	0.000067
C14	C	0.973442	-0.126614	-0.114583
C15	C	0.973455	-0.126660	0.114664
C16	C	1.043458	-0.250128	-0.114708
C17	C	1.043480	-0.250157	0.114641
C18	C	0.951396	-0.308561	-0.000037
C19	C	1.515614	0.044718	0.000089
C20	C	1.511786	0.186346	0.000100
C21	C	1.388316	0.254485	0.000089
C22	C	1.446621	0.346598	0.114746
C23	C	1.446671	0.346590	-0.114501
C24	C	1.570142	0.276594	0.114851
C25	C	1.570175	0.276576	-0.114499
C26	C	1.628571	0.368661	0.000186
C27	C	1.741591	-0.181239	0.000070
C28	C	1.883221	-0.185056	0.000068
N29	N	1.508439	-0.188436	0.362315
C30	C	1.501291	0.578461	0.000049
C31	C	1.505059	0.436825	0.000101
C32	C	1.418677	-0.278146	0.453501
C33	C	1.534174	-0.303958	0.546683
C34	C	1.392985	-0.162640	0.546689
C35	C	1.623994	-0.214306	0.453446
C36	C	1.482729	-0.072938	0.453444
C37	C	1.598309	-0.098702	0.546583
N38	N	1.508471	-0.188396	0.637801
H39	H	1.074298	-0.302320	-0.211746
O40	O	0.892489	-0.429789	-0.000369
C41	C	0.861439	-0.631774	-0.121512
C42	C	0.928210	-0.494512	-0.121318
H43	H	0.890314	-0.684151	-0.219274
H44	H	0.753176	-0.628060	-0.120668
H45	H	0.891465	-0.684759	-0.024665
H46	H	0.898288	-0.441448	-0.218148
H47	H	1.036460	-0.498318	-0.122089
H48	H	1.460924	0.024689	0.412456
H49	H	1.394421	0.377561	-0.211433
H50	H	1.286808	0.204835	0.000194
H51	H	1.730170	0.418085	0.000260
H52	H	1.394369	0.377602	0.211669
H53	H	1.721667	-0.236224	0.412660
H54	H	1.074522	-0.302362	0.211561
H55	H	1.342842	-0.354079	0.412631
O56	O	1.276387	-0.136772	0.595381
C57	C	1.049998	-0.202208	0.603367
C58	C	1.181963	-0.231625	0.548113
H59	H	0.973624	-0.278894	0.565197
H60	H	1.027229	-0.104537	0.563371
H61	H	1.051463	-0.201458	0.722536
H62	H	1.180596	-0.232444	0.428947
H63	H	1.204680	-0.329276	0.588215
H64	H	1.622331	0.245754	0.211883
O65	O	1.559931	-0.420546	0.595489
C66	C	1.494495	-0.646938	0.603366
C67	C	1.465170	-0.514976	0.548035
H68	H	1.417913	-0.723324	0.564998
H69	H	1.495123	-0.645596	0.722540
H70	H	1.592228	-0.669595	0.563440
H71	H	1.367434	-0.492238	0.587857
H72	H	1.464626	-0.516386	0.428863
O73	O	1.689144	-0.008307	0.594984
C74	C	1.913435	0.066653	0.602058
C75	C	1.810698	-0.035810	0.547175
H76	H	2.011732	0.044468	0.563403
H77	H	1.912335	0.066578	0.721237
H78	H	1.892275	0.164832	0.562085
H79	H	1.831788	-0.134040	0.587045
H80	H	1.811821	-0.035622	0.427998
H81	H	0.942432	-0.074366	-0.211498
H82	H	1.115235	0.033196	-0.000061
H83	H	0.942464	-0.074405	0.211592
H84	H	1.622383	0.245539	-0.211427
