data_functionalizedCrystal
_audit_creation_method	'MofGen! by Chris Wilmer'
_symmetry_space_group_name_H-M	'P1'
_symmetry_Int_Tables_number	1
_symmetry_cell_setting	triclinic
loop_
_symmetry_equiv_pos_as_xyz
  x,y,z
_cell_length_a	13.032831
_cell_length_b	12.759399
_cell_length_c	12.759393
_cell_angle_alpha	90.032479
_cell_angle_beta	82.806365
_cell_angle_gamma	97.171589
loop_
_atom_site_label
_atom_site_type_symbol
_atom_site_fract_x
_atom_site_fract_y
_atom_site_fract_z
Zn1	Zn	1.597652	0.622478	-0.797692
Zn2	Zn	1.597519	0.798180	-0.621993
Zn3	Zn	1.422888	0.600188	-0.599747
Zn4	Zn	1.422849	0.775765	-0.775362
O5	O	1.510227	0.699153	-0.698698
O6	O	1.743874	0.664495	-0.793040
O7	O	1.574315	0.771968	-0.472016
O8	O	1.446142	0.456133	-0.626041
O9	O	1.743776	0.793582	-0.663955
O10	O	1.574540	0.472509	-0.771470
O11	O	1.446014	0.626504	-0.455672
O12	O	1.276643	0.604769	-0.604388
O13	O	1.446076	0.755380	-0.925350
O14	O	1.276615	0.733765	-0.733411
O15	O	1.574503	0.642760	-0.941756
O16	O	1.574277	0.942219	-0.642302
O17	O	1.445948	0.925751	-0.754982
C18	C	1.238711	0.664417	-0.664063
C19	C	1.122555	0.649582	-0.649271
C20	C	1.510123	0.972107	-0.698659
C21	C	1.510173	1.088890	-0.698690
C22	C	1.510300	0.699056	-0.972741
C23	C	1.510331	0.699015	-1.089522
C24	C	1.070782	0.706895	-0.706419
C25	C	0.950729	0.691564	-0.691131
C26	C	1.782804	0.734025	-0.733470
C27	C	1.898959	0.748886	-0.748287
C28	C	1.576993	1.152185	-0.774465
C29	C	1.577034	1.261914	-0.774496
C30	C	1.443434	1.245044	-0.622966
C31	C	1.443388	1.135316	-0.622941
C32	C	1.614370	1.416514	-0.903221
C33	C	1.681206	1.479815	-0.978990
C34	C	1.783152	1.457141	-1.008200
C35	C	1.818283	1.371171	-0.961630
C36	C	1.751453	1.307877	-0.885854
C37	C	1.649492	1.330548	-0.856661
C38	C	1.406063	0.980715	-0.494216
C39	C	1.339237	0.917420	-0.418434
C40	C	1.237290	0.940091	-0.389213
C41	C	1.202162	1.026065	-0.435766
C42	C	1.268988	1.089360	-0.511547
C43	C	1.370935	1.066681	-0.540770
C44	C	1.510321	1.425132	-0.698753
C45	C	1.510261	1.308347	-0.698746
C46	C	1.443549	0.623262	-1.135876
C47	C	1.443573	0.623233	-1.245604
C48	C	1.577171	0.774713	-1.262613
C49	C	1.577141	0.774746	-1.152887
C50	C	1.320387	0.569882	-1.379850
C51	C	1.253613	0.494115	-1.426209
C52	C	1.237611	0.389565	-1.388581
C53	C	1.288397	0.360763	-1.304597
C54	C	1.355178	0.436526	-1.258244
C55	C	1.371160	0.541088	-1.295868
C56	C	1.700328	0.828086	-1.018640
C57	C	1.767116	0.903845	-0.972286
C58	C	1.783129	1.008398	-1.009913
C59	C	1.732361	1.037198	-1.093903
C60	C	1.665574	0.961439	-1.140257
C61	C	1.649559	0.856886	-1.102622
C62	C	1.510214	0.699181	-0.425729
C63	C	1.510386	0.698952	-0.308975
H64	H	1.115337	0.767310	-0.766666
Cl65	Cl	0.881953	0.598270	-0.598118
H66	H	1.078000	0.589160	-0.589031
H67	H	0.943509	0.809302	-0.808542
H68	H	1.531355	1.434976	-0.879453
Cl69	Cl	1.660947	1.093824	-0.869696
Cl70	Cl	1.795608	1.199808	-0.827308
Cl71	Cl	1.946458	1.342684	-0.998343
H72	H	1.624239	0.984895	-1.208648
H73	H	1.837570	1.508688	-1.069894
H74	H	1.367849	0.847420	-0.380525
H75	H	1.396531	0.413076	-1.189870
H76	H	1.652593	1.549810	-1.016907
Cl77	Cl	1.359480	1.303416	-0.527745
H78	H	1.240379	1.159364	-0.549452
H79	H	1.489072	0.962237	-0.518018
H80	H	1.389148	0.561597	-1.084287
H81	H	1.631566	0.836370	-1.314219
H82	H	1.183242	0.327874	-1.426334
Cl83	Cl	1.073999	1.054577	-0.399024
Cl84	Cl	1.153286	0.860526	-0.293931
Cl85	Cl	1.268290	0.229316	-1.257310
H86	H	1.212264	0.517574	-1.494589
H87	H	1.837523	1.070079	-0.972170
Cl88	Cl	1.680180	0.696647	-0.971313
Cl89	Cl	1.340481	0.701326	-1.427145
Cl90	Cl	1.752497	1.168638	-1.141217
Cl91	Cl	1.830944	0.867636	-0.866701
