data_functionalizedCrystal
_audit_creation_method	'MofGen! by Chris Wilmer'
_symmetry_space_group_name_H-M	'P1'
_symmetry_Int_Tables_number	1
_symmetry_cell_setting	triclinic
loop_
_symmetry_equiv_pos_as_xyz
  x,y,z
_cell_length_a	10.654556
_cell_length_b	10.654550
_cell_length_c	9.730223
_cell_angle_alpha	89.995071
_cell_angle_beta	89.998786
_cell_angle_gamma	95.513766
loop_
_atom_site_label
_atom_site_type_symbol
_atom_site_fract_x
_atom_site_fract_y
_atom_site_fract_z
O1	O	1.667829	-0.176438	0.114238
O2	O	1.302352	-0.193236	0.114252
O3	O	1.493493	-0.002098	0.114236
O4	O	1.476687	-0.367576	0.114254
O5	O	1.493492	-0.002090	-0.114344
O6	O	1.302350	-0.193227	-0.114328
O7	O	1.667827	-0.176430	-0.114342
Zn8	Zn	1.485088	-0.184827	-0.150627
Zn9	Zn	1.485091	-0.184839	0.150537
O10	O	1.476686	-0.367568	-0.114326
C11	C	1.255553	-0.191997	-0.000037
C12	C	1.116110	-0.188302	-0.000031
C13	C	0.919566	-0.183104	0.124557
C14	C	1.050588	-0.186568	0.124565
C15	C	1.050605	-0.186558	-0.124645
C16	C	0.919586	-0.183085	-0.124652
C17	C	1.492258	0.044704	-0.000054
C18	C	1.488567	0.184147	-0.000051
C19	C	1.714626	-0.177669	-0.000051
C20	C	1.854069	-0.181364	-0.000047
N21	N	1.485093	-0.184837	0.356073
C22	C	1.477920	-0.414370	-0.000034
C23	C	1.481612	-0.553813	-0.000027
C24	C	1.601108	0.263630	-0.000055
C25	C	1.597631	0.394651	-0.000038
C26	C	1.369063	0.366693	-0.000019
C27	C	1.372540	0.235675	-0.000026
N28	N	1.485096	-0.184819	-0.356164
C29	C	1.569891	-0.100369	0.427992
C30	C	1.569896	-0.100362	0.571875
C31	C	1.400294	-0.269296	0.571907
C32	C	1.400296	-0.269308	0.428027
H33	H	1.103964	-0.187962	-0.226094
C34	C	1.721430	0.482082	-0.000047
C35	C	1.816180	0.475617	-0.118757
C36	C	1.939985	0.563047	-0.118764
C37	C	1.969040	0.656942	-0.000061
C38	C	1.874287	0.663411	0.118658
C39	C	1.750482	0.575981	0.118664
H40	H	1.794674	0.406106	-0.206636
H41	H	2.010127	0.558257	-0.206647
H42	H	2.060687	0.721663	-0.000066
H43	H	1.895793	0.732921	0.206536
H44	H	1.680340	0.580770	0.206548
C45	C	1.248737	0.148231	-0.000024
C46	C	1.219699	0.054322	-0.118717
C47	C	1.095904	-0.033122	-0.118708
C48	C	1.001146	-0.026658	-0.000006
C49	C	1.030182	0.067255	0.118697
C50	C	1.153978	0.154699	0.118688
H51	H	1.289846	0.049533	-0.206596
H52	H	1.074410	-0.102643	-0.206580
H53	H	0.909506	-0.091389	0.000001
H54	H	0.960035	0.072044	0.206576
H55	H	1.175471	0.224220	0.206560
C56	C	1.663174	-0.007464	0.348842
C57	C	1.756496	0.085402	0.427959
C58	C	1.849786	0.178307	0.348814
C59	C	1.849754	0.178346	0.190551
C60	C	1.756429	0.085476	0.111425
C61	C	1.663139	-0.007429	0.190570
H62	H	1.756523	0.085376	0.545123
H63	H	1.918872	0.247055	0.407390
H64	H	1.918813	0.247119	0.131964
H65	H	1.756402	0.085502	-0.005738
H66	H	1.594053	-0.076177	0.131995
C67	C	1.122632	-0.188483	0.261634
C68	C	1.226005	-0.082001	0.295911
C69	C	1.298048	-0.083913	0.432986
C70	C	1.266718	-0.192306	0.535785
C71	C	1.163340	-0.298796	0.501510
C72	C	1.091297	-0.296885	0.364435
H73	H	1.249201	-0.001754	0.219811
H74	H	1.374575	-0.005081	0.458358
H75	H	1.320049	-0.193721	0.637256
H76	H	1.140144	-0.379043	0.577610
H77	H	1.014770	-0.375717	0.339063
C78	C	1.663171	-0.007443	0.650987
C79	C	1.660086	0.135626	0.631184
C80	C	1.753367	0.228549	0.710296
C81	C	1.849733	0.178402	0.809213
C82	C	1.852821	0.035326	0.829021
C83	C	1.759541	-0.057597	0.749909
H84	H	1.588747	0.172754	0.557956
H85	H	1.751080	0.334463	0.695632
H86	H	1.918785	0.247189	0.867777
H87	H	1.924160	-0.001802	0.902249
H88	H	1.761828	-0.163511	0.764572
C89	C	1.307010	-0.362201	0.651057
C90	C	1.306994	-0.362191	0.809320
C91	C	1.213704	-0.455096	0.888465
C92	C	1.120431	-0.548011	0.809348
C93	C	1.120444	-0.548024	0.651076
C94	C	1.213733	-0.455119	0.571931
H95	H	1.376044	-0.293407	0.867896
H96	H	1.213695	-0.455085	1.005629
H97	H	1.051372	-0.616784	0.867936
H98	H	1.051394	-0.616808	0.592501
H99	H	1.213742	-0.455130	0.454768
H100	H	0.866226	-0.181701	0.226018
H101	H	0.866257	-0.181667	-0.226126
H102	H	1.695584	0.221681	-0.000072
H103	H	1.274598	0.408664	-0.000002
H104	H	1.331243	-0.338098	0.369467
