data_functionalizedCrystal
_audit_creation_method	'MofGen! by Chris Wilmer'
_symmetry_space_group_name_H-M	'P1'
_symmetry_Int_Tables_number	1
_symmetry_cell_setting	triclinic
loop_
_symmetry_equiv_pos_as_xyz
  x,y,z
_cell_length_a	10.723023
_cell_length_b	16.992695
_cell_length_c	15.455341
_cell_angle_alpha	92.817188
_cell_angle_beta	87.026474
_cell_angle_gamma	92.432115
loop_
_atom_site_label
_atom_site_type_symbol
_atom_site_fract_x
_atom_site_fract_y
_atom_site_fract_z
O1	O	1.661470	-0.106939	0.072129
O2	O	1.299224	-0.117472	0.072131
O3	O	1.478896	0.001944	0.072123
O4	O	1.481799	-0.226356	0.072137
O5	O	1.489265	-0.004234	-0.072137
O6	O	1.309594	-0.123650	-0.072129
O7	O	1.671839	-0.113118	-0.072132
Cu8	Cu	1.491663	-0.118948	-0.085303
Cu9	Cu	1.479401	-0.111642	0.085302
O10	O	1.492168	-0.232534	-0.072124
C11	C	1.257843	-0.119795	0.000001
C12	C	1.119092	-0.117502	0.000002
C13	C	1.051860	-0.113279	0.074734
C14	C	0.908453	-0.110909	0.074736
C15	C	1.480344	0.028088	-0.000007
C16	C	1.469196	0.115192	-0.000007
C17	C	1.713220	-0.110795	0.000000
C18	C	1.851972	-0.113088	0.000005
C19	C	1.490720	-0.258678	0.000009
C20	C	1.501867	-0.345782	0.000014
C21	C	1.576757	0.164854	-0.000008
C22	C	1.566274	0.246697	0.000000
C23	C	1.448231	0.278877	0.000004
C24	C	1.340662	0.229208	0.000008
C25	C	1.351145	0.147367	0.000006
C26	C	1.404782	0.522709	0.000016
C27	C	1.394307	0.604556	0.000015
C28	C	1.619920	0.622040	0.000009
C29	C	1.630393	0.540196	0.000002
C30	C	1.522824	0.490535	0.000011
N31	N	1.437513	0.362533	0.000010
N32	N	1.533542	0.406880	0.000011
N33	N	1.500297	-0.124087	-0.205297
C34	C	1.547974	-0.152568	-0.749300
C35	C	1.541450	-0.148676	-0.658493
C36	C	1.457735	-0.098709	-0.613090
C37	C	1.380529	-0.052636	-0.658500
C38	C	1.387046	-0.056532	-0.749305
C39	C	1.429609	-0.081910	-0.341512
C40	C	1.423100	-0.078016	-0.250700
C41	C	1.584020	-0.174058	-0.250700
C42	C	1.590536	-0.177946	-0.341507
C43	C	1.513325	-0.131876	-0.386908
N44	N	1.451068	-0.094728	-0.520271
N45	N	1.519987	-0.135862	-0.479726
N46	N	1.470776	-0.106497	0.205297
H47	H	1.653862	0.287129	-0.000003
C48	C	0.986179	-0.051651	-0.091112
C49	C	1.053489	-0.120010	-0.086375
H50	H	0.945689	-0.053198	-0.144442
H51	H	0.925419	-0.048703	-0.044233
H52	H	1.041786	-0.006690	-0.087887
H53	H	0.997880	-0.164970	-0.089593
H54	H	1.114255	-0.122966	-0.133266
C55	C	1.368140	-0.045241	-0.480705
C56	C	1.344750	-0.031267	-0.391414
H57	H	1.315744	-0.013977	-0.511514
H58	H	1.453169	-0.031797	-0.495590
H59	H	1.351348	-0.099426	-0.495567
H60	H	1.361551	0.022917	-0.376551
H61	H	1.259702	-0.044707	-0.376524
H62	H	1.324181	-0.019018	-0.786271
C63	C	1.852350	0.565701	-0.000003
C64	C	1.760151	0.504827	-0.000003
H65	H	1.932456	0.543864	-0.000006
H66	H	1.847179	0.595108	-0.050304
H67	H	1.839951	0.599409	0.050311
H68	H	1.772543	0.471122	-0.050321
H69	H	1.765325	0.475407	0.050302
C70	C	1.118708	0.203701	0.000025
C71	C	1.210904	0.264577	0.000018
H72	H	1.038600	0.225537	0.000037
H73	H	1.131098	0.169995	-0.050280
H74	H	1.123888	0.174294	0.050335
H75	H	1.205729	0.293981	-0.050295
H76	H	1.198509	0.298297	0.050329
C77	C	1.704031	0.755260	0.000019
C78	C	1.738153	0.676629	0.000012
H79	H	1.777029	0.788960	0.000028
H80	H	1.659595	0.762928	-0.050286
H81	H	1.652345	0.767222	0.050328
H82	H	1.789833	0.664665	-0.050301
H83	H	1.782610	0.668958	0.050322
H84	H	1.354921	-0.037327	-0.213736
C85	C	1.798708	0.190365	0.000001
C86	C	1.706515	0.129487	-0.000006
H87	H	1.878815	0.168531	0.000011
H88	H	1.793548	0.219768	-0.050304
H89	H	1.786294	0.224075	0.050311
H90	H	1.718924	0.095780	-0.050320
H91	H	1.711679	0.100071	0.050303
H92	H	1.100469	-0.111422	0.138712
H93	H	1.263558	0.106932	0.000007
H94	H	1.298178	0.630753	0.000004
C95	C	1.702504	-0.150172	-0.556366
C96	C	1.626297	-0.199320	-0.608577
H97	H	1.754875	-0.181442	-0.525546
H98	H	1.752619	-0.115892	-0.591794
H99	H	1.651695	-0.119858	-0.516340
H100	H	1.677106	-0.229630	-0.648608
H101	H	1.576177	-0.233614	-0.573147
C102	C	0.703476	-0.104626	0.144397
C103	C	0.830440	-0.106026	0.161113
H104	H	0.655314	-0.101616	0.197725
H105	H	0.689461	-0.059991	0.112072
H106	H	0.679545	-0.151330	0.112067
H107	H	0.854373	-0.059319	0.193438
H108	H	0.844462	-0.150665	0.193452
H109	H	0.909761	-0.116703	-0.063979
C110	C	1.180726	0.513659	0.000002
C111	C	1.286544	0.468128	0.000009
H112	H	1.107729	0.479958	-0.000010
H113	H	1.177710	0.548091	0.050308
H114	H	1.184966	0.543797	-0.050306
H115	H	1.282308	0.437994	0.050321
H116	H	1.289559	0.433682	-0.050302
H117	H	1.312360	-0.011955	-0.621526
H118	H	1.646879	-0.211566	-0.213724
C119	C	1.748926	-0.272501	-0.332382
C120	C	1.682548	-0.232880	-0.391411
H121	H	1.805725	-0.306418	-0.363192
H122	H	1.793954	-0.235175	-0.296976
H123	H	1.692113	-0.302793	-0.296953
H124	H	1.739360	-0.202584	-0.426836
H125	H	1.637518	-0.270211	-0.426831
H126	H	1.616148	-0.193254	-0.786260
