data_functionalizedCrystal
_audit_creation_method	'MofGen! by Chris Wilmer'
_symmetry_space_group_name_H-M	'P1'
_symmetry_Int_Tables_number	1
_symmetry_cell_setting	triclinic
loop_
_symmetry_equiv_pos_as_xyz
  x,y,z
_cell_length_a	12.837943
_cell_length_b	14.853567
_cell_length_c	11.892095
_cell_angle_alpha	93.898435
_cell_angle_beta	85.689438
_cell_angle_gamma	89.231935
loop_
_atom_site_label
_atom_site_type_symbol
_atom_site_fract_x
_atom_site_fract_y
_atom_site_fract_z
O1	O	1.382409	0.229205	-0.093964
O2	O	1.080587	0.217625	-0.093972
O3	O	1.239561	0.092869	-0.093971
O4	O	1.223436	0.353961	-0.093965
O5	O	1.226306	0.103253	0.094036
O6	O	1.067332	0.228009	0.094035
O7	O	1.369154	0.239589	0.094043
Zn8	Zn	1.216139	0.235448	0.123889
Zn9	Zn	1.233603	0.221766	-0.123818
O10	O	1.210181	0.364345	0.094042
C11	C	1.035334	0.218906	0.000031
C12	C	0.920240	0.207240	0.000027
C13	C	0.679482	0.347487	0.000047
C14	C	0.571341	0.336530	0.000045
C15	C	0.595813	0.174369	0.000029
C16	C	0.703955	0.185327	0.000031
C17	C	0.745785	0.271888	0.000038
C18	C	0.853929	0.282844	0.000032
C19	C	0.878399	0.120685	0.000024
C20	C	0.770257	0.109727	0.000022
C21	C	1.232203	0.064410	0.000029
C22	C	1.230014	-0.035860	0.000019
C23	C	1.126324	-0.457187	0.000038
C24	C	1.315188	-0.462449	0.000043
C25	C	1.317247	-0.368241	0.000036
C26	C	1.223843	-0.318502	0.000032
C27	C	1.128380	-0.362970	0.000035
C28	C	1.412707	-0.323765	0.000045
C29	C	1.414770	-0.229551	0.000040
C30	C	1.321366	-0.179810	0.000028
C31	C	1.225899	-0.224285	0.000029
C32	C	1.132495	-0.174546	0.000025
C33	C	1.037028	-0.219019	0.000018
C34	C	1.034976	-0.313230	0.000023
C35	C	1.323418	-0.085599	0.000023
C36	C	1.134551	-0.080329	0.000022
C37	C	1.414408	0.238308	0.000038
C38	C	1.529502	0.249974	0.000034
C39	C	1.217539	0.392804	0.000040
C40	C	1.219728	0.493073	0.000042
N41	N	1.204228	0.244785	0.292943
N42	N	1.245522	0.212422	-0.292873
C43	C	1.328405	0.147396	0.529592
C44	C	1.320087	0.153930	0.647934
C45	C	1.179269	0.264382	0.647971
C46	C	1.187587	0.257848	0.529629
C47	C	1.262159	0.199354	0.470444
C48	C	1.270481	0.192826	0.352100
C49	C	1.129659	0.303272	0.352140
C50	C	1.121341	0.309806	0.470481
H51	H	0.713541	0.417969	0.000051
C52	C	1.482342	-0.501287	-0.096601
C53	C	1.417854	-0.517119	0.000047
H54	H	1.545729	-0.535038	-0.096594
H55	H	1.447823	-0.519273	-0.162149
H56	H	1.497224	-0.438811	-0.096594
H57	H	1.402966	-0.579594	0.000036
H58	H	1.452380	-0.499138	0.065612
C59	C	0.442343	0.412944	-0.096599
C60	C	0.498457	0.419629	0.000048
H61	H	0.397344	0.464246	-0.096591
H62	H	0.489661	0.410234	-0.162148
H63	H	0.401955	0.359823	-0.096593
H64	H	0.538852	0.472747	0.000037
H65	H	0.451133	0.422348	0.065613
C66	C	1.039301	-0.599264	0.000039
C67	C	1.021389	-0.506067	0.000036
H68	H	0.974516	-0.629438	0.000045
H69	H	1.082377	-0.619403	-0.065520
H70	H	1.073143	-0.612156	0.065605
H71	H	0.987554	-0.493174	-0.065535
H72	H	0.978297	-0.485921	0.065601
H73	H	0.736183	0.039252	0.000029
C74	C	0.925743	-0.008835	0.096654
C75	C	0.951282	0.037578	0.000015
H76	H	0.970736	-0.060142	0.096638
H77	H	0.933828	0.029890	0.162208
H78	H	0.855349	-0.027743	0.096643
H79	H	1.021674	0.056491	0.000030
H80	H	0.943207	-0.001155	-0.065556
H81	H	1.389131	0.099775	0.481402
H82	H	0.561729	0.103900	0.000116
C83	C	1.034107	0.023330	-0.096635
C84	C	1.031876	-0.025660	0.000013
H85	H	0.970716	0.057075	-0.096642
H86	H	1.091242	0.063298	-0.096621
H87	H	1.041857	-0.017164	-0.162190
H88	H	1.024133	0.014835	0.065568
H89	H	0.974724	-0.065632	0.000009
H90	H	0.960979	-0.178508	0.000023
H91	H	1.374030	0.111620	0.696089
H92	H	0.957252	-0.349449	0.000019
H93	H	1.118548	0.312000	0.696175
H94	H	1.075720	0.345582	0.303968
C95	C	1.579866	-0.362601	-0.096593
C96	C	1.515371	-0.378439	0.000049
H97	H	1.643249	-0.396355	-0.096586
H98	H	1.545349	-0.380579	-0.162145
H99	H	1.594751	-0.300126	-0.096576
H100	H	1.500479	-0.440913	0.000028
H101	H	1.549894	-0.360466	0.065618
H102	H	1.492505	-0.193349	0.000043
C103	C	1.046067	0.368869	0.651909
C104	C	1.039379	0.374104	0.535545
H105	H	0.995472	0.408572	0.692072
H106	H	1.033349	0.308799	0.671295
H107	H	1.113913	0.385703	0.671277
H108	H	0.971535	0.357264	0.516175
H109	H	1.052090	0.434188	0.516150
H110	H	1.331203	0.145200	0.303912
C111	C	1.509893	-0.100268	0.000028
C112	C	1.428345	-0.036715	0.000021
H113	H	1.574674	-0.070088	0.000016
H114	H	1.500542	-0.133273	0.065592
H115	H	1.509777	-0.140535	-0.065534
H116	H	1.428457	0.003548	0.065587
H117	H	1.437699	-0.003694	-0.065549
H118	H	0.887985	0.353327	0.000040
