data_functionalizedCrystal
_audit_creation_method	'MofGen! by Chris Wilmer'
_symmetry_space_group_name_H-M	'P1'
_symmetry_Int_Tables_number	1
_symmetry_cell_setting	triclinic
loop_
_symmetry_equiv_pos_as_xyz
  x,y,z
_cell_length_a	13.897449
_cell_length_b	21.395361
_cell_length_c	21.395355
_cell_angle_alpha	90.021511
_cell_angle_beta	89.976610
_cell_angle_gamma	89.968012
loop_
_atom_site_label
_atom_site_type_symbol
_atom_site_fract_x
_atom_site_fract_y
_atom_site_fract_z
Zn1	Zn	1.474641	0.249490	-0.354229
Zn2	Zn	1.974641	0.749490	0.145771
Zn3	Zn	1.474490	0.354250	-0.249446
Zn4	Zn	1.974490	0.854250	0.250554
Zn5	Zn	1.313322	0.249492	-0.249468
Zn6	Zn	1.813322	0.749492	0.250532
Zn7	Zn	1.313275	0.354236	-0.354188
Zn8	Zn	1.813275	0.854236	0.145812
O9	O	1.393932	0.301867	-0.301833
O10	O	1.893932	0.801867	0.198167
O11	O	1.609602	0.263391	-0.340337
O12	O	2.109602	0.763391	0.159663
O13	O	1.453068	0.340360	-0.161771
O14	O	1.953068	0.840360	0.338229
O15	O	1.334804	0.161814	-0.263391
O16	O	1.834804	0.661814	0.236609
O17	O	1.609492	0.340358	-0.263354
O18	O	2.109492	0.840358	0.236646
O19	O	1.453324	0.161812	-0.340358
O20	O	1.953324	0.661812	0.159642
O21	O	1.334659	0.263395	-0.161787
O22	O	1.834659	0.763395	0.338213
O23	O	1.178334	0.263382	-0.263351
O24	O	1.678334	0.763382	0.236649
O25	O	1.334723	0.340334	-0.441872
O26	O	1.834723	0.840334	0.058128
O27	O	1.178299	0.340337	-0.340289
O28	O	1.678299	0.840337	0.159711
O29	O	1.453278	0.263378	-0.441901
O30	O	1.953278	0.763378	0.058099
O31	O	1.453022	0.441926	-0.263314
O32	O	1.953022	0.941926	0.236686
O33	O	1.334578	0.441915	-0.340268
O34	O	1.834578	0.941915	0.159732
C35	C	1.393805	0.464654	-0.301798
C36	C	1.893805	0.964654	0.198202
C37	C	1.393838	0.534296	-0.301804
C38	C	1.893838	1.034296	0.198196
C39	C	1.143318	0.301858	-0.301818
C40	C	1.643318	0.801858	0.198182
C41	C	1.036104	0.301870	-0.301827
C42	C	1.536104	0.801870	0.198173
C43	C	1.394012	0.301854	-0.465256
C44	C	1.894012	0.801854	0.034744
C45	C	1.394046	0.301849	-0.534897
C46	C	1.894046	0.801849	-0.034897
C47	C	0.839809	0.301872	-0.301844
C48	C	1.339809	0.801872	0.198156
C49	C	0.949041	0.301869	-0.301833
C50	C	1.449041	0.801869	0.198167
C51	C	1.645525	0.301876	-0.301847
C52	C	2.145525	0.801876	0.198153
C53	C	1.752739	0.301879	-0.301854
C54	C	2.252739	0.801879	0.198146
C55	C	1.394086	0.138443	-0.301881
C56	C	1.894086	0.638443	0.198119
C57	C	1.394152	0.068802	-0.301902
C58	C	1.894152	0.568802	0.198098
C59	C	1.455567	0.566993	-0.261775
C60	C	1.955567	1.066993	0.238225
C61	C	1.455612	0.632429	-0.261789
C62	C	1.955612	1.132429	0.238211
C63	C	1.393911	0.665164	-0.301825
C64	C	1.893911	1.165164	0.198175
C65	C	1.332178	0.632458	-0.341862
C66	C	1.832178	1.132458	0.158138
C67	C	1.332142	0.567024	-0.341851
C68	C	1.832142	1.067024	0.158149
C69	C	1.307060	0.768880	-0.306736
C70	C	1.807060	1.268880	0.193264
C71	C	1.307094	0.834313	-0.306743
C72	C	1.807094	1.334313	0.193257
C73	C	1.394023	0.866985	-0.301862
C74	C	1.894023	1.366985	0.198138
C75	C	1.480920	0.834215	-0.296962
C76	C	1.980920	1.334215	0.203038
C77	C	1.480884	0.768781	-0.296951
C78	C	1.980884	1.268781	0.203049
C79	C	1.393944	0.736116	-0.301842
C80	C	1.893944	1.236116	0.198158
C81	C	1.455806	0.970635	-0.261846
C82	C	1.955806	1.470635	0.238154
C83	C	1.455852	1.036071	-0.261865
C84	C	1.955852	1.536071	0.238135
C85	C	1.332410	1.036100	-0.341934
C86	C	1.832410	1.536100	0.158066
C87	C	1.332372	0.970665	-0.341919
C88	C	1.832372	1.470665	0.158081
C89	C	1.394069	0.937936	-0.301872
C90	C	1.894069	1.437936	0.198128
C91	C	1.455775	0.261776	-0.567627
C92	C	1.955775	0.761776	-0.067627
C93	C	1.455774	0.261749	-0.633063
C94	C	1.955774	0.761749	-0.133063
C95	C	1.394054	0.301806	-0.665766
C96	C	1.894054	0.801806	-0.165766
C97	C	1.332313	0.341882	-0.633028
C98	C	1.832313	0.841882	-0.133028
C99	C	1.332309	0.341903	-0.567594
C100	C	1.832309	0.841903	-0.067594
C101	C	1.386393	0.358221	-0.769428
C102	C	1.886393	0.858221	-0.269428
C103	C	1.386404	0.358201	-0.834861
C104	C	1.886404	0.858201	-0.334861
C105	C	1.394060	0.301740	-0.867587
C106	C	1.894060	0.801740	-0.367587
C107	C	1.401725	0.245297	-0.834871
C108	C	1.901725	0.745297	-0.334871
C109	C	1.401722	0.245318	-0.769437
C110	C	1.901722	0.745318	-0.269437
C111	C	1.394051	0.301787	-0.736718
C112	C	1.894051	0.801787	-0.236718
C113	C	1.455790	0.261634	-0.971269
C114	C	1.955790	0.761634	-0.471269
C115	C	1.455782	0.261606	-1.036706
C116	C	1.955782	0.761606	-0.536706
C117	C	1.332327	0.341745	-1.036670
C118	C	1.832327	0.841745	-0.536670
C119	C	1.332330	0.341767	-0.971235
C120	C	1.832330	0.841767	-0.471235
C121	C	1.394067	0.301713	-0.938538
C122	C	1.894067	0.801713	-0.438538
C123	C	1.393908	0.301834	-0.139045
C124	C	1.893908	0.801834	0.360955
C125	C	1.394061	0.301663	-0.069404
C126	C	1.894061	0.801663	0.430596
H127	H	1.505807	0.540348	-0.229168
H128	H	2.005807	1.040348	0.270832
Br129	Br	1.539645	1.080448	-0.207542
Br130	Br	2.039645	1.580448	0.292458
Br131	Br	1.248543	0.396241	-0.677409
Br132	Br	1.748543	0.896241	-0.177409
H133	H	1.551707	0.860815	-0.292988
H134	H	2.051707	1.360815	0.207012
Br135	Br	1.248552	0.396156	-0.926812
Br136	Br	1.748552	0.896156	-0.426812
H137	H	1.505882	0.659056	-0.229193
H138	H	2.005882	1.159056	0.270807
H139	H	1.236337	0.860989	-0.310727
H140	H	1.736337	1.360989	0.189273
Br141	Br	1.376031	0.434856	-0.725022
Br142	Br	1.876031	0.934856	-0.225022
Br143	Br	1.539531	0.207345	-0.677491
Br144	Br	2.039531	0.707345	-0.177491
Br145	Br	1.598810	0.724309	-0.290306
Br146	Br	2.098810	1.224309	0.209694
Br147	Br	1.539531	0.926214	-0.207496
Br148	Br	2.039531	1.426214	0.292504
Br149	Br	1.539571	0.207274	-0.926891
Br150	Br	2.039571	0.707274	-0.426891
H151	H	1.282102	0.944040	-0.374512
H152	H	1.782102	1.444040	0.125488
H153	H	1.282038	0.374534	-0.540946
H154	H	1.782038	0.874534	-0.040946
Br155	Br	1.248681	1.080519	-0.396277
Br156	Br	1.748681	1.580519	0.103723
Br157	Br	1.189074	0.724547	-0.313363
Br158	Br	1.689074	1.224547	0.186637
H159	H	1.281942	0.659116	-0.374461
H160	H	1.781942	1.159116	0.125539
Br161	Br	1.248362	0.522646	-0.396181
Br162	Br	1.748362	1.022646	0.103819
H163	H	1.380168	0.404160	-0.861494
H164	H	1.880168	0.904160	-0.361494
H165	H	1.506045	0.229160	-0.541010
H166	H	2.006045	0.729160	-0.041010
Br167	Br	1.412120	0.168722	-0.725038
Br168	Br	1.912120	0.668722	-0.225038
H169	H	1.407961	0.199321	-0.861514
H170	H	1.907961	0.699321	-0.361514
Br171	Br	1.539580	0.207226	-1.081126
Br172	Br	2.039580	0.707226	-0.581126
Br173	Br	1.248550	0.396101	-1.081046
Br174	Br	1.748550	0.896101	-0.581046
