data_functionalizedCrystal
_audit_creation_method	'MofGen! by Chris Wilmer'
_symmetry_space_group_name_H-M	'P1'
_symmetry_Int_Tables_number	1
_symmetry_cell_setting	triclinic
loop_
_symmetry_equiv_pos_as_xyz
  x,y,z
_cell_length_a	14.908571
_cell_length_b	18.101395
_cell_length_c	14.908308
_cell_angle_alpha	93.266316
_cell_angle_beta	90.175053
_cell_angle_gamma	86.727274
loop_
_atom_site_label
_atom_site_type_symbol
_atom_site_fract_x
_atom_site_fract_y
_atom_site_fract_z
Zn1	Zn	1.345208	-0.386468	-0.587575
Zn2	Zn	1.678541	-0.053135	-0.254242
Zn3	Zn	2.011875	0.280198	0.079092
Zn4	Zn	1.353762	-0.503604	-0.437213
Zn5	Zn	1.687095	-0.170270	-0.103880
Zn6	Zn	2.020429	0.163063	0.229453
Zn7	Zn	1.203527	-0.372244	-0.428573
Zn8	Zn	1.536860	-0.038911	-0.095240
Zn9	Zn	1.870193	0.294423	0.238094
Zn10	Zn	1.194790	-0.502724	-0.578865
Zn11	Zn	1.528123	-0.169391	-0.245532
Zn12	Zn	1.861457	0.163943	0.087802
O13	O	1.274322	-0.441260	-0.508057
O14	O	1.607655	-0.107927	-0.174723
O15	O	1.940988	0.225407	0.158610
O16	O	1.472167	-0.408328	-0.574890
O17	O	1.805501	-0.074994	-0.241557
O18	O	2.138834	0.258339	0.091776
O19	O	1.341069	-0.480594	-0.310243
O20	O	1.674402	-0.147261	0.023091
O21	O	2.007736	0.186073	0.356424
O22	O	1.222397	-0.270503	-0.449694
O23	O	1.555731	0.062830	-0.116361
O24	O	1.889064	0.396164	0.216972
O25	O	1.478452	-0.494387	-0.464420
O26	O	1.811785	-0.161053	-0.131087
O27	O	2.145119	0.172280	0.202246
O28	O	1.326490	-0.280953	-0.566512
O29	O	1.659824	0.052380	-0.233179
O30	O	1.993157	0.385713	0.100154
O31	O	1.230692	-0.384085	-0.303895
O32	O	1.564025	-0.050751	0.029439
O33	O	1.897358	0.282582	0.362772
O34	O	1.076543	-0.383231	-0.441249
O35	O	1.409876	-0.049898	-0.107915
O36	O	1.743210	0.283435	0.225418
O37	O	1.207507	-0.492887	-0.705845
O38	O	1.540840	-0.159554	-0.372512
O39	O	1.874174	0.173780	-0.039178
O40	O	1.070124	-0.479094	-0.551667
O41	O	1.403458	-0.145761	-0.218334
O42	O	1.736791	0.187572	0.114999
O43	O	1.318019	-0.407474	-0.712244
O44	O	1.651352	-0.074141	-0.378911
O45	O	1.984685	0.259192	-0.045578
O46	O	1.332598	-0.607115	-0.455974
O47	O	1.665931	-0.273782	-0.122641
O48	O	1.999264	0.059552	0.210692
O49	O	1.215801	-0.606469	-0.560045
O50	O	1.549135	-0.273135	-0.226712
O51	O	1.882468	0.060198	0.106621
C52	C	1.040709	-0.429524	-0.494576
C53	C	1.374042	-0.096191	-0.161242
C54	C	1.707375	0.237142	0.172091
C55	C	0.940767	-0.424523	-0.488830
C56	C	1.274100	-0.091189	-0.155496
C57	C	1.607434	0.242144	0.177837
C58	C	0.746339	-0.515086	-0.592857
C59	C	1.079672	-0.181753	-0.259524
C60	C	1.413006	0.151581	0.073810
C61	C	0.652434	-0.510389	-0.587462
C62	C	0.985768	-0.177056	-0.254128
C63	C	1.319101	0.156278	0.079205
C64	C	0.659052	-0.410428	-0.472648
C65	C	0.992385	-0.077095	-0.139315
C66	C	1.325718	0.256238	0.194019
C67	C	0.752956	-0.415125	-0.478044
C68	C	1.086289	-0.081792	-0.144710
C69	C	1.419623	0.251541	0.188623
C70	C	0.796596	-0.467457	-0.538149
C71	C	1.129930	-0.134124	-0.204816
C72	C	1.463263	0.199210	0.128517
C73	C	0.890503	-0.472157	-0.543540
C74	C	1.223836	-0.138824	-0.210206
C75	C	1.557169	0.194510	0.123127
C76	C	0.897118	-0.372193	-0.428731
C77	C	1.230451	-0.038860	-0.095398
C78	C	1.563784	0.294473	0.237935
C79	C	0.803213	-0.367496	-0.423336
C80	C	1.136547	-0.034163	-0.090003
C81	C	1.469880	0.299170	0.243331
C82	C	1.274203	-0.633663	-0.508023
C83	C	1.607536	-0.300330	-0.174690
C84	C	1.940870	0.033003	0.158643
C85	C	1.274233	-0.715980	-0.508044
C86	C	1.607566	-0.382646	-0.174710
C87	C	1.940899	-0.049313	0.158623
C88	C	1.274427	-1.015083	-0.508104
C89	C	1.607760	-0.681749	-0.174770
C90	C	1.941094	-0.348416	0.158563
C91	C	1.201093	-0.983397	-0.573764
C92	C	1.534427	-0.650064	-0.240431
C93	C	1.867760	-0.316731	0.092903
C94	C	1.200777	-0.897753	-0.573527
C95	C	1.534110	-0.564420	-0.240194
C96	C	1.867443	-0.231087	0.093140
C97	C	1.274331	-0.866694	-0.508075
C98	C	1.607664	-0.533361	-0.174741
C99	C	1.940997	-0.200028	0.158592
C100	C	1.254147	-0.892332	-0.411835
C101	C	1.587481	-0.558999	-0.078502
C102	C	1.920814	-0.225665	0.254831
C103	C	1.253677	-0.977973	-0.412227
C104	C	1.587010	-0.644640	-0.078893
C105	C	1.920343	-0.311307	0.254440
C106	C	1.368144	-0.989281	-0.537857
C107	C	1.701477	-0.655948	-0.204524
C108	C	2.034811	-0.322615	0.128810
C109	C	1.367465	-0.903695	-0.539903
C110	C	1.700798	-0.570361	-0.206570
C111	C	2.034131	-0.237028	0.126764
C112	C	1.274278	-0.782831	-0.508053
C113	C	1.607611	-0.449498	-0.174719
C114	C	1.940945	-0.116165	0.158614
C115	C	1.274478	-1.098945	-0.508119
C116	C	1.607811	-0.765612	-0.174786
C117	C	1.941145	-0.432279	0.158548
C118	C	1.508847	-0.453042	-0.521591
C119	C	1.842180	-0.119709	-0.188257
C120	C	2.175513	0.213625	0.145076
C121	C	1.608787	-0.458063	-0.527358
C122	C	1.942121	-0.124729	-0.194025
C123	C	2.275454	0.208604	0.139309
C124	C	1.260834	-0.451669	-0.742582
C125	C	1.594168	-0.118336	-0.409248
C126	C	1.927501	0.214997	-0.075915
C127	C	1.255087	-0.456105	-0.842522
C128	C	1.588420	-0.122772	-0.509189
C129	C	1.921753	0.210562	-0.175856
C130	C	1.274464	-0.248107	-0.508111
C131	C	1.607798	0.085226	-0.174778
C132	C	1.941131	0.418559	0.158555
C133	C	1.274525	-0.165797	-0.508134
C134	C	1.607858	0.167536	-0.174801
C135	C	1.941192	0.500869	0.158532
C136	C	1.359359	-0.375483	-1.036986
C137	C	1.692693	-0.042150	-0.703653
C138	C	2.026026	0.291184	-0.370320
C139	C	1.353962	-0.379648	-1.130890
C140	C	1.687295	-0.046315	-0.797556
C141	C	2.020629	0.287018	-0.464223
C142	C	1.238890	-0.468597	-1.124234
C143	C	1.572223	-0.135264	-0.790900
C144	C	1.905557	0.198070	-0.457567
C145	C	1.244288	-0.464432	-1.030330
C146	C	1.577621	-0.131098	-0.696997
C147	C	1.910954	0.202235	-0.363664
C148	C	1.304525	-0.417874	-0.986710
C149	C	1.637859	-0.084540	-0.653377
C150	C	1.971192	0.248793	-0.320044
C151	C	1.309927	-0.413713	-0.892805
C152	C	1.643260	-0.080379	-0.559472
C153	C	1.976593	0.252954	-0.226139
C154	C	1.194851	-0.502657	-0.886151
C155	C	1.528184	-0.169324	-0.552817
C156	C	1.861518	0.164010	-0.219484
C157	C	1.189453	-0.506822	-0.980054
C158	C	1.522787	-0.173489	-0.646721
C159	C	1.856120	0.159844	-0.313387
C160	C	1.287808	-0.430840	-0.274447
C161	C	1.621142	-0.097507	0.058886
C162	C	1.954475	0.235826	0.392220
C163	C	1.293730	-0.426205	-0.174517
C164	C	1.627064	-0.092871	0.158817
C165	C	1.960397	0.240462	0.492150
H166	H	0.611518	-0.549172	-0.632012
H167	H	0.944851	-0.215839	-0.298679
H168	H	1.278185	0.117494	0.034654
N169	N	0.793411	-0.571532	-0.657675
N170	N	1.126744	-0.238199	-0.324342
N171	N	1.460077	0.095135	0.008991
H172	H	0.829999	-0.545295	-0.701647
H173	H	1.163332	-0.211962	-0.368314
H174	H	1.496666	0.121372	-0.034981
H175	H	0.834402	-0.606109	-0.623226
H176	H	1.167735	-0.272776	-0.289893
H177	H	1.501069	0.060558	0.043441
N178	N	1.173928	-0.518810	-1.171292
N179	N	1.507261	-0.185477	-0.837959
N180	N	1.840595	0.147857	-0.504626
H181	H	1.140007	-0.545035	-1.125195
H182	H	1.473341	-0.211702	-0.791862
H183	H	1.806674	0.121631	-0.458528
H184	H	1.130099	-0.488302	-1.207857
H185	H	1.463432	-0.154969	-0.874524
H186	H	1.796766	0.178364	-0.541191
H187	H	1.150203	-0.537177	-0.845206
H188	H	1.483536	-0.203843	-0.511872
H189	H	1.816870	0.129490	-0.178539
N190	N	1.163149	-0.998698	-0.379695
N191	N	1.496482	-0.665365	-0.046361
N192	N	1.829816	-0.332032	0.286972
H193	H	1.171249	-1.027548	-0.323930
H194	H	1.504582	-0.694215	0.009403
H195	H	1.837915	-0.360881	0.342736
H196	H	1.123969	-0.952193	-0.365284
H197	H	1.457302	-0.618860	-0.031951
H198	H	1.790635	-0.285526	0.301382
N199	N	1.393939	-1.023389	-0.629611
N200	N	1.727272	-0.690055	-0.296277
N201	N	2.060606	-0.356722	0.037056
H202	H	1.345130	-1.055917	-0.652821
H203	H	1.678463	-0.722583	-0.319487
H204	H	2.011796	-0.389250	0.013846
H205	H	1.401754	-0.982788	-0.672188
H206	H	1.735087	-0.649454	-0.338855
H207	H	2.068420	-0.316121	-0.005522
N208	N	1.374903	-0.363506	-0.845758
N209	N	1.708236	-0.030173	-0.512424
N210	N	2.041570	0.303160	-0.179091
H211	H	1.370010	-0.367304	-0.778641
H212	H	1.703344	-0.033970	-0.445308
H213	H	2.036677	0.299363	-0.111975
H214	H	1.438163	-0.378993	-0.865882
H215	H	1.771496	-0.045660	-0.532549
H216	H	2.104829	0.287673	-0.199216
H217	H	1.140408	-0.544727	-1.015582
H218	H	1.473741	-0.211393	-0.682249
H219	H	1.807075	0.121940	-0.348916
H220	H	0.623503	-0.367818	-0.423719
H221	H	0.956836	-0.034485	-0.090385
H222	H	1.290169	0.298848	0.242948
N223	N	1.164618	-0.858213	-0.378852
N224	N	1.497952	-0.524880	-0.045519
N225	N	1.831285	-0.191547	0.287814
H226	H	1.173632	-0.826867	-0.321652
H227	H	1.506965	-0.493534	0.011682
H228	H	1.840299	-0.160200	0.345015
H229	H	1.137055	-0.826178	-0.426152
H230	H	1.470388	-0.492844	-0.092819
H231	H	1.803721	-0.159511	0.240514
N232	N	0.756143	-0.311070	-0.358492
N233	N	1.089476	0.022263	-0.025159
N234	N	1.422810	0.355596	0.308175
H235	H	0.689029	-0.315326	-0.363368
H236	H	1.022362	0.018008	-0.030034
H237	H	1.355695	0.351341	0.303299
H238	H	0.776241	-0.320509	-0.295203
H239	H	1.109575	0.012824	0.038130
H240	H	1.442908	0.346158	0.371463
N241	N	1.216741	-1.015840	-0.668352
N242	N	1.550075	-0.682506	-0.335019
N243	N	1.883408	-0.349173	-0.001686
H244	H	1.162608	-1.043188	-0.689265
H245	H	1.495942	-0.709855	-0.355932
H246	H	1.829275	-0.376522	-0.022598
H247	H	1.226604	-0.974640	-0.709536
H248	H	1.559938	-0.641307	-0.376203
H249	H	1.893271	-0.307973	-0.042869
N250	N	1.216650	-0.875064	-0.667825
N251	N	1.549984	-0.541731	-0.334492
N252	N	1.883317	-0.208398	-0.001158
H253	H	1.216470	-0.819261	-0.667851
H254	H	1.549803	-0.485927	-0.334518
H255	H	1.883137	-0.152594	-0.001184
H256	H	1.276668	-0.897427	-0.690112
H257	H	1.610001	-0.564094	-0.356779
H258	H	1.943334	-0.230761	-0.023446
N259	N	1.321744	-1.005462	-0.344825
N260	N	1.655078	-0.672129	-0.011491
N261	N	1.988411	-0.338795	0.321842
H262	H	1.351920	-0.961944	-0.314987
H263	H	1.685253	-0.628610	0.018346
H264	H	2.018586	-0.295277	0.351679
H265	H	1.290420	-1.032736	-0.297849
H266	H	1.623753	-0.699403	0.035484
H267	H	1.957086	-0.366069	0.368818
N268	N	1.387767	-0.882131	-0.633755
N269	N	1.721100	-0.548798	-0.300422
N270	N	2.054434	-0.215464	0.032912
H271	H	1.336856	-0.848533	-0.655572
H272	H	1.670189	-0.515200	-0.322238
H273	H	2.003522	-0.181866	0.011095
H274	H	1.445342	-0.855290	-0.633197
H275	H	1.778676	-0.521957	-0.299864
H276	H	2.112009	-0.188624	0.033470
N277	N	1.443093	-0.876167	-0.481760
N278	N	1.776426	-0.542833	-0.148427
N279	N	2.109759	-0.209500	0.184907
H280	H	1.417941	-0.839158	-0.433746
H281	H	1.751275	-0.505824	-0.100412
H282	H	2.084608	-0.172491	0.232921
H283	H	1.474833	-0.919372	-0.452583
H284	H	1.808166	-0.586039	-0.119250
H285	H	2.141499	-0.252705	0.214083
H286	H	0.938048	-0.333411	-0.384182
H287	H	1.271381	-0.000078	-0.050849
H288	H	1.604714	0.333255	0.282484
H289	H	1.131935	-1.000760	-0.553850
H290	H	1.465268	-0.667427	-0.220517
H291	H	1.798601	-0.334094	0.112816
N292	N	1.440431	-1.016534	-0.474603
N293	N	1.773765	-0.683200	-0.141270
N294	N	2.107098	-0.349867	0.192064
H295	H	1.412661	-1.045453	-0.426904
H296	H	1.745994	-0.712120	-0.093571
H297	H	2.079327	-0.378787	0.239762
H298	H	1.486547	-1.049588	-0.509427
H299	H	1.819880	-0.716255	-0.176093
H300	H	2.153213	-0.382921	0.157240
N301	N	1.108621	-0.865056	-0.546843
N302	N	1.441954	-0.531723	-0.213509
N303	N	1.775288	-0.198389	0.119824
H304	H	1.068047	-0.906286	-0.535183
H305	H	1.401380	-0.572953	-0.201850
H306	H	1.734713	-0.239619	0.131484
H307	H	1.113493	-0.831767	-0.490536
H308	H	1.446826	-0.498433	-0.157203
H309	H	1.780159	-0.165100	0.176131
H310	H	1.306121	-0.872037	-0.361340
H311	H	1.639454	-0.538703	-0.028007
H312	H	1.972788	-0.205370	0.305326
N313	N	0.937576	-0.528600	-0.608360
N314	N	1.270910	-0.195267	-0.275027
N315	N	1.604243	0.138067	0.058307
H316	H	0.891485	-0.558058	-0.642199
H317	H	1.224819	-0.224725	-0.308866
H318	H	1.558152	0.108608	0.024467
H319	H	0.974167	-0.502306	-0.652272
H320	H	1.307500	-0.168973	-0.318938
H321	H	1.640834	0.164361	0.014395
N322	N	1.424335	-0.325280	-0.989932
N323	N	1.757668	0.008054	-0.656599
N324	N	2.091002	0.341387	-0.323265
H325	H	1.458258	-0.299059	-1.036032
H326	H	1.791591	0.034274	-0.702699
H327	H	2.124925	0.367607	-0.369365
H328	H	1.390001	-0.287442	-0.948867
H329	H	1.723335	0.045891	-0.615534
H330	H	2.056668	0.379225	-0.282200
N331	N	1.413096	-0.333921	-1.185118
N332	N	1.746429	-0.000587	-0.851785
N333	N	2.079762	0.332746	-0.518451
H334	H	1.452070	-0.303795	-1.143232
H335	H	1.785404	0.029539	-0.809899
H336	H	2.118737	0.362872	-0.476566
H337	H	1.452450	-0.367876	-1.226475
H338	H	1.785783	-0.034543	-0.893142
H339	H	2.119116	0.298791	-0.559809
