data_functionalizedCrystal
_audit_creation_method	'MofGen! by Chris Wilmer'
_symmetry_space_group_name_H-M	'P1'
_symmetry_Int_Tables_number	1
_symmetry_cell_setting	triclinic
loop_
_symmetry_equiv_pos_as_xyz
  x,y,z
_cell_length_a	13.897448
_cell_length_b	13.897449
_cell_length_c	12.759393
_cell_angle_alpha	89.980586
_cell_angle_beta	89.966449
_cell_angle_gamma	90.018972
loop_
_atom_site_label
_atom_site_type_symbol
_atom_site_fract_x
_atom_site_fract_y
_atom_site_fract_z
Zn1	Zn	-0.383923	1.474690	-0.594025
Zn2	Zn	-0.050590	1.808023	-0.260692
Zn3	Zn	0.282744	2.141357	0.072641
Zn4	Zn	-0.545253	1.474588	-0.418340
Zn5	Zn	-0.211920	1.807921	-0.085007
Zn6	Zn	0.121414	2.141254	0.248327
Zn7	Zn	-0.383977	1.313383	-0.418359
Zn8	Zn	-0.050644	1.646716	-0.085025
Zn9	Zn	0.282689	1.980050	0.248308
Zn10	Zn	-0.545181	1.313361	-0.593975
Zn11	Zn	-0.211848	1.646694	-0.260642
Zn12	Zn	0.121485	1.980028	0.072691
O13	O	-0.464584	1.394005	-0.506175
O14	O	-0.131250	1.727339	-0.172841
O15	O	0.202083	2.060672	0.160492
O16	O	-0.405331	1.609658	-0.570734
O17	O	-0.071998	1.942991	-0.237400
O18	O	0.261335	2.276325	0.095933
O19	O	-0.523912	1.453170	-0.271321
O20	O	-0.190579	1.786503	0.062012
O21	O	0.142754	2.119837	0.395345
O22	O	-0.248989	1.334833	-0.441690
O23	O	0.084345	1.668166	-0.108357
O24	O	0.417678	2.001499	0.224977
O25	O	-0.523860	1.609583	-0.441658
O26	O	-0.190526	1.942916	-0.108325
O27	O	0.142807	2.276250	0.225008
O28	O	-0.248949	1.453344	-0.570752
O29	O	0.084385	1.786678	-0.237418
O30	O	0.417718	2.120011	0.095915
O31	O	-0.405424	1.334733	-0.271335
O32	O	-0.072090	1.668067	0.061998
O33	O	0.261243	2.001400	0.395332
O34	O	-0.405354	1.178398	-0.441641
O35	O	-0.072021	1.511732	-0.108308
O36	O	0.261313	1.845065	0.225025
O37	O	-0.523737	1.334795	-0.741003
O38	O	-0.190404	1.668129	-0.407670
O39	O	0.142929	2.001462	-0.074336
O40	O	-0.523790	1.178382	-0.570666
O41	O	-0.190457	1.511716	-0.237333
O42	O	0.142877	1.845049	0.096001
O43	O	-0.405262	1.453323	-0.741040
O44	O	-0.071928	1.786656	-0.407707
O45	O	0.261405	2.119990	-0.074373
O46	O	-0.680225	1.453149	-0.441610
O47	O	-0.346892	1.786482	-0.108276
O48	O	-0.013559	2.119815	0.225057
O49	O	-0.680173	1.334696	-0.570648
O50	O	-0.346839	1.668029	-0.237315
O51	O	-0.013506	2.001363	0.096019
C52	C	-0.464571	1.143391	-0.506151
C53	C	-0.131238	1.476724	-0.172818
C54	C	0.202096	1.810058	0.160516
C55	C	-0.464589	1.036177	-0.506166
C56	C	-0.131255	1.369510	-0.172832
C57	C	0.202078	1.702844	0.160501
C58	C	-0.464592	0.839882	-0.506193
C59	C	-0.131259	1.173215	-0.172860
C60	C	0.202075	1.506549	0.160474
C61	C	-0.464587	0.949115	-0.506175
C62	C	-0.131254	1.282448	-0.172842
C63	C	0.202080	1.615781	0.160492
C64	C	-0.715198	1.393935	-0.506144
C65	C	-0.381865	1.727268	-0.172811
C66	C	-0.048531	2.060602	0.160522
C67	C	-0.822412	1.393993	-0.506167
C68	C	-0.489079	1.727326	-0.172833
C69	C	-0.155745	2.060660	0.160500
C70	C	-1.018707	1.394094	-0.506232
C71	C	-0.685374	1.727428	-0.172899
C72	C	-0.352040	2.060761	0.160434
C73	C	-0.909475	1.394035	-0.506199
C74	C	-0.576141	1.727369	-0.172866
C75	C	-0.242808	2.060702	0.160468
C76	C	-0.212991	1.394102	-0.506228
C77	C	0.120343	1.727436	-0.172895
C78	C	0.453676	2.060769	0.160438
C79	C	-0.105777	1.394144	-0.506251
C80	C	0.227557	1.727477	-0.172918
C81	C	0.560890	2.060810	0.160416
C82	C	-0.464486	1.394068	-0.780208
C83	C	-0.131152	1.727401	-0.446875
C84	C	0.202181	2.060735	-0.113542
C85	C	-0.464444	1.394095	-0.896985
C86	C	-0.131110	1.727428	-0.563652
C87	C	0.202223	2.060761	-0.230318
C88	C	-0.464597	1.645598	-0.506199
C89	C	-0.131264	1.978932	-0.172866
C90	C	0.202069	2.312265	0.160467
C91	C	-0.464603	1.752812	-0.506210
C92	C	-0.131270	2.086146	-0.172877
C93	C	0.202063	2.419479	0.160457
C94	C	-0.402735	1.332451	-0.951860
C95	C	-0.069402	1.665784	-0.618527
C96	C	0.263931	1.999118	-0.285193
C97	C	-0.402707	1.332480	-1.061584
C98	C	-0.069373	1.665814	-0.728251
C99	C	0.263960	1.999147	-0.394918
C100	C	-0.526097	1.455805	-1.061548
C101	C	-0.192764	1.789139	-0.728215
C102	C	0.140569	2.122472	-0.394882
C103	C	-0.526130	1.455770	-0.951826
C104	C	-0.192797	1.789104	-0.618493
C105	C	0.140536	2.122437	-0.285160
C106	C	-0.341049	1.270775	-0.897019
C107	C	-0.007715	1.604109	-0.563686
C108	C	0.325618	1.937442	-0.230352
C109	C	-0.279335	1.209127	-0.951894
C110	C	0.053999	1.542461	-0.618561
C111	C	0.387332	1.875794	-0.285227
C112	C	-0.279306	1.209156	-1.061618
C113	C	0.054028	1.542490	-0.728285
C114	C	0.387361	1.875823	-0.394952
C115	C	-0.340991	1.270834	-1.116467
C116	C	-0.007658	1.604167	-0.783134
C117	C	0.325675	1.937500	-0.449800
C118	C	-0.464612	1.393999	-0.233207
C119	C	-0.131279	1.727332	0.100126
C120	C	0.202055	2.060665	0.433459
C121	C	-0.464382	1.394159	-0.116431
C122	C	-0.131049	1.727492	0.216902
C123	C	0.202285	2.060825	0.550235
H124	H	-0.341063	1.270746	-0.807676
H125	H	-0.007730	1.604080	-0.474343
H126	H	0.325603	1.937413	-0.141009
H127	H	-0.229118	1.158907	-0.907229
H128	H	0.104216	1.492240	-0.573896
H129	H	0.437549	1.825574	-0.240562
H130	H	-0.576366	1.505979	-0.907146
H131	H	-0.243032	1.839313	-0.573813
H132	H	0.090301	2.172646	-0.240479
O133	O	-0.592619	1.522325	-1.120712
O134	O	-0.259285	1.855658	-0.787379
O135	O	0.074048	2.188991	-0.454046
H136	H	-0.668329	1.505735	-1.099642
H137	H	-0.334996	1.839069	-0.766309
H138	H	-0.001662	2.172402	-0.432976
H139	H	-0.229062	1.158954	-1.106295
H140	H	0.104272	1.492287	-0.772961
H141	H	0.437605	1.825620	-0.439628
H142	H	-0.340965	1.270850	-1.205812
H143	H	-0.007632	1.604183	-0.872479
H144	H	0.325701	1.937517	-0.539145
