data_functionalizedCrystal
_audit_creation_method	'MofGen! by Chris Wilmer'
_symmetry_space_group_name_H-M	'P1'
_symmetry_Int_Tables_number	1
_symmetry_cell_setting	triclinic
loop_
_symmetry_equiv_pos_as_xyz
  x,y,z
_cell_length_a	10.685661
_cell_length_b	10.686285
_cell_length_c	17.077396
_cell_angle_alpha	85.608118
_cell_angle_beta	85.617095
_cell_angle_gamma	80.943086
loop_
_atom_site_label
_atom_site_type_symbol
_atom_site_fract_x
_atom_site_fract_y
_atom_site_fract_z
Zn1	Zn	1.979480	-0.654284	-0.506893
Zn2	Zn	1.995673	-0.866547	-0.366295
Zn3	Zn	1.767213	-0.638034	-0.366314
Zn4	Zn	1.783496	-0.850185	-0.488201
O5	O	1.881466	-0.752262	-0.431926
O6	O	2.159259	-0.696089	-0.496057
O7	O	1.965330	-0.836281	-0.256446
O8	O	1.781780	-0.462571	-0.392792
O9	O	2.171156	-0.852037	-0.392760
O10	O	1.937731	-0.474510	-0.496075
O11	O	1.797482	-0.668394	-0.256460
O12	O	1.591742	-0.652529	-0.374668
O13	O	1.809531	-0.824151	-0.600532
O14	O	1.603705	-0.808395	-0.464218
O15	O	1.953519	-0.680223	-0.614264
O16	O	1.981119	-1.041995	-0.374636
O17	O	1.825233	-1.029974	-0.464200
C18	C	1.551666	-0.726924	-0.417417
C19	C	1.410578	-0.716115	-0.411227
C20	C	1.906734	-1.082042	-0.417406
C21	C	1.917661	-1.223131	-0.411226
C22	C	2.212553	-0.777701	-0.446491
C23	C	2.353643	-0.788541	-0.452698
C24	C	1.881535	-0.752175	-0.636677
C25	C	1.881565	-0.752138	-0.723930
C26	C	1.856133	-0.421198	-0.446521
C27	C	1.845337	-0.280118	-0.452740
C28	C	1.956542	-0.677188	-0.772073
C29	C	1.956554	-0.677147	-0.854056
C30	C	1.881595	-0.752063	-0.887895
C31	C	1.806609	-0.827016	-0.839746
C32	C	1.806591	-0.827049	-0.757765
C33	C	1.806654	-0.826943	-1.010622
C34	C	1.806674	-0.826912	-1.092609
C35	C	1.956617	-0.677041	-1.106913
C36	C	1.956599	-0.677074	-1.024932
C37	C	1.881615	-0.752029	-0.976789
C38	C	1.881462	-0.752264	-0.227978
C39	C	1.881651	-0.751962	-0.140751
H40	H	1.412834	-0.858809	-0.492944
O41	O	1.340003	-0.632098	-0.363308
C42	C	1.282636	-0.413033	-0.333121
C43	C	1.362611	-0.508033	-0.387458
H44	H	1.300906	-0.312709	-0.352616
H45	H	1.177591	-0.418855	-0.336522
H46	H	1.310272	-0.437227	-0.269954
H47	H	1.335085	-0.483902	-0.450648
H48	H	1.467636	-0.502193	-0.383989
O49	O	2.029219	-0.604203	-0.991976
C50	C	2.033100	-0.434098	-0.907782
C51	C	1.950725	-0.516573	-0.945032
H52	H	1.969669	-0.363211	-0.869833
H53	H	2.103909	-0.497388	-0.869697
H54	H	2.086710	-0.380578	-0.956294
H55	H	1.897034	-0.570105	-0.896573
H56	H	1.879994	-0.453217	-0.983137
O57	O	1.761604	-1.209377	-0.500778
C58	C	1.673919	-0.999521	-0.550889
C59	C	1.768820	-1.079493	-0.496470
H60	H	1.679703	-0.894493	-0.547411
H61	H	1.698129	-1.027042	-0.614073
H62	H	1.573594	-1.017831	-0.531427
H63	H	1.869179	-1.061225	-0.515861
H64	H	1.744502	-1.051957	-0.433297
O65	O	2.001367	-1.293645	-0.363068
C66	C	2.066319	-1.339279	-0.230536
C67	C	1.971420	-1.259347	-0.284974
H68	H	2.042157	-1.311559	-0.167389
H69	H	2.060465	-1.444321	-0.233884
H70	H	2.166657	-1.321071	-0.250052
H71	H	1.871039	-1.277446	-0.265496
H72	H	1.977385	-1.154331	-0.281620
O73	O	2.029210	-0.604218	-0.739244
C74	C	2.074346	-0.393060	-0.726440
C75	C	1.991943	-0.475552	-0.763651
H76	H	2.044264	-0.289020	-0.746172
H77	H	2.061447	-0.405843	-0.659571
H78	H	2.178406	-0.423270	-0.746074
H79	H	1.887853	-0.445395	-0.744080
H80	H	2.004949	-0.462761	-0.830515
H81	H	2.017611	-0.616118	-0.893251
H82	H	2.017670	-0.616008	-1.146115
H83	H	1.745632	-0.887913	-1.120158
O84	O	1.733806	-0.899893	-0.963969
C85	C	1.585089	-1.048545	-0.958428
C86	C	1.667527	-0.965995	-1.011354
H87	H	1.531460	-1.101989	-0.996717
H88	H	1.648413	-1.119477	-0.919714
H89	H	1.514292	-0.985200	-0.919663
H90	H	1.738333	-1.029239	-1.050167
H91	H	1.604124	-0.895053	-1.050016
O92	O	1.733744	-0.899990	-0.711111
C93	C	1.584999	-1.048613	-0.705570
C94	C	1.667458	-0.966085	-0.758496
H95	H	1.531364	-1.102052	-0.743859
H96	H	1.648307	-1.119550	-0.666849
H97	H	1.514206	-0.985253	-0.666811
H98	H	1.738260	-1.029344	-0.797303
H99	H	1.604070	-0.895138	-0.797164
H100	H	1.745571	-0.888009	-0.867304
