data_functionalizedCrystal
_audit_creation_method	'MofGen! by Chris Wilmer'
_symmetry_space_group_name_H-M	'P1'
_symmetry_Int_Tables_number	1
_symmetry_cell_setting	triclinic
loop_
_symmetry_equiv_pos_as_xyz
  x,y,z
_cell_length_a	8.497374
_cell_length_b	21.395362
_cell_length_c	21.395362
_cell_angle_alpha	89.956166
_cell_angle_beta	90.022954
_cell_angle_gamma	89.987744
loop_
_atom_site_label
_atom_site_type_symbol
_atom_site_fract_x
_atom_site_fract_y
_atom_site_fract_z
Zn1	Zn	0.892808	0.249282	0.957742
Zn2	Zn	0.628993	0.354031	0.957687
Zn3	Zn	0.628938	0.249300	0.852995
Zn4	Zn	0.892627	0.354054	0.852931
O5	O	0.760841	0.301667	0.905339
O6	O	0.857912	0.263159	1.045412
O7	O	0.408223	0.340136	0.943804
O8	O	0.663993	0.161620	0.866939
O9	O	0.664088	0.340118	1.045373
O10	O	0.857858	0.161606	0.943896
O11	O	0.408183	0.263191	0.866887
O12	O	0.663818	0.263214	0.765308
O13	O	1.113413	0.340158	0.866830
O14	O	0.857549	0.340176	0.765261
O15	O	1.113546	0.263182	0.943834
O16	O	0.663912	0.441712	0.943742
O17	O	0.857603	0.441729	0.866777
C18	C	0.760658	0.301700	0.742551
C19	C	0.760618	0.301729	0.672910
C20	C	0.861342	0.341857	0.640188
C21	C	0.861413	0.341841	0.574753
C22	C	0.760730	0.301705	0.542041
C23	C	0.659998	0.261570	0.574771
C24	C	0.659942	0.261582	0.640205
C25	C	0.618708	0.296652	0.438337
C26	C	0.618762	0.296644	0.372904
C27	C	0.760904	0.301664	0.340221
C28	C	0.902997	0.306705	0.372978
C29	C	0.902941	0.306717	0.438412
C30	C	0.760780	0.301687	0.471089
C31	C	0.861714	0.341777	0.236547
C32	C	0.861787	0.341757	0.171110
C33	C	0.660358	0.261489	0.171129
C34	C	0.660299	0.261506	0.236564
C35	C	0.760975	0.301653	0.269269
C36	C	0.760778	0.464454	0.905264
C37	C	0.760804	0.534096	0.905289
C38	C	1.172322	0.301668	0.905334
C39	C	1.350966	0.301674	0.905335
C40	C	0.660302	1.035862	0.945559
C41	C	0.660260	0.970426	0.945536
C42	C	0.761005	0.937734	0.905422
C43	C	0.861772	0.970482	0.865318
C44	C	0.861800	1.035916	0.865338
C45	C	0.903078	0.834050	0.900395
C46	C	0.903052	0.768617	0.900379
C47	C	0.760918	0.735913	0.905357
C48	C	0.618805	0.768650	0.910364
C49	C	0.618833	0.834084	0.910384
C50	C	0.760985	0.866782	0.905396
C51	C	0.660104	0.632220	0.945431
C52	C	0.660059	0.566784	0.945404
C53	C	0.861586	0.566841	0.865189
C54	C	0.861616	0.632276	0.865213
C55	C	0.760878	0.664962	0.905338
C56	C	0.761026	0.301634	1.068762
C57	C	0.761105	0.301620	1.138403
C58	C	0.760960	1.138243	0.905429
C59	C	0.761062	1.068602	0.905462
H60	H	0.503061	0.292543	0.346238
H61	H	0.578024	0.228889	0.548133
H62	H	0.943323	0.374547	0.666813
H63	H	0.503067	0.742023	0.914419
H64	H	0.578270	0.228833	0.263206
H65	H	0.577919	0.228903	0.666846
C66	C	0.462350	0.291095	0.474283
H67	H	0.377737	0.288090	0.445404
H68	H	0.464594	0.254775	0.499832
H69	H	0.448250	0.326991	0.499782
C70	C	0.549478	1.071813	0.989687
H71	H	0.489452	1.042938	1.013560
H72	H	0.609918	1.097303	1.016973
H73	H	0.480664	1.097372	0.965747
C74	C	0.972205	0.385984	0.538749
H75	H	0.957823	0.380224	0.495095
H76	H	0.948911	0.428068	0.549426
H77	H	1.078244	0.376884	0.549510
H78	H	0.943608	0.540223	0.832525
C79	C	1.059368	0.312221	0.337039
H80	H	1.143977	0.315227	0.365919
H81	H	1.073414	0.276314	0.311555
H82	H	1.057185	0.348535	0.311475
H83	H	0.943857	1.062573	0.832686
C84	C	0.972466	0.385927	0.272528
H85	H	0.957994	0.380193	0.316185
H86	H	1.078512	0.376819	0.261845
H87	H	0.949196	0.428011	0.261756
C88	C	0.462521	0.870093	0.915882
H89	H	0.377860	0.841248	0.918839
H90	H	0.464695	0.895582	0.952205
H91	H	0.448562	0.895656	0.879980
H92	H	0.578387	0.228807	0.144496
C93	C	0.549435	0.934402	0.989647
H94	H	0.563845	0.890750	0.983886
H95	H	0.572679	0.945077	1.031738
H96	H	0.443400	0.945147	0.980522
H97	H	0.943798	0.943861	0.832656
H98	H	0.578074	0.658835	0.978102
H99	H	1.018638	0.310820	0.465081
H100	H	0.943670	0.658933	0.832564
H101	H	0.578000	0.540126	0.978053
C102	C	0.972568	0.385909	0.135117
H103	H	1.032496	0.409825	0.163969
H104	H	1.041450	0.361991	0.109630
H105	H	0.912082	0.413162	0.109551
C106	C	1.059365	0.732613	0.894862
H107	H	1.144015	0.761460	0.891885
H108	H	1.073366	0.707043	0.930753
H109	H	1.057156	0.707130	0.858530
C110	C	1.059437	0.870019	0.894924
H111	H	1.144068	0.841152	0.891950
H112	H	1.057294	0.895587	0.858616
H113	H	1.073419	0.895501	0.930842
