data_functionalizedCrystal
_audit_creation_method	'MofGen! by Chris Wilmer'
_symmetry_space_group_name_H-M	'P1'
_symmetry_Int_Tables_number	1
_symmetry_cell_setting	triclinic
loop_
_symmetry_equiv_pos_as_xyz
  x,y,z
_cell_length_a	17.699083
_cell_length_b	12.503572
_cell_length_c	17.699083
_cell_angle_alpha	86.484775
_cell_angle_beta	83.283015
_cell_angle_gamma	93.505083
loop_
_atom_site_label
_atom_site_type_symbol
_atom_site_fract_x
_atom_site_fract_y
_atom_site_fract_z
O1	O	1.008441	0.089171	0.091332
O2	O	1.508441	0.589171	0.591332
O3	O	0.788064	0.089207	0.103783
O4	O	1.288064	0.589207	0.603783
O5	O	0.904478	0.089179	-0.012631
O6	O	1.404478	0.589179	0.487369
O7	O	0.892027	0.089200	0.207746
O8	O	1.392027	0.589200	0.707746
O9	O	0.895723	-0.089461	-0.003862
O10	O	1.395723	0.410539	0.496138
O11	O	0.779309	-0.089433	0.112552
O12	O	1.279309	0.410567	0.612552
O13	O	0.999686	-0.089468	0.100101
O14	O	1.499686	0.410532	0.600101
Cu15	Cu	0.888698	-0.105762	0.107128
Cu16	Cu	1.388698	0.394238	0.607128
Cu17	Cu	0.899052	0.105500	0.096757
Cu18	Cu	1.399052	0.605500	0.596757
O19	O	0.883272	-0.089440	0.216516
O20	O	1.383272	0.410560	0.716516
C21	C	0.755490	-0.000109	0.107721
C22	C	1.255490	0.499891	0.607721
C23	C	0.671473	-0.000095	0.106382
C24	C	1.171473	0.499905	0.606382
N25	N	0.881421	-0.254352	0.114421
N26	N	1.381421	0.245648	0.614421
C27	C	0.622852	-0.000089	0.174715
C28	C	1.122852	0.499911	0.674715
C29	C	0.543908	-0.000103	0.173453
C30	C	1.043908	0.499897	0.673453
C31	C	0.513587	-0.000116	0.103857
C32	C	1.013587	0.499884	0.603857
C33	C	0.562213	-0.000125	0.035519
C34	C	1.062213	0.499875	0.535519
C35	C	0.641155	-0.000119	0.036782
C36	C	1.141155	0.499881	0.536782
C37	C	0.243849	-0.000152	0.030425
C38	C	0.743849	0.499848	0.530425
C39	C	0.164901	-0.000155	0.029168
C40	C	0.664901	0.499845	0.529168
C41	C	0.146602	-0.000137	0.167097
C42	C	0.646602	0.499863	0.667097
C43	C	0.225544	-0.000130	0.168359
C44	C	0.725544	0.499870	0.668359
C45	C	0.274163	-0.000145	0.100022
C46	C	0.774163	0.499855	0.600022
C47	C	0.359763	-0.000132	0.101391
C48	C	0.859763	0.499868	0.601391
C49	C	0.427989	-0.000121	0.102487
C50	C	0.927989	0.499879	0.602487
C51	C	0.870717	-0.473465	0.125157
C52	C	1.370717	0.026535	0.625157
C53	C	0.917037	-0.526803	0.078723
C54	C	1.417037	-0.026803	0.578723
C55	C	0.911081	-0.648725	0.084697
C56	C	1.411081	-0.148725	0.584697
C57	C	0.876672	-0.351532	0.119185
C58	C	1.376672	0.148468	0.619185
C59	C	1.032260	-0.000151	0.096163
C60	C	1.532260	0.499849	0.596163
C61	C	1.116278	-0.000157	0.097502
C62	C	1.616278	0.499843	0.597502
C63	C	0.899655	-0.000141	-0.036444
C64	C	1.399655	0.499859	0.463556
C65	C	0.898316	-0.000142	-0.120462
C66	C	1.398316	0.499858	0.379538
N67	N	0.906335	0.254091	0.089457
N68	N	1.406335	0.754091	0.589457
C69	C	0.966649	-0.000154	-0.169082
C70	C	1.466649	0.499846	0.330918
C71	C	0.965387	-0.000144	-0.248026
C72	C	1.465387	0.499856	0.251974
C73	C	0.895791	-0.000130	-0.278347
C74	C	1.395791	0.499870	0.221653
C75	C	0.827453	-0.000114	-0.229721
C76	C	1.327453	0.499886	0.270279
C77	C	0.828716	-0.000116	-0.150779
C78	C	1.328716	0.499884	0.349221
C79	C	0.822359	-0.000105	-0.548084
C80	C	1.322359	0.499895	-0.048084
C81	C	0.821101	-0.000106	-0.627032
C82	C	1.321101	0.499894	-0.127032
C83	C	0.959029	-0.000133	-0.645331
C84	C	1.459029	0.499867	-0.145331
C85	C	0.960292	-0.000135	-0.566389
C86	C	1.460292	0.499865	-0.066389
C87	C	0.891955	-0.000113	-0.517770
C88	C	1.391955	0.499887	-0.017770
C89	C	0.893324	-0.000122	-0.432171
C90	C	1.393324	0.499878	0.067829
C91	C	0.894421	-0.000129	-0.363945
C92	C	1.394421	0.499871	0.136055
C93	C	0.888096	-0.000118	0.240328
C94	C	1.388096	0.499882	0.740328
C95	C	0.889435	-0.000111	0.324345
C96	C	1.389435	0.499889	0.824345
H97	H	0.647533	-0.000078	0.231388
H98	H	1.147533	0.499922	0.731388
H99	H	1.016964	-0.000152	-0.541706
H100	H	1.516964	0.499848	-0.041706
F101	F	0.749628	-0.000079	-0.496350
F102	F	1.249628	0.499921	0.003650
H103	H	0.773073	-0.000106	-0.111192
H104	H	1.273073	0.499894	0.388808
H105	H	1.014673	-0.000145	-0.684927
H106	H	1.514673	0.499855	-0.184927
H107	H	0.770788	-0.000095	-0.254415
H108	H	1.270788	0.499905	0.245585
F109	F	0.692901	-0.000129	-0.035947
F110	F	1.192901	0.499871	0.464053
H111	H	0.504324	-0.000097	0.229097
H112	H	1.004324	0.499903	0.729097
F113	F	0.747024	-0.000089	-0.659300
F114	F	1.247024	0.499911	-0.159300
H115	H	0.250227	-0.000115	0.225031
H116	H	0.750227	0.499885	0.725031
F117	F	0.132633	-0.000169	-0.044909
F118	F	0.632633	0.499831	0.455091
H119	H	0.107005	-0.000130	0.222741
H120	H	0.607005	0.499870	0.722741
F121	F	0.813041	-0.533457	0.182980
F122	F	1.313041	-0.033457	0.682980
F123	F	1.040723	-0.000180	-0.136819
F124	F	1.540723	0.499820	0.363181
F125	F	0.974944	-0.466810	0.021125
F126	F	1.474944	0.033190	0.521125
F127	F	0.295584	-0.000168	-0.042306
F128	F	0.795584	0.499832	0.457694
F129	F	1.038116	-0.000160	-0.299768
F130	F	1.538116	0.499840	0.200232
H131	H	0.537519	-0.000151	-0.021146
H132	H	1.037519	0.499849	0.478854
