data_functionalizedCrystal
_audit_creation_method	'MofGen! by Chris Wilmer'
_symmetry_space_group_name_H-M	'P1'
_symmetry_Int_Tables_number	1
_symmetry_cell_setting	triclinic
loop_
_symmetry_equiv_pos_as_xyz
  x,y,z
_cell_length_a	12.759401
_cell_length_b	19.805405
_cell_length_c	12.759393
_cell_angle_alpha	89.962059
_cell_angle_beta	89.982961
_cell_angle_gamma	90.026572
loop_
_atom_site_label
_atom_site_type_symbol
_atom_site_fract_x
_atom_site_fract_y
_atom_site_fract_z
Zn1	Zn	1.606155	-0.269418	-0.593937
Zn2	Zn	2.106155	0.230582	-0.093937
Zn3	Zn	1.606018	-0.382624	-0.418239
Zn4	Zn	2.106018	0.117376	0.081761
Zn5	Zn	1.430461	-0.269454	-0.418276
Zn6	Zn	1.930461	0.230546	0.081724
Zn7	Zn	1.430409	-0.382571	-0.593880
Zn8	Zn	1.930409	0.117429	-0.093880
O9	O	1.518261	-0.326017	-0.506083
O10	O	2.018261	0.173983	-0.006083
O11	O	1.753158	-0.284442	-0.570638
O12	O	2.253158	0.215558	-0.070638
O13	O	1.582694	-0.367649	-0.271222
O14	O	2.082694	0.132351	0.228778
O15	O	1.453846	-0.174733	-0.441618
O16	O	1.953846	0.325267	0.058382
O17	O	1.753057	-0.367614	-0.441553
O18	O	2.253057	0.132386	0.058447
O19	O	1.582928	-0.174706	-0.570675
O20	O	2.082928	0.325294	-0.070675
O21	O	1.453713	-0.284504	-0.271250
O22	O	1.953713	0.215496	0.228750
O23	O	1.283433	-0.284453	-0.441563
O24	O	1.783433	0.215547	0.058437
O25	O	1.453758	-0.367524	-0.740909
O26	O	1.953758	0.132476	-0.240909
O27	O	1.283395	-0.367559	-0.570578
O28	O	1.783395	0.132441	-0.070578
O29	O	1.582878	-0.284391	-0.740951
O30	O	2.082878	0.215609	-0.240951
O31	O	1.582644	-0.477333	-0.441498
O32	O	2.082644	0.022667	0.058502
O33	O	1.453625	-0.477295	-0.570541
O34	O	1.953625	0.022705	-0.070541
C35	C	1.245293	-0.326004	-0.506069
C36	C	1.745293	0.173996	-0.006069
C37	C	1.128517	-0.326015	-0.506088
C38	C	1.628517	0.173985	-0.006088
C39	C	1.073662	-0.369358	-0.573155
C40	C	1.573662	0.130642	-0.073155
C41	C	0.963938	-0.369367	-0.573166
C42	C	1.463938	0.130633	-0.073166
C43	C	0.963933	-0.282688	-0.439034
C44	C	1.463933	0.217312	0.060966
C45	C	1.073655	-0.282676	-0.439029
C46	C	1.573655	0.217324	0.060971
C47	C	1.073665	-0.419404	-0.650592
C48	C	1.573665	0.080596	-0.150592
C49	C	0.963941	-0.419412	-0.650603
C50	C	1.463941	0.080588	-0.150603
C51	C	1.518143	-0.501873	-0.506032
C52	C	2.018143	-0.001873	-0.006032
C53	C	1.518188	-0.577105	-0.506046
C54	C	2.018188	-0.077105	-0.006046
C55	C	1.585433	-0.612447	-0.438923
C56	C	2.085433	-0.112447	0.061077
C57	C	1.585478	-0.683135	-0.438946
C58	C	2.085478	-0.183135	0.061054
C59	C	1.518271	-0.718480	-0.506088
C60	C	2.018271	-0.218480	-0.006088
C61	C	1.451023	-0.683134	-0.573217
C62	C	1.951023	-0.183134	-0.073217
C63	C	1.450985	-0.612446	-0.573199
C64	C	1.950985	-0.112446	-0.073199
C65	C	1.451178	-0.968207	-0.573295
C66	C	1.951178	-0.468207	-0.073295
C67	C	1.451220	-1.038899	-0.573306
C68	C	1.951220	-0.538899	-0.073306
C69	C	1.585671	-1.038895	-0.439043
C70	C	2.085671	-0.538895	0.060957
C71	C	1.585633	-0.968208	-0.439024
C72	C	2.085633	-0.468208	0.060976
C73	C	1.518389	-0.932868	-0.506157
C74	C	2.018389	-0.432868	-0.006157
C75	C	1.518343	-0.856219	-0.506133
C76	C	2.018343	-0.356219	-0.006133
C77	C	1.518311	-0.795128	-0.506108
C78	C	2.018311	-0.295128	-0.006108
C79	C	1.792294	-0.326030	-0.506098
C80	C	2.292294	0.173970	-0.006098
C81	C	1.909071	-0.326035	-0.506104
C82	C	2.409071	0.173965	-0.006104
C83	C	1.518327	-0.325948	-0.780117
C84	C	2.018327	0.174052	-0.280117
C85	C	1.518356	-0.325918	-0.896893
C86	C	2.018356	0.174082	-0.396893
C87	C	1.518408	-0.149474	-0.506157
C88	C	2.018408	0.350526	-0.006157
C89	C	1.518471	-0.074242	-0.506189
C90	C	2.018471	0.425758	-0.006189
C91	C	1.451189	-0.369170	-1.061460
C92	C	1.951189	0.130830	-0.561460
C93	C	1.451149	-0.369190	-0.951736
C94	C	1.951149	0.130810	-0.451736
C95	C	1.585600	-0.282619	-0.951780
C96	C	2.085600	0.217381	-0.451780
C97	C	1.585634	-0.282596	-1.061503
C98	C	2.085634	0.217404	-0.561503
C99	C	1.373568	-0.419153	-1.061434
C100	C	1.873568	0.080847	-0.561434
C101	C	1.373528	-0.419173	-0.951709
C102	C	1.873528	0.080827	-0.451709
C103	C	1.518255	-0.326037	-0.233116
C104	C	2.018255	0.173963	0.266884
C105	C	1.518430	-0.325876	-0.116340
C106	C	2.018430	0.174124	0.383660
H107	H	0.934129	-0.471821	-0.628662
H108	H	1.434129	0.028179	-0.128662
F109	F	1.132031	-0.236535	-0.367664
F110	F	1.632031	0.263465	0.132336
F111	F	1.112635	-0.401132	-0.756997
F112	F	1.612635	0.098868	-0.256997
F113	F	1.656959	-0.574836	-0.367455
F114	F	2.156959	-0.074836	0.132545
H115	H	1.640235	-0.711907	-0.384288
H116	H	2.140235	-0.211907	0.115712
F117	F	1.272502	-0.394636	-0.907239
F118	F	1.772502	0.105364	-0.407239
F119	F	1.657162	-0.930595	-0.367563
F120	F	2.157162	-0.430595	0.132437
F121	F	1.657113	-0.236557	-0.893410
F122	F	2.157113	0.263443	-0.393410
H123	H	1.640429	-1.067678	-0.384384
H124	H	2.140429	-0.567678	0.115616
H125	H	1.395325	-0.471592	-0.921902
H126	H	1.895325	0.028408	-0.421902
H127	H	0.919251	-0.247402	-0.384438
H128	H	1.419251	0.252598	0.115562
F129	F	0.919503	-0.394955	-0.751708
F130	F	1.419503	0.105045	-0.251708
H131	H	1.107664	-0.469172	-0.621299
H132	H	1.607664	0.030828	-0.121299
F133	F	1.379502	-0.720753	-0.644680
F134	F	1.879502	-0.220753	-0.144680
F135	F	1.379687	-1.076515	-0.644772
F136	F	1.879687	-0.576515	-0.144772
H137	H	1.396424	-0.939438	-0.627955
H138	H	1.896424	-0.439438	-0.127955
F139	F	1.379416	-0.574833	-0.644642
F140	F	1.879416	-0.074833	-0.144642
F141	F	1.267240	-0.400794	-1.100369
F142	F	1.767240	0.099206	-0.600369
H143	H	1.640380	-0.247337	-1.106181
H144	H	2.140380	0.252663	-0.606181
H145	H	1.402685	-0.468942	-1.095439
H146	H	1.902685	0.031058	-0.595439
