data_functionalizedCrystal
_audit_creation_method	'MofGen! by Chris Wilmer'
_symmetry_space_group_name_H-M	'P1'
_symmetry_Int_Tables_number	1
_symmetry_cell_setting	triclinic
loop_
_symmetry_equiv_pos_as_xyz
  x,y,z
_cell_length_a	12.837943
_cell_length_b	17.038272
_cell_length_c	11.892095
_cell_angle_alpha	94.170821
_cell_angle_beta	85.689438
_cell_angle_gamma	92.970248
loop_
_atom_site_label
_atom_site_type_symbol
_atom_site_fract_x
_atom_site_fract_y
_atom_site_fract_z
O1	O	1.399724	0.200065	-0.093986
O2	O	1.899724	0.700065	0.406014
O3	O	1.097028	0.189958	-0.093992
O4	O	1.597028	0.689958	0.406008
O5	O	1.246576	0.081062	-0.093980
O6	O	1.746576	0.581062	0.406020
O7	O	1.250175	0.308961	-0.093998
O8	O	1.750175	0.808961	0.406002
O9	O	1.234106	0.090126	0.094026
O10	O	1.734106	0.590126	0.594026
O11	O	1.084557	0.199022	0.094014
O12	O	1.584557	0.699022	0.594014
O13	O	1.387254	0.209129	0.094021
O14	O	1.887254	0.709129	0.594021
Zn15	Zn	1.233926	0.205514	0.123868
Zn16	Zn	1.733926	0.705514	0.623868
Zn17	Zn	1.250356	0.193572	-0.123839
Zn18	Zn	1.750356	0.693572	0.376161
O19	O	1.237705	0.318025	0.094009
O20	O	1.737705	0.818025	0.594009
C21	C	1.051871	0.191076	0.000010
C22	C	1.551871	0.691076	0.500010
C23	C	0.935896	0.180893	0.000008
C24	C	1.435896	0.680893	0.500008
C25	C	0.705733	0.303310	0.000015
C26	C	1.205733	0.803310	0.500015
C27	C	0.596764	0.293746	0.000013
C28	C	1.096764	0.793746	0.500013
C29	C	0.608986	0.152201	0.000012
C30	C	1.108986	0.652201	0.500012
C31	C	0.717955	0.161765	0.000014
C32	C	1.217955	0.661765	0.500014
C33	C	0.766325	0.237322	0.000013
C34	C	1.266325	0.737322	0.500013
C35	C	0.875296	0.246885	0.000006
C36	C	1.375296	0.746885	0.500006
C37	C	0.887516	0.105342	0.000013
C38	C	1.387516	0.605342	0.500013
C39	C	0.778547	0.095777	0.000012
C40	C	1.278547	0.595777	0.500012
C41	C	1.237069	0.056221	0.000023
C42	C	1.737069	0.556221	0.500023
C43	C	1.227305	-0.031301	0.000022
C44	C	1.727305	0.468699	0.500022
C45	C	1.316945	-0.074719	0.000026
C46	C	1.816945	0.425281	0.500026
C47	C	1.307766	-0.156956	0.000015
C48	C	1.807766	0.343044	0.500015
C49	C	1.208945	-0.195773	0.000009
C50	C	1.708945	0.304227	0.500009
C51	C	1.119299	-0.152349	0.000002
C52	C	1.619299	0.347651	0.500002
C53	C	1.128480	-0.070114	0.000005
C54	C	1.628480	0.429886	0.500005
C55	C	1.176511	-0.443954	-0.000008
C56	C	1.676511	0.056046	0.499992
C57	C	1.167337	-0.526195	-0.000007
C58	C	1.667337	-0.026195	0.499993
C59	C	1.355805	-0.530796	0.000003
C60	C	1.855805	-0.030796	0.500003
C61	C	1.364977	-0.448559	0.000013
C62	C	1.864977	0.051441	0.500013
C63	C	1.275331	-0.405143	0.000001
C64	C	1.775331	0.094857	0.500001
C65	C	1.199560	-0.279832	0.000001
C66	C	1.699560	0.220168	0.500001
C67	C	1.284718	-0.321086	0.000000
C68	C	1.784718	0.178914	0.500000
C69	C	1.432411	0.208011	0.000016
C70	C	1.932411	0.708011	0.500016
C71	C	1.548386	0.218194	0.000011
C72	C	2.048386	0.718194	0.500011
C73	C	1.247213	0.342865	0.000003
C74	C	1.747213	0.842865	0.500003
C75	C	1.256977	0.430387	-0.000004
C76	C	1.756977	0.930387	0.499996
N77	N	1.222720	0.213665	0.292921
N78	N	1.722720	0.713665	0.792921
N79	N	1.261569	0.185416	-0.292892
N80	N	1.761569	0.685416	0.207108
C81	C	1.339540	0.128657	0.529578
C82	C	1.839540	0.628657	1.029578
C83	C	1.331715	0.134361	0.647919
C84	C	1.831715	0.634361	1.147919
C85	C	1.199241	0.230770	0.647947
C86	C	1.699241	0.730770	1.147947
C87	C	1.207066	0.225067	0.529605
C88	C	1.707066	0.725067	1.029605
C89	C	1.277219	0.174010	0.470425
C90	C	1.777219	0.674010	0.970425
C91	C	1.285048	0.168311	0.352082
C92	C	1.785048	0.668311	0.852082
C93	C	1.152569	0.264716	0.352111
C94	C	1.652569	0.764716	0.852111
C95	C	1.144745	0.270419	0.470453
C96	C	1.644745	0.770419	0.970453
H97	H	0.914677	0.308407	0.000008
H98	H	1.414677	0.808407	0.500008
C99	C	1.473680	-0.405867	0.000005
C100	C	1.973680	0.094133	0.500005
H101	H	1.525754	-0.443504	-0.000007
H102	H	2.025754	0.056496	0.499993
H103	H	1.476835	-0.370723	0.065565
H104	H	1.976835	0.129277	0.565565
H105	H	1.485521	-0.377044	-0.065568
H106	H	1.985521	0.122956	0.434432
C107	C	0.758944	0.386416	0.000004
C108	C	1.258944	0.886416	0.500004
H109	H	0.707249	0.424347	0.000007
H110	H	1.207249	0.924347	0.500007
H111	H	0.805548	0.389925	-0.065558
H112	H	1.305548	0.889925	0.434442
H113	H	0.796849	0.396250	0.065574
H114	H	1.296849	0.896250	0.565574
C115	C	1.058632	-0.568896	-0.000014
C116	C	1.558632	-0.068896	0.499986
H117	H	1.066007	-0.624089	0.000001
H118	H	1.566007	-0.124089	0.500001
H119	H	1.025765	-0.557637	-0.065578
H120	H	1.525765	-0.057637	0.434422
H121	H	1.017069	-0.551313	0.065554
H122	H	1.517069	-0.051313	0.565554
H123	H	1.087625	0.311987	0.518651
H124	H	1.587625	0.811987	1.018651
H125	H	1.103515	-0.408614	-0.000017
H126	H	1.603515	0.091386	0.499983
H127	H	1.342172	0.126740	0.303898
H128	H	1.842172	0.626740	0.803898
C129	C	1.084026	0.314615	0.287041
C130	C	1.584026	0.814615	0.787041
H131	H	1.098731	0.303908	0.208085
H132	H	1.598731	0.803908	0.708085
H133	H	1.098719	0.368921	0.306442
H134	H	1.598719	0.868921	0.806442
H135	H	1.012339	0.301791	0.306441
H136	H	1.512339	0.801791	0.806441
H137	H	1.396668	0.087090	0.481393
H138	H	1.896668	0.587090	0.981393
H139	H	1.382462	0.097429	0.696078
H140	H	1.882462	0.597429	1.196078
C141	C	1.010597	-0.195042	-0.000013
C142	C	1.510597	0.304958	0.499987
H143	H	0.958526	-0.157404	-0.000027
H144	H	1.458526	0.342596	0.499973
H145	H	0.998742	-0.223870	0.065546
H146	H	1.498742	0.276130	0.565546
H147	H	1.007454	-0.230182	-0.065587
H148	H	1.507454	0.269818	0.434413
H149	H	0.936862	0.051609	0.000004
H150	H	1.436862	0.551609	0.500004
C151	C	0.530117	0.366332	0.000005
C152	C	1.030117	0.866332	0.500005
H153	H	0.574535	0.412697	-0.000004
H154	H	1.074535	0.912697	0.499996
H155	H	0.483002	0.368704	0.065564
H156	H	0.983002	0.868704	0.565564
H157	H	0.491708	0.362382	-0.065569
H158	H	0.991708	0.862382	0.434431
C159	C	1.029876	-0.022354	0.000004
C160	C	1.529876	0.477646	0.500004
H161	H	0.969706	-0.057248	0.000010
H162	H	1.469706	0.442752	0.500010
H163	H	1.033890	0.006664	-0.065557
H164	H	1.533890	0.506664	0.434443
H165	H	1.025190	0.012979	0.065575
H166	H	1.525190	0.512979	0.565575
C167	C	1.122013	0.286875	0.713052
C168	C	1.622013	0.786875	1.213052
H169	H	1.085989	0.313052	0.660876
H170	H	1.585989	0.813052	1.160876
H171	H	1.159321	0.324686	0.759250
H172	H	1.659321	0.824686	1.259250
H173	H	1.073047	0.257479	0.759185
H174	H	1.573047	0.757479	1.259185
C175	C	0.555766	0.069099	0.000025
C176	C	1.055766	0.569099	0.500025
H177	H	0.482190	0.072857	0.000023
H178	H	0.982190	0.572857	0.500023
H179	H	0.571790	0.044747	0.065587
H180	H	1.071790	0.544747	0.565587
H181	H	0.580474	0.038425	-0.065545
H182	H	1.080474	0.538425	0.434455
C183	C	0.725334	0.012672	0.000007
C184	C	1.225334	0.512672	0.500007
H185	H	0.651758	0.016425	-0.000001
H186	H	1.151758	0.516425	0.499999
H187	H	0.741357	-0.011686	0.065564
H188	H	1.241357	0.488314	0.565564
H189	H	0.750052	-0.017992	-0.065568
H190	H	1.250052	0.482008	0.434432
C191	C	1.454407	-0.578556	0.000001
C192	C	1.954407	-0.078556	0.500001
H193	H	1.434791	-0.633092	-0.000012
H194	H	1.934791	-0.133092	0.499988
H195	H	1.490286	-0.562869	0.065561
H196	H	1.990286	-0.062869	0.565561
H197	H	1.498972	-0.569180	-0.065572
H198	H	1.998972	-0.069180	0.434428
C199	C	1.425648	-0.032027	0.000032
C200	C	1.925648	0.467973	0.500032
H201	H	1.477719	-0.069667	0.000022
H202	H	1.977719	0.430333	0.500022
H203	H	1.428802	0.003115	0.065594
H204	H	1.928802	0.503115	0.565594
H205	H	1.437496	-0.003203	-0.065538
H206	H	1.937496	0.496797	0.434462
C207	C	1.406369	-0.204712	0.000030
C208	C	1.906369	0.295288	0.500030
H209	H	1.466536	-0.169815	0.000050
H210	H	1.966536	0.330185	0.500050
H211	H	1.411065	-0.240045	-0.065532
H212	H	1.911065	0.259955	0.434468
H213	H	1.402347	-0.233728	0.065600
H214	H	1.902347	0.266272	0.565600
C215	C	1.090860	-0.322530	-0.000005
C216	C	1.590860	0.177470	0.499995
H217	H	1.038783	-0.284897	-0.000012
H218	H	1.538783	0.215103	0.499988
H219	H	1.079014	-0.351362	0.065550
H220	H	1.579014	0.148638	0.565550
H221	H	1.087721	-0.357667	-0.065582
H222	H	1.587721	0.142333	0.434418
H223	H	1.365179	-0.289479	-0.000020
H224	H	1.865179	0.210521	0.499980
