data_functionalizedCrystal
_audit_creation_method	'MofGen! by Chris Wilmer'
_symmetry_space_group_name_H-M	'P1'
_symmetry_Int_Tables_number	1
_symmetry_cell_setting	triclinic
loop_
_symmetry_equiv_pos_as_xyz
  x,y,z
_cell_length_a	19.077236
_cell_length_b	12.759400
_cell_length_c	19.076919
_cell_angle_alpha	87.723966
_cell_angle_beta	90.112677
_cell_angle_gamma	92.306121
loop_
_atom_site_label
_atom_site_type_symbol
_atom_site_fract_x
_atom_site_fract_y
_atom_site_fract_z
Zn1	Zn	1.058341	-0.381376	0.440562
Zn2	Zn	1.558341	0.118624	0.940562
Zn3	Zn	1.063003	-0.549744	0.323064
Zn4	Zn	1.563003	-0.049744	0.823064
Zn5	Zn	0.945556	-0.380825	0.318342
Zn6	Zn	1.445556	0.119175	0.818342
Zn7	Zn	0.940824	-0.563760	0.435803
Zn8	Zn	1.440824	-0.063760	0.935803
O9	O	1.001931	-0.468926	0.379442
O10	O	1.501931	0.031074	0.879442
O11	O	1.157292	-0.398075	0.428943
O12	O	1.657292	0.101925	0.928943
O13	O	1.051355	-0.521240	0.224106
O14	O	1.551355	-0.021240	0.724106
O15	O	0.960547	-0.233876	0.334570
O16	O	1.460547	0.266124	0.834570
O17	O	1.160717	-0.521774	0.342618
O18	O	1.660717	-0.021774	0.842618
O19	O	1.043409	-0.234281	0.424364
O20	O	1.543409	0.265719	0.924364
O21	O	0.965068	-0.397136	0.220637
O22	O	1.465068	0.102864	0.720637
O23	O	0.846596	-0.410727	0.329955
O24	O	1.346596	0.089273	0.829955
O25	O	0.952481	-0.545663	0.534765
O26	O	1.452481	-0.045663	1.034765
O27	O	0.843119	-0.545129	0.416253
O28	O	1.343119	-0.045129	0.916253
O29	O	1.038820	-0.411666	0.538261
O30	O	1.538820	0.088334	1.038261
O31	O	1.046766	-0.698625	0.338003
O32	O	1.546766	-0.198625	0.838003
O33	O	0.957002	-0.708923	0.420832
O34	O	1.457002	-0.208923	0.920832
C35	C	0.819361	-0.479390	0.372076
C36	C	1.319361	0.020610	0.872076
C37	C	0.741255	-0.483893	0.368941
C38	C	1.241255	0.016107	0.868941
C39	C	0.702776	-0.421715	0.412482
C40	C	1.202776	0.078285	0.912482
C41	C	0.629388	-0.425941	0.409530
C42	C	1.129388	0.074059	0.909530
C43	C	0.594481	-0.492350	0.363041
C44	C	1.094481	0.007650	0.863041
C45	C	0.632966	-0.554529	0.319496
C46	C	1.132966	-0.054529	0.819496
C47	C	0.706352	-0.550298	0.322444
C48	C	1.206352	-0.050298	0.822444
C49	C	0.375190	-0.511895	0.349393
C50	C	0.875190	-0.011895	0.849393
C51	C	0.301798	-0.516124	0.346449
C52	C	0.801798	-0.016124	0.846449
C53	C	0.298226	-0.387533	0.436483
C54	C	0.798226	0.112467	0.936483
C55	C	0.371614	-0.383312	0.439431
C56	C	0.871614	0.116688	0.939431
C57	C	0.410092	-0.445488	0.395882
C58	C	0.910092	0.054512	0.895882
N59	N	0.519467	-0.496673	0.360025
N60	N	1.019467	0.003327	0.860025
N61	N	0.485105	-0.441158	0.398896
N62	N	0.985105	0.058842	0.898896
C63	C	1.001895	-0.741895	0.379430
C64	C	1.501895	-0.241895	0.879430
C65	C	1.001942	-0.858670	0.379451
C66	C	1.501942	-0.358670	0.879451
C67	C	1.045065	-0.913667	0.426242
C68	C	1.545065	-0.413667	0.926242
C69	C	1.045097	-1.023390	0.426261
C70	C	1.545097	-0.523390	0.926261
C71	C	0.958882	-1.023110	0.332689
C72	C	1.458882	-0.523110	0.832689
C73	C	0.958847	-0.913389	0.332675
C74	C	1.458847	-0.413389	0.832675
C75	C	1.088160	-0.858948	0.473018
C76	C	1.588160	-0.358948	0.973018
C77	C	1.131287	-0.913944	0.519813
C78	C	1.631287	-0.413944	1.019813
C79	C	1.131319	-1.023668	0.519832
C80	C	1.631319	-0.523668	1.019832
C81	C	1.088224	-1.078394	0.473055
C82	C	1.588224	-0.578394	0.973055
C83	C	1.185214	-0.458422	0.386838
C84	C	1.685214	0.041578	0.886838
C85	C	1.263319	-0.453946	0.389990
C86	C	1.763319	0.046054	0.889990
C87	C	0.994603	-0.480289	0.562722
C88	C	1.494603	0.019711	1.062722
C89	C	0.991480	-0.485132	0.640825
C90	C	1.491480	0.014868	1.140825
C91	C	1.001986	-0.194891	0.379471
C92	C	1.501986	0.305109	0.879471
C93	C	1.002010	-0.078114	0.379483
C94	C	1.502010	0.421886	0.879483
C95	C	1.009271	-0.457529	0.196877
C96	C	1.509271	0.042471	0.696877
C97	C	1.012530	-0.452383	0.118780
C98	C	1.512530	0.047617	0.618780
C99	C	1.034963	-0.417645	0.679340
C100	C	1.534963	0.082355	1.179340
C101	C	1.032020	-0.422191	0.752725
C102	C	1.532020	0.077809	1.252725
C103	C	0.985598	-0.494230	0.787595
C104	C	1.485598	0.005770	1.287595
C105	C	0.942110	-0.561720	0.749076
C106	C	1.442110	-0.061720	1.249076
C107	C	0.945050	-0.557168	0.675691
C108	C	1.445050	-0.057168	1.175691
C109	C	0.971982	-0.515321	1.006876
C110	C	1.471982	-0.015321	1.506876
C111	C	0.969047	-0.519870	1.080266
C112	C	1.469047	-0.019870	1.580266
C113	C	1.058957	-0.380339	1.083910
C114	C	1.558957	0.119661	1.583910
C115	C	1.061895	-0.375797	1.010524
C116	C	1.561895	0.124203	1.510524
C117	C	1.018405	-0.443284	0.972011
C118	C	1.518405	0.056716	1.472011
N119	N	0.982590	-0.498881	0.862607
N120	N	1.482590	0.001119	1.362607
N121	N	1.021410	-0.438627	0.897000
N122	N	1.521410	0.061373	1.397000
H123	H	0.400030	-0.329239	0.477290
H124	H	0.900030	0.170761	0.977290
O125	O	0.256720	-0.320466	0.483440
O126	O	0.756720	0.179534	0.983440
H127	H	0.268603	-0.341219	0.539137
H128	H	0.768603	0.158781	1.039137
H129	H	0.273379	-0.570207	0.308591
H130	H	0.773379	-0.070207	0.808591
O131	O	0.925042	-0.588054	0.965338
O132	O	1.425042	-0.088054	1.465338
H133	H	0.892260	-0.638897	1.001917
H134	H	1.392260	-0.138897	1.501917
O135	O	1.177770	-0.854923	0.570258
O136	O	1.677770	-0.354923	1.070258
H137	H	1.163478	-0.880067	0.624915
H138	H	1.663478	-0.380067	1.124915
O139	O	1.111966	-0.298093	0.972920
O140	O	1.611966	0.201907	1.472920
H141	H	1.106709	-0.306273	0.915420
H142	H	1.606709	0.193727	1.415420
O143	O	0.912341	-0.854067	0.282201
O144	O	1.412341	-0.354067	0.782201
H145	H	0.875289	-0.808110	0.312172
H146	H	1.375289	-0.308110	0.812172
O147	O	0.416688	-0.578948	0.302423
O148	O	0.916688	-0.078948	0.802423
H149	H	0.380084	-0.625840	0.269606
H150	H	0.880084	-0.125840	0.769606
H151	H	0.923797	-1.067677	0.294606
H152	H	1.423797	-0.567677	0.794606
H153	H	0.931242	-0.578536	1.108655
H154	H	1.431242	-0.078536	1.608655
O155	O	0.892034	-0.639417	0.786680
O156	O	1.392034	-0.139417	1.286680
H157	H	0.897297	-0.631251	0.844180
H158	H	1.397297	-0.131251	1.344180
O159	O	0.587888	-0.358873	0.456492
O160	O	1.087888	0.141127	0.956492
H161	H	0.553022	-0.410117	0.490841
H162	H	1.053022	0.089883	0.990841
H163	H	1.088245	-1.167739	0.473082
H164	H	1.588245	-0.667739	0.973082
H165	H	0.909634	-0.612113	0.644333
H166	H	1.409634	-0.112113	1.144333
O167	O	1.088124	-0.740604	0.472996
O168	O	1.588124	-0.240604	0.972996
H169	H	1.125331	-0.711792	0.513385
H170	H	1.625331	-0.211792	1.013385
H171	H	1.072767	-0.358986	0.650954
H172	H	1.572767	0.141014	1.150954
H173	H	0.604538	-0.608596	0.281640
H174	H	1.104538	-0.108596	0.781640
H175	H	1.067430	-0.367238	0.784081
H176	H	1.567430	0.132762	1.284081
O177	O	1.177823	-1.082989	0.570307
O178	O	1.677823	-0.582989	1.070307
H179	H	1.214866	-1.128965	0.540338
H180	H	1.714866	-0.628965	1.040338
O181	O	1.105842	-0.307522	1.125447
O182	O	1.605842	0.192478	1.625447
H183	H	1.095992	-0.322773	1.182333
H184	H	1.595992	0.177227	1.682333
H185	H	0.737681	-0.600929	0.286988
H186	H	1.237681	-0.100929	0.786988
O187	O	0.740426	-0.350081	0.462620
O188	O	1.240426	0.149919	0.962620
H189	H	0.701337	-0.307546	0.492394
H190	H	1.201337	0.192454	0.992394
