data_functionalizedCrystal
_audit_creation_method	'MofGen! by Chris Wilmer'
_symmetry_space_group_name_H-M	'P1'
_symmetry_Int_Tables_number	1
_symmetry_cell_setting	triclinic
loop_
_symmetry_equiv_pos_as_xyz
  x,y,z
_cell_length_a	31.640172
_cell_length_b	27.440280
_cell_length_c	27.440280
_cell_angle_alpha	90.007927
_cell_angle_beta	60.004956
_cell_angle_gamma	59.996782
loop_
_atom_site_label
_atom_site_type_symbol
_atom_site_fract_x
_atom_site_fract_y
_atom_site_fract_z
Zr1	Zr	0.462545	-0.063892	0.469566
O2	O	0.550728	-0.141720	0.391751
O3	O	0.374373	-0.040035	0.493411
O4	O	0.462550	-0.141708	0.493412
O5	O	0.462542	0.040156	0.391761
O6	O	0.462542	-0.141698	0.573615
O7	O	0.462550	-0.040046	0.391750
O8	O	0.304810	0.040177	0.573613
O9	O	0.620275	-0.141719	0.391762
O10	O	0.410629	-0.029851	0.563447
O11	O	0.410629	0.029996	0.503600
O12	O	0.514447	-0.089712	0.503601
O13	O	0.514447	-0.029865	0.443754
Zr14	Zr	0.462519	0.064038	0.597497
Zr15	Zr	0.462532	-0.063876	0.597481
Zr16	Zr	0.462532	0.064022	0.469583
Zr17	Zr	0.573465	-0.063891	0.469584
Zr18	Zr	0.351599	0.064037	0.597480
O19	O	0.550691	0.040180	0.573652
O20	O	0.550709	-0.141697	0.573629
O21	O	0.550709	0.040158	0.391775
O22	O	0.374336	0.141866	0.675312
O23	O	0.374355	-0.040012	0.675289
O24	O	0.374355	0.141843	0.493435
O25	O	0.462522	-0.040011	0.675303
O26	O	0.462513	0.141854	0.573652
O27	O	0.462522	0.141844	0.493449
O28	O	0.462513	0.040192	0.675313
O29	O	0.620265	-0.141706	0.493437
O30	O	0.304799	0.141852	0.573627
O31	O	0.304789	0.141865	0.675301
O32	O	0.304799	0.040190	0.675288
O33	O	0.620265	-0.040044	0.391775
O34	O	0.620254	-0.040032	0.493450
O35	O	0.410617	0.089858	0.563462
O36	O	0.410617	0.030011	0.623309
O37	O	0.514434	-0.029850	0.563463
O38	O	0.514434	0.029997	0.503617
C39	C	0.323788	0.000071	0.533510
C40	C	0.276699	0.000070	0.533502
C41	C	0.462548	0.000053	0.373531
C42	C	0.462554	0.000046	0.319228
C43	C	0.462516	0.160074	0.533553
C44	C	0.462510	0.214377	0.533560
C45	C	-0.015343	-0.031161	0.564783
C46	C	-0.192339	-0.031161	0.564795
O47	O	-0.215243	-0.057707	0.591385
N48	N	-0.214468	0.000077	0.533555
C49	C	-0.192348	0.031321	0.502313
O50	O	-0.215236	0.057896	0.475747
C51	C	-0.015356	0.031324	0.502305
C52	C	0.006775	0.000079	0.533542
C53	C	0.006788	-0.062403	0.596018
C54	C	0.051036	-0.062406	0.596012
C55	C	0.073154	-0.031166	0.564771
C56	C	0.051024	0.000076	0.533536
C57	C	0.006760	0.062571	0.471066
C58	C	0.051010	0.062570	0.471068
C59	C	0.073141	0.031325	0.502305
C60	C	0.117390	0.031314	0.502289
N61	N	0.139519	0.000075	0.533529
C62	C	0.117401	-0.031165	0.564770
C63	C	-0.285270	0.031316	0.502319
C64	C	-0.329517	0.031315	0.502320
C65	C	-0.329506	-0.031166	0.564803
C66	C	-0.285255	-0.031168	0.564798
C67	C	-0.263141	0.000078	0.533559
C68	C	0.210327	-0.031168	0.564754
C69	C	0.254581	-0.031169	0.564744
C70	C	0.254564	0.031314	0.502263
C71	C	0.210315	0.031313	0.502271
C72	C	0.188197	0.000071	0.533521
O73	O	0.140318	0.057852	0.475718
O74	O	0.140287	-0.057725	0.591343
C75	C	-0.059591	-0.031159	0.564789
C76	C	-0.081722	0.000083	0.533554
C77	C	-0.059604	0.031323	0.502313
C78	C	-0.125969	0.000082	0.533555
C79	C	-0.148087	-0.031158	0.564796
C80	C	-0.125958	-0.062396	0.596036
C81	C	-0.081709	-0.062398	0.596030
C82	C	-0.081733	0.062562	0.471073
C83	C	-0.125981	0.062561	0.471081
C84	C	-0.148099	0.031321	0.502322
C85	C	0.601276	0.000075	0.533554
C86	C	0.648365	0.000075	0.533561
C87	C	0.462548	-0.159928	0.533511
C88	C	0.462554	-0.214231	0.533504
C89	C	0.516733	0.519828	0.502276
C90	C	0.516737	0.570846	0.502271
O91	O	0.562824	0.570660	0.475685
N92	N	0.462546	0.627610	0.533510
C93	C	0.408348	0.633354	0.564752
O94	O	0.362255	0.686320	0.591323
C95	C	0.408345	0.582336	0.564754
C96	C	0.462540	0.525573	0.533517
C97	C	0.570923	0.463068	0.471042
C98	C	0.570920	0.412053	0.471048
C99	C	0.516726	0.417798	0.502289
C100	C	0.462536	0.474559	0.533524
C101	C	0.354148	0.588081	0.595992
C102	C	0.354150	0.537057	0.595990
C103	C	0.408345	0.480294	0.564754
C104	C	0.408339	0.429289	0.564771
N105	N	0.462530	0.372526	0.533532
C106	C	0.516724	0.366780	0.502291
C107	C	0.408358	0.740493	0.564745
C108	C	0.408360	0.791510	0.564748
C109	C	0.516749	0.728999	0.502265
C110	C	0.516746	0.677981	0.502267
C111	C	0.462549	0.683729	0.533506
C112	C	0.516712	0.259648	0.502307
C113	C	0.516704	0.208632	0.502319
C114	C	0.408315	0.271147	0.564798
C115	C	0.408323	0.322159	0.564790
C116	C	0.462526	0.316406	0.533540
O117	O	0.362275	0.429429	0.591341
O118	O	0.562809	0.313812	0.475718
C119	C	0.408331	0.031336	0.013769
C120	C	0.408327	0.031341	-0.037250
O121	O	0.362240	0.057933	-0.037070
N122	N	0.462518	0.000094	-0.094005
C123	C	0.516716	-0.031156	-0.099742
O124	O	0.562809	-0.057733	-0.152701
C125	C	0.516719	-0.031157	-0.048724
C126	C	0.462524	0.000087	0.008031
C127	C	0.354141	0.062578	0.070521
C128	C	0.354144	0.062572	0.121536
C129	C	0.408338	0.031323	0.115798
C130	C	0.462528	0.000081	0.059046
C131	C	0.570916	-0.062403	-0.054461
C132	C	0.570914	-0.062401	-0.003437
C133	C	0.516719	-0.031157	0.053318
C134	C	0.516725	-0.031174	0.104323
N135	N	0.462534	0.000073	0.161079
C136	C	0.408340	0.031322	0.166816
C137	C	0.516706	-0.031149	-0.206880
C138	C	0.516704	-0.031152	-0.257898
C139	C	0.408315	0.031346	-0.195402
C140	C	0.408318	0.031345	-0.144384
C141	C	0.462515	0.000098	-0.150125
C142	C	0.408352	0.031306	0.273949
C143	C	0.408360	0.031295	0.324965
C144	C	0.516749	-0.031200	0.262465
C145	C	0.516741	-0.031192	0.211453
C146	C	0.462537	0.000065	0.217199
O147	O	0.562789	-0.057751	0.104190
O148	O	0.362255	0.057901	0.219778
C149	C	0.462516	0.000093	0.693533
C150	C	0.462510	0.000100	0.747836
C151	C	0.323771	0.000091	0.693511
C152	C	0.276677	0.000097	0.747806
C153	C	0.323771	0.160072	0.533531
C154	C	0.276677	0.214374	0.533530
C155	C	0.323755	0.160092	0.693532
C156	C	0.276656	0.214401	0.747834
C157	C	0.601309	-0.159947	0.373532
C158	C	0.648408	-0.214256	0.319229
C159	C	0.601292	0.000055	0.373553
C160	C	0.648387	0.000048	0.319257
C161	C	0.601292	-0.159926	0.533533
C162	C	0.648387	-0.214229	0.533533
C163	C	0.254568	-0.031152	0.742057
C164	C	0.210324	-0.031159	0.793068
C165	C	0.188188	0.000089	0.849829
C166	C	0.210302	0.031340	0.855577
C167	C	0.254548	0.031342	0.804566
C168	C	0.254555	0.271128	0.564777
C169	C	0.210312	0.322156	0.564775
C170	C	0.188188	0.316429	0.533528
C171	C	0.210314	0.259669	0.502277
C172	C	0.254560	0.208643	0.502276
C173	C	0.254537	0.208666	0.804580
C174	C	0.210288	0.259690	0.855608
C175	C	0.188156	0.316449	0.849889
C176	C	0.210278	0.322184	0.793137
C177	C	0.254530	0.271160	0.742110
C178	C	0.670532	-0.208520	0.262483
C179	C	0.714795	-0.259545	0.211456
C180	C	0.736930	-0.316304	0.217175
C181	C	0.714804	-0.322038	0.273926
C182	C	0.670545	-0.271014	0.324953
C183	C	0.670501	0.031293	0.325007
C184	C	0.714757	0.031285	0.273995
C185	C	0.736895	0.000036	0.217235
C186	C	0.714779	-0.031213	0.211486
C187	C	0.670527	-0.031208	0.262497
C188	C	0.670496	-0.208482	0.564786
C189	C	0.714740	-0.259500	0.564798
C190	C	0.736877	-0.316264	0.533553
C191	C	0.714763	-0.322009	0.502300
C192	C	0.670517	-0.270992	0.502291
H193	H	0.272600	-0.056615	0.590180
H194	H	0.652522	-0.056649	0.257807
O195	O	0.349890	0.065010	0.280151
H196	H	0.323895	0.113030	0.304943
H197	H	0.152123	0.357991	0.891443
O198	O	0.784606	-0.371285	0.533560
H199	H	0.767632	-0.398228	0.553110
H200	H	0.152160	0.357982	0.533533
O201	O	0.278408	0.065019	0.468570
H202	H	0.241247	0.113037	0.486638
H203	H	0.192251	0.368404	0.788489
O204	O	0.278372	0.277349	0.680906
H205	H	0.255538	0.325390	0.685508
H206	H	0.364194	0.368379	0.590230
H207	H	0.732756	0.056733	0.278688
H208	H	0.732741	-0.254811	0.590248
O209	O	0.278410	0.277315	0.598484
H210	H	0.327223	0.255553	0.566947
O211	O	0.738640	-0.253348	0.150251
H212	H	0.758778	-0.228556	0.145075
O213	O	0.646624	-0.147263	0.598491
H214	H	0.597810	-0.122519	0.633012
O215	O	0.738661	-0.064918	0.150263
H216	H	0.730167	-0.033371	0.125531
H217	H	0.615047	-0.087845	-0.100665
O218	O	0.349864	0.277339	0.598489
H219	H	0.358972	0.232325	0.593236
O220	O	0.074837	0.096292	0.437383
H221	H	0.066328	0.130833	0.468936
O222	O	0.186441	0.383371	0.598494
H223	H	0.209251	0.378776	0.620231
O224	O	0.295690	0.096279	0.182746
H225	H	0.293092	0.064738	0.207480
O226	O	0.186479	-0.064870	0.598452
H227	H	0.209313	-0.086598	0.620162
O228	O	0.140463	0.000083	0.904842
H229	H	0.157442	-0.019471	0.931783
O230	O	0.575157	-0.064870	-0.213057
H231	H	0.601159	-0.046834	-0.237827
H232	H	0.615049	-0.087839	-0.008118
H233	H	0.364188	0.056788	-0.190738
O234	O	0.784623	0.000037	0.162220
H235	H	0.796308	-0.026944	0.121781
O236	O	0.646666	-0.147305	0.256308
H237	H	0.669497	-0.151898	0.208272
O238	O	0.738627	-0.383237	0.468622
H239	H	0.715813	-0.378669	0.446896
H240	H	0.652520	-0.275679	0.476839
H241	H	0.192295	0.255015	0.476837
O242	O	0.575172	0.253441	0.468607
H243	H	0.612848	0.205397	0.446896
H244	H	0.652532	-0.275691	0.371157
H245	H	0.272566	0.162433	0.476833
H246	H	0.272591	-0.056605	0.695844
H247	H	-0.267239	-0.056610	0.590235
H248	H	0.192302	0.056748	0.476827
O249	O	0.575191	-0.064891	0.150235
H250	H	0.612875	-0.086619	0.154819
O251	O	-0.057844	-0.096096	0.629725
H252	H	-0.080667	-0.117811	0.651450
H253	H	0.272543	0.056793	0.809256
H254	H	0.192272	0.056780	0.901799
O255	O	0.186473	-0.064860	0.786862
H256	H	0.209293	-0.086577	0.738822
H257	H	0.772968	-0.357846	0.175621
O258	O	0.074901	-0.096102	0.629708
H259	H	0.052077	-0.117817	0.651434
O260	O	0.629372	0.350833	0.437350
H261	H	0.667052	0.355419	0.415623
O262	O	0.295684	0.096277	0.076716
H263	H	0.258009	0.117993	0.124755
H264	H	0.732832	-0.368257	0.278576
H265	H	0.652479	0.056744	0.371220
H266	H	-0.011218	-0.087842	0.621461
H267	H	0.272551	0.162454	0.809248
O268	O	0.186438	0.253510	0.916819
H269	H	0.137624	0.275273	0.941574
O270	O	-0.353365	-0.064862	0.598500
H271	H	-0.402176	-0.033310	0.633033
O272	O	-0.353364	0.064989	0.468603
H273	H	-0.330543	0.086707	0.446878
H274	H	-0.011252	0.088015	0.445630
O275	O	-0.261415	0.065012	0.468616
H276	H	-0.284235	0.086725	0.446890
H277	H	-0.143971	-0.087835	0.621472
O278	O	-0.149826	0.096247	0.437364
H279	H	-0.169985	0.144270	0.455415
O280	O	-0.057875	0.096252	0.437370
H281	H	-0.080697	0.117967	0.415646
H282	H	0.615057	0.458379	0.445598
O283	O	0.575158	0.147407	0.468624
H284	H	0.612841	0.151987	0.446894
H285	H	0.560876	0.724328	0.476825
O286	O	0.575197	0.616759	0.468571
H287	H	0.612878	0.621343	0.446846
H288	H	0.364221	0.745181	0.590189
O289	O	0.349908	0.852731	0.598441
H290	H	0.312227	0.848148	0.620160
H291	H	0.310017	0.634292	0.621428
H292	H	0.310015	0.541744	0.621428
H293	H	0.364227	0.056739	0.371178
H294	H	0.364188	0.056792	-0.098175
H295	H	0.560872	-0.056644	0.257804
O296	O	0.575156	-0.064856	-0.319110
H297	H	0.612837	-0.086581	-0.314522
