data_functionalizedCrystal
_audit_creation_method	'MofGen! by Chris Wilmer'
_symmetry_space_group_name_H-M	'P1'
_symmetry_Int_Tables_number	1
_symmetry_cell_setting	triclinic
loop_
_symmetry_equiv_pos_as_xyz
  x,y,z
_cell_length_a	12.594516
_cell_length_b	11.169417
_cell_length_c	11.169409
_cell_angle_alpha	89.980176
_cell_angle_beta	90.031354
_cell_angle_gamma	89.983069
loop_
_atom_site_label
_atom_site_type_symbol
_atom_site_fract_x
_atom_site_fract_y
_atom_site_fract_z
Zn1	Zn	-0.423631	-1.834915	0.678551
Zn2	Zn	-0.601657	-1.834784	0.477871
Zn3	Zn	-0.423696	-1.634201	0.477885
Zn4	Zn	-0.601571	-1.634188	0.678516
O5	O	-0.512639	-1.734522	0.578206
O6	O	-0.447256	-2.002847	0.651939
O7	O	-0.578114	-1.808127	0.309923
O8	O	-0.274741	-1.660886	0.504524
O9	O	-0.578051	-2.002751	0.504501
O10	O	-0.274694	-1.808349	0.651953
O11	O	-0.447366	-1.660759	0.309934
O12	O	-0.447282	-1.466249	0.504491
O13	O	-0.577903	-1.660864	0.846471
O14	O	-0.577966	-1.466240	0.651893
O15	O	-0.447172	-1.808337	0.846496
O16	O	-0.750592	-1.808115	0.504467
O17	O	-0.750528	-1.660738	0.651880
C18	C	-0.512623	-1.422697	0.578190
C19	C	-0.512641	-1.289297	0.578212
C20	C	-0.789180	-1.734443	0.578194
C21	C	-0.907485	-1.734519	0.578229
C22	C	-0.512520	-1.734614	0.891249
C23	C	-0.512470	-1.734653	1.024649
C24	C	-0.976742	-1.654353	0.658351
C25	C	-1.047617	-1.625107	0.548838
C26	C	-1.047410	-1.763875	0.687761
C27	C	-0.976801	-1.705215	0.468658
C28	C	-0.976588	-1.844034	0.607656
C29	C	-1.047430	-1.814829	0.498067
C30	C	-0.235018	-1.734634	0.578244
C31	C	-0.116712	-1.734681	0.578260
C32	C	-0.512656	-2.047564	0.578222
C33	C	-0.512663	-2.180964	0.578229
C34	C	-0.512680	-1.734499	0.266381
C35	C	-0.512430	-1.734692	0.132982
H36	H	-1.078839	-1.532568	0.523974
O37	O	-0.939784	-1.675506	0.358219
C38	C	-0.827841	-1.675758	0.359541
H39	H	-0.798494	-1.662339	0.455166
H40	H	-0.797031	-1.600056	0.300560
H41	H	-0.797478	-1.765081	0.323967
O42	O	-1.084364	-1.895639	0.417088
C43	C	-1.147450	-1.836368	0.331216
H44	H	-1.178725	-1.749084	0.370620
H45	H	-1.217106	-1.896041	0.305033
H46	H	-1.097533	-1.816051	0.248557
H47	H	-0.945703	-1.586438	0.726008
H48	H	-0.945368	-1.936553	0.632572
H49	H	-1.078426	-1.788639	0.780379
