data_functionalizedCrystal
_audit_creation_method	'MofGen! by Chris Wilmer'
_symmetry_space_group_name_H-M	'P1'
_symmetry_Int_Tables_number	1
_symmetry_cell_setting	triclinic
loop_
_symmetry_equiv_pos_as_xyz
  x,y,z
_cell_length_a	18.050589
_cell_length_b	17.077404
_cell_length_c	17.077396
_cell_angle_alpha	90.019501
_cell_angle_beta	89.975358
_cell_angle_gamma	89.971554
loop_
_atom_site_label
_atom_site_type_symbol
_atom_site_fract_x
_atom_site_fract_y
_atom_site_fract_z
Zn1	Zn	-0.295655	-1.200026	-0.443864
Zn2	Zn	-0.045655	-0.950026	-0.193864
Zn3	Zn	0.204345	-0.700026	0.056136
Zn4	Zn	0.454345	-0.450026	0.306136
Zn5	Zn	-0.419852	-1.199920	-0.312606
Zn6	Zn	-0.169852	-0.949920	-0.062606
Zn7	Zn	0.080148	-0.699920	0.187394
Zn8	Zn	0.330148	-0.449920	0.437394
Zn9	Zn	-0.295681	-1.068757	-0.312612
Zn10	Zn	-0.045681	-0.818757	-0.062612
Zn11	Zn	0.204319	-0.568757	0.187388
Zn12	Zn	0.454319	-0.318757	0.437388
Zn13	Zn	-0.419808	-1.068713	-0.443830
Zn14	Zn	-0.169808	-0.818713	-0.193830
Zn15	Zn	0.080192	-0.568713	0.056170
Zn16	Zn	0.330192	-0.318713	0.306170
O17	O	-0.357749	-1.134354	-0.378228
O18	O	-0.107749	-0.884354	-0.128228
O19	O	0.142251	-0.634354	0.121772
O20	O	0.392251	-0.384354	0.371772
O21	O	-0.312138	-1.309858	-0.426464
O22	O	-0.062138	-1.059858	-0.176464
O23	O	0.187862	-0.809858	0.073536
O24	O	0.437862	-0.559858	0.323536
O25	O	-0.403410	-1.182496	-0.202760
O26	O	-0.153410	-0.932496	0.047240
O27	O	0.096590	-0.682496	0.297240
O28	O	0.346590	-0.432496	0.547240
O29	O	-0.191753	-1.086233	-0.330039
O30	O	0.058247	-0.836233	-0.080039
O31	O	0.308247	-0.586233	0.169961
O32	O	0.558247	-0.336233	0.419961
O33	O	-0.403385	-1.309781	-0.330030
O34	O	-0.153385	-1.059781	-0.080030
O35	O	0.096615	-0.809781	0.169970
O36	O	0.346615	-0.559781	0.419970
O37	O	-0.191734	-1.182675	-0.426469
O38	O	0.058266	-0.932675	-0.176469
O39	O	0.308266	-0.682675	0.073531
O40	O	0.558266	-0.432675	0.323531
O41	O	-0.312182	-1.086131	-0.202764
O42	O	-0.062182	-0.836131	0.047236
O43	O	0.187818	-0.586131	0.297236
O44	O	0.437818	-0.336131	0.547236
O45	O	-0.312139	-0.958905	-0.330006
O46	O	-0.062139	-0.708905	-0.080006
O47	O	0.187861	-0.458905	0.169994
O48	O	0.437861	-0.208905	0.419994
O49	O	-0.403310	-1.086157	-0.553681
O50	O	-0.153310	-0.836157	-0.303681
O51	O	0.096690	-0.586157	-0.053681
O52	O	0.346690	-0.336157	0.196319
O53	O	-0.403335	-0.958872	-0.426412
O54	O	-0.153335	-0.708872	-0.176412
O55	O	0.096665	-0.458872	0.073588
O56	O	0.346665	-0.208872	0.323588
O57	O	-0.312095	-1.182632	-0.553706
O58	O	-0.062095	-0.932632	-0.303706
O59	O	0.187905	-0.682632	-0.053706
O60	O	0.437905	-0.432632	0.196294
O61	O	-0.523771	-1.182453	-0.329997
O62	O	-0.273771	-0.932453	-0.079997
O63	O	-0.023771	-0.682453	0.170003
O64	O	0.226229	-0.432453	0.420003
O65	O	-0.523739	-1.086056	-0.426407
O66	O	-0.273739	-0.836056	-0.176407
O67	O	-0.023739	-0.586056	0.073593
O68	O	0.226261	-0.336056	0.323593
C69	C	-0.357736	-0.930406	-0.378206
C70	C	-0.107736	-0.680406	-0.128206
C71	C	0.142264	-0.430406	0.121794
C72	C	0.392264	-0.180406	0.371794
C73	C	-0.357748	-0.843156	-0.378216
C74	C	-0.107748	-0.593156	-0.128216
C75	C	0.142252	-0.343156	0.121784
C76	C	0.392252	-0.093156	0.371784
C77	C	-0.550701	-1.134259	-0.378215
C78	C	-0.300701	-0.884259	-0.128215
C79	C	-0.050701	-0.634259	0.121785
C80	C	0.199299	-0.384259	0.371785
C81	C	-0.633247	-1.134291	-0.378236
C82	C	-0.383247	-0.884291	-0.128236
C83	C	-0.133247	-0.634291	0.121764
C84	C	0.116753	-0.384291	0.371764
C85	C	-0.357694	-1.134402	-0.582972
C86	C	-0.107694	-0.884402	-0.332972
C87	C	0.142306	-0.634402	-0.082972
C88	C	0.392306	-0.384402	0.167028
C89	C	-0.357671	-1.134422	-0.670222
C90	C	-0.107671	-0.884422	-0.420222
C91	C	0.142329	-0.634422	-0.170222
C92	C	0.392329	-0.384422	0.079778
C93	C	-0.832707	-1.081921	-0.430645
C94	C	-0.582707	-0.831921	-0.180645
C95	C	-0.332707	-0.581921	0.069355
C96	C	-0.082707	-0.331921	0.319355
C97	C	-0.882149	-1.062786	-0.359016
C98	C	-0.632149	-0.812786	-0.109016
C99	C	-0.382149	-0.562786	0.140984
C100	C	-0.132149	-0.312786	0.390984
C101	C	-0.784377	-1.134368	-0.378246
C102	C	-0.534377	-0.884368	-0.128246
C103	C	-0.284377	-0.634368	0.121754
C104	C	-0.034377	-0.384368	0.371754
C105	C	-0.882017	-1.153541	-0.449883
C106	C	-0.632017	-0.903541	-0.199883
C107	C	-0.382017	-0.653541	0.050117
C108	C	-0.132017	-0.403541	0.300117
C109	C	-0.930362	-1.134441	-0.378262
C110	C	-0.680362	-0.884441	-0.128262
C111	C	-0.430362	-0.634441	0.121738
C112	C	-0.180362	-0.384441	0.371738
C113	C	-0.832732	-1.115195	-0.306579
C114	C	-0.582732	-0.865195	-0.056579
C115	C	-0.332732	-0.615195	0.193421
C116	C	-0.082732	-0.365195	0.443421
C117	C	-0.832596	-1.205984	-0.397495
C118	C	-0.582596	-0.955984	-0.147495
C119	C	-0.332596	-0.705984	0.102505
C120	C	-0.082596	-0.455984	0.352505
C121	C	-0.882016	-1.186876	-0.325816
C122	C	-0.632016	-0.936876	-0.075816
C123	C	-0.382016	-0.686876	0.174184
C124	C	-0.132016	-0.436876	0.424184
C125	C	-0.700279	-1.134324	-0.378238
C126	C	-0.450279	-0.884324	-0.128238
C127	C	-0.200279	-0.634324	0.121762
C128	C	0.049721	-0.384324	0.371762
C129	C	-1.014459	-1.134485	-0.378262
C130	C	-0.764459	-0.884485	-0.128262
C131	C	-0.514459	-0.634485	0.121738
C132	C	-0.264459	-0.384485	0.371738
C133	C	-0.164043	-1.134471	-0.378258
C134	C	0.085957	-0.884471	-0.128258
C135	C	0.335957	-0.634471	0.121742
C136	C	0.585957	-0.384471	0.371742
C137	C	-0.081498	-1.134520	-0.378271
C138	C	0.168502	-0.884520	-0.128271
C139	C	0.418502	-0.634520	0.121729
C140	C	0.668502	-0.384520	0.371729
C141	C	-0.357763	-1.339098	-0.378250
C142	C	-0.107763	-1.089098	-0.128250
C143	C	0.142237	-0.839098	0.121750
C144	C	0.392237	-0.589098	0.371750
C145	C	-0.357769	-1.426348	-0.378260
C146	C	-0.107769	-1.176348	-0.128260
C147	C	0.142231	-0.926348	0.121740
C148	C	0.392231	-0.676348	0.371740
C149	C	-0.405305	-0.802170	-0.428333
C150	C	-0.155305	-0.552170	-0.178333
C151	C	0.094695	-0.302170	0.071667
C152	C	0.344695	-0.052170	0.321667
C153	C	-0.405307	-0.720189	-0.428346
C154	C	-0.155307	-0.470189	-0.178346
C155	C	0.094693	-0.220189	0.071654
C156	C	0.344693	0.029811	0.321654
C157	C	-0.357754	-0.679197	-0.378236
C158	C	-0.107754	-0.429197	-0.128236
C159	C	0.142246	-0.179197	0.121764
C160	C	0.392246	0.070803	0.371764
C161	C	-0.310192	-0.720189	-0.328116
C162	C	-0.060192	-0.470189	-0.078116
C163	C	0.189808	-0.220189	0.171884
C164	C	0.439808	0.029811	0.421884
C165	C	-0.310187	-0.802168	-0.328108
C166	C	-0.060187	-0.552168	-0.078108
C167	C	0.189813	-0.302168	0.171892
C168	C	0.439813	-0.052168	0.421892
C169	C	-0.310206	-0.549319	-0.328135
C170	C	-0.060206	-0.299319	-0.078135
C171	C	0.189794	-0.049319	0.171865
C172	C	0.439794	0.200681	0.421865
C173	C	-0.310212	-0.467335	-0.328142
C174	C	-0.060212	-0.217335	-0.078142
C175	C	0.189788	0.032665	0.171858
C176	C	0.439788	0.282665	0.421858
C177	C	-0.405326	-0.467340	-0.428373
C178	C	-0.155326	-0.217340	-0.178373
C179	C	0.094674	0.032660	0.071627
C180	C	0.344674	0.282660	0.321627
C181	C	-0.405321	-0.549319	-0.428365
C182	C	-0.155321	-0.299319	-0.178365
C183	C	0.094679	-0.049319	0.071635
C184	C	0.344679	0.200681	0.321635
C185	C	-0.357760	-0.590306	-0.378244
C186	C	-0.107760	-0.340306	-0.128244
C187	C	0.142240	-0.090306	0.121756
C188	C	0.392240	0.159694	0.371756
C189	C	-0.310172	-1.184658	-0.711226
C190	C	-0.060172	-0.934658	-0.461226
C191	C	0.189828	-0.684658	-0.211226
C192	C	0.439828	-0.434658	0.038774
C193	C	-0.310147	-1.184667	-0.793207
C194	C	-0.060147	-0.934667	-0.543207
C195	C	0.189853	-0.684667	-0.293207
C196	C	0.439853	-0.434667	-0.043207
C197	C	-0.357626	-1.134444	-0.834182
C198	C	-0.107626	-0.884444	-0.584182
C199	C	0.142374	-0.634444	-0.334182
C200	C	0.392374	-0.384444	-0.084182
C201	C	-0.405128	-1.084202	-0.793172
C202	C	-0.155128	-0.834202	-0.543172
C203	C	0.094872	-0.584202	-0.293172
C204	C	0.344872	-0.334202	-0.043172
C205	C	-0.405148	-1.084190	-0.711193
C206	C	-0.155148	-0.834190	-0.461193
C207	C	0.094852	-0.584190	-0.211193
C208	C	0.344852	-0.334190	0.038807
C209	C	-0.405083	-1.084234	-0.964042
C210	C	-0.155083	-0.834234	-0.714042
C211	C	0.094917	-0.584234	-0.464042
C212	C	0.344917	-0.334234	-0.214042
C213	C	-0.405064	-1.084248	-1.046026
C214	C	-0.155064	-0.834248	-0.796026
C215	C	0.094936	-0.584248	-0.546026
C216	C	0.344936	-0.334248	-0.296026
C217	C	-0.310082	-1.184712	-1.046056
C218	C	-0.060082	-0.934712	-0.796056
C219	C	0.189918	-0.684712	-0.546056
C220	C	0.439918	-0.434712	-0.296056
C221	C	-0.310102	-1.184699	-0.964077
C222	C	-0.060102	-0.934699	-0.714077
C223	C	0.189898	-0.684699	-0.464077
C224	C	0.439898	-0.434699	-0.214077
C225	C	-0.357605	-1.134458	-0.923073
C226	C	-0.107605	-0.884458	-0.673073
C227	C	0.142395	-0.634458	-0.423073
C228	C	0.392395	-0.384458	-0.173073
C229	C	-0.357750	-1.134352	-0.174280
C230	C	-0.107750	-0.884352	0.075720
C231	C	0.142250	-0.634352	0.325720
C232	C	0.392250	-0.384352	0.575720
C233	C	-0.357564	-1.134484	-0.087031
C234	C	-0.107564	-0.884484	0.162969
C235	C	0.142436	-0.634484	0.412969
C236	C	0.392436	-0.384484	0.662969
H237	H	-0.811056	-1.037504	-0.474894
H238	H	-0.561056	-0.787504	-0.224894
H239	H	-0.311056	-0.537504	0.025106
H240	H	-0.061056	-0.287504	0.275106
H241	H	-0.903931	-1.002257	-0.342749
H242	H	-0.653931	-0.752257	-0.092749
H243	H	-0.403931	-0.502257	0.157251
H244	H	-0.153931	-0.252257	0.407251
H245	H	-0.903530	-1.231259	-0.281460
H246	H	-0.653530	-0.981259	-0.031460
H247	H	-0.403530	-0.731259	0.218540
H248	H	-0.153530	-0.481259	0.468540
H249	H	-0.810816	-1.266499	-0.413795
H250	H	-0.560816	-1.016499	-0.163795
H251	H	-0.310816	-0.766499	0.086205
H252	H	-0.060816	-0.516499	0.336205
H253	H	-0.444033	-0.686822	-0.469156
H254	H	-0.194033	-0.436822	-0.219156
H255	H	0.055967	-0.186822	0.030844
H256	H	0.305967	0.063178	0.280844
H257	H	-0.903667	-1.169729	-0.510460
H258	H	-0.653667	-0.919729	-0.260460
H259	H	-0.403667	-0.669729	-0.010460
H260	H	-0.153667	-0.419729	0.239540
H261	H	-0.811172	-1.098937	-0.245986
H262	H	-0.561172	-0.848937	0.004014
H263	H	-0.311172	-0.598937	0.254014
H264	H	-0.061172	-0.348937	0.504014
H265	H	-0.271511	-1.225558	-0.677871
H266	H	-0.021511	-0.975558	-0.427871
H267	H	0.228489	-0.725558	-0.177871
H268	H	0.478489	-0.475558	0.072129
H269	H	-0.271470	-0.582688	-0.287328
H270	H	-0.021470	-0.332688	-0.037328
H271	H	0.228530	-0.082688	0.212672
H272	H	0.478530	0.167312	0.462672
H273	H	-0.271457	-0.835538	-0.287301
H274	H	-0.021457	-0.585538	-0.037301
H275	H	0.228543	-0.335538	0.212699
H276	H	0.478543	-0.085538	0.462699
H277	H	-0.271402	-1.225619	-1.079446
H278	H	-0.021402	-0.975619	-0.829446
H279	H	0.228598	-0.725619	-0.579446
H280	H	0.478598	-0.475619	-0.329446
H281	H	-0.271471	-0.686807	-0.287319
H282	H	-0.021471	-0.436807	-0.037319
H283	H	0.228529	-0.186807	0.212681
H284	H	0.478529	0.063193	0.462681
H285	H	-0.444030	-0.835540	-0.469136
H286	H	-0.194030	-0.585540	-0.219136
H287	H	0.055970	-0.335540	0.030864
H288	H	0.305970	-0.085540	0.280864
H289	H	-0.271482	-0.433961	-0.287347
H290	H	-0.021482	-0.183961	-0.037347
H291	H	0.228518	0.066039	0.212653
H292	H	0.478518	0.316039	0.462653
H293	H	-0.271470	-1.225577	-0.826589
H294	H	-0.021470	-0.975577	-0.576589
H295	H	0.228530	-0.725577	-0.326589
H296	H	0.478530	-0.475577	-0.076589
H297	H	-0.444047	-0.582693	-0.469164
H298	H	-0.194047	-0.332693	-0.219164
H299	H	0.055953	-0.082693	0.030836
H300	H	0.305953	0.167307	0.280836
H301	H	-0.271445	-1.225600	-0.930718
H302	H	-0.021445	-0.975600	-0.680718
H303	H	0.228555	-0.725600	-0.430718
H304	H	0.478555	-0.475600	-0.180718
H305	H	-0.443724	-1.043350	-1.079386
H306	H	-0.193724	-0.793350	-0.829386
H307	H	0.056276	-0.543350	-0.579386
H308	H	0.306276	-0.293350	-0.329386
H309	H	-0.443819	-1.043274	-0.677808
H310	H	-0.193819	-0.793274	-0.427808
H311	H	0.056181	-0.543274	-0.177808
H312	H	0.306181	-0.293274	0.072192
H313	H	-0.443753	-1.043310	-0.930658
H314	H	-0.193753	-0.793310	-0.680658
H315	H	0.056247	-0.543310	-0.430658
H316	H	0.306247	-0.293310	-0.180658
H317	H	-0.444050	-0.433965	-0.469186
H318	H	-0.194050	-0.183965	-0.219186
H319	H	0.055950	0.066035	0.030814
H320	H	0.305950	0.316035	0.280814
H321	H	-0.443783	-1.043307	-0.826540
H322	H	-0.193783	-0.793307	-0.576540
H323	H	0.056217	-0.543307	-0.326540
H324	H	0.306217	-0.293307	-0.076540
