data_functionalizedCrystal
_audit_creation_method	'MofGen! by Chris Wilmer'
_symmetry_space_group_name_H-M	'P1'
_symmetry_Int_Tables_number	1
_symmetry_cell_setting	triclinic
loop_
_symmetry_equiv_pos_as_xyz
  x,y,z
_cell_length_a	17.077404
_cell_length_b	19.805405
_cell_length_c	17.077396
_cell_angle_alpha	89.969433
_cell_angle_beta	89.982940
_cell_angle_gamma	90.026951
loop_
_atom_site_label
_atom_site_type_symbol
_atom_site_fract_x
_atom_site_fract_y
_atom_site_fract_z
Zn1	Zn	1.200015	-0.269448	-0.443840
Zn2	Zn	1.700015	0.230552	0.056160
Zn3	Zn	1.199919	-0.382645	-0.312573
Zn4	Zn	1.699919	0.117355	0.187427
Zn5	Zn	1.068752	-0.269475	-0.312588
Zn6	Zn	1.568752	0.230525	0.187412
Zn7	Zn	1.068706	-0.382601	-0.443797
Zn8	Zn	1.568706	0.117399	0.056203
O9	O	1.134348	-0.326042	-0.378199
O10	O	1.634348	0.173958	0.121801
O11	O	1.309849	-0.284471	-0.426439
O12	O	1.809849	0.215529	0.073561
O13	O	1.182498	-0.367662	-0.202728
O14	O	1.682498	0.132338	0.297272
O15	O	1.086224	-0.174755	-0.330023
O16	O	1.586224	0.325245	0.169977
O17	O	1.309778	-0.367636	-0.329998
O18	O	1.809778	0.132364	0.170002
O19	O	1.182662	-0.174735	-0.426454
O20	O	1.682662	0.325265	0.073546
O21	O	1.086131	-0.284517	-0.202739
O22	O	1.586131	0.215483	0.297261
O23	O	0.958899	-0.284475	-0.329981
O24	O	1.458899	0.215525	0.170019
O25	O	1.086145	-0.367562	-0.553649
O26	O	1.586145	0.132438	-0.053649
O27	O	0.958865	-0.367588	-0.426380
O28	O	1.458865	0.132412	0.073620
O29	O	1.182617	-0.284429	-0.553681
O30	O	1.682617	0.215571	-0.053681
O31	O	1.182453	-0.477355	-0.329956
O32	O	1.682453	0.022645	0.170044
O33	O	1.086052	-0.477324	-0.426365
O34	O	1.586052	0.022676	0.073635
C35	C	0.930400	-0.326030	-0.378178
C36	C	1.430400	0.173970	0.121822
C37	C	0.843150	-0.326041	-0.378187
C38	C	1.343150	0.173959	0.121813
C39	C	0.802163	-0.369383	-0.428301
C40	C	1.302163	0.130617	0.071699
C41	C	0.720182	-0.369385	-0.428314
C42	C	1.220182	0.130615	0.071686
C43	C	0.679191	-0.326047	-0.378208
C44	C	1.179191	0.173953	0.121792
C45	C	0.720184	-0.282700	-0.328091
C46	C	1.220184	0.217300	0.171909
C47	C	0.802163	-0.282696	-0.328083
C48	C	1.302163	0.217304	0.171917
C49	C	0.549314	-0.282713	-0.328110
C50	C	1.049314	0.217287	0.171890
C51	C	0.467329	-0.282718	-0.328117
C52	C	0.967329	0.217282	0.171883
C53	C	0.467333	-0.369403	-0.428341
C54	C	0.967333	0.130597	0.071659
C55	C	0.549312	-0.369398	-0.428333
C56	C	1.049312	0.130602	0.071667
C57	C	0.590300	-0.326052	-0.378215
C58	C	1.090300	0.173948	0.121785
C59	C	1.134258	-0.501898	-0.378171
C60	C	1.634258	-0.001898	0.121829
C61	C	1.134292	-0.577130	-0.378185
C62	C	1.634292	-0.077130	0.121815
C63	C	1.184478	-0.612406	-0.428436
C64	C	1.684478	-0.112406	0.071564
C65	C	1.184506	-0.683094	-0.428450
C66	C	1.684506	-0.183094	0.071550
C67	C	1.134352	-0.718506	-0.378210
C68	C	1.634352	-0.218506	0.121790
C69	C	1.084161	-0.683225	-0.327957
C70	C	1.584161	-0.183225	0.172043
C71	C	1.084129	-0.612538	-0.327947
C72	C	1.584129	-0.112538	0.172053
C73	C	1.084287	-0.968299	-0.327997
C74	C	1.584287	-0.468299	0.172003
C75	C	1.084324	-1.038991	-0.328009
C76	C	1.584324	-0.538991	0.171991
C77	C	1.184664	-1.038855	-0.428501
C78	C	1.684664	-0.538855	0.071499
C79	C	1.184632	-0.968168	-0.428491
C80	C	1.684632	-0.468168	0.071509
C81	C	1.134438	-0.932893	-0.378241
C82	C	1.634438	-0.432893	0.121759
C83	C	1.134407	-0.856245	-0.378227
C84	C	1.634407	-0.356245	0.121773
C85	C	1.134387	-0.795153	-0.378219
C86	C	1.634387	-0.295153	0.121781
C87	C	1.339092	-0.326055	-0.378222
C88	C	1.839092	0.173945	0.121778
C89	C	1.426342	-0.326061	-0.378231
C90	C	1.926342	0.173939	0.121769
C91	C	1.134387	-0.325988	-0.582944
C92	C	1.634387	0.174012	-0.082944
C93	C	1.134403	-0.325964	-0.670194
C94	C	1.634403	0.174036	-0.170194
C95	C	1.134459	-0.149500	-0.378245
C96	C	1.634459	0.350500	0.121755
C97	C	1.134506	-0.074268	-0.378265
C98	C	1.634506	0.425732	0.121735
C99	C	1.184653	-0.369179	-1.046005
C100	C	1.684653	0.130821	-0.546005
C101	C	1.184633	-0.369199	-0.964024
C102	C	1.684633	0.130801	-0.464024
C103	C	1.134454	-0.325916	-0.923043
C104	C	1.634454	0.174084	-0.423043
C105	C	1.084285	-0.282616	-0.964046
C106	C	1.584285	0.217384	-0.464046
C107	C	1.084302	-0.282601	-1.046025
C108	C	1.584302	0.217399	-0.546025
C109	C	1.084256	-0.282651	-0.793176
C110	C	1.584256	0.217349	-0.293176
C111	C	1.084240	-0.282666	-0.711191
C112	C	1.584240	0.217334	-0.211191
C113	C	1.184587	-0.369250	-0.711175
C114	C	1.684587	0.130750	-0.211175
C115	C	1.184604	-0.369234	-0.793154
C116	C	1.684604	0.130766	-0.293154
C117	C	1.134436	-0.325933	-0.834152
C118	C	1.634436	0.174067	-0.334152
C119	C	1.134354	-0.326048	-0.174252
C120	C	1.634354	0.173952	0.325748
C121	C	1.134490	-0.325881	-0.087002
C122	C	1.634490	0.174119	0.412998
H123	H	0.835534	-0.247398	-0.287279
H124	H	1.335534	0.252602	0.212721
O125	O	1.035478	-0.717547	-0.279044
O126	O	1.535478	-0.217547	0.220956
C127	C	1.052687	-0.700316	-0.200821
C128	C	1.552687	-0.200316	0.299179
H129	H	1.082840	-0.648971	-0.199216
H130	H	1.582840	-0.148971	0.300784
H131	H	0.996055	-0.697958	-0.165571
H132	H	1.496055	-0.197958	0.334429
H133	H	1.093078	-0.740084	-0.174423
H134	H	1.593078	-0.240084	0.325577
O135	O	0.427611	-0.411477	-0.477136
O136	O	0.927611	0.088523	0.022864
C137	C	0.447671	-0.396764	-0.555402
C138	C	0.947671	0.103236	-0.055402
H139	H	0.507204	-0.370741	-0.557077
H140	H	1.007204	0.129259	-0.057077
H141	H	0.450471	-0.445655	-0.590492
H142	H	0.950471	0.054345	-0.090492
H143	H	0.401558	-0.362002	-0.581925
H144	H	0.901558	0.137998	-0.081925
H145	H	1.225519	-0.404421	-1.079366
H146	H	1.725519	0.095579	-0.579366
H147	H	1.043404	-0.247391	-0.826553
H148	H	1.543404	0.252609	-0.326553
H149	H	0.686814	-0.404679	-0.469121
H150	H	1.186814	0.095321	0.030879
O151	O	1.233443	-0.411274	-0.924321
O152	O	1.733443	0.088726	-0.424321
C153	C	1.277728	-0.449479	-0.978072
C154	C	1.777728	0.050521	-0.478072
H155	H	1.280469	-0.421744	-1.036520
H156	H	1.780469	0.078256	-0.536520
H157	H	1.339568	-0.456700	-0.954391
H158	H	1.839568	0.043300	-0.454391
H159	H	1.248959	-0.500884	-0.986768
H160	H	1.748959	-0.000884	-0.486768
H161	H	0.433956	-0.247421	-0.287326
H162	H	0.933956	0.252579	0.212674
H163	H	1.043419	-0.939584	-0.287081
H164	H	1.543419	-0.439584	0.212919
O165	O	1.233485	-1.073017	-0.477352
O166	O	1.733485	-0.573017	0.022648
C167	C	1.277729	-1.026603	-0.521707
C168	C	1.777729	-0.526603	-0.021707
H169	H	1.280451	-0.976234	-0.489543
H170	H	1.780451	-0.476234	0.010457
H171	H	1.339579	-1.046977	-0.530150
H172	H	1.839579	-0.546977	-0.030150
H173	H	1.248937	-1.019065	-0.581292
H174	H	1.748937	-0.519065	-0.081292
O175	O	0.589219	-0.240704	-0.279387
O176	O	1.089219	0.259296	0.220613
C177	C	0.636584	-0.279189	-0.228594
C178	C	1.136584	0.220811	0.271406
H179	H	0.648847	-0.330511	-0.256177
H180	H	1.148847	0.169489	0.243823
H181	H	0.694243	-0.251609	-0.218125
H182	H	1.194243	0.248391	0.281875
H183	H	0.604964	-0.286566	-0.170410
H184	H	1.104964	0.213434	0.329590
O185	O	0.589218	-0.411402	-0.477045
O186	O	1.089218	0.088598	0.022955
C187	C	0.636659	-0.372913	-0.527830
C188	C	1.136659	0.127087	-0.027830
H189	H	0.648951	-0.321590	-0.500247
H190	H	1.148951	0.178410	-0.000247
H191	H	0.694300	-0.400488	-0.538288
H192	H	1.194300	0.099512	-0.038288
H193	H	0.605092	-0.365541	-0.586021
H194	H	1.105092	0.134459	-0.086021
O195	O	1.233282	-0.577981	-0.477129
O196	O	1.733282	-0.077981	0.022871
C197	C	1.283981	-0.537067	-0.432485
C198	C	1.783981	-0.037067	0.067515
H199	H	1.288880	-0.558399	-0.370667
H200	H	1.788880	-0.058399	0.129333
H201	H	1.344372	-0.536207	-0.460934
H202	H	1.844372	-0.036207	0.039066
H203	H	1.259690	-0.483514	-0.429753
H204	H	1.759690	0.016486	0.070247
O205	O	1.233343	-0.717256	-0.477276
O206	O	1.733343	-0.217256	0.022724
C207	C	1.277599	-0.670843	-0.521621
C208	C	1.777599	-0.170843	-0.021621
H209	H	1.280298	-0.620469	-0.489467
H210	H	1.780298	-0.120469	0.010533
H211	H	1.339455	-0.691212	-0.530033
H212	H	1.839455	-0.191212	-0.030033
H213	H	1.248832	-0.663319	-0.581221
H214	H	1.748832	-0.163319	-0.081221
H215	H	1.043425	-0.247378	-0.930672
H216	H	1.543425	0.252622	-0.430672
H217	H	1.225436	-0.404507	-0.677791
H218	H	1.725436	0.095493	-0.177791
H219	H	1.043479	-1.067821	-0.287096
H220	H	1.543479	-0.567821	0.212904
O221	O	1.233241	-0.933696	-0.477334
O222	O	1.733241	-0.433696	0.022666
C223	C	1.188495	-0.892826	-0.527998
C224	C	1.688495	-0.392826	-0.027998
H225	H	1.129021	-0.882298	-0.500253
H226	H	1.629021	-0.382298	-0.000253
H227	H	1.220438	-0.843088	-0.538542
H228	H	1.720438	-0.343088	-0.038542
H229	H	1.179845	-0.920042	-0.586165
H230	H	1.679845	-0.420042	-0.086165
O231	O	1.035270	-0.578343	-0.279173
O232	O	1.535270	-0.078343	0.220827
C233	C	0.957032	-0.595653	-0.296276
C234	C	1.457032	-0.095653	0.203724
H235	H	0.955412	-0.646962	-0.326453
H236	H	1.455412	-0.146962	0.173547
H237	H	0.921866	-0.598126	-0.239594
H238	H	1.421866	-0.098126	0.260406
H239	H	0.930553	-0.555868	-0.336608
H240	H	1.430553	-0.055868	0.163392
O241	O	1.233373	-0.411340	-0.832844
O242	O	1.733373	0.088660	-0.332844
C243	C	1.277662	-0.449551	-0.779082
C244	C	1.777662	0.050449	-0.279082
H245	H	1.245500	-0.451906	-0.720638
H246	H	1.745500	0.048094	-0.220638
H247	H	1.286003	-0.502875	-0.802754
H248	H	1.786003	-0.002875	-0.302754
H249	H	1.337295	-0.424773	-0.770380
H250	H	1.837295	0.075227	-0.270380
H251	H	1.043382	-0.247420	-0.677826
H252	H	1.543382	0.252580	-0.177826
O253	O	1.035465	-0.240573	-1.085766
O254	O	1.535465	0.259427	-0.585766
C255	C	0.957216	-0.255374	-1.065733
C256	C	1.457216	0.244626	-0.565733
H257	H	0.955561	-0.281403	-1.006201
H258	H	1.455561	0.218597	-0.506201
H259	H	0.922049	-0.206522	-1.062943
H260	H	1.422049	0.293478	-0.562943
H261	H	0.930762	-0.290162	-1.111856
H262	H	1.430762	0.209838	-0.611856
O263	O	0.841944	-0.411410	-0.477088
O264	O	1.341944	0.088590	0.022912
C265	C	0.821933	-0.396711	-0.555354
C266	C	1.321933	0.103289	-0.055354
H267	H	0.799425	-0.342644	-0.559428
H268	H	1.299425	0.157356	-0.059428
H269	H	0.875858	-0.402580	-0.594119
H270	H	1.375858	0.097420	-0.094119
H271	H	0.774338	-0.433023	-0.575803
H272	H	1.274338	0.066977	-0.075803
O273	O	0.680489	-0.240537	-0.279392
O274	O	1.180489	0.259463	0.220608
C275	C	0.734248	-0.202293	-0.235145
C276	C	1.234248	0.297707	0.264855
H277	H	0.792698	-0.199979	-0.267298
H278	H	1.292698	0.300021	0.232702
H279	H	0.710582	-0.148957	-0.226882
H280	H	1.210582	0.351043	0.273118
H281	H	0.742933	-0.227015	-0.175476
H282	H	1.242933	0.272985	0.324524
