data_functionalizedCrystal
_audit_creation_method	'MofGen! by Chris Wilmer'
_symmetry_space_group_name_H-M	'P1'
_symmetry_Int_Tables_number	1
_symmetry_cell_setting	triclinic
loop_
_symmetry_equiv_pos_as_xyz
  x,y,z
_cell_length_a	14.519731
_cell_length_b	14.519709
_cell_length_c	18.366186
_cell_angle_alpha	89.992822
_cell_angle_beta	89.990864
_cell_angle_gamma	83.684499
loop_
_atom_site_label
_atom_site_type_symbol
_atom_site_fract_x
_atom_site_fract_y
_atom_site_fract_z
O1	O	1.223861	0.120986	-0.060553
O2	O	1.723861	0.620986	0.439447
O3	O	0.955387	0.135202	-0.060554
O4	O	1.455387	0.635202	0.439446
O5	O	1.096742	-0.006144	-0.060547
O6	O	1.596742	0.493856	0.439453
O7	O	1.082506	0.262332	-0.060560
O8	O	1.582506	0.762332	0.439440
O9	O	1.096718	-0.006151	0.060553
O10	O	1.596718	0.493849	0.560553
O11	O	0.955363	0.135195	0.060545
O12	O	1.455363	0.635195	0.560545
O13	O	1.223837	0.120979	0.060547
O14	O	1.723837	0.620979	0.560547
Zn15	Zn	1.089596	0.128086	0.079773
Zn16	Zn	1.589596	0.628086	0.579773
Zn17	Zn	1.089628	0.128095	-0.079781
Zn18	Zn	1.589628	0.628095	0.420219
O19	O	1.082482	0.262325	0.060539
O20	O	1.582482	0.762325	0.560539
C21	C	0.921016	0.134532	-0.000005
C22	C	1.421016	0.634532	0.499995
C23	C	0.818635	0.132536	-0.000005
C24	C	1.318635	0.632536	0.499995
C25	C	0.735491	0.130915	-0.000008
C26	C	1.235491	0.630915	0.499992
C27	C	0.631182	0.128888	-0.000008
C28	C	1.131182	0.628888	0.499992
C29	C	0.548043	0.127280	-0.000008
C30	C	1.048043	0.627280	0.499992
C31	C	0.443728	0.125253	-0.000009
C32	C	0.943728	0.625253	0.499991
C33	C	1.096067	-0.040507	0.000003
C34	C	1.596067	0.459493	0.500003
C35	C	1.094079	-0.142889	0.000003
C36	C	1.594079	0.357111	0.500003
C37	C	1.086759	-0.517785	-0.000016
C38	C	1.586759	-0.017785	0.499984
C39	C	1.088792	-0.413477	-0.000010
C40	C	1.588792	0.086523	0.499990
C41	C	1.090419	-0.330340	-0.000005
C42	C	1.590419	0.169660	0.499995
C43	C	1.092452	-0.226025	-0.000001
C44	C	1.592452	0.273975	0.499999
C45	C	1.258209	0.121649	-0.000005
C46	C	1.758209	0.621649	0.499995
C47	C	1.360589	0.123645	-0.000009
C48	C	1.860589	0.623645	0.499991
C49	C	1.083157	0.296688	-0.000012
C50	C	1.583157	0.796688	0.499988
C51	C	1.085146	0.399070	-0.000017
C52	C	1.585146	0.899070	0.499983
N53	N	1.089581	0.128079	0.188664
N54	N	1.589581	0.628079	0.688664
N55	N	1.089650	0.128095	-0.188672
N56	N	1.589650	0.628095	0.311328
C57	C	1.152194	0.065522	0.226768
C58	C	1.652194	0.565522	0.726768
C59	C	1.152200	0.065518	0.302996
C60	C	1.652200	0.565518	0.802996
C61	C	1.089602	0.128087	0.341117
C62	C	1.589602	0.628087	0.841117
C63	C	1.026977	0.190649	0.303004
C64	C	1.526977	0.690649	0.803004
C65	C	1.026967	0.190645	0.226778
C66	C	1.526967	0.690645	0.726778
C67	C	1.077658	0.212057	0.461873
C68	C	1.577658	0.712057	0.961873
C69	C	1.077674	0.212062	0.538098
C70	C	1.577674	0.712062	1.038098
C71	C	1.089628	0.128098	0.576224
C72	C	1.589628	0.628098	1.076224
C73	C	1.101585	0.044126	0.538117
C74	C	1.601585	0.544126	1.038117
C75	C	1.101574	0.044122	0.461890
C76	C	1.601574	0.544122	0.961890
C77	C	1.089606	0.128098	0.423772
C78	C	1.589606	0.628098	0.923772
C79	C	1.152251	0.065532	0.696983
C80	C	1.652251	0.565532	1.196983
C81	C	1.152250	0.065526	0.773212
C82	C	1.652250	0.565526	1.273212
C83	C	1.027032	0.190665	0.773219
C84	C	1.527032	0.690665	1.273219
C85	C	1.027028	0.190662	0.696991
C86	C	1.527028	0.690662	1.196991
C87	C	1.089642	0.128097	0.658878
C88	C	1.589642	0.628097	1.158878
H89	H	1.203176	0.014575	0.195738
H90	H	1.703176	0.514575	0.695738
F91	F	1.114291	-0.045245	0.421336
F92	F	1.614291	0.454755	0.921336
F93	F	0.960405	0.257250	0.813787
F94	F	1.460405	0.757250	1.313787
F95	F	0.960353	0.257236	0.343576
F96	F	1.460353	0.757236	0.843576
H97	H	0.976046	0.241606	0.665965
H98	H	1.476046	0.741606	1.165965
F99	F	0.960324	0.257230	0.186223
F100	F	1.460324	0.757230	0.686223
H101	H	1.111318	-0.024246	0.569157
H102	H	1.611318	0.475754	1.069157
F103	F	1.064956	0.301432	0.578648
F104	F	1.564956	0.801432	1.078648
H105	H	1.203232	0.014584	0.665950
H106	H	1.703232	0.514584	1.165950
H107	H	1.203234	0.014580	0.804237
H108	H	1.703234	0.514580	1.304237
F109	F	1.065002	0.301431	0.421303
F110	F	1.565002	0.801431	0.921303
F111	F	1.218845	-0.001067	0.343555
F112	F	1.718845	0.498933	0.843555
