data_functionalizedCrystal
_audit_creation_method	'MofGen! by Chris Wilmer'
_symmetry_space_group_name_H-M	'P1'
_symmetry_Int_Tables_number	1
_symmetry_cell_setting	triclinic
loop_
_symmetry_equiv_pos_as_xyz
  x,y,z
_cell_length_a	16.992694
_cell_length_b	8.965430
_cell_length_c	16.992695
_cell_angle_alpha	89.999842
_cell_angle_beta	90.668223
_cell_angle_gamma	89.998442
loop_
_atom_site_label
_atom_site_type_symbol
_atom_site_fract_x
_atom_site_fract_y
_atom_site_fract_z
O1	O	1.050850	0.123854	0.166911
O2	O	0.822450	0.123898	0.165079
O3	O	0.935734	0.123864	0.051795
O4	O	0.937566	0.123887	0.280195
O5	O	0.935725	-0.124215	0.051802
O6	O	0.822440	-0.124181	0.165087
O7	O	1.050840	-0.124225	0.166918
Cu8	Cu	0.936640	-0.146855	0.166003
Cu9	Cu	0.936651	0.146527	0.165994
O10	O	0.937556	-0.124191	0.280203
C11	C	0.793085	-0.000136	0.162727
C12	C	0.705600	-0.000120	0.155699
N13	N	0.936637	-0.353204	0.166009
C14	C	0.659610	-0.000114	0.223517
C15	C	0.577409	-0.000135	0.216908
C16	C	0.541201	-0.000152	0.142480
C17	C	0.587198	-0.000162	0.074657
C18	C	0.669397	-0.000151	0.081267
C19	C	0.295886	-0.000194	0.115086
C20	C	0.213681	-0.000200	0.108481
C21	C	0.203898	-0.000177	0.250732
C22	C	0.286099	-0.000157	0.257336
C23	C	0.332089	-0.000175	0.189512
N24	N	0.457178	-0.000169	0.135723
N25	N	0.416110	-0.000169	0.196270
C26	C	0.884229	-0.450494	0.218380
C27	C	0.956320	-0.549920	0.238112
C28	C	0.864576	-0.549906	0.146285
C29	C	1.008767	-0.450441	0.185779
C30	C	0.916974	-0.450417	0.093918
C31	C	0.989115	-0.549798	0.113624
C32	C	1.080205	-0.000188	0.169270
C33	C	1.167690	-0.000195	0.176299
C34	C	0.933374	-0.000175	0.022439
C35	C	0.926345	-0.000173	-0.065046
N36	N	0.936659	0.352876	0.165983
C37	C	0.994163	-0.000188	-0.111037
C38	C	0.987554	-0.000172	-0.193238
C39	C	0.913127	-0.000153	-0.229446
C40	C	0.845303	-0.000134	-0.183449
C41	C	0.851913	-0.000138	-0.101250
C42	C	0.885732	-0.000127	-0.474760
C43	C	0.879127	-0.000127	-0.556966
C44	C	1.021379	-0.000162	-0.566749
C45	C	1.027982	-0.000176	-0.484547
C46	C	0.960159	-0.000149	-0.438558
N47	N	0.906369	-0.000142	-0.313468
N48	N	0.966917	-0.000150	-0.354537
C49	C	0.939917	-0.000149	0.309559
C50	C	0.946945	-0.000141	0.397044
H51	H	0.689084	-0.000100	0.284124
H52	H	1.042779	-0.000187	-0.230680
O53	O	0.527805	-0.000121	0.290056
H54	H	0.490134	-0.101248	0.290458
H55	H	0.803626	-0.593600	0.129615
H56	H	0.557710	-0.000196	0.014056
O57	O	1.108257	-0.000161	-0.445493
H58	H	1.154307	-0.000146	-0.491284
O59	O	0.812584	-0.000136	-0.425161
H60	H	0.759722	-0.000149	-0.464151
H61	H	1.054770	-0.000212	-0.081563
H62	H	1.076596	-0.000181	-0.604202
H63	H	0.818517	-0.000135	-0.586443
H64	H	1.069734	-0.406933	0.202522
O65	O	0.765025	-0.000129	-0.222496
H66	H	0.771821	-0.000149	-0.287381
O67	O	0.825578	-0.392721	0.277096
H68	H	0.856548	-0.322906	0.321623
H69	H	0.315574	-0.000126	0.317942
O70	O	0.719008	-0.000153	0.008122
H71	H	0.680022	-0.000152	-0.044744
O72	O	0.894895	-0.392471	0.013202
H73	H	0.937818	-0.433995	-0.030394
O74	O	0.345479	-0.000211	0.041933
H75	H	0.383166	0.100895	0.041534
H76	H	0.796688	-0.000126	-0.063804
H77	H	0.972966	-0.593625	0.299067
O78	O	0.154297	-0.000188	0.323883
H79	H	0.091056	-0.000216	0.306786
H80	H	0.184203	-0.000212	0.047870
O81	O	1.047896	-0.607224	0.054946
H82	H	1.107639	-0.567176	0.071494
