data_functionalizedCrystal
_audit_creation_method	'MofGen! by Chris Wilmer'
_symmetry_space_group_name_H-M	'P1'
_symmetry_Int_Tables_number	1
_symmetry_cell_setting	triclinic
loop_
_symmetry_equiv_pos_as_xyz
  x,y,z
_cell_length_a	6.817900
_cell_length_b	16.306198
_cell_length_c	16.305550
_cell_angle_alpha	95.373122
_cell_angle_beta	103.455250
_cell_angle_gamma	103.467075
loop_
_atom_site_label
_atom_site_type_symbol
_atom_site_fract_x
_atom_site_fract_y
_atom_site_fract_z
V1	V	-4.026246	-0.117432	-0.263332
O2	O	-4.013841	0.004910	-0.258012
O3	O	-3.977698	-0.232142	-0.261826
O4	O	-3.977652	-0.115947	-0.378045
O5	O	-4.013887	-0.112090	-0.140988
V6	V	-4.509919	-0.102760	-0.248662
O7	O	-4.287177	-0.149615	-0.295509
O8	O	-4.699185	-0.070577	-0.216485
O9	O	-4.335260	0.011951	-0.250168
O10	O	-4.639720	-0.225102	-0.253982
O11	O	-4.639675	-0.108102	-0.371006
O12	O	-4.335306	-0.104245	-0.133949
C13	C	-3.822669	-0.260096	-0.257748
C14	C	-3.864260	-0.353876	-0.257281
C15	C	-4.015214	-0.694623	-0.255576
C16	C	-4.219298	-0.664089	-0.260538
C17	C	-4.176361	-0.566600	-0.261349
C18	C	-3.940325	-0.525574	-0.256421
C19	C	-3.888744	-0.571230	-0.334676
C20	C	-3.933440	-0.668848	-0.334288
C21	C	-3.845294	-0.643281	-0.172946
C22	C	-3.805619	-0.545629	-0.172460
C23	C	-3.897991	-0.430035	-0.256902
C24	C	-4.057544	-0.790162	-0.255101
C25	C	-3.822610	-0.111876	-0.405996
C26	C	-3.864161	-0.111421	-0.499776
C27	C	-4.015248	-0.109658	-0.840517
C28	C	-3.779200	-0.104423	-0.799575
C29	C	-3.736007	-0.105246	-0.702082
C30	C	-3.940291	-0.110532	-0.671472
C31	C	-4.107324	-0.193848	-0.722311
C32	C	-4.149188	-0.193376	-0.819859
C33	C	-4.070003	-0.032243	-0.794476
C34	C	-4.022074	-0.031583	-0.696632
C35	C	-3.897941	-0.111029	-0.575935
C36	C	-4.057607	-0.109167	-0.936055
C37	C	-4.153632	0.039900	-0.254244
C38	C	-4.091278	0.133679	-0.254716
C39	C	-4.153691	-0.108318	-0.105994
C40	C	-4.091377	-0.108769	-0.012212
H41	H	-4.221391	-0.535490	-0.205421
N42	N	-4.302899	-0.684548	-0.190060
N43	N	-4.213058	-0.721874	-0.135353
H44	H	-4.272102	-0.736328	-0.085574
H45	H	-3.609509	-0.045342	-0.666906
N46	N	-3.746433	-0.694411	-0.334084
N47	N	-3.743874	-0.747871	-0.393736
H48	H	-3.611804	-0.765922	-0.393600
N49	N	-3.907399	-0.664021	-0.097852
N50	N	-3.929715	-0.606938	-0.046795
H51	H	-3.973599	-0.621586	0.006236
H52	H	-3.718146	-0.544677	-0.334048
H53	H	-4.169362	-0.030547	-0.675281
H54	H	-3.985083	-0.558145	-0.396811
N55	N	-3.955305	0.046947	-0.811034
N56	N	-3.759939	0.067078	-0.789247
H57	H	-3.678912	0.123003	-0.800940
H58	H	-4.346076	-0.699797	-0.320147
N59	N	-3.853753	-0.507057	-0.099787
N60	N	-3.986737	-0.464940	-0.109727
H61	H	-4.020740	-0.437695	-0.058403
N62	N	-3.654403	-0.667317	-0.167410
N63	N	-3.643279	-0.722005	-0.224002
H64	H	-3.508474	-0.738986	-0.220100
H65	H	-3.631654	-0.516663	-0.163961
H66	H	-4.242068	-0.035337	-0.821300
N67	N	-3.646063	-0.028916	-0.814894
N68	N	-3.723583	0.021920	-0.856168
H69	H	-3.629556	0.075251	-0.866991
N70	N	-3.870212	0.045720	-0.653303
N71	N	-3.702339	0.042747	-0.604063
H72	H	-3.595083	0.097342	-0.573454
H73	H	-4.052604	-0.703043	-0.396498
H74	H	-4.282463	-0.554520	-0.321608
H75	H	-3.669581	-0.161507	-0.685933
N76	N	-3.722649	-0.174197	-0.839291
N77	N	-3.855435	-0.227763	-0.897618
H78	H	-3.815504	-0.277043	-0.925670
H79	H	-4.323024	-0.200683	-0.847870
N80	N	-4.103849	-0.266900	-0.858154
N81	N	-4.041565	-0.318202	-0.812789
H82	H	-4.009539	-0.370130	-0.839830
H83	H	-4.260480	-0.200729	-0.703416
N84	N	-4.037774	-0.267383	-0.701401
N85	N	-3.865328	-0.258640	-0.649101
H86	H	-3.816195	-0.310573	-0.634333
