data_functionalizedCrystal
_audit_creation_method	'MofGen! by Chris Wilmer'
_symmetry_space_group_name_H-M	'P1'
_symmetry_Int_Tables_number	1
_symmetry_cell_setting	triclinic
loop_
_symmetry_equiv_pos_as_xyz
  x,y,z
_cell_length_a	10.654550
_cell_length_b	14.519709
_cell_length_c	9.130313
_cell_angle_alpha	89.997798
_cell_angle_beta	89.996220
_cell_angle_gamma	84.082524
loop_
_atom_site_label
_atom_site_type_symbol
_atom_site_fract_x
_atom_site_fract_y
_atom_site_fract_z
O1	O	1.666589	0.129528	-0.121923
O2	O	2.166589	0.629528	0.378077
O3	O	1.300991	0.141869	-0.121900
O4	O	1.800991	0.641869	0.378100
O5	O	1.493483	0.001510	-0.121899
O6	O	1.993483	0.501510	0.378101
O7	O	1.474097	0.269887	-0.121924
O8	O	1.974097	0.769887	0.378076
O9	O	1.493481	0.001514	0.121700
O10	O	1.993481	0.501514	0.621700
O11	O	1.300989	0.141873	0.121699
O12	O	1.800989	0.641873	0.621699
O13	O	1.666586	0.129532	0.121676
O14	O	2.166586	0.629532	0.621676
Cu15	Cu	1.483787	0.135703	0.143930
Cu16	Cu	1.983787	0.635703	0.643930
Cu17	Cu	1.483790	0.135698	-0.144154
Cu18	Cu	1.983790	0.635698	0.355846
O19	O	1.474094	0.269891	0.121675
O20	O	1.974094	0.769891	0.621675
C21	C	1.254201	0.140965	-0.000098
C22	C	1.754201	0.640965	0.499902
C23	C	1.114784	0.138254	-0.000088
C24	C	1.614784	0.638254	0.499912
C25	C	1.034504	0.220895	-0.000117
C26	C	1.534504	0.720895	0.499883
C27	C	0.903507	0.218342	-0.000143
C28	C	1.403507	0.718342	0.499857
C29	C	0.933085	0.050500	-0.000116
C30	C	1.433085	0.550500	0.499884
C31	C	1.064078	0.053054	-0.000080
C32	C	1.564078	0.553054	0.499920
C33	C	1.085209	0.306095	-0.000126
C34	C	1.585209	0.806095	0.499874
C35	C	1.004928	0.388743	-0.000157
C36	C	1.504928	0.888743	0.499843
C37	C	0.873931	0.386190	-0.000182
C38	C	1.373931	0.886190	0.499818
C39	C	0.823217	0.300989	-0.000176
C40	C	1.323217	0.800989	0.499824
C41	C	1.492579	-0.032852	-0.000099
C42	C	1.992579	0.467148	0.499901
C43	C	1.489871	-0.135247	-0.000098
C44	C	1.989871	0.364753	0.499902
C45	C	1.479904	-0.510195	-0.000136
C46	C	1.979904	-0.010195	0.499864
C47	C	1.482672	-0.405873	-0.000125
C48	C	1.982672	0.094127	0.499875
C49	C	1.484887	-0.322725	-0.000116
C50	C	1.984887	0.177275	0.499884
C51	C	1.487656	-0.218396	-0.000108
C52	C	1.987656	0.281604	0.499892
C53	C	1.713377	0.130436	-0.000130
C54	C	2.213377	0.630436	0.499870
C55	C	1.852794	0.133147	-0.000149
C56	C	2.352794	0.633147	0.499851
C57	C	1.474999	0.304253	-0.000128
C58	C	1.974999	0.804253	0.499872
C59	C	1.477707	0.406648	-0.000139
C60	C	1.977707	0.906648	0.499861
N61	N	1.483795	0.135705	0.346552
N62	N	1.983795	0.635705	0.846552
N63	N	1.483793	0.135688	-0.346777
N64	N	1.983793	0.635688	0.153223
C65	C	1.569052	0.073576	0.423205
C66	C	2.069052	0.573576	0.923205
C67	C	1.569048	0.073565	0.576542
C68	C	2.069048	0.573565	1.076542
C69	C	1.398527	0.197821	0.576560
C70	C	1.898527	0.697821	1.076560
C71	C	1.398525	0.197827	0.423226
C72	C	1.898525	0.697827	0.923226
C73	C	1.654321	0.011454	0.346531
C74	C	2.154321	0.511454	0.846531
C75	C	1.739586	-0.050679	0.423184
C76	C	2.239586	0.449321	0.923184
C77	C	1.739583	-0.050691	0.576520
C78	C	2.239583	0.449309	1.076520
C79	C	1.654315	0.011432	0.653205
C80	C	2.154315	0.511432	1.153205
H81	H	0.808569	0.453485	-0.000192
H82	H	1.308569	0.953485	0.499808
Cl83	Cl	1.291337	0.275933	0.326860
Cl84	Cl	1.791337	0.775933	0.826860
Cl85	Cl	1.846764	-0.128780	0.326785
Cl86	Cl	2.346764	0.371220	0.826785
Cl87	Cl	1.249889	0.309310	-0.000102
Cl88	Cl	1.749889	0.809310	0.499898
Cl89	Cl	1.846760	-0.128807	0.672882
Cl90	Cl	2.346760	0.371193	1.172882
H91	H	1.654311	0.011412	0.778062
H92	H	2.154311	0.511412	1.278062
Cl93	Cl	0.658533	0.297783	-0.000186
Cl94	Cl	1.158533	0.797783	0.499814
H95	H	0.891782	-0.018867	-0.000135
H96	H	1.391782	0.481133	0.499865
Cl97	Cl	1.165009	-0.050840	-0.000041
Cl98	Cl	1.665009	0.449160	0.499959
H99	H	1.654334	0.011460	0.221677
H100	H	2.154334	0.511460	0.721677
H101	H	1.046228	0.458110	-0.000149
H102	H	1.546228	0.958110	0.499851
H103	H	1.329106	0.248400	0.639006
H104	H	1.829106	0.748400	1.139006
