data_functionalizedCrystal
_audit_creation_method	'MofGen! by Chris Wilmer'
_symmetry_space_group_name_H-M	'P1'
_symmetry_Int_Tables_number	1
_symmetry_cell_setting	triclinic
loop_
_symmetry_equiv_pos_as_xyz
  x,y,z
_cell_length_a	6.817900
_cell_length_b	16.417825
_cell_length_c	16.417824
_cell_angle_alpha	95.406652
_cell_angle_beta	103.385545
_cell_angle_gamma	103.385495
loop_
_atom_site_label
_atom_site_type_symbol
_atom_site_fract_x
_atom_site_fract_y
_atom_site_fract_z
V1	V	-4.025030	-0.116569	-0.261448
O2	O	-4.013072	0.004899	-0.256169
O3	O	-3.976083	-0.230461	-0.259951
O4	O	-3.976092	-0.115084	-0.375342
O5	O	-4.013063	-0.111276	-0.139979
V6	V	-4.508799	-0.102004	-0.246884
O7	O	-4.285750	-0.148519	-0.293396
O8	O	-4.698277	-0.070053	-0.214937
O9	O	-4.334540	0.011888	-0.248382
O10	O	-4.638155	-0.223472	-0.252163
O11	O	-4.638163	-0.107296	-0.368354
O12	O	-4.334531	-0.103488	-0.132990
C13	C	-3.820968	-0.258216	-0.255901
C14	C	-3.862231	-0.351326	-0.255436
C15	C	-3.917384	-0.553386	-0.177647
C16	C	-3.956178	-0.640875	-0.177217
C17	C	-4.035825	-0.665186	-0.330694
C18	C	-3.997046	-0.577700	-0.331124
C19	C	-3.937815	-0.521802	-0.254598
C20	C	-4.015388	-0.696776	-0.253738
C21	C	-4.057450	-0.791635	-0.253271
C22	C	-3.895754	-0.426937	-0.255064
C23	C	-3.820978	-0.111040	-0.403094
C24	C	-3.862245	-0.110580	-0.496205
C25	C	-3.997043	-0.186241	-0.722581
C26	C	-4.035832	-0.185802	-0.810068
C27	C	-3.956161	-0.032325	-0.785740
C28	C	-3.917387	-0.032764	-0.698255
C29	C	-3.937820	-0.109724	-0.666678
C30	C	-4.015383	-0.108847	-0.841650
C31	C	-4.057440	-0.108371	-0.936507
C32	C	-3.895764	-0.110200	-0.571814
C33	C	-4.152996	0.039639	-0.252429
C34	C	-4.090971	0.132748	-0.252900
C35	C	-4.152987	-0.107535	-0.105234
C36	C	-4.090958	-0.107991	-0.012123
H37	H	-3.869156	-0.507876	-0.115335
O38	O	-4.093420	-0.719371	-0.405106
C39	C	-4.103092	-0.672729	-0.473117
H40	H	-4.127011	-0.608287	-0.452382
H41	H	-3.950967	-0.663400	-0.493068
C42	C	-4.257466	-0.800582	-0.573931
C43	C	-4.286862	-0.721435	-0.548467
H44	H	-4.370817	-0.830627	-0.620412
H45	H	-4.250943	-0.832007	-0.528112
H46	H	-4.130689	-0.792796	-0.590552
H47	H	-4.413623	-0.729222	-0.531837
H48	H	-4.293410	-0.690013	-0.594285
O49	O	-3.936304	0.042358	-0.816555
C50	C	-3.983269	0.026339	-0.905760
H51	H	-3.959567	-0.038096	-0.926678
H52	H	-4.152627	0.026417	-0.933774
C53	C	-3.866922	0.174919	-0.911414
C54	C	-3.837795	0.095781	-0.937105
H55	H	-3.777195	0.217756	-0.930751
H56	H	-3.835288	0.185712	-0.851315
H57	H	-4.008059	0.174972	-0.934761
H58	H	-3.696668	0.095727	-0.913750
H59	H	-3.869402	0.084990	-0.997201
O60	O	-3.936139	-0.671412	-0.102389
C61	C	-3.875600	-0.603313	-0.034944
H62	H	-3.796391	-0.543030	-0.056293
H63	H	-4.019474	-0.594029	-0.015084
C64	C	-3.819405	-0.696938	0.066961
C65	C	-3.722103	-0.622899	0.040742
H66	H	-3.724729	-0.709020	0.113650
H67	H	-3.860199	-0.742819	0.021523
H68	H	-3.939297	-0.689192	0.083506
H69	H	-3.602230	-0.630650	0.024188
H70	H	-3.681286	-0.577020	0.086180
O71	O	-4.017226	-0.546983	-0.405867
C72	C	-4.170139	-0.501151	-0.414677
H73	H	-4.280131	-0.523460	-0.373783
H74	H	-4.090943	-0.430662	-0.393485
C75	C	-4.160476	-0.488770	-0.558394
C76	C	-4.295582	-0.516175	-0.508173
H77	H	-4.237851	-0.498034	-0.616067
H78	H	-4.057450	-0.519645	-0.552458
H79	H	-4.094490	-0.430031	-0.540724
H80	H	-4.361546	-0.574915	-0.525837
H81	H	-4.398623	-0.485310	-0.514114
H82	H	-4.013684	-0.248907	-0.696874
H83	H	-4.084057	-0.248110	-0.855582
O84	O	-3.859780	0.041647	-0.644059
C85	C	-3.850092	0.109668	-0.690689
H86	H	-3.826166	0.088944	-0.755133
H87	H	-4.002213	0.129622	-0.700015
C88	C	-3.695722	0.210462	-0.562821
C89	C	-3.666318	0.185011	-0.641970
H90	H	-3.582369	0.256939	-0.532769
H91	H	-3.702256	0.164636	-0.531406
H92	H	-3.822496	0.227085	-0.570604
H93	H	-3.539561	0.168379	-0.634186
H94	H	-3.659759	0.230836	-0.673383
