data_functionalizedCrystal
_audit_creation_method	'MofGen! by Chris Wilmer'
_symmetry_space_group_name_H-M	'P1'
_symmetry_Int_Tables_number	1
_symmetry_cell_setting	triclinic
loop_
_symmetry_equiv_pos_as_xyz
  x,y,z
_cell_length_a	16.625547
_cell_length_b	18.050590
_cell_length_c	16.625539
_cell_angle_alpha	89.966288
_cell_angle_beta	90.024822
_cell_angle_gamma	89.977571
loop_
_atom_site_label
_atom_site_type_symbol
_atom_site_fract_x
_atom_site_fract_y
_atom_site_fract_z
Zn1	Zn	1.232680	0.295659	0.455971
Zn2	Zn	1.566014	0.628993	0.789304
Zn3	Zn	1.899347	0.962326	1.122637
Zn4	Zn	1.232584	0.419857	0.321125
Zn5	Zn	1.565917	0.753190	0.654458
Zn6	Zn	1.899250	1.086524	0.987792
Zn7	Zn	1.097842	0.295685	0.321141
Zn8	Zn	1.431176	0.629018	0.654474
Zn9	Zn	1.764509	0.962352	0.987808
Zn10	Zn	1.097813	0.419812	0.455905
Zn11	Zn	1.431146	0.753145	0.789238
Zn12	Zn	1.764479	1.086479	1.122572
O13	O	1.165230	0.357753	0.388535
O14	O	1.498563	0.691087	0.721869
O15	O	1.831896	1.024420	1.055202
O16	O	1.345500	0.312142	0.438104
O17	O	1.678833	0.645476	0.771437
O18	O	2.012167	0.978809	1.104770
O19	O	1.214682	0.403415	0.208295
O20	O	1.548015	0.736748	0.541628
O21	O	1.881348	1.070082	0.874961
O22	O	1.115782	0.191757	0.339061
O23	O	1.449115	0.525090	0.672394
O24	O	1.782448	0.858424	1.005727
O25	O	1.345429	0.403390	0.339033
O26	O	1.678762	0.736723	0.672367
O27	O	2.012095	1.070057	1.005700
O28	O	1.214847	0.191738	0.438119
O29	O	1.548180	0.525071	0.771453
O30	O	1.881513	0.858405	1.104786
O31	O	1.115688	0.312186	0.208307
O32	O	1.449021	0.645520	0.541640
O33	O	1.782354	0.978853	0.874973
O34	O	0.985006	0.312143	0.338997
O35	O	1.318339	0.645476	0.672330
O36	O	1.651673	0.978809	1.005664
O37	O	1.115731	0.403313	0.568746
O38	O	1.449064	0.736646	0.902079
O39	O	1.782398	1.069980	1.235413
O40	O	0.984984	0.403338	0.438007
O41	O	1.318317	0.736671	0.771341
O42	O	1.651651	1.070005	1.104674
O43	O	1.214818	0.312099	0.568794
O44	O	1.548151	0.645432	0.902128
O45	O	1.881485	0.978765	1.235461
O46	O	1.214653	0.523776	0.338970
O47	O	1.547986	0.857109	0.672303
O48	O	1.881320	1.190442	1.005636
O49	O	1.115637	0.523742	0.437992
O50	O	1.448971	0.857076	0.771325
O51	O	1.782304	1.190409	1.104659
C52	C	0.955739	0.357739	0.388497
C53	C	1.289072	0.691072	0.721831
C54	C	1.622405	1.024406	1.055164
C55	C	0.866118	0.357751	0.388500
C56	C	1.199451	0.691084	0.721833
C57	C	1.532784	1.024417	1.055167
C58	C	0.793335	0.357752	0.388510
C59	C	1.126669	0.691085	0.721843
C60	C	1.460002	1.024419	1.055177
C61	C	0.702027	0.357756	0.388530
C62	C	1.035360	0.691089	0.721864
C63	C	1.368693	1.024423	1.055197
C64	C	0.629250	0.357763	0.388551
C65	C	0.962584	0.691096	0.721884
C66	C	1.295917	1.024429	1.055217
C67	C	0.537936	0.357768	0.388570
C68	C	0.871269	0.691101	0.721903
C69	C	1.204603	1.024435	1.055237
C70	C	1.165153	0.550705	0.388490
C71	C	1.498487	0.884039	0.721823
C72	C	1.831820	1.217372	1.055156
C73	C	1.165194	0.633251	0.388497
C74	C	1.498528	0.966585	0.721830
C75	C	1.831861	1.299918	1.055164
C76	C	1.219136	0.832693	0.334710
C77	C	1.552470	1.166026	0.668043
C78	C	1.885803	1.499360	1.001376
C79	C	1.238830	0.882024	0.408297
C80	C	1.572163	1.215357	0.741631
C81	C	1.905496	1.548690	1.074964
C82	C	1.165229	0.784382	0.388518
C83	C	1.498562	1.117715	0.721852
C84	C	1.831895	1.451048	1.055185
C85	C	1.145606	0.882132	0.314953
C86	C	1.478940	1.215466	0.648286
C87	C	1.812273	1.548799	0.981620
C88	C	1.165264	0.930367	0.388532
C89	C	1.498597	1.263700	0.721866
C90	C	1.831930	1.597033	1.055199
C91	C	1.184960	0.832625	0.462145
C92	C	1.518294	1.165958	0.795478
C93	C	1.851627	1.499292	1.128812
C94	C	1.091703	0.832730	0.368751
C95	C	1.425036	1.166063	0.702084
C96	C	1.758369	1.499396	1.035418
C97	C	1.111368	0.882038	0.442389
C98	C	1.444702	1.215371	0.775723
C99	C	1.778035	1.548705	1.109056
C100	C	1.165211	0.700283	0.388509
C101	C	1.498544	1.033617	0.721842
C102	C	1.831877	1.366950	1.055176
C103	C	1.165282	1.014463	0.388550
C104	C	1.498615	1.347797	0.721883
C105	C	1.831948	1.681130	1.055217
C106	C	1.375539	0.357768	0.388574
C107	C	1.708872	0.691102	0.721907
C108	C	2.042205	1.024435	1.055241
C109	C	1.465160	0.357775	0.388591
C110	C	1.798493	0.691108	0.721924
C111	C	2.131826	1.024441	1.055257
C112	C	1.165282	0.357698	0.598844
C113	C	1.498615	0.691031	0.932178
C114	C	1.831949	1.024365	1.265511
C115	C	1.165304	0.357674	0.688466
C116	C	1.498638	0.691008	1.021799
C117	C	1.831971	1.024341	1.355132
C118	C	1.165310	1.164048	0.388581
C119	C	1.498643	1.497381	0.721915
C120	C	1.831976	1.830714	1.055248
C121	C	1.165296	1.081502	0.388555
C122	C	1.498629	1.414835	0.721888
C123	C	1.831962	1.748169	1.055222
C124	C	1.165224	0.357755	0.179045
C125	C	1.498557	0.691088	0.512378
C126	C	1.831890	1.024422	0.845711
C127	C	1.165358	0.357569	0.089424
C128	C	1.498691	0.690903	0.422757
C129	C	1.832024	1.024236	0.756091
C130	C	1.165342	0.357591	1.016641
C131	C	1.498675	0.690925	1.349975
C132	C	1.832008	1.024258	1.683308
C133	C	1.165329	0.357617	0.925333
C134	C	1.498662	0.690950	1.258666
C135	C	1.831996	1.024283	1.592000
C136	C	1.165323	0.357633	0.852556
C137	C	1.498657	0.690967	1.185890
C138	C	1.831990	1.024300	1.519223
C139	C	1.165310	0.357658	0.761242
C140	C	1.498643	0.690991	1.094575
C141	C	1.831977	1.024324	1.427909
H142	H	1.264744	0.811026	0.289257
H143	H	1.598077	1.144359	0.622590
H144	H	1.931411	1.477692	0.955923
H145	H	1.128995	0.903878	0.252734
H146	H	1.462329	1.237211	0.586067
H147	H	1.795662	1.570545	0.919401
H148	H	1.301024	0.903679	0.425028
H149	H	1.634358	1.237012	0.758361
H150	H	1.967691	1.570345	1.091695
N151	N	1.051008	0.910558	0.502747
N152	N	1.384342	1.243891	0.836080
N153	N	1.717675	1.577224	1.169413
H154	H	1.051015	0.966509	0.502099
H155	H	1.384348	1.299842	0.835433
H156	H	1.717682	1.633175	1.168766
H157	H	0.995650	0.891777	0.488277
H158	H	1.328983	1.225110	0.821611
H159	H	1.662317	1.558443	1.154944
N160	N	1.009342	0.804020	0.346567
N161	N	1.342676	1.137353	0.679900
N162	N	1.676009	1.470686	1.013233
H163	H	0.994554	0.821997	0.290951
H164	H	1.327887	1.155331	0.624285
H165	H	1.661220	1.488664	0.957618
H166	H	1.009875	0.748074	0.347294
H167	H	1.343209	1.081407	0.680627
H168	H	1.676542	1.414740	1.013960
H169	H	1.201510	0.810972	0.524417
H170	H	1.534843	1.144305	0.857751
H171	H	1.868176	1.477638	1.191084
