data_functionalizedCrystal
_audit_creation_method	'MofGen! by Chris Wilmer'
_symmetry_space_group_name_H-M	'P1'
_symmetry_Int_Tables_number	1
_symmetry_cell_setting	triclinic
loop_
_symmetry_equiv_pos_as_xyz
  x,y,z
_cell_length_a	6.817900
_cell_length_b	12.200722
_cell_length_c	10.992410
_cell_angle_alpha	92.443929
_cell_angle_beta	108.764651
_cell_angle_gamma	107.140920
loop_
_atom_site_label
_atom_site_type_symbol
_atom_site_fract_x
_atom_site_fract_y
_atom_site_fract_z
V1	V	-4.105840	-0.158713	-0.400730
V2	V	-3.605840	0.341287	0.099270
O3	O	-4.072780	0.007627	-0.392961
O4	O	-3.572780	0.507627	0.107039
O5	O	-4.075155	-0.314701	-0.398124
O6	O	-3.575155	0.185299	0.101876
O7	O	-4.083562	-0.156272	-0.575440
O8	O	-3.583562	0.343728	-0.075440
O9	O	-4.064315	-0.151899	-0.214417
O10	O	-3.564315	0.348101	0.285583
V11	V	-4.583788	-0.138817	-0.378429
V12	V	-4.083788	0.361183	0.121571
O13	O	-4.379328	-0.202357	-0.449648
O14	O	-3.879328	0.297643	0.050352
O15	O	-4.760497	-0.095173	-0.329510
O16	O	-4.260497	0.404827	0.170490
O17	O	-4.391266	0.017171	-0.381034
O18	O	-3.891266	0.517171	0.118966
O19	O	-4.734245	-0.305156	-0.386197
O20	O	-4.234245	0.194844	0.113803
O21	O	-4.742709	-0.145630	-0.564741
O22	O	-4.242709	0.354370	-0.064741
O23	O	-4.382860	-0.141258	-0.203718
O24	O	-3.882860	0.358742	0.296282
C25	C	-3.923620	-0.352728	-0.391837
C26	C	-3.423620	0.147272	0.108163
C27	C	-3.979993	-0.480250	-0.390871
C28	C	-3.479993	0.019750	0.109129
C29	C	-4.025765	-0.583811	-0.390075
C30	C	-3.525765	-0.083811	0.109925
C31	C	-4.083210	-0.713733	-0.389082
C32	C	-3.583210	-0.213733	0.110918
C33	C	-3.934342	-0.150634	-0.618020
C34	C	-3.434342	0.349366	-0.118020
C35	C	-3.997528	-0.149670	-0.760847
C36	C	-3.497528	0.350330	-0.260847
C37	C	-3.865116	-0.140887	-0.955963
C38	C	-3.365116	0.359113	-0.455963
C39	C	-3.799487	-0.142365	-0.807481
C40	C	-3.299487	0.357635	-0.307481
C41	C	-4.189552	-0.262776	-0.838049
C42	C	-3.689552	0.237224	-0.338049
C43	C	-4.253918	-0.261775	-0.986614
C44	C	-3.753918	0.238225	-0.486614
C45	C	-4.143287	-0.042761	-0.948394
C46	C	-3.643287	0.457239	-0.448394
C47	C	-4.072606	-0.042225	-0.799381
C48	C	-3.572606	0.457775	-0.299381
C49	C	-4.206143	0.055192	-0.387318
C50	C	-3.706143	0.555192	0.112682
C51	C	-4.129010	0.182713	-0.388292
C52	C	-3.629010	0.682713	0.111708
C53	C	-4.195421	-0.146900	-0.161132
C54	C	-3.695421	0.353100	0.338868
C55	C	-4.111473	-0.147858	-0.018303
C56	C	-3.611473	0.352142	0.481697
H57	H	-3.655341	-0.061037	-0.754070
H58	H	-3.155341	0.438963	-0.254070
H59	H	-4.435399	-0.271611	-1.029254
H60	H	-3.935399	0.228389	-0.529254
H61	H	-3.836178	-0.216400	-1.004020
H62	H	-3.336178	0.283600	-0.504020
H63	H	-4.214789	-0.040897	-0.766868
H64	H	-3.714789	0.459103	-0.266868
H65	H	-3.752250	-0.059000	-0.974722
H66	H	-3.252250	0.441000	-0.474722
H67	H	-4.234140	-0.341352	-1.032953
H68	H	-3.734140	0.158648	-0.532953
H69	H	-3.933785	0.041446	-0.746951
H70	H	-3.433785	0.541446	-0.246951
H71	H	-3.738251	-0.218926	-0.782732
H72	H	-3.238251	0.281074	-0.282732
H73	H	-4.322053	-0.046872	-0.989238
H74	H	-3.822053	0.453128	-0.489238
H75	H	-4.139564	-0.342548	-0.812512
H76	H	-3.639564	0.157452	-0.312512
H77	H	-4.339428	-0.272205	-0.809253
H78	H	-3.839428	0.227795	-0.309253
H79	H	-4.044923	0.043129	-0.968679
H80	H	-3.544923	0.543129	-0.468679
