data_functionalizedCrystal
_audit_creation_method	'MofGen! by Chris Wilmer'
_symmetry_space_group_name_H-M	'P1'
_symmetry_Int_Tables_number	1
_symmetry_cell_setting	triclinic
loop_
_symmetry_equiv_pos_as_xyz
  x,y,z
_cell_length_a	14.628931
_cell_length_b	18.426585
_cell_length_c	18.426585
_cell_angle_alpha	90.000197
_cell_angle_beta	119.998668
_cell_angle_gamma	60.001356
loop_
_atom_site_label
_atom_site_type_symbol
_atom_site_fract_x
_atom_site_fract_y
_atom_site_fract_z
Zr1	Zr	1.000611	0.699114	0.095254
O2	O	1.191304	0.583240	0.211128
O3	O	0.809909	0.734635	0.059733
O4	O	1.000606	0.734638	0.211131
O5	O	1.000613	0.583234	-0.059697
O6	O	1.000613	0.854064	0.211134
O7	O	1.000606	0.583237	0.059729
O8	O	0.659490	0.854058	-0.059690
O9	O	1.341736	0.583240	0.211128
O10	O	0.888355	0.838911	0.044585
O11	O	0.888355	0.749783	-0.044543
O12	O	1.112877	0.749787	0.133710
O13	O	1.112877	0.660659	0.044581
Zr14	Zr	1.000631	0.889580	-0.095211
Zr15	Zr	1.000621	0.889584	0.095259
Zr16	Zr	1.000621	0.699110	-0.095216
Zr17	Zr	1.240532	0.699114	0.095254
Zr18	Zr	0.760709	0.889580	-0.095212
O19	O	1.191333	0.854059	-0.059690
O20	O	1.191318	0.854065	0.211135
O21	O	1.191318	0.583235	-0.059697
O22	O	0.809938	1.005454	-0.211085
O23	O	0.809923	1.005460	0.059739
O24	O	0.809923	0.734630	-0.211092
O25	O	1.000629	1.005460	0.059740
O26	O	1.000635	0.854056	-0.211089
O27	O	1.000629	0.734630	-0.211092
O28	O	1.000635	1.005457	-0.059686
O29	O	1.341744	0.734639	0.211132
O30	O	0.659498	0.854055	-0.211089
O31	O	0.659506	1.005454	-0.211085
O32	O	0.659498	1.005457	-0.059687
O33	O	1.341744	0.583237	0.059729
O34	O	1.341752	0.734636	0.059733
O35	O	0.888365	0.838907	-0.133667
O36	O	0.888365	0.928035	-0.044538
O37	O	1.112886	0.838911	0.044586
O38	O	1.112886	0.749783	-0.044543
C39	C	0.700516	0.794347	0.000021
C40	C	0.598663	0.794347	0.000021
C41	C	1.000608	0.556098	0.000015
C42	C	1.000604	0.475238	0.000013
C43	C	0.553253	0.838560	0.044235
C44	C	0.447983	0.838561	0.044235
C45	C	1.000643	0.179123	0.000029
C46	C	1.000637	0.261509	0.000027
C47	C	1.000623	0.327178	0.000022
C48	C	1.000618	0.409569	0.000018
C49	C	1.300726	0.794347	0.000022
C50	C	1.402579	0.794348	0.000022
C51	C	1.000608	0.794352	0.238271
C52	C	1.000604	0.794354	0.319131
C53	C	1.000634	1.032597	0.000027
C54	C	1.000638	1.113456	0.000029
C55	C	1.000599	0.794355	0.384797
C56	C	1.000604	0.794355	0.467183
C57	C	1.000618	0.794351	0.532852
C58	C	1.000624	0.794350	0.615243
C59	C	1.000634	0.794344	0.761772
C60	C	1.000638	0.794346	0.680912
C61	C	0.700528	1.032596	0.000027
C62	C	0.598680	1.113456	0.000029
C63	C	0.700528	0.794342	-0.238229
C64	C	0.598680	0.794340	-0.319088
C65	C	0.700541	1.032591	-0.238222
C66	C	0.598697	1.113449	-0.319080
C67	C	1.300701	0.556103	0.238265
C68	C	1.402545	0.475245	0.319123
C69	C	1.300713	0.556098	0.000016
C70	C	1.402562	0.475238	0.000014
C71	C	1.300713	0.794352	0.238271
C72	C	1.402562	0.794354	0.319131
C73	C	0.550845	1.104906	0.046560
C74	C	0.455161	1.180875	0.046579
C75	C	0.407306	1.265393	0.000063
C76	C	0.455150	1.273941	-0.046470
C77	C	0.550839	1.197973	-0.046483
C78	C	0.550855	0.840861	-0.403591
C79	C	0.455171	0.840856	-0.479574
C80	C	0.407306	0.794335	-0.471054
C81	C	0.455140	0.747808	-0.386543
C82	C	0.550829	0.747808	-0.310561
C83	C	0.550870	1.197953	-0.310528
C84	C	0.455189	1.273935	-0.386495
C85	C	0.407331	1.265411	-0.471014
C86	C	0.455168	1.180899	-0.479565
C87	C	0.550853	1.104919	-0.403598
C88	C	1.450384	0.390741	0.310571
C89	C	1.546094	0.314759	0.386538
C90	C	1.593957	0.323283	0.471057
C91	C	1.546114	0.407795	0.479607
C92	C	1.450412	0.483775	0.403641
C93	C	1.450406	0.483788	-0.046509
C94	C	1.546117	0.407819	-0.046508
C95	C	1.593975	0.323301	0.000012
C96	C	1.546127	0.314754	0.046540
C97	C	1.450425	0.390722	0.046544
C98	C	1.450396	0.840885	0.310582
C99	C	1.546081	0.840904	0.386551
C100	C	1.593937	0.794386	0.471068
C101	C	1.546093	0.747854	0.479616
C102	C	1.450403	0.747841	0.403648
H103	H	0.592305	0.876417	0.082084
H104	H	0.416172	1.342765	-0.084342
H105	H	0.559602	0.756497	-0.037833
H106	H	1.411467	0.709946	0.410621
H107	H	1.585031	0.245953	0.379558
H108	H	0.589808	1.036095	0.084450
H109	H	0.416154	0.709931	-0.379618
H110	H	0.589782	1.036115	-0.410574
H111	H	0.329390	0.794342	-0.532930
H112	H	0.408938	0.876410	0.082093
H113	H	1.411419	0.383784	0.241758
H114	H	0.416218	1.173898	0.084471
H115	H	1.411463	0.552580	0.410615
H116	H	1.671902	0.261450	0.000002
H117	H	1.411473	0.383748	0.084425
H118	H	1.585026	0.878794	0.379574
H119	H	0.329389	1.327244	0.000080
H120	H	0.329418	1.327286	-0.532863
H121	H	0.441629	0.756489	-0.037829
H122	H	0.589821	1.204910	-0.241715
H123	H	0.589773	1.204946	-0.084379
H124	H	0.589816	0.878745	-0.410546
H125	H	0.416236	0.878747	-0.548380
H126	H	0.589755	0.709928	-0.241758
H127	H	1.411447	0.552599	-0.084397
H128	H	1.585108	0.245929	0.084415
H129	H	1.671854	0.794404	0.532920
H130	H	1.411448	0.878765	0.241770
H131	H	0.416250	1.342742	-0.379517
H132	H	1.671883	0.261408	0.532906
H133	H	1.585096	0.414725	0.548431
H134	H	0.416188	1.173972	-0.548390
H135	H	1.585059	0.414796	-0.084400
H136	H	1.585071	0.709981	0.548440
