data_functionalizedCrystal
_audit_creation_method	'MofGen! by Chris Wilmer'
_symmetry_space_group_name_H-M	'P1'
_symmetry_Int_Tables_number	1
_symmetry_cell_setting	triclinic
loop_
_symmetry_equiv_pos_as_xyz
  x,y,z
_cell_length_a	11.026607
_cell_length_b	11.026607
_cell_length_c	9.730223
_cell_angle_alpha	90.002448
_cell_angle_beta	90.002620
_cell_angle_gamma	108.586017
loop_
_atom_site_label
_atom_site_type_symbol
_atom_site_fract_x
_atom_site_fract_y
_atom_site_fract_z
O1	O	1.726731	0.533623	0.114287
O2	O	1.360151	0.472859	0.114289
O3	O	1.513059	0.319951	0.114283
O4	O	1.573823	0.686531	0.114292
O5	O	1.513046	0.319943	-0.114297
O6	O	1.360137	0.472851	-0.114291
O7	O	1.726717	0.533615	-0.114293
Zn8	Zn	1.543425	0.503232	-0.150584
Zn9	Zn	1.543443	0.503242	0.150580
O10	O	1.573809	0.686523	-0.114288
C11	C	1.312485	0.461645	-0.000001
C12	C	1.170471	0.428228	-0.000000
C13	C	1.501843	0.272287	-0.000005
C14	C	1.468426	0.130273	-0.000000
C15	C	1.116821	0.520498	0.000003
C16	C	0.970043	0.485962	0.000004
C17	C	1.560695	0.076624	0.000001
C18	C	1.526160	-0.070155	0.000006
C19	C	1.774384	0.544828	-0.000001
C20	C	1.916398	0.578245	0.000007
C21	C	1.585026	0.734187	0.000004
C22	C	1.618443	0.876200	0.000008
N23	N	1.543422	0.503226	-0.356121
C24	C	1.611167	0.435561	-0.428049
C25	C	1.611180	0.435564	-0.571932
C26	C	1.475701	0.570907	-0.571945
C27	C	1.475682	0.570896	-0.428065
N28	N	1.543454	0.503240	0.356116
H29	H	1.179555	0.625061	-0.000002
H30	H	1.421590	-0.132884	0.000016
H31	H	1.420510	0.625996	-0.369497
H32	H	1.363863	0.067540	0.000009
H33	H	0.907314	0.381393	0.000037
H34	H	1.420550	0.626005	-0.630537
H35	H	1.723013	-0.061072	0.000110
H36	H	1.666323	0.380457	-0.369476
H37	H	0.979125	0.682816	0.000001
H38	H	1.666342	0.380463	-0.630493
H39	H	1.107738	0.323666	0.000032
H40	H	1.665258	0.139357	-0.000008
