data_functionalizedCrystal
_audit_creation_method	'MofGen! by Chris Wilmer'
_symmetry_space_group_name_H-M	'P1'
_symmetry_Int_Tables_number	1
_symmetry_cell_setting	triclinic
loop_
_symmetry_equiv_pos_as_xyz
  x,y,z
_cell_length_a	10.908937
_cell_length_b	14.472310
_cell_length_c	11.026607
_cell_angle_alpha	89.996986
_cell_angle_beta	84.335986
_cell_angle_gamma	90.013835
loop_
_atom_site_label
_atom_site_type_symbol
_atom_site_fract_x
_atom_site_fract_y
_atom_site_fract_z
O1	O	1.662463	0.076869	-0.179070
O2	O	1.309530	0.076864	-0.088533
O3	O	1.456746	0.076863	-0.304552
O4	O	1.515247	0.076870	0.036949
O5	O	1.456700	-0.076819	-0.304532
O6	O	1.309484	-0.076818	-0.088513
O7	O	1.662416	-0.076813	-0.179050
Cu8	Cu	1.485946	-0.090848	-0.133780
Cu9	Cu	1.486001	0.090899	-0.133803
O10	O	1.515201	-0.076812	0.036969
C11	C	1.263622	0.000023	-0.080062
C12	C	1.126895	0.000021	-0.054865
N13	N	1.485916	-0.218679	-0.133765
C14	C	0.915317	0.000036	-0.120775
C15	C	1.056631	0.000024	-0.146820
C16	C	1.485998	-0.592770	-0.133808
C17	C	1.406814	-0.553603	-0.018472
C18	C	1.407127	-0.446515	-0.018173
C19	C	1.485956	-0.407179	-0.133786
C20	C	1.620078	-0.446013	-0.133196
C21	C	1.619665	-0.553135	-0.132407
C22	C	1.432138	-0.553302	-0.250246
C23	C	1.429389	-0.446175	-0.248842
C24	C	1.485941	-0.302291	-0.133778
C25	C	1.486023	-0.697658	-0.133815
C26	C	1.708325	0.000031	-0.187521
C27	C	1.845052	0.000039	-0.212718
C28	C	1.445930	0.000023	-0.347575
C29	C	1.413757	0.000026	-0.475796
N30	N	1.486038	0.218730	-0.133829
C31	C	1.502592	0.000028	-0.567529
C32	C	1.469342	0.000031	-0.700053
C33	C	1.526016	0.000031	0.079992
C34	C	1.558189	0.000034	0.208213
H35	H	0.870855	0.000047	-0.022779
C36	C	1.638595	0.000028	-0.541095
C37	C	1.689107	-0.079776	-0.468193
C38	C	1.825113	-0.079776	-0.441763
C39	C	1.910607	0.000028	-0.488233
C40	C	1.860096	0.079838	-0.561139
C41	C	1.724090	0.079838	-0.587570
H42	H	1.625819	-0.138857	-0.433789
H43	H	1.862505	-0.138858	-0.387793
H44	H	2.011287	0.000028	-0.468668
H45	H	1.923384	0.138920	-0.595543
H46	H	1.686698	0.138920	-0.641540
H47	H	1.101088	0.000023	-0.244824
H48	H	1.368665	0.000036	-0.719623
C49	C	1.694202	0.000034	-0.765369
C50	C	1.744722	-0.079770	-0.692473
C51	C	1.880732	-0.079770	-0.666056
C52	C	1.966222	0.000034	-0.712535
C53	C	1.915702	0.079845	-0.785435
C54	C	1.779692	0.079844	-0.811852
H55	H	1.681437	-0.138852	-0.658063
H56	H	1.918130	-0.138851	-0.612090
H57	H	2.066904	0.000035	-0.692979
H58	H	1.978988	0.138926	-0.819845
H59	H	1.742295	0.138926	-0.865818
H60	H	1.663577	-0.419174	-0.050189
H61	H	1.082440	0.000029	0.043139
H62	H	1.313087	0.000030	-0.495373
C63	C	1.273664	-0.411039	-0.013470
C64	C	1.166053	-0.480182	-0.009964
C65	C	1.032583	-0.444712	-0.005250
C66	C	1.006726	-0.340099	-0.004041
C67	C	1.114340	-0.270949	-0.007547
C68	C	1.247810	-0.306420	-0.012262
H69	H	1.185191	-0.557629	-0.010859
H70	H	0.952920	-0.495901	-0.002654
H71	H	0.907924	-0.313842	-0.000551
H72	H	1.095202	-0.193503	-0.006653
H73	H	1.327473	-0.255230	-0.014858
H74	H	0.889514	0.000038	-0.310715
C75	C	1.678003	-0.586879	-0.018753
C76	C	1.811697	-0.560427	-0.000558
C77	C	1.870033	-0.594166	0.113101
C78	C	1.794676	-0.654356	0.208565
C79	C	1.660975	-0.680811	0.190372
C80	C	1.602639	-0.647073	0.076714
H81	H	1.867488	-0.515868	-0.071228
H82	H	1.969008	-0.574581	0.126568
H83	H	1.837860	-0.679331	0.292702
H84	H	1.605184	-0.725370	0.261043
H85	H	1.503664	-0.666657	0.063247
C86	C	1.295916	-0.411880	-0.250264
C87	C	1.268979	-0.307541	-0.254371
C88	C	1.135509	-0.273234	-0.255786
C89	C	1.028974	-0.343266	-0.253095
C90	C	1.055907	-0.447611	-0.248987
C91	C	1.189378	-0.481918	-0.247572
H92	H	1.347846	-0.255694	-0.256364
H93	H	1.115571	-0.195991	-0.258827
H94	H	0.930171	-0.317870	-0.254142
H95	H	0.977041	-0.499458	-0.246995
H96	H	1.209315	-0.559161	-0.244532
C97	C	1.456780	-0.589946	0.098346
C98	C	1.373322	-0.647787	0.190120
C99	C	1.423312	-0.684131	0.306925
C100	C	1.556762	-0.662633	0.331955
C101	C	1.640228	-0.604789	0.240178
C102	C	1.590237	-0.568445	0.123373
H103	H	1.274528	-0.663704	0.171593
H104	H	1.361524	-0.726951	0.374864
H105	H	1.593768	-0.689537	0.418421
H106	H	1.739022	-0.588872	0.258705
H107	H	1.652026	-0.525624	0.055434
H108	H	1.444432	-0.420879	0.068772
H109	H	1.681915	-0.579041	-0.214482
C110	C	1.703161	-0.411587	-0.245114
C111	C	1.670574	-0.434774	-0.374403
C112	C	1.753655	-0.400346	-0.486321
C113	C	1.869323	-0.342729	-0.468952
C114	C	1.901916	-0.319538	-0.339658
C115	C	1.818835	-0.353967	-0.227739
H116	H	1.584944	-0.477429	-0.387265
H117	H	1.729527	-0.417513	-0.582033
H118	H	1.930825	-0.317242	-0.551801
H119	H	1.987546	-0.276883	-0.326795
H120	H	1.842964	-0.336799	-0.132028
C121	C	1.300814	-0.589835	-0.259653
C122	C	1.240803	-0.655986	-0.161714
C123	C	1.109477	-0.692520	-0.171104
C124	C	1.038163	-0.662904	-0.278433
C125	C	1.098174	-0.596750	-0.376380
C126	C	1.229500	-0.560216	-0.366989
H127	H	1.293594	-0.677912	-0.082255
H128	H	1.065054	-0.741491	-0.098597
H129	H	0.940949	-0.689948	-0.285384
H130	H	1.045383	-0.574823	-0.455838
H131	H	1.273923	-0.511244	-0.439497
H132	H	1.481167	-0.419402	-0.336692
H133	H	1.307772	-0.579393	-0.014691
H134	H	1.489555	-0.578629	-0.335771
