data_functionalizedCrystal
_audit_creation_method	'MofGen! by Chris Wilmer'
_symmetry_space_group_name_H-M	'P1'
_symmetry_Int_Tables_number	1
_symmetry_cell_setting	triclinic
loop_
_symmetry_equiv_pos_as_xyz
  x,y,z
_cell_length_a	6.817900
_cell_length_b	11.102289
_cell_length_c	10.943624
_cell_angle_alpha	91.861746
_cell_angle_beta	108.838799
_cell_angle_gamma	108.605707
loop_
_atom_site_label
_atom_site_type_symbol
_atom_site_fract_x
_atom_site_fract_y
_atom_site_fract_z
V1	V	-4.114282	-0.175806	-0.402551
O2	O	-4.073263	0.008482	-0.394888
O3	O	-4.091041	-0.348626	-0.399798
O4	O	-4.092264	-0.173086	-0.578117
O5	O	-4.072031	-0.168273	-0.215334
V6	V	-4.591232	-0.153765	-0.380158
O7	O	-4.389960	-0.224155	-0.451671
O8	O	-4.765752	-0.105415	-0.331038
O9	O	-4.391267	0.019056	-0.382912
O10	O	-4.749649	-0.338053	-0.387821
O11	O	-4.750880	-0.161298	-0.567375
O12	O	-4.390044	-0.156484	-0.204592
C13	C	-3.941308	-0.390757	-0.393447
C14	C	-4.003768	-0.532039	-0.392366
C15	C	-4.217163	-0.604887	-0.398299
C16	C	-4.275844	-0.737639	-0.397294
C17	C	-3.907711	-0.724682	-0.384419
C18	C	-3.849038	-0.591934	-0.385432
C19	C	-4.429699	-0.612368	-0.405727
C20	C	-4.488380	-0.745120	-0.404723
C21	C	-3.942867	-0.166837	-0.620910
C22	C	-4.006314	-0.165757	-0.764437
C23	C	-3.851194	-0.158485	-0.841584
C24	C	-4.039808	-0.266416	-0.947574
C25	C	-3.930779	-0.055914	-0.914187
C26	C	-4.194138	-0.273789	-0.868550
C27	C	-4.085029	-0.063191	-0.835140
C28	C	-4.273779	-0.171153	-0.941100
C29	C	-4.204342	0.061180	-0.389259
C30	C	-4.121122	0.202461	-0.390348
C31	C	-4.202783	-0.162738	-0.161792
C32	C	-4.118573	-0.163811	-0.018265
H33	H	-4.539085	-0.770096	-0.316529
O34	O	-4.106608	0.039448	-0.776720
C35	C	-3.966655	0.154070	-0.799230
H36	H	-3.826340	0.134684	-0.821510
H37	H	-4.065376	0.190442	-0.885774
C38	C	-4.042300	0.280139	-0.649454
C39	C	-3.869952	0.256331	-0.676807
H40	H	-3.982656	0.343222	-0.573941
H41	H	-4.136597	0.202917	-0.634291
H42	H	-4.124553	0.310443	-0.721583
H43	H	-3.787720	0.226013	-0.604686
H44	H	-3.775639	0.333551	-0.691955
H45	H	-3.675284	-0.532628	-0.380616
H46	H	-4.429145	-0.559149	-0.314695
O47	O	-3.798373	0.053917	-0.938742
C48	C	-3.576607	0.060146	-0.887895
H49	H	-3.556373	-0.001752	-0.806820
H50	H	-3.529867	0.023190	-0.968980
C51	C	-3.449685	0.276510	-0.931917
C52	C	-3.424830	0.200494	-0.832332
H53	H	-3.356058	0.363083	-0.897648
H54	H	-3.599093	0.272312	-0.966179
H55	H	-3.410737	0.245698	-0.999480
H56	H	-3.463803	0.231297	-0.764780
H57	H	-3.275424	0.204700	-0.798058
H58	H	-4.453056	-0.176535	-0.984345
H59	H	-4.021353	-0.352332	-0.996523
O60	O	-4.326004	-0.383723	-0.843825
C61	C	-4.264084	-0.383451	-0.707777
H62	H	-4.085361	-0.316826	-0.657681
H63	H	-4.376578	-0.348199	-0.669891
C64	C	-4.505422	-0.602603	-0.739542
C65	C	-4.285905	-0.520781	-0.678014
H66	H	-4.518890	-0.687315	-0.721182
H67	H	-4.547145	-0.602786	-0.831201
H68	H	-4.599142	-0.573210	-0.707964
H69	H	-4.192192	-0.550165	-0.709605
H70	H	-4.244166	-0.520607	-0.586360
H71	H	-4.542207	-0.593140	-0.499624
O72	O	-3.757372	-0.782889	-0.377446
C73	C	-3.722402	-0.842089	-0.264158
H74	H	-3.768674	-0.793719	-0.189599
H75	H	-3.829423	-0.948332	-0.290523
C76	C	-3.420295	-0.887986	-0.297086
C77	C	-3.477110	-0.828570	-0.205507
H78	H	-3.268990	-0.879653	-0.260909
H79	H	-3.443859	-0.848107	-0.373413
H80	H	-3.509497	-0.976517	-0.319049
H81	H	-3.387928	-0.740038	-0.183558
H82	H	-3.453525	-0.868434	-0.129174
O83	O	-3.637345	-0.152039	-0.789637
C84	C	-3.513991	-0.040377	-0.696122
H85	H	-3.600277	0.033280	-0.717158
H86	H	-3.500564	-0.065978	-0.594403
C87	C	-3.174846	-0.073786	-0.677127
C88	C	-3.280815	0.016685	-0.702970
H89	H	-3.031008	-0.038589	-0.681345
H90	H	-3.257951	-0.149018	-0.740126
H91	H	-3.163679	-0.095112	-0.592362
H92	H	-3.292005	0.037998	-0.787740
H93	H	-3.197706	0.091922	-0.639985
H94	H	-4.620843	-0.802979	-0.500372
