data_functionalizedCrystal
_audit_creation_method	'MofGen! by Chris Wilmer'
_symmetry_space_group_name_H-M	'P1'
_symmetry_Int_Tables_number	1
_symmetry_cell_setting	triclinic
loop_
_symmetry_equiv_pos_as_xyz
  x,y,z
_cell_length_a	14.044220
_cell_length_b	14.044220
_cell_length_c	12.503572
_cell_angle_alpha	86.164750
_cell_angle_beta	86.156832
_cell_angle_gamma	86.811122
loop_
_atom_site_label
_atom_site_type_symbol
_atom_site_fract_x
_atom_site_fract_y
_atom_site_fract_z
O1	O	0.225116	-1.282200	0.089210
O2	O	0.216809	-1.005530	0.089237
O3	O	0.082627	-1.139712	0.089213
O4	O	0.359298	-1.148019	0.089234
O5	O	0.092737	-1.129622	-0.089427
O6	O	0.226918	-0.995440	-0.089403
O7	O	0.235226	-1.272110	-0.089430
Cu8	Cu	0.231995	-1.132854	-0.105728
Cu9	Cu	0.220040	-1.144786	0.105535
O10	O	0.369407	-1.137929	-0.089406
C11	C	0.052060	-1.131031	-0.000107
C12	C	-0.054082	-1.120187	-0.000107
C13	C	0.218228	-0.964864	-0.000080
C14	C	0.207383	-0.858721	-0.000070
C15	C	0.233807	-1.312777	-0.000111
C16	C	0.244651	-1.418920	-0.000114
C17	C	-0.248421	-1.100361	-0.000090
C18	C	-0.299551	-1.177275	-0.000094
C19	C	-0.407687	-1.166244	-0.000084
C20	C	-0.140274	-1.111391	-0.000099
C21	C	0.399974	-1.146609	-0.000084
C22	C	0.506117	-1.157454	-0.000077
N23	N	0.240404	-1.124469	-0.254319
C24	C	0.187558	-0.664382	-0.000092
C25	C	0.264472	-0.613253	-0.000091
C26	C	0.253441	-0.505116	-0.000104
C27	C	0.198587	-0.772529	-0.000080
C28	C	0.252782	-1.112134	-0.473432
C29	C	0.199249	-1.165511	-0.526768
C30	C	0.206136	-1.158648	-0.648690
C31	C	0.245896	-1.118996	-0.351499
N32	N	0.211624	-1.153179	0.254126
H33	H	-0.262115	-1.251413	-0.000029
F34	F	0.132893	-1.232289	-0.466773
H35	H	-0.285859	-1.026234	-0.000080
F36	F	0.090667	-0.615449	-0.000103
F37	F	0.361370	-0.662186	-0.000079
F38	F	0.319446	-1.045671	-0.533425
