data_functionalizedCrystal
_audit_creation_method	'MofGen! by Chris Wilmer'
_symmetry_space_group_name_H-M	'P1'
_symmetry_Int_Tables_number	1
_symmetry_cell_setting	triclinic
loop_
_symmetry_equiv_pos_as_xyz
  x,y,z
_cell_length_a	21.295418
_cell_length_b	19.805405
_cell_length_c	19.805407
_cell_angle_alpha	90.015038
_cell_angle_beta	90.027474
_cell_angle_gamma	90.042223
loop_
_atom_site_label
_atom_site_type_symbol
_atom_site_fract_x
_atom_site_fract_y
_atom_site_fract_z
Zn1	Zn	0.962273	-0.269289	0.383041
Zn2	Zn	1.295606	0.064045	0.716374
Zn3	Zn	1.628939	0.397378	1.049708
Zn4	Zn	0.962212	-0.382449	0.269849
Zn5	Zn	1.295546	-0.049115	0.603183
Zn6	Zn	1.628879	0.284218	0.936516
Zn7	Zn	0.857026	-0.269310	0.269830
Zn8	Zn	1.190359	0.064023	0.603163
Zn9	Zn	1.523692	0.397356	0.936496
Zn10	Zn	0.856973	-0.382472	0.382960
Zn11	Zn	1.190306	-0.049139	0.716293
Zn12	Zn	1.523639	0.284194	1.049627
O13	O	0.909621	-0.325880	0.326420
O14	O	1.242954	0.007453	0.659753
O15	O	1.576287	0.340787	0.993087
O16	O	1.050354	-0.284281	0.368068
O17	O	1.383687	0.049053	0.701401
O18	O	1.717021	0.382386	1.034735
O19	O	0.948256	-0.367440	0.175130
O20	O	1.281589	-0.034107	0.508464
O21	O	1.614923	0.299227	0.841797
O22	O	0.871034	-0.174591	0.284873
O23	O	1.204368	0.158743	0.618206
O24	O	1.537701	0.492076	0.951540
O25	O	1.050310	-0.367419	0.284907
O26	O	1.383643	-0.034086	0.618240
O27	O	1.716976	0.299248	0.951573
O28	O	0.948359	-0.174575	0.368049
O29	O	1.281692	0.158759	0.701382
O30	O	1.615025	0.492092	1.034716
O31	O	0.870976	-0.284318	0.175116
O32	O	1.204309	0.049016	0.508449
O33	O	1.537643	0.382349	0.841782
O34	O	0.768929	-0.284340	0.284794
O35	O	1.102263	0.048993	0.618128
O36	O	1.435596	0.382326	0.951461
O37	O	0.870944	-0.367459	0.477687
O38	O	1.204277	-0.034126	0.811021
O39	O	1.537611	0.299208	1.144354
O40	O	0.768890	-0.367480	0.367911
O41	O	1.102224	-0.034147	0.701244
O42	O	1.435557	0.299187	1.034578
O43	O	0.948307	-0.284303	0.477747
O44	O	1.281641	0.049030	0.811080
O45	O	1.614974	0.382363	1.144414
O46	O	0.948205	-0.477168	0.284828
O47	O	1.281538	-0.143835	0.618162
O48	O	1.614871	0.189498	0.951495
O49	O	0.870886	-0.477186	0.367930
O50	O	1.204219	-0.143852	0.701263
O51	O	1.537552	0.189481	1.034597
C52	C	0.909550	-0.501736	0.326387
C53	C	1.242883	-0.168403	0.659721
C54	C	1.576217	0.164931	0.993054
C55	C	0.909577	-0.576968	0.326396
C56	C	1.242911	-0.243635	0.659729
C57	C	1.576244	0.089699	0.993063
C58	C	0.746069	-0.325916	0.326342
C59	C	1.079402	0.007418	0.659675
C60	C	1.412736	0.340751	0.993009
C61	C	0.676101	-0.325947	0.326325
C62	C	1.009434	0.007386	0.659658
C63	C	1.342768	0.340720	0.992992
C64	C	0.949876	-0.612281	0.283170
C65	C	1.283210	-0.278947	0.616503
C66	C	1.616543	0.054386	0.949837
C67	C	0.949903	-0.682969	0.283185
C68	C	1.283237	-0.349636	0.616518
C69	C	1.616570	-0.016302	0.949852
C70	C	0.909627	-0.718344	0.326423
C71	C	1.242960	-0.385010	0.659756
C72	C	1.576294	-0.051677	0.993090
C73	C	0.869326	-0.683026	0.369654
C74	C	1.202659	-0.349693	0.702987
C75	C	1.535993	-0.016359	1.036320
C76	C	0.869303	-0.612339	0.369641
C77	C	1.202636	-0.279005	0.702975
C78	C	1.535970	0.054328	1.036308
C79	C	0.869419	-0.968099	0.369704
C80	C	1.202752	-0.634766	0.703037
C81	C	1.536086	-0.301432	1.036370
C82	C	0.869444	-1.038791	0.369711
C83	C	1.202777	-0.705458	0.703044
C84	C	1.536111	-0.372124	1.036378
C85	C	0.950019	-1.038729	0.283247
C86	C	1.283352	-0.705396	0.616581
C87	C	1.616686	-0.372063	0.949914
C88	C	0.949996	-0.968042	0.283235
C89	C	1.283329	-0.634709	0.616569
C90	C	1.616663	-0.301376	0.949902
C91	C	0.909698	-0.932731	0.326468
C92	C	1.243031	-0.599397	0.659801
C93	C	1.576364	-0.266064	0.993135
C94	C	0.909670	-0.856082	0.326452
C95	C	1.243003	-0.522749	0.659786
C96	C	1.576337	-0.189416	0.993119
C97	C	0.909651	-0.794991	0.326436
C98	C	1.242984	-0.461657	0.659769
C99	C	1.576318	-0.128324	0.993103
C100	C	0.643231	-0.369295	0.369539
C101	C	0.976564	-0.035962	0.702872
C102	C	1.309897	0.297372	1.036206
C103	C	0.577488	-0.369278	0.369569
C104	C	0.910821	-0.035945	0.702903
C105	C	1.244155	0.297388	1.036236
C106	C	0.544619	-0.325921	0.326374
C107	C	0.877952	0.007413	0.659707
C108	C	1.211285	0.340746	0.993040
C109	C	0.577497	-0.282564	0.283156
C110	C	0.910830	0.050769	0.616490
C111	C	1.244164	0.384102	0.949823
C112	C	0.643238	-0.282577	0.283132
C113	C	0.976571	0.050756	0.616465
C114	C	1.309905	0.384089	0.949799
N115	N	0.441358	-0.320618	0.267174
N116	N	0.774691	0.012716	0.600507
N117	N	1.108025	0.346049	0.933840
N118	N	0.378906	-0.320609	0.267199
N119	N	0.712240	0.012724	0.600532
N120	N	1.045573	0.346057	0.933865
C121	C	0.346544	-0.325878	0.326445
C122	C	0.679877	0.007456	0.659779
C123	C	1.013211	0.340789	0.993112
N124	N	0.378992	-0.331168	0.385667
N125	N	0.712325	0.002165	0.719001
N126	N	1.045659	0.335499	1.052334
N127	N	0.441449	-0.331180	0.385641
N128	N	0.774783	0.002153	0.718975
N129	N	1.108116	0.335487	1.052308
C130	C	0.473333	-0.325901	0.326395
C131	C	0.806667	0.007432	0.659729
C132	C	1.140000	0.340765	0.993062
C133	C	0.242388	-0.369210	0.369696
C134	C	0.575721	-0.035877	0.703029
C135	C	0.909055	0.297457	1.036363
C136	C	0.176644	-0.369189	0.369728
C137	C	0.509978	-0.035855	0.703061
C138	C	0.843311	0.297478	1.036394
C139	C	0.176654	-0.282478	0.283309
C140	C	0.509988	0.050855	0.616642
C141	C	0.843321	0.384189	0.949975
C142	C	0.242397	-0.282496	0.283283
C143	C	0.575730	0.050838	0.616617
C144	C	0.909063	0.384171	0.949950
C145	C	0.275260	-0.325865	0.326476
C146	C	0.608593	0.007468	0.659809
C147	C	0.941926	0.340801	0.993143
C148	C	1.073811	-0.325845	0.326499
C149	C	1.407144	0.007489	0.659832
C150	C	1.740478	0.340822	0.993165
C151	C	1.143779	-0.325830	0.326532
C152	C	1.477113	0.007504	0.659865
C153	C	1.810446	0.340837	0.993199
C154	C	0.909626	-0.325881	0.502963
C155	C	1.242960	0.007452	0.836296
C156	C	1.576293	0.340785	1.169629
C157	C	0.909629	-0.325882	0.578195
C158	C	1.242962	0.007452	0.911528
C159	C	1.576295	0.340785	1.244861
C160	C	0.909709	-0.149337	0.326468
C161	C	1.243042	0.183996	0.659801
C162	C	1.576376	0.517330	0.993134
C163	C	0.909747	-0.074105	0.326488
C164	C	1.243080	0.259228	0.659821
C165	C	1.576413	0.592562	0.993155
C166	C	0.949907	-0.282589	0.613571
C167	C	1.283240	0.050744	0.946904
C168	C	1.616574	0.384077	1.280238
C169	C	0.949901	-0.282587	0.684259
C170	C	1.283235	0.050746	1.017593
C171	C	1.616568	0.384079	1.350926
C172	C	0.909621	-0.325882	0.719570
C173	C	1.242954	0.007452	1.052904
C174	C	1.576287	0.340785	1.386237
C175	C	0.869338	-0.369176	0.684189
C176	C	1.202672	-0.035843	1.017522
C177	C	1.536005	0.297491	1.350856
C178	C	0.869341	-0.369174	0.613502
C179	C	1.202674	-0.035841	0.946835
C180	C	1.536008	0.297493	1.280169
C181	C	0.869326	-0.369184	0.969262
C182	C	1.202659	-0.035851	1.302596
C183	C	1.535992	0.297483	1.635929
C184	C	0.869328	-0.369184	1.039955
C185	C	1.202661	-0.035851	1.373288
C186	C	1.535994	0.297483	1.706621
C187	C	0.949886	-0.282597	1.040020
C188	C	1.283220	0.050736	1.373353
C189	C	1.616553	0.384070	1.706686
C190	C	0.949889	-0.282595	0.969333
C191	C	1.283222	0.050738	1.302666
C192	C	1.616556	0.384071	1.635999
C193	C	0.909605	-0.325887	0.933958
C194	C	1.242938	0.007447	1.267291
C195	C	1.576271	0.340780	1.600624
C196	C	0.909610	-0.325888	0.857309
C197	C	1.242943	0.007446	1.190643
C198	C	1.576277	0.340779	1.523976
C199	C	0.909618	-0.325885	0.796217
C200	C	1.242951	0.007449	1.129551
C201	C	1.576285	0.340782	1.462884
C202	C	0.909609	-0.325892	1.150564
C203	C	1.242943	0.007441	1.483897
C204	C	1.576276	0.340774	1.817231
C205	C	0.909603	-0.325888	1.075332
C206	C	1.242936	0.007446	1.408665
C207	C	1.576270	0.340779	1.741999
H208	H	0.982718	-0.711718	0.247986
H209	H	1.316052	-0.378384	0.581319
H210	H	1.649385	-0.045051	0.914652
O211	O	0.675122	-0.411346	0.411598
O212	O	1.008456	-0.078013	0.744931
O213	O	1.341789	0.255320	1.078265
C214	C	0.659105	-0.396667	0.479088
C215	C	0.992438	-0.063333	0.812421
C216	C	1.325772	0.270000	1.145754
H217	H	0.641083	-0.342596	0.482609
H218	H	0.974417	-0.009262	0.815942
H219	H	1.307750	0.324071	1.149275
H220	H	0.702357	-0.402560	0.512505
H221	H	1.035690	-0.069226	0.845838
H222	H	1.369023	0.264107	1.179171
H223	H	0.620925	-0.432974	0.496724
H224	H	0.954258	-0.099640	0.830058
H225	H	1.287591	0.233693	1.163391
H226	H	0.836533	-0.404444	0.940469
H227	H	1.169866	-0.071111	1.273802
H228	H	1.503199	0.262222	1.607135
H229	H	0.836536	-0.404420	0.584700
H230	H	1.169869	-0.071087	0.918033
H231	H	1.503203	0.262246	1.251366
O232	O	0.989105	-0.240609	1.074354
O233	O	1.322438	0.092725	1.407688
O234	O	1.655771	0.426058	1.741021
C235	C	1.051836	-0.255379	1.057101
C236	C	1.385170	0.077955	1.390434
C237	C	1.718503	0.411288	1.723767
H238	H	1.054987	-0.309451	1.037658
H239	H	1.388320	0.023882	1.370992
H240	H	1.721653	0.357216	1.704325
H241	H	1.082937	-0.249541	1.103606
H242	H	1.416270	0.083793	1.436939
H243	H	1.749604	0.417126	1.770273
H244	H	1.068311	-0.219089	1.016087
H245	H	1.401645	0.114244	1.349420
H246	H	1.734978	0.447578	1.682754
O247	O	0.830189	-0.578106	0.411725
O248	O	1.163522	-0.244773	0.745059
O249	O	1.496855	0.088560	1.078392
C250	C	0.843918	-0.595323	0.479206
C251	C	1.177251	-0.261990	0.812539
C252	C	1.510584	0.071344	1.145872
H253	H	0.868128	-0.646620	0.480647
H254	H	1.201462	-0.313287	0.813981
H255	H	1.534795	0.020047	1.147314
H256	H	0.798468	-0.597778	0.509499
H257	H	1.131801	-0.264445	0.842832
H258	H	1.465134	0.068889	1.176166
H259	H	0.876257	-0.555495	0.502037
H260	H	1.209590	-0.222161	0.835370
H261	H	1.542923	0.111172	1.168704
H262	H	0.836535	-0.711833	0.404861
H263	H	1.169869	-0.378500	0.738195
H264	H	1.503202	-0.045167	1.071528
H265	H	0.836523	-0.404441	1.068703
H266	H	1.169857	-0.071107	1.402036
H267	H	1.503190	0.262226	1.735369
O268	O	0.274399	-0.240487	0.241264
O269	O	0.607732	0.092846	0.574598
O270	O	0.941066	0.426180	0.907931
C271	C	0.312347	-0.278964	0.197453
C272	C	0.645680	0.054370	0.530786
C273	C	0.979013	0.387703	0.864119
H274	H	0.322170	-0.330296	0.221228
H275	H	0.655503	0.003037	0.554562
H276	H	0.988837	0.336370	0.887895
H277	H	0.358593	-0.251390	0.188413
H278	H	0.691926	0.081944	0.521746
H279	H	1.025260	0.415277	0.855080
H280	H	0.286965	-0.286318	0.147290
H281	H	0.620298	0.047015	0.480623
H282	H	0.953631	0.380348	0.813957
H283	H	0.550720	-0.404577	0.404762
H284	H	0.884053	-0.071244	0.738095
H285	H	1.217386	0.262089	1.071429
H286	H	0.550730	-0.247261	0.247987
H287	H	0.884064	0.086072	0.581321
H288	H	1.217397	0.419406	0.914654
O289	O	0.989105	-1.073008	0.241163
O290	O	1.322438	-0.739675	0.574496
O291	O	1.655771	-0.406341	0.907830
C292	C	0.975404	-1.055776	0.173680
C293	C	1.308737	-0.722443	0.507013
C294	C	1.642070	-0.389109	0.840347
H295	H	0.925111	-1.036404	0.170187
H296	H	1.258445	-0.703071	0.503520
H297	H	1.591778	-0.369738	0.836853
H298	H	0.980866	-1.102275	0.140262
H299	H	1.314200	-0.768942	0.473596
H300	H	1.647533	-0.435608	0.806929
H301	H	1.009153	-1.014716	0.156022
H302	H	1.342487	-0.681383	0.489356
H303	H	1.675820	-0.348049	0.822689
O304	O	0.830267	-0.411209	0.718593
O305	O	1.163600	-0.077876	1.051926
O306	O	1.496934	0.255457	1.385259
C307	C	0.838890	-0.401918	0.788569
C308	C	1.172223	-0.068585	1.121903
C309	C	1.505557	0.264749	1.455236
H310	H	0.887481	-0.379742	0.798257
H311	H	1.220815	-0.046409	1.131591
H312	H	1.554148	0.286924	1.464924
H313	H	0.834592	-0.452619	0.815417
H314	H	1.167925	-0.119285	1.148750
H315	H	1.501259	0.214048	1.482083
H316	H	0.801570	-0.365881	0.808619
H317	H	1.134903	-0.032548	1.141952
H318	H	1.468237	0.300786	1.475286
H319	H	0.670001	-0.247276	0.247942
H320	H	1.003334	0.086057	0.581275
H321	H	1.336668	0.419391	0.914609
H322	H	0.982790	-0.939243	0.248025
H323	H	1.316124	-0.605909	0.581358
H324	H	1.649457	-0.272576	0.914691
O325	O	0.989059	-0.578026	0.241145
O326	O	1.322392	-0.244692	0.574478
O327	O	1.655726	0.088641	0.907811
C328	C	1.024622	-0.624355	0.202984
C329	C	1.357956	-0.291022	0.536318
C330	C	1.691289	0.042311	0.869651
H331	H	1.026799	-0.674728	0.230721
H332	H	1.360132	-0.341395	0.564054
H333	H	1.693466	-0.008061	0.897388
H334	H	1.074218	-0.603877	0.195826
H335	H	1.407551	-0.270543	0.529159
H336	H	1.740885	0.062790	0.862492
H337	H	1.001609	-0.631924	0.151550
H338	H	1.334942	-0.298591	0.484883
H339	H	1.668276	0.034742	0.818216
H340	H	0.836647	-1.067591	0.404926
H341	H	1.169980	-0.734258	0.738259
H342	H	1.503314	-0.400924	1.071592
H343	H	0.149893	-0.247172	0.248141
H344	H	0.483226	0.086161	0.581474
H345	H	0.816559	0.419495	0.914808
H346	H	0.269146	-0.404521	0.404870
H347	H	0.602480	-0.071187	0.738203
H348	H	0.935813	0.262146	1.071536
O349	O	0.988969	-0.240435	0.579304
O350	O	1.322303	0.092899	0.912638
O351	O	1.655636	0.426232	1.245971
C352	C	0.975253	-0.172981	0.596605
C353	C	1.308586	0.160353	0.929938
C354	C	1.641919	0.493686	1.263271
H355	H	0.924964	-0.169577	0.616007
H356	H	1.258297	0.163756	0.949341
H357	H	1.591631	0.497089	1.282674
H358	H	0.980694	-0.139537	0.550132
H359	H	1.314028	0.193797	0.883466
H360	H	1.647361	0.527130	1.216799
H361	H	1.009007	-0.155283	0.637662
H362	H	1.342341	0.178050	0.970995
H363	H	1.675674	0.511384	1.304328
O364	O	0.830206	-0.933908	0.411710
O365	O	1.163540	-0.600575	0.745043
O366	O	1.496873	-0.267242	1.078376
C367	C	0.794671	-0.980291	0.449879
C368	C	1.128004	-0.646958	0.783213
C369	C	1.461337	-0.313624	1.116546
H370	H	0.792537	-1.030694	0.422161
H371	H	1.125870	-0.697361	0.755494
H372	H	1.459204	-0.364027	1.088827
H373	H	0.745058	-0.959928	0.457019
H374	H	1.078392	-0.626595	0.790353
H375	H	1.411725	-0.293261	1.123686
H376	H	0.817680	-0.987758	0.501322
H377	H	1.151013	-0.654424	0.834655
H378	H	1.484346	-0.321091	1.167988
H379	H	0.982701	-0.247336	0.713060
H380	H	1.316035	0.085997	1.046393
H381	H	1.649368	0.419331	1.379726
H382	H	0.149882	-0.404486	0.404922
H383	H	0.483216	-0.071153	0.738255
H384	H	0.816549	0.262180	1.071588
O385	O	0.988950	-0.240437	0.935068
O386	O	1.322283	0.092896	1.268401
O387	O	1.655617	0.426229	1.601734
C388	C	0.975229	-0.172986	0.952372
C389	C	1.308563	0.160348	1.285706
C390	C	1.641896	0.493681	1.619039
H391	H	0.924941	-0.169587	0.971775
H392	H	1.258274	0.163746	1.305109
H393	H	1.591607	0.497080	1.638442
H394	H	0.980669	-0.139538	0.905902
H395	H	1.314002	0.193795	1.239235
H396	H	1.647335	0.527129	1.572569
H397	H	1.008983	-0.155288	0.993430
H398	H	1.342316	0.178045	1.326764
H399	H	1.675650	0.511379	1.660097
