data_functionalizedCrystal
_audit_creation_method	'MofGen! by Chris Wilmer'
_symmetry_space_group_name_H-M	'P1'
_symmetry_Int_Tables_number	1
_symmetry_cell_setting	triclinic
loop_
_symmetry_equiv_pos_as_xyz
  x,y,z
_cell_length_a	16.625547
_cell_length_b	18.050589
_cell_length_c	16.625539
_cell_angle_alpha	90.024622
_cell_angle_beta	89.975178
_cell_angle_gamma	89.965365
loop_
_atom_site_label
_atom_site_type_symbol
_atom_site_fract_x
_atom_site_fract_y
_atom_site_fract_z
Zn1	Zn	1.232612	0.295659	-0.456021
Zn2	Zn	1.232486	0.419857	-0.321197
Zn3	Zn	1.097774	0.295685	-0.321192
Zn4	Zn	1.097715	0.419812	-0.455977
O5	O	1.165147	0.357753	-0.388597
O6	O	1.345428	0.312142	-0.438158
O7	O	1.214588	0.403415	-0.208364
O8	O	1.115737	0.191757	-0.339094
O9	O	1.345335	0.403390	-0.339103
O10	O	1.214802	0.191738	-0.438152
O11	O	1.115616	0.312187	-0.208360
O12	O	0.984934	0.312143	-0.339051
O13	O	1.115638	0.403313	-0.568816
O14	O	0.984891	0.403338	-0.438077
O15	O	1.214746	0.312099	-0.568848
O16	O	1.214532	0.523776	-0.339060
O17	O	1.115516	0.523742	-0.438082
C18	C	0.955656	0.357739	-0.388559
C19	C	0.866035	0.357751	-0.388562
C20	C	0.793253	0.357752	-0.388572
C21	C	0.701944	0.357756	-0.388592
C22	C	0.629168	0.357763	-0.388612
C23	C	0.537853	0.357768	-0.388632
C24	C	1.165026	0.550706	-0.388584
C25	C	1.165048	0.633251	-0.388606
C26	C	1.111232	0.832711	-0.442436
C27	C	1.091569	0.882153	-0.368859
C28	C	1.165109	0.784382	-0.388617
C29	C	1.184793	0.882022	-0.462203
C30	C	1.165166	0.930367	-0.388634
C31	C	1.145408	0.832736	-0.315001
C32	C	1.238665	0.832601	-0.408395
C33	C	1.219031	0.882020	-0.334767
C34	C	1.165074	0.700283	-0.388608
C35	C	1.165201	1.014463	-0.388635
C36	C	1.375456	0.357768	-0.388636
C37	C	1.465077	0.357775	-0.388652
C38	C	1.165199	0.357698	-0.598906
C39	C	1.165222	0.357674	-0.688527
C40	C	1.165260	1.164048	-0.388628
C41	C	1.165229	1.081502	-0.388644
C42	C	1.165259	0.357591	-1.016703
C43	C	1.165246	0.357617	-0.925394
C44	C	1.165241	0.357633	-0.852618
C45	C	1.165227	0.357658	-0.761304
C46	C	1.165141	0.357755	-0.179106
C47	C	1.165275	0.357569	-0.089485
H48	H	1.065610	0.811059	-0.487884
H49	H	1.264617	0.903535	-0.289209
H50	H	1.300828	0.810821	-0.425143
Cl51	Cl	1.119628	0.799454	-0.218904
Cl52	Cl	0.995568	0.915756	-0.343033
Cl53	Cl	1.210462	0.915450	-0.558270
