data_functionalizedCrystal
_audit_creation_method	'MofGen! by Chris Wilmer'
_symmetry_space_group_name_H-M	'P1'
_symmetry_Int_Tables_number	1
_symmetry_cell_setting	triclinic
loop_
_symmetry_equiv_pos_as_xyz
  x,y,z
_cell_length_a	12.645330
_cell_length_b	16.625547
_cell_length_c	16.625539
_cell_angle_alpha	90.027058
_cell_angle_beta	89.975749
_cell_angle_gamma	89.983122
loop_
_atom_site_label
_atom_site_type_symbol
_atom_site_fract_x
_atom_site_fract_y
_atom_site_fract_z
Zn1	Zn	-0.422060	-1.232707	-0.456072
Zn2	Zn	-0.599346	-1.232622	-0.321248
Zn3	Zn	-0.422095	-1.097869	-0.321237
Zn4	Zn	-0.599280	-1.097851	-0.456023
O5	O	-0.510695	-1.165262	-0.388645
O6	O	-0.445591	-1.345528	-0.438212
O7	O	-0.575876	-1.214718	-0.208414
O8	O	-0.273743	-1.115799	-0.339139
O9	O	-0.575842	-1.345465	-0.339158
O10	O	-0.273718	-1.214864	-0.438201
O11	O	-0.445650	-1.115716	-0.208406
O12	O	-0.445585	-0.985034	-0.339091
O13	O	-0.575729	-1.115768	-0.568862
O14	O	-0.575762	-0.985021	-0.438118
O15	O	-0.445527	-1.214846	-0.568898
O16	O	-0.747685	-1.214701	-0.339111
O17	O	-0.747636	-1.115685	-0.438129
C18	C	-0.510671	-0.955771	-0.388599
C19	C	-0.510686	-0.866150	-0.388598
C20	C	-0.510687	-0.793368	-0.388605
C21	C	-0.510691	-0.702059	-0.388622
C22	C	-0.510700	-0.629283	-0.388639
C23	C	-0.510705	-0.537969	-0.388655
C24	C	-0.786125	-1.165203	-0.388634
C25	C	-0.903955	-1.165252	-0.388656
C26	C	-1.071532	-1.103218	-0.451140
C27	C	-0.948973	-1.102901	-0.450940
C28	C	-0.948548	-1.142250	-0.303678
C29	C	-1.071146	-1.141872	-0.304057
C30	C	-1.071046	-1.250667	-0.410460
C31	C	-0.948439	-1.250144	-0.412318
C32	C	-0.234190	-1.165343	-0.388674
C33	C	-0.116360	-1.165378	-0.388686
C34	C	-0.510616	-1.165315	-0.598954
C35	C	-0.510583	-1.165337	-0.688575
C36	C	-0.510716	-0.375571	-0.388682
C37	C	-0.510714	-0.465192	-0.388673
C38	C	-0.510464	-1.165374	-1.016751
C39	C	-0.510500	-1.165362	-0.925443
C40	C	-0.510524	-1.165356	-0.852666
C41	C	-0.510559	-1.165343	-0.761352
C42	C	-0.510698	-1.165256	-0.179154
C43	C	-0.510433	-1.165390	-0.089534
H44	H	-0.918820	-1.117292	-0.513950
H45	H	-0.919737	-1.039671	-0.436513
H46	H	-1.100803	-1.185182	-0.255937
H47	H	-1.099836	-1.079525	-0.285613
C48	C	-1.110204	-1.313233	-0.349018
H49	H	-1.082556	-1.364646	-0.362486
H50	H	-1.185272	-1.315154	-0.349929
H51	H	-1.086925	-1.298499	-0.296727
H52	H	-0.919389	-1.186089	-0.255873
H53	H	-0.917935	-1.080553	-0.284901
C54	C	-1.112704	-1.279017	-0.492748
H55	H	-1.084414	-1.330592	-0.504740
H56	H	-1.091714	-1.241888	-0.533120
H57	H	-1.187694	-1.282070	-0.491145
C58	C	-1.111396	-1.122401	-0.536524
H59	H	-1.155726	-1.168496	-0.534854
H60	H	-1.052774	-1.132658	-0.570777
H61	H	-1.150344	-1.077864	-0.556608
C62	C	-0.909049	-1.273588	-0.496796
H63	H	-0.865669	-1.231823	-0.517563
H64	H	-0.967928	-1.281465	-0.531376
H65	H	-0.869222	-1.321937	-0.493559
C66	C	-0.907057	-1.316002	-0.355336
H67	H	-0.861911	-1.292482	-0.316191
H68	H	-0.868692	-1.354882	-0.385403
H69	H	-0.965050	-1.341263	-0.329238
C70	C	-1.113260	-1.018332	-0.431901
H71	H	-1.157879	-1.020608	-0.385970
H72	H	-1.152258	-0.998531	-0.476522
H73	H	-1.055378	-0.983489	-0.421321
