data_functionalizedCrystal
_audit_creation_method	'MofGen! by Chris Wilmer'
_symmetry_space_group_name_H-M	'P1'
_symmetry_Int_Tables_number	1
_symmetry_cell_setting	triclinic
loop_
_symmetry_equiv_pos_as_xyz
  x,y,z
_cell_length_a	12.759401
_cell_length_b	16.959454
_cell_length_c	12.759393
_cell_angle_alpha	90.029640
_cell_angle_beta	90.020938
_cell_angle_gamma	90.021600
loop_
_atom_site_label
_atom_site_type_symbol
_atom_site_fract_x
_atom_site_fract_y
_atom_site_fract_z
Zn1	Zn	1.606227	-0.314611	0.594026
Zn2	Zn	1.606102	-0.446810	0.418349
Zn3	Zn	1.430526	-0.314653	0.418362
Zn4	Zn	1.430501	-0.446755	0.593986
O5	O	1.518339	-0.380707	0.506181
O6	O	1.753232	-0.332153	0.570734
O7	O	1.582769	-0.429320	0.271330
O8	O	1.453896	-0.204037	0.441686
O9	O	1.753139	-0.429279	0.441665
O10	O	1.582983	-0.204006	0.570746
O11	O	1.453774	-0.332225	0.271339
O12	O	1.283502	-0.332171	0.441647
O13	O	1.453854	-0.429185	0.741013
O14	O	1.283484	-0.429226	0.570678
O15	O	1.582959	-0.332100	0.741042
O16	O	1.582745	-0.557414	0.441626
O17	O	1.453732	-0.557373	0.570666
C18	C	1.245372	-0.380698	0.506160
C19	C	1.128595	-0.380713	0.506176
C20	C	1.073751	-0.431326	0.573257
C21	C	0.964027	-0.431329	0.573277
C22	C	0.964000	-0.330103	0.439128
C23	C	1.073722	-0.330097	0.439113
C24	C	0.814128	-0.459691	0.697138
C25	C	0.759280	-0.510317	0.764210
C26	C	0.794868	-0.587456	0.780159
C27	C	0.885302	-0.613985	0.729022
C28	C	0.940144	-0.563363	0.661943
C29	C	0.904557	-0.486213	0.646013
C30	C	1.223624	-0.301743	0.315251
C31	C	1.278468	-0.251125	0.248166
C32	C	1.242882	-0.173984	0.232205
C33	C	1.152445	-0.147458	0.283324
C34	C	1.097601	-0.198076	0.350409
C35	C	1.133194	-0.275216	0.366371
C36	C	1.518251	-0.586074	0.506163
C37	C	1.518309	-0.673930	0.506190
C38	C	1.451259	-1.045415	0.573365
C39	C	1.585711	-1.045397	0.439104
C40	C	1.585675	-0.962851	0.439094
C41	C	1.518428	-0.921583	0.506220
C42	C	1.451218	-0.962861	0.573355
C43	C	1.652875	-0.921567	0.371953
C44	C	1.652841	-0.839016	0.371940
C45	C	1.585599	-0.797747	0.439071
C46	C	1.518387	-0.839030	0.506210
C47	C	1.451141	-0.797762	0.573335
C48	C	1.383934	-0.839043	0.640480
C49	C	1.383977	-0.921592	0.640486
C50	C	1.585556	-0.715198	0.439065
C51	C	1.451100	-0.715208	0.573326
C52	C	1.792372	-0.380718	0.506202
C53	C	1.909149	-0.380722	0.506212
C54	C	1.518418	-0.380632	0.780214
C55	C	1.518451	-0.380599	0.896991
C56	C	1.518456	-0.174539	0.506222
C57	C	1.518506	-0.086683	0.506239
C58	C	1.518321	-0.380726	0.233213
C59	C	1.518491	-0.380536	0.116437
C60	C	1.585681	-0.330039	0.951870
C61	C	1.585699	-0.330005	1.061594
C62	C	1.451254	-0.431098	1.061551
C63	C	1.451232	-0.431128	0.951829
C64	C	1.623323	-0.236746	1.211570
C65	C	1.690569	-0.186193	1.266453
C66	C	1.793083	-0.174072	1.230861
C67	C	1.828372	-0.212516	1.140389
C68	C	1.761131	-0.263076	1.085512
C69	C	1.658602	-0.275181	1.121102
C70	C	1.413619	-0.524387	0.801850
C71	C	1.346382	-0.574951	0.746971
C72	C	1.243866	-0.587080	0.782561
C73	C	1.208581	-0.548650	0.873037
C74	C	1.275818	-0.498086	0.927916
C75	C	1.378333	-0.485956	0.892319
H76	H	1.023967	-0.176470	0.392040
H77	H	1.661827	-0.154891	1.340116
H78	H	1.640413	-0.288893	0.907225
O79	O	1.378756	-0.485597	1.120695
H80	H	1.390070	-0.477088	1.206212
O81	O	1.237761	-0.456630	1.025499
H82	H	1.242783	-0.391874	1.013970
O83	O	1.376016	-0.279733	0.193033
H84	H	1.364435	-0.275922	0.106964
O85	O	1.725411	-0.966061	0.299551
H86	H	1.807844	-0.950142	0.317644
H87	H	1.911853	-0.202649	1.111423
O88	O	0.923673	-0.697192	0.746220
H89	H	0.924811	-0.729087	0.670246
O90	O	1.865612	-0.119536	1.290040
H91	H	1.823850	-0.094836	1.358921
O92	O	1.378571	-0.670697	0.645727
H93	H	1.325130	-0.633137	0.598648
O94	O	0.904810	-0.275518	0.366796
H95	H	0.961383	-0.240316	0.320156
O96	O	1.658231	-1.089908	0.366705
H97	H	1.704953	-1.047334	0.320015
O98	O	1.524200	-0.511317	0.763468
H99	H	1.565023	-0.469697	0.816824
H100	H	1.539845	-0.246604	1.240553
O101	O	1.302032	-0.119384	0.159849
H102	H	1.370899	-0.150785	0.126980
O103	O	1.114054	-0.064255	0.266123
H104	H	1.167389	-0.033511	0.210897
O105	O	1.311392	-0.794531	0.712869
H106	H	1.329364	-0.810323	0.795348
H107	H	1.252614	-0.364555	0.328250
H108	H	1.329259	-0.955210	0.695151
O109	O	1.378760	-1.089931	0.645772
H110	H	1.390074	-1.154266	0.634499
O111	O	1.725335	-0.794492	0.299537
H112	H	1.772108	-0.837057	0.252870
H113	H	1.640270	-0.681591	0.384392
H114	H	1.789864	-0.294379	1.011854
O115	O	1.098006	-0.561720	0.911430
H116	H	1.057177	-0.603328	0.858063
H117	H	1.375124	-0.606251	0.673308
O118	O	1.132946	-0.485900	0.645601
H119	H	1.111856	-0.547924	0.627463
O120	O	1.037686	-0.591960	0.606798
H121	H	1.053225	-0.654105	0.629159
O122	O	0.735721	-0.642061	0.852505
H123	H	0.666865	-0.610655	0.885386
O124	O	1.171340	-0.641614	0.723368
H125	H	1.205673	-0.701717	0.721227
O126	O	0.661750	-0.481707	0.819376
H127	H	0.646227	-0.419554	0.797037
H128	H	0.785150	-0.396876	0.684169
