data_functionalizedCrystal
_audit_creation_method	'MofGen! by Chris Wilmer'
_symmetry_space_group_name_H-M	'P1'
_symmetry_Int_Tables_number	1
_symmetry_cell_setting	triclinic
loop_
_symmetry_equiv_pos_as_xyz
  x,y,z
_cell_length_a	12.594517
_cell_length_b	12.594516
_cell_length_c	13.032268
_cell_angle_alpha	97.152436
_cell_angle_beta	97.168970
_cell_angle_gamma	90.016010
loop_
_atom_site_label
_atom_site_type_symbol
_atom_site_fract_x
_atom_site_fract_y
_atom_site_fract_z
Zn1	Zn	1.550814	-0.500114	-0.590719
Zn2	Zn	1.573319	-0.655525	-0.415988
Zn3	Zn	1.395429	-0.477564	-0.416010
Zn4	Zn	1.372802	-0.678049	-0.590699
O5	O	1.473091	-0.577813	-0.503354
O6	O	1.702745	-0.520741	-0.567539
O7	O	1.568609	-0.613054	-0.269757
O8	O	1.416092	-0.331612	-0.439203
O9	O	1.719280	-0.634921	-0.439165
O10	O	1.530252	-0.348180	-0.567561
O11	O	1.437914	-0.482307	-0.269774
O12	O	1.243482	-0.504147	-0.439184
O13	O	1.377528	-0.673309	-0.736935
O14	O	1.226858	-0.651442	-0.567527
O15	O	1.508312	-0.542581	-0.736950
O16	O	1.546669	-0.807456	-0.439146
O17	O	1.399351	-0.824004	-0.567505
C18	C	1.196550	-0.577793	-0.503356
C19	C	1.078241	-0.577813	-0.503382
C20	C	0.929230	-0.658039	-0.573059
C21	C	1.012344	-0.671611	-0.477687
C22	C	0.996700	-0.564286	-0.598743
C23	C	0.950580	-0.591459	-0.407929
C24	C	0.934921	-0.484098	-0.529050
C25	C	1.018012	-0.497625	-0.433612
C26	C	1.473023	-0.854353	-0.503344
C27	C	1.473086	-0.972662	-0.503374
C28	C	1.392959	-1.050948	-0.573140
C29	C	1.379366	-1.109480	-0.477789
C30	C	1.486774	-1.124930	-0.598742
C31	C	1.459449	-1.029630	-0.407972
C32	C	1.566893	-1.045082	-0.528990
C33	C	1.553346	-1.103574	-0.433573
C34	C	1.750712	-0.577834	-0.503352
C35	C	1.869018	-0.577843	-0.503351
C36	C	1.437886	-0.612973	-0.775919
C37	C	1.422883	-0.627956	-0.892070
C38	C	1.473186	-0.300196	-0.503387
C39	C	1.473226	-0.181893	-0.503401
C40	C	1.480904	-0.569955	-0.943862
C41	C	1.465400	-0.585439	-1.063910
C42	C	1.508221	-0.542713	-0.231849
C43	C	1.523429	-0.527430	-0.115698
H44	H	1.325102	-1.027533	-0.632053
O45	O	0.894461	-0.389626	-0.555185
C46	C	0.917474	-0.375655	-0.655837
H47	H	0.931533	-0.456948	-0.700801
H48	H	0.992361	-0.323156	-0.649337
C49	C	0.805192	-0.221656	-0.658601
C50	C	0.822451	-0.321501	-0.713829
H51	H	0.746580	-0.188247	-0.694372
H52	H	0.789690	-0.231065	-0.590788
H53	H	0.867604	-0.177919	-0.653188
H54	H	0.760044	-0.365240	-0.719229
H55	H	0.837940	-0.312098	-0.781644
H56	H	1.046244	-0.750876	-0.455956
H57	H	0.930046	-0.603011	-0.327248
O58	O	1.063920	-0.416795	-0.363084
C59	C	1.040611	-0.431475	-0.262699
H60	H	1.021112	-0.519507	-0.260567
H61	H	0.968951	-0.380981	-0.243356
C62	C	1.162239	-0.288681	-0.184674
C63	C	1.138299	-0.396805	-0.182052
H64	H	1.222495	-0.267290	-0.134925
H65	H	1.177941	-0.278787	-0.252305
H66	H	1.102515	-0.246616	-0.168557
H67	H	1.198017	-0.438868	-0.198181
H68	H	1.122610	-0.406705	-0.114421
O69	O	1.553742	-0.496891	-0.890786
C70	C	1.527126	-0.394216	-0.917411
H71	H	1.438242	-0.392684	-0.947487
H72	H	1.576091	-0.374501	-0.980682
C73	C	1.661145	-0.312642	-0.783454
C74	C	1.551974	-0.310758	-0.820386
H75	H	1.676477	-0.261159	-0.723607
H76	H	1.679080	-0.381816	-0.765518
H77	H	1.701937	-0.296216	-0.836189
H78	H	1.511186	-0.327196	-0.767656
H79	H	1.534033	-0.241584	-0.838311
H80	H	1.646135	-1.016671	-0.550680
H81	H	1.361725	-0.689070	-0.936605
H82	H	1.300100	-1.137900	-0.456145
O83	O	1.445550	-0.980166	-0.311815
C84	C	1.445625	-0.868373	-0.312966
H85	H	1.422945	-0.849802	-0.396227
H86	H	1.528851	-0.834001	-0.281987
C87	C	1.391774	-0.840580	-0.141338
C88	C	1.363909	-0.817771	-0.243599
H89	H	1.341372	-0.809365	-0.098545
H90	H	1.391728	-0.915897	-0.140559
H91	H	1.461131	-0.811936	-0.115536
H92	H	1.294560	-0.846426	-0.269403
H93	H	1.363942	-0.742457	-0.244380
O94	O	1.021222	-0.550747	-0.695045
C95	C	0.975728	-0.635510	-0.768260
H96	H	0.905207	-0.672012	-0.737222
H97	H	1.038442	-0.699261	-0.781833
C98	C	1.023192	-0.547840	-0.909952
C99	C	0.936572	-0.592667	-0.871834
H100	H	0.999043	-0.521416	-0.973843
H101	H	1.053846	-0.490736	-0.860626
H102	H	1.075447	-0.600975	-0.921254
H103	H	0.884326	-0.539530	-0.860521
H104	H	0.905908	-0.649762	-0.921162
H105	H	1.498296	-1.166384	-0.679382
O106	O	1.596269	-0.454353	-1.062641
C107	C	1.569638	-0.351687	-1.089283
H108	H	1.480750	-0.350168	-1.119351
H109	H	1.618590	-0.331982	-1.152568
C110	C	1.703665	-0.270078	-0.955354
C111	C	1.594490	-0.268210	-0.992275
H112	H	1.718999	-0.218583	-0.895517
H113	H	1.721611	-0.339245	-0.937407
H114	H	1.744446	-0.253660	-1.008100
H115	H	1.553712	-0.284641	-0.939534
H116	H	1.576538	-0.199043	-1.010212
O117	O	1.634240	-1.131453	-0.363203
C118	C	1.633942	-1.243569	-0.364569
H119	H	1.592147	-1.282797	-0.442734
H120	H	1.589571	-1.266104	-0.299114
C121	C	1.801348	-1.234426	-0.252888
C122	C	1.750022	-1.282607	-0.348896
H123	H	1.872951	-1.258507	-0.243215
H124	H	1.801548	-1.158891	-0.251964
H125	H	1.764361	-1.253209	-0.198353
H126	H	1.787002	-1.263812	-0.403429
H127	H	1.749832	-1.358140	-0.349828
O128	O	0.883145	-0.739128	-0.643163
C129	C	0.922786	-0.837791	-0.615700
H130	H	0.953851	-0.828478	-0.529021
H131	H	0.990759	-0.863893	-0.662851
C132	C	0.794150	-0.934322	-0.745560
C133	C	0.832296	-0.922887	-0.639097
H134	H	0.738333	-0.986816	-0.759996
H135	H	0.767445	-0.867852	-0.764065
H136	H	0.850803	-0.956070	-0.784839
H137	H	0.775646	-0.901127	-0.599820
H138	H	0.858989	-0.989356	-0.620585
H139	H	1.404237	-0.646557	-1.108441
