data_functionalizedCrystal
_audit_creation_method	'MofGen! by Chris Wilmer'
_symmetry_space_group_name_H-M	'P1'
_symmetry_Int_Tables_number	1
_symmetry_cell_setting	triclinic
loop_
_symmetry_equiv_pos_as_xyz
  x,y,z
_cell_length_a	10.654550
_cell_length_b	9.065218
_cell_length_c	9.130313
_cell_angle_alpha	89.997322
_cell_angle_beta	89.999724
_cell_angle_gamma	84.750408
loop_
_atom_site_label
_atom_site_type_symbol
_atom_site_fract_x
_atom_site_fract_y
_atom_site_fract_z
O1	O	1.668660	0.207235	-0.121684
O2	O	1.303260	0.226979	-0.121710
O3	O	1.493513	0.002423	-0.121693
O4	O	1.478407	0.431791	-0.121700
O5	O	1.493500	0.002417	0.121906
O6	O	1.303247	0.226972	0.121889
O7	O	1.668647	0.207228	0.121915
Cu8	Cu	1.485946	0.217100	0.144145
Cu9	Cu	1.485961	0.217107	-0.143939
O10	O	1.478394	0.431784	0.121899
C11	C	1.256450	0.225526	0.000086
C12	C	1.116989	0.221188	0.000076
C13	C	1.492055	-0.052559	0.000104
C14	C	1.487714	-0.216378	0.000096
C15	C	1.038027	0.353403	0.000078
C16	C	0.906990	0.349319	0.000104
C17	C	0.933890	0.080794	0.000119
C18	C	1.064924	0.084879	0.000104
C19	C	1.715457	0.208681	0.000116
C20	C	1.854918	0.213019	0.000117
C21	C	1.479852	0.486766	0.000098
C22	C	1.484193	0.650585	0.000096
N23	N	1.485944	0.217093	0.346767
N24	N	1.485973	0.217102	-0.346562
C25	C	1.570217	0.117702	0.423427
C26	C	1.570229	0.117703	0.576763
C27	C	1.401691	0.316498	0.576768
C28	C	1.401674	0.316489	0.423434
H29	H	1.080414	0.464395	0.000066
O30	O	1.651938	0.020910	0.349050
C31	C	1.629857	-0.125348	0.386615
H32	H	1.529290	-0.127123	0.428759
H33	H	1.643461	-0.199288	0.285813
H34	H	1.698963	-0.167901	0.475645
O35	O	0.830160	0.477655	-0.000099
C36	C	0.753569	0.483338	-0.126269
H37	H	0.745608	0.366155	-0.168314
H38	H	0.655738	0.537296	-0.097887
H39	H	0.797427	0.551159	-0.214627
O40	O	1.319790	0.412850	0.651411
C41	C	1.241407	0.332987	0.740103
H42	H	1.290125	0.218077	0.763076
H43	H	1.222253	0.394360	0.847926
H44	H	1.148464	0.321945	0.681031
H45	H	0.891482	-0.030185	0.000151
O46	O	1.141690	-0.043522	0.000356
C47	C	1.218322	-0.049171	0.126492
H48	H	1.171203	0.025783	0.214674
H49	H	1.231714	-0.167870	0.168844
H50	H	1.314012	-0.009995	0.097956
H51	H	1.638850	0.036768	0.639175
O52	O	1.319934	0.413252	0.349026
C53	C	1.341983	0.559541	0.386497
H54	H	1.442547	0.561368	0.428633
H55	H	1.328364	0.633423	0.285650
H56	H	1.272870	0.602123	0.475505
