data_functionalizedCrystal
_audit_creation_method	'MofGen! by Chris Wilmer'
_symmetry_space_group_name_H-M	'P1'
_symmetry_Int_Tables_number	1
_symmetry_cell_setting	triclinic
loop_
_symmetry_equiv_pos_as_xyz
  x,y,z
_cell_length_a	6.817900
_cell_length_b	11.102188
_cell_length_c	16.255661
_cell_angle_alpha	93.854852
_cell_angle_beta	103.488922
_cell_angle_gamma	108.603875
loop_
_atom_site_label
_atom_site_type_symbol
_atom_site_fract_x
_atom_site_fract_y
_atom_site_fract_z
V1	V	-4.052929	-0.176865	-0.263871
O2	O	-4.013087	0.007443	-0.258848
O3	O	-4.030098	-0.349678	-0.262067
O4	O	-4.004157	-0.174608	-0.378954
O5	O	-4.039208	-0.168839	-0.141151
V6	V	-4.533292	-0.154765	-0.249193
O7	O	-4.321119	-0.225344	-0.296069
O8	O	-4.715300	-0.106287	-0.216995
O9	O	-4.332917	0.018048	-0.250997
O10	O	-4.690531	-0.339073	-0.254216
O11	O	-4.664411	-0.162792	-0.371913
O12	O	-4.358858	-0.157022	-0.134110
C13	C	-3.881331	-0.391792	-0.257904
C14	C	-3.943947	-0.533072	-0.257196
C15	C	-3.930405	-0.580995	-0.179361
C16	C	-3.989264	-0.713744	-0.178699
C17	C	-4.075197	-0.750636	-0.333712
C18	C	-4.016353	-0.617890	-0.334374
C19	C	-3.848239	-0.168471	-0.407005
C20	C	-3.889815	-0.167769	-0.501086
C21	C	-3.799128	-0.159385	-0.723905
C22	C	-3.971585	-0.267595	-0.793381
C23	C	-3.966004	-0.166453	-0.673335
C24	C	-3.867655	-0.057005	-0.771496
C25	C	-4.039583	-0.165176	-0.839718
C26	C	-4.137957	-0.274760	-0.741581
C27	C	-4.033950	-0.064074	-0.719680
C28	C	-4.206548	-0.172315	-0.789137
C29	C	-3.923612	-0.167190	-0.577485
C30	C	-4.081993	-0.164449	-0.935567
C31	C	-4.145028	0.060155	-0.255158
C32	C	-4.061649	0.201433	-0.255872
C33	C	-4.178119	-0.163164	-0.106055
C34	C	-4.115781	-0.163859	-0.011973
H35	H	-4.134152	-0.819711	-0.396548
H36	H	-4.027396	-0.578874	-0.397760
H37	H	-4.059790	0.021975	-0.687572
O38	O	-3.852312	-0.489514	-0.096121
H39	H	-3.960316	-0.432988	-0.095869
H40	H	-3.626585	-0.154059	-0.695424
H41	H	-3.945667	-0.353640	-0.825467
H42	H	-4.251829	-0.366887	-0.728114
H43	H	-4.379235	-0.177810	-0.817484
H44	H	-3.753782	0.034998	-0.785106
O45	O	-3.974636	-0.765436	-0.094749
H46	H	-3.914384	-0.684151	-0.041197
