data_functionalizedCrystal
_audit_creation_method	'MofGen! by Chris Wilmer'
_symmetry_space_group_name_H-M	'P1'
_symmetry_Int_Tables_number	1
_symmetry_cell_setting	triclinic
loop_
_symmetry_equiv_pos_as_xyz
  x,y,z
_cell_length_a	21.395364
_cell_length_b	16.959453
_cell_length_c	21.395355
_cell_angle_alpha	90.017356
_cell_angle_beta	90.024552
_cell_angle_gamma	90.039772
loop_
_atom_site_label
_atom_site_type_symbol
_atom_site_fract_x
_atom_site_fract_y
_atom_site_fract_z
Zn1	Zn	0.957885	-0.314458	0.354267
Zn2	Zn	0.957798	-0.446619	0.249491
Zn3	Zn	0.853100	-0.314492	0.249503
Zn4	Zn	0.853080	-0.446633	0.354231
O5	O	0.905466	-0.380550	0.301873
O6	O	1.045551	-0.331969	0.340378
O7	O	0.943882	-0.429100	0.161815
O8	O	0.867044	-0.203877	0.263420
O9	O	1.045487	-0.429067	0.263400
O10	O	0.944030	-0.203851	0.340389
O11	O	0.866960	-0.332028	0.161824
O12	O	0.765419	-0.332042	0.263386
O13	O	0.867010	-0.429091	0.441914
O14	O	0.765405	-0.429124	0.340329
O15	O	0.944010	-0.331982	0.441940
O16	O	0.943862	-0.557231	0.263365
O17	O	0.866926	-0.557242	0.340318
C18	C	0.742678	-0.380589	0.301855
C19	C	0.673037	-0.380624	0.301863
C20	C	0.640379	-0.330148	0.342007
C21	C	0.574944	-0.330127	0.342010
C22	C	0.542168	-0.380596	0.301874
C23	C	0.574834	-0.431076	0.261722
C24	C	0.640268	-0.431090	0.261716
C25	C	0.438450	-0.451779	0.296838
C26	C	0.373017	-0.451767	0.296848
C27	C	0.340348	-0.380553	0.301888
C28	C	0.373119	-0.309349	0.306931
C29	C	0.438554	-0.309363	0.306926
C30	C	0.471216	-0.380587	0.301876
C31	C	0.236738	-0.330050	0.342037
C32	C	0.171301	-0.330027	0.342035
C33	C	0.171192	-0.430983	0.261751
C34	C	0.236628	-0.430999	0.261750
C35	C	0.269396	-0.380533	0.301896
C36	C	0.905400	-0.585917	0.301850
C37	C	0.905429	-0.673773	0.301861
C38	C	0.865352	-0.715082	0.341898
C39	C	0.945537	-0.715018	0.261838
C40	C	0.945568	-0.797564	0.261849
C41	C	0.905491	-0.838873	0.301886
C42	C	0.865383	-0.797635	0.341912
C43	C	0.985679	-0.838808	0.221829
C44	C	0.985713	-0.921359	0.221839
C45	C	0.945632	-0.962669	0.261874
C46	C	0.905522	-0.921426	0.301900
C47	C	0.865445	-0.962735	0.341937
C48	C	0.825332	-0.921493	0.381962
C49	C	0.825303	-0.838945	0.381947
C50	C	0.945661	-1.045217	0.261889
C51	C	0.865477	-1.045288	0.341951
C52	C	1.068889	-0.380512	0.301891
C53	C	1.138530	-0.380496	0.301899
C54	C	0.905518	-0.380534	0.465296
C55	C	0.905540	-0.380528	0.534938
C56	C	0.905549	-0.174382	0.301910
C57	C	0.905584	-0.086525	0.301926
C58	C	0.905450	-0.380509	0.139086
C59	C	0.905549	-0.380293	0.069445
C60	C	0.945632	-0.329961	0.567665
C61	C	0.945631	-0.329927	0.633101
C62	C	0.905545	-0.380474	0.665806
C63	C	0.865445	-0.431044	0.633071
C64	C	0.865442	-0.431071	0.567636
C65	C	0.900575	-0.451647	0.769473
C66	C	0.900581	-0.451621	0.834906
C67	C	0.905549	-0.380390	0.867627
C68	C	0.910522	-0.309183	0.834907
C69	C	0.910520	-0.309210	0.769473
C70	C	0.905543	-0.380450	0.736759
C71	C	0.945642	-0.329783	0.971307
C72	C	0.945637	-0.329747	1.036744
C73	C	0.865454	-0.430871	1.036712
C74	C	0.865456	-0.430899	0.971277
C75	C	0.905553	-0.380356	0.938578
H76	H	0.832841	-1.078916	0.374555
N77	N	0.675491	-0.485536	0.218414
H78	H	0.664069	-0.542028	0.228064
H79	H	0.721905	-0.477823	0.224520
H80	H	0.896362	-0.509637	0.742837
N81	N	0.822198	-0.485550	0.668341
H82	H	0.828282	-0.477859	0.714760
H83	H	0.831917	-0.542008	0.656911
N84	N	0.822092	-0.670599	0.385064
H85	H	0.831803	-0.684920	0.429844
H86	H	0.777354	-0.685057	0.375238
H87	H	0.914568	-0.251180	0.861547
H88	H	0.548349	-0.289020	0.374699
H89	H	0.978288	-0.288623	0.944682
N90	N	0.988877	-0.275384	0.668406
H91	H	1.033637	-0.287662	0.657037
H92	H	0.982741	-0.283063	0.714809
N93	N	0.337675	-0.528561	0.291404
H94	H	0.291266	-0.517748	0.292176
H95	H	0.349108	-0.563974	0.327583
H96	H	0.978283	-0.288565	1.063389
N97	N	0.473683	-0.528593	0.291398
H98	H	0.442995	-0.573696	0.288209
H99	H	0.500847	-0.536009	0.329560
N100	N	0.337892	-0.232533	0.312356
H101	H	0.368581	-0.187431	0.315547
H102	H	0.310756	-0.233727	0.350958
H103	H	0.792704	-0.955138	0.414563
H104	H	0.792644	-0.805362	0.414533
H105	H	0.832792	-0.472247	0.540990
N106	N	0.272091	-0.275626	0.385335
H107	H	0.260747	-0.219125	0.375688
H108	H	0.318486	-0.283374	0.379219
H109	H	0.978169	-0.681382	0.229244
N110	N	0.271854	-0.485455	0.218460
H111	H	0.318279	-0.477807	0.224547
H112	H	0.260403	-0.473070	0.173730
H113	H	0.548144	-0.472168	0.229043
H114	H	0.144712	-0.288919	0.374725
H115	H	0.465234	-0.251387	0.311030
H116	H	1.018375	-0.954930	0.189248
N117	N	0.675722	-0.275718	0.385305
H118	H	0.645101	-0.243738	0.410736
H119	H	0.702883	-0.239095	0.359851
N120	N	1.028909	-0.794257	0.178655
H121	H	1.022800	-0.735705	0.184719
H122	H	1.019193	-0.808729	0.133899
H123	H	0.144507	-0.472076	0.229072
N124	N	0.988919	-1.089707	0.218729
H125	H	1.033675	-1.075273	0.228504
H126	H	0.979158	-1.075368	0.173966
N127	N	0.988877	-0.275448	0.532397
H128	H	1.014275	-0.243408	0.563064
H129	H	0.963387	-0.238883	0.505238
H130	H	0.896535	-0.509602	0.861541
H131	H	0.914568	-0.251230	0.742835
N132	N	0.822211	-0.485384	1.071978
H133	H	0.828294	-0.477693	1.118397
H134	H	0.831938	-0.541839	1.060547
H135	H	0.832812	-0.472081	0.944630
