data_functionalizedCrystal
_audit_creation_method	'MofGen! by Chris Wilmer'
_symmetry_space_group_name_H-M	'P1'
_symmetry_Int_Tables_number	1
_symmetry_cell_setting	triclinic
loop_
_symmetry_equiv_pos_as_xyz
  x,y,z
_cell_length_a	14.908571
_cell_length_b	19.121063
_cell_length_c	14.908803
_cell_angle_alpha	84.426527
_cell_angle_beta	89.810884
_cell_angle_gamma	89.303906
loop_
_atom_site_label
_atom_site_type_symbol
_atom_site_fract_x
_atom_site_fract_y
_atom_site_fract_z
Zn1	Zn	1.323926	-0.366572	0.606393
Zn2	Zn	1.823926	0.133428	1.106393
Zn3	Zn	1.326108	-0.477593	0.461735
Zn4	Zn	1.826108	0.022407	0.961735
Zn5	Zn	1.183060	-0.353045	0.446698
Zn6	Zn	1.683060	0.146955	0.946698
Zn7	Zn	1.167150	-0.476795	0.603343
Zn8	Zn	1.667150	0.023205	1.103343
O9	O	1.250061	-0.418501	0.529542
O10	O	1.750061	0.081499	1.029542
O11	O	1.449692	-0.387294	0.594772
O12	O	1.949692	0.112706	1.094772
O13	O	1.314705	-0.455745	0.333644
O14	O	1.814705	0.044255	0.833644
O15	O	1.207492	-0.256587	0.462865
O16	O	1.707492	0.243413	0.962865
O17	O	1.451296	-0.468861	0.488493
O18	O	1.951296	0.031139	0.988493
O19	O	1.310985	-0.266525	0.580192
O20	O	1.810985	0.233475	1.080192
O21	O	1.209608	-0.364239	0.322596
O22	O	1.709608	0.135761	0.822596
O23	O	1.055473	-0.363466	0.459909
O24	O	1.555473	0.136534	0.959909
O25	O	1.180375	-0.467501	0.729844
O26	O	1.680375	0.032499	1.229844
O27	O	1.043783	-0.454384	0.574995
O28	O	1.543783	0.045616	1.074995
O29	O	1.295557	-0.386520	0.732085
O30	O	1.795557	0.113480	1.232085
O31	O	1.299277	-0.575740	0.485536
O32	O	1.799277	-0.075740	0.985536
O33	O	1.182491	-0.575154	0.589575
O34	O	1.682491	-0.075154	1.089575
C35	C	1.017093	-0.407371	0.515490
C36	C	1.517093	0.092629	1.015490
C37	C	0.917426	-0.402627	0.509500
C38	C	1.417426	0.097373	1.009500
C39	C	0.718019	-0.488520	0.617937
C40	C	1.218019	0.011480	1.117937
C41	C	0.624373	-0.484065	0.612313
C42	C	1.124373	0.015935	1.112313
C43	C	0.636486	-0.389260	0.492632
C44	C	1.136486	0.110740	0.992632
C45	C	0.730132	-0.393715	0.498257
C46	C	1.230132	0.106285	0.998257
C47	C	0.770895	-0.443347	0.560910
C48	C	1.270895	0.056653	1.060910
C49	C	0.864543	-0.447805	0.566530
C50	C	1.364543	0.052195	1.066530
C51	C	0.876654	-0.352997	0.446854
C52	C	1.376654	0.147003	0.946854
C53	C	0.783008	-0.348542	0.441230
C54	C	1.283008	0.151458	0.941230
C55	C	1.239417	-0.600925	0.538877
C56	C	1.739417	-0.100925	1.038877
C57	C	1.234944	-0.678971	0.542906
C58	C	1.734944	-0.178971	1.042906
C59	C	1.293688	-0.715924	0.490681
C60	C	1.793688	-0.215924	0.990681
C61	C	1.289486	-0.789258	0.494476
C62	C	1.789486	-0.289258	0.994476
C63	C	1.226535	-0.825637	0.550491
C64	C	1.726535	-0.325637	1.050491
C65	C	1.167788	-0.788679	0.602721
C66	C	1.667788	-0.288679	1.102721
C67	C	1.171995	-0.715347	0.598931
C68	C	1.671995	-0.215347	1.098931
C69	C	1.210793	-1.047038	0.564647
C70	C	1.710793	-0.547038	1.064647
C71	C	1.206588	-1.120374	0.568432
C72	C	1.706588	-0.620374	1.068432
C73	C	1.328288	-1.120948	0.460187
C74	C	1.828288	-0.620948	0.960187
C75	C	1.332486	-1.047614	0.456398
C76	C	1.832486	-0.547614	0.956398
C77	C	1.273742	-1.010663	0.508632
C78	C	1.773742	-0.510663	1.008632
C79	C	1.222237	-0.900595	0.554369
C80	C	1.722237	-0.400595	1.054369
C81	C	1.278046	-0.935707	0.504758
C82	C	1.778046	-0.435707	1.004758
C83	C	1.483938	-0.429676	0.543650
C84	C	1.983938	0.070324	1.043650
C85	C	1.583603	-0.434437	0.549662
C86	C	2.083603	0.065563	1.049662
C87	C	1.235947	-0.428431	0.764574
C88	C	1.735947	0.071569	1.264574
C89	C	1.229933	-0.432662	0.864730
C90	C	1.729933	0.067338	1.364730
C91	C	1.260769	-0.235368	0.520192
C92	C	1.760769	0.264632	1.020192
C93	C	1.265333	-0.157327	0.516207
C94	C	1.765333	0.342673	1.016207
C95	C	1.338569	-0.356271	1.055269
C96	C	1.838569	0.143729	1.555269
C97	C	1.332921	-0.360245	1.149375
C98	C	1.832921	0.139755	1.649375
C99	C	1.212985	-0.444578	1.147050
C100	C	1.712985	0.055422	1.647050
C101	C	1.218633	-0.440604	1.052944
C102	C	1.718633	0.059396	1.552944
C103	C	1.281428	-0.396451	1.007057
C104	C	1.781428	0.103549	1.507057
C105	C	1.287080	-0.392481	0.912949
C106	C	1.787080	0.107519	1.412949
C107	C	1.167140	-0.476810	0.910626
C108	C	1.667140	0.023190	1.410626
C109	C	1.161492	-0.480784	1.004732
C110	C	1.661492	0.019216	1.504732
C111	C	1.264114	-0.408627	1.295425
C112	C	1.764114	0.091373	1.795425
C113	C	1.270132	-0.404397	1.195269
C114	C	1.770132	0.095603	1.695269
H115	H	0.603280	-0.348848	0.441628
H116	H	1.103280	0.151152	0.941628
H117	H	1.329304	-0.906085	0.459154
H118	H	1.829304	-0.406085	0.959154
C119	C	0.762861	-0.543117	0.686853
C120	C	1.262861	-0.043117	1.186853
N121	N	0.796634	-0.584241	0.738762
N122	N	1.296634	-0.084241	1.238762
H123	H	0.749806	-0.308131	0.390221
H124	H	1.249806	0.191869	0.890221
H125	H	1.110365	-0.516731	1.042106
H126	H	1.610365	-0.016731	1.542106
C127	C	0.566212	-0.533763	0.675042
C128	C	1.066212	-0.033763	1.175042
N129	N	0.522406	-0.571199	0.722290
N130	N	1.022406	-0.071199	1.222290
H131	H	0.919717	-0.316215	0.400416
H132	H	1.419717	0.183785	0.900416
C133	C	1.362938	-0.675913	0.429058
C134	C	1.862938	-0.175913	0.929058
N135	N	1.415102	-0.645780	0.382643
N136	N	1.915102	-0.145780	0.882643
H137	H	1.124160	-0.685261	0.641459
H138	H	1.624160	-0.185261	1.141459
H139	H	1.379449	-0.327525	1.188626
H140	H	1.879449	0.172475	1.688626
H141	H	1.170980	-0.930223	0.599975
H142	H	1.670980	-0.430223	1.099975
H143	H	1.338212	-0.356530	0.875590
H144	H	1.838212	0.143470	1.375590
H145	H	1.337322	-0.819341	0.451948
H146	H	1.837322	-0.319341	0.951948
H147	H	1.161860	-0.480525	1.184427
H148	H	1.661860	0.019475	1.684427
C149	C	1.401716	-1.007600	0.394752
C150	C	1.901716	-0.507600	0.894752
N151	N	1.453851	-0.977461	0.348309
N152	N	1.953851	-0.477461	0.848309
H153	H	1.120614	-0.509529	0.871362
H154	H	1.620614	-0.009529	1.371362
H155	H	1.376115	-1.151041	0.417662
H156	H	1.876115	-0.651041	0.917662
C157	C	1.146215	-1.006405	0.622156
C158	C	1.646215	-0.506405	1.122156
N159	N	1.097588	-0.975800	0.665492
N160	N	1.597588	-0.475800	1.165492
C161	C	0.909381	-0.502400	0.635451
C162	C	1.409381	-0.002400	1.135451
N163	N	0.943151	-0.543520	0.687368
N164	N	1.443151	-0.043520	1.187368
H165	H	1.116536	-0.818305	0.648334
H166	H	1.616536	-0.318305	1.148334
C167	C	1.407647	-0.307706	1.004791
C168	C	1.907647	0.192294	1.504791
N169	N	1.459678	-0.271125	0.966773
N170	N	1.959678	0.228875	1.466773
C171	C	1.137340	-1.160391	0.630061
C172	C	1.637340	-0.660391	1.130061
N173	N	1.085185	-1.190531	0.676479
N174	N	1.585185	-0.690531	1.176479
