data_functionalizedCrystal
_audit_creation_method	'MofGen! by Chris Wilmer'
_symmetry_space_group_name_H-M	'P1'
_symmetry_Int_Tables_number	1
_symmetry_cell_setting	triclinic
loop_
_symmetry_equiv_pos_as_xyz
  x,y,z
_cell_length_a	17.639181
_cell_length_b	18.050590
_cell_length_c	18.050582
_cell_angle_alpha	89.976663
_cell_angle_beta	101.211582
_cell_angle_gamma	78.826284
loop_
_atom_site_label
_atom_site_type_symbol
_atom_site_fract_x
_atom_site_fract_y
_atom_site_fract_z
Zn1	Zn	1.208258	-0.524973	-0.189949
Zn2	Zn	1.708258	-0.024973	0.310051
Zn3	Zn	1.208186	-0.649142	-0.065771
Zn4	Zn	1.708186	-0.149142	0.434229
Zn5	Zn	1.076102	-0.499908	-0.090925
Zn6	Zn	1.576102	0.000092	0.409075
Zn7	Zn	1.076069	-0.624043	-0.215064
Zn8	Zn	1.576069	-0.124043	0.284936
O9	O	1.142154	-0.574517	-0.140428
O10	O	1.642154	-0.074517	0.359572
O11	O	1.318848	-0.562438	-0.152438
O12	O	1.818848	-0.062438	0.347562
O13	O	1.190648	-0.629361	0.034814
O14	O	1.690648	-0.129361	0.534814
O15	O	1.093677	-0.399317	-0.104077
O16	O	1.593677	0.100683	0.395923
O17	O	1.318794	-0.653665	-0.061205
O18	O	1.818794	-0.153665	0.438795
O19	O	1.190772	-0.417732	-0.176830
O20	O	1.690772	0.082268	0.323170
O21	O	1.093607	-0.519719	0.016333
O22	O	1.593607	-0.019719	0.516333
O23	O	0.965499	-0.495381	-0.128431
O24	O	1.465499	0.004619	0.371569
O25	O	1.093621	-0.610886	-0.315654
O26	O	1.593621	-0.110886	0.184346
O27	O	0.965475	-0.586582	-0.219635
O28	O	1.465475	-0.086582	0.280365
O29	O	1.190740	-0.538100	-0.297202
O30	O	1.690740	-0.038100	0.202798
O31	O	1.190616	-0.749729	-0.085559
O32	O	1.690616	-0.249729	0.414441
O33	O	1.093551	-0.731288	-0.195244
O34	O	1.593551	-0.231288	0.304756
C35	C	0.936810	-0.535538	-0.179488
C36	C	1.436810	-0.035538	0.320512
C37	C	0.848962	-0.518881	-0.196216
C38	C	1.348962	-0.018881	0.303784
C39	C	1.142093	-0.767457	-0.140409
C40	C	1.642093	-0.267457	0.359591
C41	C	1.142139	-0.850012	-0.140413
C42	C	1.642139	-0.350012	0.359587
C43	C	0.559934	-0.701224	-0.013355
C44	C	1.059934	-0.201224	0.486645
C45	C	0.477388	-0.685562	-0.029080
C46	C	0.977388	-0.185562	0.470920
C47	C	0.477443	-0.590721	-0.124222
C48	C	0.977443	-0.090721	0.375778
C49	C	0.559990	-0.606372	-0.108503
C50	C	1.059990	-0.106372	0.391497
C51	C	0.601229	-0.661625	-0.053069
C52	C	1.101229	-0.161625	0.446931
C53	C	0.601285	-0.566773	-0.148217
C54	C	1.101285	-0.066773	0.351783
C55	C	0.683826	-0.582427	-0.132501
C56	C	1.183826	-0.082427	0.367499
C57	C	0.725071	-0.637679	-0.077071
C58	C	1.225071	-0.137679	0.422929
C59	C	0.683769	-0.677278	-0.037353
C60	C	1.183769	-0.177278	0.462647
C61	C	0.560045	-0.511524	-0.203654
C62	C	1.060045	-0.011524	0.296346
C63	C	0.601340	-0.471926	-0.243367
C64	C	1.101340	0.028074	0.256633
C65	C	0.683882	-0.487575	-0.227648
C66	C	1.183882	0.012425	0.272352
C67	C	0.725127	-0.542827	-0.172219
C68	C	1.225127	-0.042827	0.327781
C69	C	0.725183	-0.447975	-0.267366
C70	C	1.225183	0.052025	0.232634
C71	C	0.807723	-0.463628	-0.251650
C72	C	1.307723	0.036372	0.248350
C73	C	0.807667	-0.558480	-0.156503
C74	C	1.307667	-0.058480	0.343497
C75	C	1.195033	-1.059484	-0.080814
C76	C	1.695033	-0.559484	0.419186
C77	C	1.214334	-1.112485	-0.144921
C78	C	1.714334	-0.612485	0.355079
C79	C	1.142184	-1.001151	-0.140434
C80	C	1.642184	-0.501151	0.359566
C81	C	1.122965	-1.095247	-0.076342
C82	C	1.622965	-0.595247	0.423658
C83	C	1.142229	-1.147144	-0.140448
C84	C	1.642229	-0.647144	0.359552
C85	C	1.161522	-1.053071	-0.204569
C86	C	1.661522	-0.553071	0.295431
C87	C	1.070119	-1.035822	-0.135951
C88	C	1.570119	-0.535822	0.364049
C89	C	1.089392	-1.088795	-0.200110
C90	C	1.589392	-0.588795	0.299890
C91	C	1.142161	-0.917048	-0.140424
C92	C	1.642161	-0.417048	0.359576
C93	C	1.142253	-1.231245	-0.140465
C94	C	1.642253	-0.731245	0.359535
C95	C	1.348300	-0.613647	-0.101214
C96	C	1.848300	-0.113647	0.398786
C97	C	1.436147	-0.630323	-0.084504
C98	C	1.936147	-0.130323	0.415496
C99	C	1.142185	-0.574489	-0.334127
C100	C	1.642185	-0.074489	0.165873
C101	C	1.142198	-0.574478	-0.416671
C102	C	1.642198	-0.074478	0.083329
C103	C	1.142236	-0.380827	-0.140458
C104	C	1.642236	0.119173	0.359542
C105	C	1.142272	-0.298287	-0.140471
C106	C	1.642272	0.201713	0.359529
C107	C	1.089425	-0.613999	-0.626148
C108	C	1.589425	-0.113999	-0.126148
C109	C	1.161535	-0.645835	-0.661815
C110	C	1.661535	-0.145835	-0.161815
C111	C	1.142237	-0.574429	-0.567794
C112	C	1.642237	-0.074429	-0.067794
C113	C	1.070167	-0.542579	-0.679201
C114	C	1.570167	-0.042579	-0.179201
C115	C	1.142268	-0.574381	-0.713773
C116	C	1.642268	-0.074381	-0.213773
C117	C	1.214385	-0.606308	-0.602366
C118	C	1.714385	-0.106308	-0.102366
C119	C	1.122968	-0.503011	-0.619757
C120	C	1.622968	-0.003011	-0.119757
C121	C	1.195127	-0.534831	-0.655392
C122	C	1.695127	-0.034831	-0.155392
C123	C	1.142218	-0.574458	-0.483699
C124	C	1.642218	-0.074458	0.016301
C125	C	1.142296	-0.574354	-0.797864
C126	C	1.642296	-0.074354	-0.297864
C127	C	1.142169	-0.574499	0.052527
C128	C	1.642169	-0.074499	0.552527
C129	C	1.142309	-0.574330	0.135099
C130	C	1.642309	-0.074330	0.635099
H131	H	0.841246	-0.603468	-0.111358
H132	H	1.341246	-0.103468	0.388642
H133	H	0.443855	-0.545736	-0.169359
H134	H	0.943855	-0.045736	0.330641
H135	H	1.009205	-0.515662	-0.712498
H136	H	1.509205	-0.015662	-0.212498
C137	C	1.183611	-1.028025	-0.277799
C138	C	1.683611	-0.528025	0.222201
H139	H	1.183487	-0.975373	-0.277335
H140	H	1.683487	-0.475373	0.222665
H141	H	1.146322	-1.038243	-0.320138
H142	H	1.646322	-0.538243	0.179862
H143	H	1.234664	-1.055002	-0.281092
H144	H	1.734664	-0.555002	0.218908
C145	C	0.853151	-0.420071	-0.295333
C146	C	1.353151	0.079929	0.204667
H147	H	0.816770	-0.384918	-0.330593
H148	H	1.316770	0.115082	0.169407
H149	H	0.885356	-0.454632	-0.321507
H150	H	1.385356	0.045368	0.178493
H151	H	0.885347	-0.393778	-0.260846
H152	H	1.385347	0.106222	0.239154
C153	C	0.469252	-0.494302	-0.220944
C154	C	0.969252	0.005698	0.279056
H155	H	0.450606	-0.455732	-0.259652
H156	H	0.950606	0.044268	0.240348
H157	H	0.450564	-0.477847	-0.176602
H158	H	0.950564	0.022153	0.323398
H159	H	0.450574	-0.538706	-0.237259
H160	H	0.950574	-0.038706	0.262741
H161	H	1.239854	-0.501357	-0.668417
H162	H	1.739854	-0.001357	-0.168417
H163	H	1.106629	-0.442646	-0.601152
H164	H	1.606629	0.057354	-0.101152
H165	H	1.044718	-1.101854	-0.250583
H166	H	1.544718	-0.601854	0.249417
C167	C	0.987790	-0.990914	-0.130779
C168	C	1.487790	-0.490914	0.369221
H169	H	0.974195	-1.005250	-0.085181
H170	H	1.474195	-0.505250	0.414819
H171	H	0.950131	-1.001402	-0.172668
H172	H	1.450131	-0.501402	0.327332
H173	H	0.988260	-0.938378	-0.131278
H174	H	1.488260	-0.438378	0.368722
H175	H	0.792280	-0.650416	-0.064270
H176	H	1.292280	-0.150416	0.435730
C177	C	1.100972	-1.120436	-0.003117
C178	C	1.600972	-0.620436	0.496883
H179	H	1.138559	-1.110659	0.039194
H180	H	1.638559	-0.610659	0.539194
H181	H	1.100672	-1.173000	-0.003843
H182	H	1.600672	-0.673000	0.496157
H183	H	1.050122	-1.093175	0.000481
H184	H	1.550122	-0.593175	0.500481
C185	C	0.679818	-0.387208	-0.328346
C186	C	1.179818	0.112792	0.171654
H187	H	0.716234	-0.365870	-0.349753
H188	H	1.216234	0.134130	0.150247
H189	H	0.647608	-0.348704	-0.306135
H190	H	1.147608	0.151296	0.193865
H191	H	0.647633	-0.409569	-0.366785
H192	H	1.147633	0.090431	0.133215
C193	C	0.555973	-0.411148	-0.304337
C194	C	1.055973	0.088852	0.195663
H195	H	0.500900	-0.407493	-0.308006
H196	H	1.000900	0.092507	0.191994
H197	H	0.569516	-0.424647	-0.351639
H198	H	1.069516	0.075353	0.148361
H199	H	0.569508	-0.363801	-0.290969
H200	H	1.069508	0.136199	0.209031
C201	C	0.729138	-0.738060	0.023619
C202	C	1.229138	-0.238060	0.523619
H203	H	0.692724	-0.759407	0.045020
H204	H	1.192724	-0.259407	0.545020
H205	H	0.761337	-0.715717	0.062056
H206	H	1.261337	-0.215717	0.562056
H207	H	0.761334	-0.776564	0.001386
H208	H	1.261334	-0.276564	0.501386
H209	H	1.044806	-0.647525	-0.612967
H210	H	1.544806	-0.147525	-0.112967
C211	C	1.183577	-0.727396	-0.686940
C212	C	1.683577	-0.227396	-0.186940
H213	H	1.145992	-0.755463	-0.677197
H214	H	1.645992	-0.255463	-0.177197
H215	H	1.234423	-0.750278	-0.659627
H216	H	1.734423	-0.250278	-0.159627
H217	H	1.183896	-0.726762	-0.739504
H218	H	1.683896	-0.226762	-0.239504
H219	H	1.239741	-1.046295	-0.030436
H220	H	1.739741	-0.546295	0.469564
C221	C	1.296763	-0.642768	-0.557514
C222	C	1.796763	-0.142768	-0.057514
H223	H	1.331160	-0.657944	-0.591599
H224	H	1.831160	-0.157944	-0.091599
H225	H	1.293095	-0.685666	-0.528914
H226	H	1.793095	-0.185666	-0.028914
H227	H	1.316863	-0.607179	-0.524365
H228	H	1.816863	-0.107179	-0.024365
C229	C	0.605302	-0.762005	0.047617
C230	C	1.105302	-0.262005	0.547617
H231	H	0.568888	-0.783353	0.069018
H232	H	1.068888	-0.283353	0.569018
H233	H	0.637502	-0.739663	0.086054
H234	H	1.137502	-0.239663	0.586054
H235	H	0.637498	-0.800509	0.025384
H236	H	1.137498	-0.300509	0.525384
C237	C	0.431965	-0.729123	0.014610
C238	C	0.931965	-0.229123	0.514610
H239	H	0.468350	-0.764267	0.049876
H240	H	0.968350	-0.264267	0.549876
H241	H	0.399769	-0.755413	-0.019872
H242	H	0.899769	-0.255413	0.480128
H243	H	0.399762	-0.694560	0.040791
H244	H	0.899762	-0.194560	0.540791
H245	H	1.275297	-1.145709	-0.148726
H246	H	1.775297	-0.645709	0.351274
