data_functionalizedCrystal
_audit_creation_method	'MofGen! by Chris Wilmer'
_symmetry_space_group_name_H-M	'P1'
_symmetry_Int_Tables_number	1
_symmetry_cell_setting	triclinic
loop_
_symmetry_equiv_pos_as_xyz
  x,y,z
_cell_length_a	17.077404
_cell_length_b	16.959454
_cell_length_c	16.959447
_cell_angle_alpha	90.025463
_cell_angle_beta	90.018998
_cell_angle_gamma	90.020300
loop_
_atom_site_label
_atom_site_type_symbol
_atom_site_fract_x
_atom_site_fract_y
_atom_site_fract_z
Zn1	Zn	1.200066	-0.314671	0.446950
Zn2	Zn	1.700066	0.185329	0.946950
Zn3	Zn	1.199981	-0.446861	0.314780
Zn4	Zn	1.699981	0.053139	0.814780
Zn5	Zn	1.068799	-0.314701	0.314785
Zn6	Zn	1.568799	0.185299	0.814785
Zn7	Zn	1.068772	-0.446812	0.446916
Zn8	Zn	1.568772	0.053188	0.946916
O9	O	1.134405	-0.380761	0.380858
O10	O	1.634405	0.119239	0.880858
O11	O	1.309902	-0.332214	0.429429
O12	O	1.809902	0.167786	0.929429
O13	O	1.182555	-0.429362	0.204170
O14	O	1.682555	0.070638	0.704170
O15	O	1.086259	-0.204086	0.332334
O16	O	1.586259	0.295914	0.832334
O17	O	1.309839	-0.429333	0.332324
O18	O	1.809839	0.070667	0.832324
O19	O	1.182700	-0.204064	0.429435
O20	O	1.682700	0.295936	0.929435
O21	O	1.086176	-0.332264	0.204174
O22	O	1.586176	0.167736	0.704174
O23	O	0.958949	-0.332217	0.332301
O24	O	1.458949	0.167783	0.832301
O25	O	1.086213	-0.429251	0.557531
O26	O	1.586213	0.070749	1.057531
O27	O	0.958929	-0.429279	0.429377
O28	O	1.458929	0.070721	0.929377
O29	O	1.182674	-0.332167	0.557557
O30	O	1.682674	0.167833	1.057557
O31	O	1.182529	-0.557465	0.332291
O32	O	1.682529	-0.057465	0.832291
O33	O	1.086130	-0.557429	0.429371
O34	O	1.586130	-0.057429	0.929371
C35	C	0.930457	-0.380747	0.380836
C36	C	1.430457	0.119253	0.880836
C37	C	0.843207	-0.380760	0.380845
C38	C	1.343207	0.119240	0.880845
C39	C	0.802227	-0.431376	0.431312
C40	C	1.302227	0.068624	0.931312
C41	C	0.720247	-0.431378	0.431324
C42	C	1.220247	0.068622	0.931324
C43	C	0.679247	-0.380766	0.380866
C44	C	1.179247	0.119234	0.880866
C45	C	0.720233	-0.330145	0.330398
C46	C	1.220233	0.169855	0.830398
C47	C	0.802212	-0.330139	0.330389
C48	C	1.302212	0.169861	0.830389
C49	C	0.549363	-0.330160	0.330417
C50	C	1.049363	0.169840	0.830417
C51	C	0.467378	-0.330166	0.330423
C52	C	0.967378	0.169834	0.830423
C53	C	0.467398	-0.431398	0.431351
C54	C	0.967398	0.068602	0.931351
C55	C	0.549377	-0.431393	0.431343
C56	C	1.049377	0.068607	0.931343
C57	C	0.590356	-0.380772	0.380874
C58	C	1.090356	0.119228	0.880874
C59	C	1.134339	-0.586127	0.380844
C60	C	1.634339	-0.086127	0.880844
C61	C	1.134382	-0.673984	0.380865
C62	C	1.634382	-0.173984	0.880865
C63	C	1.084283	-1.045471	0.431402
C64	C	1.584283	-0.545471	0.931402
C65	C	1.184745	-1.045448	0.330394
C66	C	1.684745	-0.545448	0.830394
C67	C	1.184718	-0.962902	0.330387
C68	C	1.684718	-0.462902	0.830387
C69	C	1.134471	-0.921637	0.380887
C70	C	1.634471	-0.421637	0.880887
C71	C	1.084252	-0.962917	0.431394
C72	C	1.584252	-0.462917	0.931394
C73	C	1.234930	-0.921616	0.279875
C74	C	1.734930	-0.421616	0.779875
C75	C	1.234904	-0.839065	0.279865
C76	C	1.734904	-0.339065	0.779865
C77	C	1.184661	-0.797798	0.330370
C78	C	1.684661	-0.297798	0.830370
C79	C	1.134441	-0.839083	0.380880
C80	C	1.634441	-0.339083	0.880880
C81	C	1.084194	-0.797818	0.431380
C82	C	1.584194	-0.297818	0.931380
C83	C	1.033977	-0.839102	0.481895
C84	C	1.533977	-0.339102	0.981895
C85	C	1.034009	-0.921650	0.481899
C86	C	1.534009	-0.421650	0.981899
C87	C	1.184629	-0.715249	0.330365
C88	C	1.684629	-0.215249	0.830365
C89	C	1.084163	-0.715264	0.431372
C90	C	1.584163	-0.215264	0.931372
C91	C	1.339149	-0.380776	0.380880
C92	C	1.839149	0.119224	0.880880
C93	C	1.426399	-0.380782	0.380890
C94	C	1.926399	0.119218	0.880890
C95	C	1.134450	-0.380700	0.587026
C96	C	1.634450	0.119300	1.087026
C97	C	1.134470	-0.380674	0.674883
C98	C	1.634470	0.119326	1.174883
C99	C	1.134492	-0.174593	0.380889
C100	C	1.634492	0.325407	0.880889
C101	C	1.134529	-0.086736	0.380902
C102	C	1.634529	0.413264	0.880902
C103	C	1.134404	-0.380765	0.175492
C104	C	1.634404	0.119235	0.675492
C105	C	1.134537	-0.380568	0.087635
C106	C	1.634537	0.119432	0.587635
C107	C	1.184660	-0.431215	0.716156
C108	C	1.684660	0.068785	1.216156
C109	C	1.084293	-0.330113	0.716163
C110	C	1.584293	0.169887	1.216163
C111	C	1.084307	-0.330090	0.798709
C112	C	1.584307	0.169910	1.298709
C113	C	1.134497	-0.380631	0.839982
C114	C	1.634497	0.119369	1.339982
C115	C	1.184673	-0.431195	0.798710
C116	C	1.684673	0.068805	1.298710
C117	C	1.034126	-0.279533	0.839987
C118	C	1.534126	0.220467	1.339987
C119	C	1.034136	-0.279508	0.922538
C120	C	1.534136	0.220492	1.422538
C121	C	1.084331	-0.330046	0.963813
C122	C	1.584331	0.169954	1.463813
C123	C	1.134510	-0.380611	0.922536
C124	C	1.634510	0.119389	1.422536
C125	C	1.184700	-0.431152	0.963809
C126	C	1.684700	0.068848	1.463809
C127	C	1.234883	-0.481714	0.922533
C128	C	1.734883	0.018286	1.422533
C129	C	1.234867	-0.481733	0.839985
C130	C	1.734867	0.018267	1.339985
C131	C	1.084347	-0.330027	1.046362
C132	C	1.584347	0.169973	1.546362
C133	C	1.184713	-0.431132	1.046363
C134	C	1.684713	0.068868	1.546363
H135	H	0.582726	-0.288932	0.289326
H136	H	1.082726	0.211068	0.789326
H137	H	0.835577	-0.288918	0.289299
H138	H	1.335577	0.211082	0.789299
H139	H	1.043426	-0.288970	0.682553
H140	H	1.543426	0.211030	1.182553
C141	C	1.290138	-0.793660	0.224293
C142	C	1.790138	-0.293660	0.724293
N143	N	1.331740	-0.759460	0.182435
N144	N	1.831740	-0.259460	0.682435
C145	C	1.289972	-0.537426	0.967945
C146	C	1.789972	-0.037426	1.467945
N147	N	1.331422	-0.579430	1.002152
N148	N	1.831422	-0.079430	1.502152
H149	H	0.835603	-0.472592	0.472398
H150	H	1.335603	0.027408	0.972398
H151	H	1.225511	-0.681640	0.289233
H152	H	1.725511	-0.181640	0.789233
H153	H	0.434028	-0.472614	0.472448
H154	H	0.934028	0.027386	0.972448
H155	H	1.043400	-1.079088	0.472532
H156	H	1.543400	-0.579088	0.972532
C157	C	1.028897	-0.669879	0.486937
C158	C	1.528897	-0.169879	0.986937
N159	N	0.987272	-0.635695	0.528792
N160	N	1.487272	-0.135695	1.028792
H161	H	1.275832	-0.955220	0.238755
H162	H	1.775832	-0.455220	0.738755
C163	C	1.290059	-0.537352	0.794575
C164	C	1.790059	-0.037352	1.294575
N165	N	1.331625	-0.579247	0.760370
N166	N	1.831625	-0.079247	1.260370
C167	C	0.422281	-0.274488	0.274920
C168	C	0.922281	0.225512	0.774920
N169	N	0.388314	-0.232550	0.233114
N170	N	0.888314	0.267450	0.733114
H171	H	1.225588	-0.472286	1.079962
H172	H	1.725588	0.027714	1.579962
H173	H	1.225520	-0.472379	0.682546
H174	H	1.725520	0.027621	1.182546
C175	C	0.978707	-0.793699	0.537442
C176	C	1.478707	-0.293699	1.037442
N177	N	0.937080	-0.759499	0.579281
N178	N	1.437080	-0.259499	1.079281
C179	C	0.675172	-0.487075	0.486826
C180	C	1.175172	0.012925	0.986826
N181	N	0.641223	-0.529033	0.528628
N182	N	1.141223	-0.029033	1.028628
C183	C	1.240005	-1.090843	0.274839
C184	C	1.740005	-0.590843	0.774839
N185	N	1.281628	-1.125037	0.232992
N186	N	1.781628	-0.625037	0.732992
H187	H	0.993124	-0.955271	0.523025
H188	H	1.493124	-0.455271	1.023025
C189	C	0.978932	-0.223930	0.794582
C190	C	1.478932	0.276070	1.294582
N191	N	0.937365	-0.182042	0.760378
N192	N	1.437365	0.317958	1.260378
C193	C	0.978943	-0.223880	0.967934
C194	C	1.478943	0.276120	1.467934
N195	N	0.937374	-0.181977	1.002127
N196	N	1.437374	0.318023	1.502127
H197	H	0.582756	-0.472610	0.472427
H198	H	1.082756	0.027390	0.972427
C199	C	0.675131	-0.274470	0.274895
C200	C	1.175131	0.225530	0.774895
N201	N	0.641161	-0.232536	0.233087
N202	N	1.141161	0.267464	0.733087
C203	C	1.029148	-0.274413	1.091761
C204	C	1.529148	0.225587	1.591761
N205	N	0.987570	-0.232520	1.125956
N206	N	1.487570	0.267480	1.625956
