data_functionalizedCrystal
_audit_creation_method	'MofGen! by Chris Wilmer'
_symmetry_space_group_name_H-M	'P1'
_symmetry_Int_Tables_number	1
_symmetry_cell_setting	triclinic
loop_
_symmetry_equiv_pos_as_xyz
  x,y,z
_cell_length_a	14.044191
_cell_length_b	14.044190
_cell_length_c	10.065875
_cell_angle_alpha	99.589132
_cell_angle_beta	80.446775
_cell_angle_gamma	93.191777
loop_
_atom_site_label
_atom_site_type_symbol
_atom_site_fract_x
_atom_site_fract_y
_atom_site_fract_z
O1	O	1.289956	0.217353	-0.113453
O2	O	1.013285	0.209039	-0.113470
O3	O	1.147461	0.074863	-0.113435
O4	O	1.155780	0.351529	-0.113488
O5	O	1.121885	0.100560	0.113547
O6	O	0.987709	0.234736	0.113513
O7	O	1.264380	0.243051	0.113529
Zn8	Zn	1.121983	0.242974	0.149559
Zn9	Zn	1.155681	0.209116	-0.149500
O10	O	1.130203	0.377227	0.113494
C11	C	0.964875	0.218251	0.000020
C12	C	0.858732	0.207403	0.000015
C13	C	1.131036	0.052090	0.000060
C14	C	1.120187	-0.054052	0.000071
C15	C	0.613275	0.264504	0.000017
C16	C	0.664397	0.187589	0.000030
C17	C	0.772535	0.198616	0.000021
C18	C	0.505127	0.253478	0.000026
C19	C	1.177293	-0.299515	0.000021
C20	C	1.100376	-0.248391	0.000026
C21	C	1.111402	-0.140251	0.000051
C22	C	1.166270	-0.407665	-0.000004
C23	C	1.312790	0.233839	0.000036
C24	C	1.418934	0.244685	0.000032
C25	C	1.146629	0.399999	-0.000004
C26	C	1.157478	0.506141	-0.000024
N27	N	1.098993	0.266081	0.353659
N28	N	1.178679	0.186002	-0.353599
C29	C	1.147675	0.217149	0.421450
C30	C	1.129989	0.234941	0.578613
H31	H	0.626961	0.113447	-0.000052
O32	O	1.057447	0.307906	0.655826
H33	H	0.985007	0.286548	0.628514
O34	O	0.662869	0.362695	-0.000005
H35	H	0.652279	0.391546	-0.092523
H36	H	1.026245	-0.285838	0.000014
H37	H	1.233451	0.130930	0.588094
H38	H	1.251418	-0.262070	0.000040
O39	O	1.220202	0.144177	0.344228
H40	H	1.222701	0.141643	0.232904
O41	O	1.026440	0.339027	0.430881
H42	H	1.023940	0.341561	0.542204
