data_functionalizedCrystal
_audit_creation_method	'MofGen! by Chris Wilmer'
_symmetry_space_group_name_H-M	'P1'
_symmetry_Int_Tables_number	1
_symmetry_cell_setting	triclinic
loop_
_symmetry_equiv_pos_as_xyz
  x,y,z
_cell_length_a	16.959455
_cell_length_b	16.625539
_cell_length_c	16.959453
_cell_angle_alpha	90.027698
_cell_angle_beta	89.971083
_cell_angle_gamma	89.980159
loop_
_atom_site_label
_atom_site_type_symbol
_atom_site_fract_x
_atom_site_fract_y
_atom_site_fract_z
Zn1	Zn	1.208372	-0.455897	0.314692
Zn2	Zn	1.708372	0.044103	0.814692
Zn3	Zn	1.208261	-0.321066	0.446880
Zn4	Zn	1.708261	0.178934	0.946880
Zn5	Zn	1.076189	-0.321079	0.314719
Zn6	Zn	1.576189	0.178921	0.814719
Zn7	Zn	1.076144	-0.455857	0.446831
Zn8	Zn	1.576144	0.044143	0.946831
O9	O	1.142241	-0.388475	0.380781
O10	O	1.642241	0.111525	0.880781
O11	O	1.318968	-0.438022	0.332237
O12	O	1.818968	0.061978	0.832237
O13	O	1.190714	-0.208235	0.429381
O14	O	1.690714	0.291765	0.929381
O15	O	1.093789	-0.338986	0.204104
O16	O	1.593789	0.161014	0.704104
O17	O	1.318887	-0.338962	0.429355
O18	O	1.818887	0.161038	0.929355
O19	O	1.190903	-0.438036	0.204085
O20	O	1.690903	0.061964	0.704085
O21	O	1.093681	-0.208245	0.332282
O22	O	1.593681	0.291755	0.832282
O23	O	0.965572	-0.338947	0.332234
O24	O	1.465572	0.161053	0.832234
O25	O	1.093712	-0.568695	0.429271
O26	O	1.593712	-0.068695	0.929271
O27	O	0.965539	-0.437968	0.429297
O28	O	1.465539	0.062032	0.929297
O29	O	1.190859	-0.568724	0.332189
O30	O	1.690859	-0.068724	0.832189
O31	O	1.190670	-0.338924	0.557485
O32	O	1.690670	0.161076	1.057485
O33	O	1.093604	-0.437955	0.557449
O34	O	1.593604	0.062045	1.057449
C35	C	0.936875	-0.388455	0.380763
C36	C	1.436875	0.111545	0.880763
C37	C	0.849019	-0.388466	0.380775
C38	C	1.349019	0.111534	0.880775
C39	C	0.807700	-0.336816	0.431268
C40	C	1.307700	0.163184	0.931268
C41	C	0.807783	-0.440121	0.330288
C42	C	1.307783	0.059879	0.830288
C43	C	0.725237	-0.440131	0.330295
C44	C	1.225237	0.059869	0.830295
C45	C	0.683919	-0.388482	0.380788
C46	C	1.183919	0.111518	0.880788
C47	C	0.725147	-0.336823	0.431274
C48	C	1.225147	0.163177	0.931274
C49	C	0.684004	-0.491783	0.279803
C50	C	1.184004	0.008217	0.779803
C51	C	0.601453	-0.491794	0.279807
C52	C	1.101453	0.008206	0.779807
C53	C	0.560133	-0.440148	0.330304
C54	C	1.060133	0.059852	0.830304
C55	C	0.601366	-0.388488	0.380794
C56	C	1.101366	0.111512	0.880794
C57	C	0.560047	-0.336839	0.431287
C58	C	1.060047	0.163161	0.931287
C59	C	0.601278	-0.285182	0.481781
C60	C	1.101278	0.214818	0.981781
C61	C	0.683827	-0.285177	0.481772
C62	C	1.183827	0.214823	0.981772
C63	C	0.477584	-0.440153	0.330313
C64	C	0.977584	0.059847	0.830313
C65	C	0.477494	-0.336845	0.431293
C66	C	0.977494	0.163155	0.931293
C67	C	1.142293	-0.598784	0.380722
C68	C	1.642293	-0.098784	0.880722
C69	C	1.142315	-0.688405	0.380697
C70	C	1.642315	-0.188405	0.880697
C71	C	1.142351	-1.016581	0.380608
C72	C	1.642351	-0.516581	0.880608
C73	C	1.142339	-0.925272	0.380635
C74	C	1.642339	-0.425272	0.880635
C75	C	1.142333	-0.852496	0.380653
C76	C	1.642333	-0.352496	0.880653
C77	C	1.142320	-0.761182	0.380679
C78	C	1.642320	-0.261182	0.880679
C79	C	1.348410	-0.388495	0.380798
C80	C	1.848410	0.111505	0.880798
C81	C	1.436266	-0.388504	0.380806
C82	C	1.936266	0.111496	0.880806
C83	C	1.142141	-0.388451	0.586147
C84	C	1.642141	0.111549	1.086147
C85	C	1.142171	-0.388468	0.674004
C86	C	1.642171	0.111532	1.174004
C87	C	1.142236	-0.178984	0.380782
C88	C	1.642236	0.321016	0.880782
C89	C	1.142367	-0.089363	0.380585
C90	C	1.642367	0.410637	0.880585
C91	C	1.192763	-0.440166	1.045411
C92	C	1.692763	0.059834	1.545411
C93	C	1.091720	-0.336940	1.045548
C94	C	1.591720	0.163060	1.545548
C95	C	1.091704	-0.336919	0.963002
C96	C	1.591704	0.163081	1.463002
C97	C	1.142218	-0.388523	0.921656
C98	C	1.642218	0.111477	1.421656
C99	C	1.192748	-0.440148	0.962857
C100	C	1.692748	0.059852	1.462857
C101	C	1.041170	-0.285301	0.921795
C102	C	1.541170	0.214699	1.421795
C103	C	1.041151	-0.285279	0.839244
C104	C	1.541151	0.214721	1.339244
C105	C	1.091670	-0.336880	0.797897
C106	C	1.591670	0.163120	1.297897
C107	C	1.142202	-0.388506	0.839103
C108	C	1.642202	0.111494	1.339103
C109	C	1.192716	-0.440110	0.797758
C110	C	1.692716	0.059890	1.297758
C111	C	1.243253	-0.491733	0.838962
C112	C	1.743253	0.008267	1.338962
C113	C	1.243266	-0.491749	0.921510
C114	C	1.743266	0.008251	1.421510
C115	C	1.091657	-0.336864	0.715349
C116	C	1.591657	0.163136	1.215349
C117	C	1.192701	-0.440093	0.715204
C118	C	1.692701	0.059907	1.215204
C119	C	1.142322	-0.388523	1.174612
C120	C	1.642322	0.111477	1.674612
C121	C	1.142249	-0.388562	1.086756
C122	C	1.642249	0.111438	1.586756
H123	H	0.717405	-0.243118	0.522879
H124	H	1.217405	0.256882	1.022879
O125	O	0.561441	-0.542092	0.230849
O126	O	1.061441	-0.042092	0.730849
C127	C	0.581661	-0.622419	0.248206
C128	C	1.081661	-0.122419	0.748206
H129	H	0.604330	-0.626375	0.311355
H130	H	1.104330	-0.126375	0.811355
H131	H	0.527396	-0.662275	0.241451
H132	H	1.027396	-0.162275	0.741451
H133	H	0.629605	-0.643562	0.205849
H134	H	1.129605	-0.143562	0.705849
H135	H	0.443858	-0.294789	0.472414
H136	H	0.943858	0.205211	0.972414
H137	H	1.000003	-0.243245	0.805701
H138	H	1.500003	0.256755	1.305701
O139	O	1.292344	-0.541939	0.798917
O140	O	1.792344	-0.041939	1.298917
C141	C	1.336967	-0.587493	0.852979
C142	C	1.836967	-0.087493	1.352979
H143	H	1.304612	-0.590266	0.911850
H144	H	1.804612	-0.090266	1.411850
H145	H	1.345353	-0.651024	0.829077
H146	H	1.845353	-0.151024	1.329077
H147	H	1.397020	-0.558026	0.861726
H148	H	1.897020	-0.058026	1.361726
O149	O	1.042690	-0.286704	1.085619
O150	O	1.542690	0.213296	1.585619
C151	C	1.060021	-0.206352	1.065508
C152	C	1.560021	0.293648	1.565508
H153	H	1.090399	-0.204695	1.005553
H154	H	1.590399	0.295305	1.505553
H155	H	1.002995	-0.170142	1.062747
H156	H	1.502995	0.329858	1.562747
H157	H	1.100682	-0.179245	1.111961
H158	H	1.600682	0.320755	1.611961
O159	O	1.241735	-0.490397	1.085471
O160	O	1.741735	0.009603	1.585471
C161	C	1.196711	-0.542425	1.133233
C162	C	1.696711	-0.042425	1.633233
H163	H	1.134449	-0.547341	1.108396
H164	H	1.634449	-0.047341	1.608396
H165	H	1.225262	-0.604505	1.134112
H166	H	1.725262	-0.104505	1.634112
H167	H	1.194014	-0.517502	1.195813
H168	H	1.694014	-0.017502	1.695813
O169	O	0.437567	-0.490441	0.281356
O170	O	0.937567	0.009559	0.781356
C171	C	0.457782	-0.570772	0.298705
C172	C	0.957782	-0.070772	0.798705
H173	H	0.480453	-0.574735	0.361852
H174	H	0.980453	-0.074735	0.861852
H175	H	0.403515	-0.610623	0.291948
H176	H	0.903515	-0.110623	0.791948
H177	H	0.505723	-0.591913	0.256344
H178	H	1.005723	-0.091913	0.756344
H179	H	1.284410	-0.533778	0.955066
H180	H	1.784410	-0.033778	1.455066
O181	O	1.042460	-0.286768	0.675409
O182	O	1.542460	0.213232	1.175409
C183	C	0.963675	-0.304344	0.695606
C184	C	1.463675	0.195656	1.195606
H185	H	0.962033	-0.335350	0.755523
H186	H	1.462033	0.164650	1.255523
H187	H	0.928257	-0.246125	0.698491
H188	H	1.428257	0.253875	1.198491
H189	H	0.937028	-0.345769	0.649136
H190	H	1.437028	0.154231	1.149136
H191	H	1.000042	-0.243290	0.955464
H192	H	1.500042	0.256710	1.455464
O193	O	0.561103	-0.235126	0.530912
O194	O	1.061103	0.264874	1.030912
C195	C	0.513329	-0.280950	0.582000
C196	C	1.013329	0.219050	1.082000
H197	H	0.538231	-0.344443	0.586957
H198	H	1.038231	0.155557	1.086957
H199	H	0.512343	-0.251685	0.642796
H200	H	1.012343	0.248315	1.142796
H201	H	0.450782	-0.283776	0.557559
H202	H	0.950782	0.216224	1.057559
H203	H	0.841274	-0.294761	0.472381
H204	H	1.341274	0.205239	0.972381
H205	H	0.717651	-0.533830	0.238692
H206	H	1.217651	-0.033830	0.738692
O207	O	0.848039	-0.490263	0.281315
O208	O	1.348039	0.009737	0.781315
C209	C	0.929739	-0.479162	0.292119
C210	C	1.429739	0.020838	0.792119
H211	H	0.940976	-0.452647	0.353086
H212	H	1.440976	0.047353	0.853086
H213	H	0.961144	-0.539562	0.286826
H214	H	1.461144	-0.039562	0.786826
H215	H	0.953164	-0.436302	0.245180
H216	H	1.453164	0.063698	0.745180
H217	H	1.233839	-0.482112	0.681546
H218	H	1.733839	0.017888	1.181546
