data_functionalizedCrystal
_audit_creation_method	'MofGen! by Chris Wilmer'
_symmetry_space_group_name_H-M	'P1'
_symmetry_Int_Tables_number	1
_symmetry_cell_setting	triclinic
loop_
_symmetry_equiv_pos_as_xyz
  x,y,z
_cell_length_a	11.792241
_cell_length_b	10.654550
_cell_length_c	10.868271
_cell_angle_alpha	90.003964
_cell_angle_beta	90.000107
_cell_angle_gamma	84.339159
loop_
_atom_site_label
_atom_site_type_symbol
_atom_site_fract_x
_atom_site_fract_y
_atom_site_fract_z
O1	O	-1.507306	-0.172136	-0.102199
O2	O	-1.007306	0.327864	0.397801
O3	O	-1.177006	-0.189876	-0.102228
O4	O	-0.677006	0.310124	0.397772
O5	O	-1.349750	0.001754	-0.102208
O6	O	-0.849750	0.501754	0.397792
O7	O	-1.334562	-0.363767	-0.102219
O8	O	-0.834562	0.136233	0.397781
O9	O	-1.349736	0.001762	0.102436
O10	O	-0.849736	0.501762	0.602436
O11	O	-1.176992	-0.189869	0.102417
O12	O	-0.676992	0.310131	0.602417
O13	O	-1.507292	-0.172129	0.102445
O14	O	-1.007292	0.327871	0.602445
Zn15	Zn	-1.342139	-0.180998	0.134923
Zn16	Zn	-0.842139	0.319002	0.634923
Zn17	Zn	-1.342158	-0.181007	-0.134705
Zn18	Zn	-0.842158	0.318993	0.365295
O19	O	-1.334547	-0.363759	0.102426
O20	O	-0.834547	0.136241	0.602426
C21	C	-1.134705	-0.188758	0.000091
C22	C	-0.634705	0.311242	0.500091
C23	C	-1.008684	-0.185423	0.000080
C24	C	-0.508684	0.314577	0.500080
C25	C	-1.348628	0.048553	0.000112
C26	C	-0.848628	0.548553	0.500112
C27	C	-1.345291	0.187987	0.000108
C28	C	-0.845291	0.687987	0.500108
C29	C	-1.549592	-0.173247	0.000124
C30	C	-1.049592	0.326753	0.500124
C31	C	-1.675614	-0.176582	0.000127
C32	C	-1.175614	0.323418	0.500127
C33	C	-0.777957	-0.179290	0.000116
C34	C	-0.277957	0.320710	0.500116
C35	C	-0.906351	-0.182697	0.000096
C36	C	-0.406351	0.317303	0.500096
C37	C	-1.335670	-0.410558	0.000102
C38	C	-0.835670	0.089442	0.500102
C39	C	-1.339006	-0.549992	0.000099
C40	C	-0.839006	-0.049992	0.500099
N41	N	-1.342135	-0.180990	0.318937
N42	N	-0.842135	0.319010	0.818937
C43	C	-1.447000	0.267760	0.000120
C44	C	-0.947000	0.767760	0.500120
C45	C	-1.443858	0.398772	0.000111
C46	C	-0.943858	0.898772	0.500111
C47	C	-1.237290	0.370224	0.000083
C48	C	-0.737290	0.870224	0.500083
C49	C	-1.240433	0.239215	0.000083
C50	C	-0.740433	0.739215	0.500083
C51	C	-1.551859	0.216532	0.000145
C52	C	-1.051859	0.716532	0.500145
C53	C	-1.653577	0.296307	0.000159
C54	C	-1.153577	0.796307	0.500159
C55	C	-1.650435	0.427319	0.000150
C56	C	-1.150435	0.927319	0.500150
C57	C	-1.545575	0.478556	0.000128
C58	C	-1.045575	0.978556	0.500128
N59	N	-1.342172	-0.181005	-0.318719
N60	N	-0.842172	0.318995	0.181281
C61	C	-1.342152	-0.181005	0.569943
C62	C	-0.842152	0.318995	1.069943
C63	C	-1.342139	-0.181000	0.430265
C64	C	-0.842139	0.319000	0.930265
H65	H	-1.554429	0.109857	0.000156
H66	H	-1.054429	0.609857	0.500156
H67	H	-1.738949	0.254580	0.000147
H68	H	-1.238949	0.754580	0.500147
F69	F	-1.542237	0.617993	0.000159
F70	F	-1.042237	1.117993	0.500159
F71	F	-1.758689	0.512217	0.000152
F72	F	-1.258689	1.012217	0.500152
F73	F	-1.125699	0.424760	0.000060
F74	F	-0.625699	0.924760	0.500060
F75	F	-1.132182	0.154310	0.000069
F76	F	-0.632182	0.654310	0.500069
