data_functionalizedCrystal
_audit_creation_method	'MofGen! by Chris Wilmer'
_symmetry_space_group_name_H-M	'P1'
_symmetry_Int_Tables_number	1
_symmetry_cell_setting	triclinic
loop_
_symmetry_equiv_pos_as_xyz
  x,y,z
_cell_length_a	11.026660
_cell_length_b	11.026607
_cell_length_c	8.140239
_cell_angle_alpha	89.998310
_cell_angle_beta	89.997624
_cell_angle_gamma	108.585426
loop_
_atom_site_label
_atom_site_type_symbol
_atom_site_fract_x
_atom_site_fract_y
_atom_site_fract_z
O1	O	1.726715	0.533602	-0.136615
O2	O	1.360139	0.472843	-0.136616
O3	O	1.513046	0.319933	-0.136610
O4	O	1.573809	0.686512	-0.136621
O5	O	1.513034	0.319928	0.136617
O6	O	1.360127	0.472838	0.136611
O7	O	1.726704	0.533598	0.136612
Zn8	Zn	1.543414	0.503217	0.179992
Zn9	Zn	1.543429	0.503223	-0.179996
O10	O	1.573797	0.686508	0.136606
C11	C	1.312474	0.461631	-0.000003
C12	C	1.170461	0.428216	-0.000004
C13	C	1.501830	0.272271	0.000002
C14	C	1.468414	0.130257	-0.000004
C15	C	0.970035	0.485957	-0.000010
C16	C	1.116813	0.520496	-0.000008
C17	C	1.774369	0.544809	-0.000005
C18	C	1.916382	0.578225	-0.000015
C19	C	1.560682	0.076607	-0.000006
C20	C	1.526147	-0.070171	-0.000012
C21	C	1.585013	0.734169	-0.000009
C22	C	1.618429	0.876183	-0.000014
N23	N	1.543413	0.503214	0.425675
N24	N	1.543438	0.503218	-0.425679
H25	H	1.179538	0.625067	-0.000001
C26	C	1.759700	-0.039093	-0.000011
C27	C	1.812193	0.055457	0.141873
C28	C	1.953461	0.140180	0.141876
C29	C	2.042236	0.130351	-0.000003
C30	C	1.989745	0.035797	-0.141897
C31	C	1.848477	-0.048925	-0.141901
H32	H	1.746475	0.062737	0.246910
H33	H	1.992318	0.210175	0.246916
H34	H	2.146812	0.193068	-0.000001
H35	H	2.055463	0.028518	-0.246934
H36	H	1.809619	-0.118921	-0.246941
C37	C	1.085740	0.286943	-0.000006
C38	C	1.095570	0.198169	0.141873
C39	C	1.010851	0.056899	0.141868
C40	C	0.916302	0.004404	-0.000015
C41	C	0.906469	0.093179	-0.141905
C42	C	0.991188	0.234449	-0.141900
H43	H	1.165564	0.237028	0.246913
H44	H	1.018131	-0.008818	0.246905
H45	H	0.853588	-0.100173	-0.000019
H46	H	0.836475	0.054320	-0.246945
H47	H	0.983908	0.300167	-0.246937
H48	H	0.907305	0.381394	0.000017
H49	H	0.979112	0.682788	-0.000008
H50	H	1.665244	0.139339	0.000004
H51	H	1.421578	-0.132899	-0.000023
H52	H	1.363852	0.067525	-0.000015
