data_functionalizedCrystal
_audit_creation_method	'MofGen! by Chris Wilmer'
_symmetry_space_group_name_H-M	'P1'
_symmetry_Int_Tables_number	1
_symmetry_cell_setting	triclinic
loop_
_symmetry_equiv_pos_as_xyz
  x,y,z
_cell_length_a	10.686220
_cell_length_b	10.685194
_cell_length_c	10.686551
_cell_angle_alpha	98.415440
_cell_angle_beta	89.691918
_cell_angle_gamma	99.069756
loop_
_atom_site_label
_atom_site_type_symbol
_atom_site_fract_x
_atom_site_fract_y
_atom_site_fract_z
Zn1	Zn	1.946781	-0.311311	0.540461
Zn2	Zn	1.911615	-0.542431	0.314426
Zn3	Zn	1.718223	-0.343976	0.344478
Zn4	Zn	1.718258	-0.539843	0.540385
O5	O	1.823719	-0.434390	0.434938
O6	O	2.118689	-0.329382	0.497932
O7	O	1.871230	-0.530859	0.141828
O8	O	1.763244	-0.160946	0.383085
O9	O	2.092853	-0.499185	0.331864
O10	O	1.931165	-0.136948	0.527073
O11	O	1.729146	-0.385055	0.163907
O12	O	1.541655	-0.382545	0.383011
O13	O	1.763303	-0.494775	0.716980
O14	O	1.541680	-0.526449	0.526943
O15	O	1.931198	-0.326873	0.717036
O16	O	1.871264	-0.720784	0.331791
O17	O	1.729204	-0.718883	0.497802
C18	C	1.495884	-0.457762	0.458231
C19	C	1.355634	-0.467788	0.468224
C20	C	1.796458	-0.766163	0.411552
C21	C	1.784915	-0.908084	0.401582
C22	C	2.152835	-0.410928	0.411554
C23	C	2.293085	-0.400930	0.401589
C24	C	1.851177	-0.406891	0.764075
C25	C	1.862878	-0.395173	0.904333
C26	C	1.851123	-0.101318	0.458440
C27	C	1.862801	0.040618	0.468455
C28	C	1.796448	-0.461685	0.107083
C29	C	1.785022	-0.473026	-0.033167
H30	H	1.301883	-0.532711	0.532913
H31	H	1.938317	-0.894726	0.533341
H32	H	1.709385	-0.972749	0.336703
O33	O	1.952979	-0.304983	0.968705
C34	C	1.945015	-0.312976	1.099112
H35	H	1.845673	-0.360269	1.120957
H36	H	2.017354	-0.372548	1.126400
C37	C	2.094805	-0.119262	1.148359
C38	C	1.972788	-0.177338	1.175191
H39	H	2.111942	-0.035596	1.195290
H40	H	2.100175	-0.113879	1.060501
H41	H	2.155073	-0.168919	1.171099
H42	H	1.912522	-0.127690	1.152437
H43	H	1.967409	-0.182710	1.263048
O44	O	1.694948	-0.563413	0.902696
C45	C	1.714689	-0.686063	0.923898
H46	H	1.817954	-0.682318	0.952603
H47	H	1.650588	-0.717961	1.002749
C48	C	1.556517	-0.786608	0.766513
C49	C	1.683352	-0.782010	0.801758
H50	H	1.537182	-0.845795	0.691174
H51	H	1.543213	-0.703977	0.752232
H52	H	1.503115	-0.813186	0.832232
H53	H	1.736752	-0.755417	0.736046
H54	H	1.696664	-0.864639	0.816026
O55	O	1.357311	-0.323659	0.324327
C56	C	1.420740	-0.397670	0.232207
H57	H	1.436118	-0.489419	0.268347
H58	H	1.361065	-0.422953	0.141262
C59	C	1.530977	-0.207738	0.161222
C60	C	1.549874	-0.320421	0.205615
H61	H	1.610631	-0.160087	0.144813
H62	H	1.488241	-0.157874	0.223281
H63	H	1.481244	-0.228824	0.085440
H64	H	1.599592	-0.299334	0.281403
H65	H	1.592622	-0.370280	0.143567
