data_functionalizedCrystal
_audit_creation_method	'MofGen! by Chris Wilmer'
_symmetry_space_group_name_H-M	'P1'
_symmetry_Int_Tables_number	1
_symmetry_cell_setting	triclinic
loop_
_symmetry_equiv_pos_as_xyz
  x,y,z
_cell_length_a	23.532407
_cell_length_b	23.532416
_cell_length_c	9.730223
_cell_angle_alpha	89.996226
_cell_angle_beta	89.998953
_cell_angle_gamma	97.149538
loop_
_atom_site_label
_atom_site_type_symbol
_atom_site_fract_x
_atom_site_fract_y
_atom_site_fract_z
O1	O	0.755261	-0.069136	0.114111
O2	O	0.589398	-0.079139	0.114151
O3	O	0.677329	0.008794	0.114130
O4	O	0.667331	-0.157069	0.114133
O5	O	0.677322	0.008799	-0.114450
O6	O	0.589391	-0.079134	-0.114429
O7	O	0.755254	-0.069131	-0.114468
Zn8	Zn	0.672322	-0.074131	-0.150741
Zn9	Zn	0.672331	-0.074138	0.150423
O10	O	0.667324	-0.157063	-0.114447
C11	C	0.568179	-0.078882	-0.000134
C12	C	0.504962	-0.078116	-0.000119
C13	C	0.105860	-0.125349	-0.000180
C14	C	0.046460	-0.124638	-0.000189
O15	O	0.009717	-0.168423	-0.000238
N16	N	0.023832	-0.072361	-0.000187
C17	C	0.060608	-0.020793	-0.000192
O18	O	0.035907	0.023737	-0.000193
C19	C	0.120007	-0.021506	-0.000193
C20	C	0.142631	-0.073785	-0.000180
C21	C	0.128485	-0.177624	-0.000169
C22	C	0.187881	-0.178335	-0.000158
C23	C	0.224652	-0.126771	-0.000158
C24	C	0.202028	-0.074496	-0.000169
C25	C	0.156782	0.030062	-0.000207
C26	C	0.216185	0.029345	-0.000210
C27	C	0.238809	-0.022934	-0.000197
C28	C	0.298195	-0.023643	-0.000158
N29	N	0.320823	-0.075919	-0.000160
C30	C	0.284052	-0.127483	-0.000160
C31	C	-0.064135	-0.019302	-0.000191
C32	C	-0.123532	-0.018589	-0.000180
C33	C	-0.137677	-0.122434	-0.000179
C34	C	-0.078277	-0.123146	-0.000181
C35	C	-0.041507	-0.071578	-0.000192
C36	C	0.408788	-0.128973	-0.000135
C37	C	0.468190	-0.129680	-0.000119
C38	C	0.482329	-0.025836	-0.000126
C39	C	0.422933	-0.025129	-0.000136
C40	C	0.386163	-0.076702	-0.000145
O41	O	0.334973	0.020119	-0.000115
O42	O	0.308761	-0.172006	-0.000177
C43	C	0.677070	0.030013	-0.000158
C44	C	0.676302	0.093229	-0.000149
C45	C	0.673040	0.366471	0.124450
C46	C	0.673754	0.307071	0.124451
O47	O	0.674145	0.276344	0.230415
N48	N	0.674103	0.277371	-0.000149
C49	C	0.673745	0.307076	-0.124759
O50	O	0.674108	0.276360	-0.230741
C51	C	0.673036	0.366476	-0.124759
C52	C	0.672681	0.396171	-0.000151
C53	C	0.672686	0.396166	0.249048
C54	C	0.671972	0.455562	0.249046
C55	C	0.671612	0.485262	0.124445
C56	C	0.671967	0.455567	-0.000153
C57	C	0.672682	0.396180	-0.249368
C58	C	0.671973	0.455583	-0.249357
C59	C	0.671618	0.485279	-0.124749
C60	C	0.670893	0.544663	-0.124756
N61	N	0.670544	0.574362	-0.000155
C62	C	0.670903	0.544662	0.124445
C63	C	0.675234	0.182333	-0.124749
C64	C	0.675939	0.122934	-0.124750
C65	C	0.675949	0.122933	0.124461
C66	C	0.675240	0.182333	0.124460
C67	C	0.674885	0.212033	-0.000149
C68	C	0.669403	0.669397	0.124431
C69	C	0.668687	0.728798	0.124418
C70	C	0.668680	0.728794	-0.124792
C71	C	0.669393	0.669398	-0.124780
C72	C	0.669757	0.639701	-0.000157
O73	O	0.670503	0.575428	-0.230665
O74	O	0.670548	0.575386	0.230409
C75	C	0.776474	-0.069388	-0.000181
C76	C	0.839691	-0.070154	-0.000187
C77	C	0.667577	0.821717	-0.000164
C78	C	0.668327	0.758498	-0.000183
N79	N	0.672320	-0.074126	-0.356277
C80	C	0.637990	-0.039769	-0.572132
C81	C	0.637982	-0.039761	-0.428249
C82	C	0.706671	-0.108497	-0.428196
C83	C	0.706681	-0.108502	-0.572076
N84	N	0.672337	-0.074139	0.355960
H85	H	0.378857	-0.170969	-0.000147
H86	H	0.668396	0.752973	0.225893
H87	H	-0.034198	0.022693	-0.000188
O88	O	0.743734	-0.145569	-0.649648
H89	H	0.716265	-0.176314	-0.715214
O90	O	0.132396	0.086453	-0.000238
H91	H	0.105674	0.089277	0.092926
H92	H	0.610025	-0.011788	-0.630721
H93	H	0.669700	0.645225	0.225911
H94	H	0.676240	0.098740	0.225917
O95	O	0.492587	-0.186072	-0.000118
H96	H	0.519302	-0.188891	0.093057
O97	O	0.600933	-0.002695	-0.350685
H98	H	0.577051	0.021193	-0.424904
H99	H	0.206296	-0.220907	-0.000147
O100	O	0.743704	-0.145568	-0.350579
H101	H	0.737922	-0.139798	-0.238448
O102	O	-0.147933	0.037797	-0.000190
H103	H	-0.112379	0.073530	-0.000202
H104	H	-0.059861	-0.165716	-0.000178
O105	O	0.088828	-0.233244	-0.000163
H106	H	0.114550	-0.269708	-0.000147
O107	O	-0.177342	-0.178053	-0.000202
H108	H	-0.222445	-0.168770	-0.000223
H109	H	0.672981	0.371991	0.350518
O110	O	0.255846	0.084966	-0.000216
H111	H	0.230130	0.121434	-0.000215
H112	H	0.404511	0.017441	-0.000126
H113	H	0.671687	0.479735	0.350515
O114	O	0.521994	0.029779	-0.000146
H115	H	0.567098	0.020496	-0.000159
O116	O	0.674852	0.214360	0.258856
H117	H	0.675220	0.183722	0.345491
H118	H	0.676218	0.098760	-0.226219
O119	O	0.674840	0.214365	-0.259156
H120	H	0.675196	0.183729	-0.345788
H121	H	0.672977	0.372013	-0.350838
O122	O	0.671586	0.487618	-0.383760
H123	H	0.671947	0.456984	-0.470397
H124	H	0.669660	0.645216	-0.226246
H125	H	0.668385	0.752987	-0.226239
