data_functionalizedCrystal
_audit_creation_method	'MofGen! by Chris Wilmer'
_symmetry_space_group_name_H-M	'P1'
_symmetry_Int_Tables_number	1
_symmetry_cell_setting	triclinic
loop_
_symmetry_equiv_pos_as_xyz
  x,y,z
_cell_length_a	14.908571
_cell_length_b	21.295417
_cell_length_c	14.908858
_cell_angle_alpha	86.665490
_cell_angle_beta	89.795097
_cell_angle_gamma	86.726349
loop_
_atom_site_label
_atom_site_type_symbol
_atom_site_fract_x
_atom_site_fract_y
_atom_site_fract_z
Zn1	Zn	1.345252	-0.281183	-0.587550
Zn2	Zn	1.353799	-0.392860	-0.437169
Zn3	Zn	1.203561	-0.281898	-0.428544
Zn4	Zn	1.194836	-0.380704	-0.578826
O5	O	1.274362	-0.334161	-0.508022
O6	O	1.472211	-0.300785	-0.574863
O7	O	1.341098	-0.383527	-0.310196
O8	O	1.222431	-0.193715	-0.449679
O9	O	1.478490	-0.382834	-0.464378
O10	O	1.326531	-0.193189	-0.566500
O11	O	1.230718	-0.302004	-0.303860
O12	O	1.076578	-0.290216	-0.441219
O13	O	1.207561	-0.362115	-0.705812
O14	O	1.070168	-0.362809	-0.551630
O15	O	1.318071	-0.288998	-0.712222
O16	O	1.332638	-0.479336	-0.455918
O17	O	1.215848	-0.470404	-0.559993
C18	C	1.040748	-0.325271	-0.494542
C19	C	0.940806	-0.321483	-0.488797
C20	C	0.746386	-0.390085	-0.592817
C21	C	0.652481	-0.386527	-0.587422
C22	C	0.659089	-0.310805	-0.472616
C23	C	0.752994	-0.314363	-0.478011
C24	C	0.796639	-0.354005	-0.538113
C25	C	0.890546	-0.357566	-0.543503
C26	C	0.897152	-0.281842	-0.428703
C27	C	0.803247	-0.278284	-0.423307
C28	C	1.274247	-0.497710	-0.507966
C29	C	1.274278	-0.567679	-0.507976
C30	C	1.335138	-0.605175	-0.453846
C31	C	1.335179	-0.670918	-0.453869
C32	C	1.274345	-0.699163	-0.508011
C33	C	1.213480	-0.661659	-0.562152
C34	C	1.213447	-0.595917	-0.562135
N35	N	1.195292	-0.799147	-0.510327
N36	N	1.195326	-0.861600	-0.510339
C37	C	1.274442	-0.897239	-0.508069
N38	N	1.353525	-0.868068	-0.505769
N39	N	1.353490	-0.805610	-0.505753
C40	C	1.274374	-0.770449	-0.508037
C41	C	1.335352	-1.006022	-0.453961
C42	C	1.335394	-1.071766	-0.453990
C43	C	1.213687	-1.062505	-0.562267
C44	C	1.213653	-0.996762	-0.562244
C45	C	1.274484	-0.968525	-0.508085
C46	C	1.508888	-0.343086	-0.521556
C47	C	1.608829	-0.346889	-0.527323
C48	C	1.260889	-0.324121	-0.742555
C49	C	1.255148	-0.319842	-0.842499
C50	C	1.274501	-0.169973	-0.508100
C51	C	1.274560	-0.100006	-0.508133
C52	C	1.189594	-0.271368	-0.980066
C53	C	1.194985	-0.275387	-0.886159
C54	C	1.309926	-0.360280	-0.892751
C55	C	1.304535	-0.356261	-0.986658
C56	C	1.244366	-0.311804	-1.030311
C57	C	1.238971	-0.307789	-1.124219
C58	C	1.353917	-0.392678	-1.130810
C59	C	1.359308	-0.396697	-1.036904
C60	C	1.287834	-0.344119	-0.274405
C61	C	1.293749	-0.348227	-0.174472
H62	H	0.938078	-0.252464	-0.384156
N63	N	0.614501	-0.270320	-0.411221
N64	N	0.629724	-0.278355	-0.328839
H65	H	0.598235	-0.249761	-0.285477
N66	N	0.758646	-0.237792	-0.361928
N67	N	0.674803	-0.234618	-0.357121
H68	H	0.643304	-0.206021	-0.313770
N69	N	1.397280	-0.576342	-0.398522
N70	N	1.451618	-0.609834	-0.350196
H71	H	1.495507	-0.589470	-0.311123
H72	H	1.384742	-0.701453	-0.409790
N73	N	1.151350	-0.690517	-0.617458
N74	N	1.151386	-0.749215	-0.617466
H75	H	1.107508	-0.769597	-0.656530
N76	N	1.409865	-0.433996	-1.182124
N77	N	1.404447	-0.492302	-1.171255
H78	H	1.443955	-0.521486	-1.207495
N79	N	1.371389	-0.405680	-0.848146
N80	N	1.431711	-0.387953	-0.799060
H81	H	1.475118	-0.420017	-0.767554
H82	H	1.163886	-0.565387	-0.606215
H83	H	0.926080	-0.389846	-0.592440
N84	N	1.397493	-0.977183	-0.398637
N85	N	1.451835	-1.010672	-0.350315
H86	H	1.495723	-0.990307	-0.311241
N87	N	1.397581	-1.110060	-0.398700
N88	N	1.451890	-1.084836	-0.350357
H89	H	1.495813	-1.111881	-0.311309
N90	N	1.151533	-1.091338	-0.617572
N91	N	1.097191	-1.057848	-0.665894
H92	H	1.053293	-1.078213	-0.704958
N93	N	1.151477	-0.958467	-0.617541
N94	N	1.097167	-0.983690	-0.665882
H95	H	1.053254	-0.956645	-0.704942
N96	N	1.177503	-0.262380	-1.168798
N97	N	1.128605	-0.226280	-1.123921
H98	H	1.085193	-0.194207	-1.155401
N99	N	1.128135	-0.225955	-1.024649
N100	N	1.134743	-0.168545	-1.014532
H101	H	1.091336	-0.136470	-1.046017
N102	N	1.139050	-0.234075	-0.834833
N103	N	1.144466	-0.175769	-0.845693
H104	H	1.104963	-0.146589	-0.809443
N105	N	0.790961	-0.430587	-0.654198
N106	N	0.746081	-0.462805	-0.703030
H107	H	0.777559	-0.491412	-0.746381
N108	N	0.601162	-0.423382	-0.643311
N109	N	0.640146	-0.458770	-0.696969
H110	H	0.603902	-0.484800	-0.736446
N111	N	1.420764	-0.442100	-0.992295
N112	N	1.425572	-0.445682	-0.908450
H113	H	1.468975	-0.477750	-0.876945
