data_functionalizedCrystal
_audit_creation_method	'MofGen! by Chris Wilmer'
_symmetry_space_group_name_H-M	'P1'
_symmetry_Int_Tables_number	1
_symmetry_cell_setting	triclinic
loop_
_symmetry_equiv_pos_as_xyz
  x,y,z
_cell_length_a	10.723023
_cell_length_b	10.723022
_cell_length_c	9.198806
_cell_angle_alpha	89.997988
_cell_angle_beta	89.996513
_cell_angle_gamma	84.467387
loop_
_atom_site_label
_atom_site_type_symbol
_atom_site_fract_x
_atom_site_fract_y
_atom_site_fract_z
O1	O	1.657187	0.175020	-0.120874
O2	O	1.294035	0.191774	-0.120879
O3	O	1.483989	0.001821	-0.120871
O4	O	1.467233	0.364973	-0.120882
O5	O	1.483974	0.001820	0.120914
O6	O	1.294020	0.191774	0.120906
O7	O	1.657172	0.175019	0.120911
Cu8	Cu	1.475595	0.183397	0.142985
Cu9	Cu	1.475612	0.183397	-0.142953
O10	O	1.467218	0.364973	0.120903
C11	C	1.247528	0.190555	0.000012
C12	C	1.108973	0.186908	0.000010
C13	C	1.047193	0.185281	0.125261
C14	C	0.903990	0.181512	0.125262
C15	C	1.482762	-0.044679	0.000020
C16	C	1.479115	-0.183233	0.000015
C17	C	1.703679	0.176239	0.000016
C18	C	1.842234	0.179886	0.000009
C19	C	1.369575	-0.231794	0.000010
C20	C	1.365804	-0.374997	0.000005
C21	C	1.468445	0.411473	0.000009
C22	C	1.472092	0.550027	0.000005
N23	N	1.475591	0.183395	0.344099
N24	N	1.475626	0.183389	-0.344067
C25	C	1.555347	0.103288	0.416300
C26	C	1.555367	0.103283	0.583712
H27	H	0.850860	0.180120	0.232493
Br28	Br	1.361817	0.297719	0.552464
H29	H	1.100320	0.186673	0.232492
Br30	Br	0.930767	0.182232	-0.178735
Br31	Br	1.217911	-0.124398	0.000024
Br32	Br	1.209475	-0.444676	-0.000018
Br33	Br	1.628425	-0.380303	-0.000007
H34	H	1.055848	0.185506	-0.107221
Br35	Br	1.668820	-0.011340	0.312768
H36	H	1.570104	-0.247676	0.000021
Br37	Br	1.669192	-0.011024	0.687191
H38	H	1.407318	0.251971	0.406225
