data_functionalizedCrystal
_audit_creation_method	'MofGen! by Chris Wilmer'
_symmetry_space_group_name_H-M	'P1'
_symmetry_Int_Tables_number	1
_symmetry_cell_setting	triclinic
loop_
_symmetry_equiv_pos_as_xyz
  x,y,z
_cell_length_a	17.019383
_cell_length_b	17.019294
_cell_length_c	14.048226
_cell_angle_alpha	86.114596
_cell_angle_beta	86.117564
_cell_angle_gamma	83.133350
loop_
_atom_site_label
_atom_site_type_symbol
_atom_site_fract_x
_atom_site_fract_y
_atom_site_fract_z
O1	O	1.046558	0.100561	-0.173108
O2	O	1.379891	0.433894	0.160225
O3	O	1.713224	0.767227	0.493559
O4	O	0.816881	0.113363	-0.155350
O5	O	1.150214	0.446696	0.177983
O6	O	1.483547	0.780029	0.511316
O7	O	0.938126	-0.007878	-0.155336
O8	O	1.271459	0.325455	0.177998
O9	O	1.604793	0.658788	0.511331
O10	O	0.925312	0.221801	-0.173123
O11	O	1.258646	0.555135	0.160211
O12	O	1.591979	0.888468	0.493544
O13	O	0.938111	-0.007885	0.002987
O14	O	1.271445	0.325448	0.336321
O15	O	1.604778	0.658781	0.669654
O16	O	0.816866	0.113356	0.002973
O17	O	1.150199	0.446689	0.336306
O18	O	1.483533	0.780022	0.669639
O19	O	1.046543	0.100553	-0.014785
O20	O	1.379876	0.433887	0.318548
O21	O	1.713210	0.767220	0.651882
Zn22	Zn	0.931702	0.106953	0.019231
Zn23	Zn	1.265036	0.440287	0.352564
Zn24	Zn	1.598369	0.773620	0.685898
Zn25	Zn	0.931721	0.106963	-0.189366
Zn26	Zn	1.265055	0.440296	0.143967
Zn27	Zn	1.598388	0.773629	0.477300
O28	O	0.925298	0.221794	-0.014800
O29	O	1.258631	0.555128	0.318534
O30	O	1.591964	0.888461	0.651867
C31	C	0.787485	0.112872	-0.073742
C32	C	1.120818	0.446205	0.259591
C33	C	1.454152	0.779538	0.592924
C34	C	0.699917	0.111409	-0.066452
C35	C	1.033251	0.444742	0.266882
C36	C	1.366584	0.778076	0.600215
C37	C	0.658778	0.110728	-0.149322
C38	C	0.992112	0.444061	0.184012
C39	C	1.325445	0.777395	0.517345
C40	C	0.576498	0.109366	-0.142459
C41	C	0.909831	0.442700	0.190875
C42	C	1.243164	0.776033	0.524208
C43	C	0.535358	0.108681	-0.052724
C44	C	0.868691	0.442014	0.280609
C45	C	1.202025	0.775347	0.613943
C46	C	0.576502	0.109364	0.030152
C47	C	0.909836	0.442698	0.363485
C48	C	1.243169	0.776031	0.696819
C49	C	0.658781	0.110731	0.023287
C50	C	0.992114	0.444065	0.356621
C51	C	1.325448	0.777398	0.689954
C52	C	0.286929	0.104558	-0.027680
C53	C	0.620263	0.437891	0.305653
C54	C	0.953596	0.771225	0.638986
C55	C	0.204645	0.103188	-0.020822
C56	C	0.537979	0.436522	0.312511
C57	C	0.871312	0.769855	0.645845
C58	C	0.204646	0.103192	-0.193433
C59	C	0.537979	0.436525	0.139900
C60	C	0.871313	0.769859	0.473233
C61	C	0.286927	0.104554	-0.200290
C62	C	0.620260	0.437888	0.133044
C63	C	0.953593	0.771221	0.466377
C64	C	0.328063	0.105242	-0.117414
C65	C	0.661397	0.438575	0.215919
C66	C	0.994730	0.771909	0.549253
C67	C	0.451254	0.107286	-0.045706
C68	C	0.784587	0.440620	0.287627
C69	C	1.117921	0.773953	0.620960
C70	C	0.412165	0.106642	-0.124433
C71	C	0.745498	0.439975	0.208900
C72	C	1.078832	0.773309	0.542234
C73	C	0.937633	-0.037271	-0.073726
C74	C	1.270966	0.296063	0.259607
C75	C	1.604299	0.629396	0.592940
C76	C	0.936175	-0.124840	-0.066431
C77	C	1.269508	0.208494	0.266902
C78	C	1.602841	0.541827	0.600235
C79	C	0.935500	-0.165971	-0.149306
C80	C	1.268833	0.167362	0.184028
C81	C	1.602166	0.500695	0.517361
C82	C	0.934125	-0.248251	-0.142448
C83	C	1.267458	0.085082	0.190885
C84	C	1.600791	0.418416	0.524219
C85	C	0.933431	-0.289398	-0.052715
C86	C	1.266764	0.043935	0.280618
C87	C	1.600097	0.377268	0.613951
C88	C	0.934104	-0.248260	0.030165
C89	C	1.267437	0.085073	0.363499
C90	C	1.600770	0.418406	0.696832
C91	C	0.935473	-0.165981	0.023307
C92	C	1.268806	0.167352	0.356640
C93	C	1.602139	0.500685	0.689974
C94	C	0.929291	-0.537827	-0.027690
C95	C	1.262624	-0.204494	0.305643
C96	C	1.595958	0.128839	0.638977
C97	C	0.927924	-0.620113	-0.020838
C98	C	1.261257	-0.286779	0.312495
C99	C	1.594591	0.046554	0.645829
C100	C	0.927944	-0.620097	-0.193452
C101	C	1.261277	-0.286764	0.139881
C102	C	1.594610	0.046569	0.473215
C103	C	0.929318	-0.537817	-0.200303
C104	C	1.262651	-0.204484	0.133031
C105	C	1.595984	0.128849	0.466364
C106	C	0.929986	-0.496686	-0.117422
C107	C	1.263320	-0.163353	0.215912
C108	C	1.596653	0.169981	0.549245
C109	C	0.932028	-0.373502	-0.045704
C110	C	1.265361	-0.040168	0.287630
C111	C	1.598695	0.293165	0.620963
C112	C	0.931384	-0.412583	-0.124434
C113	C	1.264717	-0.079250	0.208899
C114	C	1.598050	0.254083	0.542233
C115	C	1.075939	0.101045	-0.096395
C116	C	1.409272	0.434378	0.236938
C117	C	1.742605	0.767711	0.570271
C118	C	1.163506	0.102507	-0.103692
C119	C	1.496840	0.435840	0.229641
C120	C	1.830173	0.769174	0.562975
C121	C	0.925791	0.251187	-0.096411
C122	C	1.259124	0.584520	0.236922
C123	C	1.592458	0.917853	0.570255
C124	C	0.927249	0.338756	-0.103712
C125	C	1.260582	0.672089	0.229621
C126	C	1.593916	1.005422	0.562954
N127	N	0.931695	0.106946	0.161593
N128	N	1.265028	0.440280	0.494926
N129	N	1.598362	0.773613	0.828260
N130	N	0.931735	0.106963	-0.331728
N131	N	1.265068	0.440297	0.001605
N132	N	1.598402	0.773630	0.334938
C133	C	0.985399	0.053283	0.211414
C134	C	1.318733	0.386616	0.544748
C135	C	1.652066	0.719950	0.878081
C136	C	0.985405	0.053283	0.311071
C137	C	1.318738	0.386616	0.644405
C138	C	1.652071	0.719949	0.977738
C139	C	0.931709	0.106950	0.360905
C140	C	1.265042	0.440283	0.694238
C141	C	1.598375	0.773617	1.027572
C142	C	0.877999	0.160616	0.311077
C143	C	1.211332	0.493949	0.644410
C144	C	1.544665	0.827283	0.977744
C145	C	0.877990	0.160612	0.211422
C146	C	1.211324	0.493945	0.544755
C147	C	1.544657	0.827279	0.878089
C148	C	0.878021	0.160622	0.518789
C149	C	1.211355	0.493955	0.852122
C150	C	1.544688	0.827288	1.185456
C151	C	0.878031	0.160627	0.618450
C152	C	1.211364	0.493960	0.951784
C153	C	1.544697	0.827293	1.285117
C154	C	0.985436	0.053292	0.618438
C155	C	1.318769	0.386626	0.951772
C156	C	1.652102	0.719959	1.285105
C157	C	0.985427	0.053288	0.518783
C158	C	1.318761	0.386622	0.852117
C159	C	1.652094	0.719955	1.185450
C160	C	0.931718	0.106956	0.468962
C161	C	1.265051	0.440289	0.802295
C162	C	1.598385	0.773622	1.135629
H163	H	0.171143	0.102634	-0.260906
H164	H	0.504477	0.435967	0.072427
H165	H	0.837810	0.769300	0.405761
H166	H	0.933578	-0.281737	-0.209933
H167	H	1.266912	0.051596	0.123400
H168	H	1.600245	0.384929	0.456733
H169	H	0.933534	-0.281768	0.103228
H170	H	1.266867	0.051565	0.436561
H171	H	1.600200	0.384898	0.769895
F172	F	0.927189	-0.663903	0.074672
F173	F	1.260523	-0.330570	0.408005
F174	F	1.593856	0.002763	0.741338
F175	F	1.042562	-0.003833	0.364095
F176	F	1.375895	0.329501	0.697429
F177	F	1.709228	0.662834	1.030762
F178	F	1.042597	-0.003823	0.671465
F179	F	1.375931	0.329511	1.004799
F180	F	1.709264	0.662844	1.338132
F181	F	1.042555	-0.003835	0.158386
F182	F	1.375888	0.329499	0.491720
F183	F	1.709221	0.662832	0.825053
H184	H	0.171149	0.102652	0.052253
H185	H	0.504482	0.435985	0.385586
H186	H	0.837815	0.769319	0.718919
F187	F	0.820855	0.217739	0.465770
F188	F	1.154188	0.551072	0.799103
F189	F	1.487521	0.884406	1.132437
H190	H	0.834275	0.204310	0.351658
H191	H	1.167608	0.537644	0.684991
H192	H	1.500941	0.870977	1.018324
H193	H	1.029154	0.009592	0.478208
H194	H	1.362487	0.342926	0.811542
H195	H	1.695821	0.676259	1.144875
H196	H	0.834305	0.204327	0.659020
H197	H	1.167639	0.537661	0.992353
H198	H	1.500972	0.870994	1.325687
F199	F	0.702556	0.111452	-0.244830
F200	F	1.035889	0.444786	0.088503
F201	F	1.369223	0.778119	0.421837
F202	F	0.532718	0.108642	-0.230661
F203	F	0.866051	0.441976	0.102673
F204	F	1.199385	0.775309	0.436006
H205	H	0.692275	0.111290	0.090769
H206	H	1.025608	0.444623	0.424102
H207	H	1.358941	0.777956	0.757435
H208	H	0.834258	0.204309	0.170859
H209	H	1.167591	0.537642	0.504192
H210	H	1.500925	0.870976	0.837525
H211	H	0.320413	0.105113	0.039803
H212	H	0.653747	0.438446	0.373137
H213	H	0.987080	0.771779	0.706470
F214	F	0.330705	0.105280	-0.295797
F215	F	0.664039	0.438614	0.037536
F216	F	0.997372	0.771947	0.370870
H217	H	0.931943	-0.379077	-0.197493
H218	H	1.265277	-0.045744	0.135840
H219	H	1.598610	0.287590	0.469173
F220	F	0.532715	0.108641	0.125654
F221	F	0.866049	0.441974	0.458988
F222	F	1.199382	0.775307	0.792321
H223	H	0.417749	0.106726	0.027356
H224	H	0.751083	0.440059	0.360689
H225	H	1.084416	0.773392	0.694023
F226	F	0.927232	-0.663878	-0.281653
F227	F	1.260565	-0.330544	0.051680
F228	F	1.593898	0.002789	0.385013
F229	F	0.936244	-0.122187	-0.244812
F230	F	1.269577	0.211146	0.088521
F231	F	1.602910	0.544479	0.421854
F232	F	0.455950	0.107375	-0.219932
F233	F	0.789283	0.440708	0.113401
F234	F	1.122617	0.774042	0.446735
H235	H	0.929851	-0.504350	0.039797
H236	H	1.263184	-0.171017	0.373130
H237	H	1.596518	0.162316	0.706463
F238	F	0.930058	-0.494032	-0.295808
F239	F	1.263391	-0.160698	0.037525
F240	F	1.596725	0.172635	0.370858
H241	H	0.936011	-0.132492	0.090793
H242	H	1.269345	0.200842	0.424126
H243	H	1.602678	0.534175	0.757460
F244	F	0.931286	-0.417300	0.049794
F245	F	1.264619	-0.083967	0.383127
F246	F	1.597953	0.249366	0.716461
