data_functionalizedCrystal
_audit_creation_method	'MofGen! by Chris Wilmer'
_symmetry_space_group_name_H-M	'P1'
_symmetry_Int_Tables_number	1
_symmetry_cell_setting	triclinic
loop_
_symmetry_equiv_pos_as_xyz
  x,y,z
_cell_length_a	18.101395
_cell_length_b	12.759401
_cell_length_c	12.759393
_cell_angle_alpha	90.021396
_cell_angle_beta	89.966505
_cell_angle_gamma	89.968074
loop_
_atom_site_label
_atom_site_type_symbol
_atom_site_fract_x
_atom_site_fract_y
_atom_site_fract_z
Zn1	Zn	-0.294769	-1.606135	-0.594050
Zn2	Zn	0.205231	-1.106135	-0.094050
Zn3	Zn	-0.418631	-1.605979	-0.418364
Zn4	Zn	0.081369	-1.105979	0.081636
Zn5	Zn	-0.294810	-1.430437	-0.418380
Zn6	Zn	0.205190	-0.930437	0.081620
Zn7	Zn	-0.418575	-1.430376	-0.593997
Zn8	Zn	0.081425	-0.930376	-0.093997
O9	O	-0.356696	-1.518232	-0.506198
O10	O	0.143304	-1.018232	-0.006198
O11	O	-0.311206	-1.753136	-0.570761
O12	O	0.188794	-1.253136	-0.070761
O13	O	-0.402246	-1.582654	-0.271345
O14	O	0.097754	-1.082654	0.228655
O15	O	-0.191171	-1.453835	-0.441712
O16	O	0.308829	-0.953835	0.058288
O17	O	-0.402207	-1.753021	-0.441685
O18	O	0.097793	-1.253021	0.058315
O19	O	-0.191142	-1.582920	-0.570776
O20	O	0.308858	-1.082920	-0.070776
O21	O	-0.311275	-1.453684	-0.271357
O22	O	0.188725	-0.953684	0.228643
O23	O	-0.311221	-1.283408	-0.441661
O24	O	0.188779	-0.783408	0.058339
O25	O	-0.402112	-1.453730	-0.741025
O26	O	0.097888	-0.953730	-0.241025
O27	O	-0.402151	-1.283363	-0.570685
O28	O	0.097849	-0.783363	-0.070685
O29	O	-0.311152	-1.582860	-0.741064
O30	O	0.188848	-1.082860	-0.241064
O31	O	-0.522257	-1.582594	-0.441633
O32	O	-0.022257	-1.082594	0.058367
O33	O	-0.522216	-1.453579	-0.570670
O34	O	-0.022216	-0.953579	-0.070670
C35	C	-0.356685	-1.245265	-0.506170
C36	C	0.143315	-0.745265	-0.006170
C37	C	-0.356698	-1.128488	-0.506183
C38	C	0.143302	-0.628488	-0.006183
C39	C	-0.404117	-1.073630	-0.573258
C40	C	0.095883	-0.573630	-0.073258
C41	C	-0.404119	-0.963906	-0.573276
C42	C	0.095881	-0.463906	-0.073276
C43	C	-0.309281	-0.963908	-0.439133
C44	C	0.190719	-0.463908	0.060867
C45	C	-0.309276	-1.073630	-0.439122
C46	C	0.190724	-0.573630	0.060878
C47	C	-0.549107	-1.518091	-0.506167
C48	C	-0.049107	-1.018091	-0.006167
C49	C	-0.631421	-1.518127	-0.506189
C50	C	-0.131421	-1.018127	-0.006189
C51	C	-0.930512	-1.518358	-0.506246
C52	C	-0.430512	-1.018358	-0.006246
C53	C	-0.899192	-1.437373	-0.587633
C54	C	-0.399192	-0.937373	-0.087633
C55	C	-0.813574	-1.436988	-0.587379
C56	C	-0.313574	-0.936988	-0.087379
C57	C	-0.782129	-1.518243	-0.506218
C58	C	-0.282129	-1.018243	-0.006218
C59	C	-0.813289	-1.488263	-0.395492
C60	C	-0.313289	-0.988263	0.104508
C61	C	-0.898935	-1.487741	-0.395979
C62	C	-0.398935	-0.987741	0.104021
C63	C	-0.898852	-1.629500	-0.534610
C64	C	-0.398852	-1.129500	-0.034610
C65	C	-0.813201	-1.628847	-0.537038
C66	C	-0.313201	-1.128847	-0.037038
C67	C	-0.698270	-1.518181	-0.506196
C68	C	-0.198270	-1.018181	-0.006196
C69	C	-1.014371	-1.518418	-0.506260
C70	C	-0.514371	-1.018418	-0.006260
C71	C	-0.163534	-1.518402	-0.506252
C72	C	0.336466	-1.018402	-0.006252
C73	C	-0.081220	-1.518474	-0.506275
C74	C	0.418780	-1.018474	-0.006275
C75	C	-0.356621	-1.518305	-0.780231
C76	C	0.143379	-1.018305	-0.280231
C77	C	-0.356590	-1.518337	-0.897008
C78	C	0.143410	-1.018337	-0.397008
C79	C	-0.356706	-0.792265	-0.506220
C80	C	0.143294	-0.292265	-0.006220
C81	C	-0.356705	-0.909042	-0.506212
C82	C	0.143295	-0.409042	-0.006212
C83	C	-0.309212	-1.451206	-0.951876
C84	C	0.190788	-0.951206	-0.451876
C85	C	-0.309189	-1.451230	-1.061600
C86	C	0.190811	-0.951230	-0.561600
C87	C	-0.403923	-1.585525	-1.061579
C88	C	0.096077	-1.085525	-0.561579
C89	C	-0.403949	-1.585495	-0.951857
C90	C	0.096051	-1.085495	-0.451857
C91	C	-0.356717	-1.518219	-0.233231
C92	C	0.143283	-1.018219	0.266769
C93	C	-0.356541	-1.518392	-0.116454
C94	C	0.143459	-1.018392	0.383546
H95	H	-0.919733	-1.455945	-0.670002
H96	H	-0.419733	-0.955945	-0.170002
H97	H	-0.919656	-1.544168	-0.333271
H98	H	-0.419656	-1.044168	0.166729
H99	H	-0.920780	-1.355493	-0.569082
H100	H	-0.420780	-0.855493	-0.069082
H101	H	-0.442532	-1.640163	-0.907183
H102	H	0.057468	-1.140163	-0.407183
C103	C	-0.456279	-0.903561	-0.647056
C104	C	0.043721	-0.403561	-0.147056
H105	H	-0.449487	-0.830357	-0.637470
H106	H	0.050513	-0.330357	-0.137470
H107	H	-0.506024	-0.921498	-0.631553
H108	H	-0.006024	-0.421498	-0.131553
H109	H	-0.445495	-0.921589	-0.717675
H110	H	0.054505	-0.421589	-0.217675
C111	C	-0.257123	-0.903565	-0.365365
C112	C	0.242877	-0.403565	0.134635
H113	H	-0.228877	-0.951954	-0.325422
H114	H	0.271123	-0.451954	0.174578
H115	H	-0.285415	-0.860720	-0.319521
H116	H	0.214585	-0.360720	0.180479
H117	H	-0.224889	-0.860806	-0.405647
H118	H	0.275111	-0.360806	0.094353
C119	C	-0.456272	-1.133971	-0.647032
C120	C	0.043728	-0.633971	-0.147032
H121	H	-0.484507	-1.085580	-0.686989
H122	H	0.015493	-0.585580	-0.186989
H123	H	-0.488505	-1.176733	-0.606762
H124	H	0.011495	-0.676733	-0.106762
H125	H	-0.427972	-1.176812	-0.692878
H126	H	0.072028	-0.676812	-0.192878
C127	C	-0.785775	-1.565429	-0.311333
C128	C	-0.285775	-1.065429	0.188667
H129	H	-0.754962	-1.616736	-0.343052
H130	H	-0.254962	-1.116736	0.156948
H131	H	-0.826887	-1.598830	-0.279325
H132	H	-0.326887	-1.098830	0.220675
H133	H	-0.758484	-1.528324	-0.259707
H134	H	-0.258484	-1.028324	0.240293
H135	H	-0.791907	-1.407879	-0.371034
H136	H	-0.291907	-0.907879	0.128966
C137	C	-0.257086	-1.377375	-1.121955
C138	C	0.242914	-0.877375	-0.621955
H139	H	-0.263860	-1.386996	-1.195158
H140	H	0.236140	-0.886996	-0.695158
H141	H	-0.207329	-1.392777	-1.104003
H142	H	0.292671	-0.892777	-0.604003
H143	H	-0.267938	-1.306772	-1.103950
H144	H	0.232062	-0.806772	-0.603950
C145	C	-0.257113	-1.133978	-0.365333
C146	C	0.242887	-0.633978	0.134667
H147	H	-0.228879	-1.085593	-0.325385
H148	H	0.271121	-0.585593	0.174615
H149	H	-0.224879	-1.176823	-0.405600
H150	H	0.275121	-0.676823	0.094400
H151	H	-0.285408	-1.176738	-0.319478
H152	H	0.214592	-0.676738	0.180522
C153	C	-0.785981	-1.325704	-0.561983
C154	C	-0.285981	-0.825704	-0.061983
H155	H	-0.827116	-1.280558	-0.551772
H156	H	-0.327116	-0.780558	-0.051772
H157	H	-0.756829	-1.300468	-0.618515
H158	H	-0.256829	-0.800468	-0.118515
H159	H	-0.756986	-1.327431	-0.499971
H160	H	-0.256986	-0.827431	0.000029
C161	C	-0.257126	-1.377331	-0.891540
C162	C	0.242874	-0.877331	-0.391540
H163	H	-0.263920	-1.386932	-0.818335
H164	H	0.236080	-0.886932	-0.318335
H165	H	-0.267955	-1.306736	-0.909512
H166	H	0.232045	-0.806736	-0.409512
H167	H	-0.207361	-1.392763	-0.909543
H168	H	0.292639	-0.892763	-0.409543
C169	C	-0.785105	-1.462291	-0.698297
C170	C	-0.285105	-0.962291	-0.198297
H171	H	-0.825883	-1.472896	-0.743920
H172	H	-0.325883	-0.972896	-0.243920
H173	H	-0.755801	-1.524035	-0.696162
H174	H	-0.255801	-1.024035	-0.196162
H175	H	-0.756080	-1.405522	-0.723254
H176	H	-0.256080	-0.905522	-0.223254
H177	H	-0.919106	-1.689837	-0.475332
H178	H	-0.419106	-1.189837	0.024668
C179	C	-0.456006	-1.659409	-1.121911
C180	C	0.043994	-1.159409	-0.621911
H181	H	-0.484229	-1.699381	-1.073516
H182	H	0.015771	-1.199381	-0.573516
H183	H	-0.427665	-1.705221	-1.164724
H184	H	0.072335	-1.205221	-0.664724
H185	H	-0.488265	-1.619203	-1.164702
H186	H	0.011735	-1.119203	-0.664702
C187	C	-0.926022	-1.377989	-0.363532
C188	C	-0.426022	-0.877989	0.136468
H189	H	-0.978499	-1.376703	-0.363539
H190	H	-0.478499	-0.876703	0.136461
H191	H	-0.907905	-1.327465	-0.411777
H192	H	-0.407905	-0.827465	0.088223
H193	H	-0.908380	-1.362095	-0.295246
H194	H	-0.408380	-0.862095	0.204754
C195	C	-0.927946	-1.666424	-0.641827
C196	C	-0.427946	-1.166424	-0.141827
H197	H	-0.959677	-1.614395	-0.670298
H198	H	-0.459677	-1.114395	-0.170298
H199	H	-0.954581	-1.729985	-0.633323
H200	H	-0.454581	-1.229985	-0.133323
H201	H	-0.887526	-1.677646	-0.688017
H202	H	-0.387526	-1.177646	-0.188017
H203	H	-0.792832	-1.651455	-0.618527
H204	H	-0.292832	-1.151455	-0.118527
H205	H	-0.791792	-1.692377	-0.482080
H206	H	-0.291792	-1.192377	0.017920
