data_functionalizedCrystal
_audit_creation_method	'MofGen! by Chris Wilmer'
_symmetry_space_group_name_H-M	'P1'
_symmetry_Int_Tables_number	1
_symmetry_cell_setting	triclinic
loop_
_symmetry_equiv_pos_as_xyz
  x,y,z
_cell_length_a	15.944551
_cell_length_b	17.699083
_cell_length_c	16.776229
_cell_angle_alpha	90.001114
_cell_angle_beta	89.992397
_cell_angle_gamma	96.609123
loop_
_atom_site_label
_atom_site_type_symbol
_atom_site_fract_x
_atom_site_fract_y
_atom_site_fract_z
O1	O	0.106222	-1.004260	-0.066178
O2	O	0.606222	-0.504260	0.433822
O3	O	0.120042	-0.783905	-0.066204
O4	O	0.620042	-0.283905	0.433796
O5	O	-0.009156	-0.900100	-0.066183
O6	O	0.490844	-0.400100	0.433817
O7	O	0.235419	-0.888065	-0.066199
O8	O	0.735419	-0.388065	0.433801
O9	O	-0.009164	-0.900084	0.066393
O10	O	0.490836	-0.400084	0.566393
O11	O	0.120034	-0.783890	0.066372
O12	O	0.620034	-0.283890	0.566372
O13	O	0.106214	-1.004244	0.066398
O14	O	0.606214	-0.504244	0.566398
Zn15	Zn	0.113123	-0.894065	0.087435
Zn16	Zn	0.613123	-0.394065	0.587435
Zn17	Zn	0.113133	-0.894085	-0.087241
Zn18	Zn	0.613133	-0.394085	0.412759
O19	O	0.235411	-0.888050	0.066377
O20	O	0.735411	-0.388050	0.566377
C21	C	0.119542	-0.755700	0.000080
C22	C	0.619542	-0.255700	0.500080
C23	C	0.118057	-0.671679	0.000071
C24	C	0.618057	-0.171679	0.500071
C25	C	-0.040453	-0.899593	0.000105
C26	C	0.459547	-0.399593	0.500105
C27	C	-0.133696	-0.898095	0.000105
C28	C	0.366304	-0.398095	0.500105
C29	C	0.106713	-1.032450	0.000112
C30	C	0.606713	-0.532450	0.500112
C31	C	0.108199	-1.116471	0.000116
C32	C	0.608199	-0.616471	0.500116
C33	C	-0.348393	-0.822492	0.000085
C34	C	0.151607	-0.322492	0.500085
C35	C	-0.409488	-0.857592	0.065458
C36	C	0.090512	-0.357592	0.565458
C37	C	-0.304416	-0.895385	0.000099
C38	C	0.195584	-0.395385	0.500099
C39	C	-0.409464	-0.857624	-0.065252
C40	C	0.090536	-0.357624	0.434748
C41	C	-0.469323	-0.892762	0.000089
C42	C	0.030677	-0.392762	0.500089
C43	C	-0.364283	-0.930505	0.065525
C44	C	0.135717	-0.430505	0.565525
C45	C	-0.364252	-0.930527	-0.065244
C46	C	0.135748	-0.430527	0.434756
C47	C	-0.425329	-0.965680	0.000145
C48	C	0.074671	-0.465680	0.500145
C49	C	-0.209417	-0.896894	0.000105
C50	C	0.290583	-0.396894	0.500105
C51	C	-0.564321	-0.891259	0.000089
C52	C	-0.064321	-0.391259	0.500089
C53	C	0.266708	-0.888557	0.000087
C54	C	0.766708	-0.388557	0.500087
C55	C	0.359951	-0.890055	0.000082
C56	C	0.859951	-0.390055	0.500082
N57	N	0.113115	-0.894056	0.206646
N58	N	0.613115	-0.394056	0.706646
C59	C	0.193893	-0.623187	0.000066
C60	C	0.693893	-0.123187	0.500066
C61	C	0.192492	-0.544242	0.000076
C62	C	0.692492	-0.044242	0.500076
C63	C	0.115254	-0.513789	0.000086
C64	C	0.615254	-0.013789	0.500086
C65	C	0.039412	-0.562287	0.000093
C66	C	0.539412	-0.062287	0.500093
C67	C	0.040814	-0.641231	0.000088
C68	C	0.540814	-0.141231	0.500088
C69	C	0.033758	-0.243914	0.000113
C70	C	0.533758	0.256086	0.500113
C71	C	0.032362	-0.164964	0.000115
C72	C	0.532362	0.335036	0.500115
C73	C	0.185436	-0.146925	0.000101
C74	C	0.685436	0.353075	0.500101
C75	C	0.186837	-0.225869	0.000096
C76	C	0.686837	0.274131	0.500096
C77	C	0.110996	-0.274360	0.000108
C78	C	0.610996	0.225640	0.500108
C79	C	0.112516	-0.359962	0.000098
C80	C	0.612516	0.140038	0.500098
C81	C	0.113733	-0.428189	0.000090
C82	C	0.613733	0.071811	0.500090
N83	N	0.113134	-0.894099	-0.206452
N84	N	0.613134	-0.394099	0.293548
C85	C	0.055930	-0.945523	0.248372
C86	C	0.555930	-0.445523	0.748372
C87	C	0.055929	-0.945527	0.331824
C88	C	0.555929	-0.445527	0.831824
C89	C	0.113118	-0.894068	0.373549
C90	C	0.613118	-0.394068	0.873549
C91	C	0.170306	-0.842595	0.331816
C92	C	0.670306	-0.342595	0.831816
C93	C	0.170302	-0.842588	0.248366
C94	C	0.670302	-0.342588	0.748366
C95	C	0.170323	-0.842623	0.668364
C96	C	0.670323	-0.342623	1.168364
C97	C	0.170324	-0.842636	0.751820
C98	C	0.670324	-0.342636	1.251820
C99	C	0.055949	-0.945562	0.751822
C100	C	0.555949	-0.445562	1.251822
C101	C	0.055945	-0.945555	0.668372
C102	C	0.555945	-0.445555	1.168372
C103	C	0.113130	-0.894080	0.626647
C104	C	0.613130	-0.394080	1.126647
C105	C	0.113129	-0.894075	0.536158
C106	C	0.613129	-0.394075	1.036158
C107	C	0.113124	-0.894076	0.464036
C108	C	0.613124	-0.394076	0.964036
H109	H	-0.314958	-0.761987	0.000143
H110	H	0.185042	-0.261987	0.500143
O111	O	-0.048038	-0.296211	0.000125
O112	O	0.451962	0.203789	0.500125
H113	H	-0.101979	-0.261769	0.000125
H114	H	0.398021	0.238231	0.500125
O115	O	-0.005770	-1.001021	0.203383
O116	O	0.494230	-0.501021	0.703383
H117	H	-0.046546	-0.969148	0.165378
H118	H	0.453454	-0.469148	0.665378
O119	O	-0.043896	-0.529443	0.000111
O120	O	0.456104	-0.029443	0.500111
H121	H	-0.080332	-0.548925	-0.053918
H122	H	0.419668	-0.048925	0.446082
H123	H	-0.429535	-0.826754	0.120718
H124	H	0.070465	-0.326754	0.620718
O125	O	-0.469363	-1.045916	0.000205
O126	O	0.030637	-0.545916	0.500205
H127	H	-0.450382	-1.076334	-0.053546
H128	H	0.049618	-0.576334	0.446454
H129	H	0.216896	-0.800728	0.785791
H130	H	0.716896	-0.300728	1.285791
O131	O	-0.005733	-1.001077	0.796833
O132	O	0.494267	-0.501077	1.296833
H133	H	0.004900	-1.060072	0.780812
H134	H	0.504900	-0.560072	1.280812
H135	H	-0.344360	-0.961304	0.120853
H136	H	0.155640	-0.461304	0.620853
H137	H	-0.020940	-0.680713	0.000091
H138	H	0.479060	-0.180713	0.500091
H139	H	-0.030538	-0.140173	0.000124
H140	H	0.469462	0.359827	0.500124
H141	H	0.009364	-0.987435	0.365798
H142	H	0.509364	-0.487435	0.865798
H143	H	0.216886	-0.800712	0.634398
H144	H	0.716886	-0.300712	1.134398
O145	O	-0.005741	-1.001052	0.623367
O146	O	0.494259	-0.501052	1.123367
H147	H	-0.045513	-1.036836	0.666402
H148	H	0.454487	-0.536836	1.166402
O149	O	0.231995	-0.787093	0.376813
O150	O	0.731995	-0.287093	0.876813
H151	H	0.222399	-0.795750	0.441852
H152	H	0.722399	-0.295750	0.941852
O153	O	-0.337695	-0.971385	-0.138427
O154	O	0.162305	-0.471385	0.361573
H155	H	-0.268262	-0.972621	-0.137452
H156	H	0.231738	-0.472621	0.362548
H157	H	0.249732	-0.250659	0.000085
H158	H	0.749732	0.249341	0.500085
H159	H	-0.429473	-0.826790	-0.120524
H160	H	0.070527	-0.326790	0.379476
H161	H	0.256789	-0.647975	0.000058
H162	H	0.756789	-0.147975	0.500058
H163	H	0.254246	-0.504763	0.000072
H164	H	0.754246	-0.004763	0.500072
O165	O	0.231984	-0.787082	0.203354
O166	O	0.731984	-0.287082	0.703354
H167	H	0.271758	-0.751305	0.246386
H168	H	0.771758	-0.251305	0.746386
O169	O	0.267242	-0.094625	0.000106
O170	O	0.767242	0.405375	0.500106
H171	H	0.253296	-0.034613	0.000123
H172	H	0.753296	0.465387	0.500123
