data_functionalizedCrystal
_audit_creation_method	'MofGen! by Chris Wilmer'
_symmetry_space_group_name_H-M	'P1'
_symmetry_Int_Tables_number	1
_symmetry_cell_setting	triclinic
loop_
_symmetry_equiv_pos_as_xyz
  x,y,z
_cell_length_a	17.639762
_cell_length_b	13.032721
_cell_length_c	13.033429
_cell_angle_alpha	90.931748
_cell_angle_beta	109.591298
_cell_angle_gamma	73.262206
loop_
_atom_site_label
_atom_site_type_symbol
_atom_site_fract_x
_atom_site_fract_y
_atom_site_fract_z
Zn1	Zn	1.174675	0.065297	-0.285699
Zn2	Zn	1.170150	0.260192	-0.136901
Zn3	Zn	1.050637	0.115727	-0.150469
Zn4	Zn	1.015837	0.273769	-0.354501
O5	O	1.102825	0.178746	-0.231892
O6	O	1.290565	0.064364	-0.231489
O7	O	1.166966	0.256452	0.008960
O8	O	1.083548	-0.038668	-0.145292
O9	O	1.287241	0.207552	-0.122167
O10	O	1.174678	-0.075718	-0.244645
O11	O	1.079160	0.150314	-0.001008
O12	O	0.929530	0.163478	-0.212007
O13	O	1.024237	0.230692	-0.493035
O14	O	0.903963	0.279591	-0.361908
O15	O	1.140934	0.077528	-0.442487
O16	O	1.133223	0.409698	-0.188881
O17	O	1.019850	0.419673	-0.348751
C18	C	0.886541	0.228481	-0.295896
C19	C	0.794009	0.249780	-0.323306
C20	C	0.650299	0.340358	-0.439884
C21	C	0.737248	0.320338	-0.414118
C22	C	0.763837	0.199212	-0.258227
C23	C	0.676888	0.219218	-0.283982
C24	C	0.620125	0.289794	-0.374811
C25	C	0.646714	0.168653	-0.218909
C26	C	0.559773	0.188663	-0.244660
C27	C	0.503005	0.259237	-0.335483
C28	C	0.533184	0.309803	-0.400561
C29	C	0.703478	0.098084	-0.128076
C30	C	0.673305	0.047519	-0.063004
C31	C	0.586362	0.067523	-0.088758
C32	C	0.529594	0.138097	-0.179581
C33	C	0.556184	0.016957	-0.023679
C34	C	0.469242	0.036967	-0.049430
C35	C	0.442653	0.158107	-0.205331
C36	C	1.072290	0.452977	-0.274826
C37	C	1.059300	0.570272	-0.293206
C38	C	1.079209	0.149999	-0.507118
C39	C	1.069145	0.137749	-0.624403
C40	C	1.319952	0.128818	-0.167639
C41	C	1.412479	0.107542	-0.140259
C42	C	1.133499	-0.096562	-0.188808
C43	C	1.146571	-0.213882	-0.170448
C44	C	1.109644	0.617581	-0.222334
C45	C	1.096220	0.738812	-0.241329
C46	C	1.097706	0.172155	-0.792977
C47	C	1.108108	0.184811	-0.671756
C48	C	1.126405	0.207295	0.042289
C49	C	1.136663	0.219211	0.159667
H50	H	0.486964	0.367261	-0.474532
H51	H	1.199618	0.736873	-0.095707
O52	O	0.595072	0.408997	-0.528012
C53	C	0.479890	0.572684	-0.593366
C54	C	0.542368	0.495034	-0.493475
H55	H	0.437274	0.642275	-0.565476
H56	H	0.439777	0.527975	-0.653106
H57	H	0.516414	0.605324	-0.635467
H58	H	0.505912	0.462371	-0.451285
H59	H	0.582481	0.539794	-0.433810
O60	O	1.020161	0.078428	-0.682912
C61	C	0.930399	-0.029960	-0.681839
C62	C	0.985861	0.037167	-0.615445
H63	H	0.902638	-0.063320	-0.627326
H64	H	0.970340	-0.099349	-0.713460
H65	H	0.877108	0.023166	-0.753918
H66	H	1.039159	-0.015870	-0.543318
H67	H	0.945862	0.106564	-0.583906
O68	O	1.156961	0.244200	-0.613079
C69	C	1.162903	0.397005	-0.507450
C70	C	1.107480	0.329858	-0.573895
H71	H	1.122925	0.466260	-0.475731
H72	H	1.190598	0.430553	-0.561926
H73	H	1.216242	0.343853	-0.435431
H74	H	1.054100	0.382939	-0.645918
H75	H	1.079849	0.296298	-0.519344
O76	O	0.996040	0.629181	-0.382290
C77	C	0.925037	0.803698	-0.482506
C78	C	0.996700	0.737120	-0.381557
H79	H	0.925558	0.890975	-0.481960
H80	H	0.861859	0.799639	-0.480437
H81	H	0.934679	0.769742	-0.559907
H82	H	0.987138	0.771029	-0.304104
H83	H	1.059852	0.741179	-0.383724
H84	H	0.444675	-0.004215	0.003554
H85	H	1.177720	0.268861	-0.791131
O86	O	1.048616	0.113005	-0.851590
C87	C	0.909821	0.090851	-0.919464
C88	C	0.965324	0.157919	-0.853039
H89	H	0.842465	0.127150	-0.920677
H90	H	0.935697	0.004619	-0.880214
H91	H	0.910206	0.091172	-1.006751
H92	H	0.964963	0.157685	-0.765744
H93	H	0.939430	0.244117	-0.892377
O94	O	0.387587	0.226561	-0.293685
C95	C	0.339835	0.265380	-0.489040
C96	C	0.402260	0.187792	-0.389075
H97	H	0.351665	0.234053	-0.566191
H98	H	0.349053	0.348488	-0.478735
H99	H	0.272524	0.271005	-0.496203
H100	H	0.469596	0.182075	-0.381854
H101	H	0.392968	0.104726	-0.399424
O102	O	0.418538	0.278858	-0.360435
C103	C	0.284847	0.411581	-0.386022
C104	C	0.380493	0.389508	-0.357721
H105	H	0.254056	0.501043	-0.383860
H106	H	0.272974	0.363397	-0.323903
H107	H	0.256692	0.386643	-0.471339
H108	H	0.408712	0.414452	-0.272431
H109	H	0.392307	0.437677	-0.419910
H110	H	0.761810	0.361517	-0.467117
H111	H	0.774271	0.081797	-0.107112
O112	O	0.728563	-0.021043	0.025156
C113	C	0.874283	-0.105509	0.133957
C114	C	0.811800	-0.027854	0.034073
H115	H	0.941594	-0.111024	0.141213
H116	H	0.865122	-0.188641	0.123555
H117	H	0.862382	-0.074290	0.211103
H118	H	0.823663	-0.058975	-0.043120
H119	H	0.820975	0.055263	0.044571
O120	O	0.611443	-0.051598	0.064485
C121	C	0.757165	-0.136044	0.173295
C122	C	0.694679	-0.058402	0.073403
H123	H	0.824474	-0.141553	0.180552
H124	H	0.748010	-0.219180	0.162903
H125	H	0.745259	-0.104817	0.250437
H126	H	0.706546	-0.089530	-0.003785
H127	H	0.703847	0.024720	0.083891
H128	H	0.810064	0.141752	-0.184271
H129	H	1.162687	0.568334	-0.147598
H130	H	1.043179	0.788055	-0.316075
