data_functionalizedCrystal
_audit_creation_method	'MofGen! by Chris Wilmer'
_symmetry_space_group_name_H-M	'P1'
_symmetry_Int_Tables_number	1
_symmetry_cell_setting	triclinic
loop_
_symmetry_equiv_pos_as_xyz
  x,y,z
_cell_length_a	12.645331
_cell_length_b	21.295417
_cell_length_c	12.645323
_cell_angle_alpha	90.035966
_cell_angle_beta	90.021793
_cell_angle_gamma	90.029485
loop_
_atom_site_label
_atom_site_type_symbol
_atom_site_fract_x
_atom_site_fract_y
_atom_site_fract_z
Zn1	Zn	1.620628	-0.250609	0.599379
Zn2	Zn	1.620472	-0.355887	0.422091
Zn3	Zn	1.443345	-0.250634	0.422123
Zn4	Zn	1.443284	-0.355843	0.599306
O5	O	1.531932	-0.303243	0.510725
O6	O	1.768954	-0.264583	0.575878
O7	O	1.596936	-0.341954	0.273748
O8	O	1.466952	-0.162541	0.445681
O9	O	1.768840	-0.341930	0.445625
O10	O	1.597201	-0.162523	0.575910
O11	O	1.466802	-0.264625	0.273772
O12	O	1.294990	-0.264582	0.445610
O13	O	1.466849	-0.341854	0.747663
O14	O	1.294945	-0.341878	0.575786
O15	O	1.597142	-0.264539	0.747717
O16	O	1.596878	-0.443971	0.445555
O17	O	1.466698	-0.443938	0.575754
C18	C	1.256503	-0.303228	0.510694
C19	C	1.138673	-0.303237	0.510706
C20	C	0.971101	-0.254386	0.429265
C21	C	1.093661	-0.254513	0.428906
C22	C	1.094128	-0.369550	0.480174
C23	C	0.971529	-0.369283	0.479618
C24	C	0.971528	-0.286406	0.622995
C25	C	1.094134	-0.284924	0.622372
C26	C	1.531793	-0.466795	0.510666
C27	C	1.531831	-0.536763	0.510677
C28	C	1.599675	-0.569626	0.442951
C29	C	1.599725	-0.635368	0.442975
C30	C	1.531911	-0.668245	0.510713
C31	C	1.464062	-0.635375	0.578452
C32	C	1.464022	-0.569633	0.578433
N33	N	1.439175	-0.771510	0.518784
N34	N	1.439216	-0.833961	0.518796
C35	C	1.532030	-0.866320	0.510774
N36	N	1.624803	-0.833868	0.502720
N37	N	1.624761	-0.771411	0.502703
C38	C	1.531948	-0.739531	0.510741
C39	C	1.599934	-0.970469	0.443071
C40	C	1.599986	-1.036212	0.443102
C41	C	1.464313	-1.036217	0.578573
C42	C	1.464271	-0.970475	0.578547
C43	C	1.532080	-0.937604	0.510791
C44	C	1.808437	-0.303259	0.510756
C45	C	1.926268	-0.303265	0.510770
C46	C	1.532006	-0.303189	0.787230
C47	C	1.532038	-0.303166	0.905061
C48	C	1.532101	-0.139053	0.510807
C49	C	1.532172	-0.069085	0.510842
C50	C	1.531920	-0.303252	0.235295
C51	C	1.532094	-0.303098	0.117466
C52	C	1.450075	-0.351794	0.949909
C53	C	1.449786	-0.351611	1.072469
C54	C	1.502193	-0.236720	1.072980
C55	C	1.501566	-0.237040	0.950382
C56	C	1.644120	-0.320321	0.950247
C57	C	1.643551	-0.321745	1.072853
H58	H	1.122936	-0.265656	0.345743
H59	H	1.655240	-1.062968	0.387954
N60	N	1.725018	-0.273417	0.911825
H61	H	1.758521	-0.251703	0.974479
H62	H	1.689231	-0.241245	0.865361
N63	N	1.133568	-0.189377	0.454248
H64	H	1.071518	-0.160324	0.465753
H65	H	1.177794	-0.173415	0.393441
N66	N	1.134699	-0.388818	0.372658
H67	H	1.176324	-0.429095	0.379205
H68	H	1.181883	-0.354657	0.343629
N69	N	1.390831	-0.534189	0.651477
H70	H	1.341711	-0.506962	0.608338
H71	H	1.433939	-0.506901	0.700622
N72	N	0.932235	-0.419167	0.554797
H73	H	0.852365	-0.419384	0.555019
H74	H	0.959057	-0.409903	0.628414
N75	N	0.930626	-0.223474	0.659783
H76	H	0.882335	-0.205255	0.604066
H77	H	0.992141	-0.194081	0.671991
N78	N	1.339794	-0.336531	1.111320
H79	H	1.312527	-0.372490	1.155661
H80	H	1.291399	-0.329962	1.048747
N81	N	0.932088	-0.189053	0.454324
H82	H	0.884971	-0.190502	0.518752
H83	H	0.890745	-0.172255	0.392131
H84	H	1.419650	-0.222525	0.921788
H85	H	1.558690	-0.199559	0.920715
H86	H	1.409102	-1.062985	0.633731
N87	N	1.132691	-0.220282	0.652872
H88	H	1.178820	-0.202927	0.594609
H89	H	1.174958	-0.223061	0.720489
N90	N	0.933091	-0.333556	0.703431
H91	H	0.891177	-0.311233	0.760075
H92	H	0.995782	-0.355334	0.736618
N93	N	1.474471	-0.417215	0.910841
H94	H	1.420951	-0.447684	0.940538
H95	H	1.547711	-0.429695	0.934764
N96	N	0.929854	-0.268804	0.319831
H97	H	0.882298	-0.306880	0.322813
H98	H	0.991181	-0.277464	0.270811
N99	N	0.933568	-0.388220	0.370947
H100	H	0.996475	-0.396661	0.323854
H101	H	0.889722	-0.353192	0.339758
N102	N	1.673084	-0.935016	0.370004
H103	H	1.722166	-0.907692	0.413124
H104	H	1.629942	-0.907824	0.320836
N105	N	1.132702	-0.419081	0.556359
H106	H	1.179543	-0.398962	0.611526
H107	H	1.174226	-0.451924	0.516424
H108	H	1.409021	-0.943716	0.633691
N109	N	1.680257	-0.383375	0.909289
H110	H	1.748444	-0.378092	0.868683
H111	H	1.624267	-0.401425	0.861064
N112	N	1.134710	-0.328641	0.707124
H113	H	1.214455	-0.326436	0.709743
H114	H	1.111996	-0.373031	0.690442
N115	N	1.672824	-0.534173	0.369890
H116	H	1.715817	-0.564971	0.326994
H117	H	1.721841	-0.506856	0.413091
H118	H	1.654976	-0.662130	0.387825
H119	H	1.408849	-0.662147	0.633606
N120	N	1.340691	-0.336913	0.909102
H121	H	1.319803	-0.293269	0.932368
H122	H	1.288594	-0.368403	0.938295
H123	H	1.468451	-0.400826	1.102546
N124	N	1.578860	-0.187382	1.111584
H125	H	1.633844	-0.207633	1.158394
H126	H	1.539239	-0.154424	1.153152
N127	N	1.394895	-0.217138	1.113640
H128	H	1.345424	-0.210273	1.052002
H129	H	1.401958	-0.176876	1.155306
N130	N	1.673432	-0.386455	1.111352
H131	H	1.615025	-0.403624	1.157503
H132	H	1.741100	-0.383846	1.153583
N133	N	1.728746	-0.278245	1.113424
H134	H	1.712540	-0.233797	1.090823
H135	H	1.799358	-0.291418	1.083451
