data_functionalizedCrystal
_audit_creation_method	'MofGen! by Chris Wilmer'
_symmetry_space_group_name_H-M	'P1'
_symmetry_Int_Tables_number	1
_symmetry_cell_setting	triclinic
loop_
_symmetry_equiv_pos_as_xyz
  x,y,z
_cell_length_a	10.654562
_cell_length_b	14.519731
_cell_length_c	12.996460
_cell_angle_alpha	90.005861
_cell_angle_beta	89.996047
_cell_angle_gamma	84.089478
loop_
_atom_site_label
_atom_site_type_symbol
_atom_site_fract_x
_atom_site_fract_y
_atom_site_fract_z
O1	O	1.666579	0.129589	0.085637
O2	O	1.300985	0.141917	0.085625
O3	O	1.493461	0.001566	0.085622
O4	O	1.474103	0.269939	0.085640
O5	O	1.493486	0.001558	-0.085512
O6	O	1.301010	0.141909	-0.085509
O7	O	1.666604	0.129581	-0.085497
Cu8	Cu	1.483809	0.135744	-0.101129
Cu9	Cu	1.483780	0.135754	0.101257
O10	O	1.474127	0.269932	-0.085494
C11	C	1.254208	0.141006	0.000056
C12	C	1.114792	0.138290	0.000051
C13	C	1.049287	0.137019	-0.093226
C14	C	0.918289	0.134475	-0.093209
C15	C	0.918312	0.134476	0.093370
C16	C	1.049308	0.137014	0.093352
C17	C	1.114770	0.138295	-0.186528
C18	C	1.049264	0.137025	-0.279812
C19	C	0.918266	0.134480	-0.279795
C20	C	0.852774	0.133206	-0.186494
C21	C	1.492566	-0.032802	0.000055
C22	C	1.489848	-0.135196	0.000054
C23	C	1.487640	-0.218352	0.000056
C24	C	1.484880	-0.322675	0.000064
C25	C	1.482690	-0.405826	0.000071
C26	C	1.479930	-0.510155	0.000076
C27	C	1.713380	0.130492	0.000074
C28	C	1.852797	0.133208	0.000086
C29	C	1.475022	0.304300	0.000075
C30	C	1.477740	0.406694	0.000083
N31	N	1.483760	0.135753	0.243604
N32	N	1.483839	0.135737	-0.243476
C33	C	1.483764	0.135754	0.336710
C34	C	1.483781	0.135753	0.453515
C35	C	1.483802	0.135746	0.546613
C36	C	1.483818	0.135743	0.663426
H37	H	1.102643	0.138053	0.169307
H38	H	0.746107	0.131132	-0.186487
H39	H	1.221434	0.140369	-0.186552
H40	H	1.102598	0.138055	-0.355775
H41	H	0.864937	0.133439	-0.355752
H42	H	0.864977	0.133441	0.169332
