data_functionalizedCrystal
_audit_creation_method	'MofGen! by Chris Wilmer'
_symmetry_space_group_name_H-M	'P1'
_symmetry_Int_Tables_number	1
_symmetry_cell_setting	triclinic
loop_
_symmetry_equiv_pos_as_xyz
  x,y,z
_cell_length_a	16.956995
_cell_length_b	16.053802
_cell_length_c	16.109298
_cell_angle_alpha	87.429843
_cell_angle_beta	79.757330
_cell_angle_gamma	92.392061
loop_
_atom_site_label
_atom_site_type_symbol
_atom_site_fract_x
_atom_site_fract_y
_atom_site_fract_z
O1	O	1.061395	0.069484	0.030724
O2	O	0.829230	0.069470	0.059913
O3	O	0.951692	0.069483	-0.076150
O4	O	0.938933	0.069471	0.166786
O5	O	0.944951	-0.069376	-0.068690
O6	O	0.822489	-0.069389	0.067373
O7	O	1.054655	-0.069376	0.038184
Zn8	Zn	0.937502	-0.091430	0.053963
Zn9	Zn	0.946383	0.091524	0.044134
O10	O	0.932192	-0.069389	0.174247
C11	C	0.796151	0.000039	0.065137
C12	C	0.707629	0.000034	0.069581
N13	N	0.931446	-0.216291	0.060670
C14	C	0.208321	0.000063	0.102818
C15	C	0.291497	0.000063	0.098637
C16	C	0.342607	0.000061	0.020153
C17	C	0.310536	0.000067	-0.054156
C18	C	0.227362	0.000074	-0.049974
C19	C	0.592384	0.000047	-0.000546
C20	C	0.675564	0.000038	-0.004722
C21	C	0.656519	0.000035	0.148071
C22	C	0.573343	0.000037	0.152246
C23	C	0.541280	0.000048	0.077938
N24	N	0.427626	0.000058	0.015877
N25	N	0.456262	0.000057	0.082214
C26	C	0.983573	-0.259979	0.002793
C27	C	0.979345	-0.347386	0.007493
C28	C	0.922993	-0.391103	0.070073
C29	C	0.870860	-0.347409	0.127953
C30	C	0.875086	-0.260003	0.123249
C31	C	0.904537	-0.652515	0.090595
C32	C	0.900317	-0.739927	0.095296
C33	C	1.008801	-0.739898	-0.025165
C34	C	1.013025	-0.652491	-0.029860
C35	C	0.960889	-0.608804	0.028017
N36	N	0.918671	-0.480448	0.074880
N37	N	0.965208	-0.519461	0.023206
C38	C	1.087734	0.000057	0.032959
C39	C	1.176256	0.000068	0.028516
C40	C	0.947805	0.000057	-0.103359
C41	C	0.946258	0.000067	-0.195550
N42	N	0.952444	0.216385	0.037419
C43	C	0.944879	0.075741	-0.498338
C44	C	0.946345	0.075747	-0.411719
C45	C	0.939007	-0.075645	-0.403572
C46	C	0.937547	-0.075650	-0.490191
C47	C	0.940479	0.000045	-0.537571
C48	C	0.943405	0.000056	-0.364333
C49	C	0.944994	0.000062	-0.270416
C50	C	0.938892	0.000040	-0.631494
C51	C	0.936079	0.000039	0.201456
C52	C	0.937627	0.000035	0.293646
H53	H	0.166712	0.000059	0.166729
Br54	Br	0.335011	0.000065	0.199481
H55	H	0.947266	0.137377	-0.536913
H56	H	0.824973	-0.383009	0.178905
H57	H	0.531734	0.000041	0.216157
Br58	Br	0.804333	-0.200712	0.201795
H59	H	0.936619	-0.137274	-0.364984
Br60	Br	0.952322	0.178482	-0.358479
Br61	Br	0.823836	-0.799252	0.180238
H62	H	0.933967	-0.137295	-0.522135
H63	H	0.717176	0.000041	-0.068637
Br64	Br	0.700037	0.000025	0.248912
Br65	Br	1.050086	-0.406680	-0.071058
Br66	Br	0.379899	0.000069	-0.160672
Br67	Br	0.548882	0.000087	-0.101395
H68	H	0.201257	0.000079	-0.110479
Br69	Br	1.089506	-0.593158	-0.114788
Br70	Br	1.060061	-0.200657	-0.082136
H71	H	1.051246	-0.775476	-0.072287
Br72	Br	0.833786	-0.593230	0.169141
