data_functionalizedCrystal
_audit_creation_method	'MofGen! by Chris Wilmer'
_symmetry_space_group_name_H-M	'P1'
_symmetry_Int_Tables_number	1
_symmetry_cell_setting	triclinic
loop_
_symmetry_equiv_pos_as_xyz
  x,y,z
_cell_length_a	17.038272
_cell_length_b	17.019294
_cell_length_c	14.472310
_cell_angle_alpha	86.119952
_cell_angle_beta	89.992377
_cell_angle_gamma	87.244363
loop_
_atom_site_label
_atom_site_type_symbol
_atom_site_fract_x
_atom_site_fract_y
_atom_site_fract_z
O1	O	1.037232	0.171281	-0.090352
O2	O	0.809604	0.168561	-0.090163
O3	O	0.929767	0.055515	-0.081149
O4	O	0.917069	0.284327	-0.099366
O5	O	0.929736	0.055520	0.072533
O6	O	0.809573	0.168566	0.063519
O7	O	1.037202	0.171286	0.063330
Cu8	Cu	0.923385	0.169927	0.077457
Cu9	Cu	0.923421	0.169921	-0.104290
O10	O	0.917039	0.284332	0.054316
C11	C	0.780462	0.166090	-0.013129
C12	C	0.693676	0.158710	-0.012552
C13	C	0.643504	0.226470	-0.017946
C14	C	0.561960	0.219531	-0.017380
C15	C	0.530588	0.144831	-0.011428
C16	C	0.580766	0.077066	-0.006031
C17	C	0.662309	0.084006	-0.006589
C18	C	0.284851	0.120313	-0.009451
C19	C	0.203301	0.113378	-0.008896
C20	C	0.184501	0.255843	-0.020244
C21	C	0.266046	0.262777	-0.020807
C22	C	0.316217	0.195012	-0.015405
C23	C	0.447236	0.137736	-0.010853
C24	C	0.399567	0.202107	-0.015974
C25	C	0.929270	0.026096	-0.001968
C26	C	0.927824	-0.061571	0.005005
C27	C	0.927163	-0.102755	-0.075490
C28	C	0.925800	-0.185127	-0.068936
C29	C	0.925103	-0.226314	0.018115
C30	C	0.925761	-0.185124	0.098617
C31	C	0.927119	-0.102753	0.092061
C32	C	0.920998	-0.475021	0.042100
C33	C	0.919642	-0.557398	0.048649
C34	C	0.919680	-0.557395	-0.118904
C35	C	0.921042	-0.475023	-0.125452
C36	C	0.921696	-0.433840	-0.044950
C37	C	0.923712	-0.310511	0.024817
C38	C	0.923082	-0.349643	-0.051653
C39	C	1.066343	0.173757	-0.013706
C40	C	1.153130	0.181138	-0.014289
C41	C	0.917536	0.313751	-0.024867
C42	C	0.918982	0.401418	-0.031846
N43	N	0.923365	0.169931	0.205287
N44	N	0.923447	0.169911	-0.232120
C45	C	0.923420	0.169918	0.579380
C46	C	0.858908	0.230175	0.535409
C47	C	0.859056	0.230420	0.428301
C48	C	0.923392	0.169924	0.393788
C49	C	1.004945	0.193374	0.430768
C50	C	1.004582	0.193809	0.537855
C51	C	0.907107	0.086068	0.546582
C52	C	0.905236	0.086494	0.439420
C53	C	0.923381	0.169926	0.288900
C54	C	0.923436	0.169917	0.684268
H55	H	0.927735	-0.069227	-0.146377
C56	C	0.434079	0.284275	-0.022521
N57	N	0.460080	0.346164	-0.027458
H58	H	0.669040	0.287298	-0.022793
H59	H	0.923644	-0.316105	-0.122530
C60	C	0.824187	0.062625	0.407027
N61	N	0.763141	0.044649	0.382624
H62	H	0.421684	0.076915	-0.005980
H63	H	0.925266	-0.218656	-0.134484
C64	C	0.922945	-0.355825	0.120571
N65	N	0.922364	-0.389958	0.192693
C66	C	1.024848	0.275320	0.388004
N67	N	1.039833	0.337045	0.355799
H68	H	0.521113	0.274708	-0.021774
H69	H	0.703158	0.028828	-0.002197
C70	C	0.300548	0.344953	-0.027341
N71	N	0.326535	0.406849	-0.032260
C72	C	0.921809	-0.429724	-0.221214
N73	N	0.922390	-0.395604	-0.293344
H74	H	0.919146	-0.590935	-0.184443
C75	C	0.964612	0.022507	0.408371
N76	N	1.009346	-0.025685	0.384992
H77	H	0.848935	0.064878	0.575330
C78	C	0.129307	0.330380	-0.026174
N79	N	0.087735	0.386524	-0.030636
C80	C	0.918872	-0.602701	0.144416
N81	N	0.918294	-0.636824	0.216544
H82	H	0.177762	0.052545	-0.004049
H83	H	0.925189	-0.218664	0.169495
H84	H	0.921546	-0.441500	0.107650
H85	H	0.798089	0.215558	0.562353
C86	C	0.970660	0.025401	0.585640
N87	N	1.018530	-0.020288	0.615065
C88	C	0.777153	0.210468	0.394407
N89	N	0.715459	0.195445	0.368882
C90	C	0.340028	0.045768	-0.003515
N91	N	0.381591	-0.010383	0.000956
H92	H	0.927646	-0.069221	0.157609
H93	H	0.555217	0.016243	-0.001171
C94	C	0.872772	0.313603	0.565121
N95	N	0.883216	0.376441	0.587501
C96	C	0.873122	0.314327	0.386989
N97	N	0.883720	0.377528	0.355873
H98	H	1.018971	0.255127	0.557951
C99	C	1.071393	0.137179	0.577372
N100	N	1.121723	0.094537	0.607131
C101	C	1.071345	0.135973	0.400918
N102	N	1.121357	0.092737	0.378432
