data_functionalizedCrystal
_audit_creation_method	'MofGen! by Chris Wilmer'
_symmetry_space_group_name_H-M	'P1'
_symmetry_Int_Tables_number	1
_symmetry_cell_setting	triclinic
loop_
_symmetry_equiv_pos_as_xyz
  x,y,z
_cell_length_a	19.805407
_cell_length_b	19.076808
_cell_length_c	19.805399
_cell_angle_alpha	87.672943
_cell_angle_beta	89.982197
_cell_angle_gamma	92.320774
loop_
_atom_site_label
_atom_site_type_symbol
_atom_site_fract_x
_atom_site_fract_y
_atom_site_fract_z
Zn1	Zn	1.023912	-0.280283	-0.371852
Zn2	Zn	1.357245	0.053051	-0.038519
Zn3	Zn	1.690578	0.386384	0.294814
Zn4	Zn	1.019281	-0.397988	-0.254114
Zn5	Zn	1.352614	-0.064654	0.079220
Zn6	Zn	1.685948	0.268679	0.412553
Zn7	Zn	0.910726	-0.280297	-0.258680
Zn8	Zn	1.244059	0.053037	0.074654
Zn9	Zn	1.577392	0.386370	0.407987
Zn10	Zn	0.906146	-0.397945	-0.367265
Zn11	Zn	1.239479	-0.064611	-0.033932
Zn12	Zn	1.572813	0.268722	0.299401
O13	O	0.965016	-0.339128	-0.312978
O14	O	1.298349	-0.005795	0.020356
O15	O	1.631683	0.327539	0.353689
O16	O	1.118013	-0.295909	-0.356243
O17	O	1.451347	0.037425	-0.022909
O18	O	1.784680	0.370758	0.310424
O19	O	1.004860	-0.382400	-0.160002
O20	O	1.338193	-0.049066	0.173332
O21	O	1.671526	0.284267	0.506665
O22	O	0.929595	-0.181799	-0.277523
O23	O	1.262928	0.151535	0.055811
O24	O	1.596261	0.484868	0.389144
O25	O	1.114611	-0.382386	-0.269740
O26	O	1.447945	-0.049053	0.063593
O27	O	1.781278	0.284281	0.396926
O28	O	1.012752	-0.181788	-0.360670
O29	O	1.346085	0.151545	-0.027337
O30	O	1.679419	0.484878	0.305997
O31	O	0.925105	-0.295932	-0.163357
O32	O	1.258438	0.037401	0.169977
O33	O	1.591771	0.370734	0.503310
O34	O	0.815402	-0.295891	-0.273075
O35	O	1.148735	0.037443	0.060258
O36	O	1.482069	0.370776	0.393591
O37	O	0.921789	-0.382313	-0.462591
O38	O	1.255122	-0.048980	-0.129258
O39	O	1.588456	0.284354	0.204075
O40	O	0.812037	-0.382326	-0.352853
O41	O	1.145371	-0.048993	-0.019519
O42	O	1.478704	0.284340	0.313814
O43	O	1.008311	-0.295867	-0.465961
O44	O	1.341644	0.037466	-0.132628
O45	O	1.674978	0.370800	0.200705
O46	O	1.000419	-0.496478	-0.265293
O47	O	1.333752	-0.163145	0.068040
O48	O	1.667085	0.170188	0.401374
O49	O	0.917299	-0.496447	-0.348425
O50	O	1.250632	-0.163113	-0.015092
O51	O	1.583966	0.170220	0.318242
C52	C	0.789161	-0.339106	-0.312962
C53	C	1.122494	-0.005773	0.020371
C54	C	1.455828	0.327561	0.353704
C55	C	0.713929	-0.339113	-0.312971
C56	C	1.047262	-0.005780	0.020362
C57	C	1.380595	0.327553	0.353696
C58	C	0.680354	-0.294164	-0.358075
C59	C	1.013687	0.039169	-0.024742
C60	C	1.347020	0.372502	0.308591
C61	C	0.609665	-0.294168	-0.358078
C62	C	0.942998	0.039165	-0.024744
C63	C	1.276332	0.372499	0.308589
C64	C	0.572553	-0.339125	-0.312979
C65	C	0.905886	-0.005792	0.020355
C66	C	1.239219	0.327542	0.353688
C67	C	0.606133	-0.384076	-0.267869
C68	C	0.939466	-0.050743	0.065464
C69	C	1.272799	0.282591	0.398797
C70	C	0.676820	-0.384068	-0.267864
C71	C	1.010153	-0.050735	0.065469
C72	C	1.343487	0.282598	0.398803
C73	C	0.321058	-0.384108	-0.267889
C74	C	0.654391	-0.050774	0.065444
C75	C	0.987725	0.282559	0.398778
C76	C	0.250366	-0.384113	-0.267899
C77	C	0.583699	-0.050780	0.065434
C78	C	0.917032	0.282553	0.398768
C79	C	0.253903	-0.294207	-0.358102
C80	C	0.587236	0.039126	-0.024769
C81	C	0.920570	0.372459	0.308564
C82	C	0.324590	-0.294200	-0.358097
C83	C	0.657924	0.039134	-0.024764
C84	C	0.991257	0.372467	0.308569
C85	C	0.358164	-0.339148	-0.312986
C86	C	0.691498	-0.005814	0.020347
C87	C	1.024831	0.327519	0.353681
C88	C	0.434813	-0.339142	-0.312983
C89	C	0.768146	-0.005809	0.020350
C90	C	1.101480	0.327524	0.353684
C91	C	0.495905	-0.339134	-0.312984
C92	C	0.829238	-0.005801	0.020349
C93	C	1.162572	0.327532	0.353682
C94	C	0.957878	-0.522001	-0.305881
C95	C	1.291211	-0.188668	0.027453
C96	C	1.624544	0.144665	0.360786
C97	C	0.954886	-0.600235	-0.302867
C98	C	1.288219	-0.266902	0.030466
C99	C	1.621552	0.066431	0.363800
C100	C	0.996743	-0.636924	-0.344777
C101	C	1.330077	-0.303591	-0.011443
C102	C	1.663410	0.029743	0.321890
C103	C	0.993929	-0.710433	-0.341946
C104	C	1.327263	-0.377100	-0.008613
C105	C	1.660596	-0.043767	0.324720
C106	C	0.949261	-0.747253	-0.297202
C107	C	1.282594	-0.413919	0.036131
C108	C	1.615927	-0.080586	0.369464
C109	C	0.907399	-0.710559	-0.255291
C110	C	1.240732	-0.377225	0.078042
C111	C	1.574065	-0.043892	0.411376
C112	C	0.910210	-0.637051	-0.258125
C113	C	1.243543	-0.303718	0.075208
C114	C	1.576876	0.029616	0.408541
C115	C	0.936211	-0.967105	-0.284083
C116	C	1.269545	-0.633771	0.049250
C117	C	1.602878	-0.300438	0.382584
C118	C	0.933405	-1.040618	-0.281250
C119	C	1.266738	-0.707284	0.052083
C120	C	1.600072	-0.373951	0.385416
C121	C	1.019935	-1.040487	-0.367907
C122	C	1.353268	-0.707154	-0.034573
C123	C	1.686602	-0.373820	0.298760
C124	C	1.022745	-0.966978	-0.370734
C125	C	1.356078	-0.633645	-0.037401
C126	C	1.689412	-0.300311	0.295932
C127	C	0.980880	-0.930290	-0.328826
C128	C	1.314214	-0.596957	0.004508
C129	C	1.647547	-0.263624	0.337841
N130	N	0.946385	-0.822391	-0.294307
N131	N	1.279718	-0.489057	0.039027
N132	N	1.613052	-0.155724	0.372360
N133	N	0.983753	-0.855154	-0.331725
N134	N	1.317087	-0.521820	0.001608
N135	N	1.650420	-0.188487	0.334942
C136	C	1.141558	-0.339151	-0.312994
C137	C	1.474891	-0.005817	0.020340
C138	C	1.808225	0.327516	0.353673
C139	C	1.216789	-0.339160	-0.313001
C140	C	1.550123	-0.005827	0.020333
C141	C	1.883456	0.327506	0.353666
C142	C	0.965056	-0.339084	-0.489522
C143	C	1.298389	-0.005750	-0.156189
C144	C	1.631722	0.327583	0.177144
C145	C	0.965073	-0.339065	-0.564755
C146	C	1.298406	-0.005731	-0.231422
C147	C	1.631739	0.327602	0.101912
C148	C	0.972201	-0.155540	-0.320117
C149	C	1.305534	0.177793	0.013216
C150	C	1.638867	0.511126	0.346549
C151	C	0.975262	-0.077306	-0.323160
C152	C	1.308596	0.256027	0.010173
C153	C	1.641929	0.589360	0.343507
C154	C	1.010126	-0.294050	-0.601855
C155	C	1.343459	0.039283	-0.268522
C156	C	1.676792	0.372617	0.064812
C157	C	1.010133	-0.294030	-0.672544
C158	C	1.343467	0.039304	-0.339211
C159	C	1.676800	0.372637	-0.005878
C160	C	0.965091	-0.339028	-0.706132
C161	C	1.298424	-0.005695	-0.372799
C162	C	1.631758	0.327639	-0.039465
C163	C	0.920033	-0.384045	-0.669027
C164	C	1.253366	-0.050711	-0.335694
C165	C	1.586700	0.282622	-0.002360
C166	C	0.920022	-0.384061	-0.598339
C167	C	1.253356	-0.050728	-0.265006
C168	C	1.586689	0.282606	0.068327
C169	C	0.920074	-0.383979	-0.954103
C170	C	1.253407	-0.050646	-0.620770
C171	C	1.586740	0.282688	-0.287436
C172	C	0.920089	-0.383961	-1.024796
C173	C	1.253422	-0.050627	-0.691463
C174	C	1.586756	0.282706	-0.358129
C175	C	1.010185	-0.293948	-1.028308
C176	C	1.343518	0.039386	-0.694975
C177	C	1.676851	0.372719	-0.361641
C178	C	1.010174	-0.293964	-0.957620
C179	C	1.343507	0.039369	-0.624287
C180	C	1.676841	0.372703	-0.290954
C181	C	0.965114	-0.338978	-0.920522
C182	C	1.298448	-0.005644	-0.587188
C183	C	1.631781	0.327689	-0.253855
C184	C	0.965105	-0.338998	-0.843872
C185	C	1.298439	-0.005665	-0.510539
C186	C	1.631772	0.327668	-0.177206
C187	C	0.965102	-0.339011	-0.782780
C188	C	1.298436	-0.005678	-0.449447
C189	C	1.631769	0.327655	-0.116113
C190	C	0.965017	-0.339121	-0.137122
C191	C	1.298351	-0.005788	0.196211
C192	C	1.631684	0.327545	0.529545
C193	C	0.965139	-0.338942	-0.061897
C194	C	1.298473	-0.005609	0.271436
C195	C	1.631806	0.327725	0.604769
H196	H	0.704156	-0.420670	-0.231135
H197	H	1.037489	-0.087337	0.102198
H198	H	1.370822	0.245997	0.435532
H199	H	0.226559	-0.257606	-0.394832
H200	H	0.559892	0.075727	-0.061499
H201	H	0.893225	0.409061	0.271835
H202	H	0.575910	-0.420677	-0.231146
H203	H	0.909243	-0.087344	0.102188
H204	H	1.242577	0.245989	0.435521
H205	H	0.883407	-0.420605	-1.052141
H206	H	1.216740	-0.087272	-0.718808
H207	H	1.550074	0.246062	-0.385474
O208	O	0.876272	-0.427761	-0.918174
O209	O	1.209606	-0.094428	-0.584840
O210	O	1.542939	0.238905	-0.251507
C211	C	0.836506	-0.467455	-0.962981
C212	C	1.169839	-0.134122	-0.629647
C213	C	1.503173	0.199211	-0.296314
H214	H	0.864151	-0.469899	-1.013272
H215	H	1.197484	-0.136566	-0.679939
H216	H	1.530818	0.196768	-0.346606
H217	H	0.827091	-0.522911	-0.940394
H218	H	1.160424	-0.189578	-0.607061
H219	H	1.493757	0.143756	-0.273727
H220	H	0.786121	-0.441655	-0.971507
H221	H	1.119454	-0.108322	-0.638174
H222	H	1.452787	0.225012	-0.304840
H223	H	0.902125	-0.937239	-0.249958
H224	H	1.235458	-0.603906	0.083375
H225	H	1.568792	-0.270573	0.416709
H226	H	0.348385	-0.420708	-0.231157
H227	H	0.681719	-0.087375	0.102176
H228	H	1.015052	0.245959	0.435510
O229	O	0.214417	-0.427806	-0.224019
O230	O	0.547751	-0.094473	0.109314
O231	O	0.881084	0.238860	0.442647
C232	C	0.259207	-0.467489	-0.184212
C233	C	0.592540	-0.134156	0.149122
C234	C	0.925873	0.199177	0.482455
H235	H	0.310717	-0.438652	-0.183026
H236	H	0.644050	-0.105319	0.150307
H237	H	0.977384	0.228014	0.483640
H238	H	0.238468	-0.474921	-0.130586
H239	H	0.571801	-0.141588	0.202748
H240	H	0.905135	0.191745	0.536081
H241	H	0.264653	-0.520982	-0.206832
H242	H	0.597987	-0.187648	0.126502
H243	H	0.931320	0.145685	0.459835
O244	O	1.040151	-0.601270	-0.388303
O245	O	1.373484	-0.267936	-0.054969
O246	O	1.706817	0.065397	0.278364
C247	C	1.076501	-0.649419	-0.424676
C248	C	1.409834	-0.316086	-0.091342
C249	C	1.743168	0.017248	0.241991
H250	H	1.046771	-0.701840	-0.424969
H251	H	1.380105	-0.368507	-0.091636
H252	H	1.713438	-0.035173	0.241698
H253	H	1.084499	-0.628144	-0.478832
H254	H	1.417832	-0.294811	-0.145499
H255	H	1.751166	0.038523	0.187834
H256	H	1.127625	-0.657208	-0.399639
H257	H	1.460959	-0.323874	-0.066306
H258	H	1.794292	0.009459	0.267027
O259	O	1.066044	-0.931140	-0.414239
O260	O	1.399377	-0.597807	-0.080905
O261	O	1.732711	-0.264474	0.252428
C262	C	1.029109	-0.888639	-0.459572
C263	C	1.362443	-0.555306	-0.126239
C264	C	1.695776	-0.221972	0.207095
H265	H	0.978249	-0.877681	-0.436077
H266	H	1.311582	-0.544347	-0.102743
H267	H	1.644916	-0.211014	0.230590
H268	H	1.058654	-0.836921	-0.470664
H269	H	1.391987	-0.503588	-0.137330
H270	H	1.725320	-0.170255	0.196003
H271	H	1.020559	-0.916946	-0.508632
H272	H	1.353892	-0.583613	-0.175299
H273	H	1.687226	-0.250279	0.158035
O274	O	0.577020	-0.250435	-0.401801
O275	O	0.910354	0.082899	-0.068468
O276	O	1.243687	0.416232	0.264865
C277	C	0.537875	-0.204933	-0.365112
C278	C	0.871208	0.128400	-0.031779
C279	C	1.204542	0.461734	0.301554
H280	H	0.559330	-0.200502	-0.311982
H281	H	0.892664	0.132831	0.021351
H282	H	1.225997	0.466165	0.354685
H283	H	0.539187	-0.150802	-0.391786
H284	H	0.872520	0.182531	-0.058452
H285	H	1.205854	0.515864	0.274881
H286	H	0.483455	-0.226699	-0.361902
H287	H	0.816789	0.106634	-0.028568
H288	H	1.150122	0.439968	0.304765
H289	H	0.871026	-0.740543	-0.218862
H290	H	1.204359	-0.407209	0.114471
H291	H	1.537693	-0.073876	0.447804
H292	H	1.054018	-1.070366	-0.402027
H293	H	1.387351	-0.737033	-0.068694
H294	H	1.720685	-0.403699	0.264639
O295	O	1.034622	-0.746155	-0.382554
O296	O	1.367955	-0.412822	-0.049220
O297	O	1.701289	-0.079488	0.284113
C298	C	1.076739	-0.788649	-0.342410
C299	C	1.410073	-0.455316	-0.009077
C300	C	1.743406	-0.121983	0.324256
H301	H	1.052468	-0.799707	-0.290671
H302	H	1.385801	-0.466374	0.042663
H303	H	1.719134	-0.133041	0.375996
H304	H	1.083817	-0.840319	-0.367991
H305	H	1.417151	-0.506985	-0.034658
H306	H	1.750484	-0.173652	0.298675
H307	H	1.127989	-0.760286	-0.336108
H308	H	1.461322	-0.426953	-0.002775
H309	H	1.794655	-0.093619	0.330558
O310	O	0.869523	-0.601518	-0.217347
O311	O	1.202856	-0.268185	0.115986
O312	O	1.536189	0.065149	0.449319
C313	C	0.829481	-0.649776	-0.177260
C314	C	1.162814	-0.316443	0.156073
C315	C	1.496148	0.016890	0.489407
H316	H	0.855205	-0.702152	-0.172917
H317	H	1.188538	-0.368819	0.160417
H318	H	1.521871	-0.035485	0.493750
H319	H	0.823097	-0.628573	-0.124744
H320	H	1.156430	-0.295240	0.208589
H321	H	1.489764	0.038093	0.541923
H322	H	0.777763	-0.657626	-0.201702
H323	H	1.111097	-0.324292	0.131632
H324	H	1.444430	0.009041	0.464965
O325	O	1.053894	-0.250308	-0.924887
O326	O	1.387228	0.083025	-0.591554
O327	O	1.720561	0.416358	-0.258220
C328	C	1.044207	-0.259958	-0.854541
C329	C	1.377540	0.073376	-0.521208
C330	C	1.710874	0.406709	-0.187875
H331	H	1.019927	-0.314282	-0.842767
H332	H	1.353260	0.019051	-0.509434
H333	H	1.686593	0.352384	-0.176101
H334	H	1.095084	-0.255177	-0.827864
H335	H	1.428417	0.078156	-0.494531
H336	H	1.761751	0.411489	-0.161198
H337	H	1.009778	-0.218217	-0.836109
H338	H	1.343111	0.115116	-0.502776
H339	H	1.676445	0.448449	-0.169442
O340	O	0.889949	-1.076276	-0.237769
O341	O	1.223282	-0.742943	0.095564
O342	O	1.556615	-0.409610	0.428897
C343	C	0.853611	-1.028133	-0.201376
C344	C	1.186944	-0.694800	0.131958
C345	C	1.520278	-0.361467	0.465291
H346	H	0.853253	-0.975719	-0.231117
H347	H	1.186586	-0.642385	0.102217
H348	H	1.519920	-0.309052	0.435550
H349	H	0.799474	-1.049427	-0.193292
H350	H	1.132807	-0.716093	0.140041
H351	H	1.466140	-0.382760	0.473375
H352	H	0.878721	-1.020326	-0.150291
H353	H	1.212054	-0.686992	0.183042
H354	H	1.545387	-0.353659	0.516375
O355	O	0.360717	-0.250494	-0.401814
O356	O	0.694050	0.082839	-0.068480
O357	O	1.027383	0.416173	0.264853
C358	C	0.403349	-0.204966	-0.365111
C359	C	0.736682	0.128367	-0.031777
C360	C	1.070015	0.461700	0.301556
H361	H	0.412953	-0.229721	-0.312816
H362	H	0.746286	0.103613	0.020517
H363	H	1.079619	0.436946	0.353851
H364	H	0.453434	-0.195566	-0.393054
H365	H	0.786767	0.137767	-0.059721
H366	H	1.120100	0.471100	0.273613
H367	H	0.378134	-0.152798	-0.359783
H368	H	0.711468	0.180536	-0.026449
H369	H	1.044801	0.513869	0.306884
H370	H	0.883329	-0.420709	-0.568133
H371	H	1.216662	-0.087376	-0.234800
H372	H	1.549996	0.245957	0.098533
H373	H	1.046807	-0.257409	-0.574513
H374	H	1.380140	0.075924	-0.241180
H375	H	1.713473	0.409257	0.092154
H376	H	1.046822	-0.257376	-0.702748
H377	H	1.380155	0.075957	-0.369415
H378	H	1.713488	0.409291	-0.036081
O379	O	1.053923	-0.250116	-1.064276
O380	O	1.387256	0.083217	-0.730943
O381	O	1.720589	0.416551	-0.397610
C382	C	1.041865	-0.179967	-1.049738
C383	C	1.375198	0.153367	-0.716405
C384	C	1.708531	0.486700	-0.383071
H385	H	1.015894	-0.178519	-0.998467
H386	H	1.349227	0.154814	-0.665133
H387	H	1.682561	0.488148	-0.331800
H388	H	1.091949	-0.148414	-1.048553
H389	H	1.425283	0.184919	-0.715219
H390	H	1.758616	0.518252	-0.381886
H391	H	1.008002	-0.156241	-1.090438
H392	H	1.341335	0.177092	-0.757104
H393	H	1.674668	0.510425	-0.423771
H394	H	0.710565	-0.257557	-0.394802
H395	H	1.043899	0.075776	-0.061469
H396	H	1.377232	0.409110	0.271865
H397	H	0.883356	-0.420680	-0.696380
H398	H	1.216689	-0.087347	-0.363047
H399	H	1.550023	0.245986	-0.029713
