data_functionalizedCrystal
_audit_creation_method	'MofGen! by Chris Wilmer'
_symmetry_space_group_name_H-M	'P1'
_symmetry_Int_Tables_number	1
_symmetry_cell_setting	triclinic
loop_
_symmetry_equiv_pos_as_xyz
  x,y,z
_cell_length_a	16.625548
_cell_length_b	16.625545
_cell_length_c	13.897441
_cell_angle_alpha	90.031157
_cell_angle_beta	90.021870
_cell_angle_gamma	90.026626
loop_
_atom_site_label
_atom_site_type_symbol
_atom_site_fract_x
_atom_site_fract_y
_atom_site_fract_z
Zn1	Zn	1.232674	-0.320953	0.545407
Zn2	Zn	1.232566	-0.455803	0.384106
Zn3	Zn	1.097832	-0.320991	0.384122
Zn4	Zn	1.097798	-0.455750	0.545356
O5	O	1.165218	-0.388374	0.464748
O6	O	1.345492	-0.338848	0.524025
O7	O	1.214663	-0.437958	0.249127
O8	O	1.115778	-0.208153	0.405544
O9	O	1.345413	-0.437922	0.405518
O10	O	1.214846	-0.208126	0.524040
O11	O	1.115674	-0.338912	0.249138
O12	O	0.984995	-0.338860	0.405495
O13	O	1.115721	-0.437830	0.680344
O14	O	0.984971	-0.437867	0.523953
O15	O	1.214813	-0.338796	0.680382
O16	O	1.214630	-0.568629	0.405469
O17	O	1.115617	-0.568589	0.523938
C18	C	0.955727	-0.388363	0.464721
C19	C	0.866106	-0.388377	0.464732
C20	C	1.165130	-0.597865	0.464717
C21	C	1.165166	-0.687486	0.464737
C22	C	0.537930	-0.388382	0.464773
C23	C	0.629239	-0.388379	0.464759
C24	C	0.702015	-0.388380	0.464752
C25	C	0.793329	-0.388376	0.464739
C26	C	1.165198	-0.760269	0.464756
C27	C	1.165245	-0.851577	0.464777
C28	C	1.165286	-0.924353	0.464789
C29	C	1.165333	-1.015668	0.464809
C30	C	1.375527	-0.388386	0.464775
C31	C	1.465148	-0.388392	0.464787
C32	C	1.165275	-0.388303	0.716341
C33	C	1.165299	-0.388273	0.823555
C34	C	1.165328	-0.178065	0.464799
C35	C	1.165374	-0.088444	0.464821
C36	C	1.165207	-0.388387	0.214133
C37	C	1.165339	-0.388190	0.106920
C38	C	1.165321	-0.388218	1.019850
C39	C	1.165307	-0.388251	0.910618
