data_functionalizedCrystal
_audit_creation_method	'MofGen! by Chris Wilmer'
_symmetry_space_group_name_H-M	'P1'
_symmetry_Int_Tables_number	1
_symmetry_cell_setting	triclinic
loop_
_symmetry_equiv_pos_as_xyz
  x,y,z
_cell_length_a	16.625546
_cell_length_b	12.759401
_cell_length_c	12.759393
_cell_angle_alpha	90.020566
_cell_angle_beta	89.964881
_cell_angle_gamma	89.979323
loop_
_atom_site_label
_atom_site_type_symbol
_atom_site_fract_x
_atom_site_fract_y
_atom_site_fract_z
Zn1	Zn	-0.321001	-1.606210	-0.593976
Zn2	Zn	0.012332	-1.272876	-0.260643
Zn3	Zn	0.345666	-0.939543	0.072691
Zn4	Zn	-0.455855	-1.606077	-0.418282
Zn5	Zn	-0.122522	-1.272744	-0.084948
Zn6	Zn	0.210811	-0.939410	0.248385
Zn7	Zn	-0.321036	-1.430508	-0.418312
Zn8	Zn	0.012297	-1.097175	-0.084979
Zn9	Zn	0.345630	-0.763842	0.248354
Zn10	Zn	-0.455791	-1.430476	-0.593920
Zn11	Zn	-0.122458	-1.097143	-0.260587
Zn12	Zn	0.210875	-0.763810	0.072746
O13	O	-0.388421	-1.518318	-0.506123
O14	O	-0.055088	-1.184984	-0.172789
O15	O	0.278246	-0.851651	0.160544
O16	O	-0.338902	-1.753213	-0.570680
O17	O	-0.005569	-1.419880	-0.237347
O18	O	0.327765	-1.086546	0.095986
O19	O	-0.438013	-1.582745	-0.271265
O20	O	-0.104680	-1.249412	0.062069
O21	O	0.228654	-0.916078	0.395402
O22	O	-0.208199	-1.453884	-0.441650
O23	O	0.125134	-1.120551	-0.108317
O24	O	0.458467	-0.787218	0.225016
O25	O	-0.437979	-1.753116	-0.441599
O26	O	-0.104646	-1.419782	-0.108265
O27	O	0.228688	-1.086449	0.225068
O28	O	-0.208173	-1.582971	-0.570710
O29	O	0.125160	-1.249638	-0.237376
O30	O	0.458493	-0.916305	0.095957
O31	O	-0.338962	-1.453756	-0.271287
O32	O	-0.005628	-1.120422	0.062046
O33	O	0.327705	-0.787089	0.395380
O34	O	-0.338900	-1.283483	-0.441596
O35	O	-0.005566	-0.950150	-0.108263
O36	O	0.327767	-0.616816	0.225070
O37	O	-0.437870	-1.453830	-0.740949
O38	O	-0.104536	-1.120497	-0.407615
O39	O	0.228797	-0.787163	-0.074282
O40	O	-0.437904	-1.283460	-0.570615
O41	O	-0.104570	-0.950126	-0.237281
O42	O	0.228763	-0.616793	0.096052
O43	O	-0.338840	-1.582940	-0.740990
O44	O	-0.005506	-1.249607	-0.407656
O45	O	0.327827	-0.916274	-0.074323
O46	O	-0.568679	-1.582714	-0.441545
O47	O	-0.235346	-1.249381	-0.108211
O48	O	0.097987	-0.916048	0.225122
O49	O	-0.568632	-1.453701	-0.570585
O50	O	-0.235299	-1.120368	-0.237252
O51	O	0.098034	-0.787035	0.096081
C52	C	-0.388399	-1.245350	-0.506103
C53	C	-0.055066	-0.912017	-0.172770
C54	C	0.278268	-0.578684	0.160563
C55	C	-0.388409	-1.128574	-0.506120
C56	C	-0.055076	-0.795240	-0.172787
C57	C	0.278258	-0.461907	0.160546
C58	C	-0.336911	-1.073763	-0.573436
C59	C	-0.003578	-0.740430	-0.240102
C60	C	0.329755	-0.407097	0.093231
C61	C	-0.336916	-0.964039	-0.573441
C62	C	-0.003583	-0.630706	-0.240108
C63	C	0.329750	-0.297373	0.093226
C64	C	-0.439924	-0.963946	-0.438812
C65	C	-0.106590	-0.630613	-0.105479
C66	C	0.226743	-0.297279	0.227855
C67	C	-0.439914	-1.073668	-0.438802
C68	C	-0.106581	-0.740335	-0.105469
C69	C	0.226753	-0.407001	0.227864
C70	C	-0.597912	-1.518218	-0.506079
C71	C	-0.264579	-1.184885	-0.172745
C72	C	0.068755	-0.851552	0.160588
C73	C	-0.687533	-1.518272	-0.506095
C74	C	-0.354200	-1.184939	-0.172762
C75	C	-0.020866	-0.851605	0.160572
C76	C	-1.015709	-1.518455	-0.506204
C77	C	-0.682375	-1.185122	-0.172871
C78	C	-0.349042	-0.851789	0.160462
C79	C	-0.924400	-1.518401	-0.506177
C80	C	-0.591067	-1.185068	-0.172843
C81	C	-0.257733	-0.851734	0.160490
C82	C	-0.851624	-1.518363	-0.506149
C83	C	-0.518290	-1.185029	-0.172816
C84	C	-0.184957	-0.851696	0.160518
C85	C	-0.760309	-1.518310	-0.506123
C86	C	-0.426976	-1.184977	-0.172789
C87	C	-0.093643	-0.851643	0.160544
C88	C	-0.178112	-1.518446	-0.506190
C89	C	0.155221	-1.185113	-0.172856
C90	C	0.488555	-0.851780	0.160477
C91	C	-0.088491	-1.518501	-0.506218
C92	C	0.244842	-1.185168	-0.172885
C93	C	0.578176	-0.851834	0.160448
C94	C	-0.388344	-1.518396	-0.780156
C95	C	-0.055010	-1.185063	-0.446823
C96	C	0.278323	-0.851730	-0.113489
C97	C	-0.388311	-1.518430	-0.896933
C98	C	-0.054977	-1.185097	-0.563599
C99	C	0.278356	-0.851763	-0.230266
C100	C	-0.388436	-0.792351	-0.506138
C101	C	-0.055103	-0.459018	-0.172805
C102	C	0.278230	-0.125684	0.160528
C103	C	-0.388424	-0.909128	-0.506135
C104	C	-0.055090	-0.575794	-0.172802
C105	C	0.278243	-0.242461	0.160531
C106	C	-0.336738	-1.585663	-0.951818
C107	C	-0.003404	-1.252329	-0.618484
C108	C	0.329929	-0.918996	-0.285151
C109	C	-0.336703	-1.585681	-1.061542
C110	C	-0.003370	-1.252347	-0.728209
C111	C	0.329964	-0.919014	-0.394875
C112	C	-0.439821	-1.451230	-1.061486
C113	C	-0.106488	-1.117896	-0.728153
C114	C	0.226846	-0.784563	-0.394820
C115	C	-0.439851	-1.451208	-0.951764
C116	C	-0.106518	-1.117874	-0.618431
C117	C	0.226816	-0.784541	-0.285098
C118	C	-0.388440	-1.518300	-0.233155
C119	C	-0.055107	-1.184967	0.100178
C120	C	0.278227	-0.851633	0.433512
C121	C	-0.388246	-1.518470	-0.116379
C122	C	-0.054912	-1.185137	0.216954
C123	C	0.278421	-0.851803	0.550288
H124	H	-0.294980	-0.919417	-0.628255
H125	H	0.038353	-0.586084	-0.294921
H126	H	0.371686	-0.252751	0.038412
H127	H	-0.481858	-0.919228	-0.384005
H128	H	-0.148525	-0.585895	-0.050672
H129	H	0.184809	-0.252562	0.282661
Br130	Br	-0.509841	-1.359947	-0.877270
Br131	Br	-0.176508	-1.026613	-0.543937
Br132	Br	0.156826	-0.693280	-0.210604
Br133	Br	-0.509798	-1.148061	-0.347424
Br134	Br	-0.176464	-0.814728	-0.014091
Br135	Br	0.156869	-0.481394	0.319243
H136	H	-0.481785	-1.396502	-1.106144
H137	H	-0.148452	-1.063169	-0.772810
H138	H	0.184881	-0.729835	-0.439477
Br139	Br	-0.266714	-1.676937	-1.136025
Br140	Br	0.066620	-1.343603	-0.802692
Br141	Br	0.399953	-1.010270	-0.469358
Br142	Br	-0.267010	-1.148275	-0.664792
Br143	Br	0.066323	-0.814942	-0.331459
Br144	Br	0.399656	-0.481609	0.001875
Br145	Br	-0.266789	-1.676890	-0.877406
Br146	Br	0.066545	-1.343557	-0.544073
Br147	Br	0.399878	-1.010224	-0.210740
