data_functionalizedCrystal
_audit_creation_method	'MofGen! by Chris Wilmer'
_symmetry_space_group_name_H-M	'P1'
_symmetry_Int_Tables_number	1
_symmetry_cell_setting	triclinic
loop_
_symmetry_equiv_pos_as_xyz
  x,y,z
_cell_length_a	19.288864
_cell_length_b	12.837942
_cell_length_c	17.766277
_cell_angle_alpha	89.994736
_cell_angle_beta	89.976791
_cell_angle_gamma	88.982593
loop_
_atom_site_label
_atom_site_type_symbol
_atom_site_fract_x
_atom_site_fract_y
_atom_site_fract_z
O1	O	0.930181	0.129276	-0.062838
O2	O	1.430181	0.629276	0.437162
O3	O	0.729111	0.146715	-0.062786
O4	O	1.229111	0.646715	0.437214
O5	O	0.825187	-0.012886	-0.062806
O6	O	1.325187	0.487114	0.437194
O7	O	0.834104	0.288878	-0.062818
O8	O	1.334104	0.788878	0.437182
O9	O	0.825168	-0.012894	0.062382
O10	O	1.325168	0.487106	0.562382
O11	O	0.729091	0.146707	0.062402
O12	O	1.229091	0.646707	0.562402
O13	O	0.930161	0.129268	0.062351
O14	O	1.430161	0.629268	0.562351
Cu15	Cu	0.829625	0.137987	0.073807
Cu16	Cu	1.329625	0.637987	0.573807
Cu17	Cu	0.829647	0.137996	-0.074243
Cu18	Cu	1.329647	0.637996	0.425757
O19	O	0.834085	0.288870	0.062371
O20	O	1.334085	0.788870	0.562371
C21	C	0.703186	0.146150	-0.000185
C22	C	1.203186	0.646150	0.499815
C23	C	0.625968	0.144466	-0.000166
C24	C	1.125968	0.644466	0.499834
C25	C	0.587666	0.238113	-0.000181
C26	C	1.087666	0.738113	0.499819
C27	C	0.515111	0.236530	-0.000189
C28	C	1.015111	0.736530	0.499811
C29	C	0.480860	0.141295	-0.000197
C30	C	0.980860	0.641295	0.499803
C31	C	0.519171	0.047636	-0.000178
C32	C	1.019171	0.547636	0.499822
C33	C	0.591725	0.049221	-0.000162
C34	C	1.091725	0.549221	0.499838
C35	C	0.367493	0.066433	-0.044079
C36	C	0.867493	0.566433	0.455921
C37	C	0.294941	0.064852	-0.044099
C38	C	0.794941	0.564852	0.455901
C39	C	0.257081	0.136402	-0.000243
C40	C	0.757081	0.636402	0.499757
C41	C	0.291782	0.209552	0.043625
C42	C	0.791782	0.709552	0.543625
C43	C	0.364335	0.211137	0.043640
C44	C	0.864335	0.711137	0.543640
C45	C	0.402188	0.139566	-0.000214
C46	C	0.902188	0.639566	0.499786
C47	C	0.140106	0.228340	-0.000266
C48	C	0.640106	0.728340	0.499734
C49	C	0.067550	0.226753	-0.000270
C50	C	0.567550	0.726753	0.499730
C51	C	0.071611	0.037857	-0.000265
C52	C	0.571611	0.537857	0.499735
C53	C	0.144166	0.039446	-0.000254
C54	C	0.644166	0.539446	0.499746
C55	C	0.178409	0.134690	-0.000258
C56	C	0.678409	0.634690	0.499742
C57	C	0.822165	-0.051497	-0.000212
C58	C	1.322165	0.448503	0.499788
C59	C	0.813181	-0.166532	-0.000211
C60	C	1.313181	0.333468	0.499789
C61	C	0.921187	-0.407995	-0.000254
C62	C	1.421187	0.092005	0.499746
C63	C	0.912748	-0.516081	-0.000253
C64	C	1.412748	-0.016081	0.499747
C65	C	0.787867	-0.490793	-0.000213
C66	C	1.287867	0.009207	0.499787
C67	C	0.796305	-0.382707	-0.000214
C68	C	1.296305	0.117293	0.499786
C69	C	0.862967	-0.341312	-0.000233
C70	C	1.362967	0.158688	0.499767
C71	C	0.871405	-0.233223	-0.000229
C72	C	1.371405	0.266777	0.499771
C73	C	0.746524	-0.207938	-0.000195
C74	C	1.246524	0.292062	0.499805
C75	C	0.738086	-0.316024	-0.000194
C76	C	1.238086	0.183976	0.499806
C77	C	0.956086	0.129833	-0.000252
C78	C	1.456086	0.629833	0.499748
C79	C	1.033304	0.131518	-0.000276
C80	C	1.533304	0.631518	0.499724
C81	C	0.837107	0.327480	-0.000225
C82	C	1.337107	0.827480	0.499775
C83	C	0.846091	0.442515	-0.000231
C84	C	1.346091	0.942515	0.499769
N85	N	0.829614	0.137979	0.177938
N86	N	1.329614	0.637979	0.677938
N87	N	0.829663	0.137996	-0.178373
N88	N	1.329663	0.637996	0.321627
C89	C	0.872174	0.067342	0.217316
C90	C	1.372174	0.567342	0.717316
C91	C	0.872178	0.067338	0.296118
C92	C	1.372178	0.567338	0.796118
C93	C	0.829629	0.137988	0.335538
C94	C	1.329629	0.637988	0.835538
C95	C	0.787060	0.208630	0.296151
C96	C	1.287060	0.708630	0.796151
C97	C	0.787052	0.208626	0.217350
C98	C	1.287052	0.708626	0.717350
C99	C	0.826778	0.232410	0.460374
C100	C	1.326778	0.732410	0.960374
C101	C	0.826790	0.232416	0.539173
C102	C	1.326790	0.732416	1.039173
C103	C	0.829648	0.138000	0.578584
C104	C	1.329648	0.638000	1.078584
C105	C	0.832508	0.043575	0.539188
C106	C	1.332508	0.543575	1.039188
C107	C	0.832501	0.043571	0.460387
C108	C	1.332501	0.543571	0.960387
C109	C	0.829632	0.138000	0.420984
C110	C	1.329632	0.638000	0.920984
C111	C	0.872215	0.067352	0.703409
C112	C	1.372215	0.567352	1.203409
C113	C	0.872213	0.067346	0.782212
C114	C	1.372213	0.567346	1.282212
C115	C	0.787100	0.208647	0.782243
C116	C	1.287100	0.708647	1.282243
C117	C	0.787097	0.208645	0.703442
C118	C	1.287097	0.708645	1.203442
C119	C	0.829658	0.137998	0.664029
C120	C	1.329658	0.637998	1.164029
H121	H	0.266693	0.005293	-0.079822
H122	H	0.766693	0.505293	0.420178
O123	O	0.633037	-0.051792	-0.000146
O124	O	1.133037	0.448208	0.499854
H125	H	0.689242	-0.034689	-0.000130
H126	H	1.189242	0.465311	0.499870
H127	H	0.491280	-0.029905	-0.000194
H128	H	0.991280	0.470095	0.499806
O129	O	0.993082	-0.363339	-0.000268
O130	O	1.493082	0.136661	0.499732
H131	H	0.999918	-0.314685	-0.051291
H132	H	1.499918	0.185315	0.448709
O133	O	0.473786	0.337538	-0.000203
O134	O	0.973786	0.837538	0.499797
H135	H	0.440658	0.341324	-0.051232
H136	H	0.940658	0.841324	0.448768
H137	H	0.906868	0.009824	0.671317
H138	H	1.406868	0.509824	1.171317
O139	O	0.177043	0.331065	-0.000260
O140	O	0.677043	0.831065	0.499740
H141	H	0.233929	0.316436	-0.000257
H142	H	0.733929	0.816436	0.499743
O143	O	0.943303	-0.188577	-0.000251
O144	O	1.443303	0.311423	0.499749
H145	H	0.939392	-0.102214	-0.000242
H146	H	1.439392	0.397786	0.499758
H147	H	0.960157	-0.570371	-0.000272
H148	H	1.460157	-0.070371	0.499728
O149	O	0.741149	0.284814	0.174866
O150	O	1.241149	0.784814	0.674866
H151	H	0.755342	0.365571	0.189967
H152	H	1.255342	0.865571	0.689967
H153	H	0.752453	0.266168	0.814339
H154	H	1.252453	0.766168	1.314339
O155	O	0.835446	-0.058329	0.417968
O156	O	1.335446	0.441671	0.917968
H157	H	0.788573	-0.064710	0.382161
H158	H	1.288573	0.435290	0.882161
O159	O	0.666189	-0.360674	-0.000173
O160	O	1.166189	0.139326	0.499827
H161	H	0.637865	-0.333866	0.050861
H162	H	1.137865	0.166134	0.550861
O163	O	0.835595	-0.058278	0.581673
O164	O	1.335595	0.441722	1.081673
H165	H	0.788775	-0.064769	0.617593
H166	H	1.288775	0.435231	1.117593
H167	H	0.733594	-0.524517	-0.000206
H168	H	1.233594	-0.024517	0.499794
H169	H	0.175352	-0.036812	-0.000246
H170	H	0.675352	0.463188	0.499754
O171	O	0.683721	-0.136021	-0.000169
O172	O	1.183721	0.363979	0.499831
H173	H	0.684575	-0.086164	-0.051194
H174	H	1.184575	0.413836	0.448806
H175	H	0.398313	0.008166	-0.079797
H176	H	0.898313	0.508166	0.420203
O177	O	0.624592	0.340843	-0.000172
O178	O	1.124592	0.840843	0.499828
H179	H	0.657575	0.346101	-0.051191
H180	H	1.157575	0.846101	0.448809
H181	H	0.906869	0.009819	0.814274
H182	H	1.406869	0.509819	1.314274
O183	O	0.026233	0.327762	-0.000283
O184	O	0.526233	0.827762	0.499717
H185	H	0.062237	0.394253	-0.000290
H186	H	0.562237	0.894253	0.499710
O187	O	0.918092	-0.008847	0.338598
O188	O	1.418092	0.491153	0.838598
H189	H	0.885541	-0.059113	0.374521
H190	H	1.385541	0.440887	0.874521
H191	H	0.906828	0.009816	0.185228
H192	H	1.406828	0.509816	0.685228
O193	O	0.741202	0.284844	0.660961
O194	O	1.241202	0.784844	1.160961
H195	H	0.711619	0.333978	0.701609
H196	H	1.211619	0.833978	1.201609
O197	O	0.823719	0.334253	0.581664
O198	O	1.323719	0.834253	1.081664
H199	H	0.821721	0.399905	0.541022
H200	H	1.321721	0.899905	1.041022
H201	H	0.824438	0.309300	0.428291
H202	H	1.324438	0.809300	0.928291
O203	O	0.741171	0.284840	0.338661
O204	O	1.241171	0.784840	0.838661
H205	H	0.748332	0.272985	0.400073
H206	H	1.248332	0.772985	0.900073
H207	H	0.260958	0.267814	0.079337
H208	H	0.760958	0.767814	0.579337
O209	O	0.401767	0.289987	0.090982
O210	O	0.901767	0.789987	0.590982
H211	H	0.363258	0.339463	0.121491
H212	H	0.863258	0.839463	0.621491
O213	O	0.034682	-0.064866	-0.000274
O214	O	0.534682	0.435134	0.499726
H215	H	-0.022205	-0.050238	-0.000292
H216	H	0.477795	0.449762	0.499708
