data_functionalizedCrystal
_audit_creation_method	'MofGen! by Chris Wilmer'
_symmetry_space_group_name_H-M	'P1'
_symmetry_Int_Tables_number	1
_symmetry_cell_setting	triclinic
loop_
_symmetry_equiv_pos_as_xyz
  x,y,z
_cell_length_a	16.974829
_cell_length_b	10.489716
_cell_length_c	15.455313
_cell_angle_alpha	92.696181
_cell_angle_beta	83.671566
_cell_angle_gamma	83.962747
loop_
_atom_site_label
_atom_site_type_symbol
_atom_site_fract_x
_atom_site_fract_y
_atom_site_fract_z
O1	O	1.057029	0.151285	-0.146321
O2	O	1.557029	0.651285	0.353679
O3	O	0.826168	0.173235	-0.130117
O4	O	1.326168	0.673235	0.369883
O5	O	0.946862	-0.023455	-0.138591
O6	O	1.446862	0.476545	0.361409
O7	O	0.936335	0.347975	-0.137846
O8	O	1.436335	0.847975	0.362154
O9	O	0.939960	-0.012254	0.006155
O10	O	1.439960	0.487746	0.506155
O11	O	0.819266	0.184437	0.014630
O12	O	1.319266	0.684437	0.514630
O13	O	1.050127	0.162486	-0.001574
O14	O	1.550127	0.662486	0.498426
Cu15	Cu	0.934066	0.174484	0.019744
Cu16	Cu	1.434066	0.674484	0.519744
Cu17	Cu	0.942229	0.161237	-0.151435
Cu18	Cu	1.442229	0.661237	0.348565
O19	O	0.929433	0.359177	0.006900
O20	O	1.429433	0.859177	0.506900
C21	C	0.793156	0.178208	-0.055668
C22	C	1.293156	0.678208	0.444332
C23	C	0.705071	0.176320	-0.049486
C24	C	1.205071	0.676320	0.450514
C25	C	0.942620	-0.065370	-0.066165
C26	C	1.442620	0.434630	0.433835
C27	C	0.940254	-0.206949	-0.066007
C28	C	1.440254	0.293051	0.433993
C29	C	0.208843	0.166394	-0.006216
C30	C	0.708843	0.666394	0.493784
C31	C	0.291607	0.168167	-0.012027
C32	C	0.791607	0.668167	0.487973
C33	C	0.336753	0.162938	-0.093835
C34	C	0.836753	0.662938	0.406165
C35	C	0.299129	0.155948	-0.169837
C36	C	0.799129	0.655948	0.330163
C37	C	0.216365	0.154184	-0.164026
C38	C	0.716365	0.654184	0.335974
C39	C	0.584683	0.167567	-0.119677
C40	C	1.084683	0.667567	0.380323
C41	C	0.667453	0.169327	-0.125483
C42	C	1.167453	0.669327	0.374517
C43	C	0.659926	0.181548	0.032329
C44	C	1.159926	0.681548	0.532329
C45	C	0.577161	0.179776	0.038133
C46	C	1.077161	0.679776	0.538133
C47	C	0.539544	0.172793	-0.037869
C48	C	1.039544	0.672793	0.462131
N49	N	0.421352	0.164746	-0.099776
N50	N	0.921352	0.664746	0.400224
N51	N	0.454945	0.170994	-0.031927
N52	N	0.954945	0.670994	0.468073
C53	C	1.014267	-0.306244	-0.071194
C54	C	1.514267	0.193756	0.428806
C55	C	0.978560	-0.388271	-0.139814
C56	C	1.478560	0.111729	0.360186
C57	C	0.971738	-0.377191	0.002896
C58	C	1.471738	0.122809	0.502896
C59	C	0.904581	-0.287116	-0.134688
C60	C	1.404581	0.212884	0.365312
C61	C	0.897767	-0.276026	0.008085
C62	C	1.397767	0.223974	0.508085
C63	C	0.862006	-0.358003	-0.060549
C64	C	1.362006	0.141997	0.439451
C65	C	1.083140	0.157514	-0.076024
C66	C	1.583140	0.657514	0.423976
C67	C	1.171224	0.159401	-0.082213
C68	C	1.671224	0.659401	0.417787
C69	C	0.933675	0.401091	-0.065528
C70	C	1.433675	0.901091	0.434472
C71	C	0.936041	0.542670	-0.065692
C72	C	1.436041	1.042670	0.434308
N73	N	0.928331	0.183801	0.140143
N74	N	1.428331	0.683801	0.640143
N75	N	0.947970	0.151911	-0.271834
N76	N	1.447970	0.651911	0.228166
C77	C	0.979624	0.100270	0.181935
C78	C	1.479624	0.600270	0.681935
C79	C	0.975294	0.107328	0.273047
C80	C	1.475294	0.607328	0.773047
C81	C	0.919674	0.197923	0.322365
C82	C	1.419674	0.697923	0.822365
C83	C	0.868376	0.281457	0.280566
C84	C	1.368376	0.781457	0.780566
C85	C	0.872702	0.274393	0.189456
C86	C	1.372702	0.774393	0.689456
C87	C	0.900998	0.228381	0.595257
C88	C	1.400998	0.728381	1.095257
C89	C	0.896677	0.235441	0.686373
C90	C	1.396677	0.735441	1.186373
C91	C	1.003595	0.061309	0.678848
C92	C	1.503595	0.561309	1.178848
C93	C	1.007920	0.054258	0.587736
C94	C	1.507920	0.554258	1.087736
C95	C	0.956619	0.137788	0.545946
C96	C	1.456619	0.637788	1.045946
N97	N	0.915249	0.205141	0.415496
N98	N	1.415249	0.705141	0.915496
N99	N	0.961041	0.130562	0.452817
N100	N	1.461041	0.630562	0.952817
H101	H	0.172090	0.170657	0.060401
H102	H	0.672090	0.670657	0.560401
C103	C	1.101243	-0.274814	-0.077395
C104	C	1.601243	0.225186	0.422605
N105	N	1.166752	-0.251139	-0.082070
N106	N	1.666752	0.248861	0.417930
C107	C	1.069102	-0.045410	0.533494
C108	C	1.569102	0.454590	1.033494
N109	N	1.115186	-0.120481	0.492638
N110	N	1.615186	0.379519	0.992638
H111	H	1.012681	-0.437119	-0.202343
H112	H	1.512681	0.062881	0.297657
H113	H	0.322232	0.173858	0.049858
H114	H	0.822232	0.673858	0.549858
C115	C	0.174986	0.146487	-0.247628
C116	C	0.674986	0.646487	0.252372
N117	N	0.143820	0.140691	-0.310601
N118	N	0.643820	0.640691	0.189399
H119	H	0.859228	0.296396	0.561239
H120	H	1.359228	0.796396	1.061239
H121	H	0.554066	0.161876	-0.181563
H122	H	1.054066	0.661876	0.318437
H123	H	0.876234	-0.247802	-0.192897
H124	H	1.376234	0.252198	0.307103
H125	H	0.851382	0.309220	0.726524
H126	H	1.351382	0.809220	1.226524
H127	H	0.797580	-0.381025	-0.056065
H128	H	1.297580	0.118975	0.443935
H129	H	0.830933	0.342411	0.155430
H130	H	1.330933	0.842411	0.655430
C131	C	0.807186	0.381101	0.334819
C132	C	1.307186	0.881101	0.834819
N133	N	0.761096	0.456154	0.375682
N134	N	1.261096	0.956154	0.875682
H135	H	0.540411	0.184007	0.104750
H136	H	1.040411	0.684007	0.604750
H137	H	1.000121	-0.416679	0.061034
H138	H	1.500121	0.083321	0.561034
H139	H	0.863673	-0.227154	0.070614
H140	H	1.363673	0.272846	0.570614
H141	H	1.024919	0.026503	0.141786
H142	H	1.524919	0.526503	0.641786
H143	H	1.017061	0.039310	0.307074
H144	H	1.517061	0.539310	0.807074
H145	H	1.045362	-0.006698	0.712882
H146	H	1.545362	0.493302	1.212882
C147	C	0.717110	0.163594	-0.215482
C148	C	1.217110	0.663594	0.284518
N149	N	0.754512	0.159281	-0.283266
N150	N	1.254512	0.659281	0.216734
H151	H	0.335892	0.151698	-0.236447
H152	H	0.835892	0.651698	0.263553
C153	C	0.701308	0.189282	0.115926
C154	C	1.201308	0.689282	0.615926
N155	N	0.732475	0.195128	0.178894
N156	N	1.232475	0.695128	0.678894
