data_functionalizedCrystal
_audit_creation_method	'MofGen! by Chris Wilmer'
_symmetry_space_group_name_H-M	'P1'
_symmetry_Int_Tables_number	1
_symmetry_cell_setting	triclinic
loop_
_symmetry_equiv_pos_as_xyz
  x,y,z
_cell_length_a	14.908558
_cell_length_b	21.295416
_cell_length_c	14.908308
_cell_angle_alpha	93.263115
_cell_angle_beta	89.824401
_cell_angle_gamma	93.274638
loop_
_atom_site_label
_atom_site_type_symbol
_atom_site_fract_x
_atom_site_fract_y
_atom_site_fract_z
Zn1	Zn	1.345219	0.328518	0.587537
Zn2	Zn	1.678552	0.661851	0.920871
Zn3	Zn	2.011885	0.995184	1.254204
Zn4	Zn	1.353775	0.428084	0.437167
Zn5	Zn	1.687108	0.761418	0.770501
Zn6	Zn	2.020441	1.094751	1.103834
Zn7	Zn	1.203536	0.316425	0.428537
Zn8	Zn	1.536870	0.649759	0.761871
Zn9	Zn	1.870203	0.983092	1.095204
Zn10	Zn	1.194802	0.427335	0.578820
Zn11	Zn	1.528136	0.760668	0.912154
Zn12	Zn	1.861469	1.094001	1.245487
O13	O	1.274333	0.375091	0.508016
O14	O	1.607666	0.708424	0.841349
O15	O	1.941000	1.041757	1.174682
O16	O	1.472178	0.347100	0.574850
O17	O	1.805512	0.680433	0.908183
O18	O	2.138845	1.013767	1.241517
O19	O	1.341081	0.408526	0.310198
O20	O	1.674415	0.741859	0.643532
O21	O	2.007748	1.075192	0.976865
O22	O	1.222405	0.229945	0.449665
O23	O	1.555739	0.563278	0.782999
O24	O	1.889072	0.896611	1.116332
O25	O	1.478465	0.420251	0.464374
O26	O	1.811798	0.753584	0.797707
O27	O	2.145131	1.086918	1.131041
O28	O	1.326498	0.238829	0.566482
O29	O	1.659832	0.572162	0.899815
O30	O	1.993165	0.905495	1.233149
O31	O	1.230702	0.326490	0.303858
O32	O	1.564035	0.659824	0.637191
O33	O	1.897369	0.993157	0.970525
O34	O	1.076553	0.325763	0.441213
O35	O	1.409886	0.659097	0.774547
O36	O	1.743220	0.992430	1.107880
O37	O	1.207519	0.418973	0.705801
O38	O	1.540853	0.752307	1.039134
O39	O	1.874186	1.085640	1.372468
O40	O	1.070136	0.407248	0.551625
O41	O	1.403469	0.740581	0.884959
O42	O	1.736803	1.073915	1.218292
O43	O	1.318029	0.346373	0.712205
O44	O	1.651363	0.679706	1.045539
O45	O	1.984696	1.013040	1.378872
O46	O	1.332612	0.516070	0.455922
O47	O	1.665946	0.849403	0.789255
O48	O	1.999279	1.182737	1.122588
O49	O	1.215816	0.515519	0.559994
O50	O	1.549149	0.848852	0.893327
O51	O	1.882483	1.182186	1.226660
C52	C	1.040719	0.365113	0.494538
C53	C	1.374053	0.698446	0.827871
C54	C	1.707386	1.031779	1.161204
C55	C	0.940777	0.360860	0.488793
C56	C	1.274111	0.694193	0.822126
C57	C	1.607444	1.027527	1.155460
C58	C	0.803223	0.312386	0.423305
C59	C	1.136556	0.645719	0.756638
C60	C	1.469889	0.979053	1.089971
C61	C	0.897127	0.316379	0.428699
C62	C	1.230461	0.649712	0.762032
C63	C	1.563794	0.983045	1.095365
C64	C	0.890516	0.401351	0.543499
C65	C	1.223849	0.734684	0.876832
C66	C	1.557182	1.068017	1.210166
C67	C	0.796611	0.397358	0.538105
C68	C	1.129944	0.730692	0.871438
C69	C	1.463277	1.064025	1.204772
C70	C	0.752968	0.352875	0.478005
C71	C	1.086301	0.686208	0.811338
C72	C	1.419634	1.019542	1.144672
C73	C	0.659062	0.348886	0.472607
C74	C	0.992395	0.682219	0.805940
C75	C	1.325728	1.015553	1.139274
C76	C	0.652451	0.433855	0.587411
C77	C	0.985784	0.767188	0.920745
C78	C	1.319118	1.100522	1.254078
C79	C	0.746356	0.437847	0.592805
C80	C	1.079689	0.771181	0.926139
C81	C	1.413023	1.104514	1.259472
C82	C	1.274218	0.538636	0.507969
C83	C	1.607552	0.871969	0.841303
C84	C	1.940885	1.205302	1.174636
C85	C	1.274250	0.608606	0.507984
C86	C	1.607583	0.941939	0.841317
C87	C	1.940916	1.275272	1.174651
C88	C	1.335113	0.641743	0.453858
C89	C	1.668446	0.975076	0.787191
C90	C	2.001780	1.308409	1.120524
C91	C	1.335154	0.707488	0.453884
C92	C	1.668487	1.040821	0.787218
C93	C	2.001821	1.374155	1.120551
C94	C	1.274316	0.740093	0.508027
C95	C	1.607649	1.073426	0.841361
C96	C	1.940983	1.406759	1.174694
C97	C	1.213448	0.706948	0.562164
C98	C	1.546781	1.040281	0.895498
C99	C	1.880115	1.373615	1.228831
C100	C	1.213415	0.641204	0.562143
C101	C	1.546748	0.974538	0.895476
C102	C	1.880081	1.307871	1.228810
N103	N	1.195263	0.840263	0.510350
N104	N	1.528597	1.173596	0.843683
N105	N	1.861930	1.506930	1.177017
N106	N	1.195298	0.902716	0.510365
N107	N	1.528631	1.236050	0.843699
N108	N	1.861964	1.569383	1.177032
C109	C	1.274414	0.938174	0.508097
C110	C	1.607747	1.271507	0.841430
C111	C	1.941081	1.604841	1.174763
N112	N	1.353497	0.908818	0.505795
N113	N	1.686831	1.242152	0.839128
N114	N	2.020164	1.575485	1.172461
N115	N	1.353462	0.846359	0.505775
N116	N	1.686795	1.179692	0.839108
N117	N	2.020129	1.513026	1.172441
C118	C	1.274346	0.811380	0.508057
C119	C	1.607679	1.144714	0.841390
C120	C	1.941012	1.478047	1.174724
C121	C	1.335327	1.042600	0.453997
C122	C	1.668660	1.375933	0.787330
C123	C	2.001994	1.709266	1.120663
C124	C	1.335369	1.108346	0.454030
C125	C	1.668703	1.441680	0.787363
C126	C	2.002036	1.775013	1.120696
C127	C	1.213655	1.107805	0.562305
C128	C	1.546989	1.441138	0.895638
C129	C	1.880322	1.774471	1.228971
C130	C	1.213621	1.042060	0.562277
C131	C	1.546954	1.375393	0.895610
C132	C	1.880288	1.708726	1.228943
C133	C	1.274456	1.009461	0.508118
C134	C	1.607789	1.342794	0.841451
C135	C	1.941122	1.676128	1.174784
C136	C	1.508859	0.385108	0.521547
C137	C	1.842192	0.718441	0.854880
C138	C	2.175525	1.051775	1.188214
C139	C	1.608800	0.389377	0.527313
C140	C	1.942133	0.722710	0.860646
C141	C	2.275466	1.056044	1.193980
C142	C	1.260846	0.383938	0.742540
C143	C	1.594179	0.717272	1.075873
C144	C	1.927512	1.050605	1.409207
C145	C	1.255098	0.387709	0.842481
C146	C	1.588432	0.721042	1.175814
C147	C	1.921765	1.054376	1.509147
C148	C	1.274472	1.210909	0.508099
C149	C	1.607805	1.544243	0.841432
C150	C	1.941139	1.877576	1.174766
C151	C	1.274532	1.140947	0.508174
C152	C	1.607865	1.474280	0.841507
C153	C	1.941198	1.807613	1.174841
C154	C	1.287820	0.366234	0.274407
C155	C	1.621153	0.699567	0.607740
C156	C	1.954486	1.032901	0.941073
C157	C	1.293741	0.362294	0.174477
C158	C	1.627075	0.695627	0.507810
C159	C	1.960408	1.028960	0.841143
C160	C	1.359370	0.319180	1.036949
C161	C	1.692703	0.652514	1.370283
C162	C	2.026036	0.985847	1.703616
C163	C	1.353972	0.322721	1.130852
C164	C	1.687306	0.656054	1.464186
C165	C	2.020639	0.989388	1.797519
C166	C	1.238902	0.398327	1.124191
C167	C	1.572235	0.731660	1.457524
C168	C	1.905569	1.064994	1.790858
C169	C	1.244299	0.394786	1.030288
C170	C	1.577633	0.728120	1.363621
C171	C	1.910966	1.061453	1.696955
C172	C	1.304536	0.355212	0.986671
C173	C	1.637870	0.688546	1.320004
C174	C	1.971203	1.021879	1.653337
C175	C	1.309938	0.351676	0.892766
C176	C	1.643271	0.685009	1.226099
C177	C	1.976604	1.018342	1.559433
C178	C	1.194863	0.427278	0.886106
C179	C	1.528197	0.760611	1.219440
C180	C	1.861530	1.093945	1.552773
C181	C	1.189466	0.430818	0.980009
C182	C	1.522799	0.764152	1.313343
C183	C	1.856133	1.097485	1.646676
H184	H	0.781903	0.474063	0.641739
H185	H	1.115236	0.807396	0.975072
H186	H	1.448570	1.140729	1.308406
Br187	Br	1.391690	0.297972	0.833571
Br188	Br	1.725024	0.631306	1.166905
Br189	Br	2.058357	0.964639	1.500238
Br190	Br	1.441129	0.265485	0.977750
Br191	Br	1.774463	0.598818	1.311084
Br192	Br	2.107796	0.932151	1.644417
Br193	Br	1.107717	0.484521	1.039212
Br194	Br	1.441051	0.817854	1.372546
Br195	Br	1.774384	1.151188	1.705879
H196	H	1.398621	0.293378	1.171786
H197	H	1.731954	0.626711	1.505119
H198	H	2.065288	0.960045	1.838453
H199	H	0.767688	0.276167	0.374367
H200	H	1.101021	0.609501	0.707701
H201	H	1.434355	0.942834	1.041034
H202	H	0.623529	0.312665	0.423671
H203	H	0.956862	0.645999	0.757004
H204	H	1.290196	0.979332	1.090338
Br205	Br	1.417761	0.752470	0.380422
Br206	Br	1.751094	1.085803	0.713756
Br207	Br	2.084428	1.419136	1.047089
H208	H	1.384937	1.135326	0.409956
H209	H	1.718271	1.468659	0.743289
H210	H	2.051604	1.801992	1.076622
Br211	Br	0.965329	0.261424	0.354464
Br212	Br	1.298662	0.594757	0.687798
Br213	Br	1.631995	0.928091	1.021131
Br214	Br	1.157150	0.452023	1.183401
Br215	Br	1.490483	0.785356	1.516735
Br216	Br	1.823816	1.118690	1.850068
Br217	Br	1.417686	0.597505	0.380370
Br218	Br	1.751019	0.930839	0.713703
Br219	Br	2.084353	1.264172	1.047037
Br220	Br	0.949762	0.461724	0.625043
Br221	Br	1.283095	0.795058	0.958377
Br222	Br	1.616428	1.128391	1.291710
Br223	Br	0.584243	0.488805	0.661657
Br224	Br	0.917576	0.822138	0.994990
Br225	Br	1.250910	1.155471	1.328324
Br226	Br	1.130888	0.751196	0.635652
Br227	Br	1.464221	1.084529	0.968985
Br228	Br	1.797554	1.417862	1.302319
H229	H	1.163851	0.614224	0.606220
H230	H	1.497185	0.947557	0.939553
H231	H	1.830518	1.280890	1.272887
Br232	Br	1.417884	0.998354	0.380495
Br233	Br	1.751217	1.331688	0.713828
Br234	Br	2.084550	1.665021	1.047161
Br235	Br	1.131096	1.152047	0.635795
Br236	Br	1.464430	1.485381	0.969129
Br237	Br	1.797763	1.818714	1.302462
H238	H	1.164056	1.015077	0.606347
H239	H	1.497390	1.348411	0.939681
H240	H	1.830723	1.681744	1.273014
H241	H	1.150216	0.456620	0.845159
H242	H	1.483550	0.789953	1.178493
H243	H	1.816883	1.123286	1.511826
