data_functionalizedCrystal
_audit_creation_method	'MofGen! by Chris Wilmer'
_symmetry_space_group_name_H-M	'P1'
_symmetry_Int_Tables_number	1
_symmetry_cell_setting	triclinic
loop_
_symmetry_equiv_pos_as_xyz
  x,y,z
_cell_length_a	14.044220
_cell_length_b	16.109301
_cell_length_c	15.186229
_cell_angle_alpha	90.005167
_cell_angle_beta	90.001537
_cell_angle_gamma	91.674821
loop_
_atom_site_label
_atom_site_type_symbol
_atom_site_fract_x
_atom_site_fract_y
_atom_site_fract_z
O1	O	1.257643	-0.200436	-0.073140
O2	O	1.757643	0.299564	0.426860
O3	O	0.981676	-0.193203	-0.073163
O4	O	1.481676	0.306797	0.426837
O5	O	1.127241	-0.076352	-0.073142
O6	O	1.627241	0.423648	0.426858
O7	O	1.112079	-0.317286	-0.073161
O8	O	1.612079	0.182714	0.426839
O9	O	1.127231	-0.076350	0.073315
O10	O	1.627231	0.423650	0.573315
O11	O	0.981667	-0.193200	0.073295
O12	O	1.481667	0.306800	0.573295
O13	O	1.257634	-0.200433	0.073317
O14	O	1.757634	0.299567	0.573317
Zn15	Zn	1.119649	-0.196816	0.096559
Zn16	Zn	1.619649	0.303184	0.596559
Zn17	Zn	1.119661	-0.196820	-0.096405
Zn18	Zn	1.619661	0.303180	0.403595
O19	O	1.112069	-0.317284	0.073296
O20	O	1.612069	0.182716	0.573296
C21	C	0.946358	-0.190036	0.000063
C22	C	1.446358	0.309964	0.500063
C23	C	0.841135	-0.180592	0.000055
C24	C	1.341135	0.319408	0.500055
N25	N	1.119647	-0.196814	0.228252
N26	N	1.619647	0.303186	0.728252
C27	C	1.126622	-0.045330	0.000087
C28	C	1.626622	0.454670	0.500087
C29	C	1.124781	0.047102	0.000088
C30	C	1.624781	0.547102	0.500088
C31	C	0.648479	-0.163326	0.000074
C32	C	1.148479	0.336674	0.500074
C33	C	0.590825	-0.230306	0.000072
C34	C	1.090825	0.269694	0.500072
C35	C	0.483625	-0.220699	0.000083
C36	C	0.983625	0.279301	0.500083
C37	C	0.755690	-0.172932	0.000064
C38	C	1.255690	0.327068	0.500064
C39	C	1.292952	-0.203600	0.000089
C40	C	1.792952	0.296400	0.500089
C41	C	1.398175	-0.213044	0.000091
C42	C	1.898175	0.286956	0.500091
C43	C	1.112688	-0.348306	0.000065
C44	C	1.612688	0.151694	0.500065
C45	C	1.114529	-0.440738	0.000058
C46	C	1.614529	0.059262	0.500058
C47	C	1.206874	0.263266	0.000081
C48	C	1.706874	0.763266	0.500081
C49	C	1.205137	0.350116	0.000073
C50	C	1.705137	0.850116	0.500073
C51	C	1.032429	0.343091	0.000063
C52	C	1.532429	0.843091	0.500063
C53	C	1.034168	0.256243	0.000064
C54	C	1.534168	0.756243	0.500064
C55	C	1.121393	0.216333	0.000078
C56	C	1.621393	0.716333	0.500078
C57	C	1.117917	0.390031	0.000069
C58	C	1.617917	0.890031	0.500069
C59	C	1.116032	0.484197	0.000061
C60	C	1.616032	0.984197	0.500061
C61	C	1.123278	0.122161	0.000084
C62	C	1.623278	0.622161	0.500084
N63	N	1.119671	-0.196816	-0.228097
N64	N	1.619671	0.303184	0.271903
C65	C	1.184125	-0.145093	0.453984
C66	C	1.684125	0.354907	0.953984
C67	C	1.184128	-0.145092	0.546173
C68	C	1.684128	0.354908	1.046173
C69	C	1.055186	-0.248539	0.546164
C70	C	1.555186	0.251461	1.046164
C71	C	1.055179	-0.248536	0.453976
C72	C	1.555179	0.251464	0.953976
C73	C	1.119654	-0.196814	0.407888
C74	C	1.619654	0.303186	0.907888
C75	C	1.119664	-0.196816	0.592266
C76	C	1.619664	0.303184	1.092266
C77	C	1.119666	-0.196814	0.692222
C78	C	1.619666	0.303186	1.192222
C79	C	1.119650	-0.196814	0.307926
C80	C	1.619650	0.303186	0.807926
H81	H	0.617330	-0.098774	0.000084
H82	H	1.117330	0.401226	0.500084
H83	H	1.277898	0.230774	0.000090
H84	H	1.777898	0.730774	0.500090
H85	H	1.274744	0.388326	0.000074
H86	H	1.774744	0.888326	0.500074
H87	H	0.961413	0.375597	0.000054
H88	H	1.461413	0.875597	0.500054
O89	O	1.246597	-0.094769	0.409136
O90	O	1.746597	0.405231	0.909136
C91	C	1.266731	0.017370	0.305175
C92	C	1.766731	0.517370	0.805175
C93	C	1.195890	-0.039607	0.355877
C94	C	1.695890	0.460393	0.855877
H95	H	1.225761	0.061994	0.262117
H96	H	1.725761	0.561994	0.762117
H97	H	1.314086	-0.021963	0.261928
H98	H	1.814086	0.478037	0.761928
H99	H	1.312799	0.054297	0.354000
H100	H	1.812799	0.554297	0.854000
H101	H	1.149759	-0.076546	0.307116
H102	H	1.649759	0.423454	0.807116
H103	H	1.148600	-0.000229	0.399137
H104	H	1.648600	0.499771	0.899137
O105	O	0.951038	0.210772	0.000101
O106	O	1.451038	0.710772	0.500101
C107	C	0.779552	0.212961	0.000035
C108	C	1.279552	0.712961	0.500035
C109	C	0.873618	0.264558	0.000019
C110	C	1.373618	0.764558	0.500019
H111	H	0.716934	0.256426	-0.000050
H112	H	1.216934	0.756426	0.499950
H113	H	0.775982	0.172150	0.061340
H114	H	1.275982	0.672150	0.561340
H115	H	0.776108	0.172101	-0.061244
H116	H	1.276108	0.672101	0.438756
H117	H	0.877126	0.305466	0.061257
H118	H	1.377126	0.805466	0.561257
H119	H	0.877150	0.305316	-0.061327
H120	H	1.377150	0.805316	0.438673
O121	O	1.246848	-0.094827	0.590814
O122	O	1.746848	0.405173	1.090814
C123	C	1.374704	0.007812	0.581088
C124	C	1.874704	0.507812	1.081088
C125	C	1.303738	-0.049089	0.530424
C126	C	1.803738	0.450911	1.030424
H127	H	1.420704	0.044820	0.532285
H128	H	1.920704	0.544820	1.032285
H129	H	1.422108	-0.031579	0.624219
H130	H	1.922108	0.468421	1.124219
H131	H	1.333782	0.052366	0.624276
H132	H	1.833782	0.552366	1.124276
H133	H	1.344582	-0.093652	0.487188
H134	H	1.844582	0.406348	0.987188
H135	H	1.256335	-0.009645	0.487348
H136	H	1.756335	0.490355	0.987348
H137	H	1.002675	-0.290653	0.416443
H138	H	1.502675	0.209347	0.916443
O139	O	0.628137	-0.307264	-0.000000
O140	O	1.128137	0.192736	0.500000
C141	C	0.770561	-0.387128	-0.000018
C142	C	1.270561	0.112872	0.499982
C143	C	0.728426	-0.299929	0.000058
C144	C	1.228426	0.200071	0.500058
H145	H	0.851649	-0.381227	0.000048
H146	H	1.351649	0.118773	0.500048
H147	H	0.745653	-0.422348	-0.061337
H148	H	1.245653	0.077652	0.438663
H149	H	0.745561	-0.422368	0.061247
H150	H	1.245561	0.077632	0.561247
H151	H	0.753407	-0.264620	-0.061166
H152	H	1.253407	0.235380	0.438834
H153	H	0.753329	-0.264772	0.061417
H154	H	1.253329	0.235228	0.561417
O155	O	0.992656	-0.298760	0.591072
O156	O	1.492656	0.201240	1.091072
C157	C	0.935487	-0.344581	0.733088
C158	C	1.435487	0.155419	1.233088
C159	C	1.006366	-0.287675	0.682343
C160	C	1.506366	0.212325	1.182343
H161	H	0.946533	-0.335626	0.806889
H162	H	1.446533	0.164374	1.306889
H163	H	0.947816	-0.412110	0.715016
H164	H	1.447816	0.087890	1.215016
H165	H	0.859583	-0.328090	0.714916
H166	H	1.359583	0.171910	1.214916
H167	H	1.082297	-0.304091	0.700487
H168	H	1.582297	0.195909	1.200487
H169	H	0.993954	-0.220161	0.700419
H170	H	1.493954	0.279839	1.200419
