data_functionalizedCrystal
_audit_creation_method	'MofGen! by Chris Wilmer'
_symmetry_space_group_name_H-M	'P1'
_symmetry_Int_Tables_number	1
_symmetry_cell_setting	triclinic
loop_
_symmetry_equiv_pos_as_xyz
  x,y,z
_cell_length_a	29.839131
_cell_length_b	12.645331
_cell_length_c	12.645324
_cell_angle_alpha	90.022962
_cell_angle_beta	89.960392
_cell_angle_gamma	89.959601
loop_
_atom_site_label
_atom_site_type_symbol
_atom_site_fract_x
_atom_site_fract_y
_atom_site_fract_z
Zn1	Zn	-0.178831	-1.620559	-0.599388
Zn2	Zn	-0.253972	-1.620367	-0.422104
Zn3	Zn	-0.178856	-1.443273	-0.422133
Zn4	Zn	-0.253934	-1.443182	-0.599320
O5	O	-0.216398	-1.531845	-0.510736
O6	O	-0.188805	-1.768881	-0.575888
O7	O	-0.244034	-1.596832	-0.273761
O8	O	-0.115985	-1.466909	-0.445687
O9	O	-0.244011	-1.768740	-0.445638
O10	O	-0.115968	-1.597161	-0.575916
O11	O	-0.188846	-1.466722	-0.273782
O12	O	-0.188809	-1.294914	-0.445620
O13	O	-0.243945	-1.466755	-0.747676
O14	O	-0.243969	-1.294847	-0.575799
O15	O	-0.188768	-1.597073	-0.747727
O16	O	-0.316834	-1.596744	-0.445571
O17	O	-0.316806	-1.466568	-0.575771
C18	C	-0.216388	-1.256416	-0.510706
C19	C	-0.216394	-1.138586	-0.510718
C20	C	-0.333121	-1.531654	-0.510684
C21	C	-0.383055	-1.531669	-0.510697
C22	C	-0.216349	-1.531925	-0.787242
C23	C	-0.216329	-1.531959	-0.905072
C24	C	-0.692701	-1.599752	-0.443041
C25	C	-0.880374	-1.599883	-0.443082
O26	O	-0.904640	-1.657617	-0.385518
N27	N	-0.903840	-1.532065	-0.510816
C28	C	-0.880386	-1.464215	-0.578550
O29	O	-0.904652	-1.406543	-0.636171
C30	C	-0.692714	-1.464091	-0.578514
C31	C	-0.669249	-1.531905	-0.510767
C32	C	-0.669236	-1.667561	-0.375300
C33	C	-0.622321	-1.667524	-0.375287
C34	C	-0.598870	-1.599677	-0.443013
C35	C	-0.622334	-1.531867	-0.510753
C36	C	-0.669260	-1.396247	-0.646252
C37	C	-0.622339	-1.396224	-0.646239
C38	C	-0.598875	-1.464038	-0.578492
C39	C	-0.551967	-1.463983	-0.578466
N40	N	-0.528501	-1.531800	-0.510732
C41	C	-0.551952	-1.599647	-0.443005
C42	C	-0.978916	-1.464284	-0.578563
C43	C	-1.025834	-1.464314	-0.578571
C44	C	-1.025819	-1.599983	-0.443104
C45	C	-0.978900	-1.599947	-0.443091
C46	C	-0.955450	-1.532101	-0.510829
C47	C	-0.453426	-1.599563	-0.442981
C48	C	-0.406507	-1.599516	-0.442970
C49	C	-0.406526	-1.463852	-0.578441
C50	C	-0.453441	-1.463894	-0.578448
C51	C	-0.476890	-1.531758	-0.510715
O52	O	-0.527672	-1.406287	-0.636009
O53	O	-0.527678	-1.657327	-0.385409
C54	C	-0.739616	-1.599789	-0.443054
C55	C	-0.763080	-1.531980	-0.510794
C56	C	-0.739629	-1.464133	-0.578521
C57	C	-0.809998	-1.532009	-0.510802
C58	C	-0.833449	-1.599856	-0.443076
C59	C	-0.809983	-1.667674	-0.375341
C60	C	-0.763067	-1.667636	-0.375328
C61	C	-0.763096	-1.396316	-0.646256
C62	C	-0.810011	-1.396358	-0.646263
C63	C	-0.833462	-1.464205	-0.578536
C64	C	-0.099220	-1.532067	-0.510812
C65	C	-0.049285	-1.532161	-0.510845
C66	C	-0.216409	-1.808351	-0.510768
C67	C	-0.216414	-1.926181	-0.510781
C68	C	-0.181533	-0.971028	-0.429274
C69	C	-0.181624	-1.093588	-0.428915
C70	C	-0.263721	-1.094019	-0.480188
C71	C	-0.263531	-0.971421	-0.479632
C72	C	-0.204378	-0.971449	-0.623006
C73	C	-0.203320	-1.094055	-0.622382
C74	C	-0.181717	-1.614261	-1.072668
C75	C	-0.181592	-1.613997	-0.950108
C76	C	-0.203463	-1.420289	-0.949554
C77	C	-0.203200	-1.420789	-1.072153
C78	C	-0.263857	-1.560420	-1.072254
C79	C	-0.263618	-1.562864	-0.949649
C80	C	-0.216415	-1.531827	-0.235307
C81	C	-0.216309	-1.531999	-0.117477
H82	H	-0.387403	-1.654738	-0.387799
Br83	Br	-0.194974	-1.752741	-1.121823
H84	H	-0.603248	-1.340977	-0.701402
H85	H	-0.290778	-1.507299	-0.918988
H86	H	-0.226872	-1.124691	-0.686360
Br87	Br	-0.123334	-1.583315	-1.124061
H88	H	-0.290405	-1.123163	-0.537689
Br89	Br	-0.145276	-1.142638	-0.660769
H90	H	-0.189650	-1.696804	-0.920035
H91	H	-0.229783	-0.942445	-0.683735
H92	H	-0.472547	-1.408677	-0.633616
Br93	Br	-0.281027	-1.145090	-0.344912
H94	H	-0.289631	-1.500509	-1.101239
Br95	Br	-0.947061	-1.691982	-0.351146
H96	H	-0.273319	-1.645042	-0.920575
Br97	Br	-0.701092	-1.304219	-0.738211
Br98	Br	-0.122885	-1.582640	-0.901260
Br99	Br	-0.244168	-1.315351	-0.900947
Br100	Br	-0.280541	-0.923652	-0.342890
H101	H	-0.227299	-1.357414	-1.101792
Br102	Br	-0.947098	-1.372198	-0.670501
Br103	Br	-0.145277	-1.380569	-1.119862
H104	H	-0.170469	-0.940585	-0.650768
Br105	Br	-0.841850	-1.304312	-0.738211
Br106	Br	-0.146176	-1.379386	-0.898425
H107	H	-0.275570	-1.640424	-1.103236
H108	H	-0.472513	-1.654826	-0.387828
Br109	Br	-0.701054	-1.759654	-0.283375
H110	H	-0.603219	-1.722747	-0.320125
H111	H	-1.044921	-1.655227	-0.387958
Br112	Br	-1.057673	-1.372261	-0.670501
Br113	Br	-0.374690	-1.371782	-0.670355
H114	H	-0.829085	-1.722914	-0.320193
Br115	Br	-0.123130	-1.143821	-0.460812
H116	H	-0.743966	-1.722857	-0.320162
H117	H	-0.744005	-1.341068	-0.701408
Br118	Br	-0.122861	-0.921981	-0.460825
H119	H	-0.290400	-0.941750	-0.536408
Br120	Br	-0.194635	-0.919576	-0.291482
H121	H	-0.189579	-1.122858	-0.345753
