data_functionalizedCrystal
_audit_creation_method	'MofGen! by Chris Wilmer'
_symmetry_space_group_name_H-M	'P1'
_symmetry_Int_Tables_number	1
_symmetry_cell_setting	triclinic
loop_
_symmetry_equiv_pos_as_xyz
  x,y,z
_cell_length_a	10.654550
_cell_length_b	8.559649
_cell_length_c	9.730223
_cell_angle_alpha	90.000781
_cell_angle_beta	89.996251
_cell_angle_gamma	77.131784
loop_
_atom_site_label
_atom_site_type_symbol
_atom_site_fract_x
_atom_site_fract_y
_atom_site_fract_z
O1	O	1.644677	0.224178	-0.114394
O2	O	1.276992	0.245537	-0.114371
O3	O	1.493228	0.002614	-0.114383
O4	O	1.428441	0.467100	-0.114382
O5	O	1.493225	0.002620	0.114197
O6	O	1.276989	0.245543	0.114209
O7	O	1.644674	0.224184	0.114186
Zn8	Zn	1.460831	0.234864	0.150489
Zn9	Zn	1.460835	0.234856	-0.150675
O10	O	1.428438	0.467106	0.114198
C11	C	1.230355	0.243972	-0.000079
C12	C	1.091396	0.239279	-0.000070
C13	C	0.997136	0.382308	-0.000090
C14	C	0.866571	0.377890	-0.000114
C15	C	0.924542	0.087401	-0.000104
C16	C	1.055103	0.091821	-0.000070
C17	C	0.963666	0.550020	-0.000101
C18	C	0.833101	0.545601	-0.000125
C19	C	1.498136	-0.056858	-0.000096
C20	C	1.512750	-0.234076	-0.000105
C21	C	1.691311	0.225749	-0.000110
C22	C	1.830270	0.230441	-0.000128
C23	C	1.423530	0.526579	-0.000092
C24	C	1.408916	0.703797	-0.000093
N25	N	1.460838	0.234869	0.356026
N26	N	1.460839	0.234839	-0.356211
C27	C	1.556605	0.127340	0.427946
C28	C	1.556604	0.127320	0.571829
C29	C	1.365062	0.342373	0.571858
C30	C	1.365060	0.342384	0.427978
C31	C	1.667193	0.003185	0.427931
C32	C	1.667192	0.003165	0.571814
H33	H	1.131848	-0.024647	-0.000034
N34	N	1.276339	-0.187097	-0.000096
H35	H	1.227930	-0.208224	0.084644
H36	H	1.284437	-0.071761	-0.000156
H37	H	0.894975	-0.032654	-0.000125
N38	N	1.655581	-0.159316	0.376188
H39	H	1.572599	-0.183633	0.410755
H40	H	1.655640	-0.159260	0.272392
H41	H	1.612835	-0.316473	-0.000100
N42	N	1.261749	0.458332	0.350403
H43	H	1.201077	0.526435	0.417820
H44	H	1.302940	0.529484	0.290701
N45	N	1.261768	0.458342	0.649460
H46	H	1.174521	0.438900	0.624421
H47	H	1.276411	0.441962	0.751497
H48	H	0.986220	0.615614	0.095564
H49	H	1.754362	0.042060	0.383299
H50	H	0.993806	0.603419	-0.098789
N51	N	0.765656	0.612721	0.130590
H52	H	0.829097	0.648407	0.193766
H53	H	0.693384	0.707294	0.107749
H54	H	0.784843	0.608790	-0.095793
H55	H	1.648655	-0.112769	0.616431
H56	H	1.760879	0.030513	0.610859
