data_functionalizedCrystal
_audit_creation_method	'MofGen! by Chris Wilmer'
_symmetry_space_group_name_H-M	'P1'
_symmetry_Int_Tables_number	1
_symmetry_cell_setting	triclinic
loop_
_symmetry_equiv_pos_as_xyz
  x,y,z
_cell_length_a	12.837943
_cell_length_b	15.944551
_cell_length_c	11.295483
_cell_angle_alpha	94.094426
_cell_angle_beta	85.461227
_cell_angle_gamma	89.163839
loop_
_atom_site_label
_atom_site_type_symbol
_atom_site_fract_x
_atom_site_fract_y
_atom_site_fract_z
O1	O	1.382450	0.213265	-0.099009
O2	O	1.080644	0.202478	-0.099016
O3	O	1.239788	0.086257	-0.099002
O4	O	1.223306	0.329487	-0.099023
O5	O	1.225810	0.096448	0.099048
O6	O	1.066666	0.212669	0.099034
O7	O	1.368472	0.223456	0.099040
Cu8	Cu	1.216293	0.218993	0.117121
Cu9	Cu	1.232823	0.206941	-0.117096
O10	O	1.209328	0.339677	0.099026
C11	C	1.035034	0.203930	0.000008
C12	C	0.919957	0.193062	0.000006
C13	C	1.232115	0.060004	0.000023
C14	C	1.230063	-0.033407	0.000024
C15	C	0.679007	0.323714	0.000011
C16	C	0.570881	0.313507	0.000010
C17	C	0.595575	0.162440	0.000011
C18	C	0.703701	0.172648	0.000012
C19	C	0.745413	0.253287	0.000011
C20	C	0.853542	0.263494	0.000003
C21	C	0.878234	0.112428	0.000013
C22	C	0.770107	0.102221	0.000011
C23	C	1.126515	-0.256548	0.000005
C24	C	1.167708	-0.308694	0.097657
C25	C	1.226352	-0.204430	0.000015
C26	C	1.181513	-0.318722	-0.097604
C27	C	1.222761	-0.369631	0.000001
C28	C	1.267567	-0.255341	0.097747
C29	C	1.281364	-0.265369	-0.097602
C30	C	1.322627	-0.317491	0.000073
C31	C	1.228418	-0.109262	0.000024
C32	C	1.220702	-0.464796	0.000000
C33	C	1.414082	0.222005	0.000014
C34	C	1.529160	0.232872	0.000008
C35	C	1.217002	0.365931	-0.000001
C36	C	1.219054	0.459340	-0.000010
N37	N	1.204674	0.227469	0.281856
N38	N	1.244451	0.198459	-0.281831
C39	C	1.328092	0.137394	0.531156
C40	C	1.319318	0.143806	0.655819
C41	C	1.178349	0.246701	0.655847
C42	C	1.187123	0.240289	0.531184
C43	C	1.261997	0.185634	0.468843
C44	C	1.270775	0.179227	0.344178
C45	C	1.129802	0.282117	0.344208
C46	C	1.121028	0.288530	0.468871
H47	H	0.887502	0.329155	0.000004
C48	C	1.300963	-0.271434	-0.311213
C49	C	1.346184	-0.239360	-0.209050
H50	H	1.340972	-0.255370	-0.380022
H51	H	1.299614	-0.331031	-0.312410
H52	H	1.231636	-0.249638	-0.310501
H53	H	1.415509	-0.261161	-0.209758
H54	H	1.347544	-0.179751	-0.207853
C55	C	1.114754	0.389185	0.694245
C56	C	1.096036	0.306765	0.724374
H57	H	1.063928	0.426262	0.736545
H58	H	1.182483	0.404926	0.714677
H59	H	1.110526	0.392263	0.611079
H60	H	1.100272	0.303686	0.807539
H61	H	1.028290	0.291019	0.703950
C62	C	1.466558	0.036335	0.543646
C63	C	1.410393	0.077322	0.462623
H64	H	1.517364	-0.000754	0.501334
H65	H	1.500423	0.076802	0.592254
H66	H	1.419978	0.005148	0.592284
H67	H	1.456973	0.108514	0.413990
H68	H	1.376527	0.036850	0.413994
H69	H	0.561586	0.096792	0.000111
H70	H	1.119654	-0.327932	0.180211
H71	H	0.932315	0.055081	0.000004
H72	H	0.712969	0.389374	0.000008
C73	C	1.029673	-0.325255	-0.208856
C74	C	1.132359	-0.356132	-0.209055
H75	H	0.999327	-0.348345	-0.277662
H76	H	0.989999	-0.340775	-0.139526
H77	H	1.030057	-0.265704	-0.209265
H78	H	1.131974	-0.415684	-0.208637
H79	H	1.172043	-0.340618	-0.278404
C80	C	0.938878	0.325388	0.507301
C81	C	1.038728	0.348600	0.537407
H82	H	0.888070	0.362472	0.549619
H83	H	0.934650	0.328482	0.424150
H84	H	0.926192	0.269471	0.527738
H85	H	1.051417	0.404516	0.516963
H86	H	1.042959	0.345515	0.620578
C87	C	1.017778	-0.132830	-0.000935
C88	C	1.014640	-0.220521	0.000117
H89	H	0.948712	-0.110591	-0.000872
H90	H	1.048739	-0.110262	0.067731
H91	H	1.057998	-0.118167	-0.070392
H92	H	0.974426	-0.235184	0.069579
H93	H	0.983664	-0.243097	-0.068556
H94	H	1.373138	0.104523	0.706551
H95	H	1.331744	0.134727	0.293421
C96	C	1.071647	0.420664	0.305846
C97	C	1.057145	0.335152	0.275713
H98	H	1.026799	0.453406	0.263554
H99	H	1.055704	0.432293	0.389003
H100	H	1.142273	0.434288	0.285394
H101	H	0.986521	0.321527	0.296173
H102	H	1.073081	0.323519	0.192537
C103	C	0.615321	0.019495	0.000005
C104	C	0.724251	0.013585	0.000007
H105	H	0.587017	-0.035227	-0.000008
H106	H	0.587663	0.052399	0.069068
H107	H	0.597411	0.045312	-0.069061
H108	H	0.742162	-0.012226	0.069078
H109	H	0.751919	-0.019332	-0.069064
H110	H	1.303925	-0.227723	0.180394
C111	C	0.557338	0.463853	-0.000003
C112	C	0.497886	0.390922	0.000001
H113	H	0.512273	0.511646	-0.000016
H114	H	0.595147	0.468244	0.069059
H115	H	0.604904	0.461133	-0.069070
H116	H	0.450325	0.393639	0.069073
H117	H	0.460060	0.386530	-0.069068
C118	C	1.479377	-0.321006	0.102474
C119	C	1.434585	-0.353305	0.000147
H120	H	1.548491	-0.343123	0.102525
H121	H	1.481231	-0.261446	0.103121
H122	H	1.438793	-0.336559	0.171175
H123	H	1.475165	-0.337747	-0.068554
H124	H	1.432738	-0.412878	-0.000511
