data_functionalizedCrystal
_audit_creation_method	'MofGen! by Chris Wilmer'
_symmetry_space_group_name_H-M	'P1'
_symmetry_Int_Tables_number	1
_symmetry_cell_setting	triclinic
loop_
_symmetry_equiv_pos_as_xyz
  x,y,z
_cell_length_a	25.639239
_cell_length_b	12.594517
_cell_length_c	12.594509
_cell_angle_alpha	89.974182
_cell_angle_beta	90.034128
_cell_angle_gamma	89.966377
loop_
_atom_site_label
_atom_site_type_symbol
_atom_site_fract_x
_atom_site_fract_y
_atom_site_fract_z
Zn1	Zn	-0.208206	-1.627100	0.601944
Zn2	Zn	-0.295648	-1.626920	0.423947
Zn3	Zn	-0.208221	-1.449103	0.423959
Zn4	Zn	-0.295604	-1.449015	0.601863
O5	O	-0.251920	-1.538035	0.512928
O6	O	-0.219817	-1.776022	0.578361
O7	O	-0.284075	-1.603294	0.275003
O8	O	-0.135053	-1.472827	0.447608
O9	O	-0.284061	-1.775890	0.447588
O10	O	-0.135042	-1.603600	0.578373
O11	O	-0.219843	-1.472653	0.275011
O12	O	-0.219800	-1.300146	0.447529
O13	O	-0.283986	-1.472677	0.750820
O14	O	-0.284000	-1.300081	0.578235
O15	O	-0.219775	-1.603515	0.750879
O16	O	-0.368807	-1.603209	0.447509
O17	O	-0.368775	-1.472503	0.578223
C18	C	-0.387762	-1.537856	0.512879
C19	C	-0.445876	-1.537876	0.512894
C20	C	-0.251898	-1.261494	0.512875
C21	C	-0.251901	-1.143188	0.512878
C22	C	-0.251874	-1.538106	0.790549
C23	C	-0.251854	-1.538136	0.908855
C24	C	-0.806243	-1.606271	0.444981
C25	C	-0.860848	-1.606312	0.444996
O26	O	-0.889088	-1.664278	0.387200
N27	N	-0.888159	-1.538222	0.512999
C28	C	-0.860862	-1.470093	0.581000
O29	O	-0.889106	-1.412182	0.638844
C30	C	-0.806259	-1.470058	0.580990
C31	C	-0.778951	-1.538145	0.512975
C32	C	-0.778935	-1.674353	0.376972
C33	C	-0.724335	-1.674310	0.376957
C34	C	-0.697042	-1.606185	0.444951
C35	C	-0.724350	-1.538102	0.512959
C36	C	-0.778964	-1.401936	0.648996
C37	C	-0.724357	-1.401907	0.648981
C38	C	-0.697049	-1.469994	0.580965
C39	C	-0.642458	-1.469934	0.580938
N40	N	-0.615147	-1.538024	0.512934
C41	C	-0.642439	-1.606150	0.444941
C42	C	-0.975533	-1.470174	0.581016
C43	C	-1.030135	-1.470202	0.581021
C44	C	-1.030117	-1.606423	0.445018
C45	C	-0.975513	-1.606388	0.445008
C46	C	-0.948222	-1.538264	0.513013
C47	C	-0.527774	-1.606054	0.444913
C48	C	-0.473169	-1.606002	0.444901
C49	C	-0.473192	-1.469786	0.580907
C50	C	-0.527792	-1.469833	0.580916
C51	C	-0.555082	-1.537976	0.512916
O52	O	-0.614183	-1.412001	0.638707
O53	O	-0.614188	-1.664062	0.387116
C54	C	-0.115547	-1.538243	0.513000
C55	C	-0.057432	-1.538332	0.513031
C56	C	-0.216932	-1.073939	0.441917
C57	C	-0.264621	-1.003090	0.415722
C58	C	-0.204226	-1.003239	0.539075
C59	C	-0.299615	-1.073897	0.486631
C60	C	-0.239188	-1.074052	0.610030
C61	C	-0.286910	-1.003234	0.583871
C62	C	-0.251932	-0.815655	0.512962
C63	C	-0.251910	-0.933961	0.512927
C64	C	-0.251927	-1.538025	0.236387
C65	C	-0.251800	-1.538201	0.118082
C66	C	-0.286759	-1.466996	0.978076
C67	C	-0.299538	-1.564106	1.048871
C68	C	-0.239044	-1.441102	1.048859
C69	C	-0.264658	-1.635297	0.978092
C70	C	-0.204142	-1.512227	0.978073
C71	C	-0.216903	-1.609405	1.048837
H72	H	-0.549987	-1.661544	0.389543
H73	H	-0.339948	-1.104806	0.464403
C74	C	-0.326472	-0.962146	0.663774
C75	C	-0.376289	-0.998119	0.635880
C76	C	-0.412748	-0.960275	0.709447
H77	H	-0.317797	-0.987493	0.732603
H78	H	-0.326093	-0.886716	0.663755
H79	H	-0.376667	-1.073533	0.635910
H80	H	-0.384980	-0.972774	0.567062
H81	H	-0.412368	-0.884845	0.709428
H82	H	-0.404068	-0.985625	0.778272
H83	H	-0.446553	-0.984669	0.690525
C84	C	-0.177507	-1.689842	1.089800
C85	C	-0.153422	-1.740252	1.003733
C86	C	-0.117136	-1.814371	1.041427
H87	H	-0.151886	-1.654563	1.131301
H88	H	-0.194856	-1.741222	1.132239
H89	H	-0.136073	-1.688880	0.961312
H90	H	-0.179029	-1.775552	0.962224
H91	H	-0.134485	-1.865751	1.083866
H92	H	-0.091518	-1.779083	1.082928
H93	H	-0.100793	-1.848589	0.983038
C94	C	-0.224857	-1.115865	0.719457
C95	C	-0.225525	-1.227018	0.718184
C96	C	-0.212325	-1.265577	0.818971
H97	H	-0.190953	-1.091832	0.738056
H98	H	-0.249364	-1.090667	0.770091
H99	H	-0.201020	-1.252205	0.667567
H100	H	-0.259425	-1.251079	0.699604
H101	H	-0.236832	-1.240379	0.869604
H102	H	-0.178421	-1.241536	0.837561
H103	H	-0.212781	-1.340996	0.818123
C104	C	-0.353309	-1.593547	1.090209
C105	C	-0.366925	-1.694470	1.052799
C106	C	-0.416457	-1.721611	1.090846
H107	H	-0.352872	-1.594081	1.165623
H108	H	-0.378113	-1.542969	1.065960
H109	H	-0.342127	-1.745035	1.077053
H110	H	-0.367373	-1.693962	0.977389
H111	H	-0.441261	-1.671033	1.066597
H112	H	-0.416016	-1.722139	1.166259
H113	H	-0.425704	-1.790085	1.065461
H114	H	-0.801189	-1.346487	0.704376
C115	C	-0.279159	-1.744697	0.936620
C116	C	-0.279053	-1.743366	0.825458
C117	C	-0.292417	-1.844117	0.787215
H118	H	-0.254522	-1.795385	0.961300
H119	H	-0.312941	-1.763247	0.961391
H120	H	-0.245276	-1.724829	0.800697
H121	H	-0.303691	-1.692699	0.800749
H122	H	-0.326199	-1.862667	0.811986
H123	H	-0.267779	-1.894798	0.811902
H124	H	-0.292352	-1.843225	0.711789
C125	C	-0.150407	-1.482707	0.936619
C126	C	-0.137224	-1.380955	0.972389
C127	C	-0.087730	-1.353706	0.934208
H128	H	-0.125450	-1.532457	0.961874
H129	H	-0.150735	-1.483479	0.861192
H130	H	-0.136891	-1.380191	1.047800
H131	H	-0.162167	-1.331182	0.947137
H132	H	-0.088059	-1.354478	0.858780
H133	H	-0.062779	-1.403462	0.959465
H134	H	-0.078782	-1.284662	0.958463
H135	H	-0.228231	-1.359014	1.079944
H136	H	-0.702139	-1.346434	0.704362
H137	H	-0.450936	-1.661446	0.389511
C138	C	-1.059666	-1.680609	0.371265
C139	C	-1.046294	-1.785874	0.394573
C140	C	-1.073490	-1.854254	0.326651
H141	H	-1.096108	-1.671061	0.380926
H142	H	-1.050735	-1.665147	0.299713
H143	H	-1.055229	-1.801330	0.466108
H144	H	-1.009856	-1.795455	0.384906
H145	H	-1.064559	-1.838793	0.255098
H146	H	-1.109931	-1.844697	0.336316
H147	H	-1.064417	-1.925683	0.342449
H148	H	-0.702104	-1.729756	0.321576
H149	H	-0.450962	-1.414316	0.636264
C150	C	-0.808474	-1.748530	0.303203
C151	C	-0.795099	-1.853796	0.326498
C152	C	-0.822281	-1.922169	0.258544
H153	H	-0.844918	-1.738993	0.312841
H154	H	-0.799532	-1.733051	0.231659
H155	H	-0.804044	-1.869269	0.398024
H156	H	-0.758659	-1.863366	0.316853
H157	H	-0.813339	-1.906691	0.187000
H158	H	-0.858723	-1.912623	0.268188
H159	H	-0.813206	-1.993599	0.274333
C160	C	-1.059875	-1.396312	0.654745
C161	C	-1.113537	-1.410901	0.640199
C162	C	-1.140947	-1.342846	0.708092
H163	H	-1.050953	-1.411778	0.726314
H164	H	-1.050994	-1.324777	0.639082
H165	H	-1.122414	-1.482420	0.655869
H166	H	-1.122474	-1.395428	0.568644
H167	H	-1.132066	-1.271310	0.692429
H168	H	-1.132021	-1.358317	0.779657
H169	H	-1.177360	-1.352727	0.698225
C170	C	-0.150417	-0.961997	0.568455
C171	C	-0.113964	-0.997845	0.493886
C172	C	-0.064388	-0.959890	0.520915
H173	H	-0.150814	-0.886581	0.568878
H174	H	-0.141115	-0.987369	0.636951
H175	H	-0.123264	-0.972468	0.425408
H176	H	-0.113551	-1.073256	0.493452
H177	H	-0.055086	-0.985262	0.589410
H178	H	-0.064790	-0.884476	0.521338
H179	H	-0.039648	-0.984216	0.470330
C180	C	-0.177552	-1.115553	0.361911
C181	C	-0.177719	-1.226710	0.363599
C182	C	-0.141448	-1.265081	0.289921
H183	H	-0.186628	-1.091365	0.292879
H184	H	-0.143752	-1.090380	0.379833
H185	H	-0.211511	-1.251872	0.345671
H186	H	-0.168637	-1.250926	0.432613
H187	H	-0.107648	-1.239908	0.307843
H188	H	-0.150528	-1.240886	0.220894
H189	H	-0.141553	-1.340504	0.291064
H190	H	-0.275380	-0.971923	0.333583
C191	C	-0.945999	-1.396077	0.654885
C192	C	-0.981609	-1.336442	0.714414
C193	C	-0.954425	-1.268166	0.782464
H194	H	-0.924662	-1.436627	0.701398
H195	H	-0.924745	-1.349649	0.614144
H196	H	-1.002854	-1.382864	0.755153
H197	H	-1.002947	-1.295870	0.667929
H198	H	-0.933170	-1.221738	0.741722
H199	H	-0.933089	-1.308725	0.828970
H200	H	-0.978582	-1.227689	0.822855
C201	C	-0.557513	-1.396078	0.654813
C202	C	-0.588814	-1.456334	0.723089
C203	C	-0.616201	-1.388434	0.791175
H204	H	-0.533498	-1.355470	0.695405
H205	H	-0.578883	-1.349761	0.614087
H206	H	-0.567446	-1.502633	0.763810
H207	H	-0.612839	-1.496940	0.682526
H208	H	-0.637572	-1.342117	0.750449
H209	H	-0.592182	-1.347830	0.831759
H210	H	-0.637446	-1.429307	0.837501
C211	C	-0.326220	-1.386825	0.936845
C212	C	-0.351058	-1.337659	1.022744
C213	C	-0.387418	-1.263816	0.984802
H214	H	-0.308841	-1.334736	0.895356
H215	H	-0.351423	-1.422184	0.894339
H216	H	-0.325859	-1.302302	1.065232
H217	H	-0.368448	-1.389721	1.064241
H218	H	-0.412621	-1.299175	0.942296
H219	H	-0.370034	-1.211734	0.943313
H220	H	-0.404278	-1.230455	1.043078
H221	H	-0.953282	-1.661831	0.389625
