data_functionalizedCrystal
_audit_creation_method	'MofGen! by Chris Wilmer'
_symmetry_space_group_name_H-M	'P1'
_symmetry_Int_Tables_number	1
_symmetry_cell_setting	triclinic
loop_
_symmetry_equiv_pos_as_xyz
  x,y,z
_cell_length_a	8.497374
_cell_length_b	17.077404
_cell_length_c	17.077402
_cell_angle_alpha	90.023108
_cell_angle_beta	89.987778
_cell_angle_gamma	89.996537
loop_
_atom_site_label
_atom_site_type_symbol
_atom_site_fract_x
_atom_site_fract_y
_atom_site_fract_z
Zn1	Zn	0.891988	-1.199930	0.312640
Zn2	Zn	0.628173	-1.199874	0.443874
Zn3	Zn	0.628207	-1.068699	0.312627
Zn4	Zn	0.891897	-1.068630	0.443868
O5	O	0.760066	-1.134283	0.378252
O6	O	0.857016	-1.309770	0.330056
O7	O	0.407415	-1.182479	0.426461
O8	O	0.663251	-1.086159	0.202782
O9	O	0.663193	-1.309729	0.426474
O10	O	0.857049	-1.182574	0.202791
O11	O	0.407440	-1.086105	0.330034
O12	O	0.663162	-0.958843	0.330028
O13	O	1.112671	-1.086042	0.426463
O14	O	0.856894	-0.958792	0.426450
O15	O	1.112738	-1.182508	0.330050
O16	O	0.663104	-1.182412	0.553720
O17	O	0.856861	-1.085988	0.553716
C18	C	0.760023	-0.930336	0.378238
C19	C	0.760042	-0.843086	0.378251
C20	C	0.760003	-1.134208	0.582200
C21	C	0.760029	-1.134247	0.669450
C22	C	0.760111	-1.339028	0.378267
C23	C	0.760130	-1.426277	0.378273
C24	C	1.171547	-1.134278	0.378253
C25	C	1.350191	-1.134279	0.378262
C26	C	0.760164	-1.134381	0.173508
C27	C	0.760206	-1.134422	0.086258
C28	C	0.860756	-0.802090	0.428533
C29	C	0.860781	-0.720109	0.428535
C30	C	0.760083	-0.679126	0.378257
C31	C	0.659364	-0.720128	0.327969
C32	C	0.659348	-0.802107	0.327964
C33	C	0.659402	-0.549258	0.327985
C34	C	0.659416	-0.467273	0.327991
C35	C	0.860835	-0.467260	0.428556
C36	C	0.860819	-0.549239	0.428551
C37	C	0.760098	-0.590235	0.378263
C38	C	0.659248	-1.184506	0.710416
C39	C	0.659289	-1.184545	0.792397
C40	C	0.760103	-1.134319	0.833409
C41	C	0.860895	-1.084058	0.792437
C42	C	0.860861	-1.084024	0.710458
C43	C	0.860955	-1.084130	0.963307
C44	C	0.860986	-1.084163	1.045291
C45	C	0.659382	-1.184651	1.045246
C46	C	0.659349	-1.184618	0.963267
C47	C	0.760139	-1.134355	0.922300
H48	H	0.942751	-0.835452	0.469478
C49	C	0.549954	-0.593873	0.273518
C50	C	0.448706	-0.640927	0.317888
C51	C	0.347872	-0.682047	0.267746
H52	H	0.489824	-0.557818	0.243557
H53	H	0.610372	-0.625916	0.239374
H54	H	0.388293	-0.608887	0.352019
H55	H	0.508791	-0.676997	0.347847
H56	H	0.408291	-0.714090	0.233601
H57	H	0.287754	-0.645986	0.237788
H58	H	0.279173	-0.713984	0.297843
C59	C	0.549905	-0.846722	0.273501
C60	C	0.448651	-0.893780	0.317864
C61	C	0.347828	-0.934898	0.267716
H62	H	0.489779	-0.810667	0.243540
H63	H	0.610330	-0.878763	0.239358
H64	H	0.388232	-0.861742	0.351994
H65	H	0.508733	-0.929850	0.347824
H66	H	0.408253	-0.966939	0.233573
H67	H	0.287713	-0.898837	0.237758
H68	H	0.279125	-0.966837	0.297809
H69	H	0.577381	-0.686753	0.287029
C70	C	0.550043	-1.239084	0.665793
C71	C	0.639436	-1.289326	0.618653
C72	C	0.538890	-1.339609	0.577530
H73	H	0.489995	-1.269097	0.701846
H74	H	0.481259	-1.209094	0.633807
H75	H	0.708192	-1.319313	0.650636
H76	H	0.699481	-1.259334	0.582586
H77	H	0.470106	-1.309619	0.545544
H78	H	0.478847	-1.369617	0.613589
H79	H	0.599527	-1.373699	0.545536
H80	H	0.942791	-0.686734	0.469481
C81	C	0.970316	-0.593596	0.483169
C82	C	1.058558	-0.540149	0.527194
C83	C	1.159461	-0.580982	0.577508
H84	H	0.910010	-0.625563	0.517389
H85	H	1.039237	-0.625575	0.453208
H86	H	0.989646	-0.508184	0.557152
H87	H	1.118896	-0.508181	0.492995
H88	H	1.228382	-0.612961	0.547548
H89	H	1.099142	-0.612947	0.611723
H90	H	1.219355	-0.544725	0.607380
C91	C	0.549689	-1.239140	0.836733
C92	C	0.461357	-1.283099	0.783270
C93	C	0.360360	-1.333395	0.824083
H94	H	0.609932	-1.273403	0.868674
H95	H	0.480830	-1.209170	0.868736
H96	H	0.530208	-1.313066	0.751280
H97	H	0.401083	-1.248857	0.751327
H98	H	0.291500	-1.303426	0.856086
H99	H	0.420615	-1.367653	0.856023
H100	H	0.300404	-1.363222	0.787815
C101	C	0.970140	-0.422613	0.483065
C102	C	0.948644	-0.342048	0.472293
C103	C	1.049313	-0.300891	0.522487
H104	H	0.946955	-0.435932	0.535820
H105	H	1.076209	-0.436019	0.471654
H106	H	0.842599	-0.328648	0.483710
H107	H	0.971840	-0.328706	0.419549
H108	H	1.155382	-0.314297	0.511075
H109	H	1.026119	-0.314216	0.575238
H110	H	1.034752	-0.246224	0.515180
H111	H	0.577251	-1.225511	0.929875
C112	C	0.550324	-1.239294	1.089861
C113	C	0.572050	-1.228638	1.170432
C114	C	0.471715	-1.279007	1.211559
H115	H	0.444170	-1.227987	1.076605
H116	H	0.573703	-1.292004	1.076368
H117	H	0.548659	-1.175941	1.183920
H118	H	0.678183	-1.239951	1.183711
H119	H	0.495094	-1.331716	1.198066
H120	H	0.365567	-1.267695	1.198297
H121	H	0.486452	-1.271789	1.266231
H122	H	0.577437	-0.433907	0.287041
H123	H	0.943108	-1.043279	1.078682
C124	C	0.970453	-1.029478	0.918969
C125	C	1.058722	-0.985485	0.972430
C126	C	1.159589	-0.935126	0.931614
H127	H	1.039370	-1.059380	0.886949
H128	H	0.910071	-0.995246	0.887044
H129	H	1.119100	-1.019714	1.004341
H130	H	0.989847	-0.955568	1.004451
H131	H	1.099207	-0.900894	0.899689
H132	H	1.228495	-0.965034	0.899596
H133	H	1.219481	-0.905266	0.967881
H134	H	0.942986	-1.043166	0.825836
H135	H	0.942929	-1.043098	0.677104
