data_functionalizedCrystal
_audit_creation_method	'MofGen! by Chris Wilmer'
_symmetry_space_group_name_H-M	'P1'
_symmetry_Int_Tables_number	1
_symmetry_cell_setting	triclinic
loop_
_symmetry_equiv_pos_as_xyz
  x,y,z
_cell_length_a	21.295417
_cell_length_b	18.050591
_cell_length_c	18.050583
_cell_angle_alpha	90.022021
_cell_angle_beta	89.959541
_cell_angle_gamma	89.973488
loop_
_atom_site_label
_atom_site_type_symbol
_atom_site_fract_x
_atom_site_fract_y
_atom_site_fract_z
Zn1	Zn	-0.250631	-1.135289	-0.420010
Zn2	Zn	-0.355917	-1.135192	-0.295811
Zn3	Zn	-0.250659	-1.011106	-0.295821
Zn4	Zn	-0.355859	-1.011051	-0.419946
O5	O	-0.303267	-1.073159	-0.357897
O6	O	-0.264610	-1.239201	-0.403557
O7	O	-0.341991	-1.118714	-0.191887
O8	O	-0.162566	-1.027642	-0.312326
O9	O	-0.341964	-1.239130	-0.312308
O10	O	-0.162545	-1.118879	-0.403567
O11	O	-0.264658	-1.027548	-0.191895
O12	O	-0.264601	-0.907174	-0.312264
O13	O	-0.341864	-1.027549	-0.523879
O14	O	-0.341891	-0.907134	-0.403458
O15	O	-0.264554	-1.118826	-0.523926
O16	O	-0.443999	-1.118661	-0.312247
O17	O	-0.443956	-1.027455	-0.403449
C18	C	-0.303243	-0.880207	-0.357856
C19	C	-0.303248	-0.797662	-0.357856
C20	C	-0.466818	-1.073062	-0.357856
C21	C	-0.536786	-1.073088	-0.357863
C22	C	-0.303199	-1.073192	-0.551603
C23	C	-0.303171	-1.073206	-0.634148
C24	C	-0.569654	-1.120621	-0.310423
C25	C	-0.635397	-1.120656	-0.310440
C26	C	-0.668269	-1.073145	-0.357889
C27	C	-0.635393	-1.025608	-0.405338
C28	C	-0.569652	-1.025580	-0.405325
N29	N	-0.771530	-1.008178	-0.363536
N30	N	-0.833981	-1.008207	-0.363544
C31	C	-0.866344	-1.073228	-0.357931
N32	N	-0.833895	-1.138221	-0.352296
N33	N	-0.771438	-1.138191	-0.352284
C34	C	-0.739554	-1.073170	-0.357908
C35	C	-0.970497	-1.120803	-0.310507
C36	C	-1.036241	-1.120839	-0.310529
C37	C	-1.036235	-1.025784	-0.405423
C38	C	-0.970493	-1.025755	-0.405405
C39	C	-0.937628	-1.073263	-0.357943
C40	C	-0.139076	-1.073277	-0.357955
C41	C	-0.069108	-1.073328	-0.357979
C42	C	-0.303291	-1.266865	-0.357939
C43	C	-0.303301	-1.349411	-0.357956
C44	C	-0.261169	-0.598211	-0.308379
C45	C	-0.318588	-0.548788	-0.290098
C46	C	-0.303267	-0.646531	-0.357889
C47	C	-0.245869	-0.548872	-0.376169
C48	C	-0.303281	-0.500546	-0.357921
C49	C	-0.360716	-0.598196	-0.339573
C50	C	-0.287959	-0.598284	-0.425676
C51	C	-0.345417	-0.548883	-0.407420
C52	C	-0.303259	-0.730629	-0.357870
C53	C	-0.303296	-0.416450	-0.357940
C54	C	-0.261109	-1.122892	-0.833625
C55	C	-0.245698	-1.055159	-0.883014
C56	C	-0.303160	-1.073236	-0.785279
C57	C	-0.318531	-1.140996	-0.882972
C58	C	-0.303148	-1.073271	-0.931264
C59	C	-0.287720	-1.005467	-0.833581
C60	C	-0.360579	-1.091350	-0.833534
C61	C	-0.345190	-1.023570	-0.882901
C62	C	-0.303165	-1.073217	-0.701181
C63	C	-0.303143	-1.073282	-1.015361
C64	C	-0.303288	-1.073169	-0.164945
C65	C	-0.303139	-1.073299	-0.082399
H66	H	-0.542897	-1.159307	-0.271778
H67	H	-0.331546	-0.527049	-0.232786
H68	H	-0.409277	-0.619771	-0.324062
Br69	Br	-0.925890	-1.185274	-0.246093
H70	H	-1.063001	-1.159551	-0.271899
H71	H	-0.331535	-1.198285	-0.904670
H72	H	-0.381065	-0.527361	-0.449303
H73	H	-0.380746	-0.981544	-0.904402
H74	H	-0.274983	-0.620041	-0.482970
Br75	Br	-0.680014	-1.185170	-0.246052
Br76	Br	-1.080840	-0.961310	-0.469827
Br77	Br	-0.164957	-0.512751	-0.401913
Br78	Br	-0.201894	-0.634313	-0.238523
H79	H	-0.225525	-1.164816	-0.811985
H80	H	-0.409128	-1.106680	-0.811786
H81	H	-0.274658	-0.948161	-0.811976
H82	H	-0.197136	-1.039849	-0.904748
H83	H	-0.662161	-0.986925	-0.443973
Br84	Br	-0.525042	-0.961067	-0.469714
H85	H	-0.943730	-0.987046	-0.444032
