data_functionalizedCrystal
_audit_creation_method	'MofGen! by Chris Wilmer'
_symmetry_space_group_name_H-M	'P1'
_symmetry_Int_Tables_number	1
_symmetry_cell_setting	triclinic
loop_
_symmetry_equiv_pos_as_xyz
  x,y,z
_cell_length_a	23.532355
_cell_length_b	18.366186
_cell_length_c	19.288865
_cell_angle_alpha	89.993214
_cell_angle_beta	97.018127
_cell_angle_gamma	90.000539
loop_
_atom_site_label
_atom_site_type_symbol
_atom_site_fract_x
_atom_site_fract_y
_atom_site_fract_z
O1	O	0.755455	0.060459	-0.084143
O2	O	0.589613	0.060483	-0.096381
O3	O	0.677326	0.060456	0.010884
O4	O	0.667742	0.060486	-0.191408
O5	O	0.677315	-0.060644	0.010881
O6	O	0.589601	-0.060616	-0.096385
O7	O	0.755444	-0.060641	-0.084147
Zn8	Zn	0.672521	-0.079856	-0.090266
Zn9	Zn	0.672536	0.079698	-0.090261
O10	O	0.667731	-0.060613	-0.191412
C11	C	0.568390	-0.000064	-0.096077
C12	C	0.505169	-0.000055	-0.095157
N13	N	0.672515	-0.188747	-0.090269
C14	C	0.706978	-0.773295	-0.132153
C15	C	0.706972	-0.697067	-0.132160
C16	C	0.672541	-0.658958	-0.090254
C17	C	0.638103	-0.697083	-0.048351
C18	C	0.638105	-0.773309	-0.048351
C19	C	0.671125	-0.538201	-0.027634
C20	C	0.671127	-0.461976	-0.027633
C21	C	0.672530	-0.423850	-0.090255
C22	C	0.673943	-0.461960	-0.152880
C23	C	0.673946	-0.538186	-0.152880
C24	C	0.672534	-0.576303	-0.090250
C25	C	0.706957	-0.303080	-0.132166
C26	C	0.706947	-0.226851	-0.132175
C27	C	0.638081	-0.226868	-0.048360
C28	C	0.638087	-0.303096	-0.048358
C29	C	0.672528	-0.341197	-0.090260
C30	C	0.113137	-0.066098	-0.089380
C31	C	0.053736	-0.066101	-0.088505
O32	O	0.023011	-0.122240	-0.088031
N33	N	0.024033	-0.000090	-0.088070
C34	C	0.053735	0.065929	-0.088502
O35	O	0.023016	0.122076	-0.088050
C36	C	0.113136	0.065931	-0.089372
C37	C	0.142835	-0.000084	-0.089815
C38	C	0.142837	-0.132108	-0.089823
C39	C	0.202234	-0.132104	-0.090699
C40	C	0.231931	-0.066091	-0.091133
C41	C	0.202232	-0.000081	-0.090691
C42	C	0.142837	0.131948	-0.089799
C43	C	0.202242	0.131945	-0.090668
C44	C	0.231941	0.065930	-0.091111
C45	C	0.291326	0.065935	-0.092001
N46	N	0.321030	-0.000076	-0.092437
C47	C	0.291332	-0.066089	-0.092003
C48	C	-0.071010	0.065919	-0.086673
C49	C	-0.130411	0.065918	-0.085808
C50	C	-0.130405	-0.066112	-0.085811
C51	C	-0.071004	-0.066110	-0.086681
C52	C	-0.041307	-0.000092	-0.087109
C53	C	0.416070	-0.066077	-0.093844
C54	C	0.475472	-0.066068	-0.094723
C55	C	0.475462	0.065961	-0.094717
C56	C	0.416064	0.065952	-0.093841
C57	C	0.386370	-0.000073	-0.093402
O58	O	0.322089	0.122046	-0.092473
O59	O	0.322060	-0.122227	-0.092446
C60	C	0.776667	-0.000092	-0.084451
C61	C	0.839887	-0.000096	-0.085370
C62	C	0.677012	-0.000096	0.036758
C63	C	0.676086	-0.000102	0.113858
N64	N	0.672546	0.188589	-0.090253
C65	C	0.668045	-0.000060	-0.217285
C66	C	0.668970	-0.000049	-0.294386
C67	C	0.727552	-0.000113	0.158725
C68	C	0.726683	-0.000102	0.231169
C69	C	0.674344	-0.000094	0.258743
C70	C	0.622871	-0.000078	0.213867
C71	C	0.623742	-0.000083	0.141424
C72	C	0.633196	-0.042506	0.366893
C73	C	0.632327	-0.042506	0.439335
C74	C	0.671655	-0.000077	0.482180
C75	C	0.711862	0.042343	0.452576
C76	C	0.712733	0.042339	0.380134
C77	C	0.673393	-0.000088	0.337294
C78	C	0.722181	-0.000074	0.605600
C79	C	0.721310	-0.000058	0.678045
C80	C	0.617496	-0.000042	0.660741
C81	C	0.618370	-0.000051	0.588297
C82	C	0.670714	-0.000070	0.560731
H83	H	0.735021	-0.804312	-0.166274
H84	H	0.734998	-0.334104	-0.166289
F85	F	0.743627	-0.656493	-0.176749
F86	F	0.233844	0.202212	-0.091122
F87	F	0.589537	-0.087656	0.470835
H88	H	0.601168	-0.077061	0.332014
H89	H	0.610066	-0.804343	-0.014230
F90	F	0.669632	-0.578769	0.039022
H91	H	0.743886	0.076894	0.487460
F92	F	-0.039410	0.136189	-0.087136
H93	H	0.675095	-0.569211	-0.203871
F94	F	0.601433	-0.186314	-0.003764
F95	F	0.675439	-0.421391	-0.219533
F96	F	0.601457	-0.656524	-0.003754
F97	F	0.384476	-0.136348	-0.093376
H98	H	0.768594	-0.000108	0.267707
F99	F	0.755520	0.087487	0.348629
F100	F	0.601442	-0.343663	-0.003759
H101	H	0.763221	-0.000063	0.714575
H102	H	0.764803	-0.000087	0.583154
F103	F	-0.162021	-0.136370	-0.085347
F104	F	0.233835	-0.202367	-0.091167
H105	H	0.734984	-0.195818	-0.166299
H106	H	0.574881	-0.000032	0.683191
H107	H	0.669980	-0.430953	0.023361
F108	F	0.783262	-0.000118	0.129392
F109	F	0.507077	-0.136334	-0.095197
F110	F	-0.162014	0.136180	-0.085350
H111	H	0.118664	-0.185866	-0.089468
F112	F	-0.039401	-0.136371	-0.087151
F113	F	0.111242	0.202212	-0.089326
H114	H	0.580256	-0.000070	0.236322
H115	H	0.391881	0.119707	-0.093492
F116	F	0.507078	0.136213	-0.095177
F117	F	0.568962	-0.000070	0.093672
F118	F	0.563592	-0.000042	0.540545
