data_functionalizedCrystal
_audit_creation_method	'MofGen! by Chris Wilmer'
_symmetry_space_group_name_H-M	'P1'
_symmetry_Int_Tables_number	1
_symmetry_cell_setting	triclinic
loop_
_symmetry_equiv_pos_as_xyz
  x,y,z
_cell_length_a	14.044220
_cell_length_b	13.339070
_cell_length_c	12.376457
_cell_angle_alpha	75.601917
_cell_angle_beta	102.331921
_cell_angle_gamma	104.409086
loop_
_atom_site_label
_atom_site_type_symbol
_atom_site_fract_x
_atom_site_fract_y
_atom_site_fract_z
O1	O	-1.336786	-0.231663	-0.093871
O2	O	-1.058450	-0.222642	-0.093900
O3	O	-1.165673	-0.077007	-0.093885
O4	O	-1.229562	-0.377299	-0.093885
O5	O	-1.138867	-0.113363	0.094123
O6	O	-1.031643	-0.258999	0.094109
O7	O	-1.309979	-0.268019	0.094138
Zn8	Zn	-1.166555	-0.269281	0.123974
Zn9	Zn	-1.201874	-0.221380	-0.123736
O10	O	-1.202756	-0.413655	0.094123
C11	C	-1.141478	-0.056521	0.000116
C12	C	-1.109311	0.058685	0.000108
C13	C	-1.008695	-0.236874	0.000101
C14	C	-0.900375	-0.225101	0.000089
C15	C	-1.359735	-0.253787	0.000135
C16	C	-1.468055	-0.265558	0.000139
C17	C	-0.702051	-0.203586	0.000112
C18	C	-0.666373	-0.287068	0.000117
C19	C	-0.556018	-0.275097	0.000129
C20	C	-0.812415	-0.215556	0.000099
C21	C	-1.226951	-0.434140	0.000119
C22	C	-1.259120	-0.549345	0.000120
N23	N	-1.142457	-0.301972	0.293029
C24	C	-1.359433	0.400902	0.000135
C25	C	-1.389658	0.292659	0.000149
C26	C	-1.319574	0.234160	0.000139
C27	C	-1.219260	0.283915	0.000115
C28	C	-1.189030	0.392167	0.000110
C29	C	-1.149171	0.225425	0.000113
C30	C	-1.048856	0.275180	0.000090
C31	C	-1.018632	0.383422	0.000084
C32	C	-1.088716	0.441920	0.000095
C33	C	-1.179400	0.117173	0.000118
C34	C	-1.008997	0.108439	0.000093
C35	C	-0.978772	0.216682	0.000079
N36	N	-1.225977	-0.188682	-0.292791
C37	C	-1.281910	-0.112776	0.648033
C38	C	-1.298770	-0.089894	0.529695
C39	C	-1.259693	-0.142912	0.470523
C40	C	-1.203753	-0.218814	0.529700
C41	C	-1.186898	-0.241704	0.648049
C42	C	-1.164681	-0.271840	0.470539
C43	C	-1.108741	-0.347742	0.529715
C44	C	-1.091888	-0.370627	0.648053
C45	C	-1.130965	-0.317610	0.707225
C46	C	-1.181537	-0.248950	0.352190
C47	C	-1.086525	-0.377878	0.352205
C48	C	-1.069664	-0.400759	0.470543
H49	H	-0.718706	-0.367530	0.000111
O50	O	-1.319796	-0.061110	0.705393
C51	C	-1.281133	0.048491	0.676510
H52	H	-1.255984	0.068387	0.590583
H53	H	-1.341276	0.093677	0.672471
H54	H	-1.214878	0.072035	0.743117
O55	O	-1.427615	0.457645	-0.000003
C56	C	-1.500708	0.452711	-0.097380
H57	H	-1.503069	0.379150	-0.129846
H58	H	-1.576559	0.448779	-0.075467
H59	H	-1.481603	0.526210	-0.165565
H60	H	-0.936948	0.423927	0.000073
O61	O	-1.059194	0.547073	0.000026
C62	C	-0.955622	0.578441	0.000039
H63	H	-0.929867	0.520462	-0.035545
H64	H	-0.938012	0.661141	-0.054562
H65	H	-0.915237	0.579087	0.090230
H66	H	-1.046348	-0.432440	0.696235
H67	H	-0.649721	-0.123132	0.000118
H68	H	-1.024117	-0.462561	0.518739
O69	O	-1.276879	0.068936	-0.000068
C70	C	-1.335209	0.116894	-0.097420
H71	H	-1.286752	0.157250	-0.165483
H72	H	-1.398398	0.054012	-0.130099
H73	H	-1.367646	0.178197	-0.075401
O74	O	-1.048598	-0.429257	0.294563
C75	C	-1.075489	-0.392798	0.177423
H76	H	-1.092418	-0.310583	0.161260
H77	H	-1.011392	-0.388951	0.132451
H78	H	-1.144401	-0.449375	0.143834
H79	H	-1.471334	0.252156	0.000170
O80	O	-0.940773	0.051772	0.000129
C81	C	-0.845756	0.118900	0.000089
H82	H	-0.844107	0.190460	0.035684
H83	H	-0.787118	0.074011	0.054665
H84	H	-0.829207	0.146508	-0.090113
H85	H	-0.897094	0.257207	0.000061
H86	H	-1.227083	-0.187151	0.304018
H87	H	-1.273423	-0.124278	0.374167
H88	H	-1.344317	-0.028097	0.481518
H89	H	-1.117234	-0.336236	0.803586
O90	O	-1.349108	0.129034	0.000094
C91	C	-1.452671	0.097657	0.000143
H92	H	-1.488574	0.169394	-0.035439
H93	H	-1.485857	0.036062	-0.054440
H94	H	-1.467325	0.062143	0.090346
