data_functionalizedCrystal
_audit_creation_method	'MofGen! by Chris Wilmer'
_symmetry_space_group_name_H-M	'P1'
_symmetry_Int_Tables_number	1
_symmetry_cell_setting	triclinic
loop_
_symmetry_equiv_pos_as_xyz
  x,y,z
_cell_length_a	19.121241
_cell_length_b	19.120786
_cell_length_c	12.759393
_cell_angle_alpha	87.522881
_cell_angle_beta	87.535027
_cell_angle_gamma	94.790376
loop_
_atom_site_label
_atom_site_type_symbol
_atom_site_fract_x
_atom_site_fract_y
_atom_site_fract_z
Zn1	Zn	1.063774	-0.234295	-0.647081
Zn2	Zn	1.058660	-0.351989	-0.463546
Zn3	Zn	0.946100	-0.239342	-0.463566
Zn4	Zn	0.941054	-0.356943	-0.631343
O5	O	1.002397	-0.295642	-0.551384
O6	O	1.161562	-0.245722	-0.629313
O7	O	1.043701	-0.337086	-0.316523
O8	O	0.965962	-0.140201	-0.494505
O9	O	1.157805	-0.332192	-0.494470
O10	O	1.052417	-0.136493	-0.629333
O11	O	0.961004	-0.254324	-0.316538
O12	O	0.846965	-0.259127	-0.479244
O13	O	0.957361	-0.340634	-0.780456
O14	O	0.843257	-0.345528	-0.602509
O15	O	1.047523	-0.250525	-0.792019
O16	O	1.038807	-0.451118	-0.479209
O17	O	0.952402	-0.454758	-0.602489
C18	C	0.819580	-0.303413	-0.539172
C19	C	0.741369	-0.306754	-0.533971
C20	C	0.706580	-0.263376	-0.601831
C21	C	0.633093	-0.266512	-0.596935
C22	C	0.594396	-0.313031	-0.524184
C23	C	0.629191	-0.356412	-0.456317
C24	C	0.702677	-0.353271	-0.461208
C25	C	0.372419	-0.324758	-0.505894
C26	C	0.298928	-0.327896	-0.501010
C27	C	0.302834	-0.237995	-0.641627
C28	C	0.376321	-0.234862	-0.646516
C29	C	0.411110	-0.278240	-0.578646
C30	C	0.519281	-0.316239	-0.519181
C31	C	0.486224	-0.275028	-0.583645
C32	C	0.994521	-0.478470	-0.539164
C33	C	0.991217	-0.556681	-0.533975
C34	C	1.034643	-0.591436	-0.601787
C35	C	1.031534	-0.664924	-0.596914
C36	C	0.985003	-0.703657	-0.524222
C37	C	0.941573	-0.668897	-0.456407
C38	C	0.944678	-0.595410	-0.461286
C39	C	0.973375	-0.925639	-0.505979
C40	C	0.970274	-0.999131	-0.501103
C41	C	1.060236	-0.995153	-0.641612
C42	C	1.063340	-0.921664	-0.646481
C43	C	1.019906	-0.886912	-0.578669
C44	C	0.981827	-0.778773	-0.519236
C45	C	1.023080	-0.811796	-0.583660
C46	C	1.185928	-0.287842	-0.563645
C47	C	1.264138	-0.284517	-0.568870
C48	C	1.002449	-0.295569	-0.825426
C49	C	1.002472	-0.295538	-0.942206
C50	C	1.010323	-0.112100	-0.563677
C51	C	1.013700	-0.033885	-0.568915
C52	C	1.049426	-0.248614	-1.003091
C53	C	1.049443	-0.248588	-1.112818
C54	C	0.955551	-0.342416	-1.100764
C55	C	0.955531	-0.342438	-0.991039
C56	C	1.103636	-0.194445	-1.010051
C57	C	1.103653	-0.194419	-1.119778
C58	C	1.002388	-0.295663	-0.278415
C59	C	1.002510	-0.295490	-0.161658
H60	H	0.731002	-0.388595	-0.405949
H61	H	0.917294	-0.380646	-0.941470
C62	C	0.594827	-0.218793	-0.671590
N63	N	0.566006	-0.182850	-0.727824
C64	C	0.264561	-0.190270	-0.716263
N65	N	0.235734	-0.154317	-0.772474
C66	C	0.903918	-0.394003	-1.154492
N67	N	0.865026	-0.432859	-1.194958
C68	C	0.418882	-0.183681	-0.726539
N69	N	0.450939	-0.145130	-0.786813
C70	C	0.896906	-0.557181	-0.386686
N71	N	0.860921	-0.528388	-0.330497
H72	H	1.101229	-0.890130	-0.705672
C73	C	0.919081	-1.041735	-0.421137
N74	N	0.880525	-1.073825	-0.360909
C75	C	1.108004	-1.033387	-0.716206
N76	N	1.143983	-1.062185	-0.772397
H77	H	1.091391	-0.140570	-0.982958
H78	H	1.066902	-0.693218	-0.652126
C79	C	1.176428	-0.211009	-1.163609
N80	N	1.231239	-0.223507	-1.196621
H81	H	0.938011	-0.897349	-0.450763
H82	H	0.738081	-0.225496	-0.661075
C83	C	1.080343	-0.125576	-1.168692
N84	N	1.062794	-0.073722	-1.205536
C85	C	0.256363	-0.379073	-0.420975
N86	N	0.224304	-0.417619	-0.360697
H87	H	1.060963	-0.780258	-0.642850
C88	C	0.410677	-0.372478	-0.431238
N89	N	0.439495	-0.408425	-0.375004
C90	C	0.890430	-0.711504	-0.376384
N91	N	0.851927	-0.743593	-0.316084
H92	H	0.597679	-0.394285	-0.397077
H93	H	0.517734	-0.237149	-0.642874
H94	H	0.943943	-0.810317	-0.460048
H95	H	1.154551	-0.211777	-0.978165
H96	H	0.487766	-0.354115	-0.459946
H97	H	1.072536	-0.559905	-0.660976
