data_functionalizedCrystal
_audit_creation_method	'MofGen! by Chris Wilmer'
_symmetry_space_group_name_H-M	'P1'
_symmetry_Int_Tables_number	1
_symmetry_cell_setting	triclinic
loop_
_symmetry_equiv_pos_as_xyz
  x,y,z
_cell_length_a	19.121063
_cell_length_b	19.121414
_cell_length_c	12.759393
_cell_angle_alpha	87.585042
_cell_angle_beta	87.597083
_cell_angle_gamma	94.802198
loop_
_atom_site_label
_atom_site_type_symbol
_atom_site_fract_x
_atom_site_fract_y
_atom_site_fract_z
Zn1	Zn	-0.234201	1.063724	0.541238
Zn2	Zn	0.265799	1.563724	1.041238
Zn3	Zn	-0.351888	1.058606	0.373372
Zn4	Zn	0.148112	1.558606	0.873372
Zn5	Zn	-0.239256	0.946055	0.373382
Zn6	Zn	0.260744	1.446055	0.873382
Zn7	Zn	-0.356850	0.941004	0.556808
Zn8	Zn	0.143150	1.441004	1.056808
O9	O	-0.295549	1.002347	0.461200
O10	O	0.204451	1.502347	0.961200
O11	O	-0.245621	1.161507	0.512450
O12	O	0.254379	1.661507	1.012450
O13	O	-0.336987	1.043648	0.226357
O14	O	0.163013	1.543648	0.726357
O15	O	-0.140120	0.965919	0.389136
O16	O	0.359880	1.465919	0.889136
O17	O	-0.332085	1.157747	0.389120
O18	O	0.167915	1.657747	0.889120
O19	O	-0.136406	1.052370	0.512459
O20	O	0.363594	1.552370	1.012459
O21	O	-0.254237	0.960957	0.226364
O22	O	0.245763	1.460957	0.726364
O23	O	-0.259048	0.846923	0.404234
O24	O	0.240952	1.346923	0.904234
O25	O	-0.340541	0.957311	0.701760
O26	O	0.159459	1.457311	1.201760
O27	O	-0.345443	0.843212	0.538997
O28	O	0.154557	1.343212	1.038997
O29	O	-0.250432	1.047473	0.690320
O30	O	0.249568	1.547473	1.190320
O31	O	-0.451012	1.038751	0.404218
O32	O	0.048988	1.538751	0.904218
O33	O	-0.454657	0.952349	0.538987
O34	O	0.045343	1.452349	1.038987
C35	C	-0.303333	0.819537	0.473307
C36	C	0.196667	1.319537	0.973307
C37	C	-0.306680	0.741330	0.478512
C38	C	0.193320	1.241330	0.978512
C39	C	-0.263203	0.706502	0.410900
C40	C	0.236797	1.206502	0.910900
C41	C	-0.266354	0.633017	0.415791
C42	C	0.233646	1.133017	0.915791
C43	C	-0.312978	0.594362	0.488300
C44	C	0.187022	1.094362	0.988300
C45	C	-0.356460	0.629195	0.555915
C46	C	0.143540	1.129195	1.055915
C47	C	-0.353312	0.702678	0.551018
C48	C	0.146688	1.202678	1.051018
C49	C	-0.324739	0.372394	0.506586
C50	C	0.175261	0.872394	1.006586
C51	C	-0.327882	0.298906	0.511480
C52	C	0.172118	0.798906	1.011480
C53	C	-0.237777	0.302733	0.371354
C54	C	0.262223	0.802733	0.871354
C55	C	-0.234630	0.376218	0.366468
C56	C	0.265370	0.876218	0.866468
C57	C	-0.278114	0.411044	0.434079
C58	C	0.221886	0.911044	0.934079
C59	C	-0.316198	0.519249	0.493304
C60	C	0.183802	1.019249	0.993304
C61	C	-0.274897	0.486156	0.429070
C62	C	0.225103	0.986156	0.929070
C63	C	-0.478365	0.994466	0.473313
C64	C	0.021635	1.494466	0.973313
C65	C	-0.556572	0.991158	0.478525
C66	C	-0.056572	1.491158	0.978525
C67	C	-0.591391	1.034625	0.410860
C68	C	-0.091391	1.534625	0.910860
C69	C	-0.664874	1.031518	0.415769
C70	C	-0.164874	1.531518	0.915769
C71	C	-0.703537	0.984942	0.488338
C72	C	-0.203537	1.484942	0.988338
C73	C	-0.668713	0.941474	0.556010
C74	C	-0.168713	1.441474	1.056010
C75	C	-0.595231	0.944584	0.551106
C76	C	-0.095231	1.444584	1.051106
C77	C	-0.925502	0.973301	0.506658
C78	C	-0.425502	1.473301	1.006658
C79	C	-0.998990	0.970193	0.511554
C80	C	-0.498990	1.470193	1.011554
C81	C	-0.995145	1.060238	0.371314
C82	C	-0.495145	1.560238	0.871314
C83	C	-0.921662	1.063341	0.366412
C84	C	-0.421662	1.563341	0.866412
C85	C	-0.886844	1.019876	0.434088
C86	C	-0.386844	1.519876	0.934088
C87	C	-0.778649	0.981764	0.493355
C88	C	-0.278649	1.481764	0.993355
C89	C	-0.811733	1.023058	0.429075
C90	C	-0.311733	1.523058	0.929075
C91	C	-0.112018	1.010279	0.449062
C92	C	0.387982	1.510279	0.949062
C93	C	-0.033808	1.013659	0.443889
C94	C	0.466192	1.513659	0.943889
C95	C	-0.295476	1.002400	0.735226
C96	C	0.204524	1.502400	1.235226
C97	C	-0.295445	1.002422	0.851999
C98	C	0.204555	1.502422	1.351999
C99	C	-0.287735	1.185871	0.449047
C100	C	0.212265	1.685871	0.949047
C101	C	-0.284406	1.264078	0.443868
C102	C	0.215594	1.764078	0.943868
C103	C	-0.295569	1.002338	0.188235
C104	C	0.204431	1.502338	0.688235
C105	C	-0.295396	1.002460	0.071440
C106	C	0.204604	1.502460	0.571440
C107	C	-0.248520	1.049375	0.900905
C108	C	0.251480	1.549375	1.400905
C109	C	-0.248494	1.049393	1.010627
C110	C	0.251506	1.549393	1.510627
C111	C	-0.342323	0.955502	1.022526
C112	C	0.157677	1.455502	1.522526
C113	C	-0.342345	0.955481	0.912807
C114	C	0.157655	1.455481	1.412807
C115	C	-0.194351	1.103585	0.894036
C116	C	0.305649	1.603585	1.394036
C117	C	-0.194325	1.103603	1.003758
C118	C	0.305675	1.603603	1.503758
H119	H	-0.230954	0.604663	0.360728
H120	H	0.269046	1.104663	0.860728
H121	H	-1.030467	0.932273	0.570667
H122	H	-0.530467	1.432273	1.070667
F123	F	-0.399588	0.739744	0.622978
F124	F	0.100412	1.239744	1.122978
H125	H	-0.810137	0.943840	0.552439
H126	H	-0.310137	1.443840	1.052439
F127	F	-0.225280	0.527297	0.351899
F128	F	0.274720	1.027297	0.851899
F129	F	-0.185001	0.417353	0.289301
F130	F	0.314999	0.917353	0.789301
H131	H	-0.225230	0.737970	0.351863
H132	H	0.274770	1.237970	0.851863
H133	H	-0.211679	1.154497	0.857865
H134	H	0.288321	1.654497	1.357865
F135	F	-0.191502	0.265663	0.299400
F136	F	0.308498	0.765663	0.799400
H137	H	-0.380506	0.917283	1.072049
H138	H	0.119494	1.417283	1.572049
H139	H	-0.365849	0.267435	0.570532
H140	H	0.134151	0.767435	1.070532
H141	H	-0.206595	1.157472	1.030891
H142	H	0.293405	1.657472	1.530891
H143	H	-0.360147	0.400741	0.561640
H144	H	0.139853	0.900741	1.061640
F145	F	-0.127772	1.080940	1.045473
F146	F	0.372228	1.580940	1.545473
F147	F	-0.123940	1.087584	0.851675
F148	F	0.376060	1.587584	1.351675
H149	H	-0.394426	0.597716	0.614949
H150	H	0.105574	1.097716	1.114949
F151	F	-0.365826	0.478102	0.570461
F152	F	0.134174	0.978102	1.070461
H153	H	-0.559916	1.072549	0.351762
H154	H	-0.059916	1.572549	0.851762
H155	H	-0.693220	1.066912	0.360668
H156	H	-0.193220	1.566912	0.860668
H157	H	-0.890183	1.101268	0.307320
H158	H	-0.390183	1.601268	0.807320
H159	H	-1.023502	1.095626	0.316217
H160	H	-0.523502	1.595626	0.816217
H161	H	-0.897159	0.937909	0.561760
H162	H	-0.397159	1.437909	1.061760
H163	H	-0.700199	0.903553	0.615102
H164	H	-0.200199	1.403553	1.115102
H165	H	-0.566882	0.909191	0.606207
H166	H	-0.066882	1.409191	1.106207
H167	H	-0.380553	0.917245	0.872992
H168	H	0.119447	1.417245	1.372992
F169	F	-0.770584	1.072630	0.351849
F170	F	-0.270584	1.572630	0.851849
