data_functionalizedCrystal
_audit_creation_method	'MofGen! by Chris Wilmer'
_symmetry_space_group_name_H-M	'P1'
_symmetry_Int_Tables_number	1
_symmetry_cell_setting	triclinic
loop_
_symmetry_equiv_pos_as_xyz
  x,y,z
_cell_length_a	16.120484
_cell_length_b	19.077105
_cell_length_c	19.077299
_cell_angle_alpha	85.497841
_cell_angle_beta	84.706111
_cell_angle_gamma	89.261477
loop_
_atom_site_label
_atom_site_type_symbol
_atom_site_fract_x
_atom_site_fract_y
_atom_site_fract_z
Zn1	Zn	-0.405198	-1.076914	0.458494
Zn2	Zn	-0.538749	-1.066627	0.346099
Zn3	Zn	-0.393512	-0.954810	0.335413
Zn4	Zn	-0.538724	-0.953495	0.459214
O5	O	-0.469046	-1.012962	0.399805
O6	O	-0.427815	-1.173997	0.447755
O7	O	-0.514602	-1.048039	0.245832
O8	O	-0.278399	-0.975862	0.346967
O9	O	-0.525934	-1.166439	0.365179
O10	O	-0.286985	-1.065572	0.437394
O11	O	-0.407898	-0.965887	0.237982
O12	O	-0.407874	-0.856188	0.347665
O13	O	-0.525892	-0.973622	0.557967
O14	O	-0.514560	-0.855222	0.438620
O15	O	-0.427791	-1.064298	0.557438
O16	O	-0.655409	-1.046765	0.365877
O17	O	-0.655390	-0.963647	0.448982
C18	C	-0.459947	-0.830179	0.392062
C19	C	-0.456075	-0.751983	0.388767
C20	C	-0.685650	-1.003967	0.408683
C21	C	-0.778319	-1.000184	0.412507
C22	C	-0.478142	-1.019961	0.584050
C23	C	-0.482019	-1.022943	0.662564
C24	C	-0.947987	-0.993283	0.419504
C25	C	-0.989271	-1.032767	0.380122
C26	C	-1.083680	-1.028927	0.384016
C27	C	-0.853570	-0.997122	0.415612
C28	C	-0.251597	-1.022011	0.390908
C29	C	-0.158933	-1.025867	0.387117
C30	C	-0.478181	-1.196458	0.407579
C31	C	-0.482074	-1.274653	0.410892
C32	C	-0.509879	-0.714757	0.434507
C33	C	-0.506230	-0.641284	0.431414
C34	C	-0.448781	-0.605040	0.382577
C35	C	-0.394971	-0.642272	0.336835
C36	C	-0.398616	-0.715743	0.339932
C37	C	-0.431910	-0.385357	0.368247
C38	C	-0.428270	-0.311880	0.365152
C39	C	-0.539528	-0.310898	0.459732
C40	C	-0.543172	-0.384370	0.462822
C41	C	-0.489360	-0.421596	0.417082
N42	N	-0.445052	-0.529939	0.379412
N43	N	-0.493085	-0.496696	0.420250
C44	C	-0.509847	-1.044362	1.104957
C45	C	-0.506199	-1.041549	1.031184
C46	C	-0.448816	-0.997375	0.990218
C47	C	-0.395083	-0.956006	1.023028
C48	C	-0.398736	-0.958815	1.096800
C49	C	-0.431938	-0.984383	0.769146
C50	C	-0.428288	-0.981579	0.695369
C51	C	-0.539406	-1.067122	0.703530
C52	C	-0.543050	-1.069930	0.777303
C53	C	-0.489320	-1.028558	0.810107
N54	N	-0.445084	-0.994501	0.914810
N55	N	-0.493057	-1.031429	0.885514
C56	C	-0.460001	-1.005983	1.216277
C57	C	-0.456117	-1.002997	1.137763
H58	H	-0.953711	-1.069454	0.343482
O59	O	-0.990302	-0.949418	0.463168
C60	C	-0.964948	-0.879565	0.443833
H61	H	-0.900298	-0.879620	0.414064
H62	H	-0.963036	-0.850023	0.493331
H63	H	-1.011010	-0.852569	0.408472
H64	H	-0.381554	-0.945608	0.662016
H65	H	-0.388189	-0.950694	0.795846
O66	O	-0.565710	-0.749854	0.482011
C67	C	-0.612428	-0.701237	0.521708
H68	H	-0.575809	-0.650377	0.520591
H69	H	-0.625222	-0.724216	0.578615
H70	H	-0.674029	-0.689806	0.498018
H71	H	-0.583151	-1.100804	0.676813
O72	O	-0.558384	-0.605102	0.475913
C73	C	-0.511161	-0.566303	0.517866
H74	H	-0.446825	-0.591335	0.520567
H75	H	-0.544062	-0.566295	0.573389
H76	H	-0.504410	-0.509905	0.493569
H77	H	-0.589955	-0.413876	0.502588
O78	O	-0.591708	-0.274630	0.504134
C79	C	-0.576190	-0.202010	0.490920
H80	H	-0.510174	-0.193764	0.464811
H81	H	-0.583167	-0.175870	0.542883
H82	H	-0.622678	-0.177671	0.454382
H83	H	-0.348364	-0.920035	0.989668
H84	H	-0.381479	-0.282372	0.325387
O85	O	-0.379603	-0.421402	0.323745
C86	C	-0.328104	-0.373654	0.279990
H87	H	-0.359533	-0.319773	0.276686
H88	H	-0.317404	-0.393131	0.224874
H89	H	-0.265732	-0.369451	0.303029
O90	O	-0.339234	-0.606955	0.289419
C91	C	-0.347538	-0.534125	0.296504
H92	H	-0.412561	-0.522298	0.321761
H93	H	-0.337782	-0.504420	0.242189
H94	H	-0.298987	-0.516766	0.331291
H95	H	-0.354799	-0.746052	0.302689
O96	O	-0.565664	-1.087289	1.144643
C97	C	-0.612291	-1.123207	1.099865
H98	H	-0.611137	-1.092268	1.046178
H99	H	-0.679406	-1.128786	1.124177
H100	H	-0.584038	-1.177610	1.093030
O101	O	-0.558474	-1.081629	0.999288
C102	C	-0.608205	-1.037714	0.957109
H103	H	-0.611696	-0.982937	0.977206
H104	H	-0.673588	-1.060458	0.959972
H105	H	-0.579546	-1.034237	0.900042
H106	H	-0.354982	-0.925132	1.123509
H107	H	-0.589778	-1.105901	0.810653
