data_functionalizedCrystal
_audit_creation_method	'MofGen! by Chris Wilmer'
_symmetry_space_group_name_H-M	'P1'
_symmetry_Int_Tables_number	1
_symmetry_cell_setting	triclinic
loop_
_symmetry_equiv_pos_as_xyz
  x,y,z
_cell_length_a	10.489716
_cell_length_b	17.038274
_cell_length_c	9.565339
_cell_angle_alpha	89.985709
_cell_angle_beta	89.997314
_cell_angle_gamma	92.179539
loop_
_atom_site_label
_atom_site_type_symbol
_atom_site_fract_x
_atom_site_fract_y
_atom_site_fract_z
O1	O	1.704375	-0.110285	0.116277
O2	O	1.334146	-0.120666	0.116285
O3	O	1.517060	-0.001648	0.116243
O4	O	1.521461	-0.229303	0.116320
O5	O	1.517068	-0.001640	-0.116278
O6	O	1.334154	-0.120658	-0.116235
O7	O	1.704383	-0.110277	-0.116243
Zn8	Zn	1.519270	-0.115466	-0.153157
Zn9	Zn	1.519259	-0.115477	0.153199
O10	O	1.521469	-0.229296	-0.116200
C11	C	1.286545	-0.119882	0.000025
C12	C	1.144696	-0.117548	0.000027
C13	C	1.053849	-0.190534	0.000055
C14	C	0.972899	-0.151963	-0.114609
C15	C	0.972896	-0.151954	0.114637
C16	C	1.065615	-0.079008	-0.114732
C17	C	1.065618	-0.079009	0.114618
C18	C	0.984713	-0.040385	-0.000074
C19	C	1.513061	0.027508	-0.000024
C20	C	1.501119	0.114369	-0.000045
C21	C	1.610758	0.163854	-0.000060
C22	C	1.599529	0.245469	-0.000066
C23	C	1.478661	0.277597	-0.000068
C24	C	1.369014	0.228106	-0.000048
C25	C	1.380244	0.146492	-0.000032
C26	C	1.438989	0.523583	-0.000107
C27	C	1.427768	0.605203	-0.000128
C28	C	1.658284	0.622560	-0.000143
C29	C	1.669503	0.540945	-0.000135
C30	C	1.559856	0.491460	-0.000109
C31	C	1.467181	0.361021	-0.000078
C32	C	1.571338	0.408038	-0.000088
C33	C	1.751984	-0.111061	0.000020
C34	C	1.893833	-0.113395	0.000028
C35	C	1.525467	0.741549	0.000009
C36	C	1.537407	0.654688	-0.000143
N37	N	1.519252	-0.115478	0.362278
N38	N	1.519286	-0.115459	-0.362236
C39	C	1.434472	-0.170412	0.453492
C40	C	1.402326	-0.099524	0.546651
C41	C	1.551375	-0.186341	0.546675
C42	C	1.487045	-0.044554	0.453385
C43	C	1.636149	-0.131417	0.453401
C44	C	1.604047	-0.060478	0.546517
H45	H	0.932302	-0.182770	-0.211526
Br46	Br	1.104878	-0.296345	-0.000084
Br47	Br	1.133006	-0.027679	-0.276466
H48	H	1.106231	-0.048226	0.211539
Br49	Br	1.748332	0.312625	-0.000086
H50	H	0.954340	0.023148	-0.000162
H51	H	1.767927	0.514792	-0.000135
Br52	Br	0.905217	-0.203334	0.276184
Br53	Br	1.800850	-0.153947	0.385074
Br54	Br	1.723574	0.017046	0.614172
Br55	Br	1.596637	-0.286235	0.614979
H56	H	1.270601	0.254271	-0.000041
Br57	Br	1.774801	0.120260	-0.000078
Br58	Br	1.303150	0.404630	-0.000067
Br59	Br	1.807082	0.689721	-0.000179
H60	H	1.349706	0.483302	-0.000086
H61	H	1.329338	0.631358	-0.000152
H62	H	1.290964	0.106202	-0.000019
H63	H	1.669748	0.381876	-0.000056
H64	H	1.362705	-0.216822	0.412644
H65	H	1.303485	-0.086032	0.587620
H66	H	1.459774	0.015396	0.412580
