data_functionalizedCrystal
_audit_creation_method	'MofGen! by Chris Wilmer'
_symmetry_space_group_name_H-M	'P1'
_symmetry_Int_Tables_number	1
_symmetry_cell_setting	triclinic
loop_
_symmetry_equiv_pos_as_xyz
  x,y,z
_cell_length_a	10.908878
_cell_length_b	11.792254
_cell_length_c	9.482900
_cell_angle_alpha	99.398945
_cell_angle_beta	83.038437
_cell_angle_gamma	72.141694
loop_
_atom_site_label
_atom_site_type_symbol
_atom_site_fract_x
_atom_site_fract_y
_atom_site_fract_z
O1	O	1.722485	-0.196580	-0.120865
O2	O	2.222485	0.303420	0.379135
O3	O	1.349243	-0.108069	-0.120874
O4	O	1.849243	0.391931	0.379126
O5	O	1.544911	-0.319250	-0.120859
O6	O	2.044911	0.180750	0.379141
O7	O	1.526817	0.014600	-0.120880
O8	O	2.026817	0.514600	0.379120
O9	O	1.505168	-0.276212	0.120930
O10	O	2.005168	0.223788	0.620930
O11	O	1.309499	-0.065032	0.120915
O12	O	1.809499	0.434968	0.620915
O13	O	1.682741	-0.153543	0.120925
O14	O	2.182741	0.346457	0.620925
Cu15	Cu	1.492491	-0.105358	0.142997
Cu16	Cu	1.992491	0.394642	0.642997
Cu17	Cu	1.539493	-0.156254	-0.142947
Cu18	Cu	2.039493	0.343746	0.357053
O19	O	1.487073	0.057638	0.120909
O20	O	1.987073	0.557638	0.620909
C21	C	1.281588	-0.078279	0.000019
C22	C	1.781588	0.421721	0.500019
C23	C	1.139209	-0.053645	0.000016
C24	C	1.639209	0.446355	0.500016
C25	C	1.523899	-0.339800	0.000035
C26	C	2.023899	0.160200	0.500035
C27	C	1.520487	-0.465151	0.000034
C28	C	2.020487	0.034849	0.500034
C29	C	1.089569	-0.143530	0.000021
C30	C	1.589569	0.356470	0.500021
C31	C	0.942413	-0.118072	0.000017
C32	C	1.442413	0.381928	0.500017
C33	C	1.517716	-0.566950	0.000029
C34	C	2.017716	-0.066950	0.500029
C35	C	1.514251	-0.694666	0.000015
C36	C	2.014251	-0.194666	0.500015
C37	C	1.750397	-0.183334	0.000028
C38	C	2.250397	0.316666	0.500028
C39	C	1.892778	-0.207969	0.000022
C40	C	2.392778	0.292031	0.500022
C41	C	1.508085	0.078188	0.000012
C42	C	2.008085	0.578188	0.500012
C43	C	1.511499	0.203537	0.000004
C44	C	2.011499	0.703537	0.500004
N45	N	1.459442	-0.069562	0.344115
N46	N	1.959442	0.430438	0.844115
N47	N	1.572552	-0.192061	-0.344064
N48	N	2.072552	0.307939	0.155936
C49	C	1.529736	-0.145701	0.416320
C50	C	2.029736	0.354299	0.916320
C51	C	1.502248	-0.115911	0.583735
C52	C	2.002248	0.384089	1.083735
H53	H	0.875972	-0.022265	0.000004
H54	H	1.375972	0.477735	0.500004
N55	N	1.352768	0.045999	0.426393
N56	N	1.852768	0.545999	0.926393
H57	H	1.309633	0.092716	0.355206
H58	H	1.809633	0.592716	0.855206
H59	H	1.285304	0.024635	0.489556
H60	H	1.785304	0.524635	0.989556
H61	H	1.610263	-0.232943	0.354198
H62	H	2.110263	0.267057	0.854198
H63	H	0.959219	-0.303779	0.000018
H64	H	1.459219	0.196221	0.500018
N65	N	1.177563	-0.270433	0.000041
N66	N	1.677563	0.229567	0.500041
H67	H	1.175451	-0.328804	-0.089586
H68	H	1.675451	0.171196	0.410414
H69	H	1.270167	-0.270522	0.000098
H70	H	1.770167	0.229478	0.500098
N71	N	1.051212	0.073257	-0.000006
N72	N	1.551212	0.573257	0.499994
H73	H	0.958562	0.073455	-0.000010
H74	H	1.458562	0.573455	0.499990
H75	H	1.053431	0.131557	0.089625
H76	H	1.553431	0.631557	0.589625
H77	H	1.653083	-0.279309	0.593818
H78	H	2.153083	0.220691	1.093818
N79	N	1.395559	-0.000350	0.666002
N80	N	1.895559	0.499650	1.166002
H81	H	1.391042	0.004549	0.773936
H82	H	1.891042	0.504549	1.273936
H83	H	1.415523	0.072466	0.639469
H84	H	1.915523	0.572466	1.139469
