data_functionalizedCrystal
_audit_creation_method	'MofGen! by Chris Wilmer'
_symmetry_space_group_name_H-M	'P1'
_symmetry_Int_Tables_number	1
_symmetry_cell_setting	triclinic
loop_
_symmetry_equiv_pos_as_xyz
  x,y,z
_cell_length_a	18.050590
_cell_length_b	18.050590
_cell_length_c	12.759393
_cell_angle_alpha	89.964766
_cell_angle_beta	89.993397
_cell_angle_gamma	90.007719
loop_
_atom_site_label
_atom_site_type_symbol
_atom_site_fract_x
_atom_site_fract_y
_atom_site_fract_z
Zn1	Zn	1.135396	-0.295834	-0.593601
Zn2	Zn	1.135312	-0.420043	-0.417908
Zn3	Zn	1.011200	-0.295848	-0.417978
Zn4	Zn	1.011184	-0.419963	-0.593588
O5	O	1.073273	-0.357922	-0.505769
O6	O	1.239310	-0.312338	-0.570270
O7	O	1.118819	-0.403608	-0.270896
O8	O	1.027716	-0.191922	-0.441310
O9	O	1.239248	-0.403594	-0.441190
O10	O	1.118963	-0.191912	-0.570339
O11	O	1.027634	-0.312362	-0.270948
O12	O	0.907273	-0.312285	-0.441297
O13	O	1.027690	-0.403458	-0.740610
O14	O	0.907262	-0.403472	-0.570317
O15	O	1.118948	-0.312261	-0.740620
O16	O	1.118805	-0.523957	-0.441177
O17	O	1.027609	-0.523899	-0.570248
C18	C	0.880321	-0.357872	-0.505814
C19	C	0.797775	-0.357868	-0.505858
C20	C	0.598340	-0.407597	-0.575852
C21	C	0.548938	-0.339879	-0.601707
C22	C	0.646645	-0.357909	-0.505807
C23	C	0.548965	-0.425667	-0.479951
C24	C	0.500660	-0.357955	-0.505759
C25	C	0.598330	-0.290154	-0.531712
C26	C	0.598362	-0.375988	-0.409911
C27	C	0.548982	-0.308223	-0.435729
C28	C	0.730743	-0.357884	-0.505837
C29	C	0.416563	-0.357973	-0.505729
C30	C	1.073216	-0.550874	-0.505727
C31	C	1.073260	-0.633420	-0.505744
C32	C	1.122955	-0.832876	-0.435653
C33	C	1.141099	-0.882204	-0.531534
C34	C	1.073302	-0.784551	-0.505786
C35	C	1.055233	-0.882304	-0.409948
C36	C	1.073344	-0.930536	-0.505818
C37	C	1.091481	-0.832791	-0.601717
C38	C	1.005583	-0.832887	-0.480067
C39	C	1.023701	-0.882193	-0.576014
C40	C	1.073279	-0.700452	-0.505766
C41	C	1.073366	-1.014632	-0.505848
C42	C	1.266979	-0.357974	-0.505724
C43	C	1.349524	-0.357996	-0.505705
C44	C	1.073327	-0.357849	-0.779802
C45	C	1.073350	-0.357818	-0.896579
C46	C	1.073351	-0.164217	-0.505834
C47	C	1.073384	-0.081671	-0.505861
C48	C	1.120887	-0.310296	-1.061179
C49	C	1.120873	-0.310325	-0.951454
C50	C	1.025844	-0.405291	-0.951433
C51	C	1.025863	-0.405265	-1.061155
C52	C	1.073262	-0.357942	-0.232801
C53	C	1.073383	-0.357764	-0.116025
H54	H	0.527228	-0.324602	-0.682784
H55	H	0.620088	-0.391285	-0.328857
C56	C	1.172360	-0.258637	-1.120807
C57	C	1.130341	-0.210995	-1.183803
C58	C	1.177735	-0.163390	-1.238734
H59	H	1.204729	-0.286958	-1.163680
H60	H	1.200637	-0.230329	-1.072456
H61	H	1.102077	-0.239300	-1.232149
H62	H	1.097975	-0.182658	-1.140957
H63	H	1.206012	-0.135082	-1.190383
H64	H	1.210101	-0.191717	-1.281600
H65	H	1.149232	-0.131055	-1.281475
C66	C	0.627288	-0.463626	-0.654748
C67	C	0.669937	-0.516969	-0.602700
C68	C	0.696609	-0.568595	-0.675343
H69	H	0.657008	-0.439030	-0.705411
H70	H	0.586724	-0.487069	-0.688658
H71	H	0.710495	-0.493528	-0.568806
H72	H	0.640233	-0.541584	-0.552042
H73	H	0.656045	-0.592038	-0.709253
H74	H	0.726326	-0.543992	-0.726002
H75	H	0.725543	-0.604798	-0.640038
H76	H	0.619923	-0.232855	-0.553652
H77	H	0.527446	-0.266175	-0.376474
H78	H	0.527278	-0.482949	-0.458104
C79	C	1.179076	-0.804034	-0.356790
C80	C	1.249899	-0.829007	-0.384231
C81	C	1.301618	-0.802444	-0.311621
H82	H	1.166798	-0.821697	-0.288829
H83	H	1.178405	-0.751405	-0.356896
H84	H	1.250569	-0.881625	-0.384114
H85	H	1.262201	-0.811347	-0.452180
H86	H	1.300947	-0.749815	-0.311728
H87	H	1.289333	-0.820109	-0.243665
H88	H	1.349678	-0.819379	-0.330236
C89	C	0.974370	-0.456782	-1.120900
C90	C	0.984577	-0.446610	-1.228734
C91	C	0.937169	-0.494063	-1.283804
H92	H	0.924439	-0.445958	-1.103067
H93	H	0.985229	-0.506702	-1.102954
H94	H	0.973713	-0.396701	-1.246673
H95	H	1.034497	-0.457439	-1.246598
H96	H	0.948028	-0.543983	-1.265857
H97	H	0.887242	-0.483235	-1.265962
H98	H	0.944093	-0.487172	-1.356974
C99	C	1.217494	-0.910975	-0.560742
C100	C	1.236752	-0.884784	-0.660400
C101	C	1.307129	-0.911254	-0.687329
H102	H	1.216941	-0.963595	-0.561265
H103	H	1.252729	-0.894064	-0.510888
H104	H	1.201527	-0.901700	-0.710241
H105	H	1.237322	-0.832168	-0.659903
H106	H	1.342364	-0.894342	-0.637474
H107	H	1.306569	-0.963873	-0.687846
H108	H	1.320208	-0.893482	-0.754944
C109	C	1.111833	-0.803965	-0.709913
C110	C	1.060079	-0.829521	-0.783193
C111	C	1.078800	-0.802971	-0.882867
H112	H	1.159777	-0.821244	-0.728451
H113	H	1.111681	-0.751334	-0.709283
H114	H	1.060239	-0.882140	-0.783826
H115	H	1.012131	-0.812243	-0.764690
H116	H	1.078648	-0.750340	-0.882237
H117	H	1.126745	-0.820252	-0.901394
H118	H	1.043685	-0.820301	-0.932598
C119	C	0.967747	-0.911039	-0.655108
C120	C	0.967930	-0.988599	-0.653665
C121	C	0.916392	-1.015199	-0.726505
H122	H	0.980652	-0.894071	-0.723190
H123	H	0.919750	-0.893447	-0.637401
H124	H	1.015916	-1.006184	-0.671378
H125	H	0.955016	-1.005587	-0.585601
H126	H	0.868394	-0.997607	-0.708798
H127	H	0.929302	-0.998226	-0.794581
H128	H	0.916504	-1.067826	-0.725528
C129	C	0.929247	-0.804012	-0.450784
C130	C	0.910592	-0.829042	-0.350304
C131	C	0.840281	-0.802447	-0.323276
H132	H	0.893790	-0.821615	-0.499818
H133	H	0.929668	-0.751383	-0.451558
H134	H	0.910164	-0.881660	-0.349538
H135	H	0.946029	-0.811440	-0.301248
H136	H	0.840702	-0.749818	-0.324050
H137	H	0.804830	-0.820052	-0.372316
H138	H	0.827617	-0.819420	-0.255095
C139	C	1.172528	-0.258903	-0.891843
C140	C	1.220118	-0.300972	-0.828841
C141	C	1.267718	-0.253624	-0.773920
H142	H	1.144201	-0.226540	-0.848976
H143	H	1.200874	-0.230619	-0.940200
H144	H	1.191775	-0.329243	-0.780490
H145	H	1.248461	-0.333333	-0.871682
H146	H	1.296064	-0.225340	-0.822276
H147	H	1.239385	-0.221263	-0.731058
H148	H	1.300017	-0.282161	-0.731174
C149	C	1.034928	-0.911200	-0.301770
C150	C	1.087066	-0.886195	-0.228655
C151	C	1.068387	-0.912788	-0.128989
H152	H	1.034659	-0.963819	-0.302572
H153	H	0.987158	-0.893567	-0.282950
H154	H	1.134823	-0.903832	-0.247471
H155	H	1.087343	-0.833578	-0.227821
H156	H	1.020617	-0.895155	-0.110168
H157	H	1.068118	-0.965407	-0.129801
H158	H	1.103755	-0.895820	-0.079367
H159	H	0.987154	-0.443964	-0.906744
