data_functionalizedCrystal
_audit_creation_method	'MofGen! by Chris Wilmer'
_symmetry_space_group_name_H-M	'P1'
_symmetry_Int_Tables_number	1
_symmetry_cell_setting	triclinic
loop_
_symmetry_equiv_pos_as_xyz
  x,y,z
_cell_length_a	27.732048
_cell_length_b	23.532355
_cell_length_c	22.010155
_cell_angle_alpha	89.997414
_cell_angle_beta	89.988014
_cell_angle_gamma	97.264924
loop_
_atom_site_label
_atom_site_type_symbol
_atom_site_fract_x
_atom_site_fract_y
_atom_site_fract_z
O1	O	-0.058552	0.755158	-0.050433
O2	O	0.274781	1.088491	0.282901
O3	O	0.608114	1.421825	0.616234
O4	O	-0.067069	0.589272	-0.050451
O5	O	0.266264	0.922605	0.282883
O6	O	0.599598	1.255939	0.616216
O7	O	0.007579	0.677367	-0.050449
O8	O	0.340912	1.010700	0.282884
O9	O	0.674246	1.344034	0.616218
O10	O	-0.133200	0.667063	-0.050434
O11	O	0.200133	1.000396	0.282899
O12	O	0.533466	1.333730	0.616233
O13	O	0.007568	0.677351	0.050601
O14	O	0.340901	1.010684	0.383935
O15	O	0.674234	1.344018	0.717268
O16	O	-0.067080	0.589256	0.050600
O17	O	0.266253	0.922589	0.383933
O18	O	0.599586	1.255923	0.717266
O19	O	-0.058564	0.755142	0.050618
O20	O	0.274770	1.088475	0.383951
O21	O	0.608103	1.421809	0.717284
Cu22	Cu	-0.062823	0.672198	0.059835
Cu23	Cu	0.270510	1.005531	0.393169
Cu24	Cu	0.603844	1.338864	0.726502
Cu25	Cu	-0.062810	0.672216	-0.059668
Cu26	Cu	0.270524	1.005550	0.273665
Cu27	Cu	0.603857	1.338883	0.606998
O28	O	-0.133212	0.667047	0.050616
O29	O	0.200122	1.000380	0.383950
O30	O	0.533455	1.333714	0.717283
C31	C	-0.066862	0.568048	0.000072
C32	C	0.266472	0.901381	0.333406
C33	C	0.599805	1.234715	0.666739
C34	C	-0.066222	0.504831	0.000065
C35	C	0.267112	0.838164	0.333398
C36	C	0.600445	1.171497	0.666731
C37	C	-0.062206	0.112817	0.055172
C38	C	0.271127	0.446150	0.388506
C39	C	0.604460	0.779483	0.721839
C40	C	-0.061597	0.053419	0.055175
C41	C	0.271736	0.386752	0.388508
C42	C	0.605069	0.720085	0.721841
O43	O	-0.061271	0.022693	0.102020
O44	O	0.272062	0.356027	0.435353
O45	O	0.605395	0.689360	0.768686
N46	N	-0.061289	0.023720	0.000092
N47	N	0.272044	0.357053	0.333426
N48	N	0.605377	0.690386	0.666759
C49	C	-0.061585	0.053422	-0.054996
C50	C	0.271748	0.386756	0.278337
C51	C	0.605081	0.720089	0.611671
O52	O	-0.061267	0.022707	-0.101848
O53	O	0.272066	0.356040	0.231486
O54	O	0.605400	0.689374	0.564819
C55	C	-0.062191	0.112820	-0.054998
C56	C	0.271143	0.446153	0.278336
C57	C	0.604476	0.779487	0.611669
C58	C	-0.062504	0.142515	0.000088
C59	C	0.270830	0.475849	0.333422
C60	C	0.604163	0.809182	0.666755
C61	C	-0.062519	0.142512	0.110254
C62	C	0.270815	0.475845	0.443587
C63	C	0.604148	0.809179	0.776920
C64	C	-0.063129	0.201906	0.110251
C65	C	0.270205	0.535239	0.443585
C66	C	0.603538	0.868573	0.776918
C67	C	-0.063426	0.231604	0.055167
C68	C	0.269907	0.564938	0.388501
C69	C	0.603241	0.898271	0.721834
C70	C	-0.063114	0.201909	0.000086
C71	C	0.270220	0.535242	0.333419
C72	C	0.603553	0.868576	0.666752
C73	C	-0.062483	0.142522	-0.110085
C74	C	0.270850	0.475856	0.223248
C75	C	0.604183	0.809189	0.556581
C76	C	-0.063088	0.201924	-0.110082
C77	C	0.270245	0.535257	0.223251
C78	C	0.603578	0.868591	0.556584
C79	C	-0.063401	0.231619	-0.054996
C80	C	0.269932	0.564953	0.278337
C81	C	0.603265	0.898286	0.611670
C82	C	-0.064021	0.291001	-0.055001
C83	C	0.269313	0.624335	0.278333
C84	C	0.602646	0.957668	0.611666
N85	N	-0.064329	0.320701	0.000082
N86	N	0.269005	0.654034	0.333415
N87	N	0.602338	0.987367	0.666748
C88	C	-0.064031	0.291002	0.055166
C89	C	0.269302	0.624335	0.388499
C90	C	0.602635	0.957669	0.721832
C91	C	-0.060313	-0.071316	-0.054988
C92	C	0.273020	0.262017	0.278345
C93	C	0.606354	0.595350	0.611678
C94	C	-0.059711	-0.130713	-0.054987
C95	C	0.273622	0.202620	0.278346
C96	C	0.606956	0.535953	0.611679
C97	C	-0.059722	-0.130713	0.055184
C98	C	0.273611	0.202620	0.388517
C99	C	0.606944	0.535954	0.721850
C100	C	-0.060328	-0.071315	0.055182
C101	C	0.273006	0.262018	0.388515
C102	C	0.606339	0.595351	0.721849
C103	C	-0.060621	-0.041617	0.000094
C104	C	0.272712	0.291716	0.333427
C105	C	0.606046	0.625049	0.666761
C106	C	-0.065312	0.415733	0.055156
C107	C	0.268021	0.749067	0.388490
C108	C	0.601354	1.082400	0.721823
C109	C	-0.065924	0.475132	0.055149
C110	C	0.267409	0.808466	0.388482
C111	C	0.600742	1.141799	0.721815
C112	C	-0.065911	0.475127	-0.055022
C113	C	0.267423	0.808460	0.278312
C114	C	0.600756	1.141794	0.611645
C115	C	-0.065301	0.415733	-0.055015
C116	C	0.268032	0.749066	0.278319
C117	C	0.601365	1.082400	0.611652
C118	C	-0.065001	0.386038	0.000079
C119	C	0.268333	0.719371	0.333413
C120	C	0.601666	1.052705	0.666746
O121	O	-0.064345	0.321765	-0.101822
O122	O	0.268988	0.655098	0.231512
O123	O	0.602321	0.988431	0.564845
O124	O	-0.064343	0.321726	0.102009
O125	O	0.268990	0.655059	0.435343
O126	O	0.602323	0.988393	0.768676
C127	C	-0.151213	0.667271	0.000093
C128	C	0.182120	1.000605	0.333426
C129	C	0.515453	1.333938	0.666760
C130	C	-0.204869	0.667923	0.000099
C131	C	0.128464	1.001256	0.333433
C132	C	0.461798	1.334589	0.666766
C133	C	-0.543618	0.619965	0.000065
C134	C	-0.210285	0.953298	0.333398
C135	C	0.123049	1.286631	0.666731
C136	C	-0.745281	0.622381	0.000058
C137	C	-0.411947	0.955714	0.333391
C138	C	-0.078614	1.289048	0.666724
O139	O	-0.776476	0.578527	0.000026
O140	O	-0.443143	0.911860	0.333360
O141	O	-0.109809	1.245193	0.666693
N142	N	-0.764477	0.674618	0.000064
N143	N	-0.431143	1.007951	0.333398
N144	N	-0.097810	1.341284	0.666731
C145	C	-0.733253	0.726254	0.000069
C146	C	-0.399920	1.059587	0.333402
C147	C	-0.066587	1.392921	0.666735
O148	O	-0.754208	0.770740	0.000068
O149	O	-0.420874	1.104073	0.333401
O150	O	-0.087541	1.437406	0.666734
C151	C	-0.531591	0.723837	0.000071
C152	C	-0.198258	1.057170	0.333404
C153	C	0.135075	1.390503	0.666738
C154	C	-0.512398	0.671597	0.000071
C155	C	-0.179065	1.004930	0.333404
C156	C	0.154268	1.338263	0.666737
C157	C	-0.524424	0.567729	0.000064
C158	C	-0.191091	0.901062	0.333397
C159	C	0.142242	1.234395	0.666730
C160	C	-0.474012	0.567125	0.000069
C161	C	-0.140678	0.900458	0.333402
C162	C	0.192655	1.233792	0.666735
C163	C	-0.442792	0.618757	0.000075
C164	C	-0.109459	0.952091	0.333408
C165	C	0.223874	1.285424	0.666741
C166	C	-0.461986	0.670993	0.000076
C167	C	-0.128652	1.004326	0.333409
C168	C	0.204681	1.337660	0.666743
C169	C	-0.500369	0.775472	0.000071
C170	C	-0.167036	1.108806	0.333404
C171	C	0.166298	1.442139	0.666738
C172	C	-0.449951	0.774863	0.000070
C173	C	-0.116617	1.108197	0.333404
C174	C	0.216716	1.441530	0.666737
C175	C	-0.430758	0.722623	0.000070
C176	C	-0.097425	1.055957	0.333403
C177	C	0.235909	1.389290	0.666737
C178	C	-0.380353	0.722022	0.000087
C179	C	-0.047020	1.055355	0.333420
C180	C	0.286313	1.388688	0.666754
N181	N	-0.361158	0.669785	0.000080
N182	N	-0.027824	1.003118	0.333414
N183	N	0.305509	1.336452	0.666747
C184	C	-0.392377	0.618153	0.000074
C185	C	-0.059044	0.951486	0.333408
C186	C	0.274290	1.284820	0.666741
C187	C	-0.839129	0.727519	0.000068
C188	C	-0.505796	1.060853	0.333402
C189	C	-0.172462	1.394186	0.666735
C190	C	-0.889544	0.728124	0.000069
C191	C	-0.556211	1.061457	0.333402
C192	C	-0.222878	1.394790	0.666735
C193	C	-0.901568	0.624251	0.000057
C194	C	-0.568235	0.957584	0.333390
C195	C	-0.234902	1.290917	0.666723
C196	C	-0.851152	0.623647	0.000061
C197	C	-0.517819	0.956980	0.333394
C198	C	-0.184486	1.290313	0.666727
C199	C	-0.819933	0.675283	0.000062
C200	C	-0.486600	1.008616	0.333395
C201	C	-0.153267	1.341949	0.666728
C202	C	-0.286506	0.616889	0.000086
C203	C	0.046827	0.950223	0.333419
C204	C	0.380161	1.283556	0.666752
C205	C	-0.236088	0.616290	0.000093
C206	C	0.097245	0.949624	0.333426
C207	C	0.430578	1.282957	0.666760
C208	C	-0.224069	0.720163	0.000102
C209	C	0.109265	1.053496	0.333435
C210	C	0.442598	1.386830	0.666769
C211	C	-0.274482	0.720762	0.000097
C212	C	0.058851	1.054096	0.333431
C213	C	0.392185	1.387429	0.666764
C214	C	-0.305700	0.669121	0.000087
C215	C	0.027633	1.002454	0.333421
C216	C	0.360967	1.335788	0.666754
O217	O	-0.349130	0.765852	0.000111
O218	O	-0.015797	1.099186	0.333445
O219	O	0.317537	1.432519	0.666778
O220	O	-0.371413	0.573673	0.000062
O221	O	-0.038080	0.907007	0.333395
O222	O	0.295254	1.240340	0.666728
C223	C	-0.594031	0.620568	0.000060
C224	C	-0.260697	0.953901	0.333393
C225	C	0.072636	1.287235	0.666726
C226	C	-0.613224	0.672804	0.000061
C227	C	-0.279891	1.006137	0.333394
C228	C	0.053443	1.339471	0.666727
C229	C	-0.582005	0.724436	0.000067
C230	C	-0.248671	1.057769	0.333400
C231	C	0.084662	1.391103	0.666733
C232	C	-0.663639	0.673408	0.000061
C233	C	-0.330306	1.006742	0.333394
C234	C	0.003027	1.340075	0.666728
C235	C	-0.694859	0.621776	0.000055
C236	C	-0.361525	0.955109	0.333388
C237	C	-0.028192	1.288443	0.666722
C238	C	-0.675663	0.569539	0.000048
C239	C	-0.342329	0.902873	0.333382
C240	C	-0.008996	1.236206	0.666715
C241	C	-0.625250	0.568936	0.000054
C242	C	-0.291917	0.902269	0.333387
C243	C	0.041417	1.235603	0.666720
C244	C	-0.601200	0.776673	0.000073
C245	C	-0.267867	1.110006	0.333407
C246	C	0.065466	1.443339	0.666740
C247	C	-0.651614	0.777272	0.000069
C248	C	-0.318280	1.110605	0.333402
C249	C	0.015053	1.443939	0.666736
C250	C	-0.682833	0.725640	0.000063
C251	C	-0.349500	1.058973	0.333396
C252	C	-0.016166	1.392307	0.666729
C253	C	0.025580	0.677143	0.000073
C254	C	0.358914	1.010476	0.333406
C255	C	0.692247	1.343809	0.666739
C256	C	0.079236	0.676491	0.000063
C257	C	0.412570	1.009825	0.333396
C258	C	0.745903	1.343158	0.666729
C259	C	-0.058771	0.776366	0.000094
C260	C	0.274562	1.109699	0.333427
C261	C	0.607896	1.443033	0.666760
C262	C	-0.059411	0.839583	0.000097
C263	C	0.273922	1.172917	0.333430
C264	C	0.607256	1.506250	0.666764
N265	N	-0.062832	0.672188	0.143888
N266	N	0.270501	1.005522	0.477221
N267	N	0.603835	1.338855	0.810555
N268	N	-0.062797	0.672230	-0.143721
N269	N	0.270536	1.005563	0.189613
N270	N	0.603870	1.338897	0.522946
C271	C	-0.029760	0.711227	0.563668
C272	C	0.303573	1.044560	0.897001
C273	C	0.636906	1.377894	1.230335
C274	C	-0.029757	0.711230	0.627276
C275	C	0.303576	1.044563	0.960609
C276	C	0.636910	1.377896	1.293942
O277	O	-0.001645	0.744399	0.660168
O278	O	0.331689	1.077732	0.993501
O279	O	0.665022	1.411066	1.326834
N280	N	-0.062800	0.672216	0.659095
N281	N	0.270534	1.005550	0.992428
N282	N	0.603867	1.338883	1.325762
C283	C	-0.095844	0.633194	0.627304
C284	C	0.237489	0.966527	0.960637
C285	C	0.570822	1.299860	1.293970
O286	O	-0.123949	0.600009	0.660209
O287	O	0.209384	0.933343	0.993543
O288	O	0.542717	1.266676	1.326876
C289	C	-0.095845	0.633189	0.563697
C290	C	0.237488	0.966522	0.897031
C291	C	0.570822	1.299855	1.230364
C292	C	-0.062804	0.672209	0.531881
C293	C	0.270530	1.005542	0.865214
C294	C	0.603863	1.338875	1.198548
C295	C	0.003279	0.750243	0.531852
C296	C	0.336612	1.083577	0.865185
C297	C	0.669946	1.416910	1.198518
C298	C	0.003275	0.750241	0.468249
C299	C	0.336608	1.083575	0.801582
C300	C	0.669942	1.416908	1.134915
C301	C	-0.029768	0.711223	0.436462
C302	C	0.303565	1.044556	0.769795
C303	C	0.636898	1.377890	1.103128
C304	C	-0.062808	0.672206	0.468278
C305	C	0.270526	1.005540	0.801611
C306	C	0.603859	1.338873	1.134944
C307	C	-0.128887	0.594164	0.531907
C308	C	0.204446	0.927497	0.865240
C309	C	0.537779	1.260830	1.198574
C310	C	-0.128885	0.594162	0.468296
C311	C	0.204449	0.927495	0.801629
C312	C	0.537782	1.260829	1.134963
C313	C	-0.095843	0.633182	0.436480
C314	C	0.237490	0.966515	0.769813
C315	C	0.570823	1.299849	1.103147
C316	C	-0.095855	0.633186	0.372888
C317	C	0.237478	0.966519	0.706221
C318	C	0.570812	1.299853	1.039554
N319	N	-0.062812	0.672199	0.341068
N320	N	0.270521	1.005533	0.674401
N321	N	0.603854	1.338866	1.007735
C322	C	-0.029769	0.711218	0.372855
C323	C	0.303564	1.044551	0.706188
C324	C	0.636898	1.377885	1.039522
C325	C	-0.095840	0.633206	0.760881
C326	C	0.237493	0.966540	1.094215
C327	C	0.570827	1.299873	1.427548
C328	C	-0.095842	0.633213	0.824487
C329	C	0.237491	0.966547	1.157820
C330	C	0.570825	1.299880	1.491153
C331	C	-0.029754	0.711249	0.824454
C332	C	0.303579	1.044582	1.157788
C333	C	0.636913	1.377916	1.491121
C334	C	-0.029754	0.711244	0.760848
C335	C	0.303579	1.044577	1.094181
C336	C	0.636912	1.377911	1.427515
C337	C	-0.062797	0.672220	0.729062
C338	C	0.270536	1.005553	1.062395
C339	C	0.603869	1.338886	1.395729
C340	C	-0.029780	0.711211	0.239284
C341	C	0.303553	1.044544	0.572617
C342	C	0.636886	1.377878	0.905950
C343	C	-0.029789	0.711207	0.175675
C344	C	0.303545	1.044540	0.509008
C345	C	0.636878	1.377874	0.842342
C346	C	-0.095875	0.633170	0.175713
C347	C	0.237458	0.966503	0.509046
C348	C	0.570792	1.299836	0.842380
C349	C	-0.095869	0.633175	0.239316
C350	C	0.237465	0.966509	0.572650
C351	C	0.570798	1.299842	0.905983
C352	C	-0.062817	0.672198	0.271100
C353	C	0.270516	1.005531	0.604433
C354	C	0.603849	1.338865	0.937767
O355	O	-0.123952	0.600032	0.339955
O356	O	0.209382	0.933365	0.673289
O357	O	0.542715	1.266699	1.006622
O358	O	-0.001665	0.744392	0.339942
O359	O	0.331669	1.077725	0.673275
O360	O	0.665002	1.411058	1.006608
H361	H	-0.059464	-0.154888	-0.099844
H362	H	0.273869	0.178446	0.233489
H363	H	0.607203	0.511779	0.566823
H364	H	-0.002848	0.743019	0.850347
H365	H	0.330486	1.076353	1.183680
H366	H	0.663819	1.409686	1.517013
H367	H	-0.002882	0.742984	0.149772
H368	H	0.330451	1.076317	0.483105
H369	H	0.663784	1.409650	0.816439
C370	C	-0.165238	0.551246	0.566891
C371	C	0.168096	0.884579	0.900224
C372	C	0.501429	1.217912	1.233558
H373	H	-0.184912	0.528009	0.538841
H374	H	0.148422	0.861342	0.872175
H375	H	0.481755	1.194675	1.205508
H376	H	-0.185270	0.571554	0.591705
H377	H	0.148063	0.904888	0.925038
H378	H	0.481396	1.238221	1.258372
H379	H	-0.147957	0.527688	0.591702
H380	H	0.185377	0.861021	0.925036
H381	H	0.518710	1.194355	1.258369
H382	H	-0.155792	0.562382	0.442419
H383	H	0.177541	0.895715	0.775752
H384	H	0.510875	1.229048	1.109086
C385	C	-0.910654	0.785586	0.000080
C386	C	-0.577320	1.118919	0.333413
C387	C	-0.243987	1.452253	0.666746
H388	H	-0.945151	0.778557	0.000084
H389	H	-0.611817	1.111890	0.333417
H390	H	-0.278484	1.445223	0.666751
H391	H	-0.899912	0.806833	-0.035156
H392	H	-0.566579	1.140166	0.298178
H393	H	-0.233246	1.473499	0.631511
H394	H	-0.899925	0.806817	0.035326
H395	H	-0.566591	1.140150	0.368659
H396	H	-0.233258	1.473484	0.701992
H397	H	-0.575786	0.818719	0.000078
H398	H	-0.242453	1.152052	0.333411
H399	H	0.090881	1.485386	0.666744
C400	C	-0.063413	0.234591	-0.170679
C401	C	0.269921	0.567924	0.162655
C402	C	0.603254	0.901258	0.495988
H403	H	-0.063817	0.274220	-0.162795
H404	H	0.269517	0.607553	0.170538
H405	H	0.602850	0.940887	0.503871
H406	H	-0.091501	0.220260	-0.193311
H407	H	0.241832	0.553593	0.140022
H408	H	0.575166	0.886927	0.473356
H409	H	-0.035113	0.229452	-0.193310
H410	H	0.298220	0.562786	0.140023
H411	H	0.631553	0.896119	0.473356
H412	H	-0.311918	0.574838	0.000077
H413	H	0.021415	0.908171	0.333410
H414	H	0.354748	1.241504	0.666744
C415	C	-0.060646	-0.038655	-0.115589
C416	C	0.272688	0.294678	0.217744
C417	C	0.606021	0.628012	0.551078
H418	H	-0.060380	-0.064855	-0.148390
H419	H	0.272953	0.268479	0.184944
H420	H	0.606286	0.601812	0.518277
H421	H	-0.032691	-0.010888	-0.117890
H422	H	0.300642	0.322445	0.215443
H423	H	0.633975	0.655778	0.548776
H424	H	-0.089079	-0.020082	-0.117876
H425	H	0.244254	0.313252	0.215457
H426	H	0.577588	0.646585	0.548790
C427	C	0.006573	0.754137	0.274237
C428	C	0.339907	1.087470	0.607571
C429	C	0.673240	1.420804	0.940904
H430	H	0.026244	0.777374	0.246172
H431	H	0.359578	1.110707	0.579505
H432	H	0.692911	1.444040	0.912838
H433	H	0.026609	0.733836	0.299046
H434	H	0.359942	1.067169	0.632379
H435	H	0.693276	1.400502	0.965713
H436	H	-0.010711	0.777695	0.299052
H437	H	0.322622	1.111028	0.632385
H438	H	0.655956	1.444362	0.965718
H439	H	-0.059479	-0.154904	0.100036
H440	H	0.273854	0.178429	0.433369
H441	H	0.607188	0.511763	0.766703
H442	H	-0.122753	0.601446	0.850387
H443	H	0.210581	0.934779	1.183720
H444	H	0.543914	1.268112	1.517054
C445	C	-0.064973	0.383064	-0.115607
C446	C	0.268360	0.716398	0.217726
C447	C	0.601694	1.049731	0.551060
H448	H	-0.065239	0.409261	-0.148413
H449	H	0.268094	0.742594	0.184920
H450	H	0.601427	1.075927	0.518254
H451	H	-0.092928	0.355299	-0.117886
H452	H	0.240405	0.688632	0.215447
H453	H	0.573739	1.021965	0.548781
H454	H	-0.036540	0.364489	-0.117908
H455	H	0.296793	0.697823	0.215425
H456	H	0.630126	1.031156	0.548759
H457	H	-0.458390	0.524586	0.000063
H458	H	-0.125057	0.857919	0.333396
H459	H	0.208277	1.191253	0.666730
H460	H	-0.122751	0.601429	0.735004
H461	H	0.210582	0.934763	1.068338
H462	H	0.543915	1.268096	1.401671
H463	H	-0.424534	0.816913	0.000068
H464	H	-0.091201	1.150246	0.333401
H465	H	0.242133	1.483579	0.666734
H466	H	-0.002849	0.743017	0.734947
H467	H	0.330484	1.076350	1.068280
H468	H	0.663818	1.409684	1.401613
C469	C	-0.604144	0.511471	0.000046
C470	C	-0.270811	0.844805	0.333379
C471	C	0.062522	1.178138	0.666713
H472	H	-0.629963	0.480812	0.000036
H473	H	-0.296630	0.814145	0.333369
H474	H	0.036703	1.147479	0.666703
H475	H	-0.584734	0.509064	0.035284
H476	H	-0.251401	0.842398	0.368617
H477	H	0.081932	1.175731	0.701950
H478	H	-0.584722	0.509081	-0.035198
H479	H	-0.251389	0.842414	0.298136
H480	H	0.081944	1.175748	0.631469
C481	C	-0.521470	0.832937	0.000063
C482	C	-0.188137	1.166271	0.333396
C483	C	0.145197	1.499604	0.666730
H484	H	-0.495650	0.863596	0.000057
H485	H	-0.162317	1.196929	0.333391
H486	H	0.171017	1.530262	0.666724
H487	H	-0.540896	0.835339	0.035298
H488	H	-0.207562	1.168673	0.368631
H489	H	0.125771	1.502006	0.701964
H490	H	-0.540876	0.835335	-0.035184
H491	H	-0.207543	1.168668	0.298149
H492	H	0.125791	1.502001	0.631483
C493	C	-0.935916	0.567456	0.000042
C494	C	-0.602582	0.900790	0.333375
C495	C	-0.269249	1.234123	0.666708
H496	H	-0.968689	0.575303	0.000036
H497	H	-0.635355	0.908636	0.333369
H498	H	-0.302022	1.241970	0.666703
H499	H	-0.930137	0.546003	0.035273
H500	H	-0.596804	0.879336	0.368606
H501	H	-0.263470	1.212669	0.701940
H502	H	-0.930117	0.546031	-0.035208
H503	H	-0.596784	0.879364	0.298125
H504	H	-0.263451	1.212698	0.631458
C505	C	-0.295595	0.778224	0.000105
C506	C	0.037738	1.111558	0.333438
C507	C	0.371071	1.444891	0.666772
H508	H	-0.269780	0.808888	0.000108
H509	H	0.063554	1.142221	0.333442
H510	H	0.396887	1.475554	0.666775
H511	H	-0.315023	0.780614	0.035340
H512	H	0.018310	1.113948	0.368673
H513	H	0.351643	1.447281	0.702006
H514	H	-0.315001	0.780625	-0.035142
H515	H	0.018333	1.113959	0.298192
H516	H	0.351666	1.447292	0.631525
C517	C	-0.132195	0.590233	0.274315
C518	C	0.201139	0.923567	0.607649
C519	C	0.534472	1.256900	0.940982
H520	H	-0.151867	0.566987	0.246272
H521	H	0.181466	0.900320	0.579605
H522	H	0.514800	1.233653	0.912938
H523	H	-0.152233	0.610514	0.299152
H524	H	0.181101	0.943847	0.632486
H525	H	0.514434	1.277180	0.965819
H526	H	-0.114884	0.566688	0.299105
H527	H	0.218449	0.900021	0.632438
H528	H	0.551782	1.233355	0.965771
C529	C	-0.062128	0.109872	-0.170681
C530	C	0.271205	0.443206	0.162652
C531	C	0.604538	0.776539	0.495986
H532	H	-0.062384	0.136076	-0.203482
H533	H	0.270949	0.469409	0.129852
H534	H	0.604283	0.802743	0.463185
H535	H	-0.090079	0.082102	-0.172984
H536	H	0.243254	0.415436	0.160349
H537	H	0.576587	0.748769	0.493682
H538	H	-0.033692	0.091304	-0.172967
H539	H	0.299642	0.424637	0.160367
H540	H	0.632975	0.757970	0.493700
C541	C	-0.710010	0.512746	0.000038
C542	C	-0.376677	0.846079	0.333371
C543	C	-0.043344	1.179412	0.666704
H544	H	-0.742783	0.520593	0.000030
H545	H	-0.409450	0.853926	0.333363
H546	H	-0.076117	1.187259	0.666697
H547	H	-0.704232	0.491296	0.035272
H548	H	-0.370899	0.824629	0.368605
H549	H	-0.037566	1.157962	0.701939
H550	H	-0.704212	0.491316	-0.035209
H551	H	-0.370879	0.824650	0.298124
H552	H	-0.037545	1.157983	0.631457
C553	C	-0.066233	0.507804	-0.115609
C554	C	0.267100	0.841137	0.217724
C555	C	0.600433	1.174470	0.551057
H556	H	-0.066635	0.547431	-0.107716
H557	H	0.266698	0.880765	0.225617
H558	H	0.600032	1.214098	0.558950
H559	H	-0.094320	0.493480	-0.138248
H560	H	0.239013	0.826814	0.195085
H561	H	0.572346	1.160147	0.528419
H562	H	-0.037933	0.502667	-0.138239
H563	H	0.295401	0.836000	0.195095
H564	H	0.628734	1.169333	0.528428
H565	H	0.030181	0.782013	0.442347
H566	H	0.363515	1.115346	0.775681
H567	H	0.696848	1.448680	1.109014
H568	H	-0.220465	0.573748	0.000096
H569	H	0.112869	0.907082	0.333429
H570	H	0.446202	1.240415	0.666762
C571	C	-0.672720	0.834740	0.000068
C572	C	-0.339387	1.168073	0.333401
C573	C	-0.006053	1.501407	0.666735
H574	H	-0.646902	0.865401	0.000066
H575	H	-0.313569	1.198734	0.333399
H576	H	0.019764	1.532068	0.666733
H577	H	-0.692147	0.837137	0.035302
H578	H	-0.358814	1.170471	0.368635
H579	H	-0.025481	1.503804	0.701969
H580	H	-0.692125	0.837138	-0.035179
H581	H	-0.358792	1.170471	0.298154
H582	H	-0.025459	1.503805	0.631487
C583	C	-0.132216	0.590249	0.140739
C584	C	0.201117	0.923582	0.474073
C585	C	0.534450	1.256915	0.807406
H586	H	-0.127479	0.595834	0.098302
H587	H	0.205854	0.929167	0.431635
H588	H	0.539188	1.262501	0.764968
H589	H	-0.164453	0.596139	0.151167
H590	H	0.168880	0.929472	0.484500
H591	H	0.502214	1.262806	0.817834
H592	H	-0.127127	0.552287	0.151165
H593	H	0.206206	0.885620	0.484498
H594	H	0.539540	1.218953	0.817832
H595	H	0.030189	0.782017	0.557727
H596	H	0.363522	1.115350	0.891060
H597	H	0.696856	1.448684	1.224394
C598	C	-0.804794	0.784322	0.000078
C599	C	-0.471461	1.117656	0.333411
C600	C	-0.138127	1.450989	0.666744
H601	H	-0.823451	0.815515	0.000088
H602	H	-0.490118	1.148848	0.333422
H603	H	-0.156785	1.482181	0.666755
H604	H	-0.784868	0.786260	-0.035159
H605	H	-0.451535	1.119593	0.298174
H606	H	-0.118201	1.452927	0.631508
H607	H	-0.784886	0.786240	0.035322
H608	H	-0.451552	1.119574	0.368656
H609	H	-0.118219	1.452907	0.701989
C610	C	-0.189724	0.776955	0.000105
C611	C	0.143610	1.110289	0.333439
C612	C	0.476943	1.443622	0.666772
H613	H	-0.208372	0.808156	0.000109
H614	H	0.124962	1.141489	0.333442
H615	H	0.458295	1.474823	0.666776
H616	H	-0.169800	0.778877	-0.035133
H617	H	0.163533	1.112211	0.298201
H618	H	0.496867	1.445544	0.631534
H619	H	-0.169814	0.778874	0.035349
H620	H	0.163520	1.112207	0.368682
H621	H	0.496853	1.445540	0.702015
C622	C	-0.066267	0.507797	0.115744
C623	C	0.267066	0.841130	0.449077
C624	C	0.600399	1.174463	0.782411
H625	H	-0.066677	0.547425	0.107857
H626	H	0.266656	0.880758	0.441191
H627	H	0.599989	1.214091	0.774524
H628	H	-0.037978	0.502657	0.138375
H629	H	0.295355	0.835990	0.471708
H630	H	0.628689	1.169324	0.805042
H631	H	-0.094366	0.493463	0.138378
H632	H	0.238967	0.826797	0.471711
H633	H	0.572301	1.160130	0.805045
C634	C	-0.063470	0.234564	0.170846
C635	C	0.269863	0.567897	0.504180
C636	C	0.603196	0.901230	0.837513
H637	H	-0.063202	0.208363	0.203648
H638	H	0.270131	0.541696	0.536981
H639	H	0.603464	0.875030	0.870315
H640	H	-0.091900	0.253140	0.173143
H641	H	0.241434	0.586473	0.506476
H642	H	0.574767	0.919807	0.839810
H643	H	-0.035512	0.262329	0.173137
H644	H	0.297822	0.595662	0.506470
H645	H	0.631155	0.928995	0.839804
C646	C	-0.064987	0.383076	0.115758
C647	C	0.268347	0.716410	0.449091
C648	C	0.601680	1.049743	0.782424
H649	H	-0.065265	0.409275	0.148558
H650	H	0.268068	0.742608	0.481891
H651	H	0.601402	1.075941	0.815224
H652	H	-0.036559	0.364499	0.118055
H653	H	0.296775	0.697833	0.451388
H654	H	0.630108	1.031166	0.784722
H655	H	-0.092947	0.355312	0.118051
H656	H	0.240387	0.688645	0.451384
H657	H	0.573720	1.021979	0.784718
C658	C	-0.062326	0.109828	0.170850
C659	C	0.271007	0.443162	0.504183
C660	C	0.604341	0.776495	0.837516
H661	H	-0.061959	0.070192	0.162972
H662	H	0.271375	0.403526	0.496306
H663	H	0.604708	0.736859	0.829639
H664	H	-0.090662	0.115026	0.193374
H665	H	0.242672	0.448359	0.526707
H666	H	0.576005	0.781692	0.860041
H667	H	-0.034273	0.124095	0.193586
H668	H	0.299060	0.457429	0.526919
H669	H	0.632394	0.790762	0.860253
C670	C	-0.830044	0.566184	0.000051
C671	C	-0.496711	0.899517	0.333385
C672	C	-0.163378	1.232850	0.666718
H673	H	-0.855862	0.535523	0.000044
H674	H	-0.522529	0.868856	0.333377
H675	H	-0.189196	1.202189	0.666710
H676	H	-0.810632	0.563778	0.035287
H677	H	-0.477298	0.897111	0.368620
H678	H	-0.143965	1.230444	0.701953
H679	H	-0.810625	0.563794	-0.035195
H680	H	-0.477291	0.897128	0.298139
H681	H	-0.143958	1.230461	0.631472
C682	C	-0.060659	-0.038654	0.115776
C683	C	0.272674	0.294679	0.449109
C684	C	0.606007	0.628013	0.782442
H685	H	-0.060391	-0.064853	0.148579
H686	H	0.272943	0.268481	0.481912
H687	H	0.606276	0.601814	0.815246
H688	H	-0.089084	-0.020070	0.118078
H689	H	0.244249	0.313263	0.451411
H690	H	0.577582	0.646596	0.784744
H691	H	-0.032696	-0.010895	0.118058
H692	H	0.300637	0.322439	0.451391
H693	H	0.633970	0.655772	0.784725
H694	H	-0.549839	0.525681	0.000057
H695	H	-0.216506	0.859014	0.333390
H696	H	0.116828	1.192348	0.666723
