data_functionalizedCrystal
_audit_creation_method	'MofGen! by Chris Wilmer'
_symmetry_space_group_name_H-M	'P1'
_symmetry_Int_Tables_number	1
_symmetry_cell_setting	triclinic
loop_
_symmetry_equiv_pos_as_xyz
  x,y,z
_cell_length_a	19.188931
_cell_length_b	14.519709
_cell_length_c	13.596369
_cell_angle_alpha	90.006934
_cell_angle_beta	89.996202
_cell_angle_gamma	96.587537
loop_
_atom_site_label
_atom_site_type_symbol
_atom_site_fract_x
_atom_site_fract_y
_atom_site_fract_z
O1	O	0.926555	-0.115137	-0.081758
O2	O	0.723299	-0.130636	-0.081768
O3	O	0.830316	0.011385	-0.081754
O4	O	0.819538	-0.257158	-0.081772
O5	O	0.830306	0.011393	0.081829
O6	O	0.723289	-0.130629	0.081815
O7	O	0.926545	-0.115130	0.081825
Zn8	Zn	0.824915	-0.122878	0.107792
Zn9	Zn	0.824929	-0.122888	-0.107735
O10	O	0.819528	-0.257151	0.081811
C11	C	0.697281	-0.130130	0.000022
C12	C	0.619771	-0.128624	0.000019
C13	C	0.829809	0.045746	0.000038
C14	C	0.828304	0.148118	0.000038
C15	C	0.952563	-0.115635	0.000032
C16	C	1.030073	-0.117142	0.000030
C17	C	1.074700	-0.033808	0.000027
C18	C	1.147529	-0.035224	0.000033
C19	C	1.175727	-0.119978	0.000021
C20	C	1.131090	-0.203322	0.000030
C21	C	1.058263	-0.201904	0.000034
N22	N	1.283956	-0.184764	-0.055670
N23	N	1.353140	-0.186105	-0.055676
C24	C	1.395151	-0.124255	0.000011
N25	N	1.365367	-0.060998	0.055692
N26	N	1.296177	-0.059654	0.055694
C27	C	1.254695	-0.121524	0.000018
C28	C	1.518748	-0.042450	0.000016
C29	C	1.591578	-0.043869	0.000028
C30	C	1.575138	-0.211970	0.000015
C31	C	1.502309	-0.210549	0.000013
C32	C	1.474119	-0.125786	0.000009
C33	C	0.820035	-0.291511	0.000017
C34	C	0.821541	-0.393883	0.000010
N35	N	0.824910	-0.122871	0.254884
C36	C	0.822762	0.522979	0.000012
C37	C	0.824301	0.418681	0.000020
C38	C	0.825533	0.335552	0.000026
C39	C	0.827072	0.231247	0.000032
N40	N	0.824939	-0.122888	-0.254827
C41	C	0.824928	-0.122889	0.656175
C42	C	0.824921	-0.122887	0.544524
C43	C	0.824920	-0.122880	0.455533
C44	C	0.824912	-0.122877	0.343875
H45	H	1.051753	0.035212	0.000027
H46	H	1.183871	0.032639	0.000027
C47	C	1.453214	-0.302218	0.000001
C48	C	1.373107	-0.300663	0.000005
C49	C	1.324011	-0.392337	-0.000005
C50	C	1.355023	-0.485567	-0.000019
C51	C	1.435135	-0.487126	-0.000022
C52	C	1.484231	-0.395452	-0.000012
H53	H	1.350146	-0.231645	0.000014
H54	H	1.264707	-0.391182	-0.000003
H55	H	1.318680	-0.553430	-0.000026
H56	H	1.458096	-0.556144	-0.000032
H57	H	1.543535	-0.396607	-0.000015
C58	C	1.162106	-0.296552	0.000013
C59	C	1.209916	-0.320638	0.084947
C60	C	1.240931	-0.413871	0.084935
C61	C	1.224135	-0.483019	-0.000012
C62	C	1.176322	-0.458935	-0.084953
C63	C	1.145308	-0.365702	-0.084940
H64	H	1.222351	-0.269449	0.147836
H65	H	1.276325	-0.431699	0.147814
H66	H	1.247094	-0.552036	-0.000021
H67	H	1.163887	-0.510124	-0.147842
H68	H	1.109913	-0.347874	-0.147820
H69	H	1.021927	-0.269767	0.000037
H70	H	1.598096	-0.280978	0.000013
C71	C	1.487733	0.050784	0.000030
C72	C	1.536826	0.142454	0.000048
C73	C	1.505813	0.235689	0.000066
C74	C	1.425707	0.237253	0.000065
C75	C	1.376608	0.145580	0.000048
C76	C	1.407621	0.052345	0.000030
H77	H	1.596130	0.141299	0.000048
H78	H	1.542160	0.303551	0.000079
H79	H	1.402749	0.306271	0.000078
H80	H	1.317304	0.146735	0.000048
H81	H	1.371275	-0.015518	0.000017
C82	C	1.640670	0.047806	0.000025
C83	C	1.637432	0.117353	0.084964
C84	C	1.686524	0.209030	0.084959
C85	C	1.738856	0.231159	0.000016
C86	C	1.742097	0.161610	-0.084929
C87	C	1.693004	0.069933	-0.084925
H88	H	1.598691	0.100973	0.147850
H89	H	1.684125	0.260514	0.147842
H90	H	1.775198	0.299023	0.000013
H91	H	1.780838	0.177989	-0.147815
H92	H	1.695404	0.018448	-0.147808
