data_functionalizedCrystal
_audit_creation_method	'MofGen! by Chris Wilmer'
_symmetry_space_group_name_H-M	'P1'
_symmetry_Int_Tables_number	1
_symmetry_cell_setting	triclinic
loop_
_symmetry_equiv_pos_as_xyz
  x,y,z
_cell_length_a	15.995350
_cell_length_b	16.109301
_cell_length_c	15.186229
_cell_angle_alpha	90.005167
_cell_angle_beta	90.000289
_cell_angle_gamma	96.523072
loop_
_atom_site_label
_atom_site_type_symbol
_atom_site_fract_x
_atom_site_fract_y
_atom_site_fract_z
O1	O	1.110955	-0.107165	-0.073157
O2	O	0.867176	-0.120399	-0.073175
O3	O	0.995762	0.007247	-0.073157
O4	O	0.982369	-0.234811	-0.073176
O5	O	0.995754	0.007249	0.073301
O6	O	0.867168	-0.120397	0.073282
O7	O	1.110946	-0.107164	0.073300
Zn8	Zn	0.989056	-0.113780	0.096544
Zn9	Zn	0.989067	-0.113783	-0.096419
O10	O	0.982360	-0.234810	0.073282
C11	C	0.835977	-0.119851	0.000051
C12	C	0.743027	-0.118211	0.000044
C13	C	0.995216	0.038223	0.000072
C14	C	0.993589	0.130519	0.000074
N15	N	0.989054	-0.113778	0.228237
C16	C	0.405281	-0.112320	0.000063
C17	C	0.452740	-0.021413	0.000397
C18	C	0.549430	-0.023054	0.000061
C19	C	0.572841	-0.115242	0.000054
C20	C	0.531747	-0.160082	-0.083580
C21	C	0.435112	-0.157798	-0.083644
C22	C	0.434762	-0.159674	0.082906
C23	C	0.531708	-0.159653	0.084005
C24	C	0.667538	-0.116898	0.000046
C25	C	0.310584	-0.110667	0.000065
C26	C	1.142145	-0.107712	0.000072
C27	C	1.235095	-0.109352	0.000073
C28	C	0.982907	-0.265786	0.000051
C29	C	0.984534	-0.358081	0.000044
C30	C	1.066107	0.352771	0.000065
C31	C	1.064573	0.439492	0.000058
C32	C	0.912009	0.419659	0.000050
C33	C	0.913545	0.332940	0.000051
C34	C	0.990597	0.299499	0.000063
C35	C	0.987526	0.472939	0.000055
C36	C	0.985861	0.566965	0.000047
C37	C	0.992262	0.205466	0.000069
N38	N	0.989075	-0.113778	-0.228112
C39	C	1.046011	-0.057275	0.453968
C40	C	1.046014	-0.057273	0.546158
C41	C	0.932112	-0.170283	0.546150
C42	C	0.932106	-0.170281	0.453962
C43	C	0.989060	-0.113778	0.407874
C44	C	0.989069	-0.113778	0.592251
C45	C	0.989071	-0.113777	0.692208
C46	C	0.989057	-0.113778	0.307911
H47	H	0.577865	0.012192	0.060014
H48	H	1.126061	0.482864	0.000058
H49	H	1.128848	0.325547	0.000073
H50	H	0.402845	-0.224541	-0.087444
C51	C	0.568587	-0.115407	0.167593
N52	N	0.596362	-0.082075	0.230550
C53	C	0.869464	-0.232432	0.596857
N54	N	0.822275	-0.279243	0.635048
C55	C	1.108656	0.004886	0.403274
N56	N	1.155840	0.051711	0.365094
H57	H	0.849277	0.446898	0.000041
H58	H	0.434225	0.014925	0.060375
H59	H	0.545853	-0.227810	-0.086694
H60	H	0.414231	-0.129954	0.146298
C61	C	0.391826	-0.250221	0.083666
N62	N	0.359482	-0.318417	0.084233
C63	C	0.830473	0.274336	0.000044
N64	N	0.767905	0.230195	0.000036
C65	C	0.869490	-0.232479	0.403256
N66	N	0.822342	-0.279336	0.365063
C67	C	0.570088	-0.118006	-0.167662
N68	N	0.598965	-0.086310	-0.230992
H69	H	0.433160	0.014756	-0.059244
C70	C	0.587086	0.024878	-0.081070
N71	N	0.615447	0.060982	-0.142182
C72	C	0.410394	-0.113617	-0.168092
N73	N	0.391781	-0.080334	-0.231699
C74	C	1.108658	0.004890	0.596858
N75	N	1.155842	0.051718	0.635044
C76	C	0.552453	-0.250469	0.090834
N77	N	0.568084	-0.318874	0.095976
