data_functionalizedCrystal
_audit_creation_method	'MofGen! by Chris Wilmer'
_symmetry_space_group_name_H-M	'P1'
_symmetry_Int_Tables_number	1
_symmetry_cell_setting	triclinic
loop_
_symmetry_equiv_pos_as_xyz
  x,y,z
_cell_length_a	12.827893
_cell_length_b	13.032721
_cell_length_c	12.827885
_cell_angle_alpha	82.850965
_cell_angle_beta	90.019272
_cell_angle_gamma	97.204267
loop_
_atom_site_label
_atom_site_type_symbol
_atom_site_fract_x
_atom_site_fract_y
_atom_site_fract_z
Zn1	Zn	1.544798	-0.415987	0.643644
Zn2	Zn	2.044798	0.084013	1.143644
Zn3	Zn	1.522478	-0.590766	0.491086
Zn4	Zn	2.022478	-0.090766	0.991086
Zn5	Zn	1.370033	-0.416038	0.468924
Zn6	Zn	1.870033	0.083962	0.968924
Zn7	Zn	1.347821	-0.590688	0.665776
Zn8	Zn	1.847821	-0.090688	1.165776
O9	O	1.446282	-0.503370	0.567357
O10	O	1.946282	-0.003370	1.067357
O11	O	1.688072	-0.439183	0.623419
O12	O	2.188072	0.060817	1.123419
O13	O	1.502211	-0.567642	0.341917
O14	O	2.002211	-0.067642	0.841917
O15	O	1.411853	-0.269794	0.473563
O16	O	1.911853	0.230206	0.973563
O17	O	1.671673	-0.567593	0.511336
O18	O	2.171673	-0.067593	1.011336
O19	O	1.540252	-0.269756	0.601929
O20	O	2.040252	0.230244	1.101929
O21	O	1.390210	-0.439270	0.325634
O22	O	1.890210	0.060730	0.825634
O23	O	1.220852	-0.439194	0.495024
O24	O	1.720852	0.060806	0.995024
O25	O	1.373995	-0.567460	0.809070
O26	O	1.873995	-0.067460	1.309070
O27	O	1.204532	-0.567509	0.639651
O28	O	1.704532	-0.067509	1.139651
O29	O	1.518714	-0.439108	0.792809
O30	O	2.018714	0.060892	1.292809
O31	O	1.480672	-0.736993	0.532797
O32	O	1.980672	-0.236993	1.032797
O33	O	1.352352	-0.736936	0.661141
O34	O	1.852352	-0.236936	1.161141
C35	C	1.174775	-0.503350	0.567335
C36	C	1.674775	-0.003350	1.067335
C37	C	1.058620	-0.503366	0.567353
C38	C	1.558620	-0.003366	1.067353
C39	C	0.998775	-0.566960	0.638834
C40	C	1.498775	-0.066960	1.138834
C41	C	0.878722	-0.566978	0.638854
C42	C	1.378722	-0.066978	1.138854
C43	C	1.411708	-0.774882	0.601798
C44	C	1.911708	-0.274882	1.101798
C45	C	1.397013	-0.891037	0.616567
C46	C	1.897013	-0.391037	1.116567
C47	C	1.454008	-0.942815	0.559696
C48	C	1.954008	-0.442815	1.059696
C49	C	1.438821	-1.062867	0.574959
C50	C	1.938821	-0.562867	1.074959
C51	C	1.718850	-0.503391	0.567381
C52	C	2.218850	-0.003391	1.067381
C53	C	1.835002	-0.503400	0.567391
C54	C	2.335002	-0.003400	1.067391
C55	C	1.446366	-0.503270	0.839915
C56	C	1.946366	-0.003270	1.339915
C57	C	1.446402	-0.503227	0.956063
C58	C	1.946402	-0.003227	1.456063
C59	C	1.481020	-0.230797	0.532805
C60	C	1.981020	0.269203	1.032805
C61	C	1.495823	-0.114643	0.518081
C62	C	1.995823	0.385357	1.018081
C63	C	1.446269	-0.503394	0.295851
C64	C	1.946269	-0.003394	0.795851
C65	C	1.446473	-0.503143	0.179666
C66	C	1.946473	-0.003143	0.679666
C67	C	1.518022	-0.439702	0.999800
C68	C	2.018022	0.060298	1.499800
C69	C	1.518061	-0.439656	1.119844
C70	C	2.018061	0.060344	1.619844
H71	H	1.036418	-0.621387	0.700019
H72	H	1.536418	-0.121387	1.200019
H73	H	1.514051	-0.898270	0.499712
H74	H	2.014051	-0.398270	0.999712
O75	O	0.810605	-0.639100	0.719928
O76	O	1.310605	-0.139100	1.219928
H77	H	0.727002	-0.627790	0.707227
H78	H	1.227002	-0.127790	1.207227
H79	H	1.336978	-0.935584	0.676559
H80	H	1.836978	-0.435584	1.176559
O81	O	1.359275	-1.121856	0.654421
O82	O	1.859275	-0.621856	1.154421
H83	H	1.359819	-1.206891	0.653930
H84	H	1.859819	-0.706891	1.153930
H85	H	1.555870	-1.070100	0.458092
H86	H	2.055870	-0.570100	0.958092
H87	H	0.886429	-0.448956	0.506187
H88	H	1.386429	0.051044	1.006187
H89	H	1.579380	-0.385273	1.157488
H90	H	2.079380	0.114727	1.657488
O91	O	1.599218	-0.367706	0.931694
O92	O	2.099218	0.132294	1.431694
H93	H	1.586453	-0.379048	0.848094
H94	H	2.086453	0.120952	1.348094
O95	O	1.008758	-0.431281	0.486296
O96	O	1.508758	0.068719	0.986296
H97	H	0.965788	-0.378226	0.526467
H98	H	1.465788	0.121774	1.026467
O99	O	1.365227	-0.575185	1.129832
O100	O	1.865227	-0.075185	1.629832
H101	H	1.405240	-0.628335	1.086835
H102	H	1.905240	-0.128335	1.586835
O103	O	1.365208	-0.575220	1.024174
O104	O	1.865208	-0.075220	1.524174
H105	H	1.372639	-0.657267	1.013686
H106	H	1.872639	-0.157267	1.513686
