data_functionalizedCrystal
_audit_creation_method	'MofGen! by Chris Wilmer'
_symmetry_space_group_name_H-M	'P1'
_symmetry_Int_Tables_number	1
_symmetry_cell_setting	triclinic
loop_
_symmetry_equiv_pos_as_xyz
  x,y,z
_cell_length_a	19.805407
_cell_length_b	12.759400
_cell_length_c	19.805399
_cell_angle_alpha	89.976763
_cell_angle_beta	89.980427
_cell_angle_gamma	90.014685
loop_
_atom_site_label
_atom_site_type_symbol
_atom_site_fract_x
_atom_site_fract_y
_atom_site_fract_z
Zn1	Zn	1.034791	-0.418291	-0.382740
Zn2	Zn	1.034729	-0.593984	-0.269560
Zn3	Zn	0.921605	-0.418320	-0.269565
Zn4	Zn	0.921592	-0.593928	-0.382707
O5	O	0.978179	-0.506131	-0.326143
O6	O	1.129499	-0.441608	-0.367739
O7	O	1.019702	-0.570717	-0.174844
O8	O	0.936651	-0.271295	-0.284593
O9	O	1.129454	-0.570689	-0.284586
O10	O	1.019808	-0.271273	-0.367743
O11	O	0.936591	-0.441657	-0.174848
O12	O	0.826887	-0.441603	-0.284561
O13	O	0.936629	-0.570594	-0.477428
O14	O	0.826877	-0.570622	-0.367687
O15	O	1.019795	-0.441554	-0.477452
O16	O	1.019689	-0.740998	-0.284554
O17	O	0.936568	-0.740957	-0.367682
C18	C	0.802323	-0.506110	-0.326121
C19	C	0.727091	-0.506127	-0.326128
C20	C	0.691760	-0.573408	-0.369341
C21	C	0.621071	-0.573410	-0.369351
C22	C	0.585716	-0.506135	-0.326143
C23	C	0.621052	-0.438847	-0.282928
C24	C	0.691739	-0.438840	-0.282922
C25	C	0.335979	-0.438870	-0.282950
C26	C	0.265287	-0.438884	-0.282958
C27	C	0.265311	-0.573440	-0.369379
C28	C	0.335998	-0.573433	-0.369373
C29	C	0.371328	-0.506141	-0.326161
C30	C	0.447977	-0.506139	-0.326152
C31	C	0.509069	-0.506142	-0.326148
C32	C	0.978139	-0.779098	-0.326129
C33	C	0.978184	-0.895875	-0.326146
C34	C	1.021513	-0.950723	-0.282908
C35	C	1.021555	-1.060447	-0.282929
C36	C	0.934932	-1.060464	-0.369426
C37	C	0.934894	-0.950742	-0.369408
C38	C	1.064802	-0.895855	-0.239646
C39	C	1.108135	-0.950704	-0.196404
C40	C	1.108176	-1.060428	-0.196425
C41	C	1.064886	-1.115303	-0.239687
C42	C	1.154722	-0.506152	-0.326165
C43	C	1.229954	-0.506160	-0.326175
C44	C	0.978217	-0.506064	-0.502686
C45	C	0.978233	-0.506036	-0.577918
C46	C	0.978238	-0.232097	-0.326172
C47	C	0.978263	-0.115321	-0.326184
C48	C	1.021539	-0.438842	-0.613276
C49	C	1.021546	-0.438811	-0.683964
C50	C	0.978250	-0.505981	-0.719294
C51	C	0.934940	-0.573179	-0.683931
C52	C	0.934930	-0.573203	-0.613244
C53	C	0.934978	-0.573081	-0.969004
C54	C	0.934992	-0.573054	-1.039696
C55	C	1.021594	-0.438689	-1.039725
C56	C	1.021584	-0.438713	-0.969038
C57	C	0.978272	-0.505906	-0.933681
C58	C	0.978264	-0.505937	-0.857033
C59	C	0.978261	-0.505957	-0.795941
C60	C	0.978180	-0.506121	-0.150287
C61	C	0.978295	-0.505853	-0.075055
H62	H	0.592260	-0.384066	-0.247750
H63	H	0.899720	-0.627809	-0.940225
H64	H	0.899685	-0.627866	-0.712702
H65	H	0.899733	-0.627754	-1.068460
H66	H	0.720541	-0.628195	-0.404524
O67	O	0.230915	-0.373680	-0.240907
C68	C	0.189996	-0.433417	-0.197136
H69	H	0.211290	-0.516151	-0.192867
H70	H	0.136430	-0.437088	-0.218058
C71	C	0.162739	-0.280337	-0.132071
C72	C	0.188896	-0.381950	-0.126824
H73	H	0.162057	-0.248588	-0.088700
H74	H	0.190305	-0.240089	-0.161561
H75	H	0.118102	-0.283410	-0.149508
H76	H	0.233534	-0.378875	-0.109395
H77	H	0.161337	-0.422196	-0.097329
H78	H	0.592308	-0.628198	-0.404539
H79	H	0.364781	-0.628219	-0.404555
O80	O	0.892850	-0.638589	-0.578999
C81	C	0.854630	-0.697859	-0.625338
H82	H	0.882356	-0.701470	-0.675733
H83	H	0.803229	-0.659389	-0.632845
C84	C	0.810806	-0.805254	-0.535842
C85	C	0.844863	-0.809697	-0.597737
H86	H	0.804779	-0.874240	-0.518816
H87	H	0.836554	-0.765321	-0.504622
H88	H	0.767976	-0.773192	-0.542106
H89	H	0.887696	-0.841747	-0.591471
H90	H	0.819123	-0.849639	-0.628955
H91	H	0.236536	-0.628228	-0.404567
O92	O	0.892901	-1.113930	-0.411381
C93	C	0.902237	-1.222535	-0.402136
H94	H	0.924441	-1.237544	-0.349924
H95	H	0.938268	-1.253588	-0.442322
C96	C	0.806497	-1.260512	-0.472409
C97	C	0.833763	-1.278947	-0.408279
H98	H	0.764261	-1.295311	-0.476202
H99	H	0.800209	-1.187343	-0.478640
H100	H	0.836530	-1.286390	-0.505890
H101	H	0.803735	-1.253057	-0.374800
H102	H	0.840046	-1.352113	-0.402043
O103	O	0.370259	-0.373617	-0.240876
C104	C	0.352940	-0.396423	-0.173394
H105	H	0.333505	-0.480355	-0.169883
H106	H	0.311902	-0.340073	-0.155772
C107	C	0.439583	-0.280993	-0.132538
C108	C	0.415718	-0.384082	-0.128226
H109	H	0.478305	-0.273376	-0.104675
H110	H	0.451249	-0.265624	-0.178002
H111	H	0.405378	-0.234046	-0.117854
H112	H	0.449919	-0.431026	-0.142917
H113	H	0.404058	-0.399458	-0.082763
O114	O	0.726034	-0.373602	-0.240845
C115	C	0.708718	-0.396411	-0.173362
H116	H	0.689272	-0.480337	-0.169854
H117	H	0.667689	-0.340050	-0.155733
C118	C	0.795380	-0.281014	-0.132509
C119	C	0.771501	-0.384096	-0.128199
H120	H	0.834105	-0.273413	-0.104649
H121	H	0.807044	-0.265643	-0.177973
H122	H	0.761183	-0.234057	-0.117819
H123	H	0.805695	-0.431049	-0.142897
H124	H	0.759844	-0.399474	-0.082736
O125	O	1.150123	-0.897241	-0.154405
C126	C	1.140808	-0.788635	-0.163668
H127	H	1.088555	-0.773692	-0.185785
H128	H	1.180923	-0.757407	-0.199743
C129	C	1.211207	-0.750723	-0.068015
C130	C	1.147027	-0.732369	-0.095174
H131	H	1.215046	-0.716013	-0.025766
H132	H	1.217485	-0.823892	-0.061776
H133	H	1.244629	-0.724699	-0.098084
H134	H	1.113606	-0.758405	-0.065109
H135	H	1.140743	-0.659202	-0.101407
O136	O	1.063515	-0.373417	-0.718336
C137	C	1.024997	-0.305551	-0.759229
H138	H	0.971687	-0.299076	-0.737917
H139	H	1.022669	-0.337999	-0.812801
C140	C	1.123560	-0.204283	-0.786495
C141	C	1.058084	-0.196323	-0.760316
H142	H	1.143970	-0.136907	-0.787169
H143	H	1.149511	-0.250008	-0.758947
H144	H	1.121611	-0.231327	-0.831137
H145	H	1.060034	-0.169292	-0.715673
H146	H	1.032134	-0.150591	-0.787857
H147	H	1.064772	-0.806512	-0.239622
H148	H	0.899613	-0.906084	-0.404617
H149	H	1.064928	-1.204648	-0.239706
O150	O	1.150380	-1.113561	-0.154460
C151	C	1.217810	-1.086621	-0.169340
H152	H	1.219137	-1.006937	-0.195362
H153	H	1.240623	-1.148305	-0.204164
C154	C	1.257228	-1.179376	-0.071442
C155	C	1.258858	-1.081502	-0.103397
H156	H	1.282550	-1.176222	-0.030766
H157	H	1.211800	-1.197530	-0.061418
H158	H	1.276237	-1.230769	-0.100469
H159	H	1.239842	-1.030113	-0.074374
H160	H	1.304285	-1.063339	-0.113415
O161	O	1.063620	-0.373493	-0.579064
C162	C	1.101854	-0.314197	-0.625434
H163	H	1.074138	-0.310540	-0.675817
H164	H	1.153253	-0.352673	-0.632958
C165	C	1.145672	-0.206880	-0.535982
C166	C	1.111627	-0.202381	-0.597861
H167	H	1.151703	-0.137908	-0.518974
H168	H	1.119914	-0.246831	-0.504741
H169	H	1.188500	-0.238948	-0.542261
H170	H	1.068796	-0.170326	-0.591581
H171	H	1.137377	-0.162422	-0.629101
H172	H	1.056843	-0.384020	-0.940276
H173	H	1.056859	-0.383973	-1.068521
