data_functionalizedCrystal
_audit_creation_method	'MofGen! by Chris Wilmer'
_symmetry_space_group_name_H-M	'P1'
_symmetry_Int_Tables_number	1
_symmetry_cell_setting	triclinic
loop_
_symmetry_equiv_pos_as_xyz
  x,y,z
_cell_length_a	21.395362
_cell_length_b	25.639239
_cell_length_c	21.395356
_cell_angle_alpha	90.026438
_cell_angle_beta	90.035770
_cell_angle_gamma	90.054564
loop_
_atom_site_label
_atom_site_type_symbol
_atom_site_fract_x
_atom_site_fract_y
_atom_site_fract_z
Zn1	Zn	0.957774	-0.207953	0.354582
Zn2	Zn	1.291108	0.125380	0.687915
Zn3	Zn	1.624441	0.458714	1.021249
Zn4	Zn	0.957677	-0.295384	0.249803
Zn5	Zn	1.291010	0.037950	0.583136
Zn6	Zn	1.624344	0.371283	0.916470
Zn7	Zn	0.853004	-0.207988	0.249783
Zn8	Zn	1.186337	0.125345	0.583117
Zn9	Zn	1.519671	0.458678	0.916450
Zn10	Zn	0.852944	-0.295384	0.354508
Zn11	Zn	1.186277	0.037950	0.687841
Zn12	Zn	1.519610	0.371283	1.021174
O13	O	0.905350	-0.251677	0.302169
O14	O	1.238683	0.081656	0.635502
O15	O	1.572016	0.414989	0.968836
O16	O	1.045439	-0.219536	0.340722
O17	O	1.378773	0.113797	0.674056
O18	O	1.712106	0.447130	1.007389
O19	O	0.943777	-0.283805	0.162122
O20	O	1.277110	0.049528	0.495456
O21	O	1.610443	0.382861	0.828789
O22	O	0.866968	-0.134818	0.263708
O23	O	1.200301	0.198515	0.597041
O24	O	1.533635	0.531848	0.930375
O25	O	1.045368	-0.283771	0.263741
O26	O	1.378701	0.049562	0.597075
O27	O	1.712035	0.382896	0.930408
O28	O	0.943942	-0.134793	0.340703
O29	O	1.277276	0.198541	0.674036
O30	O	1.610609	0.531874	1.007370
O31	O	0.866874	-0.219596	0.162108
O32	O	1.200207	0.113737	0.495441
O33	O	1.533540	0.447070	0.828775
O34	O	0.765318	-0.219596	0.263636
O35	O	1.098652	0.113737	0.596969
O36	O	1.431985	0.447071	0.930303
O37	O	0.866865	-0.283771	0.442195
O38	O	1.200199	0.049562	0.775529
O39	O	1.533532	0.382896	1.108862
O40	O	0.765274	-0.283805	0.340576
O41	O	1.098607	0.049528	0.673910
O42	O	1.431941	0.382862	1.007243
O43	O	0.943884	-0.219536	0.442250
O44	O	1.277217	0.113797	0.775583
O45	O	1.610550	0.447130	1.108917
O46	O	0.943718	-0.368549	0.263669
O47	O	1.277051	-0.035216	0.597003
O48	O	1.610385	0.298118	0.930336
O49	O	0.866771	-0.368549	0.340596
O50	O	1.200104	-0.035216	0.673929
O51	O	1.533438	0.298118	1.007262
C52	C	0.742562	-0.251705	0.302096
C53	C	1.075895	0.081628	0.635430
C54	C	1.409229	0.414962	0.968763
C55	C	0.672921	-0.251729	0.302080
C56	C	1.006254	0.081604	0.635413
C57	C	1.339588	0.414937	0.968747
C58	C	0.640201	-0.285207	0.342083
C59	C	0.973534	0.048126	0.675416
C60	C	1.306868	0.381459	1.008750
C61	C	0.574766	-0.285194	0.342111
C62	C	0.908099	0.048139	0.675444
C63	C	1.241432	0.381472	1.008778
C64	C	0.542053	-0.251709	0.302125
C65	C	0.875386	0.081624	0.635458
C66	C	1.208719	0.414958	0.968791
C67	C	0.574780	-0.218225	0.262119
C68	C	0.908114	0.115109	0.595452
C69	C	1.241447	0.448442	0.928786
C70	C	0.640214	-0.218235	0.262097
C71	C	0.973548	0.115099	0.595430
C72	C	1.306881	0.448432	0.928763
C73	C	0.438337	-0.247503	0.245720
C74	C	0.771670	0.085830	0.579053
C75	C	1.105003	0.419164	0.912386
C76	C	0.372904	-0.247497	0.245741
C77	C	0.706237	0.085837	0.579074
C78	C	1.039570	0.419170	0.912407
C79	C	0.340232	-0.251675	0.302194
C80	C	0.673565	0.081658	0.635527
C81	C	1.006899	0.414992	0.968861
C82	C	0.373001	-0.255871	0.358627
C83	C	0.706334	0.077462	0.691961
C84	C	1.039668	0.410796	1.025294
C85	C	0.438435	-0.255881	0.358605
C86	C	0.771769	0.077452	0.691938
C87	C	1.105102	0.410786	1.025272
C88	C	0.471100	-0.251694	0.302145
C89	C	0.804434	0.081639	0.635478
C90	C	1.137767	0.414972	0.968811
C91	C	0.236560	-0.285141	0.342231
C92	C	0.569893	0.048193	0.675564
C93	C	0.903226	0.381526	1.008897
C94	C	0.171123	-0.285124	0.342259
C95	C	0.504456	0.048209	0.675593
C96	C	0.837790	0.381542	1.008926
C97	C	0.171139	-0.218157	0.262262
C98	C	0.504472	0.115176	0.595595
C99	C	0.837806	0.448509	0.928929
C100	C	0.236574	-0.218171	0.262238
C101	C	0.569908	0.115162	0.595572
C102	C	0.903241	0.448496	0.928905
C103	C	0.269281	-0.251666	0.302222
C104	C	0.602614	0.081668	0.635555
C105	C	0.935947	0.415001	0.968889
C106	C	0.905244	-0.387520	0.302140
C107	C	1.238578	-0.054186	0.635474
C108	C	1.571911	0.279147	0.968807
C109	C	0.905257	-0.445634	0.302149
C110	C	1.238590	-0.112300	0.635482
C111	C	1.571923	0.221033	0.968816
C112	C	0.945521	-0.805984	0.262182
C113	C	1.278854	-0.472651	0.595515
C114	C	1.612187	-0.139318	0.928849
C115	C	0.945545	-0.860589	0.262190
C116	C	1.278878	-0.527255	0.595524
C117	C	1.612212	-0.193922	0.928857
O118	O	0.979670	-0.888815	0.228177
O119	O	1.313003	-0.555481	0.561511
O120	O	1.646336	-0.222148	0.894844
N121	N	0.905460	-0.887916	0.302211
N122	N	1.238793	-0.554583	0.635544
N123	N	1.572127	-0.221250	0.968877
C124	C	0.865352	-0.860637	0.342230
C125	C	1.198686	-0.527303	0.675563
C126	C	1.532019	-0.193970	1.008896
O127	O	0.831260	-0.888895	0.376271
O128	O	1.164593	-0.555562	0.709604
O129	O	1.497926	-0.222228	1.042938
C130	C	0.865332	-0.806033	0.342224
C131	C	1.198665	-0.472700	0.675557
C132	C	1.531998	-0.139367	1.008891
C133	C	0.905415	-0.778709	0.302196
C134	C	1.238748	-0.445375	0.635530
C135	C	1.572082	-0.112042	0.968863
C136	C	0.985601	-0.778659	0.222158
C137	C	1.318934	-0.445326	0.555492
C138	C	1.652268	-0.111993	0.888825
C139	C	0.985576	-0.724059	0.222149
C140	C	1.318909	-0.390726	0.555483
C141	C	1.652243	-0.057392	0.888816
C142	C	0.945470	-0.696783	0.262164
C143	C	1.278804	-0.363450	0.595497
C144	C	1.612137	-0.030117	0.928830
C145	C	0.905390	-0.724108	0.302187
C146	C	1.238723	-0.390775	0.635521
C147	C	1.572056	-0.057441	0.968854
C148	C	0.825228	-0.778755	0.382246
C149	C	1.158561	-0.445422	0.715579
C150	C	1.491895	-0.112088	1.048912
C151	C	0.825211	-0.724148	0.382237
C152	C	1.158544	-0.390815	0.715570
C153	C	1.491878	-0.057481	1.048903
C154	C	0.865294	-0.696823	0.342209
C155	C	1.198628	-0.363490	0.675543
C156	C	1.531961	-0.030156	1.008876
C157	C	0.865259	-0.642232	0.342193
C158	C	1.198592	-0.308899	0.675526
C159	C	1.531925	0.024435	1.008860
N160	N	0.905344	-0.614904	0.302173
N161	N	1.238677	-0.281571	0.635506
N162	N	1.572011	0.051762	0.968839
C163	C	0.945450	-0.642180	0.262158
C164	C	1.278783	-0.308847	0.595491
C165	C	1.612116	0.024487	0.928825
C166	C	0.865400	-0.975307	0.342239
C167	C	1.198733	-0.641974	0.675573
C168	C	1.532066	-0.308641	1.008906
C169	C	0.865417	-1.029910	0.342242
C170	C	1.198750	-0.696576	0.675576
C171	C	1.532083	-0.363243	1.008909
C172	C	0.945610	-1.029858	0.262204
C173	C	1.278944	-0.696524	0.595537
C174	C	1.612277	-0.363191	0.928870
C175	C	0.945590	-0.975254	0.262198
C176	C	1.278923	-0.641921	0.595531
C177	C	1.612256	-0.308588	0.928865
C178	C	0.905485	-0.947980	0.302219
C179	C	1.238818	-0.614646	0.635552
C180	C	1.572151	-0.281313	0.968886
C181	C	0.945393	-0.527515	0.262142
C182	C	1.278726	-0.194182	0.595475
C183	C	1.612060	0.139152	0.928808
C184	C	0.945362	-0.472909	0.262134
C185	C	1.278696	-0.139576	0.595468
C186	C	1.612029	0.193757	0.928801
C187	C	0.865172	-0.472966	0.342175
C188	C	1.198505	-0.139633	0.675508
C189	C	1.531838	0.193700	1.008842
C190	C	0.865200	-0.527567	0.342180
C191	C	1.198533	-0.194233	0.675514
C192	C	1.531866	0.139100	1.008847
C193	C	0.905315	-0.554840	0.302162
C194	C	1.238649	-0.221506	0.635495
C195	C	1.571982	0.111827	0.968828
O196	O	0.831153	-0.613971	0.376190
O197	O	1.164487	-0.280638	0.709524
O198	O	1.497820	0.052696	1.042857
O199	O	0.979542	-0.613915	0.228128
O200	O	1.312876	-0.280582	0.561461
O201	O	1.646209	0.052752	0.894795
C202	C	1.068773	-0.251650	0.302242
C203	C	1.402106	0.081684	0.635576
C204	C	1.735440	0.415017	0.968909
C205	C	1.138414	-0.251638	0.302274
C206	C	1.471748	0.081695	0.635607
C207	C	1.805081	0.415029	0.968940
C208	C	0.905379	-0.251650	0.465592
C209	C	1.238712	0.081684	0.798926
C210	C	1.572045	0.415017	1.132259
C211	C	0.905391	-0.251638	0.535234
C212	C	1.238724	0.081695	0.868567
C213	C	1.572057	0.415029	1.201900
C214	C	0.905473	-0.115304	0.302212
C215	C	1.238806	0.218029	0.635545
C216	C	1.572139	0.551363	0.968878
C217	C	0.905525	-0.057190	0.302230
C218	C	1.238858	0.276143	0.635563
C219	C	1.572192	0.609477	0.968896
C220	C	0.905357	-0.251667	0.139381
C221	C	1.238691	0.081667	0.472715
C222	C	1.572024	0.415000	0.806048
C223	C	0.905466	-0.251531	0.069741
C224	C	1.238800	0.081802	0.403074
C225	C	1.572133	0.415135	0.736407
C226	C	0.945504	-0.284962	1.037038
C227	C	1.278838	0.048371	1.370371
C228	C	1.612171	0.381705	1.703705
C229	C	0.945493	-0.284979	0.971603
C230	C	1.278827	0.048355	1.304936
C231	C	1.612160	0.381688	1.638269
C232	C	0.905451	-0.251555	0.938872
C233	C	1.238784	0.081778	1.272206
C234	C	1.572117	0.415112	1.605539
C235	C	0.865405	-0.218122	0.971583
C236	C	1.198738	0.115211	1.304916
C237	C	1.532071	0.448545	1.638249
C238	C	0.865413	-0.218110	1.037017
C239	C	1.198746	0.115223	1.370350
C240	C	1.532079	0.448557	1.703683
C241	C	0.900533	-0.204469	0.835216
C242	C	1.233866	0.128864	1.168549
C243	C	1.567200	0.462198	1.501883
C244	C	0.900529	-0.204480	0.769783
C245	C	1.233863	0.128853	1.103116
C246	C	1.567196	0.462187	1.436450
C247	C	0.905422	-0.251592	0.737051
C248	C	1.238756	0.081741	1.070385
C249	C	1.572089	0.415075	1.403718
C250	C	0.910332	-0.298695	0.769761
C251	C	1.243665	0.034639	1.103094
C252	C	1.576999	0.367972	1.436427
C253	C	0.910340	-0.298683	0.835195
C254	C	1.243673	0.034651	1.168528
C255	C	1.577007	0.367984	1.501861
C256	C	0.905437	-0.251565	0.867920
C257	C	1.238771	0.081769	1.201253
C258	C	1.572104	0.415102	1.534586
C259	C	0.945450	-0.285044	0.633396
C260	C	1.278784	0.048290	0.966730
C261	C	1.612117	0.381623	1.300063
C262	C	0.945435	-0.285061	0.567960
C263	C	1.278768	0.048272	0.901293
C264	C	1.612101	0.381605	1.234626
C265	C	0.865350	-0.218200	0.567941
C266	C	1.198683	0.115133	0.901274
C267	C	1.532016	0.448467	1.234607
C268	C	0.865362	-0.218187	0.633376
C269	C	1.198695	0.115146	0.966709
C270	C	1.532029	0.448480	1.300043
C271	C	0.905416	-0.251608	0.666100
C272	C	1.238749	0.081725	0.999433
C273	C	1.572082	0.415058	1.332767
H274	H	0.263191	-0.312411	0.374791
H275	H	0.596524	0.020922	0.708124
H276	H	0.929857	0.354255	1.041457
O277	O	0.675475	-0.321325	0.385217
O278	O	1.008808	0.012008	0.718550
O279	O	1.342142	0.345341	1.051883
H280	H	0.662846	-0.362346	0.374390
H281	H	0.996180	-0.029013	0.707723
H282	H	1.329513	0.304321	1.041057
O283	O	0.821967	-0.557044	0.385349
O284	O	1.155301	-0.223711	0.718683
O285	O	1.488634	0.109623	1.052016
H286	H	0.794077	-0.528902	0.413174
H287	H	1.127411	-0.195568	0.746507
H288	H	1.460744	0.137765	1.079841
H289	H	0.832761	-0.190962	0.660003
H290	H	1.166094	0.142371	0.993336
H291	H	1.499428	0.475704	1.326669
O292	O	0.135876	-0.321268	0.385407
O293	O	0.469210	0.012065	0.718740
O294	O	0.802543	0.345398	1.052074
H295	H	0.106124	-0.297938	0.417384
H296	H	0.439458	0.035395	0.750717
H297	H	0.772791	0.368729	1.084051
O298	O	0.337775	-0.260365	0.419525
O299	O	0.671108	0.072969	0.752858
O300	O	1.004441	0.406302	1.086192
H301	H	0.350296	-0.297592	0.442821
H302	H	0.683629	0.035742	0.776155
H303	H	1.016963	0.369075	1.109488
O304	O	0.271864	-0.182073	0.219074
O305	O	0.605197	0.151261	0.552407
O306	O	0.938531	0.484594	0.885741
H307	H	0.259369	-0.141047	0.229902
H308	H	0.592703	0.192287	0.563235
H309	H	0.926036	0.525620	0.896568
O310	O	0.895245	-0.153680	0.734505
O311	O	1.228578	0.179654	1.067838
O312	O	1.561911	0.512987	1.401171
H313	H	0.891835	-0.120918	0.768256
H314	H	1.225168	0.212415	1.101590
H315	H	1.558501	0.545748	1.434923
H316	H	0.144505	-0.190891	0.229707
H317	H	0.477838	0.142443	0.563041
H318	H	0.811171	0.475776	0.896374
O319	O	0.539462	-0.321324	0.385234
O320	O	0.872796	0.012009	0.718567
O321	O	1.206129	0.345343	1.051900
H322	H	0.573198	-0.344624	0.413022
H323	H	0.906532	-0.011291	0.746355
H324	H	1.239865	0.322042	1.079689
H325	H	0.978063	-0.312259	0.660041
H326	H	1.311396	0.021075	0.993375
H327	H	1.644729	0.354408	1.326708
H328	H	0.832744	-0.190987	0.541292
H329	H	1.166078	0.142346	0.874626
H330	H	1.499411	0.475680	1.207959
H331	H	0.346228	-0.244083	0.199789
H332	H	0.679561	0.089250	0.533122
H333	H	1.012895	0.422583	0.866456
O334	O	0.473782	-0.260395	0.419467
O335	O	0.807116	0.072938	0.752801
O336	O	1.140449	0.406271	1.086134
H337	H	0.440076	-0.263294	0.458730
H338	H	0.773409	0.070039	0.792063
H339	H	1.106743	0.403372	1.125397
H340	H	1.018263	-0.800861	0.189573
H341	H	1.351597	-0.467528	0.522907
H342	H	1.684930	-0.134195	0.856240
O343	O	0.895260	-0.153652	0.870519
O344	O	1.228593	0.179681	1.203852
O345	O	1.561926	0.513014	1.537185
H346	H	0.891856	-0.120902	0.836783
H347	H	1.225189	0.212431	1.170116
H348	H	1.558523	0.545765	1.503450
H349	H	0.666855	-0.190971	0.229521
H350	H	1.000188	0.142362	0.562855
H351	H	1.333521	0.475695	0.896188
H352	H	0.978269	-1.052075	0.229624
H353	H	1.311602	-0.718742	0.562957
H354	H	1.644935	-0.385409	0.896290
O355	O	0.821913	-0.443542	0.385330
O356	O	1.155246	-0.110209	0.718663
O357	O	1.488580	0.223125	1.051997
H358	H	0.832630	-0.453988	0.434519
H359	H	1.165964	-0.120655	0.767853
H360	H	1.499297	0.212679	1.101186
H361	H	0.464933	-0.244098	0.199746
H362	H	0.798266	0.089235	0.533079
H363	H	1.131599	0.422569	0.866412
O364	O	0.988828	-0.945783	0.219033
O365	O	1.322161	-0.612450	0.552366
O366	O	1.655494	-0.279116	0.885700
H367	H	1.016720	-0.973928	0.191215
H368	H	1.350053	-0.640595	0.524548
H369	H	1.683386	-0.307262	0.857882
O370	O	0.822135	-0.945889	0.385400
O371	O	1.155469	-0.612555	0.718733
O372	O	1.488802	-0.279222	1.052067
H373	H	0.790270	-0.921057	0.357312
H374	H	1.123604	-0.587723	0.690645
H375	H	1.456937	-0.254390	1.023978
H376	H	0.914336	-0.337035	0.861824
H377	H	1.247669	-0.003702	1.195157
H378	H	1.581003	0.329632	1.528491
H379	H	0.792585	-0.800993	0.414837
H380	H	1.125918	-0.467660	0.748171
H381	H	1.459252	-0.134327	1.081504
O382	O	0.915630	-0.349527	0.734499
O383	O	1.248963	-0.016194	1.067832
O384	O	1.582296	0.317139	1.401166
H385	H	0.873654	-0.354910	0.704666
H386	H	1.206988	-0.021577	1.037999
H387	H	1.540321	0.311756	1.371332
H388	H	0.832801	-0.190909	0.944929
H389	H	1.166134	0.142424	1.278262
H390	H	1.499468	0.475758	1.611596
O391	O	1.028813	-0.694591	0.178980
O392	O	1.362147	-0.361257	0.512314
O393	O	1.695480	-0.027924	0.845647
H394	H	1.060660	-0.669664	0.207061
H395	H	1.393994	-0.336331	0.540394
H396	H	1.727327	-0.002998	0.873728
O397	O	0.539503	-0.182119	0.218976
O398	O	0.872836	0.151215	0.552309
O399	O	1.206169	0.484548	0.885642
H400	H	0.488505	-0.187743	0.225702
H401	H	0.821838	0.145590	0.559035
H402	H	1.155171	0.478923	0.892369
O403	O	0.822180	-1.059380	0.385410
O404	O	1.155514	-0.726047	0.718743
O405	O	1.488847	-0.392713	1.052076
H406	H	0.794294	-1.031234	0.413233
H407	H	1.127627	-0.697901	0.746567
H408	H	1.460960	-0.364568	1.079900
H409	H	0.978118	-0.312178	1.063678
H410	H	1.311451	0.021156	1.397011
H411	H	1.644784	0.354489	1.730345
H412	H	0.792554	-0.701943	0.414829
H413	H	1.125887	-0.368610	0.748162
H414	H	1.459220	-0.035277	1.081495
H415	H	0.978003	-0.450663	0.229537
H416	H	1.311336	-0.117330	0.562870
H417	H	1.644670	0.216003	0.896204
O418	O	0.988654	-0.556928	0.218975
O419	O	1.321987	-0.223594	0.552308
O420	O	1.655321	0.109739	0.885642
H421	H	1.016512	-0.528746	0.191141
H422	H	1.349845	-0.195413	0.524475
H423	H	1.683179	0.137920	0.857808
O424	O	0.822234	-0.182046	1.072295
O425	O	1.155567	0.151287	1.405628
O426	O	1.488900	0.484620	1.738962
H427	H	0.794389	-0.158804	1.038545
H428	H	1.127722	0.174529	1.371879
H429	H	1.461055	0.507862	1.705212
H430	H	0.978035	-0.312289	0.541334
H431	H	1.311368	0.021044	0.874668
H432	H	1.644702	0.354377	1.208001
O433	O	0.988685	-0.321031	0.936318
O434	O	1.322018	0.012302	1.269651
O435	O	1.655352	0.345635	1.602985
H436	H	1.016541	-0.344265	0.970066
H437	H	1.349875	-0.010932	1.303400
H438	H	1.683208	0.322401	1.636733
