data_functionalizedCrystal
_audit_creation_method	'MofGen! by Chris Wilmer'
_symmetry_space_group_name_H-M	'P1'
_symmetry_Int_Tables_number	1
_symmetry_cell_setting	triclinic
loop_
_symmetry_equiv_pos_as_xyz
  x,y,z
_cell_length_a	14.909028
_cell_length_b	16.120566
_cell_length_c	14.908308
_cell_angle_alpha	90.545249
_cell_angle_beta	89.838219
_cell_angle_gamma	96.342900
loop_
_atom_site_label
_atom_site_type_symbol
_atom_site_fract_x
_atom_site_fract_y
_atom_site_fract_z
Zn1	Zn	-0.460802	-1.269648	0.553185
Zn2	Zn	-0.603423	-1.285608	0.394985
Zn3	Zn	-0.444524	-1.137746	0.396046
Zn4	Zn	-0.603528	-1.138645	0.537724
O5	O	-0.528069	-1.207912	0.470485
O6	O	-0.486489	-1.388471	0.538226
O7	O	-0.575488	-1.272296	0.269625
O8	O	-0.320452	-1.148187	0.423806
O9	O	-0.591272	-1.400196	0.421997
O10	O	-0.332411	-1.245095	0.539255
O11	O	-0.458746	-1.163663	0.270405
O12	O	-0.458848	-1.021159	0.408813
O13	O	-0.591451	-1.149721	0.665275
O14	O	-0.575668	-1.021820	0.512904
O15	O	-0.486591	-1.245967	0.676635
O16	O	-0.729668	-1.273169	0.407005
O17	O	-0.729745	-1.165196	0.511875
C18	C	-0.515504	-0.991229	0.459296
C19	C	-0.510151	-0.898532	0.454530
C20	C	-0.500358	-0.728811	0.445837
C21	C	-0.555858	-0.687857	0.495137
C22	C	-0.550409	-0.593419	0.490299
C23	C	-0.505806	-0.823258	0.450673
C24	C	-0.762439	-1.221034	0.457668
C25	C	-0.862710	-1.226722	0.452218
C26	C	-1.003971	-1.290986	0.389992
C27	C	-0.909758	-1.285646	0.395109
C28	C	-0.909881	-1.173132	0.504212
C29	C	-1.004094	-1.178472	0.499095
C30	C	-1.051136	-1.237402	0.441984
C31	C	-1.145351	-1.242746	0.436872
C32	C	-1.145472	-1.130228	0.545969
C33	C	-1.051259	-1.124888	0.551086
C34	C	-0.292786	-1.194760	0.483373
C35	C	-0.192523	-1.189156	0.488866
C36	C	-0.540849	-1.196164	0.704406
C37	C	-0.546295	-1.191158	0.804089
C38	C	-0.540686	-0.425441	0.481703
C39	C	-0.546068	-0.518141	0.486446
C40	C	-0.515277	-1.219658	0.237480
C41	C	-0.509586	-1.224811	0.137820
C42	C	-0.447316	-1.281969	1.003235
C43	C	-0.452429	-1.277268	1.096897
C44	C	-0.561631	-1.177050	1.085075
C45	C	-0.556517	-1.181752	0.991414
C46	C	-0.499358	-1.234214	0.950497
C47	C	-0.494250	-1.238919	0.856834
C48	C	-0.603446	-1.138697	0.845014
C49	C	-0.608560	-1.133996	0.938676
H50	H	-1.183652	-1.290732	0.390373
H51	H	-0.400779	-1.324691	0.969921
O52	O	-0.617550	-0.730556	0.549763
C53	C	-0.705144	-0.715381	0.524014
H54	H	-0.701494	-0.653931	0.486262
H55	H	-0.749072	-0.711555	0.586308
H56	H	-0.735699	-0.768386	0.478652
H57	H	-0.448755	-0.692949	0.400000
H58	H	-0.871567	-1.125148	0.550703
H59	H	-1.042274	-1.338976	0.343499
H60	H	-0.655095	-1.091281	0.972003
O61	O	-0.864084	-1.337786	0.344574
C62	C	-0.925809	-1.390925	0.293054
H63	H	-0.995122	-1.395747	0.326292
H64	H	-0.901822	-1.455573	0.288418
H65	H	-0.930397	-1.364428	0.222794
H66	H	-1.012947	-1.076906	0.597582
H67	H	-1.183884	-1.086599	0.588308
H68	H	-0.447710	-1.281638	0.823521
O69	O	-0.401845	-1.323743	1.147994
C70	C	-0.350284	-1.371036	1.091791
H71	H	-0.383754	-1.379342	1.023152
H72	H	-0.345944	-1.434848	1.122770
H73	H	-0.279462	-1.337161	1.084004
O74	O	-0.617119	-1.126149	1.124974
C75	C	-0.610441	-1.132218	1.218951
H76	H	-0.585339	-1.194291	1.236681
H77	H	-0.679615	-1.128535	1.250570
H78	H	-0.560970	-1.078737	1.245593
O79	O	-0.654050	-1.092424	0.793692
C80	C	-0.712125	-1.145885	0.738795
H81	H	-0.683206	-1.208011	0.729762
H82	H	-0.718657	-1.115896	0.670519
H83	H	-0.781473	-1.156977	0.771711
