data_functionalizedCrystal
_audit_creation_method	'MofGen! by Chris Wilmer'
_symmetry_space_group_name_H-M	'P1'
_symmetry_Int_Tables_number	1
_symmetry_cell_setting	triclinic
loop_
_symmetry_equiv_pos_as_xyz
  x,y,z
_cell_length_a	6.817900
_cell_length_b	19.453114
_cell_length_c	19.453172
_cell_angle_alpha	96.317064
_cell_angle_beta	101.710488
_cell_angle_gamma	101.709288
loop_
_atom_site_label
_atom_site_type_symbol
_atom_site_fract_x
_atom_site_fract_y
_atom_site_fract_z
V1	V	-3.998005	-0.219330	-0.097914
V2	V	-3.498005	0.280670	0.402086
O3	O	-3.995098	-0.214817	0.003953
O4	O	-3.495098	0.285183	0.503953
O5	O	-3.941032	-0.218154	-0.193423
O6	O	-3.441032	0.281846	0.306577
O7	O	-3.941025	-0.314839	-0.096738
O8	O	-3.441025	0.185161	0.403262
O9	O	-3.995104	-0.117463	-0.093402
O10	O	-3.495104	0.382537	0.406598
V11	V	-4.483855	-0.207106	-0.085691
V12	V	-3.983855	0.292894	0.414309
O13	O	-4.254158	-0.246143	-0.124727
O14	O	-3.754158	0.253857	0.375273
O15	O	-4.677900	-0.180293	-0.058877
O16	O	-4.177900	0.319707	0.441123
O17	O	-4.317622	-0.208281	0.009819
O18	O	-3.817622	0.291719	0.509819
O19	O	-4.604159	-0.211619	-0.187557
O20	O	-4.104159	0.288381	0.312443
O21	O	-4.604153	-0.308973	-0.090203
O22	O	-4.104153	0.191027	0.409797
O23	O	-4.317628	-0.111597	-0.086867
O24	O	-3.817628	0.388403	0.413133
C25	C	-3.784225	-0.214778	-0.216696
C26	C	-3.284225	0.285222	0.283304
C27	C	-3.818872	-0.214454	-0.294778
C28	C	-3.318872	0.285546	0.205222
C29	C	-4.247899	-0.216325	-0.855852
C30	C	-3.747899	0.283675	-0.355852
C31	C	-4.215361	-0.216625	-0.782485
C32	C	-3.715361	0.283375	-0.282485
C33	C	-4.017282	-0.212598	-0.742102
C34	C	-3.517282	0.287402	-0.242102
C35	C	-3.851722	-0.208253	-0.775088
C36	C	-3.351722	0.291747	-0.275088
C37	C	-3.884261	-0.207947	-0.848452
C38	C	-3.384261	0.292053	-0.348452
N39	N	-3.850595	-0.250130	-0.630535
N40	N	-3.350595	0.249870	-0.130535
N41	N	-3.819697	-0.250423	-0.560842
N42	N	-3.319697	0.249577	-0.060842
C43	C	-3.919231	-0.213521	-0.521058
C44	C	-3.419231	0.286479	-0.021058
N45	N	-4.050866	-0.176325	-0.553601
N46	N	-3.550866	0.323675	-0.053601
N47	N	-4.081774	-0.176035	-0.623301
N48	N	-3.581774	0.323965	-0.123301
C49	C	-3.981978	-0.212930	-0.662549
C50	C	-3.481978	0.287070	-0.162549
C51	C	-4.049499	-0.218186	-0.408526
C52	C	-3.549499	0.281814	0.091474
C53	C	-4.016951	-0.218482	-0.335157
C54	C	-3.516951	0.281518	0.164843
C55	C	-3.653311	-0.210117	-0.327762
C56	C	-3.153311	0.289883	0.172238
C57	C	-3.685861	-0.209815	-0.401129
C58	C	-3.185861	0.290185	0.098871
C59	C	-3.883960	-0.213853	-0.441507
C60	C	-3.383960	0.286147	0.058493
C61	C	-3.784216	-0.338108	-0.093364
C62	C	-3.284216	0.161892	0.406636
C63	C	-3.818856	-0.416189	-0.093034
C64	C	-3.318856	0.083811	0.406966
C65	C	-4.016595	-0.456457	-0.096405
C66	C	-3.516595	0.043543	0.403595
C67	C	-4.049143	-0.529823	-0.096096
C68	C	-3.549143	-0.029823	0.403904
C69	C	-3.883948	-0.562920	-0.092429
C70	C	-3.383948	-0.062920	0.407571
C71	C	-3.686179	-0.522641	-0.089054
C72	C	-3.186179	-0.022641	0.410946
C73	C	-3.653632	-0.449276	-0.089356
C74	C	-3.153632	0.050724	0.410644
N75	N	-3.820875	-0.681834	-0.129523
N76	N	-3.320875	-0.181834	0.370477
N77	N	-3.851806	-0.751529	-0.129238
N78	N	-3.351806	-0.251529	0.370762
C79	C	-3.981996	-0.783965	-0.091516
C80	C	-3.481996	-0.283965	0.408484
N81	N	-4.080122	-0.744076	-0.054100
N82	N	-3.580122	-0.244076	0.445900
N83	N	-4.049196	-0.674375	-0.054389
N84	N	-3.549196	-0.174375	0.445611
C85	C	-3.919218	-0.642472	-0.092100
C86	C	-3.419218	-0.142472	0.407900
C87	C	-4.215040	-0.903785	-0.094551
C88	C	-3.715040	-0.403785	0.405449
C89	C	-4.247579	-0.977151	-0.094237
C90	C	-3.747579	-0.477151	0.405763
C91	C	-3.884612	-0.969969	-0.087202
C92	C	-3.384612	-0.469969	0.412798
C93	C	-3.852075	-0.896603	-0.087509
C94	C	-3.352075	-0.396603	0.412491
C95	C	-4.017299	-0.863516	-0.091187
C96	C	-3.517299	-0.363516	0.408813
C97	C	-4.137771	-0.211656	0.033088
C98	C	-3.637771	0.288344	0.533088
C99	C	-4.082361	-0.211984	0.111169
C100	C	-3.582361	0.288016	0.611169
C101	C	-4.137780	-0.088324	-0.090243
C102	C	-3.637780	0.411676	0.409757
C103	C	-4.082379	-0.010242	-0.090569
C104	C	-3.582379	0.489758	0.409431
H105	H	-3.690442	-0.204974	-0.742202
H106	H	-3.190442	0.295026	-0.242202
H107	H	-3.691060	-0.863817	-0.084772
H108	H	-3.191060	-0.363817	0.415228
H109	H	-4.408603	-1.009936	-0.096977
H110	H	-3.908603	-0.509936	0.403023
H111	H	-3.750103	-0.996914	-0.084211
H112	H	-3.250103	-0.496914	0.415789
H113	H	-3.551676	-0.549593	-0.086067
H114	H	-3.051676	-0.049593	0.413933
H115	H	-3.492031	-0.206836	-0.294882
H116	H	-2.992031	0.293164	0.205118
H117	H	-3.749455	-0.204414	-0.875303
H118	H	-3.249455	0.295586	-0.375303
H119	H	-4.350164	-0.220155	-0.755628
H120	H	-3.850164	0.279845	-0.255628
H121	H	-4.409203	-0.219611	-0.888724
H122	H	-3.909203	0.280389	-0.388724
H123	H	-4.210802	-0.221470	-0.441404
H124	H	-3.710802	0.278530	0.058596
H125	H	-4.151759	-0.222013	-0.308307
H126	H	-3.651759	0.277987	0.191693
H127	H	-3.551061	-0.206283	-0.427980
H128	H	-3.051061	0.293717	0.072020
H129	H	-4.151135	-0.429523	-0.099397
H130	H	-3.651135	0.070477	0.400603
H131	H	-4.210174	-0.562617	-0.098844
H132	H	-3.710174	-0.062617	0.401156
H133	H	-4.349574	-0.876844	-0.097543
H134	H	-3.849574	-0.376844	0.402457
H135	H	-3.492604	-0.416488	-0.086606
H136	H	-2.992604	0.083512	0.413394
