data_functionalizedCrystal
_audit_creation_method	'MofGen! by Chris Wilmer'
_symmetry_space_group_name_H-M	'P1'
_symmetry_Int_Tables_number	1
_symmetry_cell_setting	triclinic
loop_
_symmetry_equiv_pos_as_xyz
  x,y,z
_cell_length_a	10.540539
_cell_length_b	10.723024
_cell_length_c	9.198806
_cell_angle_alpha	90.002012
_cell_angle_beta	90.001893
_cell_angle_gamma	84.496681
loop_
_atom_site_label
_atom_site_type_symbol
_atom_site_fract_x
_atom_site_fract_y
_atom_site_fract_z
O1	O	-1.685796	-0.175862	-0.120820
O2	O	-1.316375	-0.192432	-0.120837
O3	O	-1.509607	-0.002575	-0.120823
O4	O	-1.492564	-0.365719	-0.120834
O5	O	-1.509591	-0.002574	0.120962
O6	O	-1.316359	-0.192431	0.120948
O7	O	-1.685781	-0.175861	0.120965
Cu8	Cu	-1.501069	-0.184146	0.143033
Cu9	Cu	-1.501087	-0.184147	-0.142906
O10	O	-1.492549	-0.365718	0.120951
C11	C	-1.508359	0.043926	0.000068
C12	C	-1.504648	0.182482	0.000063
C13	C	-1.269065	-0.191189	0.000053
C14	C	-1.128118	-0.187471	0.000046
C15	C	-1.733091	-0.177104	0.000072
C16	C	-1.874037	-0.180822	0.000069
C17	C	-0.944765	-0.045013	0.000615
C18	C	-1.091381	-0.048782	0.000055
C19	C	-1.066420	-0.254214	-0.138022
C20	C	-0.919878	-0.249481	-0.138122
C21	C	-0.919371	-0.252302	0.136832
C22	C	-1.066352	-0.253579	0.138642
C23	C	-1.493797	-0.412218	0.000057
C24	C	-1.497507	-0.550775	0.000052
N25	N	-1.501065	-0.184145	0.344147
C26	C	-1.612771	0.257411	0.000066
C27	C	-1.608938	0.400616	0.000060
N28	N	-1.501100	-0.184138	-0.344020
C29	C	-1.582198	-0.104078	0.416350
C30	C	-1.582217	-0.104073	0.583763
H31	H	-1.134016	0.003735	0.099028
Br32	Br	-1.385327	-0.298411	0.552508
Br33	Br	-1.160978	0.038972	-0.165474
Br34	Br	-0.894467	0.045934	-0.163480
H35	H	-0.916201	0.009777	0.099632
H36	H	-1.651640	-0.035527	0.354229
Br37	Br	-1.103626	-0.423959	-0.146630
H38	H	-1.651683	-0.035529	0.645854
Br39	Br	-1.763223	0.507924	0.000082
H40	H	-0.891700	-0.200152	-0.241326
H41	H	-0.871858	-0.349224	-0.144392
Br42	Br	-1.137448	-0.176943	-0.309285
Br43	Br	-1.343217	0.341925	0.000065
H44	H	-1.431614	-0.252686	0.406270
H45	H	-1.409243	0.224352	0.000049
H46	H	-0.887841	-0.207418	0.241487
H47	H	-1.107333	-0.204821	0.240785
H48	H	-1.708175	0.215541	0.000079
H49	H	-0.872092	-0.352476	0.137762
Br50	Br	-1.106632	-0.422116	0.152533
