data_functionalizedCrystal
_audit_creation_method	'MofGen! by Chris Wilmer'
_symmetry_space_group_name_H-M	'P1'
_symmetry_Int_Tables_number	1
_symmetry_cell_setting	triclinic
loop_
_symmetry_equiv_pos_as_xyz
  x,y,z
_cell_length_a	17.038278
_cell_length_b	17.019294
_cell_length_c	12.996460
_cell_angle_alpha	86.114884
_cell_angle_beta	89.994454
_cell_angle_gamma	87.243447
loop_
_atom_site_label
_atom_site_type_symbol
_atom_site_fract_x
_atom_site_fract_y
_atom_site_fract_z
O1	O	1.037222	0.171279	-0.100748
O2	O	0.809593	0.168561	-0.100508
O3	O	0.929757	0.055513	-0.090486
O4	O	0.917058	0.284327	-0.110770
O5	O	0.929745	0.055506	0.080648
O6	O	0.809581	0.168554	0.070627
O7	O	1.037209	0.171271	0.070386
Cu8	Cu	0.923394	0.169912	0.086132
Cu9	Cu	0.923409	0.169921	-0.116254
O10	O	0.917045	0.284319	0.060365
C11	C	0.780461	0.166084	-0.014721
C12	C	0.693674	0.158704	-0.014068
C13	C	0.203301	0.113368	-0.010053
C14	C	0.284846	0.120308	-0.010662
C15	C	0.316215	0.195009	-0.017288
C16	C	0.266036	0.262774	-0.023296
C17	C	0.184493	0.255833	-0.022680
C18	C	0.561952	0.219529	-0.019459
C19	C	0.643501	0.226464	-0.020078
C20	C	0.662305	0.083998	-0.007442
C21	C	0.580760	0.077064	-0.006832
C22	C	0.530588	0.144829	-0.012834
C23	C	0.399567	0.202104	-0.017914
C24	C	0.447238	0.137733	-0.012201
C25	C	0.929269	0.026088	-0.002313
C26	C	0.927825	-0.061580	0.005452
C27	C	0.927154	-0.102757	-0.084185
C28	C	0.925792	-0.185130	-0.076885
C29	C	0.925105	-0.226324	0.020052
C30	C	0.925773	-0.185140	0.109695
C31	C	0.927130	-0.102769	0.102395
C32	C	0.921003	-0.475033	0.046761
C33	C	0.919648	-0.557410	0.054054
C34	C	0.919666	-0.557394	-0.132527
C35	C	0.921027	-0.475021	-0.139819
C36	C	0.921691	-0.433845	-0.050176
C37	C	0.923715	-0.310522	0.027515
C38	C	0.923075	-0.349647	-0.057640
C39	C	1.066342	0.173749	-0.015402
C40	C	1.153128	0.181128	-0.016063
C41	C	0.917533	0.313745	-0.027811
C42	C	0.918978	0.401412	-0.035583
N43	N	0.923389	0.169905	0.228480
N44	N	0.923420	0.169921	-0.258601
C45	C	0.923408	0.169921	0.648293
C46	C	0.923400	0.169920	0.531488
C47	C	0.923399	0.169914	0.438390
C48	C	0.923391	0.169911	0.321578
H49	H	0.521111	0.274708	-0.024352
O50	O	0.677336	0.307040	-0.027222
H51	H	0.714040	0.313600	0.041941
H52	H	0.927665	-0.069242	0.175387
H53	H	0.919124	-0.590929	-0.205510
H54	H	0.919085	-0.590947	0.132996
H55	H	0.291583	0.323597	-0.028685
O56	O	0.925030	-0.229544	-0.173564
H57	H	0.925731	-0.187060	-0.242196
O58	O	0.925031	-0.229563	0.214254
H59	H	0.978544	-0.217200	0.257892
O60	O	0.921752	-0.430589	-0.244372
H61	H	0.921046	-0.473061	-0.305478
O62	O	0.923812	-0.305224	-0.162193
H63	H	0.977692	-0.271155	-0.169672
H64	H	0.421693	0.076912	-0.006817
H65	H	0.921559	-0.441517	0.119755
H66	H	0.927718	-0.069224	-0.163121
O67	O	0.338961	0.047223	-0.004183
H68	H	0.376549	0.046972	0.065598
O69	O	0.922997	-0.354962	0.132063
H70	H	0.869126	-0.389045	0.139548
H71	H	0.425117	0.262926	-0.023313
H72	H	0.177767	0.052539	-0.004663
O73	O	0.546923	-0.003505	0.000314
H74	H	0.510210	-0.010070	0.070642
O75	O	0.716421	0.010913	-0.000946
H76	H	0.754035	0.010664	-0.070668
O77	O	0.130372	0.328916	-0.029167
H78	H	0.165882	0.382027	-0.033888
