data_functionalizedCrystal
_audit_creation_method	'MofGen! by Chris Wilmer'
_symmetry_space_group_name_H-M	'P1'
_symmetry_Int_Tables_number	1
_symmetry_cell_setting	triclinic
loop_
_symmetry_equiv_pos_as_xyz
  x,y,z
_cell_length_a	14.044191
_cell_length_b	14.044220
_cell_length_c	13.101018
_cell_angle_alpha	93.664400
_cell_angle_beta	86.333122
_cell_angle_gamma	93.190327
loop_
_atom_site_label
_atom_site_type_symbol
_atom_site_fract_x
_atom_site_fract_y
_atom_site_fract_z
O1	O	1.281983	0.225382	-0.085170
O2	O	1.781983	0.725382	0.414830
O3	O	1.005311	0.217069	-0.085182
O4	O	1.505311	0.717069	0.414818
O5	O	1.139494	0.082890	-0.085166
O6	O	1.639494	0.582890	0.414834
O7	O	1.147800	0.359561	-0.085186
O8	O	1.647800	0.859561	0.414814
O9	O	1.129855	0.092525	0.085263
O10	O	1.629855	0.592525	0.585263
O11	O	0.995672	0.226704	0.085247
O12	O	1.495672	0.726704	0.585247
O13	O	1.272344	0.235017	0.085260
O14	O	1.772344	0.735017	0.585260
Zn15	Zn	1.132478	0.232390	0.112313
Zn16	Zn	1.632478	0.732390	0.612313
Zn17	Zn	1.145177	0.219695	-0.112235
Zn18	Zn	1.645177	0.719695	0.387765
O19	O	1.138162	0.369196	0.085243
O20	O	1.638162	0.869196	0.585243
C21	C	0.964870	0.218250	0.000031
C22	C	1.464870	0.718250	0.500031
C23	C	0.858727	0.207402	0.000026
C24	C	1.358727	0.707402	0.500026
C25	C	0.613268	0.264503	0.000032
C26	C	1.113268	0.764503	0.500032
C27	C	0.664393	0.187587	0.000036
C28	C	1.164393	0.687587	0.500036
C29	C	0.772531	0.198615	0.000031
C30	C	1.272531	0.698615	0.500031
C31	C	0.505121	0.253476	0.000038
C32	C	1.005121	0.753476	0.500038
C33	C	1.131038	0.052086	0.000049
C34	C	1.631038	0.552086	0.500049
C35	C	1.120194	-0.054057	0.000050
C36	C	1.620194	0.445943	0.500050
C37	C	1.100368	-0.248396	0.000034
C38	C	1.600368	0.251604	0.500034
C39	C	1.177283	-0.299524	0.000034
C40	C	1.677283	0.200476	0.500034
C41	C	1.166252	-0.407661	0.000026
C42	C	1.666252	0.092339	0.500026
C43	C	1.111398	-0.140250	0.000043
C44	C	1.611398	0.359750	0.500043
C45	C	1.312785	0.233836	0.000044
C46	C	1.812785	0.733836	0.500044
C47	C	1.418929	0.244683	0.000042
C48	C	1.918929	0.744683	0.500042
C49	C	1.146617	0.400000	0.000026
C50	C	1.646617	0.900000	0.500026
C51	C	1.157462	0.506143	0.000019
C52	C	1.657462	1.006143	0.500019
N53	N	1.123818	0.241054	0.265560
N54	N	1.623818	0.741054	0.765560
N55	N	1.153844	0.211025	-0.265483
N56	N	1.653844	0.711025	0.234517
C57	C	1.165622	0.199233	0.525475
C58	C	1.665622	0.699233	1.025475
C59	C	1.112043	0.252843	0.474596
C60	C	1.612043	0.752843	0.974596
C61	C	1.118596	0.246282	0.358278
C62	C	1.618596	0.746282	0.858278
C63	C	1.159070	0.205793	0.641804
C64	C	1.659070	0.705793	1.141804
H65	H	0.626954	0.113451	-0.000031
H66	H	1.126954	0.613451	0.499969
H67	H	0.650710	0.338629	0.000024
H68	H	1.150710	0.838629	0.500024
H69	H	1.251420	-0.262087	-0.000031
H70	H	1.751420	0.237913	0.499969
H71	H	1.061253	0.303669	0.518395
H72	H	1.561253	0.803669	1.018395
C73	C	1.008601	-0.397827	0.000038
C74	C	1.508601	0.102173	0.500038
C75	C	1.000295	-0.298933	0.000038
C76	C	1.500295	0.201067	0.500038
H77	H	0.946819	-0.429032	0.000051
H78	H	1.446819	0.070968	0.500051
H79	H	1.045652	-0.419116	-0.059395
H80	H	1.545652	0.080884	0.440605
H81	H	1.038953	-0.412402	0.059471
H82	H	1.538953	0.087598	0.559471
H83	H	0.969949	-0.284357	-0.059398
H84	H	1.469949	0.215643	0.440602
H85	H	0.963229	-0.277636	0.059477
H86	H	1.463229	0.222364	0.559477
C87	C	1.227527	0.137369	0.360902
C88	C	1.727527	0.637369	0.860902
C89	C	1.234215	0.130653	0.466357
C90	C	1.734215	0.630653	0.966357
H91	H	1.269887	0.095044	0.324399
H92	H	1.769887	0.595044	0.824399
H93	H	1.163914	0.120614	0.343382
H94	H	1.663914	0.620614	0.843382
H95	H	1.244263	0.201004	0.343407
H96	H	1.744263	0.701004	0.843407
H97	H	1.217472	0.067020	0.483853
H98	H	1.717472	0.567020	0.983853
H99	H	1.297843	0.147403	0.483884
H100	H	1.797843	0.647403	0.983884
