data_functionalizedCrystal
_audit_creation_method	'MofGen! by Chris Wilmer'
_symmetry_space_group_name_H-M	'P1'
_symmetry_Int_Tables_number	1
_symmetry_cell_setting	triclinic
loop_
_symmetry_equiv_pos_as_xyz
  x,y,z
_cell_length_a	10.654545
_cell_length_b	14.044209
_cell_length_c	9.730223
_cell_angle_alpha	90.007132
_cell_angle_beta	89.997167
_cell_angle_gamma	91.164484
loop_
_atom_site_label
_atom_site_type_symbol
_atom_site_fract_x
_atom_site_fract_y
_atom_site_fract_z
O1	O	1.681227	-0.133211	-0.114286
O2	O	1.317024	-0.145909	-0.114293
O3	O	1.493660	-0.001539	-0.114270
O4	O	1.504591	-0.277581	-0.114309
O5	O	1.493648	-0.001535	0.114310
O6	O	1.317011	-0.145905	0.114287
O7	O	1.681215	-0.133207	0.114294
Zn8	Zn	1.499111	-0.139555	0.150582
Zn9	Zn	1.499128	-0.139561	-0.150582
O10	O	1.504578	-0.277577	0.114271
C11	C	1.270126	-0.144976	-0.000004
C12	C	1.130402	-0.142189	-0.000005
C13	C	1.064759	-0.140875	0.124595
C14	C	0.933475	-0.138241	0.124595
C15	C	0.933489	-0.138239	-0.124615
C16	C	1.064771	-0.140866	-0.124614
C17	C	1.488869	0.033808	0.000022
C18	C	1.474594	0.139128	0.000028
C19	C	1.448497	0.331961	0.000016
C20	C	1.549746	0.388930	0.000016
C21	C	1.535226	0.496229	0.000009
C22	C	1.463016	0.224652	0.000023
C23	C	1.728113	-0.134141	0.000001
C24	C	1.867836	-0.136927	-0.000006
N25	N	1.499108	-0.139551	0.356119
C26	C	1.509373	0.687076	-0.000013
C27	C	1.523655	0.581757	0.000004
N28	N	1.499139	-0.139557	-0.356118
C29	C	1.577355	-0.075652	0.428055
C30	C	1.577368	-0.075652	0.571938
C31	C	1.420884	-0.203460	0.571936
C32	C	1.420866	-0.203454	0.428056
H33	H	1.647333	0.357118	-0.000076
H34	H	0.880036	-0.137162	-0.226068
H35	H	1.118192	-0.141952	0.226059
H36	H	1.641081	-0.023618	0.630504
H37	H	1.350918	0.363770	0.000012
H38	H	0.880034	-0.137171	0.226057
H39	H	1.118219	-0.141933	-0.226085
N40	N	1.661739	-0.006730	0.350463
H41	H	1.711307	0.033751	0.417872
H42	H	1.608926	0.035546	0.290786
H43	H	1.357182	-0.255490	0.630521
H44	H	1.357142	-0.255489	0.369481
