data_functionalizedCrystal
_audit_creation_method	'MofGen! by Chris Wilmer'
_symmetry_space_group_name_H-M	'P1'
_symmetry_Int_Tables_number	1
_symmetry_cell_setting	triclinic
loop_
_symmetry_equiv_pos_as_xyz
  x,y,z
_cell_length_a	8.497374
_cell_length_b	8.497374
_cell_length_c	12.759401
_cell_angle_alpha	90.000411
_cell_angle_beta	89.998631
_cell_angle_gamma	90.005237
loop_
_atom_site_label
_atom_site_type_symbol
_atom_site_fract_x
_atom_site_fract_y
_atom_site_fract_z
Zn1	Zn	0.628318	0.892051	1.606167
Zn2	Zn	0.892064	0.628317	1.606158
Zn3	Zn	0.628293	0.628284	1.430524
Zn4	Zn	0.892051	0.892054	1.430499
O5	O	0.760181	0.760176	1.518337
O6	O	0.663320	0.857078	1.753187
O7	O	0.857068	0.407550	1.582867
O8	O	0.407534	0.663259	1.453838
O9	O	0.857093	0.663314	1.753181
O10	O	0.407552	0.857047	1.582881
O11	O	0.663277	0.407526	1.453830
O12	O	0.663265	0.663262	1.283500
O13	O	0.857072	1.112816	1.453795
O14	O	0.857047	0.857052	1.283481
O15	O	0.663308	1.112814	1.582857
O16	O	1.112824	0.663317	1.582843
O17	O	1.112815	0.857084	1.453787
C18	C	0.760153	0.760155	1.245370
C19	C	0.760179	0.760183	1.128593
C20	C	0.861259	0.860942	0.964018
C21	C	0.861241	0.860925	1.073742
C22	C	0.659139	0.659439	1.073715
C23	C	0.659166	0.659449	0.963992
C24	C	1.170061	0.760199	1.518324
C25	C	1.348705	0.760173	1.518352
C26	C	0.760184	1.171657	1.518329
C27	C	0.760200	1.350301	1.518332
C28	C	0.760211	0.760199	1.792370
C29	C	0.760223	0.760209	1.909147
H30	H	0.943547	0.942987	0.919366
O31	O	0.560964	0.561795	0.910558
C32	C	0.347966	0.540852	0.786664
C33	C	0.459073	0.651629	0.847101
H34	H	0.265537	0.613439	0.735361
H35	H	0.420237	0.458308	0.735239
H36	H	0.275796	0.468786	0.844716
H37	H	0.531267	0.723796	0.789124
H38	H	0.386711	0.734069	0.898542
O39	O	0.560753	0.561645	1.126875
C40	C	0.292273	0.485506	1.160458
C41	C	0.403522	0.596335	1.100177
H42	H	0.165128	0.513535	1.138912
H43	H	0.319660	0.358237	1.138857
H44	H	0.309682	0.502768	1.248301
H45	H	0.386175	0.579213	1.012320
H46	H	0.376108	0.723563	1.121865
H47	H	0.943516	0.942950	1.118413
