data_functionalizedCrystal
_audit_creation_method	'MofGen! by Chris Wilmer'
_symmetry_space_group_name_H-M	'P1'
_symmetry_Int_Tables_number	1
_symmetry_cell_setting	triclinic
loop_
_symmetry_equiv_pos_as_xyz
  x,y,z
_cell_length_a	42.795324
_cell_length_b	42.779590
_cell_length_c	42.784893
_cell_angle_alpha	119.999958
_cell_angle_beta	90.000498
_cell_angle_gamma	59.987998
loop_
_atom_site_label
_atom_site_type_symbol
_atom_site_fract_x
_atom_site_fract_y
_atom_site_fract_z
O1	O	-0.214288	-0.275767	-0.009302
O2	O	-0.168865	-0.211747	0.009251
O3	O	-0.168848	-0.275766	-0.054754
O4	O	-0.214305	-0.211749	0.054703
O5	O	-0.220834	-0.223766	-0.054750
O6	O	-0.220851	-0.159748	0.009256
O7	O	-0.266274	-0.223767	-0.009298
Zn8	Zn	-0.251816	-0.183501	-0.000020
Zn9	Zn	-0.183323	-0.252013	-0.000027
O10	O	-0.266291	-0.159749	0.054707
C11	C	-0.079112	0.005332	0.028111
C12	C	-0.098001	-0.013389	0.028378
C13	C	-0.022515	-0.051278	0.028115
C14	C	-0.041490	-0.069913	0.028382
C15	C	-0.079101	-0.051276	0.028117
C16	C	-0.041502	-0.013390	0.028377
C17	C	-0.113690	0.131594	0.017853
C18	C	-0.131508	0.167354	0.014952
C19	C	-0.168778	0.185293	0.013497
C20	C	-0.188096	0.224062	0.010345
C21	C	-0.188230	0.167471	0.014946
C22	C	-0.170415	0.131717	0.017851
C23	C	-0.133143	0.113778	0.019304
C24	C	-0.170748	-0.096092	0.017875
C25	C	-0.188679	-0.116808	0.014980
C26	C	-0.169338	-0.155545	0.013527
C27	C	-0.188774	-0.178013	0.010383
C28	C	-0.132063	-0.173563	0.014974
C29	C	-0.114135	-0.152845	0.017876
C30	C	-0.133481	-0.114107	0.019324
C31	C	0.113950	-0.096099	0.017868
C32	C	0.152599	-0.116819	0.014967
C33	C	0.171992	-0.155557	0.013515
C34	C	0.213898	-0.178026	0.010367
C35	C	0.152736	-0.173573	0.014962
C36	C	0.114089	-0.152853	0.017862
C37	C	0.094697	-0.114113	0.019318
C38	C	-0.113826	0.075006	0.022451
C39	C	-0.098429	0.044102	0.024961
C40	C	0.019389	-0.073744	0.024969
C41	C	0.052791	-0.091650	0.022463
C42	C	-0.098540	-0.073741	0.024972
C43	C	-0.114037	-0.091646	0.022467
C44	C	-0.079020	-0.384495	-0.361620
C45	C	-0.041403	-0.422387	-0.380519
C46	C	-0.079020	-0.384496	-0.305021
C47	C	-0.041403	-0.422387	-0.324007
C48	C	-0.022420	-0.441111	-0.361624
C49	C	-0.097917	-0.365858	-0.324003
C50	C	-0.170704	-0.282540	-0.396173
C51	C	-0.188645	-0.261696	-0.413986
C52	C	-0.169305	-0.279587	-0.451262
C53	C	-0.188754	-0.256985	-0.470575
C54	C	-0.132024	-0.318325	-0.470726
C55	C	-0.114087	-0.339168	-0.452914
C56	C	-0.133429	-0.321274	-0.415636
C57	C	0.114068	-0.567387	-0.453312
C58	C	0.152719	-0.603152	-0.471255
C59	C	0.172111	-0.621093	-0.451918
C60	C	0.214020	-0.659866	-0.471366
C61	C	0.152845	-0.603268	-0.414636
C62	C	0.114193	-0.567510	-0.396697
C63	C	0.094807	-0.549569	-0.416039
C64	C	-0.170703	-0.282540	-0.168527
C65	C	-0.188643	-0.261694	-0.129872
C66	C	-0.169303	-0.279584	-0.110483
C67	C	-0.188752	-0.256982	-0.068571
C68	C	-0.132023	-0.318318	-0.129750
C69	C	-0.114085	-0.339162	-0.168404
C70	C	-0.133430	-0.321271	-0.187790
C71	C	-0.113975	-0.343877	-0.396325
C72	C	-0.098470	-0.361893	-0.380931
C73	C	-0.098470	-0.361893	-0.263110
C74	C	-0.113975	-0.343877	-0.229703
C75	C	0.019490	-0.479884	-0.381076
C76	C	0.052896	-0.510792	-0.396582
C77	C	-0.356010	-0.440874	-0.028197
C78	C	-0.393621	-0.422150	-0.028460
C79	C	-0.356026	-0.384258	-0.028191
C80	C	-0.393638	-0.365620	-0.028454
C81	C	-0.412610	-0.384259	-0.028192
C82	C	-0.337123	-0.422149	-0.028459
C83	C	-0.264318	-0.567153	-0.017962
C84	C	-0.246372	-0.602918	-0.015069
C85	C	-0.265702	-0.620859	-0.013616
C86	C	-0.246248	-0.659634	-0.010471
C87	C	-0.302978	-0.603035	-0.015061
C88	C	-0.320918	-0.567276	-0.017959
C89	C	-0.301587	-0.549335	-0.019410
C90	C	-0.549075	-0.339439	-0.017942
C91	C	-0.587723	-0.318722	-0.015043
C92	C	-0.607121	-0.279980	-0.013583
C93	C	-0.649026	-0.257510	-0.010435
C94	C	-0.587865	-0.261960	-0.015027
C95	C	-0.549217	-0.282680	-0.017933
C96	C	-0.529825	-0.321422	-0.019388
C97	C	-0.264384	-0.339434	-0.017940
C98	C	-0.246456	-0.318712	-0.015035
C99	C	-0.265802	-0.279970	-0.013577
C100	C	-0.246366	-0.257499	-0.010426
C101	C	-0.303076	-0.261951	-0.015020
C102	C	-0.321002	-0.282673	-0.017923
C103	C	-0.301651	-0.321417	-0.019386
C104	C	-0.321046	-0.510557	-0.022550
C105	C	-0.336555	-0.479648	-0.025054
C106	C	-0.336589	-0.361790	-0.025042
C107	C	-0.321094	-0.343882	-0.022533
C108	C	-0.454516	-0.361792	-0.025043
C109	C	-0.487918	-0.343885	-0.022535
O110	O	0.337150	-0.223779	-0.009306
O111	O	0.227709	-0.159761	0.009240
O112	O	0.291712	-0.223787	-0.054762
O113	O	0.273148	-0.159752	0.054696
O114	O	0.291723	-0.275780	-0.054757
O115	O	0.227720	-0.211754	0.009245
O116	O	0.337161	-0.275772	-0.009301
Zn117	Zn	0.282442	-0.252018	-0.000027
Zn118	Zn	0.282428	-0.183515	-0.000034
O119	O	0.273158	-0.211745	0.054701
O120	O	-0.266145	0.327673	-0.009342
O121	O	-0.220686	0.236755	0.009214
O122	O	-0.220680	0.236741	-0.054792
O123	O	-0.266150	0.327687	0.054665
O124	O	-0.168708	0.236740	-0.054793
O125	O	-0.168714	0.236754	0.009213
O126	O	-0.214173	0.327672	-0.009343
Zn127	Zn	-0.183192	0.282213	-0.000065
Zn128	Zn	-0.251667	0.282214	-0.000063
O129	O	-0.214178	0.327686	0.054663
O130	O	0.337289	-0.763491	-0.496919
O131	O	0.227839	-0.672559	-0.451462
O132	O	0.291823	-0.672558	-0.451460
O133	O	0.273306	-0.763492	-0.496921
O134	O	0.291824	-0.672559	-0.503445
O135	O	0.227841	-0.672560	-0.503447
O136	O	0.337290	-0.763492	-0.548904
Zn137	Zn	0.282566	-0.718026	-0.534429
Zn138	Zn	0.282564	-0.718025	-0.465937
O139	O	0.273307	-0.763493	-0.548906
O140	O	-0.214310	-0.211744	-0.548617
O141	O	-0.168849	-0.275765	-0.503172
O142	O	-0.168867	-0.211745	-0.503165
O143	O	-0.214291	-0.275764	-0.548624
O144	O	-0.220852	-0.159746	-0.451176
O145	O	-0.220833	-0.223766	-0.451183
O146	O	-0.266294	-0.159746	-0.496628
Zn147	Zn	-0.251818	-0.183500	-0.465651
Zn148	Zn	-0.183325	-0.252010	-0.534149
O149	O	-0.266276	-0.223766	-0.496635
C150	C	-0.412477	0.005353	0.361577
C151	C	-0.393494	-0.013370	0.380472
C152	C	-0.355877	-0.051262	0.304974
C153	C	-0.336979	-0.069900	0.323956
C154	C	-0.355877	-0.051261	0.361573
C155	C	-0.393493	-0.013371	0.323960
C156	C	-0.548964	0.131630	0.396146
C157	C	-0.587616	0.167395	0.413963
C158	C	-0.607006	0.185335	0.451239
C159	C	-0.648917	0.224109	0.470557
C160	C	-0.587740	0.167511	0.470699
C161	C	-0.549090	0.131753	0.452884
C162	C	-0.529702	0.113812	0.415606
C163	C	-0.321313	-0.096082	0.453249
C164	C	-0.303498	-0.116799	0.471188
C165	C	-0.266223	-0.155540	0.451847
C166	C	-0.246905	-0.178010	0.471291
C167	C	-0.246762	-0.173560	0.414565
C168	C	-0.264574	-0.152839	0.396630
C169	C	-0.301854	-0.114098	0.415976
C170	C	-0.321310	-0.096084	0.168484
C171	C	-0.303496	-0.116806	0.129829
C172	C	-0.266220	-0.155546	0.110436
C173	C	-0.246903	-0.178017	0.068524
C174	C	-0.246761	-0.173566	0.129699
C175	C	-0.264577	-0.152844	0.168353
C176	C	-0.301852	-0.114100	0.187743
C177	C	-0.487792	0.075035	0.396290
C178	C	-0.454386	0.044127	0.380893
C179	C	-0.336561	-0.073729	0.263063
C180	C	-0.321165	-0.091637	0.229656
C181	C	-0.336562	-0.073728	0.381020
C182	C	-0.321167	-0.091635	0.396523
C183	C	0.310622	-0.440908	-0.361624
C184	C	0.310882	-0.422188	-0.380524
C185	C	0.310612	-0.384291	-0.305026
C186	C	0.310872	-0.365658	-0.324013
C187	C	0.310610	-0.384299	-0.361629
C188	C	0.310883	-0.422180	-0.324007
C189	C	0.300402	-0.567174	-0.396174
C190	C	0.297512	-0.602937	-0.413986
C191	C	0.296060	-0.620881	-0.451262
C192	C	0.292920	-0.659653	-0.470575
C193	C	0.297502	-0.603061	-0.470726
C194	C	0.300397	-0.567304	-0.452916
C195	C	0.301847	-0.549361	-0.415638
C196	C	0.300354	-0.339495	-0.453317
C197	C	0.297452	-0.318782	-0.471260
C198	C	0.295989	-0.280043	-0.451923
C199	C	0.292838	-0.257577	-0.471372
C200	C	0.297432	-0.262020	-0.414643
C201	C	0.300340	-0.282736	-0.396703
C202	C	0.301799	-0.321475	-0.416044
C203	C	0.300361	-0.339454	-0.168533
C204	C	0.297457	-0.318730	-0.129878
C205	C	0.295995	-0.279991	-0.110491
C206	C	0.292844	-0.257517	-0.068578
C207	C	0.297435	-0.261976	-0.129758
C208	C	0.300338	-0.282700	-0.168411
C209	C	0.301805	-0.321443	-0.187797
C210	C	0.304982	-0.510586	-0.396327
C211	C	0.307483	-0.479679	-0.380934
C212	C	0.307462	-0.361820	-0.263116
C213	C	0.304953	-0.343910	-0.229709
C214	C	0.307459	-0.361837	-0.381081
C215	C	0.304948	-0.343934	-0.396587
C216	C	0.254260	-0.050989	0.361568
C217	C	0.253988	-0.013100	0.380462
C218	C	0.254259	-0.050997	0.304965
C219	C	0.253987	-0.013108	0.323946
C220	C	0.254249	0.005619	0.361562
C221	C	0.253998	-0.069630	0.323951
C222	C	0.264525	-0.152928	0.396140
C223	C	0.267427	-0.173767	0.413957
C224	C	0.268878	-0.155873	0.451233
C225	C	0.272031	-0.178470	0.470551
C226	C	0.267425	-0.117137	0.470691
C227	C	0.264519	-0.096299	0.452876
C228	C	0.263069	-0.114196	0.415598
C229	C	0.264471	0.131893	0.453234
C230	C	0.267361	0.167657	0.471172
C231	C	0.268813	0.185592	0.451830
C232	C	0.271952	0.224364	0.471273
C233	C	0.267370	0.167764	0.414549
C234	C	0.264473	0.132008	0.396615
C235	C	0.263026	0.114072	0.415962
C236	C	0.264520	-0.152961	0.168477
C237	C	0.267425	-0.173811	0.129822
C238	C	0.268875	-0.155925	0.110429
C239	C	0.272026	-0.178531	0.068517
C240	C	0.267424	-0.117193	0.129691
C241	C	0.264521	-0.096346	0.168344
C242	C	0.263065	-0.114232	0.187735
C243	C	0.259921	-0.091599	0.396282
C244	C	0.257411	-0.073586	0.380884
C245	C	0.257408	-0.073603	0.263055
C246	C	0.259918	-0.091622	0.229647
C247	C	0.257388	0.044391	0.381009
C248	C	0.259889	0.075297	0.396510
C249	C	-0.022478	-0.051362	-0.361660
C250	C	-0.041451	-0.070002	-0.380558
C251	C	-0.079081	0.005260	-0.305060
C252	C	-0.097967	-0.013466	-0.324043
C253	C	-0.079063	-0.051362	-0.361660
C254	C	-0.041468	-0.013467	-0.324044
C255	C	0.113988	-0.096187	-0.396223
C256	C	0.152637	-0.116906	-0.414038
C257	C	0.172033	-0.155651	-0.451314
C258	C	0.213941	-0.178123	-0.470630
C259	C	0.152778	-0.173673	-0.470775
C260	C	0.114131	-0.152950	-0.452962
C261	C	0.094736	-0.114205	-0.415684
C262	C	-0.113586	-0.153326	-0.453339
C263	C	-0.131390	-0.174172	-0.471279
C264	C	-0.168660	-0.156282	-0.451940
C265	C	-0.187965	-0.178882	-0.471386
C266	C	-0.188127	-0.117540	-0.414659
C267	C	-0.170327	-0.096692	-0.396722
C268	C	-0.133052	-0.114591	-0.416067
C269	C	-0.113673	0.131553	-0.168569
C270	C	-0.131493	0.167320	-0.129914
C271	C	-0.168765	0.185263	-0.110524
C272	C	-0.188088	0.224042	-0.068611
C273	C	-0.188214	0.167436	-0.129788
C274	C	-0.170392	0.131669	-0.168441
C275	C	-0.133122	0.113733	-0.187830
C276	C	0.052831	-0.091740	-0.396370
C277	C	0.019427	-0.073831	-0.380974
C278	C	-0.098402	0.044039	-0.263149
C279	C	-0.113803	0.074951	-0.229742
C280	C	-0.098365	-0.073966	-0.381109
C281	C	-0.113751	-0.091984	-0.396613
O282	O	0.273124	-0.159827	-0.496921
O283	O	0.291693	-0.223838	-0.451465
O284	O	0.227688	-0.159834	-0.451470
O285	O	0.337129	-0.223831	-0.496916
O286	O	0.227714	-0.211845	-0.503460
O287	O	0.291719	-0.275849	-0.503455
O288	O	0.273150	-0.211838	-0.548911
Zn289	Zn	0.282439	-0.252102	-0.534437
Zn290	Zn	0.282404	-0.183575	-0.465939
O291	O	0.337155	-0.275842	-0.548906
C292	C	-0.356042	0.615789	0.361531
C293	C	-0.393655	0.634429	0.380429
C294	C	-0.356024	0.559167	0.304931
C295	C	-0.393637	0.577893	0.323915
C296	C	-0.412627	0.615789	0.361531
C297	C	-0.337138	0.577893	0.323915
C298	C	-0.264400	0.660614	0.396093
C299	C	-0.246470	0.681333	0.413908
C300	C	-0.265818	0.720078	0.451184
C301	C	-0.246382	0.742551	0.470499
C302	C	-0.303094	0.738100	0.470645
C303	C	-0.321019	0.717377	0.452832
C304	C	-0.301670	0.678632	0.415554
C305	C	-0.549111	0.717753	0.453212
C306	C	-0.587760	0.738598	0.471152
C307	C	-0.607141	0.720708	0.451813
C308	C	-0.649046	0.743309	0.471259
C309	C	-0.587868	0.681966	0.414532
C310	C	-0.549219	0.661118	0.396595
C311	C	-0.529843	0.679018	0.415939
C312	C	-0.264327	0.432873	0.168440
C313	C	-0.246381	0.397107	0.129785
C314	C	-0.265711	0.379164	0.110395
C315	C	-0.246256	0.340385	0.068483
C316	C	-0.302986	0.396991	0.129660
C317	C	-0.320930	0.432757	0.168313
C318	C	-0.301595	0.450694	0.187701
C319	C	-0.321110	0.656167	0.396240
C320	C	-0.336605	0.638258	0.380845
C321	C	-0.336568	0.520388	0.263021
C322	C	-0.321057	0.489476	0.229614
C323	C	-0.454533	0.638393	0.380981
C324	C	-0.487936	0.656411	0.396485
H325	H	-0.083787	-0.167516	0.019056
C326	C	-0.131385	-0.209129	0.044358
C327	C	-0.110802	-0.216141	0.013381
H328	H	-0.118260	-0.235417	0.043371
H329	H	-0.133707	-0.185859	0.067630
H330	H	-0.156148	-0.201364	0.043077
H331	H	-0.086040	-0.223903	0.014664
H332	H	-0.108476	-0.239419	-0.009897
H333	H	-0.318843	0.769645	0.500995
C334	C	-0.045442	-0.419089	-0.434892
C335	C	-0.020827	-0.443542	-0.422243
H336	H	-0.032738	-0.432148	-0.460648
H337	H	-0.067670	-0.418935	-0.433435
H338	H	-0.052608	-0.389599	-0.419173
H339	H	-0.013663	-0.473031	-0.437960
H340	H	0.001408	-0.443700	-0.423703
H341	H	-0.248573	-0.552549	-0.019145
C342	C	-0.201447	-0.220044	-0.171886
C343	C	-0.191962	-0.262875	-0.189838
H344	H	-0.214567	-0.207907	-0.185047
H345	H	-0.217465	-0.202088	-0.146113
H346	H	-0.178738	-0.221091	-0.172331
H347	H	-0.214671	-0.261827	-0.189391
H348	H	-0.175943	-0.280835	-0.215618
C349	C	-0.230047	0.154549	-0.109126
C350	C	-0.229183	0.187157	-0.108474
H351	H	-0.255338	0.166725	-0.095966
H352	H	-0.222219	0.130703	-0.134901
H353	H	-0.213172	0.144111	-0.096949
H354	H	-0.246055	0.197593	-0.120654
H355	H	-0.237016	0.211011	-0.082694
H356	H	-0.116281	-0.332889	-0.501076
H357	H	-0.603659	-0.230417	-0.013842
C358	C	-0.205366	-0.619060	0.020836
C359	C	-0.205404	-0.622505	-0.013475
H360	H	-0.180073	-0.631154	0.021819
H361	H	-0.221683	-0.588832	0.041846
H362	H	-0.214311	-0.634865	0.022110
H363	H	-0.196462	-0.606698	-0.014747
H364	H	-0.189081	-0.652739	-0.034491
C365	C	0.054997	-0.512745	-0.344062
C366	C	0.093017	-0.547921	-0.355722
H367	H	0.041923	-0.500655	-0.318766
H368	H	0.054499	-0.490580	-0.344610
H369	H	0.042781	-0.523148	-0.360898
H370	H	0.105233	-0.537517	-0.338887
H371	H	0.093516	-0.570090	-0.355171
C372	C	0.235674	-0.054695	0.126333
C373	C	0.269017	-0.097529	0.108377
H374	H	0.236660	-0.042555	0.113176
H375	H	0.214012	-0.055736	0.125891
H376	H	0.233742	-0.036742	0.152109
H377	H	0.270947	-0.115483	0.082602
H378	H	0.290684	-0.096490	0.108815
H379	H	-0.408867	0.562219	0.308672
H380	H	-0.408852	-0.437823	-0.028887
H381	H	0.263297	0.117496	0.366262
C382	C	-0.071865	0.144497	0.051404
C383	C	-0.072725	0.111882	0.019456
H384	H	-0.046575	0.132325	0.052394
H385	H	-0.079691	0.168338	0.049465
H386	H	-0.088742	0.154941	0.074019
H387	H	-0.055850	0.101440	-0.003160
H388	H	-0.064893	0.088033	0.021392
C389	C	0.304817	-0.396457	-0.450959
C390	C	0.301964	-0.382080	-0.474577
H391	H	0.305809	-0.422745	-0.464083
H392	H	0.327428	-0.402199	-0.444530
H393	H	0.283143	-0.374178	-0.428249
H394	H	0.323640	-0.404358	-0.497286
H395	H	0.279351	-0.376340	-0.481012
H396	H	-0.408899	0.664922	0.411337
H397	H	0.168528	-0.205116	0.013781
H398	H	0.296243	-0.230430	-0.113970
H399	H	0.098412	-0.167525	0.019042
C400	C	-0.239712	0.583730	0.355146
C401	C	-0.243129	0.618023	0.355120
H402	H	-0.226584	0.557438	0.329851
H403	H	-0.225758	0.578990	0.371413
H404	H	-0.264479	0.591503	0.364186
H405	H	-0.218362	0.610252	0.346083
H406	H	-0.257083	0.622763	0.338847
H407	H	-0.533288	-0.370984	-0.019129
H408	H	-0.408734	0.002307	0.411383
C409	C	-0.375189	0.775571	0.510700
C410	C	-0.361991	0.737187	0.474221
H411	H	-0.400485	0.787802	0.523903
H412	H	-0.358883	0.768467	0.524610
H413	H	-0.375155	0.796477	0.508326
H414	H	-0.362022	0.716278	0.476596
H415	H	-0.378301	0.744289	0.460309
C416	C	-0.171260	0.067519	-0.203184
C417	C	-0.191772	0.112078	-0.189615
H418	H	-0.184461	0.055426	-0.216253
H419	H	-0.146516	0.051718	-0.220262
H420	H	-0.168896	0.065196	-0.182236
H421	H	-0.194133	0.114400	-0.210564
H422	H	-0.216522	0.127883	-0.172536
C423	C	0.304803	-0.289304	-0.344073
C424	C	0.301940	-0.262936	-0.355732
H425	H	0.305796	-0.277082	-0.318781
H426	H	0.283138	-0.290338	-0.344613
H427	H	0.327422	-0.318372	-0.360915
H428	H	0.279319	-0.233868	-0.338891
H429	H	0.323607	-0.261896	-0.355189
C430	C	0.260064	-0.146142	0.227787
C431	C	0.262923	-0.172621	0.189792
H432	H	0.259076	-0.158277	0.240947
H433	H	0.281728	-0.145106	0.228225
H434	H	0.237444	-0.117084	0.239958
H435	H	0.285545	-0.201678	0.177620
H436	H	0.241257	-0.173662	0.189351
C437	C	0.293078	-0.657696	-0.416097
C438	C	0.295923	-0.622520	-0.392592
H439	H	0.292099	-0.669787	-0.402889
H440	H	0.270462	-0.647297	-0.422531
H441	H	0.314747	-0.679865	-0.438811
H442	H	0.274252	-0.600350	-0.369879
H443	H	0.318542	-0.632919	-0.386153
C444	C	-0.201269	0.096798	-0.013909
C445	C	-0.191794	0.112127	0.019441
H446	H	-0.214465	0.084701	-0.012929
H447	H	-0.217213	0.120661	-0.015842
H448	H	-0.178550	0.074631	-0.035574
H449	H	-0.214513	0.134298	0.041105
H450	H	-0.175849	0.088262	0.021377
H451	H	0.263292	0.117294	0.468989
C452	C	0.270953	-0.252427	-0.203158
C453	C	0.301925	-0.262900	-0.189589
H454	H	0.271932	-0.240200	-0.216230
H455	H	0.272241	-0.278462	-0.220234
H456	H	0.247681	-0.231509	-0.182210
H457	H	0.325198	-0.283821	-0.210537
H458	H	0.300641	-0.236862	-0.172511
C459	C	0.173067	-0.095561	-0.359166
C460	C	0.173802	-0.097102	-0.392646
H461	H	0.186136	-0.083337	-0.345961
H462	H	0.147276	-0.077674	-0.343225
H463	H	0.185296	-0.124629	-0.365609
H464	H	0.161570	-0.068034	-0.386203
H465	H	0.199598	-0.114990	-0.408591
H466	H	-0.216121	0.666658	0.398059
C467	C	-0.204904	-0.248969	0.359825
C468	C	-0.205788	-0.216141	0.393303
H469	H	-0.179608	-0.275256	0.346698
H470	H	-0.221770	-0.254713	0.366257
H471	H	-0.212730	-0.239202	0.343812
H472	H	-0.197965	-0.225906	0.409318
H473	H	-0.188916	-0.210397	0.386872
H474	H	-0.115667	0.181861	0.013772
H475	H	-0.408882	-0.335128	-0.028875
C476	C	0.264810	-0.210993	0.341853
C477	C	0.262926	-0.172598	0.355167
H478	H	0.263821	-0.223132	0.316560
H479	H	0.288084	-0.231954	0.341839
H480	H	0.243799	-0.203927	0.358128
H481	H	0.283939	-0.179664	0.338894
H482	H	0.239650	-0.151632	0.355178
C483	C	-0.204908	-0.248979	0.109035
C484	C	-0.205787	-0.216153	0.108382
H485	H	-0.179614	-0.275271	0.095872
H486	H	-0.212731	-0.239217	0.134809
H487	H	-0.221780	-0.254717	0.096859
H488	H	-0.188917	-0.210413	0.120560
H489	H	-0.197960	-0.225917	0.082603
C490	C	-0.282749	-0.480576	-0.029203
C491	C	-0.295407	-0.443299	-0.029031
H492	H	-0.256996	-0.493631	-0.029556
H493	H	-0.298461	-0.472019	-0.006885
H494	H	-0.284199	-0.501361	-0.051288
H495	H	-0.293959	-0.422511	-0.006944
H496	H	-0.279690	-0.451855	-0.051352
H497	H	-0.318712	-0.617647	-0.013880
C498	C	0.211781	-0.123382	0.010524
C499	C	0.173764	-0.097015	0.013377
H500	H	0.224847	-0.111155	0.009542
H501	H	0.212271	-0.124425	0.032190
H502	H	0.224009	-0.152448	-0.012101
H503	H	0.161535	-0.067950	0.036003
H504	H	0.173272	-0.095967	-0.008291
H505	H	-0.115654	0.181831	-0.114231
H506	H	0.296277	-0.333458	-0.501613
C507	C	0.238059	-0.209407	0.413076
C508	C	0.269028	-0.216345	0.392567
H509	H	0.239048	-0.235694	0.399868
H510	H	0.239340	-0.201735	0.437822
H511	H	0.214785	-0.186092	0.415441
H512	H	0.292303	-0.239658	0.390204
H513	H	0.267751	-0.224024	0.367815
C514	C	-0.134362	-0.311490	-0.070435
C515	C	-0.110751	-0.337970	-0.108433
H516	H	-0.121227	-0.323619	-0.057275
H517	H	-0.140811	-0.282432	-0.058272
H518	H	-0.157059	-0.310469	-0.069989
H519	H	-0.088056	-0.338989	-0.108879
H520	H	-0.104297	-0.367036	-0.120600
C521	C	-0.553238	-0.224492	-0.017624
C522	C	-0.528054	-0.262873	-0.019518
H523	H	-0.540172	-0.212262	-0.018600
H524	H	-0.562438	-0.231600	-0.038638
H525	H	-0.574180	-0.203583	0.005653
H526	H	-0.507114	-0.283783	-0.042797
H527	H	-0.518848	-0.255767	0.001497
H528	H	0.168574	-0.205218	-0.501125
H529	H	-0.306244	0.562243	0.308665
C530	C	0.253245	-0.016414	0.266272
C531	C	0.253410	0.008042	0.303370
H532	H	0.252887	-0.003355	0.253572
H533	H	0.275564	-0.045900	0.252507
H534	H	0.231166	-0.016565	0.267580
H535	H	0.275490	0.008191	0.302062
H536	H	0.231088	0.037536	0.317138
C537	C	-0.375165	-0.224492	-0.017626
C538	C	-0.361971	-0.262870	-0.019515
H539	H	-0.400457	-0.212269	-0.018612
H540	H	-0.375140	-0.203580	0.005651
H541	H	-0.358850	-0.231604	-0.038640
H542	H	-0.378285	-0.255758	0.001500
H543	H	-0.361999	-0.283786	-0.042794
H544	H	-0.216107	-0.333385	-0.013858
C545	C	-0.334373	-0.054156	0.126687
C546	C	-0.324885	-0.096998	0.108656
H547	H	-0.347575	-0.041928	0.113615
H548	H	-0.350317	-0.036275	0.152478
H549	H	-0.311660	-0.055212	0.126191
H550	H	-0.347598	-0.095942	0.109155
H551	H	-0.308940	-0.114883	0.082858
H552	H	0.296246	-0.230480	-0.398900
C553	C	-0.206618	-0.393452	-0.017651
C554	C	-0.243117	-0.382016	-0.019538
H555	H	-0.193493	-0.419737	-0.018634
H556	H	-0.192661	-0.398203	-0.038664
H557	H	-0.208949	-0.370174	0.005627
H558	H	-0.240786	-0.405293	-0.042818
H559	H	-0.257078	-0.377267	0.001476
C560	C	0.011951	-0.443771	-0.301535
C561	C	-0.020818	-0.443546	-0.303442
H562	H	0.024661	-0.456833	-0.288840
H563	H	0.028638	-0.460352	-0.326704
H564	H	0.004777	-0.414278	-0.287762
H565	H	-0.013643	-0.473040	-0.317217
H566	H	-0.037508	-0.426966	-0.278268
H567	H	-0.083734	-0.370708	-0.468764
C568	C	-0.375068	-0.570981	-0.017658
C569	C	-0.361889	-0.547684	-0.019546
H570	H	-0.400363	-0.558882	-0.018634
H571	H	-0.358754	-0.601207	-0.038673
H572	H	-0.375031	-0.568646	0.005618
H573	H	-0.361924	-0.550022	-0.042823
H574	H	-0.378208	-0.517450	0.001471
C575	C	-0.253968	-0.055040	-0.383926
C576	C	-0.229097	-0.097869	-0.393400
H577	H	-0.279261	-0.042898	-0.370803
H578	H	-0.246151	-0.037085	-0.367910
H579	H	-0.253365	-0.056092	-0.406642
H580	H	-0.229698	-0.096816	-0.370684
H581	H	-0.236916	-0.115827	-0.409417
C582	C	-0.192230	0.400807	0.133793
C583	C	-0.205409	0.377510	0.108611
H584	H	-0.166933	0.388705	0.120722
H585	H	-0.208541	0.431032	0.142997
H586	H	-0.192271	0.398476	0.154737
H587	H	-0.205369	0.379844	0.087669
H588	H	-0.189093	0.347278	0.099402
H589	H	-0.115536	-0.205716	-0.501632
C590	C	-0.241279	-0.204599	-0.070672
C591	C	-0.229620	-0.219117	-0.108694
H592	H	-0.266577	-0.178313	-0.057599
H593	H	-0.240719	-0.226824	-0.070182
H594	H	-0.224453	-0.198806	-0.058449
H595	H	-0.246445	-0.224913	-0.120918
H596	H	-0.230183	-0.196887	-0.109186
H597	H	0.268605	-0.102570	0.501042
H598	H	-0.248582	0.447477	0.184224
H599	H	-0.533181	0.117027	0.365794
C600	C	-0.552887	0.775824	0.510985
C601	C	-0.527812	0.737423	0.474476
H602	H	-0.539736	0.787964	0.524111
H603	H	-0.573830	0.796782	0.508664
H604	H	-0.562097	0.768766	0.524942
H605	H	-0.518605	0.744481	0.460518
H606	H	-0.506863	0.716460	0.476795
C607	C	0.300905	0.154861	0.359807
C608	C	0.268962	0.187477	0.393286
H609	H	0.301888	0.167030	0.346679
H610	H	0.323517	0.144419	0.366239
H611	H	0.298971	0.131016	0.343795
H612	H	0.270898	0.211321	0.409299
H613	H	0.246345	0.197925	0.386855
C614	C	-0.209713	-0.174182	0.354847
C615	C	-0.243184	-0.172643	0.355654
H616	H	-0.196508	-0.186411	0.329549
H617	H	-0.216159	-0.145118	0.371679
H618	H	-0.193771	-0.192069	0.362759
H619	H	-0.259128	-0.154754	0.347744
H620	H	-0.236739	-0.201712	0.338816
H621	H	-0.603449	0.770142	0.501505
H622	H	-0.128820	-0.335360	-0.308757
H623	H	-0.603398	-0.333395	-0.013865
C624	C	-0.583608	0.163693	0.356097
C625	C	-0.608788	0.186990	0.392576
H626	H	-0.596680	0.175792	0.342894
H627	H	-0.562674	0.166026	0.358469
H628	H	-0.574399	0.133464	0.342186
H629	H	-0.617995	0.217219	0.406489
H630	H	-0.629729	0.184662	0.390206
H631	H	-0.318829	-0.230404	-0.013832
C632	C	0.173152	-0.590049	-0.513025
C633	C	0.173895	-0.622736	-0.512228
H634	H	0.186226	-0.602140	-0.538320
H635	H	0.147359	-0.566190	-0.505109
H636	H	0.185372	-0.579656	-0.496188
H637	H	0.161672	-0.633128	-0.529063
H638	H	0.199692	-0.646604	-0.520148
H639	H	-0.186457	-0.267967	-0.365821
H640	H	-0.306072	-0.100390	0.308712
H641	H	-0.603530	0.182123	0.501050
C642	C	0.079172	-0.503107	-0.453994
C643	C	0.092759	-0.547675	-0.474576
H644	H	0.066019	-0.490939	-0.467123
H645	H	0.062168	-0.487376	-0.429230
H646	H	0.100117	-0.500784	-0.451679
H647	H	0.071814	-0.549998	-0.476889
H648	H	0.109765	-0.563411	-0.499347
H649	H	-0.218998	-0.230157	-0.398136
H650	H	-0.603647	0.667396	0.398788
C651	C	-0.385944	0.496911	0.203058
C652	C	-0.361901	0.452352	0.189490
H653	H	-0.411239	0.509007	0.216130
H654	H	-0.376999	0.512709	0.220134
H655	H	-0.385906	0.499234	0.182110
H656	H	-0.361937	0.450030	0.210439
H657	H	-0.370849	0.436549	0.172413
C658	C	0.253276	-0.016408	0.434830
C659	C	0.253431	0.008047	0.422179
H660	H	0.252940	-0.003358	0.460581
H661	H	0.231194	-0.016549	0.433392
H662	H	0.275593	-0.045901	0.419101
H663	H	0.231113	0.037539	0.437907
H664	H	0.275515	0.008192	0.423621
H665	H	0.301583	-0.552569	-0.365822
C666	C	-0.553205	0.607233	0.342429
C667	C	-0.528036	0.618537	0.355619
H668	H	-0.540128	0.580948	0.317130
H669	H	-0.562408	0.602533	0.358741
H670	H	-0.574147	0.630551	0.342465
H671	H	-0.507096	0.595221	0.355586
H672	H	-0.518828	0.623235	0.339303
C673	C	-0.451162	0.045061	0.328004
C674	C	-0.414065	0.007783	0.303386
H675	H	-0.463860	0.058120	0.315303
H676	H	-0.464922	0.036504	0.335160
H677	H	-0.449863	0.065843	0.350244
H678	H	-0.415364	-0.013001	0.281148
H679	H	-0.400302	0.016339	0.296225
H680	H	0.263334	-0.064760	0.468721
C681	C	0.212150	-0.658138	-0.416996
C682	C	0.174156	-0.622987	-0.393379
H683	H	0.225307	-0.670308	-0.403870
H684	H	0.212597	-0.680254	-0.439704
H685	H	0.224315	-0.647686	-0.423424
H686	H	0.161990	-0.633439	-0.386953
H687	H	0.173707	-0.600866	-0.370664
H688	H	-0.083237	-0.167902	-0.469093
C689	C	-0.059918	-0.393036	-0.164401
C690	C	-0.073107	-0.381735	-0.189580
H691	H	-0.034619	-0.419319	-0.177474
H692	H	-0.059965	-0.369717	-0.143458
H693	H	-0.076224	-0.397743	-0.155198
H694	H	-0.056802	-0.377024	-0.198780
H695	H	-0.073057	-0.405059	-0.210529
H696	H	-0.318725	0.382379	0.113870
C697	C	-0.209715	-0.174184	0.188794
C698	C	-0.243184	-0.172649	0.189526
H699	H	-0.196509	-0.186408	0.201867
H700	H	-0.193775	-0.192068	0.163000
H701	H	-0.216165	-0.145114	0.201023
H702	H	-0.236734	-0.201719	0.177294
H703	H	-0.259128	-0.154765	0.215324
H704	H	-0.351659	-0.064533	0.184271
H705	H	0.311310	-0.437847	-0.308765
H706	H	-0.533406	0.117245	0.468731
H707	H	0.098163	-0.064556	0.019052
C708	C	-0.375603	-0.042053	0.511024
C709	C	-0.362286	-0.053495	0.474515
H710	H	-0.400897	-0.015761	0.524151
H711	H	-0.375609	-0.065322	0.508703
H712	H	-0.359337	-0.037308	0.524979
H713	H	-0.378550	-0.058243	0.460558
H714	H	-0.362283	-0.030221	0.476834
H715	H	-0.319345	-0.102125	0.501541
H716	H	0.296282	-0.333400	-0.114193
C717	C	0.237977	0.231806	0.536194
C718	C	0.268953	0.187244	0.512145
H719	H	0.238960	0.243894	0.561490
H720	H	0.239256	0.247604	0.527244
H721	H	0.214707	0.234139	0.536162
H722	H	0.292223	0.184910	0.512175
H723	H	0.267678	0.171441	0.521098
C724	C	0.311614	-0.312017	-0.266347
C725	C	0.311444	-0.324503	-0.303445
H726	H	0.311971	-0.286613	-0.253653
H727	H	0.289297	-0.305399	-0.252577
H728	H	0.333695	-0.335568	-0.267655
H729	H	0.289361	-0.300953	-0.302137
H730	H	0.333763	-0.331119	-0.317218
H731	H	0.311314	-0.437866	-0.411432
C732	C	0.300088	-0.393472	-0.164768
C733	C	0.301970	-0.382038	-0.189841
H734	H	0.301079	-0.419759	-0.177924
H735	H	0.321096	-0.398218	-0.155557
H736	H	0.276811	-0.370194	-0.143821
H737	H	0.325249	-0.405315	-0.210787
H738	H	0.280961	-0.377295	-0.199058
C739	C	0.016224	-0.123661	-0.434929
C740	C	-0.020869	-0.111172	-0.422279
H741	H	0.028931	-0.149079	-0.460683
H742	H	0.014918	-0.100122	-0.433479
H743	H	0.029982	-0.130258	-0.419207
H744	H	-0.034628	-0.104572	-0.437999
H745	H	-0.019564	-0.134716	-0.423732
C746	C	0.293060	-0.657932	-0.523221
C747	C	0.295906	-0.622783	-0.511697
H748	H	0.292072	-0.670104	-0.548515
H749	H	0.314729	-0.680048	-0.522625
H750	H	0.270444	-0.647477	-0.506340
H751	H	0.318524	-0.633239	-0.528577
H752	H	0.274235	-0.600663	-0.512296
C753	C	0.300094	-0.571016	-0.510786
C754	C	0.301980	-0.547718	-0.474308
H755	H	0.301068	-0.558920	-0.523991
H756	H	0.321108	-0.601242	-0.524694
H757	H	0.276822	-0.568678	-0.508411
H758	H	0.325253	-0.550058	-0.476683
H759	H	0.280964	-0.517484	-0.460397
H760	H	0.268611	-0.205351	0.114140
C761	C	0.016173	-0.123546	0.029140
C762	C	-0.020917	-0.111064	0.028966
H763	H	0.028871	-0.148947	0.029505
H764	H	0.029941	-0.130166	0.006817
H765	H	0.014860	-0.099992	0.051220
H766	H	-0.019603	-0.134617	0.006885
H767	H	-0.034687	-0.104446	0.051292
C768	C	0.253269	-0.123271	0.327995
C769	C	0.253435	-0.110790	0.303377
H770	H	0.252920	-0.148679	0.315293
H771	H	0.275584	-0.129878	0.335152
H772	H	0.231186	-0.099721	0.350234
H773	H	0.275519	-0.134339	0.281139
H774	H	0.231117	-0.104186	0.296215
C775	C	0.296261	-0.062318	0.171483
C776	C	0.262921	-0.053770	0.189516
H777	H	0.295272	-0.036032	0.184553
H778	H	0.317925	-0.084539	0.171979
H779	H	0.298194	-0.072174	0.145689
H780	H	0.260991	-0.043917	0.215310
H781	H	0.241252	-0.031541	0.189025
H782	H	-0.128873	0.002211	-0.308802
H783	H	-0.026235	0.002203	-0.308804
H784	H	-0.083330	0.116959	-0.184356
C785	C	0.093317	-0.020772	-0.354380
C786	C	0.092670	-0.053597	-0.355250
H787	H	0.080154	0.005520	-0.329085
H788	H	0.119087	-0.030535	-0.362204
H789	H	0.081143	-0.015035	-0.371257
H790	H	0.104847	-0.059336	-0.338374
H791	H	0.066896	-0.043832	-0.347421
C792	C	0.118154	-0.211146	-0.510828
C793	C	0.092969	-0.172762	-0.474350
H794	H	0.105089	-0.223379	-0.524030
H795	H	0.127354	-0.204043	-0.524739
H796	H	0.139095	-0.232052	-0.508453
H797	H	0.072029	-0.151855	-0.476725
H798	H	0.083763	-0.179863	-0.460436
H799	H	-0.186180	-0.065148	-0.366370
C800	C	-0.240726	0.222335	0.010488
C801	C	-0.229195	0.187188	0.013345
H802	H	-0.266015	0.234504	0.009497
H803	H	-0.240136	0.244454	0.032157
H804	H	-0.223847	0.211879	-0.012133
H805	H	-0.246071	0.197644	0.035967
H806	H	-0.229787	0.165065	-0.008327
H807	H	-0.186503	-0.064551	0.019056
H808	H	-0.128905	0.002286	0.028809
C809	C	-0.242838	-0.058635	0.015265
C810	C	-0.229646	-0.097008	0.013383
H811	H	-0.268128	-0.046414	0.014275
H812	H	-0.242814	-0.037720	0.038541
H813	H	-0.226519	-0.065751	-0.005750
H814	H	-0.245963	-0.089891	0.034400
H815	H	-0.229672	-0.117927	-0.009895
H816	H	-0.026270	0.002282	0.028804
