data_functionalizedCrystal
_audit_creation_method	'MofGen! by Chris Wilmer'
_symmetry_space_group_name_H-M	'P1'
_symmetry_Int_Tables_number	1
_symmetry_cell_setting	triclinic
loop_
_symmetry_equiv_pos_as_xyz
  x,y,z
_cell_length_a	19.188930
_cell_length_b	19.288865
_cell_length_c	17.766277
_cell_angle_alpha	90.011603
_cell_angle_beta	89.976758
_cell_angle_gamma	96.859488
loop_
_atom_site_label
_atom_site_type_symbol
_atom_site_fract_x
_atom_site_fract_y
_atom_site_fract_z
O1	O	0.926143	-0.086718	-0.062845
O2	O	0.722831	-0.098391	-0.062794
O3	O	0.830362	0.008575	-0.062806
O4	O	0.818612	-0.193685	-0.062833
O5	O	0.830343	0.008581	0.062382
O6	O	0.722812	-0.098386	0.062394
O7	O	0.926124	-0.086712	0.062344
Cu8	Cu	0.824466	-0.092549	0.073800
Cu9	Cu	0.824489	-0.092555	-0.074250
O10	O	0.818593	-0.193679	0.062356
C11	C	0.696811	-0.098011	-0.000193
C12	C	0.619306	-0.096876	-0.000173
C13	C	0.574377	-0.159640	-0.000194
C14	C	0.501554	-0.158574	-0.000202
C15	C	0.473662	-0.094740	-0.000205
C16	C	0.518600	-0.031967	-0.000180
C17	C	0.591423	-0.033035	-0.000165
N18	N	0.365692	-0.045949	-0.042836
N19	N	0.296513	-0.044938	-0.042852
C20	C	0.254254	-0.091519	-0.000250
N21	N	0.283784	-0.139158	0.042359
N22	N	0.352969	-0.140170	0.042372
C23	C	0.394700	-0.093575	-0.000221
C24	C	0.130361	-0.153132	-0.000278
C25	C	0.057536	-0.152063	-0.000282
C26	C	0.074584	-0.025454	-0.000268
C27	C	0.147407	-0.026525	-0.000257
C28	C	0.175291	-0.090365	-0.000266
C29	C	0.829974	0.034454	-0.000209
C30	C	0.828839	0.111558	-0.000203
C31	C	0.952145	-0.087093	-0.000259
C32	C	1.029649	-0.088228	-0.000284
C33	C	0.818981	-0.219558	-0.000243
C34	C	0.820116	-0.296662	-0.000255
N35	N	0.824456	-0.092544	0.177930
C36	C	0.891934	0.156250	-0.000215
C37	C	0.890867	0.228697	-0.000226
C38	C	0.826703	0.256449	-0.000211
C39	C	0.763601	0.211748	-0.000203
C40	C	0.764669	0.139302	-0.000199
C41	C	0.776256	0.364742	0.043653
C42	C	0.775191	0.437187	0.043653
C43	C	0.823407	0.479895	-0.000227
C44	C	0.872700	0.450151	-0.044098
C45	C	0.873768	0.377706	-0.044093
C46	C	0.825538	0.335003	-0.000216
C47	C	0.885349	0.603143	-0.000252
C48	C	0.884280	0.675591	-0.000269
C49	C	0.757012	0.658640	-0.000238
C50	C	0.758083	0.586194	-0.000229
C51	C	0.822253	0.558449	-0.000233
N52	N	0.824505	-0.092555	-0.178381
C53	C	0.872086	-0.045202	0.217312
C54	C	0.872090	-0.045199	0.296114
C55	C	0.824471	-0.092549	0.335531
C56	C	0.776832	-0.139895	0.296139
C57	C	0.776824	-0.139892	0.217339
C58	C	0.815123	-0.155836	0.460362
C59	C	0.815136	-0.155840	0.539160
C60	C	0.824489	-0.092558	0.578577
C61	C	0.833845	-0.029269	0.539185
C62	C	0.833838	-0.029266	0.460385
C63	C	0.824473	-0.092557	0.420976
C64	C	0.872126	-0.045209	0.703405
C65	C	0.872125	-0.045204	0.782208
C66	C	0.776871	-0.139906	0.782232
C67	C	0.776868	-0.139904	0.703430
C68	C	0.824500	-0.092556	0.664021
H69	H	0.051876	0.026521	-0.000317
H70	H	0.495886	0.020007	-0.000193
H71	H	0.738058	-0.178447	0.328237
H72	H	0.706704	0.549804	-0.000215
H73	H	0.020955	-0.203175	-0.000294
C74	C	0.924510	0.006878	0.660051
H75	H	0.952871	0.035082	0.694795
H76	H	0.953492	-0.018035	0.629290
H77	H	0.899480	0.035732	0.629333
H78	H	0.910909	-0.006649	0.814273
C79	C	0.161036	-0.223352	-0.000280
H80	H	0.123845	-0.260581	-0.000283
H81	H	0.189111	-0.226403	-0.043932
H82	H	0.189067	-0.226397	0.043385
H83	H	0.942248	0.265092	-0.000239
H84	H	0.738037	-0.178444	0.185274
H85	H	0.944186	0.133666	-0.000220
H86	H	0.913902	0.353491	-0.079816
H87	H	0.183989	0.024585	-0.000245
C88	C	0.925736	0.497120	-0.092373
H89	H	0.918036	0.544525	-0.086102
H90	H	0.972104	0.491407	-0.076966
H91	H	0.919776	0.484413	-0.143839
H92	H	0.841454	0.022266	0.428315
H93	H	0.935661	0.711979	-0.000283
C94	C	0.605046	-0.229862	-0.000189
H95	H	0.567854	-0.267090	-0.000195
H96	H	0.633127	-0.232917	-0.043836
H97	H	0.633071	-0.232906	0.043481
C98	C	0.955932	0.572621	-0.000265
H99	H	0.993358	0.609617	-0.000285
H100	H	0.958989	0.544724	0.043393
H101	H	0.958999	0.544701	-0.043924
H102	H	0.736992	0.329974	0.079389
C103	C	0.686433	0.689159	-0.000223
H104	H	0.694832	0.738706	-0.000224
H105	H	0.660469	0.673793	-0.043872
H106	H	0.660457	0.673816	0.043445
C107	C	0.720973	0.469899	0.091909
H108	H	0.692402	0.434088	0.118032
H109	H	0.744685	0.501381	0.127172
H110	H	0.692370	0.494399	0.060286
H111	H	0.711358	0.234348	-0.000192
C112	C	0.844129	0.040345	0.582532
H113	H	0.842784	0.031283	0.635104
H114	H	0.888239	0.065226	0.569604
H115	H	0.807696	0.067469	0.569640
C116	C	0.724482	-0.191988	0.660108
H117	H	0.696125	-0.220193	0.694868
H118	H	0.695496	-0.167074	0.629389
H119	H	0.749508	-0.220842	0.629350
H120	H	0.628004	0.018077	-0.000149
C121	C	0.695264	0.090136	-0.000184
H122	H	0.705091	0.043017	-0.000187
H123	H	0.668933	0.098537	0.043474
H124	H	0.668955	0.098516	-0.043843
C125	C	0.452123	-0.227618	-0.000235
H126	H	0.479160	-0.265791	-0.000245
H127	H	0.423331	-0.229839	0.043410
H128	H	0.423392	-0.229823	-0.043908
H129	H	0.910869	-0.006647	0.185227
C130	C	0.724489	-0.191992	0.825578
H131	H	0.696119	-0.220187	0.790834
H132	H	0.749512	-0.220845	0.856298
H133	H	0.695505	-0.167073	0.856338
C134	C	0.924486	0.006878	0.339443
H135	H	0.952854	0.035074	0.304686
H136	H	0.899469	0.035730	0.370206
H137	H	0.953470	-0.018048	0.370158
H138	H	0.807522	-0.207373	0.571227
H139	H	0.807495	-0.207372	0.428275
