data_functionalizedCrystal
_audit_creation_method	'MofGen! by Chris Wilmer'
_symmetry_space_group_name_H-M	'P1'
_symmetry_Int_Tables_number	1
_symmetry_cell_setting	triclinic
loop_
_symmetry_equiv_pos_as_xyz
  x,y,z
_cell_length_a	18.101398
_cell_length_b	25.639240
_cell_length_c	18.101389
_cell_angle_alpha	90.027631
_cell_angle_beta	90.024327
_cell_angle_gamma	90.028023
loop_
_atom_site_label
_atom_site_type_symbol
_atom_site_fract_x
_atom_site_fract_y
_atom_site_fract_z
Zn1	Zn	1.132112	-0.208272	0.418791
Zn2	Zn	1.465446	0.125062	0.752125
Zn3	Zn	1.798779	0.458395	1.085458
Zn4	Zn	1.132005	-0.295693	0.294930
Zn5	Zn	1.465338	0.037640	0.628263
Zn6	Zn	1.798671	0.370974	0.961597
Zn7	Zn	1.008271	-0.208266	0.294952
Zn8	Zn	1.341605	0.125067	0.628286
Zn9	Zn	1.674938	0.458400	0.961619
Zn10	Zn	1.008219	-0.295671	0.418718
Zn11	Zn	1.341552	0.037663	0.752052
Zn12	Zn	1.674885	0.370996	1.085385
O13	O	1.070152	-0.251975	0.356848
O14	O	1.403485	0.081358	0.690181
O15	O	1.736818	0.414691	1.023515
O16	O	1.235731	-0.219880	0.402382
O17	O	1.569064	0.113453	0.735715
O18	O	1.902398	0.446787	1.069049
O19	O	1.115568	-0.284103	0.191300
O20	O	1.448902	0.049231	0.524633
O21	O	1.782235	0.382564	0.857967
O22	O	1.024766	-0.135102	0.311420
O23	O	1.358100	0.198232	0.644753
O24	O	1.691433	0.531565	0.978087
O25	O	1.235652	-0.284108	0.311381
O26	O	1.568985	0.049225	0.644715
O27	O	1.902319	0.382559	0.978048
O28	O	1.115752	-0.135106	0.402404
O29	O	1.449085	0.198228	0.735737
O30	O	1.782419	0.531561	1.069070
O31	O	1.024662	-0.219871	0.191316
O32	O	1.357995	0.113463	0.524650
O33	O	1.691329	0.446796	0.857983
O34	O	0.904632	-0.219849	0.311349
O35	O	1.237965	0.113484	0.644683
O36	O	1.571298	0.446818	0.978016
O37	O	1.024676	-0.284070	0.522361
O38	O	1.358010	0.049263	0.855694
O39	O	1.691343	0.382597	1.189028
O40	O	0.904593	-0.284065	0.402280
O41	O	1.237926	0.049269	0.735613
O42	O	1.571259	0.382602	1.068946
O43	O	1.115701	-0.219858	0.522415
O44	O	1.449034	0.113475	0.855748
O45	O	1.782367	0.446808	1.189081
O46	O	1.115517	-0.368855	0.311311
O47	O	1.448850	-0.035522	0.644644
O48	O	1.782184	0.297811	0.977977
O49	O	1.024572	-0.368839	0.402258
O50	O	1.357905	-0.035505	0.735591
O51	O	1.691239	0.297828	1.068924
C52	C	0.877741	-0.251954	0.356809
C53	C	1.211075	0.081379	0.690143
C54	C	1.544408	0.414713	1.023476
C55	C	0.795427	-0.251958	0.356810
C56	C	1.128760	0.081376	0.690144
C57	C	1.462094	0.414709	1.023477
C58	C	0.496336	-0.251990	0.356873
C59	C	0.829670	0.081343	0.690206
C60	C	1.163003	0.414676	1.023539
C61	C	0.527661	-0.211386	0.299941
C62	C	0.860994	0.121948	0.633274
C63	C	1.194328	0.455281	0.966608
C64	C	0.613279	-0.211495	0.299698
C65	C	0.946613	0.121839	0.633031
C66	C	1.279946	0.455172	0.966365
C67	C	0.644719	-0.251974	0.356842
C68	C	0.978052	0.081360	0.690175
C69	C	1.311385	0.414693	1.023508
C70	C	0.613598	-0.307048	0.335505
C71	C	0.946932	0.026286	0.668838
C72	C	1.280265	0.359619	1.002171
C73	C	0.527953	-0.306822	0.335109
C74	C	0.861287	0.026511	0.668442
C75	C	1.194620	0.359845	1.001775
C76	C	0.527951	-0.238000	0.435275
C77	C	0.861285	0.095333	0.768609
C78	C	1.194618	0.428667	1.101942
C79	C	0.613602	-0.236773	0.434848
C80	C	0.946936	0.096560	0.768181
C81	C	1.280269	0.429893	1.101514
C82	C	0.728578	-0.251968	0.356826
C83	C	1.061912	0.081366	0.690159
C84	C	1.395245	0.414699	1.023492
C85	C	0.412477	-0.252000	0.356887
C86	C	0.745810	0.081333	0.690220
C87	C	1.079143	0.414667	1.023554
C88	C	1.070047	-0.387818	0.356790
C89	C	1.403380	-0.054485	0.690123
C90	C	1.736714	0.278849	1.023457
C91	C	1.070070	-0.445932	0.356790
C92	C	1.403403	-0.112599	0.690123
C93	C	1.736737	0.220735	1.023457
C94	C	1.117551	-0.806259	0.404309
C95	C	1.450885	-0.472925	0.737642
C96	C	1.784218	-0.139592	1.070975
C97	C	1.117573	-0.860863	0.404324
C98	C	1.450907	-0.527530	0.737657
C99	C	1.784240	-0.194196	1.070990
O100	O	1.157819	-0.889069	0.444666
O101	O	1.491152	-0.555735	0.778000
O102	O	1.824486	-0.222402	1.111333
N103	N	1.070255	-0.888214	0.356920
N104	N	1.403588	-0.554881	0.690253
N105	N	1.736921	-0.221548	1.023586
C106	C	1.022906	-0.860959	0.309503
C107	C	1.356239	-0.527625	0.642836
C108	C	1.689572	-0.194292	0.976169
O109	O	0.982659	-0.889237	0.269183
O110	O	1.315992	-0.555904	0.602517
O111	O	1.649325	-0.222571	0.935850
C112	C	1.022881	-0.806355	0.309492
C113	C	1.356214	-0.473022	0.642825
C114	C	1.689547	-0.139689	0.976158
C115	C	1.070208	-0.779007	0.356894
C116	C	1.403541	-0.445673	0.690227
C117	C	1.736874	-0.112340	1.023560
C118	C	1.164874	-0.778910	0.451708
C119	C	1.498208	-0.445577	0.785041
C120	C	1.831541	-0.112243	1.118374
C121	C	1.164853	-0.724309	0.451691
C122	C	1.498186	-0.390976	0.785025
C123	C	1.831520	-0.057643	1.118358
C124	C	1.117509	-0.697058	0.404276
C125	C	1.450843	-0.363724	0.737610
C126	C	1.784176	-0.030391	1.070943
C127	C	1.070187	-0.724406	0.356878
C128	C	1.403520	-0.391073	0.690211
C129	C	1.736853	-0.057740	1.023544
C130	C	0.975528	-0.779101	0.262079
C131	C	1.308862	-0.445767	0.595412
C132	C	1.642195	-0.112434	0.928746
C133	C	0.975507	-0.724494	0.262073
C134	C	1.308840	-0.391160	0.595406
C135	C	1.642174	-0.057827	0.928739
C136	C	1.022834	-0.697145	0.309475
C137	C	1.356167	-0.363812	0.642808
C138	C	1.689501	-0.030478	0.976141
C139	C	1.022822	-0.642554	0.309446
C140	C	1.356155	-0.309221	0.642780
C141	C	1.689488	0.024113	0.976113
N142	N	1.070141	-0.615202	0.356851
N143	N	1.403474	-0.281869	0.690184
N144	N	1.736807	0.051464	1.023517
C145	C	1.117484	-0.642454	0.404266
C146	C	1.450818	-0.309121	0.737599
C147	C	1.784151	0.024212	1.070932
C148	C	1.022961	-0.975629	0.309530
C149	C	1.356294	-0.642296	0.642863
C150	C	1.689627	-0.308963	0.976196
C151	C	1.022989	-1.030232	0.309536
C152	C	1.356322	-0.696898	0.642869
C153	C	1.689656	-0.363565	0.976203
C154	C	1.117656	-1.030132	0.404359
C155	C	1.450989	-0.696799	0.737692
C156	C	1.784323	-0.363465	1.071025
C157	C	1.117631	-0.975529	0.404348
C158	C	1.450964	-0.642195	0.737681
C159	C	1.784298	-0.308862	1.071015
C160	C	1.070280	-0.948278	0.356934
C161	C	1.403613	-0.614945	0.690267
C162	C	1.736946	-0.281611	1.023601
C163	C	1.117437	-0.527789	0.404227
C164	C	1.450770	-0.194456	0.737561
C165	C	1.784104	0.138877	1.070894
C166	C	1.117414	-0.473184	0.404205
C167	C	1.450747	-0.139850	0.737538
C168	C	1.784081	0.193483	1.070872
C169	C	1.022745	-0.473288	0.309386
C170	C	1.356078	-0.139955	0.642719
C171	C	1.689411	0.193378	0.976052
C172	C	1.022770	-0.527889	0.309405
C173	C	1.356103	-0.194555	0.642738
C174	C	1.689437	0.138778	0.976072
C175	C	1.070119	-0.555138	0.356832
C176	C	1.403452	-0.221805	0.690165
C177	C	1.736785	0.111529	1.023499
O178	O	0.982594	-0.614313	0.269127
O179	O	1.315928	-0.280980	0.602460
O180	O	1.649261	0.052353	0.935793
O181	O	1.157717	-0.614169	0.444585
O182	O	1.491051	-0.280836	0.777918
O183	O	1.824384	0.052498	1.111251
C184	C	1.263314	-0.251997	0.356887
C185	C	1.596647	0.081336	0.690221
C186	C	1.929980	0.414670	1.023554
C187	C	1.345628	-0.252006	0.356904
C188	C	1.678961	0.081327	0.690237
C189	C	2.012294	0.414660	1.023571
C190	C	1.070195	-0.251962	0.550010
C191	C	1.403528	0.081371	0.883343
C192	C	1.736861	0.414705	1.216677
C193	C	1.070213	-0.251957	0.632324
C194	C	1.403546	0.081377	0.965657
C195	C	1.736879	0.414710	1.298991
C196	C	1.070277	-0.115602	0.356922
C197	C	1.403610	0.217731	0.690256
C198	C	1.736944	0.551064	1.023589
C199	C	1.070330	-0.057488	0.356954
C200	C	1.403664	0.275845	0.690288
C201	C	1.736997	0.609178	1.023621
C202	C	1.070152	-0.251951	0.164437
C203	C	1.403485	0.081383	0.497771
C204	C	1.736818	0.414716	0.831104
C205	C	1.070277	-0.251809	0.082124
C206	C	1.403610	0.081524	0.415457
C207	C	1.736944	0.414857	0.748791
C208	C	1.070256	-0.251859	0.931415
C209	C	1.403589	0.081475	1.264749
C210	C	1.736923	0.414808	1.598082
C211	C	1.012789	-0.292130	0.900056
C212	C	1.346122	0.041203	1.233390
C213	C	1.679455	0.374536	1.566723
C214	C	1.012944	-0.292317	0.814438
C215	C	1.346277	0.041016	1.147771
C216	C	1.679611	0.374350	1.481105
C217	C	1.070234	-0.251907	0.783033
C218	C	1.403567	0.081426	1.116366
C219	C	1.736901	0.414760	1.449699
C220	C	1.148259	-0.266868	0.814135
C221	C	1.481592	0.066466	1.147468
C222	C	1.814925	0.399799	1.480802
C223	C	1.147939	-0.267132	0.899780
C224	C	1.481272	0.066201	1.233113
C225	C	1.814605	0.399535	1.566447
C226	C	1.050377	-0.196537	0.899852
C227	C	1.383710	0.136797	1.233185
C228	C	1.717043	0.470130	1.566519
C229	C	1.048641	-0.196856	0.814201
C230	C	1.381974	0.136477	1.147534
C231	C	1.715307	0.469811	1.480868
C232	C	1.070226	-0.251934	0.699173
C233	C	1.403560	0.081400	1.032506
C234	C	1.736893	0.414733	1.365840
C235	C	1.070269	-0.251833	1.015275
C236	C	1.403602	0.081500	1.348608
C237	C	1.736936	0.414833	1.681942
H238	H	0.507941	-0.318688	0.277792
H239	H	0.841274	0.014646	0.611126
H240	H	1.174608	0.347979	0.944459
H241	H	0.633732	-0.220743	0.241603
H242	H	0.967066	0.112591	0.574936
H243	H	1.300399	0.445924	0.908269
Br244	Br	0.958552	-0.565006	0.245062
Br245	Br	1.291885	-0.231673	0.578395
Br246	Br	1.625218	0.101661	0.911728
H247	H	0.984458	-1.052494	0.270929
H248	H	1.317792	-0.719161	0.604262
H249	H	1.651125	-0.385828	0.937595
H250	H	0.635013	-0.319119	0.278807
H251	H	0.968346	0.014214	0.612140
H252	H	1.301679	0.347547	0.945474
H253	H	1.155988	-0.549969	0.442852
H254	H	1.489321	-0.216636	0.776185
H255	H	1.822654	0.116698	1.109519
H256	H	1.192207	-0.239073	0.920527
H257	H	1.525540	0.094260	1.253860
H258	H	1.858874	0.427593	1.587193
Br259	Br	1.181651	-0.436071	0.468538
Br260	Br	1.514984	-0.102738	0.801871
Br261	Br	1.848317	0.230596	1.135204
H262	H	0.635006	-0.264193	0.479540
H263	H	0.968340	0.069140	0.812873
H264	H	1.301673	0.402473	1.146207
H265	H	0.507230	-0.338099	0.374766
H266	H	0.840563	-0.004766	0.708100
H267	H	1.173897	0.328567	1.041433
H268	H	1.156168	-0.953265	0.442947
H269	H	1.489502	-0.619931	0.776280
H270	H	1.822835	-0.286598	1.109614
H271	H	1.192226	-0.238457	0.793795
H272	H	1.525559	0.094876	1.127129
H273	H	1.858893	0.428209	1.460462
Br274	Br	0.647524	-0.358824	0.402459
Br275	Br	0.980857	-0.025491	0.735793
Br276	Br	1.314190	0.307843	1.069126
Br277	Br	0.494189	-0.287293	0.505978
Br278	Br	0.827522	0.046041	0.839311
Br279	Br	1.160856	0.379374	1.172645
Br280	Br	1.229081	-0.687202	0.516031
Br281	Br	1.562415	-0.353868	0.849365
Br282	Br	1.895748	-0.020535	1.182698
Br283	Br	0.491727	-0.226612	0.203676
Br284	Br	0.825060	0.106721	0.537010
Br285	Br	1.158394	0.440055	0.870343
H286	H	0.936990	-0.801359	0.223479
H287	H	1.270323	-0.468025	0.556812
H288	H	1.603656	-0.134692	0.890145
H289	H	0.936945	-0.702309	0.223463
H290	H	1.270279	-0.368975	0.556797
H291	H	1.603612	-0.035642	0.890130
Br292	Br	0.492003	-0.172229	0.467605
Br293	Br	0.825336	0.161104	0.800938
Br294	Br	1.158670	0.494438	1.134272
H295	H	0.984200	-0.451091	0.270778
H296	H	1.317533	-0.117758	0.604112
H297	H	1.650867	0.215575	0.937445
H298	H	0.633948	-0.196245	0.450936
H299	H	0.967281	0.137088	0.784270
H300	H	1.300615	0.470422	1.117603
H301	H	1.156205	-1.052330	0.442968
H302	H	1.489538	-0.718997	0.776301
H303	H	1.822871	-0.385664	1.109634
H304	H	1.203427	-0.801093	0.490323
H305	H	1.536760	-0.467759	0.823656
H306	H	1.870094	-0.134426	1.156990
Br307	Br	0.958696	-0.938651	0.245172
Br308	Br	1.292029	-0.605318	0.578505
Br309	Br	1.625362	-0.271985	0.911839
H310	H	0.955085	-0.282955	0.793408
H311	H	1.288419	0.050379	1.126741
H312	H	1.621752	0.383712	1.460074
H313	H	0.954756	-0.282864	0.920644
H314	H	1.288089	0.050470	1.253978
H315	H	1.621423	0.383803	1.587311
H316	H	1.025783	-0.332886	0.921573
H317	H	1.359116	0.000447	1.254906
H318	H	1.692449	0.333780	1.588239
H319	H	1.165403	-0.306879	0.792684
H320	H	1.498736	0.026454	1.126017
H321	H	1.832069	0.359788	1.459350
Br322	Br	1.034862	-0.360657	0.780277
Br323	Br	1.368195	-0.027324	1.113610
Br324	Br	1.701529	0.306010	1.446943
Br325	Br	1.176027	-0.334536	0.933076
Br326	Br	1.509360	-0.001203	1.266409
Br327	Br	1.842694	0.332131	1.599743
Br328	Br	0.957194	-0.173820	0.935832
Br329	Br	1.290527	0.159513	1.269165
Br330	Br	1.623861	0.492847	1.602499
H331	H	0.991221	-0.185574	0.793872
H332	H	1.324555	0.147759	1.127205
H333	H	1.657888	0.481092	1.460538
Br334	Br	1.113322	-0.144189	0.778584
Br335	Br	1.446655	0.189144	1.111917
Br336	Br	1.779988	0.522478	1.445251
Br337	Br	1.120140	-0.146527	0.933655
Br338	Br	1.453474	0.186806	1.266988
Br339	Br	1.786807	0.520140	1.600321
H340	H	0.634322	-0.170655	0.313074
H341	H	0.967655	0.162679	0.646407
H342	H	1.300988	0.496012	0.979740
H343	H	0.507092	-0.170421	0.313170
H344	H	0.840426	0.162912	0.646503
H345	H	1.173759	0.496246	0.979836
