data_functionalizedCrystal
_audit_creation_method	'MofGen! by Chris Wilmer'
_symmetry_space_group_name_H-M	'P1'
_symmetry_Int_Tables_number	1
_symmetry_cell_setting	triclinic
loop_
_symmetry_equiv_pos_as_xyz
  x,y,z
_cell_length_a	10.654545
_cell_length_b	8.559649
_cell_length_c	9.730223
_cell_angle_alpha	89.997407
_cell_angle_beta	89.997167
_cell_angle_gamma	77.130872
loop_
_atom_site_label
_atom_site_type_symbol
_atom_site_fract_x
_atom_site_fract_y
_atom_site_fract_z
O1	O	1.644688	0.224151	-0.114269
O2	O	1.277002	0.245517	-0.114274
O3	O	1.493238	0.002590	-0.114270
O4	O	1.428451	0.467078	-0.114274
O5	O	1.493227	0.002584	0.114310
O6	O	1.276990	0.245510	0.114306
O7	O	1.644676	0.224144	0.114311
Zn8	Zn	1.460831	0.234826	0.150600
Zn9	Zn	1.460847	0.234835	-0.150564
O10	O	1.428440	0.467071	0.114306
C11	C	1.230360	0.243947	0.000015
C12	C	1.091400	0.239257	0.000013
C13	C	1.026118	0.237046	0.124613
C14	C	0.895556	0.232614	0.124613
C15	C	0.895570	0.232610	-0.124598
C16	C	1.026132	0.237031	-0.124596
C17	C	1.498142	-0.056889	0.000018
C18	C	1.512757	-0.234107	0.000010
C19	C	1.691318	0.225715	0.000018
C20	C	1.830277	0.230404	0.000012
C21	C	1.423536	0.526550	0.000016
C22	C	1.408921	0.703768	0.000014
N23	N	1.460830	0.234819	0.356137
N24	N	1.460859	0.234829	-0.356100
C25	C	1.556604	0.127297	0.428064
C26	C	1.556616	0.127298	0.571947
C27	C	1.365075	0.342357	0.571962
C28	C	1.365059	0.342347	0.428082
H29	H	0.842408	0.230814	0.226074
H30	H	1.308843	-0.213842	0.000017
C31	C	1.647969	-0.345418	0.000020
N32	N	1.749809	-0.429259	0.000025
C33	C	1.259745	0.460710	0.348956
N34	N	1.180442	0.549881	0.289359
C35	C	1.097949	0.239454	-0.261673
N36	N	1.152043	0.241272	-0.364915
C37	C	1.097912	0.239476	0.261686
N38	N	1.151986	0.241298	0.364934
H39	H	0.842412	0.230800	-0.226050
C40	C	1.661946	0.009001	0.348930
N41	N	1.741289	-0.080109	0.289330
H42	H	1.634603	0.039742	0.630507
H43	H	1.287102	0.429906	0.630554
