data_functionalizedCrystal
_audit_creation_method	'MofGen! by Chris Wilmer'
_symmetry_space_group_name_H-M	'P1'
_symmetry_Int_Tables_number	1
_symmetry_cell_setting	triclinic
loop_
_symmetry_equiv_pos_as_xyz
  x,y,z
_cell_length_a	18.050590
_cell_length_b	21.295417
_cell_length_c	18.050582
_cell_angle_alpha	89.974292
_cell_angle_beta	90.000767
_cell_angle_gamma	90.018869
loop_
_atom_site_label
_atom_site_type_symbol
_atom_site_fract_x
_atom_site_fract_y
_atom_site_fract_z
Zn1	Zn	1.135285	-0.250831	-0.419585
Zn2	Zn	1.635285	0.249169	0.080415
Zn3	Zn	1.135192	-0.356092	-0.295389
Zn4	Zn	1.635192	0.143908	0.204611
Zn5	Zn	1.011104	-0.250821	-0.295444
Zn6	Zn	1.511104	0.249179	0.204556
Zn7	Zn	1.011049	-0.356047	-0.419571
Zn8	Zn	1.511049	0.143953	0.080429
O9	O	1.073157	-0.303448	-0.357497
O10	O	1.573157	0.196552	0.142503
O11	O	1.239197	-0.264818	-0.403093
O12	O	1.739197	0.235182	0.096907
O13	O	1.118716	-0.342143	-0.191471
O14	O	1.618716	0.157857	0.308529
O15	O	1.027639	-0.162733	-0.311940
O16	O	1.527639	0.337267	0.188060
O17	O	1.239129	-0.342153	-0.311847
O18	O	1.739129	0.157847	0.188153
O19	O	1.118874	-0.162741	-0.403147
O20	O	1.618874	0.337259	0.096853
O21	O	1.027549	-0.264801	-0.191512
O22	O	1.527549	0.235199	0.308488
O23	O	0.907172	-0.264756	-0.311926
O24	O	1.407172	0.235244	0.188074
O25	O	1.027545	-0.342075	-0.523498
O26	O	1.527545	0.157925	-0.023498
O27	O	0.907132	-0.342065	-0.403122
O28	O	1.407132	0.157935	0.096878
O29	O	1.118820	-0.264773	-0.523508
O30	O	1.618820	0.235227	-0.023508
O31	O	1.118663	-0.444176	-0.311833
O32	O	1.618663	0.055824	0.188167
O33	O	1.027455	-0.444142	-0.403069
O34	O	1.527455	0.055858	0.096931
C35	C	0.880205	-0.303405	-0.357529
C36	C	1.380205	0.196595	0.142471
C37	C	0.797660	-0.303402	-0.357560
C38	C	1.297660	0.196598	0.142440
C39	C	0.598208	-0.345562	-0.407035
C40	C	1.098208	0.154438	0.092965
C41	C	0.548817	-0.288165	-0.425314
C42	C	1.048817	0.211835	0.074686
C43	C	0.646529	-0.303437	-0.357524
C44	C	1.146529	0.196563	0.142476
C45	C	0.548839	-0.360867	-0.339245
C46	C	1.048839	0.139133	0.160755
C47	C	0.500544	-0.303476	-0.357491
C48	C	1.000544	0.196524	0.142509
C49	C	0.598225	-0.246009	-0.375838
C50	C	1.098225	0.253991	0.124162
C51	C	0.598251	-0.318749	-0.289738
C52	C	1.098251	0.181251	0.210262
C53	C	0.548882	-0.261313	-0.307991
C54	C	1.048882	0.238687	0.192009
C55	C	0.730627	-0.303415	-0.357545
C56	C	1.230627	0.196585	0.142455
C57	C	0.416448	-0.303491	-0.357469
C58	C	0.916448	0.196509	0.142531
C59	C	1.073063	-0.467000	-0.357460
C60	C	1.573063	0.033000	0.142540
C61	C	1.073090	-0.536968	-0.357468
C62	C	1.573090	-0.036968	0.142532
C63	C	1.120569	-0.569781	-0.404994
C64	C	1.620569	-0.069781	0.095006
C65	C	1.120595	-0.635523	-0.405012
C66	C	1.620595	-0.135523	0.094988
C67	C	1.073150	-0.668450	-0.357492
C68	C	1.573150	-0.168450	0.142508
C69	C	1.025662	-0.635629	-0.309963
C70	C	1.525662	-0.135629	0.190037
C71	C	1.025632	-0.569888	-0.309952
C72	C	1.525632	-0.069888	0.190048
N73	N	1.067546	-0.771706	-0.292499
N74	N	1.567546	-0.271706	0.207501
N75	N	1.067579	-0.834158	-0.292512
N76	N	1.567579	-0.334158	0.207488
C77	C	1.073237	-0.866525	-0.357525
C78	C	1.573237	-0.366525	0.142475
N79	N	1.078875	-0.834081	-0.422526
N80	N	1.578875	-0.334081	0.077474
N81	N	1.078846	-0.771624	-0.422512
N82	N	1.578846	-0.271624	0.077488
C83	C	1.073178	-0.739735	-0.357499
C84	C	1.573178	-0.239735	0.142501
C85	C	1.120747	-0.970624	-0.405074
C86	C	1.620747	-0.470624	0.094926
C87	C	1.120768	-1.036367	-0.405094
C88	C	1.620768	-0.536367	0.094906
C89	C	1.025839	-1.036472	-0.310039
C90	C	1.525839	-0.536472	0.189961
C91	C	1.025814	-0.970729	-0.310026
C92	C	1.525814	-0.470729	0.189974
C93	C	1.073272	-0.937809	-0.357542
C94	C	1.573272	-0.437809	0.142458
C95	C	1.266863	-0.303492	-0.357465
C96	C	1.766863	0.196508	0.142535
C97	C	1.349409	-0.303510	-0.357452
C98	C	1.849409	0.196490	0.142548
C99	C	1.073187	-0.303420	-0.551203
C100	C	1.573187	0.196580	-0.051203
C101	C	1.073199	-0.303408	-0.633749
C102	C	1.573199	0.196592	-0.133749
C103	C	1.073273	-0.139258	-0.357551
C104	C	1.573273	0.360742	0.142449
C105	C	1.073322	-0.069290	-0.357574
C106	C	1.573322	0.430710	0.142426
C107	C	1.023601	-0.345387	-0.833194
C108	C	1.523601	0.154613	-0.333194
C109	C	1.091356	-0.360785	-0.882566
C110	C	1.591356	0.139215	-0.382566
C111	C	1.073236	-0.303360	-0.784879
C112	C	1.573236	0.196640	-0.284879
C113	C	1.005518	-0.287944	-0.882589
C114	C	1.505518	0.212056	-0.382589
C115	C	1.073265	-0.303315	-0.930864
C116	C	1.573265	0.196685	-0.430864
C117	C	1.141026	-0.318788	-0.833164
C118	C	1.641026	0.181212	-0.333164
C119	C	1.055142	-0.245921	-0.833183
C120	C	1.555142	0.254079	-0.333183
C121	C	1.122944	-0.261297	-0.882532
C122	C	1.622944	0.238703	-0.382532
C123	C	1.073218	-0.303388	-0.700781
C124	C	1.573218	0.196612	-0.200781
C125	C	1.073291	-0.303287	-1.014961
C126	C	1.573291	0.196713	-0.514961
C127	C	1.073171	-0.303430	-0.164545
C128	C	1.573171	0.196570	0.335455
C129	C	1.073303	-0.303265	-0.082000
C130	C	1.573303	0.196735	0.418000
H131	H	0.527360	-0.225664	-0.266107
H132	H	1.027360	0.274336	0.233893
O133	O	0.623901	-0.188066	-0.394454
O134	O	1.123901	0.311934	0.105546
C135	C	0.627330	-0.106299	-0.486714
C136	C	1.127330	0.393701	0.013286
C137	C	0.598186	-0.171915	-0.465716
C138	C	1.098186	0.328085	0.034284
H139	H	0.606564	-0.093226	-0.544336
H140	H	1.106564	0.406774	-0.044336
H141	H	0.606569	-0.070344	-0.444805
H142	H	1.106569	0.429656	0.055195
H143	H	0.690484	-0.106770	-0.486561
H144	H	1.190484	0.393230	0.013439
H145	H	0.535034	-0.171505	-0.465876
H146	H	1.035034	0.328495	0.034124
H147	H	0.619003	-0.207842	-0.507629
H148	H	1.119003	0.292158	-0.007629
O149	O	0.979538	-0.667680	-0.263904
O150	O	1.479538	-0.167680	0.236096
C151	C	0.879284	-0.741942	-0.253865
C152	C	1.379284	-0.241942	0.246135
C153	C	0.931489	-0.705696	-0.306108
C154	C	1.431489	-0.205696	0.193892
H155	H	0.840412	-0.772677	-0.287966
H156	H	1.340412	-0.272677	0.212034
H157	H	0.913378	-0.772760	-0.215070
H158	H	1.413378	-0.272760	0.284930
H159	H	0.845377	-0.707181	-0.219877
H160	H	1.345377	-0.207181	0.280123
H161	H	0.965407	-0.740411	-0.340144
H162	H	1.465407	-0.240411	0.159856
H163	H	0.897352	-0.674868	-0.344854
H164	H	1.397352	-0.174868	0.155146
O165	O	1.166755	-0.938667	-0.451344
O166	O	1.666755	-0.438667	0.048656
C167	C	1.202726	-0.918488	-0.577691
C168	C	1.702726	-0.418488	-0.077691
C169	C	1.150568	-0.954706	-0.525374
C170	C	1.650568	-0.454706	-0.025374
H171	H	1.189668	-0.931452	-0.637555
H172	H	1.689668	-0.431452	-0.137555
H173	H	1.194547	-0.865857	-0.569579
H174	H	1.694547	-0.365857	-0.069579
H175	H	1.262621	-0.931375	-0.564660
H176	H	1.762621	-0.431375	-0.064660
H177	H	1.090653	-0.941871	-0.538373
H178	H	1.590653	-0.441871	-0.038373
H179	H	1.158812	-1.007328	-0.533496
H180	H	1.658812	-0.507328	-0.033496
O181	O	1.109739	-0.418713	-0.908367
O182	O	1.609739	0.081287	-0.408367
C183	C	1.201408	-0.500902	-0.911478
C184	C	1.701408	-0.000902	-0.411478
C185	C	1.180683	-0.435302	-0.882193
C186	C	1.680683	0.064698	-0.382193
H187	H	1.258774	-0.514329	-0.890342
H188	H	1.758774	-0.014329	-0.390342
H189	H	1.159076	-0.536738	-0.891196
H190	H	1.659076	-0.036738	-0.391196
H191	H	1.201734	-0.500183	-0.974629
H192	H	1.701734	-0.000183	-0.474629
H193	H	1.180366	-0.435959	-0.819044
H194	H	1.680366	0.064041	-0.319044
H195	H	1.223020	-0.399493	-0.902532
H196	H	1.723020	0.100507	-0.402532
H197	H	0.619981	-0.331705	-0.232443
H198	H	1.119981	0.168295	0.267557
H199	H	0.527142	-0.409418	-0.323800
H200	H	1.027142	0.090582	0.176200
O201	O	1.166928	-1.068315	-0.451159
O202	O	1.666928	-0.568315	0.048841
C203	C	1.267247	-1.142449	-0.461216
C204	C	1.767247	-0.642449	0.038784
C205	C	1.215006	-1.106317	-0.408965
C206	C	1.715006	-0.606317	0.091035
H207	H	1.306142	-1.173173	-0.427122
H208	H	1.806142	-0.673173	0.072878
H209	H	1.233182	-1.173269	-0.500024
H210	H	1.733182	-0.673269	-0.000024
H211	H	1.301127	-1.107615	-0.495189
H212	H	1.801127	-0.607615	0.004811
H213	H	1.181115	-1.141107	-0.374943
H214	H	1.681115	-0.641107	0.125057
H215	H	1.249114	-1.075488	-0.370206
H216	H	1.749114	-0.575488	0.129794
O217	O	0.979433	-0.537981	-0.263886
O218	O	1.479433	-0.037981	0.236114
C219	C	0.879174	-0.463790	-0.253815
C220	C	1.379174	0.036210	0.246185
C221	C	0.931435	-0.499897	-0.306069
C222	C	1.431435	0.000103	0.193931
H223	H	0.840366	-0.432979	-0.287898
H224	H	1.340366	0.067021	0.212102
H225	H	0.845210	-0.498585	-0.219867
H226	H	1.345210	0.001415	0.280133
H227	H	0.913300	-0.433041	-0.214983
H228	H	1.413300	0.066959	0.285017
H229	H	0.897367	-0.530646	-0.344945
H230	H	1.397367	-0.030646	0.155055
H231	H	0.965402	-0.465068	-0.339965
H232	H	1.465402	0.034932	0.160035
H233	H	0.948238	-0.274925	-0.904300
H234	H	1.448238	0.225075	-0.404300
O235	O	1.166689	-0.537901	-0.451223
O236	O	1.666689	-0.037901	0.048777
C237	C	1.260886	-0.544739	-0.545465
C238	C	1.760886	-0.044739	-0.045465
C239	C	1.208682	-0.580922	-0.493161
C240	C	1.708682	-0.080922	0.006839
H241	H	1.294862	-0.579506	-0.579374
H242	H	1.794862	-0.079506	-0.079374
H243	H	1.226790	-0.513979	-0.584322
H244	H	1.726790	-0.013979	-0.084322
H245	H	1.299693	-0.513937	-0.511374
H246	H	1.799693	-0.013937	-0.011374
H247	H	1.169864	-0.611758	-0.527192
H248	H	1.669864	-0.111758	-0.027192
H249	H	1.242824	-0.611643	-0.454301
H250	H	1.742824	-0.111643	0.045699
H251	H	1.159252	-0.662245	-0.443721
H252	H	1.659252	-0.162245	0.056279
O253	O	0.979802	-0.938781	-0.263817
O254	O	1.479802	-0.438781	0.236183
C255	C	0.969849	-0.864642	-0.163501
C256	C	1.469849	-0.364642	0.336499
C257	C	1.022045	-0.900773	-0.215798
C258	C	1.522045	-0.400773	0.284202
H259	H	1.003983	-0.833914	-0.124654
H260	H	1.503983	-0.333914	0.375346
H261	H	0.930993	-0.833827	-0.197526
H262	H	1.430993	-0.333827	0.302474
H263	H	0.935926	-0.899477	-0.129573
H264	H	1.435926	-0.399477	0.370427
H265	H	1.056018	-0.865983	-0.249737
H266	H	1.556018	-0.365983	0.250263
H267	H	1.060853	-0.931597	-0.181730
H268	H	1.560853	-0.431597	0.318270
H269	H	0.987204	-1.063280	-0.271351
H270	H	1.487204	-0.563280	0.228649
H271	H	0.619869	-0.381124	-0.448952
H272	H	1.119869	0.118876	0.051048
O273	O	1.036973	-0.187994	-0.807243
O274	O	1.536973	0.312006	-0.307243
C275	C	1.075117	-0.098592	-0.734872
C276	C	1.575117	0.401408	-0.234872
C277	C	1.095806	-0.164181	-0.764216
C278	C	1.595806	0.335819	-0.264216
H279	H	1.122665	-0.079325	-0.700067
H280	H	1.622665	0.420675	-0.200067
H281	H	1.064213	-0.065705	-0.783515
H282	H	1.564213	0.434295	-0.283515
H283	H	1.023126	-0.102209	-0.699267
H284	H	1.523126	0.397791	-0.199267
H285	H	1.147807	-0.160624	-0.799810
H286	H	1.647807	0.339376	-0.299810
H287	H	1.106662	-0.197043	-0.715540
H288	H	1.606662	0.302957	-0.215540
O289	O	0.973657	-0.387924	-0.807378
O290	O	1.473657	0.112076	-0.307378
C291	C	0.936321	-0.496520	-0.803291
C292	C	1.436321	0.003480	-0.303291
C293	C	0.992941	-0.448415	-0.832563
C294	C	1.492941	0.051585	-0.332563
H295	H	0.951883	-0.545436	-0.823654
H296	H	1.451883	-0.045436	-0.323654
H297	H	0.936399	-0.495881	-0.740138
H298	H	1.436399	0.004119	-0.240138
H299	H	0.878727	-0.483845	-0.824454
H300	H	1.378727	0.016155	-0.324454
H301	H	1.050562	-0.461057	-0.811454
H302	H	1.550562	0.038943	-0.311454
H303	H	0.992798	-0.449064	-0.895715
H304	H	1.492798	0.050936	-0.395715
H305	H	1.198323	-0.331863	-0.811545
H306	H	1.698323	0.168137	-0.311545
H307	H	1.164979	-0.225737	-0.904059
H308	H	1.664979	0.274263	-0.404059
H309	H	0.527103	-0.275226	-0.482625
H310	H	1.027103	0.224774	0.017375
