data_functionalizedCrystal
_audit_creation_method	'MofGen! by Chris Wilmer'
_symmetry_space_group_name_H-M	'P1'
_symmetry_Int_Tables_number	1
_symmetry_cell_setting	triclinic
loop_
_symmetry_equiv_pos_as_xyz
  x,y,z
_cell_length_a	25.639239
_cell_length_b	14.908780
_cell_length_c	14.908308
_cell_angle_alpha	90.212689
_cell_angle_beta	93.262277
_cell_angle_gamma	86.672354
loop_
_atom_site_label
_atom_site_type_symbol
_atom_site_fract_x
_atom_site_fract_y
_atom_site_fract_z
Zn1	Zn	-0.182898	-1.345213	-0.587843
Zn2	Zn	0.317102	-0.845213	-0.087843
Zn3	Zn	-0.265024	-1.353749	-0.437473
Zn4	Zn	0.234976	-0.853749	0.062527
Zn5	Zn	-0.182329	-1.203527	-0.428810
Zn6	Zn	0.317671	-0.703527	0.071190
Zn7	Zn	-0.275033	-1.194770	-0.579089
Zn8	Zn	0.224967	-0.694770	-0.079089
O9	O	-0.226321	-1.274315	-0.508304
O10	O	0.273679	-0.774315	-0.008304
O11	O	-0.189841	-1.472175	-0.575184
O12	O	0.310159	-0.972175	-0.075184
O13	O	-0.249628	-1.341059	-0.310501
O14	O	0.250372	-0.841059	0.189499
O15	O	-0.109238	-1.222415	-0.449944
O16	O	0.390762	-0.722415	0.050056
O17	O	-0.250179	-1.478447	-0.464708
O18	O	0.249821	-0.978447	0.035292
O19	O	-0.109655	-1.326511	-0.566785
O20	O	0.390345	-0.826511	-0.066785
O21	O	-0.188872	-1.230692	-0.304137
O22	O	0.311128	-0.730692	0.195863
O23	O	-0.198577	-1.076536	-0.441456
O24	O	0.301423	-0.576536	0.058544
O25	O	-0.267238	-1.207489	-0.706072
O26	O	0.232762	-0.707489	-0.206072
O27	O	-0.266687	-1.070102	-0.551865
O28	O	0.233313	-0.570102	-0.051865
O29	O	-0.199546	-1.318019	-0.712504
O30	O	0.300454	-0.818019	-0.212504
O31	O	-0.339519	-1.332568	-0.456220
O32	O	0.160481	-0.832568	0.043780
O33	O	-0.346872	-1.215766	-0.560265
O34	O	0.153128	-0.715766	-0.060265
C35	C	-0.233657	-1.040692	-0.494771
C36	C	0.266343	-0.540692	0.005229
C37	C	-0.236808	-0.940746	-0.489004
C38	C	0.263192	-0.440746	0.010996
C39	C	-0.179999	-0.746395	-0.593380
C40	C	0.320001	-0.246395	-0.093380
C41	C	-0.182958	-0.652487	-0.587964
C42	C	0.317042	-0.152487	-0.087964
C43	C	-0.245684	-0.659020	-0.472751
C44	C	0.254316	-0.159020	0.027249
C45	C	-0.242724	-0.752928	-0.478167
C46	C	0.257276	-0.252928	0.021833
C47	C	-0.209881	-0.796612	-0.538485
C48	C	0.290119	-0.296612	-0.038485
C49	C	-0.206925	-0.890522	-0.543905
C50	C	0.293075	-0.390522	-0.043905
C51	C	-0.269647	-0.897054	-0.428688
C52	C	0.230353	-0.397054	0.071312
C53	C	-0.272607	-0.803146	-0.423272
C54	C	0.227393	-0.303146	0.076728
C55	C	-0.362167	-1.274166	-0.508254
C56	C	0.137833	-0.774166	-0.008254
C57	C	-0.420281	-1.274183	-0.508267
C58	C	0.079719	-0.774183	-0.008267
C59	C	-0.776798	-1.335278	-0.454234
C60	C	-0.276798	-0.835278	0.045766
C61	C	-0.831401	-1.335312	-0.454248
C62	C	-0.331401	-0.835312	0.045752
O63	O	-0.856371	-1.387103	-0.408253
O64	O	-0.356371	-0.887103	0.091747
N65	N	-0.862557	-1.274469	-0.508372
N66	N	-0.362557	-0.774469	-0.008372
C67	C	-0.839107	-1.213595	-0.562493
C68	C	-0.339107	-0.713595	-0.062493
O69	O	-0.870621	-1.161847	-0.608531
O70	O	-0.370621	-0.661847	-0.108531
C71	C	-0.784504	-1.213566	-0.562483
C72	C	-0.284504	-0.713566	-0.062483
C73	C	-0.753351	-1.274406	-0.508348
C74	C	-0.253351	-0.774406	-0.008348
C75	C	-0.745645	-1.396114	-0.400105
C76	C	-0.245645	-0.896114	0.099895
C77	C	-0.691045	-1.396078	-0.400090
C78	C	-0.191045	-0.896078	0.099910
C79	C	-0.667598	-1.335207	-0.454204
C80	C	-0.167598	-0.835207	0.045796
C81	C	-0.698751	-1.274371	-0.508333
C82	C	-0.198751	-0.774371	-0.008333
C83	C	-0.761054	-1.152696	-0.616607
C84	C	-0.261054	-0.652696	-0.116607
C85	C	-0.706448	-1.152672	-0.616593
C86	C	-0.206448	-0.652672	-0.116593
C87	C	-0.675295	-1.213513	-0.562459
C88	C	-0.175295	-0.713513	-0.062459
C89	C	-0.620704	-1.213463	-0.562432
C90	C	-0.120704	-0.713463	-0.062432
N91	N	-0.589548	-1.274306	-0.508308
N92	N	-0.089548	-0.774306	-0.008308
C93	C	-0.612995	-1.335178	-0.454194
C94	C	-0.112995	-0.835178	0.045806
C95	C	-0.953776	-1.213662	-0.562510
C96	C	-0.453776	-0.713662	-0.062510
C97	C	-1.008377	-1.213686	-0.562516
C98	C	-0.508377	-0.713686	-0.062516
C99	C	-1.000668	-1.335404	-0.454273
C100	C	-0.500668	-0.835404	0.045727
C101	C	-0.946066	-1.335375	-0.454263
C102	C	-0.446066	-0.835375	0.045737
C103	C	-0.922620	-1.274504	-0.508386
C104	C	-0.422620	-0.774504	-0.008386
C105	C	-0.498332	-1.335098	-0.454166
C106	C	0.001668	-0.835098	0.045834
C107	C	-0.443728	-1.335054	-0.454153
C108	C	0.056272	-0.835054	0.045847
C109	C	-0.451441	-1.213340	-0.562400
C110	C	0.048559	-0.713340	-0.062400
C111	C	-0.506041	-1.213379	-0.562409
C112	C	-0.006041	-0.713379	-0.062409
C113	C	-0.529485	-1.274266	-0.508290
C114	C	-0.029485	-0.774266	-0.008290
O115	O	-0.595698	-1.161701	-0.608407
O116	O	-0.095698	-0.661701	-0.108407
O117	O	-0.581475	-1.386924	-0.408172
O118	O	-0.081475	-0.886924	0.091828
C119	C	-0.089944	-1.274488	-0.508375
C120	C	0.410056	-0.774488	-0.008375
C121	C	-0.031829	-1.274561	-0.508405
C122	C	0.468171	-0.774561	-0.008405
C123	C	-0.234572	-1.260825	-0.742825
C124	C	0.265428	-0.760825	-0.242825
C125	C	-0.238088	-1.255076	-0.842764
C126	C	0.261912	-0.755076	-0.342764
C127	C	-0.218952	-0.508850	-0.521882
C128	C	0.281048	-0.008850	-0.021882
C129	C	-0.215800	-0.608796	-0.527652
C130	C	0.284200	-0.108796	-0.027652
C131	C	-0.174196	-1.359367	-1.037258
C132	C	0.325804	-0.859367	-0.537258
C133	C	-0.177497	-1.353969	-1.131160
C134	C	0.322503	-0.853969	-0.631160
C135	C	-0.247990	-1.238877	-1.124470
C136	C	0.252010	-0.738877	-0.624470
C137	C	-0.244688	-1.244276	-1.030569
C138	C	0.255312	-0.744276	-0.530569
C139	C	-0.207791	-1.304524	-0.986966
C140	C	0.292209	-0.804524	-0.486966
C141	C	-0.204492	-1.309926	-0.893063
C142	C	0.295508	-0.809926	-0.393063
C143	C	-0.274982	-1.194831	-0.886375
C144	C	0.225018	-0.694831	-0.386375
C145	C	-0.278283	-1.189432	-0.980276
C146	C	0.221717	-0.689432	-0.480276
C147	C	-0.218063	-1.287804	-0.274698
C148	C	0.281937	-0.787804	0.225302
C149	C	-0.214394	-1.293727	-0.174769
C150	C	0.285606	-0.793727	0.325231
H151	H	-0.180183	-0.926088	-0.593020
H152	H	0.319817	-0.426088	-0.093020
Cl153	Cl	-0.800205	-1.076215	-0.684678
Cl154	Cl	-0.300205	-0.576215	-0.184678
H155	H	-1.033738	-1.164135	-0.606589
H156	H	-0.533738	-0.664135	-0.106589
Cl157	Cl	-0.135261	-1.422917	-1.194382
Cl158	Cl	0.364739	-0.922917	-0.694382
H159	H	-0.934689	-1.164086	-0.606581
H160	H	-0.434689	-0.664086	-0.106581
Cl161	Cl	-0.324666	-1.113696	-1.035100
Cl162	Cl	0.175334	-0.613696	-0.535100
Cl163	Cl	-0.421955	-1.136824	-0.630430
Cl164	Cl	0.078045	-0.636824	-0.130430
H165	H	-0.272417	-0.623437	-0.423633
H166	H	0.227583	-0.123437	0.076367
H167	H	-0.278031	-1.189826	-1.159988
H168	H	0.221969	-0.689826	-0.659988
Cl169	Cl	-0.317223	-1.125890	-0.823145
Cl170	Cl	0.182777	-0.625890	-0.323145
Cl171	Cl	-0.651889	-1.472581	-0.332046
Cl172	Cl	-0.151889	-0.972581	0.167954
H173	H	-0.764729	-1.445688	-0.356038
H174	H	-0.264729	-0.945688	0.143962
H175	H	-0.293984	-0.937951	-0.383995
H176	H	0.206016	-0.437951	0.116005
Cl177	Cl	-0.138717	-0.801315	-0.669214
Cl178	Cl	0.361283	-0.301315	-0.169214
H179	H	-0.299345	-0.767565	-0.374160
H180	H	0.200655	-0.267565	0.125840
H181	H	-0.920704	-1.384917	-0.410182
H182	H	-0.420704	-0.884917	0.089818
H183	H	-0.144154	-1.408428	-1.001756
H184	H	0.355846	-0.908428	-0.501756
H185	H	-0.158623	-0.611603	-0.632663
H186	H	0.341377	-0.111603	-0.132663
Cl187	Cl	-1.030155	-1.411928	-0.386241
Cl188	Cl	-0.530155	-0.911928	0.113759
H189	H	-0.418364	-1.384598	-0.410067
H190	H	0.081636	-0.884598	0.089933
Cl191	Cl	-0.527795	-1.411641	-0.386127
Cl192	Cl	-0.027795	-0.911641	0.113873
Cl193	Cl	-0.676977	-1.076145	-0.684640
Cl194	Cl	-0.176977	-0.576145	-0.184640
Cl195	Cl	-0.545206	-1.136876	-0.630445
Cl196	Cl	-0.045206	-0.636876	-0.130445
H197	H	-0.174448	-1.358984	-0.857563
H198	H	0.325552	-0.858984	-0.357563
