data_functionalizedCrystal
_audit_creation_method	'MofGen! by Chris Wilmer'
_symmetry_space_group_name_H-M	'P1'
_symmetry_Int_Tables_number	1
_symmetry_cell_setting	triclinic
loop_
_symmetry_equiv_pos_as_xyz
  x,y,z
_cell_length_a	16.992694
_cell_length_b	15.944551
_cell_length_c	16.053802
_cell_angle_alpha	92.564789
_cell_angle_beta	87.249047
_cell_angle_gamma	87.083481
loop_
_atom_site_label
_atom_site_type_symbol
_atom_site_fract_x
_atom_site_fract_y
_atom_site_fract_z
O1	O	1.043704	0.174798	-0.069327
O2	O	0.815419	0.172843	-0.069352
O3	O	0.935795	0.051964	-0.069332
O4	O	0.923328	0.295677	-0.069348
O5	O	0.929169	0.058588	0.069526
O6	O	0.808793	0.179467	0.069506
O7	O	1.037078	0.181422	0.069530
Zn8	Zn	0.921884	0.181497	0.091565
Zn9	Zn	0.930613	0.172769	-0.091386
O10	O	0.916702	0.302301	0.069510
C11	C	0.782894	0.173641	0.000074
C12	C	0.695850	0.166141	0.000065
C13	C	0.645613	0.238506	0.000061
C14	C	0.563826	0.231454	0.000073
C15	C	0.532276	0.152037	0.000083
C16	C	0.582519	0.079667	0.000089
C17	C	0.664305	0.086719	0.000083
C18	C	0.288676	0.122807	0.000107
C19	C	0.206884	0.115759	0.000111
C20	C	0.188196	0.267548	0.000095
C21	C	0.269984	0.274593	0.000084
C22	C	0.320220	0.202223	0.000095
N23	N	0.448677	0.144827	0.000092
N24	N	0.403818	0.209434	0.000092
C25	C	0.931964	0.023948	0.000097
C26	C	0.930413	-0.069402	0.000098
C27	C	0.852090	-0.289513	0.000078
C28	C	0.885194	-0.344825	0.068547
C29	C	0.927606	-0.240317	0.000091
C30	C	0.891744	-0.351338	-0.068356
C31	C	0.924889	-0.405412	0.000081
C32	C	0.960728	-0.294396	0.068617
C33	C	0.967271	-0.300907	-0.068348
C34	C	1.000429	-0.356196	0.000138
C35	C	0.929169	-0.145209	0.000098
C36	C	0.923332	-0.500518	0.000080
C37	C	1.069603	0.180624	0.000103
C38	C	1.156648	0.188124	0.000106
C39	C	0.920533	0.330318	0.000079
C40	C	0.922085	0.423667	0.000073
N41	N	0.915931	0.187453	0.216424
N42	N	0.936572	0.166806	-0.216246
C43	C	0.967170	0.136040	0.260127
C44	C	0.963014	0.140215	0.347533
C45	C	0.907622	0.195808	0.391235
C46	C	0.856378	0.247223	0.347526
C47	C	0.860531	0.243043	0.260121
C48	C	0.889481	0.214042	0.652641
C49	C	0.885333	0.218220	0.740052
C50	C	0.991968	0.111209	0.740053
C51	C	0.996120	0.107038	0.652646
C52	C	0.944873	0.158450	0.608945
N53	N	0.903374	0.200078	0.480578
N54	N	0.949118	0.154175	0.519604
H55	H	0.705207	0.027792	0.000086
O56	O	0.843675	-0.368036	0.137534
C57	C	0.765512	-0.333870	0.137295
H58	H	0.750494	-0.320022	0.070668
H59	H	0.759468	-0.273133	0.177870
C60	C	0.727030	-0.414309	0.254058
C61	C	0.708581	-0.397308	0.172225
H62	H	0.691911	-0.453438	0.275608
H63	H	0.779690	-0.437325	0.254222
H64	H	0.721993	-0.363689	0.287861
H65	H	0.713628	-0.447924	0.138422
H66	H	0.655920	-0.374301	0.172057
O67	O	1.075275	-0.390695	0.000336
C68	C	1.111342	-0.361466	0.072609
H69	H	1.063930	-0.340184	0.122829
H70	H	1.148599	-0.306278	0.056932
C71	C	1.222688	-0.458976	0.043214
C72	C	1.164456	-0.432843	0.104897
H73	H	1.255455	-0.503003	0.063129
H74	H	1.198391	-0.478666	-0.005480
H75	H	1.253728	-0.412979	0.030155
H76	H	1.133412	-0.478837	0.117947
H77	H	1.188749	-0.413162	0.153594
O78	O	0.802533	0.301112	0.390069
C79	C	0.751750	0.255266	0.440629
H80	H	0.782356	0.192279	0.453729
H81	H	0.695401	0.244022	0.406956
C82	C	0.693459	0.382819	0.507559
C83	C	0.731053	0.305461	0.523655
H84	H	0.680689	0.413783	0.558772
H85	H	0.727670	0.413708	0.473494
H86	H	0.646506	0.373438	0.479496
H87	H	0.778010	0.314843	0.551708
H88	H	0.696849	0.274575	0.557727
O89	O	1.008644	-0.277480	-0.137333
C90	C	1.010106	-0.189096	-0.135959
H91	H	0.999893	-0.162600	-0.068956
H92	H	0.961670	-0.162804	-0.175712
C93	C	1.103472	-0.196398	-0.253563
C94	C	1.090935	-0.163857	-0.171268
H95	H	1.153329	-0.180828	-0.275346
H96	H	1.102485	-0.255944	-0.254491
H97	H	1.063103	-0.174485	-0.286680
H98	H	1.131297	-0.185778	-0.138150
H99	H	1.091931	-0.104313	-0.170335
H100	H	0.840224	0.263494	0.775630
O101	O	0.810724	0.293074	0.217795
C102	C	0.760930	0.343024	0.275108
H103	H	0.790116	0.349133	0.337408
H104	H	0.702244	0.312248	0.284418
C105	C	0.710543	0.423409	0.164461
C106	C	0.746392	0.430917	0.240977
H107	H	0.701571	0.477625	0.143408
H108	H	0.744087	0.389755	0.125848
H109	H	0.661641	0.397759	0.172230
H110	H	0.795297	0.456558	0.233206
H111	H	0.712855	0.464578	0.279589
H112	H	0.671294	0.303176	0.000052
H113	H	0.789404	-0.260406	0.000139
H114	H	0.847755	0.255905	0.617067
H115	H	0.989876	-0.269501	0.126566
O116	O	1.041819	0.061228	0.782375
C117	C	1.091581	0.011244	0.725059
H118	H	1.095434	0.042768	0.662751
H119	H	1.066554	-0.053318	0.715773
C120	C	1.169809	-0.037442	0.835693
C121	C	1.174546	0.001280	0.759167
H122	H	1.220985	-0.043592	0.856733
H123	H	1.136282	-0.003770	0.874309
H124	H	1.148950	-0.091240	0.827944
H125	H	1.195395	0.055081	0.766919
H126	H	1.208079	-0.032384	0.720553
H127	H	0.295666	0.339262	0.000066
H128	H	0.522926	0.290381	0.000068
H129	H	0.147286	0.326467	0.000088
H130	H	0.862556	-0.376319	-0.126245
O131	O	1.021002	0.081963	0.217808
C132	C	1.065347	0.037494	0.275128
H133	H	1.030239	0.037348	0.337437
H134	H	1.123151	0.069158	0.284412
C135	C	1.126247	-0.053478	0.164504
C136	C	1.083124	-0.053663	0.241031
H137	H	1.137217	-0.109707	0.143470
H138	H	1.096374	-0.023517	0.125885
H139	H	1.174412	-0.027087	0.172251
H140	H	1.034956	-0.080044	0.233282
H141	H	1.112990	-0.083631	0.279648
H142	H	1.004736	0.098349	0.383115
H143	H	0.181201	0.051085	0.000118
H144	H	0.329568	0.063878	0.000117
O145	O	0.551746	0.002583	0.000064
C146	C	0.468787	0.011874	0.000087
H147	H	0.450834	0.074879	-0.026207
H148	H	0.442850	0.009455	0.066705
C149	C	0.459501	-0.137202	-0.022065
C150	C	0.437452	-0.059821	-0.054367
H151	H	0.440171	-0.181429	-0.055651
H152	H	0.515393	-0.143463	-0.022077
H153	H	0.437886	-0.139206	0.033450
H154	H	0.459075	-0.057814	-0.109876
H155	H	0.381563	-0.053562	-0.054365
O156	O	1.049653	0.052652	0.610293
C157	C	1.009761	-0.004413	0.560034
H158	H	0.949194	0.024564	0.546763
H159	H	1.002443	-0.064993	0.594055
C160	C	1.132275	-0.059645	0.493405
C161	C	1.057889	-0.024052	0.477099
H162	H	1.161964	-0.071763	0.442248
H163	H	1.159152	-0.021202	0.527267
H164	H	1.126167	-0.110124	0.521757
H165	H	1.063998	0.026432	0.448756
H166	H	1.031014	-0.062487	0.443230
