data_functionalizedCrystal
_audit_creation_method	'MofGen! by Chris Wilmer'
_symmetry_space_group_name_H-M	'P1'
_symmetry_Int_Tables_number	1
_symmetry_cell_setting	triclinic
loop_
_symmetry_equiv_pos_as_xyz
  x,y,z
_cell_length_a	19.077105
_cell_length_b	19.076919
_cell_length_c	21.395361
_cell_angle_alpha	92.266553
_cell_angle_beta	87.726871
_cell_angle_gamma	90.076224
loop_
_atom_site_label
_atom_site_type_symbol
_atom_site_fract_x
_atom_site_fract_y
_atom_site_fract_z
Zn1	Zn	1.058234	-0.440387	-0.303112
Zn2	Zn	1.558234	0.059613	0.196888
Zn3	Zn	1.062862	-0.322870	-0.403852
Zn4	Zn	1.562862	0.177130	0.096148
Zn5	Zn	0.945453	-0.318181	-0.294719
Zn6	Zn	1.445453	0.181819	0.205281
Zn7	Zn	0.940684	-0.435622	-0.403474
Zn8	Zn	1.440684	0.064378	0.096526
O9	O	1.001809	-0.379265	-0.351289
O10	O	1.501809	0.120735	0.148711
O11	O	1.157180	-0.428754	-0.320146
O12	O	1.657180	0.071246	0.179854
O13	O	1.051221	-0.223917	-0.386021
O14	O	1.551221	0.276083	0.113979
O15	O	0.960473	-0.334424	-0.208157
O16	O	1.460473	0.165576	0.291843
O17	O	1.160580	-0.342415	-0.394159
O18	O	1.660580	0.157585	0.105841
O19	O	1.043333	-0.424208	-0.214324
O20	O	1.543333	0.075792	0.285676
O21	O	0.964961	-0.220472	-0.305841
O22	O	1.464961	0.279528	0.194159
O23	O	0.846489	-0.329804	-0.305474
O24	O	1.346489	0.170196	0.194526
O25	O	0.952345	-0.534585	-0.393515
O26	O	1.452345	-0.034585	0.106485
O27	O	0.842985	-0.416087	-0.385377
O28	O	1.342985	0.083913	0.114623
O29	O	1.038708	-0.538086	-0.319780
O30	O	1.538708	-0.038086	0.180220
O31	O	1.046596	-0.337795	-0.491476
O32	O	1.546596	0.162205	0.008524
O33	O	0.956832	-0.420634	-0.491199
O34	O	1.456832	0.079366	0.008801
C35	C	0.819241	-0.371920	-0.344474
C36	C	1.319241	0.128080	0.155526
C37	C	0.741137	-0.368795	-0.341575
C38	C	1.241137	0.131205	0.158425
C39	C	0.702641	-0.412179	-0.381871
C40	C	1.202641	0.087821	0.118129
C41	C	0.629254	-0.409245	-0.379138
C42	C	1.129254	0.090755	0.120862
C43	C	0.594365	-0.362924	-0.336112
C44	C	1.094365	0.137076	0.163888
C45	C	0.632866	-0.319538	-0.295811
C46	C	1.132866	0.180462	0.204189
C47	C	0.706252	-0.322475	-0.298541
C48	C	1.206252	0.177525	0.201459
C49	C	0.375079	-0.349333	-0.323476
C50	C	0.875079	0.150667	0.176524
C51	C	0.301688	-0.346397	-0.320750
C52	C	0.801688	0.153603	0.179250
C53	C	0.298081	-0.436106	-0.404077
C54	C	0.798081	0.063894	0.095923
C55	C	0.371468	-0.439036	-0.406806
C56	C	0.871468	0.060964	0.093194
C57	C	0.409963	-0.395653	-0.366503
C58	C	0.909963	0.104347	0.133497
N59	N	0.519352	-0.359923	-0.333319
N60	N	1.019352	0.140077	0.166681
N61	N	0.484975	-0.398658	-0.369294
N62	N	0.984975	0.101342	0.130706
C63	C	0.994478	-0.562544	-0.357542
C64	C	1.494478	-0.062544	0.142458
C65	C	0.991355	-0.640647	-0.360206
C66	C	1.491355	-0.140647	0.139794
C67	C	1.034850	-0.679164	-0.323069
C68	C	1.534850	-0.179164	0.176931
C69	C	1.031906	-0.752549	-0.325570
C70	C	1.531906	-0.252549	0.174430
C71	C	0.985471	-0.787417	-0.365211
C72	C	1.485471	-0.287417	0.134789
C73	C	0.941971	-0.748895	-0.402349
C74	C	1.441971	-0.248895	0.097651
C75	C	0.944911	-0.675511	-0.399845
C76	C	1.444911	-0.175511	0.100155
C77	C	0.971851	-1.006697	-0.376815
C78	C	1.471851	-0.506697	0.123185
C79	C	0.968915	-1.080087	-0.379318
C80	C	1.468915	-0.580087	0.120682
C81	C	1.058850	-1.083735	-0.302538
C82	C	1.558850	-0.583735	0.197462
C83	C	1.061790	-1.010350	-0.300039
C84	C	1.561790	-0.510350	0.199961
C85	C	1.018287	-0.971834	-0.337175
C86	C	1.518287	-0.471834	0.162825
N87	N	0.982462	-0.862429	-0.367770
N88	N	1.482462	-0.362429	0.132230
N89	N	1.021293	-0.896824	-0.334613
N90	N	1.521293	-0.396824	0.165387
C91	C	1.185089	-0.386639	-0.358131
C92	C	1.685089	0.113361	0.141869
C93	C	1.263192	-0.389781	-0.361047
C94	C	1.763192	0.110219	0.138953
C95	C	1.001717	-0.379222	-0.514072
C96	C	1.501717	0.120778	-0.014072
C97	C	1.001742	-0.379230	-0.583714
C98	C	1.501742	0.120770	-0.083714
C99	C	1.009151	-0.196700	-0.345017
C100	C	1.509151	0.303300	0.154983
C101	C	1.012411	-0.118603	-0.342181
C102	C	1.512411	0.381397	0.157819
C103	C	1.048520	-0.336143	-0.616554
C104	C	1.548520	0.163857	-0.116554
C105	C	1.048552	-0.336160	-0.681991
C106	C	1.548552	0.163840	-0.181991
C107	C	1.001794	-0.379256	-0.714585
C108	C	1.501794	0.120744	-0.214585
C109	C	0.955012	-0.422351	-0.681738
C110	C	1.455012	0.077649	-0.181738
C111	C	0.954986	-0.422338	-0.616302
C112	C	1.454986	0.077662	-0.116302
C113	C	0.938302	-0.382224	-0.816131
C114	C	1.438302	0.117776	-0.316131
C115	C	0.938327	-0.382232	-0.881566
C116	C	1.438327	0.117768	-0.381566
C117	C	1.001874	-0.379301	-0.916411
C118	C	1.501874	0.120699	-0.416411
C119	C	1.065398	-0.376346	-0.885813
C120	C	1.565398	0.123654	-0.385813
C121	C	1.065372	-0.376333	-0.820378
C122	C	1.565372	0.123667	-0.320378
C123	C	1.001817	-0.379275	-0.785539
C124	C	1.501817	0.120725	-0.285539
C125	C	1.048690	-0.336230	-1.020205
C126	C	1.548690	0.163770	-0.520205
C127	C	1.048723	-0.336252	-1.085644
C128	C	1.548723	0.163748	-0.585644
C129	C	0.955178	-0.422439	-1.085388
C130	C	1.455178	0.077561	-0.585388
C131	C	0.955151	-0.422421	-1.019951
C132	C	1.455151	0.077579	-0.519951
C133	C	1.001906	-0.379313	-0.987364
C134	C	1.501906	0.120687	-0.487364
C135	C	1.001919	-0.379324	-0.187872
C136	C	1.501919	0.120676	0.312128
C137	C	1.001966	-0.379349	-0.118233
C138	C	1.501966	0.120651	0.381767
H139	H	0.604454	-0.281825	-0.260775
H140	H	1.104454	0.218175	0.239225
H141	H	0.917109	-0.457532	-1.111926
H142	H	1.417109	0.042468	-0.611926
H143	H	0.936439	-0.975347	-0.407063
H144	H	1.436439	-0.475347	0.092937
O145	O	1.133880	-0.373152	-0.787371
O146	O	1.633880	0.126848	-0.287371
H147	H	1.166560	-0.419254	-0.802687
H148	H	1.666560	0.080746	-0.302687
O149	O	0.904680	-0.468874	-0.984523
O150	O	1.404680	0.031126	-0.484523
H151	H	0.872162	-0.498837	-1.018179
H152	H	1.372162	0.001163	-0.518179
O153	O	0.869816	-0.385418	-0.914567
O154	O	1.369816	0.114582	-0.414567
H155	H	0.825624	-0.387468	-0.879346
H156	H	1.325624	0.112532	-0.379346
O157	O	0.747779	-0.275675	-0.255086
O158	O	1.247779	0.224325	0.244914
H159	H	0.711191	-0.242964	-0.224714
H160	H	1.211191	0.257036	0.275286
H161	H	1.117144	-0.373959	-0.914183
H162	H	1.617144	0.126041	-0.414183
H163	H	1.072665	-0.650780	-0.290791
H164	H	1.572665	-0.150780	0.209209
O165	O	1.099178	-0.289777	-1.121069
O166	O	1.599178	0.210223	-0.621069
H167	H	1.131678	-0.259796	-1.087412
H168	H	1.631678	0.240204	-0.587412
H169	H	1.086764	-0.301131	-0.993671
H170	H	1.586764	0.198869	-0.493671
O171	O	1.099001	-0.289681	-0.717424
O172	O	1.599001	0.210319	-0.217424
H173	H	1.131504	-0.259699	-0.683770
H174	H	1.631504	0.240301	-0.183770
H175	H	0.399870	-0.476755	-0.441844
H176	H	0.899870	0.023245	0.058156
O177	O	0.869758	-0.385381	-0.778549
O178	O	1.369758	0.114619	-0.278549
H179	H	0.825591	-0.387425	-0.810816
H180	H	1.325591	0.112575	-0.310816
H181	H	1.067326	-0.783906	-0.295331
H182	H	1.567326	-0.283906	0.204669
O183	O	0.264060	-0.296410	-0.274358
O184	O	0.764060	0.203590	0.225642
H185	H	0.206564	-0.301643	-0.279245
H186	H	0.706564	0.198357	0.220755
H187	H	0.916942	-0.457441	-0.708280
H188	H	1.416942	0.042559	-0.208280
O189	O	0.904519	-0.468798	-0.580875
O190	O	1.404519	0.031202	-0.080875
H191	H	0.872003	-0.498764	-0.614529
H192	H	1.372003	0.001236	-0.114529
H193	H	0.731042	-0.449897	-0.416910
H194	H	1.231042	0.050103	0.083090
O195	O	0.256583	-0.482878	-0.447577
O196	O	0.756583	0.017122	0.052423
H197	H	0.268481	-0.538620	-0.439343
H198	H	0.768481	-0.038620	0.060657
O199	O	0.891879	-0.786500	-0.445101
O200	O	1.391879	-0.286500	0.054899
H201	H	0.921965	-0.821185	-0.479298
H202	H	1.421965	-0.321185	0.020702
O203	O	1.111877	-0.972741	-0.257287
O204	O	1.611877	-0.472741	0.242713
H205	H	1.141626	-1.011854	-0.231880
H206	H	1.641626	-0.511854	0.268120
H207	H	0.597913	-0.444573	-0.411952
H208	H	1.097913	0.055427	0.088048
H209	H	0.909486	-0.644151	-0.430079
H210	H	1.409486	-0.144151	0.069921
O211	O	1.098958	-0.289659	-0.581409
O212	O	1.598958	0.210341	-0.081409
H213	H	1.089167	-0.234020	-0.591675
H214	H	1.589167	0.265980	-0.091675
O215	O	0.416596	-0.302521	-0.280028
O216	O	0.916596	0.197479	0.219972
H217	H	0.380005	-0.269807	-0.249662
H218	H	0.880005	0.230193	0.250338
H219	H	1.094267	-1.115102	-0.272303
H220	H	1.594267	-0.615102	0.227697
H221	H	0.931100	-1.108474	-0.411600
H222	H	1.431100	-0.608474	0.088400
