data_functionalizedCrystal
_audit_creation_method	'MofGen! by Chris Wilmer'
_symmetry_space_group_name_H-M	'P1'
_symmetry_Int_Tables_number	1
_symmetry_cell_setting	triclinic
loop_
_symmetry_equiv_pos_as_xyz
  x,y,z
_cell_length_a	6.817900
_cell_length_b	12.840946
_cell_length_c	11.102210
_cell_angle_alpha	81.894508
_cell_angle_beta	108.604261
_cell_angle_gamma	88.344365
loop_
_atom_site_label
_atom_site_type_symbol
_atom_site_fract_x
_atom_site_fract_y
_atom_site_fract_z
V1	V	-3.924909	0.325214	-0.178851
O2	O	-3.887502	0.319025	0.005495
O3	O	-3.902954	0.322987	-0.351650
O4	O	-3.820301	0.467052	-0.177460
O5	O	-3.970727	0.173964	-0.169901
V6	V	-4.412393	0.307123	-0.156640
O7	O	-4.177477	0.364897	-0.227572
O8	O	-4.610022	0.267440	-0.107920
O9	O	-4.211141	0.309350	0.016159
O10	O	-4.567197	0.313312	-0.340986
O11	O	-4.483971	0.458373	-0.165590
O12	O	-4.293794	0.165285	-0.158031
C13	C	-3.756207	0.317856	-0.393732
C14	C	-3.819169	0.316981	-0.535006
C15	C	-3.902572	0.220244	-0.715104
C16	C	-3.843396	0.221054	-0.582359
C17	C	-3.854101	0.412104	-0.620406
C18	C	-3.913262	0.411292	-0.753148
C19	C	-3.639760	0.104057	-0.373905
C20	C	-3.604858	0.008938	-0.288512
C21	C	-3.735702	-0.072318	-0.318989
C22	C	-3.901496	-0.058457	-0.434858
C23	C	-3.936413	0.036665	-0.520245
C24	C	-3.805523	0.117916	-0.489768
C25	C	-4.116916	0.528283	-0.961603
C26	C	-4.151848	0.623406	-1.046994
C27	C	-4.021017	0.704671	-1.016522
C28	C	-3.855252	0.690821	-0.900652
C29	C	-3.820320	0.595698	-0.815261
C30	C	-3.951151	0.514432	-0.845742
C31	C	-3.650786	0.501623	-0.171529
C32	C	-3.646639	0.619756	-0.171534
C33	C	-4.109686	0.012585	-0.164011
C34	C	-4.126683	0.130713	-0.163983
V35	V	-3.907885	0.811381	-0.178888
O36	O	-3.943101	0.962588	-0.169953
O37	O	-3.813409	0.664197	-0.177481
O38	O	-3.884394	0.852783	-0.351687
O39	O	-3.871625	0.772696	0.005458
V40	V	-4.393427	0.848827	-0.156688
O41	O	-4.162389	0.795854	-0.227609
O42	O	-4.588329	0.887040	-0.107974
O43	O	-4.265089	0.984764	-0.158090
O44	O	-4.475402	0.703536	-0.165624
O45	O	-4.546878	0.893428	-0.341036
O46	O	-4.194104	0.796177	0.016116
C47	C	-4.021232	0.314478	0.058234
C48	C	-3.937506	0.315360	0.199507
C49	C	-3.737196	0.860317	-0.393760
C50	C	-3.798825	0.897307	-0.535034
C51	C	-4.005233	0.771675	0.058202
C52	C	-3.922880	0.733648	0.199479
C53	C	-4.008802	0.920132	-0.607907
C54	C	-4.066735	0.954904	-0.740647
C55	C	-3.914688	0.966843	-0.800514
C56	C	-3.704693	0.944018	-0.727630
C57	C	-3.646762	0.909254	-0.594891
C58	C	-3.711114	0.703367	0.259320
C59	C	-3.633703	0.667648	0.392066
C60	C	-3.768063	0.662206	0.464968
C61	C	-3.979847	0.692493	0.405119
C62	C	-4.057252	0.728218	0.272376
H63	H	-4.071400	0.047951	-0.614583
H64	H	-4.049485	0.782128	-1.086057
H65	H	-3.922302	0.142129	-0.753647
O66	O	-4.293231	0.979495	-0.819252
H67	H	-4.360061	1.043192	-0.782656
O68	O	-3.566159	0.709246	0.180715
H69	H	-3.616490	0.657877	0.105707
H70	H	-3.469855	-0.002342	-0.194172
O71	O	-3.405281	0.634984	0.456600
H72	H	-3.385131	0.551071	0.502561
H73	H	-3.475777	0.890667	-0.535568
O74	O	-3.827961	0.515568	-0.569331
H75	H	-3.862173	0.581571	-0.651012
H76	H	-3.705008	0.633112	0.573054
O77	O	-3.977163	1.004473	-0.943656
H78	H	-4.148719	1.018378	-0.984252
H79	H	-3.580911	0.953744	-0.776394
H80	H	-4.089226	0.688057	0.464496
O81	O	-4.285671	0.760859	0.207833
H82	H	-4.366080	0.751056	0.280834
H83	H	-3.533189	0.170212	-0.349086
O84	O	-4.042637	-0.146096	-0.467730
H85	H	-3.990494	-0.214572	-0.388895
H86	H	-4.286833	0.634679	-1.141340
O87	O	-3.698119	-0.174918	-0.226905
H88	H	-3.541262	-0.211710	-0.212343
H89	H	-3.685333	0.584424	-0.720915
H90	H	-3.748724	0.756995	-0.875838
O91	O	-4.258027	0.440623	-0.994457
H92	H	-4.419487	0.468943	-1.006367
O93	O	-4.172810	0.907278	-0.543347
H94	H	-4.328541	0.929012	-0.616334
