data_functionalizedCrystal
_audit_creation_method	'MofGen! by Chris Wilmer'
_symmetry_space_group_name_H-M	'P1'
_symmetry_Int_Tables_number	1
_symmetry_cell_setting	triclinic
loop_
_symmetry_equiv_pos_as_xyz
  x,y,z
_cell_length_a	23.532407
_cell_length_b	23.532357
_cell_length_c	9.616153
_cell_angle_alpha	90.007802
_cell_angle_beta	90.004169
_cell_angle_gamma	82.838519
loop_
_atom_site_label
_atom_site_type_symbol
_atom_site_fract_x
_atom_site_fract_y
_atom_site_fract_z
O1	O	0.755249	0.069135	0.115574
O2	O	0.589384	0.079138	0.115599
O3	O	0.677333	-0.008797	0.115557
O4	O	0.667300	0.157070	0.115616
O5	O	0.677321	-0.008795	-0.115734
O6	O	0.589372	0.079140	-0.115693
O7	O	0.755237	0.069137	-0.115717
Zn8	Zn	0.672303	0.074139	-0.152427
Zn9	Zn	0.672319	0.074136	0.152309
O10	O	0.667288	0.157072	-0.115675
C11	C	0.568162	0.078884	-0.000044
C12	C	0.504945	0.078118	-0.000036
C13	C	0.238788	0.022922	-0.000094
C14	C	0.298188	0.023633	-0.000093
O15	O	0.334940	-0.020154	-0.000157
N16	N	0.320805	0.075911	-0.000065
C17	C	0.284018	0.127480	-0.000052
O18	O	0.308710	0.172012	-0.000029
C19	C	0.224619	0.126768	-0.000062
C20	C	0.202006	0.074487	-0.000076
C21	C	0.216174	-0.029355	-0.000109
C22	C	0.156778	-0.030066	-0.000107
C23	C	0.119996	0.021499	-0.000090
C24	C	0.142610	0.073776	-0.000074
C25	C	0.187833	0.178337	-0.000059
C26	C	0.128431	0.177620	-0.000071
C27	C	0.105818	0.125339	-0.000085
C28	C	0.046431	0.124630	-0.000055
N29	N	0.023815	0.072353	-0.000083
C30	C	0.060597	0.020787	-0.000100
C31	C	0.408760	0.128971	-0.000032
C32	C	0.468158	0.129684	-0.000012
C33	C	0.482324	0.025837	-0.000055
C34	C	0.422925	0.025125	-0.000066
C35	C	0.386143	0.076694	-0.000060
C36	C	-0.064140	0.019297	-0.000095
C37	C	-0.123542	0.018591	-0.000087
C38	C	-0.137702	0.122438	-0.000051
C39	C	-0.078306	0.123145	-0.000051
C40	C	-0.041525	0.071570	-0.000078
O41	O	0.009644	0.168394	0.000003
O42	O	0.035897	-0.023737	-0.000141
C43	C	0.677076	-0.030013	-0.000093
C44	C	0.676322	-0.093232	-0.000106
C45	C	0.671592	-0.485244	0.126047
C46	C	0.670874	-0.544643	0.126055
O47	O	0.670490	-0.575361	0.233279
N48	N	0.670512	-0.574354	-0.000020
C49	C	0.670861	-0.544660	-0.126112
O50	O	0.670487	-0.575385	-0.233347
C51	C	0.671574	-0.485261	-0.126118
C52	C	0.671942	-0.455555	-0.000035
C53	C	0.671959	-0.455538	0.252120
C54	C	0.672677	-0.396142	0.252112
C55	C	0.673028	-0.366454	0.126030
C56	C	0.672661	-0.396160	-0.000043
C57	C	0.671920	-0.455569	-0.252208
C58	C	0.672632	-0.396166	-0.252204
C59	C	0.673000	-0.366459	-0.126120
C60	C	0.673730	-0.307076	-0.126134
N61	N	0.674092	-0.277366	-0.000058
C62	C	0.673741	-0.307055	0.126023
C63	C	0.669363	-0.669402	-0.126088
C64	C	0.668654	-0.728800	-0.126083
C65	C	0.668666	-0.728779	0.126084
C66	C	0.669379	-0.669380	0.126078
C67	C	0.669725	-0.639692	-0.000013
C68	C	0.675250	-0.182320	0.125996
C69	C	0.675971	-0.122920	0.125976
C70	C	0.675956	-0.122946	-0.126190
C71	C	0.675238	-0.182342	-0.126171
C72	C	0.674883	-0.212027	-0.000067
O73	O	0.674113	-0.276321	-0.233302
O74	O	0.674108	-0.276321	0.233241
C75	C	0.776459	0.069390	-0.000071
C76	C	0.839676	0.070156	-0.000070
C77	C	0.667545	0.178288	-0.000022
C78	C	0.668300	0.241506	-0.000000
N79	N	0.672296	0.074140	-0.360402
C80	C	0.625110	0.121026	-0.580750
C81	C	0.625210	0.121198	-0.419582
C82	C	0.731647	0.086784	-0.418854
C83	C	0.731388	0.087115	-0.580072
C84	C	0.660727	0.014449	-0.580332
C85	C	0.659355	0.014858	-0.419105
N86	N	0.672330	0.074130	0.360284
H87	H	0.378815	0.170968	-0.000017
O88	O	0.671517	-0.487600	-0.388199
H89	H	0.671872	-0.456966	-0.475858
H90	H	0.632379	0.165072	-0.621234
O91	O	0.212215	0.234726	-0.000079
H92	H	0.176651	0.270457	-0.000097
H93	H	0.668378	-0.752962	0.228747
O94	O	0.522005	-0.029781	-0.000100
H95	H	0.514014	-0.054822	0.094159
H96	H	0.676244	-0.098763	-0.228843
O97	O	0.566755	0.111296	-0.367230
H98	H	0.548558	0.148449	-0.303322
H99	H	0.742175	0.129802	-0.378450
O100	O	0.779282	0.042730	-0.368073
H101	H	0.801021	0.020225	-0.458577
O102	O	0.132398	-0.086459	-0.000147
H103	H	0.105680	-0.089282	0.094122
H104	H	0.098485	0.219615	-0.000073
H105	H	0.246117	-0.071348	-0.000128
O106	O	0.668266	-0.760842	-0.262069
H107	H	0.629577	-0.744148	-0.322517
O108	O	0.671568	-0.487547	0.388128
H109	H	0.710529	-0.481439	0.448580
H110	H	0.486564	0.172256	0.000019
H111	H	0.674944	-0.206530	-0.228839
O112	O	0.669752	-0.637387	-0.262098
H113	H	0.630795	-0.643499	-0.322562
H114	H	0.672906	-0.371995	-0.354884
O115	O	0.779306	0.043572	-0.631749
H116	H	0.809329	0.065422	-0.695661
O117	O	0.701982	-0.033501	-0.365753
H118	H	0.691609	-0.074687	-0.409156
H119	H	0.632579	0.165494	-0.380988
O120	O	-0.053909	0.179531	-0.000031
H121	H	-0.089468	0.215268	-0.000025
O122	O	-0.177379	0.178054	-0.000054
H123	H	-0.222480	0.168771	-0.000079
H124	H	0.669677	-0.645197	0.228746
H125	H	0.676272	-0.098736	0.228653
O126	O	0.674862	-0.214334	0.262003
H127	H	0.675241	-0.183691	0.349657
H128	H	-0.034199	-0.022700	-0.000116
O129	O	0.601527	0.002130	-0.368511
H130	H	0.573285	-0.002604	-0.459141
H131	H	0.580843	0.113669	-0.619558
O132	O	0.673059	-0.364103	0.388101
H133	H	0.672685	-0.394733	0.475763
O134	O	0.398535	-0.031263	-0.000104
H135	H	0.434097	-0.066996	-0.000125
O136	O	0.745001	0.144753	-0.629862
H137	H	0.751702	0.172129	-0.538792
O138	O	0.604663	-0.001761	-0.634229
H139	H	0.584440	0.032544	-0.703951
O140	O	0.706321	-0.031793	-0.630855
H141	H	0.748941	-0.022229	-0.594951
O142	O	-0.147933	-0.037800	-0.000121
H143	H	-0.112373	-0.073535	-0.000153
