data_functionalizedCrystal
_audit_creation_method	'MofGen! by Chris Wilmer'
_symmetry_space_group_name_H-M	'P1'
_symmetry_Int_Tables_number	1
_symmetry_cell_setting	triclinic
loop_
_symmetry_equiv_pos_as_xyz
  x,y,z
_cell_length_a	17.699083
_cell_length_b	17.699082
_cell_length_c	16.176319
_cell_angle_alpha	89.995130
_cell_angle_beta	90.001389
_cell_angle_gamma	96.717252
loop_
_atom_site_label
_atom_site_type_symbol
_atom_site_fract_x
_atom_site_fract_y
_atom_site_fract_z
O1	O	-1.004078	0.095713	-0.068627
O2	O	-0.783700	0.108166	-0.068654
O3	O	-0.900116	-0.008250	-0.068638
O4	O	-0.887662	0.212129	-0.068643
O5	O	-0.900100	-0.008257	0.068855
O6	O	-0.783684	0.108158	0.068839
O7	O	-1.004062	0.095706	0.068866
Cu8	Cu	-0.893872	0.101931	0.081407
Cu9	Cu	-0.893891	0.101940	-0.081195
O10	O	-0.887646	0.212121	0.068851
C11	C	-0.755495	0.107716	0.000089
C12	C	-0.671477	0.106377	0.000079
C13	C	-0.899662	-0.036451	0.000107
C14	C	-0.898324	-0.120469	0.000102
C15	C	-1.032267	0.096156	0.000121
C16	C	-1.116285	0.097494	0.000126
C17	C	-0.622856	0.174711	0.000078
C18	C	-0.543912	0.173448	0.000089
C19	C	-0.513592	0.103852	0.000095
C20	C	-0.562219	0.035513	0.000098
C21	C	-0.641161	0.036776	0.000093
C22	C	-0.243856	0.030418	0.000119
C23	C	-0.164908	0.029160	0.000121
C24	C	-0.146607	0.167090	0.000114
C25	C	-0.225549	0.168353	0.000109
C26	C	-0.274170	0.100015	0.000117
C27	C	-0.359769	0.101384	0.000107
C28	C	-0.427994	0.102481	0.000099
N29	N	-0.893864	0.101925	0.195772
C30	C	-0.888100	0.240322	0.000104
C31	C	-0.889439	0.324340	0.000103
C32	C	-0.890077	0.363813	-0.074846
C33	C	-0.891344	0.442756	-0.074847
C34	C	-0.891967	0.482225	0.000102
C35	C	-0.891331	0.442746	0.075056
C36	C	-0.890070	0.363804	0.075056
C37	C	-0.896421	0.761110	0.075058
C38	C	-0.897680	0.840057	0.075052
C39	C	-0.897695	0.840062	-0.074845
C40	C	-0.896433	0.761120	-0.074845
C41	C	-0.895801	0.721647	0.000109
C42	C	-0.894429	0.636048	0.000109
C43	C	-0.893334	0.567823	0.000103
N44	N	-0.893904	0.101941	-0.195560
C45	C	-0.945428	0.050397	0.239043
C46	C	-0.945432	0.050396	0.325590
C47	C	-0.893875	0.101927	0.368865
C48	C	-0.842305	0.153458	0.325588
C49	C	-0.842298	0.153454	0.239042
C50	C	-0.842331	0.153472	0.674616
C51	C	-0.842343	0.153473	0.761168
C52	C	-0.945465	0.050414	0.761164
C53	C	-0.945458	0.050410	0.674619
C54	C	-0.893886	0.101938	0.631349
C55	C	-0.893881	0.101937	0.537505
C56	C	-0.893882	0.101932	0.462707
H57	H	-0.647536	0.231384	0.000073
Br58	Br	-1.015435	-0.019522	0.615891
Br59	Br	-0.707149	-0.055966	0.000102
H60	H	-0.898184	0.872191	0.136087
Br61	Br	-1.015409	-0.019537	0.180323
Br62	Br	-0.892185	0.496309	0.176773
Br63	Br	-0.477928	0.266191	0.000085
H64	H	-0.250231	0.225026	0.000101
H65	H	-0.889550	0.331666	0.136087
Br66	Br	-1.015411	-0.019538	0.384318
H67	H	-0.898211	0.872210	-0.135876
H68	H	-0.987456	0.008455	0.796403
H69	H	-0.107011	0.222734	0.000112
H70	H	-0.800356	0.195437	0.796400
Br71	Br	-0.309831	-0.062327	0.000132
H72	H	-0.140225	-0.027517	0.000127
Br73	Br	-0.895582	0.707559	-0.176564
H74	H	-0.800340	0.195428	0.639393
H75	H	-0.800322	0.195413	0.360827
H76	H	-0.800308	0.195412	0.203812
Br77	Br	-0.521071	-0.058941	0.000114
Br78	Br	-0.889222	0.310257	-0.176567
H79	H	-0.895907	0.728980	0.136089
Br80	Br	-0.892214	0.496323	-0.176567
