data_functionalizedCrystal
_audit_creation_method	'MofGen! by Chris Wilmer'
_symmetry_space_group_name_H-M	'P1'
_symmetry_Int_Tables_number	1
_symmetry_cell_setting	triclinic
loop_
_symmetry_equiv_pos_as_xyz
  x,y,z
_cell_length_a	9.065215
_cell_length_b	16.109304
_cell_length_c	15.186229
_cell_angle_alpha	90.000934
_cell_angle_beta	90.002823
_cell_angle_gamma	84.238668
loop_
_atom_site_label
_atom_site_type_symbol
_atom_site_fract_x
_atom_site_fract_y
_atom_site_fract_z
O1	O	1.957455	0.121894	0.073212
O2	O	1.527927	0.131895	0.073216
O3	O	1.754488	0.005954	0.073214
O4	O	1.730894	0.247835	0.073213
O5	O	1.754473	0.005952	-0.073243
O6	O	1.527912	0.131893	-0.073242
O7	O	1.957439	0.121892	-0.073245
Zn8	Zn	1.742673	0.126892	-0.096497
Zn9	Zn	1.742693	0.126895	0.096467
O10	O	1.730879	0.247833	-0.073244
C11	C	1.472956	0.130934	-0.000013
C12	C	1.309183	0.128061	-0.000011
C13	C	1.753524	-0.025029	-0.000012
C14	C	1.750657	-0.117346	-0.000006
C15	C	1.744040	-0.329733	0.079824
C16	C	1.741332	-0.416474	0.079824
C17	C	1.741323	-0.416473	-0.079852
C18	C	1.744020	-0.329733	-0.079851
C19	C	1.745386	-0.286366	-0.000010
C20	C	1.739981	-0.459847	-0.000012
C21	C	1.737045	-0.553895	-0.000014
C22	C	1.748320	-0.192311	-0.000008
C23	C	2.012410	0.122853	-0.000015
C24	C	2.176184	0.125726	-0.000011
C25	C	1.731843	0.278816	-0.000015
C26	C	1.734710	0.371133	-0.000015
N27	N	1.742671	0.126890	-0.228189
C28	C	1.843026	0.071143	-0.453913
C29	C	1.843031	0.071141	-0.546102
C30	C	1.642342	0.182641	-0.546110
C31	C	1.642331	0.182638	-0.453922
C32	C	1.742682	0.126890	-0.407826
C33	C	1.742697	0.126891	-0.592204
C34	C	1.742701	0.126889	-0.692160
C35	C	1.742676	0.126890	-0.307863
N36	N	1.742708	0.126890	0.228160
H37	H	1.745148	-0.294426	0.144836
H38	H	1.560612	0.228034	-0.416396
H39	H	1.740232	-0.451780	0.144832
H40	H	1.560641	0.228030	-0.583651
H41	H	1.740214	-0.451794	-0.144856
H42	H	1.745108	-0.294422	-0.144865
H43	H	1.924735	0.025748	-0.416383
H44	H	1.924738	0.025745	-0.583624
