data_functionalizedCrystal
_audit_creation_method	'MofGen! by Chris Wilmer'
_symmetry_space_group_name_H-M	'P1'
_symmetry_Int_Tables_number	1
_symmetry_cell_setting	triclinic
loop_
_symmetry_equiv_pos_as_xyz
  x,y,z
_cell_length_a	10.654545
_cell_length_b	10.654541
_cell_length_c	9.130313
_cell_angle_alpha	89.995708
_cell_angle_beta	89.996934
_cell_angle_gamma	84.483504
loop_
_atom_site_label
_atom_site_type_symbol
_atom_site_fract_x
_atom_site_fract_y
_atom_site_fract_z
O1	O	1.667841	0.176372	-0.121784
O2	O	1.302362	0.193184	-0.121790
O3	O	1.493506	0.002038	-0.121778
O4	O	1.476697	0.367518	-0.121796
O5	O	1.493493	0.002033	0.121821
O6	O	1.302349	0.193178	0.121809
O7	O	1.667828	0.176366	0.121815
Cu8	Cu	1.485087	0.184772	0.144054
Cu9	Cu	1.485103	0.184779	-0.144030
O10	O	1.476684	0.367512	0.121803
C11	C	1.255557	0.191948	0.000009
C12	C	1.116114	0.188258	0.000006
C13	C	1.050602	0.186518	0.132793
C14	C	0.919583	0.183031	0.132793
C15	C	0.919598	0.183028	-0.132792
C16	C	1.050616	0.186507	-0.132790
C17	C	1.492266	-0.044762	0.000020
C18	C	1.488575	-0.184206	0.000018
C19	C	1.717140	-0.212181	0.000040
C20	C	1.829683	-0.291677	0.000054
C21	C	1.826208	-0.422695	0.000050
C22	C	1.710177	-0.474218	0.000027
C23	C	1.597633	-0.394722	0.000013
C24	C	1.601121	-0.263702	0.000022
C25	C	1.369071	-0.366748	-0.000020
C26	C	1.372544	-0.235729	-0.000005
C27	C	1.253040	-0.418271	-0.000043
C28	C	1.140494	-0.338774	-0.000047
C29	C	1.143974	-0.207749	-0.000041
C30	C	1.260001	-0.156233	-0.000019
C31	C	1.714633	0.177602	0.000013
C32	C	1.854076	0.181292	0.000005
C33	C	1.477924	0.414313	0.000001
C34	C	1.481615	0.553756	-0.000006
N35	N	1.485085	0.184766	0.346677
N36	N	1.485114	0.184774	-0.346652
C37	C	1.569753	0.100163	0.423334
C38	C	1.569765	0.100163	0.576671
C39	C	1.400438	0.269381	0.576680
C40	C	1.400421	0.269374	0.423346
H41	H	1.103957	0.187920	-0.240928
F42	F	1.310297	0.359420	0.341755
H43	H	1.103927	0.187944	0.240925
F44	F	0.849866	0.181180	0.274123
F45	F	1.659877	0.010115	0.658250
F46	F	0.849882	0.181140	-0.274115
F47	F	1.720849	-0.072740	0.000074
F48	F	1.953167	-0.236833	0.000071
H49	H	1.917851	-0.487421	0.000050
H50	H	1.052327	-0.143029	-0.000059
H51	H	1.707357	-0.580901	0.000005
H52	H	1.250218	-0.524954	-0.000056
F53	F	1.017019	-0.393617	-0.000087
F54	F	1.310339	0.359426	0.658286
F55	F	1.263714	-0.016794	-0.000002
F56	F	1.659857	0.010113	0.341743
