data_functionalizedCrystal
_audit_creation_method	'MofGen! by Chris Wilmer'
_symmetry_space_group_name_H-M	'P1'
_symmetry_Int_Tables_number	1
_symmetry_cell_setting	triclinic
loop_
_symmetry_equiv_pos_as_xyz
  x,y,z
_cell_length_a	16.959455
_cell_length_b	19.120786
_cell_length_c	16.959447
_cell_angle_alpha	87.528017
_cell_angle_beta	89.981652
_cell_angle_gamma	92.464580
loop_
_atom_site_label
_atom_site_type_symbol
_atom_site_fract_x
_atom_site_fract_y
_atom_site_fract_z
Zn1	Zn	1.194958	-0.279636	-0.433474
Zn2	Zn	1.189220	-0.397102	-0.295648
Zn3	Zn	1.062777	-0.279661	-0.301309
Zn4	Zn	1.057101	-0.397057	-0.427788
O5	O	1.126014	-0.338364	-0.364555
O6	O	1.304807	-0.295227	-0.415201
O7	O	1.172421	-0.381552	-0.185787
O8	O	1.085087	-0.181367	-0.323590
O9	O	1.300592	-0.381528	-0.313942
O10	O	1.182200	-0.181349	-0.420691
O11	O	1.079523	-0.295269	-0.189946
O12	O	0.951413	-0.295225	-0.318077
O13	O	1.075414	-0.381452	-0.539155
O14	O	0.947244	-0.381476	-0.411000
O15	O	1.176697	-0.295183	-0.543332
O16	O	1.166918	-0.495386	-0.308429
O17	O	1.069851	-0.495353	-0.405511
C18	C	0.920648	-0.338349	-0.364536
C19	C	0.832791	-0.338359	-0.364546
C20	C	0.789324	-0.383228	-0.311756
C21	C	0.793705	-0.293495	-0.417342
C22	C	0.711159	-0.293501	-0.417351
C23	C	0.667691	-0.338370	-0.364561
C24	C	0.706770	-0.383234	-0.311762
C25	C	0.672074	-0.248633	-0.470144
C26	C	0.589523	-0.248636	-0.470155
C27	C	0.546054	-0.293509	-0.417368
C28	C	0.585138	-0.338375	-0.364567
C29	C	0.541670	-0.383245	-0.311777
C30	C	0.580752	-0.428115	-0.258980
C31	C	0.663301	-0.428107	-0.258975
C32	C	0.463505	-0.293517	-0.417373
C33	C	0.459116	-0.383250	-0.311783
C34	C	1.117167	-0.520855	-0.355756
C35	C	1.113455	-0.598926	-0.352018
C36	C	1.162235	-0.635534	-0.400858
C37	C	1.158743	-0.708889	-0.397347
C38	C	1.106476	-0.745636	-0.344992
C39	C	1.057691	-0.709023	-0.296150
C40	C	1.061178	-0.635668	-0.299665
C41	C	1.093413	-0.967122	-0.331851
C42	C	1.089931	-1.040481	-0.328337
C43	C	1.190983	-1.040343	-0.429536
C44	C	1.194469	-0.966987	-0.433044
C45	C	1.145681	-0.930381	-0.384204
C46	C	1.102907	-0.820617	-0.341401
C47	C	1.149246	-0.855401	-0.387801
C48	C	1.332181	-0.338380	-0.364574
C49	C	1.420038	-0.338386	-0.364583
C50	C	1.126063	-0.338310	-0.570726
C51	C	1.126083	-0.338287	-0.658584
C52	C	1.134917	-0.155160	-0.373406
C53	C	1.138710	-0.077089	-0.377177
C54	C	1.174461	-0.383199	-0.697694
C55	C	1.077720	-0.293357	-0.702027
C56	C	1.077734	-0.293336	-0.784574
C57	C	1.126112	-0.338248	-0.823685
C58	C	1.174476	-0.383181	-0.780249
C59	C	1.029366	-0.248410	-0.828016
C60	C	1.029378	-0.248388	-0.910568
C61	C	1.077760	-0.293297	-0.949681
C62	C	1.126126	-0.338231	-0.906240
C63	C	1.174504	-0.383143	-0.945350
C64	C	1.222875	-0.428074	-0.901911
C65	C	1.222858	-0.428090	-0.819361
C66	C	1.077777	-0.293280	-1.032230
C67	C	1.174519	-0.383125	-1.027905
C68	C	1.126013	-0.338367	-0.159189
C69	C	1.126155	-0.338192	-0.071341
H70	H	0.431689	-0.256980	-0.460354
N71	N	0.977185	-0.199976	-0.785835
H72	H	0.984520	-0.206803	-0.726949
H73	H	0.991921	-0.149808	-0.802694
H74	H	1.038393	-0.256699	-1.067595
H75	H	1.204800	-0.605620	-0.443488
H76	H	1.198471	-0.738692	-0.437112
H77	H	0.423730	-0.419791	-0.268798
H78	H	1.047364	-1.070398	-0.285703
H79	H	1.060353	-0.850544	-0.298770
H80	H	0.989992	-0.211802	-0.945930
H81	H	1.053690	-0.937322	-0.292082
H82	H	1.213918	-0.419695	-1.059743
H83	H	0.545350	-0.464644	-0.215995
H84	H	0.821148	-0.419762	-0.268772
N85	N	0.705452	-0.476494	-0.202028
H86	H	0.764342	-0.469677	-0.210032
H87	H	0.691529	-0.465499	-0.146129
N88	N	0.840582	-0.245118	-0.474294
H89	H	0.898807	-0.251928	-0.466284
H90	H	0.825633	-0.256133	-0.530189
N91	N	0.547384	-0.200237	-0.527098
H92	H	0.561245	-0.211201	-0.583025
H93	H	0.488506	-0.207064	-0.519030
N94	N	1.001317	-0.748652	-0.239678
H95	H	1.006512	-0.800677	-0.244857
H96	H	1.014267	-0.735848	-0.183853
N97	N	0.718966	-0.200266	-0.527095
H98	H	0.754799	-0.167683	-0.496615
H99	H	0.751781	-0.228928	-0.562264
H100	H	1.191800	-0.825480	-0.430431
H101	H	1.237030	-0.937070	-0.475676
N102	N	1.243600	-1.079825	-0.482211
H103	H	1.233462	-1.131870	-0.472043
H104	H	1.231874	-1.066979	-0.539267
H105	H	1.021456	-0.605863	-0.259895
H106	H	1.262262	-0.464643	-0.933765
N107	N	1.275025	-0.476548	-0.772511
H108	H	1.267586	-0.469819	-0.714279
H109	H	1.260368	-0.526703	-0.784601
H110	H	1.213846	-0.419778	-0.662322
N111	N	1.025538	-0.244923	-0.659848
H112	H	1.032866	-0.251754	-0.600962
H113	H	1.040278	-0.194756	-0.676702
