data_functionalizedCrystal
_audit_creation_method	'MofGen! by Chris Wilmer'
_symmetry_space_group_name_H-M	'P1'
_symmetry_Int_Tables_number	1
_symmetry_cell_setting	triclinic
loop_
_symmetry_equiv_pos_as_xyz
  x,y,z
_cell_length_a	18.215407
_cell_length_b	12.594516
_cell_length_c	18.215399
_cell_angle_alpha	89.977894
_cell_angle_beta	89.980167
_cell_angle_gamma	90.016501
loop_
_atom_site_label
_atom_site_type_symbol
_atom_site_fract_x
_atom_site_fract_y
_atom_site_fract_z
Zn1	Zn	1.125117	-0.423740	-0.416146
Zn2	Zn	1.625117	0.076260	0.083854
Zn3	Zn	1.125045	-0.601738	-0.293092
Zn4	Zn	1.625045	-0.101738	0.206908
Zn5	Zn	1.002050	-0.423775	-0.293093
Zn6	Zn	1.502050	0.076225	0.206907
Zn7	Zn	1.002035	-0.601679	-0.416117
Zn8	Zn	1.502035	-0.101679	0.083883
O9	O	1.063561	-0.512733	-0.354612
O10	O	1.563561	-0.012733	0.145388
O11	O	1.228092	-0.447362	-0.399834
O12	O	1.728092	0.052638	0.100166
O13	O	1.108705	-0.578170	-0.190108
O14	O	1.608705	-0.078170	0.309892
O15	O	1.018412	-0.274825	-0.309429
O16	O	1.518412	0.225175	0.190571
O17	O	1.228038	-0.578136	-0.309427
O18	O	1.728038	-0.078136	0.190573
O19	O	1.108829	-0.274799	-0.399835
O20	O	1.608829	0.225201	0.100165
O21	O	1.018341	-0.447422	-0.190109
O22	O	1.518341	0.052578	0.309891
O23	O	0.899063	-0.447364	-0.309401
O24	O	1.399063	0.052636	0.190599
O25	O	1.018386	-0.578035	-0.519105
O26	O	1.518386	-0.078035	-0.019105
O27	O	0.899052	-0.578069	-0.399786
O28	O	1.399052	-0.078069	0.100214
O29	O	1.108814	-0.447305	-0.519126
O30	O	1.608814	0.052695	-0.019126
O31	O	1.108690	-0.750676	-0.309399
O32	O	1.608690	-0.250676	0.190601
O33	O	1.018315	-0.750632	-0.399785
O34	O	1.518315	-0.250632	0.100215
C35	C	0.872355	-0.512715	-0.354591
C36	C	1.372355	-0.012715	0.145409
C37	C	0.790556	-0.512733	-0.354599
C38	C	1.290556	-0.012733	0.145401
C39	C	1.063513	-0.789274	-0.354605
C40	C	1.563513	-0.289274	0.145395
C41	C	1.063560	-0.907579	-0.354626
C42	C	1.563560	-0.407579	0.145374
C43	C	0.602376	-0.580898	-0.401604
C44	C	1.102376	-0.080898	0.098396
C45	C	0.525517	-0.580901	-0.401613
C46	C	1.025517	-0.080901	0.098387
C47	C	0.525499	-0.444588	-0.307636
C48	C	1.025499	0.055412	0.192364
C49	C	0.602356	-0.444580	-0.307631
C50	C	1.102356	0.055420	0.192369
C51	C	0.640793	-0.512741	-0.354614
C52	C	1.140793	-0.012741	0.145386
C53	C	0.487077	-0.512752	-0.354628
C54	C	0.987077	-0.012752	0.145372
C55	C	0.403743	-0.512755	-0.354638
C56	C	0.903743	-0.012755	0.145362
C57	C	0.724132	-0.512737	-0.354606
C58	C	1.224132	-0.012737	0.145394
C59	C	1.014400	-0.976847	-0.403753
C60	C	1.514400	-0.476847	0.096247
C61	C	0.996471	-1.047706	-0.336600
C62	C	1.496471	-0.547706	0.163400
C63	C	1.081556	-1.047520	-0.421791
C64	C	1.581556	-0.547520	0.078209
C65	C	1.045595	-0.976880	-0.287438
C66	C	1.545595	-0.476880	0.212562
C67	C	1.130712	-0.976687	-0.372674
C68	C	1.630712	-0.476687	0.127326
C69	C	1.112808	-1.047514	-0.305475
C70	C	1.612808	-0.547514	0.194525
C71	C	1.255514	-0.512752	-0.354634
C72	C	1.755514	-0.012752	0.145366
C73	C	1.337313	-0.512760	-0.354643
C74	C	1.837313	-0.012760	0.145357
C75	C	1.063606	-0.512660	-0.546565
C76	C	1.563606	-0.012660	-0.046565
C77	C	1.063625	-0.512628	-0.628364
C78	C	1.563625	-0.012628	-0.128364
C79	C	1.063630	-0.235112	-0.354635
C80	C	1.563630	0.264888	0.145365
C81	C	1.063659	-0.116807	-0.354645
C82	C	1.563659	0.383193	0.145355
C83	C	1.110728	-0.444493	-0.816570
C84	C	1.610728	0.055507	-0.316570
C85	C	1.110737	-0.444462	-0.893429
C86	C	1.610737	0.055538	-0.393429
C87	C	1.016575	-0.580599	-0.893396
C88	C	1.516575	-0.080599	-0.393396
C89	C	1.016563	-0.580624	-0.816538
C90	C	1.516563	-0.080624	-0.316538
C91	C	1.063644	-0.512572	-0.778127
C92	C	1.563644	-0.012572	-0.278127
C93	C	1.063664	-0.512517	-0.931844
C94	C	1.563664	-0.012517	-0.431844
C95	C	1.063674	-0.512483	-1.015177
C96	C	1.563674	-0.012483	-0.515177
C97	C	1.063634	-0.512604	-0.694788
C98	C	1.563634	-0.012604	-0.194788
C99	C	1.063559	-0.512729	-0.163406
C100	C	1.563559	-0.012729	0.336594
C101	C	1.063683	-0.512461	-0.081607
C102	C	1.563683	-0.012461	0.418393
H103	H	0.494241	-0.636400	-0.439878
H104	H	0.994241	-0.136400	0.060122
H105	H	1.149077	-0.389024	-0.924726
H106	H	1.649077	0.110976	-0.424726
H107	H	0.978244	-0.636006	-0.924679
H108	H	1.478244	-0.136006	-0.424679
H109	H	0.978215	-0.636061	-0.785237
H110	H	1.478215	-0.136061	-0.285237
H111	H	1.154423	-1.078347	-0.263891
H112	H	1.654423	-0.578347	0.236109
H113	H	0.633636	-0.389071	-0.269367
H114	H	1.133636	0.110929	0.230633
H115	H	1.096738	-1.078549	-0.478583
H116	H	1.596738	-0.578549	0.021417
N117	N	0.641627	-0.650528	-0.449597
N118	N	1.141627	-0.150528	0.050403
N119	N	0.607313	-0.711377	-0.491548
N120	N	1.107313	-0.211377	0.008452
H121	H	0.635031	-0.760555	-0.525446
H122	H	1.135031	-0.260555	-0.025446
H123	H	0.939728	-1.078924	-0.321350
H124	H	1.439728	-0.578924	0.178650
H125	H	0.972753	-0.945818	-0.445237
H126	H	1.472753	-0.445818	0.054763
N127	N	1.158812	-0.374960	-0.777345
N128	N	1.658812	0.125040	-0.277345
N129	N	1.153948	-0.276744	-0.785943
N130	N	1.653948	0.223256	-0.285943
H131	H	1.187907	-0.227630	-0.758243
H132	H	1.687907	0.272370	-0.258243
N133	N	0.486224	-0.374973	-0.259652
N134	N	0.986224	0.125027	0.240348
N135	N	0.417603	-0.374988	-0.259662
N136	N	0.917603	0.125012	0.240338
H137	H	0.389865	-0.325823	-0.225771
H138	H	0.889865	0.174177	0.274229
N139	N	1.026458	-0.938107	-0.216178
N140	N	1.526458	-0.438107	0.283822
N141	N	1.023296	-0.840378	-0.204678
N142	N	1.523296	-0.340378	0.295322
H143	H	1.009773	-0.812991	-0.154354
H144	H	1.509773	-0.312991	0.345646
H145	H	1.187442	-0.945472	-0.387956
H146	H	1.687442	-0.445472	0.112044
