data_functionalizedCrystal
_audit_creation_method	'MofGen! by Chris Wilmer'
_symmetry_space_group_name_H-M	'P1'
_symmetry_Int_Tables_number	1
_symmetry_cell_setting	triclinic
loop_
_symmetry_equiv_pos_as_xyz
  x,y,z
_cell_length_a	15.944551
_cell_length_b	12.837942
_cell_length_c	11.892095
_cell_angle_alpha	94.302569
_cell_angle_beta	86.105155
_cell_angle_gamma	89.163839
loop_
_atom_site_label
_atom_site_type_symbol
_atom_site_fract_x
_atom_site_fract_y
_atom_site_fract_z
O1	O	1.130053	0.127078	-0.093883
O2	O	0.886824	0.143559	-0.093911
O3	O	1.003045	-0.015584	-0.093891
O4	O	1.013832	0.286221	-0.093904
O5	O	0.993353	-0.002336	0.094115
O6	O	0.877132	0.156808	0.094095
O7	O	1.120361	0.140326	0.094122
Zn8	Zn	0.997208	0.150670	0.123958
Zn9	Zn	1.009977	0.133215	-0.123747
O10	O	1.004140	0.299470	0.094102
C11	C	0.994555	-0.047581	0.000111
C12	C	0.983687	-0.162659	0.000108
C13	C	0.850629	0.149499	0.000088
C14	C	0.757219	0.147447	0.000078
C15	C	1.114340	-0.403609	0.000099
C16	C	1.104133	-0.511736	0.000096
C17	C	0.953066	-0.487042	0.000091
C18	C	0.963274	-0.378915	0.000094
C19	C	1.043913	-0.337203	0.000100
C20	C	1.054119	-0.229073	0.000111
C21	C	0.903054	-0.204382	0.000097
C22	C	0.892846	-0.312509	0.000094
C23	C	0.534078	0.043899	0.000104
C24	C	0.481683	0.085452	-0.092595
C25	C	0.586196	0.143736	0.000091
C26	C	0.472152	0.098537	0.092764
C27	C	0.420995	0.140145	0.000109
C28	C	0.535035	0.185310	-0.092684
C29	C	0.525505	0.198388	0.092758
C30	C	0.473135	0.240011	0.000036
C31	C	0.681364	0.145802	0.000080
C32	C	0.325829	0.138086	0.000112
C33	C	1.156556	0.134386	0.000121
C34	C	1.249966	0.136438	0.000124
C35	C	1.012630	0.331466	0.000098
C36	C	1.023498	0.446544	0.000094
N37	N	0.988499	0.162583	0.293011
N38	N	1.018692	0.121294	-0.292800
C39	C	1.079287	0.038343	0.529675
C40	C	1.073206	0.046677	0.648016
C41	C	0.970253	0.187580	0.648036
C42	C	0.976334	0.179246	0.529695
C43	C	1.030853	0.104626	0.470519
C44	C	1.036938	0.096297	0.352176
C45	C	0.933981	0.237194	0.352198
C46	C	0.927900	0.245528	0.470539
H47	H	1.119779	-0.195113	0.000120
H48	H	0.562443	0.221977	-0.171139
H49	H	0.845706	-0.150301	0.000106
H50	H	1.081333	0.035541	0.303995
H51	H	0.446614	0.322950	-0.000019
H52	H	0.544971	0.246103	0.171128
H53	H	0.462235	0.037702	-0.170962
H54	H	0.444646	0.061814	0.171131
H55	H	1.123685	-0.022409	0.481493
H56	H	0.894545	0.291169	0.304019
H57	H	1.179999	-0.369646	0.000115
H58	H	1.112645	-0.007298	0.696177
H59	H	0.887414	-0.521025	0.000074
H60	H	0.925858	0.248327	0.696232
H61	H	1.161482	-0.565801	0.000092
H62	H	0.827192	-0.346487	0.000085
H63	H	0.883509	0.306280	0.518734
H64	H	0.560789	-0.038966	-0.000007
