data_functionalizedCrystal
_audit_creation_method	'MofGen! by Chris Wilmer'
_symmetry_space_group_name_H-M	'P1'
_symmetry_Int_Tables_number	1
_symmetry_cell_setting	triclinic
loop_
_symmetry_equiv_pos_as_xyz
  x,y,z
_cell_length_a	23.532407
_cell_length_b	23.532407
_cell_length_c	9.130313
_cell_angle_alpha	89.990840
_cell_angle_beta	90.001817
_cell_angle_gamma	82.848678
loop_
_atom_site_label
_atom_site_type_symbol
_atom_site_fract_x
_atom_site_fract_y
_atom_site_fract_z
O1	O	0.755259	0.069135	-0.121631
O2	O	0.589395	0.079138	-0.121676
O3	O	0.677329	-0.008795	-0.121626
O4	O	0.667325	0.157068	-0.121682
O5	O	0.677323	-0.008798	0.121973
O6	O	0.589389	0.079135	0.121922
O7	O	0.755253	0.069132	0.121968
Cu8	Cu	0.672321	0.074134	0.144188
Cu9	Cu	0.672328	0.074137	-0.143896
O10	O	0.667319	0.157066	0.121917
C11	C	0.568176	0.078882	0.000118
C12	C	0.504959	0.078116	0.000102
C13	C	0.677071	-0.030013	0.000177
C14	C	0.676305	-0.093230	0.000189
C15	C	0.105856	0.125350	0.000152
C16	C	0.046456	0.124638	0.000161
O17	O	0.009711	0.168424	0.000199
N18	N	0.023830	0.072362	0.000176
C19	C	0.060607	0.020794	0.000197
O20	O	0.035908	-0.023737	0.000213
C21	C	0.120006	0.021506	0.000199
C22	C	0.142629	0.073785	0.000169
C23	C	0.128479	0.177625	0.000123
C24	C	0.187876	0.178336	0.000111
C25	C	0.224649	0.126772	0.000128
C26	C	0.202025	0.074496	0.000157
C27	C	0.156783	-0.030062	0.000230
C28	C	0.216185	-0.029345	0.000233
C29	C	0.238808	0.022934	0.000202
C30	C	0.298194	0.023643	0.000161
N31	N	0.320820	0.075920	0.000146
C32	C	0.284048	0.127484	0.000129
C33	C	-0.064135	0.019302	0.000197
C34	C	-0.123533	0.018589	0.000186
C35	C	-0.137680	0.122434	0.000152
C36	C	-0.078281	0.123146	0.000153
C37	C	-0.041509	0.071578	0.000182
C38	C	0.408784	0.128974	0.000103
C39	C	0.468186	0.129680	0.000085
C40	C	0.482329	0.025836	0.000126
C41	C	0.422932	0.025129	0.000137
C42	C	0.386160	0.076702	0.000130
O43	O	0.334974	-0.020119	0.000129
O44	O	0.308755	0.172007	0.000133
C45	C	0.723539	-0.492333	0.000121
C46	C	0.722827	-0.551733	0.000110
O47	O	0.766613	-0.588478	0.000068
N48	N	0.670551	-0.574359	0.000097
C49	C	0.618983	-0.537582	0.000080
O50	O	0.574452	-0.562281	0.000066
C51	C	0.619695	-0.478182	0.000081
C52	C	0.671974	-0.455560	0.000109
C53	C	0.775814	-0.469710	0.000147
C54	C	0.776525	-0.410313	0.000161
C55	C	0.724961	-0.373540	0.000149
C56	C	0.672685	-0.396164	0.000123
C57	C	0.568127	-0.441406	0.000053
C58	C	0.568844	-0.382004	0.000053
C59	C	0.621123	-0.359381	0.000081
C60	C	0.621832	-0.299995	0.000124
N61	N	0.674109	-0.277368	0.000138
C62	C	0.725673	-0.314141	0.000150
C63	C	0.617491	-0.662324	0.000076
C64	C	0.616778	-0.721722	0.000085
C65	C	0.720623	-0.735869	0.000112
C66	C	0.721335	-0.676470	0.000113
C67	C	0.669767	-0.639698	0.000089
C68	C	0.727163	-0.189405	0.000181
C69	C	0.727869	-0.130003	0.000201
C70	C	0.624025	-0.115860	0.000166
C71	C	0.623318	-0.175257	0.000154
C72	C	0.674891	-0.212029	0.000156
O73	O	0.578070	-0.263215	0.000161
O74	O	0.770196	-0.289433	0.000144
C75	C	0.776472	0.069388	0.000170
C76	C	0.839689	0.070154	0.000177
C77	C	0.667577	0.178283	0.000110
C78	C	0.668343	0.241500	0.000090
N79	N	0.672320	0.074131	0.346810
N80	N	0.672333	0.074134	-0.346519
C81	C	0.711269	0.035210	0.423484
C82	C	0.711275	0.035210	0.576821
C83	C	0.633379	0.113057	0.576796
C84	C	0.633371	0.113054	0.423462
H85	H	0.486602	0.172255	0.000060
H86	H	0.742983	0.003516	0.361078
H87	H	0.206289	0.220908	0.000086
H88	H	0.817806	-0.499645	0.000152
N89	N	0.090930	0.230307	0.000116
N90	N	0.111149	0.276973	0.000096
H91	H	0.084634	0.314183	0.000082
H92	H	0.582043	-0.085909	0.000161
N93	N	0.371221	0.181649	0.000104
N94	N	0.336501	0.192843	0.102785
H95	H	0.309971	0.230044	0.102780
H96	H	-0.059867	0.165717	0.000137
H97	H	0.601669	0.144748	0.639221
N98	N	0.133687	-0.083467	0.000312
N99	N	0.102132	-0.095449	0.103023
H100	H	0.085823	-0.133170	0.103091
H101	H	-0.167632	0.164421	0.000145
N102	N	0.593583	0.152822	0.345156
N103	N	0.594061	0.205460	0.362249
H104	H	0.565961	0.233545	0.306947
N105	N	-0.146628	-0.034818	0.000184
N106	N	-0.113782	-0.080851	0.000190
H107	H	-0.130090	-0.118572	0.000194
N108	N	-0.026583	-0.033382	0.000221
N109	N	-0.046798	-0.080050	0.000236
H110	H	-0.020280	-0.117259	0.000256
N111	N	0.253739	-0.082028	0.000277
N112	N	0.233527	-0.128698	0.000311
H113	H	0.260047	-0.165905	0.000343
H114	H	0.512280	-0.016146	0.000134
N115	N	0.399829	-0.028277	0.000143
N116	N	0.432672	-0.074312	0.000150
H117	H	0.416360	-0.112032	0.000166
N118	N	0.751050	-0.004555	0.655150
N119	N	0.733179	-0.039818	0.740713
H120	H	0.761269	-0.067908	0.796030
N121	N	0.781274	-0.106895	0.000256
N122	N	0.815955	-0.118278	0.102952
H123	H	0.853671	-0.101960	0.102993
H124	H	0.763906	-0.658056	0.000135
N125	N	0.779843	-0.226959	0.000225
N126	N	0.791030	-0.261687	0.102917
H127	H	0.828235	-0.288210	0.102961
H128	H	0.574207	-0.740136	0.000088
H129	H	0.819097	-0.391900	0.000178
H130	H	0.575496	-0.632386	0.000068
N131	N	0.773302	-0.773431	0.000094
N132	N	0.819977	-0.753230	0.000100
H133	H	0.857180	-0.779757	0.000085
N134	N	0.514723	-0.464503	0.000038
N135	N	0.480030	-0.453134	0.102700
H136	H	0.442310	-0.469444	0.102688
N137	N	0.516161	-0.344450	0.000011
N138	N	0.469491	-0.364662	-0.000023
H139	H	0.432284	-0.338142	-0.000054
H140	H	0.580748	-0.193677	0.000172
