data_functionalizedCrystal
_audit_creation_method	'MofGen! by Chris Wilmer'
_symmetry_space_group_name_H-M	'P1'
_symmetry_Int_Tables_number	1
_symmetry_cell_setting	triclinic
loop_
_symmetry_equiv_pos_as_xyz
  x,y,z
_cell_length_a	10.540539
_cell_length_b	10.540491
_cell_length_c	9.616153
_cell_angle_alpha	90.000952
_cell_angle_beta	89.995174
_cell_angle_gamma	95.484421
loop_
_atom_site_label
_atom_site_type_symbol
_atom_site_fract_x
_atom_site_fract_y
_atom_site_fract_z
O1	O	1.685861	-0.178899	-0.115576
O2	O	1.316445	-0.195755	-0.115593
O3	O	1.509613	-0.002617	-0.115579
O4	O	1.492693	-0.372038	-0.115589
O5	O	1.509586	-0.002621	0.115712
O6	O	1.316418	-0.195759	0.115699
O7	O	1.685834	-0.178903	0.115716
Zn8	Zn	1.501122	-0.187332	0.152430
Zn9	Zn	1.501157	-0.187327	-0.152307
O10	O	1.492666	-0.372042	0.115702
C11	C	1.269129	-0.194493	0.000051
C12	C	1.128182	-0.190711	0.000045
C13	C	1.508344	0.044685	0.000065
C14	C	1.504587	0.185636	0.000059
C15	C	0.944780	-0.045791	0.000588
C16	C	1.091397	-0.049625	0.000053
C17	C	1.066512	-0.258606	-0.132031
C18	C	0.919969	-0.253791	-0.132127
C19	C	0.919449	-0.256665	0.130894
C20	C	1.066431	-0.257965	0.132626
C21	C	1.733151	-0.180165	0.000069
C22	C	1.874098	-0.183947	0.000066
C23	C	1.638785	0.403093	0.000600
C24	C	1.642793	0.256497	0.000068
C25	C	1.433859	0.230397	-0.132019
C26	C	1.430829	0.377160	-0.132119
C27	C	1.427921	0.376964	0.130903
C28	C	1.434466	0.230621	0.132638
C29	C	1.493952	0.580658	0.000061
C30	C	1.497760	0.439713	0.000074
N31	N	1.501107	-0.187335	0.360404
N32	N	1.501182	-0.187314	-0.360281
C33	C	1.397460	-0.290304	0.580767
C34	C	1.397688	-0.290690	0.419599
C35	C	1.633826	-0.217469	0.418859
C36	C	1.633261	-0.218198	0.580077
C37	C	1.473359	-0.053893	0.580318
C38	C	1.470312	-0.054758	0.419091
H39	H	1.134010	0.003797	0.094731
O40	O	1.266425	-0.266676	0.632192
H41	H	1.243629	-0.170994	0.597584
O42	O	0.856868	-0.391649	0.132078
H43	H	0.889371	-0.442361	0.224731
O44	O	1.665492	-0.347135	0.629874
H45	H	1.753316	-0.335328	0.694103
O46	O	1.573453	0.047696	0.630874
H47	H	1.623982	0.094058	0.540257
H48	H	1.378627	-0.025213	0.621051
H49	H	1.658707	-0.313709	0.378467
H50	H	0.871983	-0.355258	-0.138125
H51	H	1.415570	-0.389676	0.381018
H52	H	1.482999	0.199542	-0.230308
H53	H	1.712916	-0.146207	0.619070
H54	H	1.712893	-0.144504	0.380512
H55	H	1.299074	-0.272559	0.380080
O56	O	1.710081	0.458640	0.126094
H57	H	1.711584	0.564058	0.123992
H58	H	0.887900	-0.211008	0.231007
O59	O	1.716124	0.217611	0.125456
H60	H	1.749040	0.303585	0.187019
H61	H	1.540853	0.025564	0.378801
O62	O	1.709716	0.460715	-0.124153
H63	H	1.809146	0.434288	-0.122772
H64	H	1.107391	-0.208366	0.230335
O65	O	1.420841	-0.420684	0.634398
H66	H	1.336501	-0.461129	0.694359
O67	O	1.485776	0.433162	0.263518
H68	H	1.476894	0.537230	0.265424
O69	O	0.906917	0.028048	0.126051
H70	H	0.837308	-0.032925	0.189375
O71	O	1.098495	-0.394217	0.143208
H72	H	1.159205	-0.416230	0.053728
O73	O	1.716532	0.218850	-0.125565
H74	H	1.749455	0.305402	-0.186185
O75	O	1.122926	-0.196121	-0.262237
H76	H	1.227287	-0.203318	-0.263760
O77	O	1.495512	0.430521	-0.262514
H78	H	1.528592	0.351458	-0.324945
H79	H	0.914593	0.009712	-0.093600
O80	O	1.293920	0.407638	-0.140096
H81	H	1.230167	0.317584	-0.143876
H82	H	1.332114	0.183008	-0.136935
O83	O	1.146738	0.021627	-0.125575
H84	H	1.068760	0.058949	-0.186191
O85	O	1.502614	0.192711	0.262079
H86	H	1.586076	0.142034	0.232130
H87	H	0.891779	-0.203607	-0.230852
O88	O	1.300820	0.165603	0.143236
H89	H	1.282198	0.099930	0.053765
O90	O	1.290481	0.406315	0.132104
H91	H	1.271941	0.465300	0.040028
O92	O	1.340975	-0.024507	0.368507
H93	H	1.340849	-0.021193	0.253140
O94	O	1.096087	-0.395851	-0.138571
H95	H	1.200887	-0.399545	-0.143217
