data_functionalizedCrystal
_audit_creation_method	'MofGen! by Chris Wilmer'
_symmetry_space_group_name_H-M	'P1'
_symmetry_Int_Tables_number	1
_symmetry_cell_setting	triclinic
loop_
_symmetry_equiv_pos_as_xyz
  x,y,z
_cell_length_a	13.032831
_cell_length_b	13.897448
_cell_length_c	13.032268
_cell_angle_alpha	97.148041
_cell_angle_beta	90.886977
_cell_angle_gamma	82.822399
loop_
_atom_site_label
_atom_site_type_symbol
_atom_site_fract_x
_atom_site_fract_y
_atom_site_fract_z
Zn1	Zn	1.498483	-0.651422	-0.780818
Zn2	Zn	1.520226	-0.795137	-0.608835
Zn3	Zn	1.348341	-0.611127	-0.587060
Zn4	Zn	1.326474	-0.789922	-0.758960
O5	O	1.423381	-0.711902	-0.683918
O6	O	1.645288	-0.689533	-0.776265
O7	O	1.515676	-0.756047	-0.462030
O8	O	1.368309	-0.481501	-0.612798
O9	O	1.661262	-0.795119	-0.649909
O10	O	1.478618	-0.511106	-0.755151
O11	O	1.389393	-0.620856	-0.446032
O12	O	1.201520	-0.615798	-0.591603
O13	O	1.331040	-0.786231	-0.905776
O14	O	1.185454	-0.747158	-0.717897
O15	O	1.457414	-0.684476	-0.921835
O16	O	1.494472	-0.929417	-0.628714
O17	O	1.352124	-0.925585	-0.739010
C18	C	1.156170	-0.676541	-0.650016
C19	C	1.041852	-0.661439	-0.635536
C20	C	0.982977	-0.719784	-0.691475
C21	C	0.864824	-0.704177	-0.676511
C22	C	1.423310	-0.962504	-0.683879
C23	C	1.423369	-1.069728	-0.683909
C24	C	1.423469	-1.266044	-0.683987
C25	C	1.423410	-1.156800	-0.683946
C26	C	1.691635	-0.747403	-0.717954
C27	C	1.805950	-0.762531	-0.732458
C28	C	1.389363	-0.739266	-0.952165
C29	C	1.374866	-0.750927	-1.066476
C30	C	1.423478	-0.460328	-0.683984
C31	C	1.423519	-0.353122	-0.684012
C32	C	1.430931	-0.705779	-1.125385
C33	C	1.415949	-0.717831	-1.243531
C34	C	1.457326	-0.684583	-0.416723
C35	C	1.472021	-0.672677	-0.302438
H36	H	1.004785	-0.599929	-0.576571
H37	H	1.356848	-0.765401	-1.280558
F38	F	0.816385	-0.623773	-0.599433
F39	F	1.031420	-0.800182	-0.768551
F40	F	1.508147	-0.643573	-1.076983
F41	F	0.854384	-0.842920	-0.809555
F42	F	1.549274	-0.610499	-1.254047
F43	F	1.297624	-0.813106	-1.114874
