data_functionalizedCrystal
_audit_creation_method	'MofGen! by Chris Wilmer'
_symmetry_space_group_name_H-M	'P1'
_symmetry_Int_Tables_number	1
_symmetry_cell_setting	triclinic
loop_
_symmetry_equiv_pos_as_xyz
  x,y,z
_cell_length_a	19.188905
_cell_length_b	7.088668
_cell_length_c	8.559649
_cell_angle_alpha	97.661819
_cell_angle_beta	76.456610
_cell_angle_gamma	96.995600
loop_
_atom_site_label
_atom_site_type_symbol
_atom_site_fract_x
_atom_site_fract_y
_atom_site_fract_z
O1	O	0.921359	0.159299	0.213999
O2	O	0.716636	0.159232	0.240899
O3	O	0.837034	0.159270	-0.005283
O4	O	0.800961	0.159262	0.460180
O5	O	0.825791	-0.158724	-0.034490
O6	O	0.705394	-0.158761	0.211692
O7	O	0.910117	-0.158694	0.184792
Cu8	Cu	0.806729	-0.187763	0.195575
Cu9	Cu	0.820024	0.188301	0.230115
O10	O	0.789719	-0.158732	0.430973
C11	C	0.685048	0.000227	0.225430
C12	C	0.607678	0.000202	0.222832
N13	N	0.797382	-0.452266	0.171280
C14	C	0.577479	0.173545	0.237506
C15	C	0.504785	0.173569	0.235052
C16	C	0.462295	0.000240	0.217890
C17	C	0.492500	-0.173126	0.203223
C18	C	0.565192	-0.173145	0.205694
N19	N	0.353674	-0.128751	0.111196
N20	N	0.284621	-0.128721	0.108846
C21	C	0.243279	0.000286	0.210448
N22	N	0.273603	0.129292	0.314470
N23	N	0.342663	0.129267	0.316813
C24	C	0.383473	0.000241	0.215210
C25	C	0.134258	0.173667	0.222464
C26	C	0.061561	0.173684	0.220019
C27	C	0.049279	-0.173017	0.188173
C28	C	0.121973	-0.173028	0.190635
C29	C	0.164459	0.000319	0.207773
C30	C	0.941704	0.000315	0.200261
C31	C	1.019075	0.000353	0.202860
C32	C	0.834146	0.000277	-0.079435
C33	C	0.842284	0.000291	-0.256873
N34	N	0.829376	0.452804	0.254398
C35	C	0.792606	0.000265	0.505126
C36	C	0.784469	0.000264	0.682565
H37	H	0.764244	-0.533969	0.085146
H38	H	0.898009	0.000294	-0.340779
O39	O	0.868856	-0.449944	0.357369
C40	C	0.839122	-0.498702	0.515308
H41	H	0.806573	-0.644117	0.509110
H42	H	0.884300	-0.505310	0.579816
H43	H	0.802450	-0.386109	0.584712
O44	O	0.618638	0.342100	0.254247
C45	C	0.576395	0.495104	0.266629
H46	H	0.517170	0.444298	0.310797
H47	H	0.593093	0.616341	0.356060
H48	H	0.584763	0.548398	0.143048
O49	O	0.175421	0.342218	0.239225
C50	C	0.133177	0.495227	0.251635
H51	H	0.073951	0.444413	0.295794
H52	H	0.149873	0.616443	0.341084
H53	H	0.141545	0.548552	0.128066
O54	O	0.475376	0.341910	0.249577
C55	C	0.418341	0.352279	0.387480
H56	H	0.426041	0.253925	0.475944
H57	H	0.417794	0.505598	0.447975
H58	H	0.365070	0.305700	0.350035
H59	H	0.457900	-0.314252	0.189253
O60	O	0.718018	0.000591	-0.217262
C61	C	0.715610	0.165264	-0.104519
H62	H	0.758650	0.280380	-0.155361
H63	H	0.660290	0.220530	-0.080136
H64	H	0.725943	0.128042	0.013105
O65	O	0.032161	0.342032	0.234557
C66	C	-0.024868	0.352410	0.372472
H67	H	-0.017168	0.254044	0.460926
H68	H	-0.025406	0.505728	0.432972
H69	H	-0.078143	0.305855	0.335041
H70	H	0.589777	-0.314307	0.193745
H71	H	0.014683	-0.314145	0.174210
H72	H	0.146561	-0.314184	0.178675
