data_functionalizedCrystal
_audit_creation_method	'MofGen! by Chris Wilmer'
_symmetry_space_group_name_H-M	'P1'
_symmetry_Int_Tables_number	1
_symmetry_cell_setting	triclinic
loop_
_symmetry_equiv_pos_as_xyz
  x,y,z
_cell_length_a	16.959455
_cell_length_b	16.120484
_cell_length_c	16.959447
_cell_angle_alpha	87.133462
_cell_angle_beta	90.016723
_cell_angle_gamma	92.924574
loop_
_atom_site_label
_atom_site_type_symbol
_atom_site_fract_x
_atom_site_fract_y
_atom_site_fract_z
Zn1	Zn	1.192396	-0.331913	0.462899
Zn2	Zn	1.185602	-0.471342	0.337416
Zn3	Zn	1.060223	-0.331944	0.330732
Zn4	Zn	1.053476	-0.471284	0.469547
O5	O	1.122924	-0.401621	0.400149
O6	O	1.302105	-0.350420	0.446269
O7	O	1.168951	-0.452888	0.225920
O8	O	1.083423	-0.215275	0.342685
O9	O	1.297114	-0.452857	0.354077
O10	O	1.180530	-0.215252	0.439788
O11	O	1.076835	-0.350473	0.221010
O12	O	0.948718	-0.350417	0.349131
O13	O	1.071923	-0.452760	0.579274
O14	O	0.943761	-0.452790	0.451117
O15	O	1.173987	-0.350364	0.574390
O16	O	1.162409	-0.588000	0.360523
O17	O	1.065336	-0.587958	0.457598
C18	C	0.917559	-0.401601	0.400121
C19	C	0.829702	-0.401613	0.400129
C20	C	1.112424	-0.618229	0.410524
C21	C	1.108005	-0.710894	0.414990
C22	C	0.790989	-0.348236	0.347107
C23	C	0.785861	-0.454996	0.453163
C24	C	0.703315	-0.455005	0.453175
C25	C	0.664602	-0.401628	0.400153
C26	C	0.708435	-0.348242	0.347119
C27	C	0.659475	-0.508385	0.506214
C28	C	0.576924	-0.508396	0.506228
C29	C	0.538209	-0.455022	0.453202
C30	C	0.582048	-0.401635	0.400165
C31	C	0.543335	-0.348258	0.347143
C32	C	0.587172	-0.294874	0.294101
C33	C	0.669721	-0.294869	0.294092
C34	C	0.455661	-0.455027	0.453211
C35	C	0.460781	-0.348264	0.347155
C36	C	1.099940	-0.880556	0.423158
C37	C	1.146050	-0.921846	0.377152
C38	C	1.141563	-1.016251	0.381697
C39	C	1.104426	-0.786142	0.418614
C40	C	1.329092	-0.401642	0.400177
C41	C	1.416948	-0.401650	0.400189
C42	C	1.122961	-0.401552	0.606314
C43	C	1.122976	-0.401523	0.694169
C44	C	1.133487	-0.184168	0.389749
C45	C	1.137988	-0.091502	0.385318
C46	C	1.122937	-0.401630	0.194783
C47	C	1.123086	-0.401424	0.106917
C48	C	1.069935	-0.454747	1.068186
C49	C	1.176215	-0.348122	1.063095
C50	C	1.176193	-0.348140	0.980550
C51	C	1.123042	-0.401463	0.941819
C52	C	1.069913	-0.454768	0.985633
C53	C	1.229326	-0.294842	0.936730
C54	C	1.229307	-0.294858	0.854180
C55	C	1.176152	-0.348177	0.815447
C56	C	1.123020	-0.401484	0.859266
C57	C	1.069869	-0.454807	0.820535
C58	C	1.016732	-0.508110	0.864353
C59	C	1.016757	-0.508088	0.946900
C60	C	1.176127	-0.348200	0.732900
C61	C	1.069847	-0.454828	0.737983
H62	H	0.555641	-0.251411	0.250934
N63	N	0.825404	-0.509526	0.507309
N64	N	0.812465	-0.586450	0.505632
H65	H	0.840396	-0.624966	0.543873
N66	N	0.835750	-0.293691	0.292934
N67	N	0.801172	-0.246034	0.245604
H68	H	0.832785	-0.207507	0.207345
N69	N	1.199777	-0.877250	0.323436
N70	N	1.174238	-0.828719	0.270751
H71	H	1.212176	-0.797222	0.232808
N72	N	1.046176	-0.925147	0.476832
N73	N	0.973689	-0.915579	0.471055
H74	H	0.935715	-0.947081	0.508958
H75	H	0.541238	-0.551865	0.549417
N76	N	1.015541	-0.509296	0.698435
N77	N	0.968105	-0.556877	0.737569
H78	H	0.929750	-0.595345	0.709639
H79	H	0.973460	-0.551529	0.832808
N80	N	0.962489	-0.562525	0.991670
N81	N	0.962520	-0.562498	1.065373
H82	H	0.924194	-0.600945	1.096996
H83	H	1.219492	-0.304714	1.094635
N84	N	1.015660	-0.509182	1.112950
N85	N	1.015678	-0.509155	1.186653
H86	H	0.977346	-0.547599	1.218269
N87	N	0.699031	-0.562884	0.560378
N88	N	0.772736	-0.562866	0.560360
H89	H	0.800677	-0.601356	0.598617
N90	N	0.714483	-0.240332	0.239913
N91	N	0.704972	-0.245763	0.167228
H92	H	0.736586	-0.207243	0.128966
H93	H	1.272604	-0.251434	0.968271
H94	H	0.429267	-0.304799	0.303976
H95	H	1.219392	-0.304803	0.697227
N96	N	0.410895	-0.509549	0.507395
N97	N	0.445470	-0.557196	0.554737
H98	H	0.413856	-0.595707	0.593008
N99	N	1.283589	-0.240410	0.809438
N100	N	1.331042	-0.192807	0.844030
H101	H	1.369379	-0.154351	0.812430
