data_functionalizedCrystal
_audit_creation_method	'MofGen! by Chris Wilmer'
_symmetry_space_group_name_H-M	'P1'
_symmetry_Int_Tables_number	1
_symmetry_cell_setting	triclinic
loop_
_symmetry_equiv_pos_as_xyz
  x,y,z
_cell_length_a	16.625546
_cell_length_b	21.395364
_cell_length_c	21.395355
_cell_angle_alpha	90.025298
_cell_angle_beta	89.981524
_cell_angle_gamma	89.960831
loop_
_atom_site_label
_atom_site_type_symbol
_atom_site_fract_x
_atom_site_fract_y
_atom_site_fract_z
Zn1	Zn	-0.320736	-0.957895	-0.354274
Zn2	Zn	0.179264	-0.457895	0.145726
Zn3	Zn	-0.455551	-0.957813	-0.249497
Zn4	Zn	0.044449	-0.457813	0.250503
Zn5	Zn	-0.320775	-0.853110	-0.249509
Zn6	Zn	0.179225	-0.353110	0.250491
Zn7	Zn	-0.455569	-0.853094	-0.354236
Zn8	Zn	0.044431	-0.353094	0.145764
O9	O	-0.388158	-0.905478	-0.301879
O10	O	0.111842	-0.405478	0.198121
O11	O	-0.338595	-1.045562	-0.340386
O12	O	0.161405	-0.545562	0.159614
O13	O	-0.437681	-0.943896	-0.161821
O14	O	0.062319	-0.443896	0.338179
O15	O	-0.207937	-0.867051	-0.263428
O16	O	0.292063	-0.367051	0.236572
O17	O	-0.437643	-1.045501	-0.263407
O18	O	0.062357	-0.545501	0.236593
O19	O	-0.207909	-0.944036	-0.340398
O20	O	0.292091	-0.444036	0.159602
O21	O	-0.338662	-0.866971	-0.161830
O22	O	0.161338	-0.366971	0.338170
O23	O	-0.338680	-0.765430	-0.263391
O24	O	0.161320	-0.265430	0.236609
O25	O	-0.437675	-0.867024	-0.441919
O26	O	0.062325	-0.367024	0.058081
O27	O	-0.437713	-0.765419	-0.340333
O28	O	0.062287	-0.265419	0.159667
O29	O	-0.338613	-0.944021	-0.441947
O30	O	0.161387	-0.444021	0.058053
O31	O	-0.568386	-0.943880	-0.263369
O32	O	-0.068386	-0.443880	0.236631
O33	O	-0.568399	-0.866944	-0.340320
O34	O	-0.068399	-0.366944	0.159680
C35	C	-0.388203	-0.742690	-0.301859
C36	C	0.111797	-0.242690	0.198141
C37	C	-0.388242	-0.673049	-0.301866
C38	C	0.111758	-0.173049	0.198134
C39	C	-0.336754	-0.640390	-0.342010
C40	C	0.163246	-0.140390	0.157990
C41	C	-0.336735	-0.574955	-0.342012
C42	C	0.163265	-0.074955	0.157988
C43	C	-0.388219	-0.542181	-0.301875
C44	C	0.111781	-0.042181	0.198125
C45	C	-0.439711	-0.574848	-0.261723
C46	C	0.060289	-0.074848	0.238277
C47	C	-0.439723	-0.640282	-0.261718
C48	C	0.060277	-0.140282	0.238282
C49	C	-0.460836	-0.438465	-0.296837
C50	C	0.039164	0.061535	0.203163
C51	C	-0.460825	-0.373032	-0.296846
C52	C	0.039175	0.126968	0.203154
C53	C	-0.388183	-0.340360	-0.301887
C54	C	0.111817	0.159640	0.198113
C55	C	-0.315548	-0.373130	-0.306932
C56	C	0.184452	0.126870	0.193068
C57	C	-0.315559	-0.438564	-0.306927
C58	C	0.184441	0.061436	0.193073
C59	C	-0.388212	-0.471228	-0.301876
C60	C	0.111788	0.028772	0.198124
C61	C	-0.336669	-0.236748	-0.342035
C62	C	0.163331	0.263252	0.157965
C63	C	-0.336649	-0.171312	-0.342032
C64	C	0.163351	0.328688	0.157968
C65	C	-0.439632	-0.171206	-0.261747
C66	C	0.060368	0.328794	0.238253
C67	C	-0.439645	-0.236642	-0.261746
C68	C	0.060355	0.263358	0.238254
C69	C	-0.388165	-0.269409	-0.301894
C70	C	0.111835	0.230591	0.198106
C71	C	-0.597649	-0.905419	-0.301853
C72	C	-0.097649	-0.405419	0.198147
C73	C	-0.687270	-0.905451	-0.301862
C74	C	-0.187270	-0.405451	0.198138
C75	C	-1.015445	-0.905560	-0.301928
C76	C	-0.515445	-0.405560	0.198072
C77	C	-0.924137	-0.905528	-0.301911
C78	C	-0.424137	-0.405528	0.198089
C79	C	-0.851360	-0.905505	-0.301895
C80	C	-0.351360	-0.405505	0.198105
C81	C	-0.760046	-0.905473	-0.301879
C82	C	-0.260046	-0.405473	0.198121
C83	C	-0.177849	-0.905555	-0.301919
C84	C	0.322151	-0.405555	0.198081
C85	C	-0.088228	-0.905587	-0.301936
C86	C	0.411772	-0.405587	0.198064
C87	C	-0.388141	-0.905530	-0.465302
C88	C	0.111859	-0.405530	0.034698
C89	C	-0.388134	-0.905552	-0.534944
C90	C	0.111866	-0.405552	-0.034944
C91	C	-0.388122	-0.068901	-0.301896
C92	C	0.111878	0.431099	0.198104
C93	C	-0.388133	-0.138543	-0.301895
C94	C	0.111867	0.361457	0.198105
C95	C	-0.336551	-0.945643	-0.567672
C96	C	0.163449	-0.445643	-0.067672
C97	C	-0.336516	-0.945642	-0.633108
C98	C	0.163484	-0.445642	-0.133108
C99	C	-0.388079	-0.905557	-0.665812
C100	C	0.111921	-0.405557	-0.165812
C101	C	-0.439667	-0.865459	-0.633075
C102	C	0.060333	-0.365459	-0.133075
C103	C	-0.439694	-0.865456	-0.567641
C104	C	0.060306	-0.365456	-0.067641
C105	C	-0.460682	-0.900589	-0.769478
C106	C	0.039318	-0.400589	-0.269478
C107	C	-0.460656	-0.900596	-0.834911
C108	C	0.039344	-0.400596	-0.334911
C109	C	-0.387994	-0.905561	-0.867633
C110	C	0.112006	-0.405561	-0.367633
C111	C	-0.315357	-0.910532	-0.834914
C112	C	0.184643	-0.410532	-0.334914
C113	C	-0.315384	-0.910530	-0.769480
C114	C	0.184616	-0.410530	-0.269480
C115	C	-0.388055	-0.905555	-0.736764
C116	C	0.111945	-0.405555	-0.236764
C117	C	-0.336369	-0.945653	-0.971314
C118	C	0.163631	-0.445653	-0.471314
C119	C	-0.336333	-0.945647	-1.036751
C120	C	0.163667	-0.445647	-0.536751
C121	C	-0.439490	-0.865468	-1.036717
C122	C	0.060510	-0.365468	-0.536717
C123	C	-0.439519	-0.865470	-0.971282
C124	C	0.060481	-0.365470	-0.471282
C125	C	-0.387960	-0.905565	-0.938584
C126	C	0.112040	-0.405565	-0.438584
C127	C	-0.388116	-0.905462	-0.139091
C128	C	0.111884	-0.405462	0.360909
C129	C	-0.387896	-0.905562	-0.069451
C130	C	0.112104	-0.405562	0.430549
H131	H	-0.256418	-0.465242	-0.311032
H132	H	0.243582	0.034758	0.188968
N133	N	-0.281217	-0.675737	-0.385295
N134	N	0.218783	-0.175737	0.114705
H135	H	-0.314039	-0.702884	-0.414283
H136	H	0.185961	-0.202884	0.085717
H137	H	-0.248600	-0.645080	-0.410685
H138	H	0.251400	-0.145080	0.089315
H139	H	-0.481466	-0.832824	-1.063344
H140	H	0.018534	-0.332824	-0.563344
N141	N	-0.539060	-0.895240	-0.734189
N142	N	-0.039060	-0.395240	-0.234189
H143	H	-0.528057	-0.895992	-0.687773
H144	H	-0.028057	-0.395992	-0.187773
H145	H	-0.566471	-0.854685	-0.745610
H146	H	-0.066471	-0.354685	-0.245610
N147	N	-0.538995	-0.895234	-0.870198
N148	N	-0.038995	-0.395234	-0.370198
H149	H	-0.546541	-0.933402	-0.897359
H150	H	-0.046541	-0.433402	-0.397359
H151	H	-0.584981	-0.892060	-0.839502
H152	H	-0.084981	-0.392060	-0.339502
N153	N	-0.495189	-0.271876	-0.218457
N154	N	0.004811	0.228124	0.281543
H155	H	-0.462372	-0.299031	-0.189466
H156	H	0.037628	0.200969	0.310534
H157	H	-0.527795	-0.241150	-0.193071
H158	H	-0.027795	0.258850	0.306929
H159	H	-0.481699	-0.832807	-0.540993
H160	H	0.018301	-0.332807	-0.040993
H161	H	-0.519969	-0.346356	-0.292741
H162	H	-0.019969	0.153644	0.207259
N163	N	-0.495269	-0.822214	-0.668344
N164	N	0.004731	-0.322214	-0.168344
H165	H	-0.487423	-0.828297	-0.714763
H166	H	0.012577	-0.328297	-0.214763
H167	H	-0.552861	-0.831935	-0.656914
H168	H	-0.052861	-0.331935	-0.156914
N169	N	-0.236974	-0.915880	-0.870192
N170	N	0.263026	-0.415880	-0.370192
H171	H	-0.209530	-0.956439	-0.858823
H172	H	0.290470	-0.456439	-0.358823
H173	H	-0.248033	-0.915095	-0.916598
H174	H	0.251967	-0.415095	-0.416598
H175	H	-0.294803	-0.548358	-0.374702
H176	H	0.205197	-0.048358	0.125298
H177	H	-0.256395	-0.346530	-0.311037
H178	H	0.243605	0.153470	0.188963
H179	H	-0.256240	-0.914576	-0.742843
H180	H	0.243760	-0.414576	-0.242843
N181	N	-0.495164	-0.135865	-0.218457
N182	N	0.004836	0.364135	0.281543
H183	H	-0.527787	-0.166487	-0.193026
H184	H	-0.027787	0.333513	0.306974
H185	H	-0.462281	-0.108724	-0.189510
H186	H	0.037719	0.391276	0.310490
H187	H	-0.519995	-0.465060	-0.292731
H188	H	-0.019995	0.034940	0.207269
N189	N	-0.280767	-0.988895	-0.936036
N190	N	0.219233	-0.488895	-0.436036
H191	H	-0.223150	-0.979191	-0.947408
H192	H	0.276850	-0.479191	-0.447408
H193	H	-0.288695	-0.982789	-0.889630
H194	H	0.211305	-0.482789	-0.389630
N195	N	-0.281145	-0.272096	-0.385333
N196	N	0.218855	0.227904	0.114667
H197	H	-0.248518	-0.241474	-0.410762
H198	H	0.251482	0.258526	0.089238
H199	H	-0.243790	-0.299259	-0.359879
H200	H	0.256210	0.200741	0.140121
H201	H	-0.294716	-0.144722	-0.374722
H202	H	0.205284	0.355278	0.125278
H203	H	-0.481529	-0.832827	-0.944633
H204	H	0.018471	-0.332827	-0.444633
N205	N	-0.495235	-0.539504	-0.218427
N206	N	0.004765	-0.039504	0.281573
H207	H	-0.487416	-0.493095	-0.224522
H208	H	0.012584	0.006905	0.275478
H209	H	-0.552843	-0.550910	-0.228094
H210	H	-0.052843	-0.050910	0.271906
H211	H	-0.481652	-0.666873	-0.229026
H212	H	0.018348	-0.166873	0.270974
H213	H	-0.294566	-0.978291	-0.541054
H214	H	0.205434	-0.478291	-0.041054
N215	N	-0.280877	-0.988883	-0.668419
N216	N	0.219123	-0.488883	-0.168419
H217	H	-0.248219	-1.014282	-0.637776
H218	H	0.251781	-0.514282	-0.137776
H219	H	-0.313686	-1.017864	-0.695579
H220	H	0.186314	-0.517864	-0.195579
H221	H	-0.294322	-0.978293	-1.063398
H222	H	0.205678	-0.478293	-0.563398
