data_functionalizedCrystal
_audit_creation_method	'MofGen! by Chris Wilmer'
_symmetry_space_group_name_H-M	'P1'
_symmetry_Int_Tables_number	1
_symmetry_cell_setting	triclinic
loop_
_symmetry_equiv_pos_as_xyz
  x,y,z
_cell_length_a	9.065218
_cell_length_b	17.699083
_cell_length_c	8.140239
_cell_angle_alpha	89.995596
_cell_angle_beta	89.997198
_cell_angle_gamma	84.149450
loop_
_atom_site_label
_atom_site_type_symbol
_atom_site_fract_x
_atom_site_fract_y
_atom_site_fract_z
O1	O	1.957109	0.110973	-0.136622
O2	O	1.527555	0.120075	-0.136624
O3	O	1.754468	0.005429	-0.136608
O4	O	1.730196	0.225619	-0.136637
O5	O	1.754455	0.005428	0.136619
O6	O	1.527542	0.120074	0.136603
O7	O	1.957097	0.110971	0.136605
Zn8	Zn	1.742317	0.115522	0.179985
Zn9	Zn	1.742334	0.115524	-0.180004
O10	O	1.730183	0.225617	0.136590
C11	C	1.472588	0.119200	-0.000011
C12	C	1.308822	0.116584	-0.000011
C13	C	1.753592	-0.022775	0.000005
C14	C	1.750983	-0.106813	0.000006
C15	C	1.884176	-0.154396	0.000009
C16	C	1.881716	-0.233358	-0.000005
C17	C	1.746060	-0.264737	-0.000011
C18	C	1.612857	-0.217149	-0.000019
C19	C	1.615319	-0.138188	-0.000017
C20	C	1.602925	-0.535589	-0.000033
C21	C	1.600474	-0.614556	-0.000031
C22	C	1.869322	-0.630760	-0.000022
C23	C	1.871784	-0.551799	-0.000019
C24	C	1.738581	-0.504217	-0.000036
C25	C	1.741251	-0.418597	-0.000023
C26	C	1.743390	-0.350355	-0.000012
C27	C	2.012064	0.111847	-0.000012
C28	C	2.175829	0.114463	-0.000022
C29	C	1.731059	0.253822	-0.000028
C30	C	1.733669	0.337860	-0.000039
N31	N	1.742317	0.115521	0.425667
N32	N	1.742346	0.115520	-0.425686
H33	H	1.994642	-0.128854	0.000024
C34	C	1.468811	-0.085844	-0.000021
H35	H	1.489704	-0.034324	-0.000036
H36	H	1.413161	-0.095455	0.095254
H37	H	1.413187	-0.095453	-0.095318
C38	C	2.028228	-0.285696	0.000015
H39	H	2.109371	-0.255698	0.000043
H40	H	2.032876	-0.316833	-0.095264
H41	H	2.032840	-0.316837	0.095308
H42	H	1.490001	-0.640101	-0.000032
H43	H	1.982248	-0.526255	-0.000006
C44	C	2.015845	-0.683101	-0.000030
H45	H	1.994958	-0.734622	-0.000053
H46	H	2.071479	-0.673496	0.095252
H47	H	2.071482	-0.673482	-0.095321
C48	C	1.456409	-0.483260	-0.000022
H49	H	1.375270	-0.513259	-0.000003
H50	H	1.451770	-0.452114	-0.095298
H51	H	1.451782	-0.452127	0.095275
H52	H	1.502404	-0.242703	-0.000035
