data_functionalizedCrystal
_audit_creation_method	'MofGen! by Chris Wilmer'
_symmetry_space_group_name_H-M	'P1'
_symmetry_Int_Tables_number	1
_symmetry_cell_setting	triclinic
loop_
_symmetry_equiv_pos_as_xyz
  x,y,z
_cell_length_a	25.639242
_cell_length_b	25.639239
_cell_length_c	12.827885
_cell_angle_alpha	89.964018
_cell_angle_beta	89.977603
_cell_angle_gamma	90.030990
loop_
_atom_site_label
_atom_site_type_symbol
_atom_site_fract_x
_atom_site_fract_y
_atom_site_fract_z
Zn1	Zn	0.799267	-0.208233	-0.590885
Zn2	Zn	0.799178	-0.295678	-0.416127
Zn3	Zn	0.711831	-0.208247	-0.416150
Zn4	Zn	0.711788	-0.295627	-0.590818
O5	O	0.755516	-0.251946	-0.503495
O6	O	0.872420	-0.219848	-0.567722
O7	O	0.787572	-0.284107	-0.269894
O8	O	0.723484	-0.135080	-0.439367
O9	O	0.872355	-0.284094	-0.439327
O10	O	0.787723	-0.135069	-0.567744
O11	O	0.723398	-0.219871	-0.269911
O12	O	0.638660	-0.219822	-0.439302
O13	O	0.723412	-0.284007	-0.737063
O14	O	0.638628	-0.284021	-0.567629
O15	O	0.787682	-0.219799	-0.737113
O16	O	0.787530	-0.368836	-0.439262
O17	O	0.723325	-0.368799	-0.567607
C18	C	0.619673	-0.251918	-0.503461
C19	C	0.561559	-0.251918	-0.503471
C20	C	0.310408	-0.218553	-0.570472
C21	C	0.365012	-0.218548	-0.570466
O22	O	0.393284	-0.190156	-0.627425
N23	N	0.392285	-0.251940	-0.503507
C24	C	0.364951	-0.285344	-0.436557
O25	O	0.393163	-0.313746	-0.379603
C26	C	0.310348	-0.285351	-0.436569
C27	C	0.283078	-0.251953	-0.503525
C28	C	0.283137	-0.185158	-0.637423
C29	C	0.228537	-0.185162	-0.637428
C30	C	0.201207	-0.218562	-0.570481
C31	C	0.228477	-0.251957	-0.503529
C32	C	0.283015	-0.318757	-0.369625
C33	C	0.228408	-0.318761	-0.369643
C34	C	0.201138	-0.285363	-0.436599
C35	C	0.146546	-0.285362	-0.436587
N36	N	0.119273	-0.251969	-0.503546
C37	C	0.146603	-0.218570	-0.570493
C38	C	0.479622	-0.285326	-0.436538
C39	C	0.534224	-0.285316	-0.436520
C40	C	0.534281	-0.218521	-0.570431
C41	C	0.479678	-0.218529	-0.570443
C42	C	0.452349	-0.251934	-0.503497
C43	C	0.031938	-0.218581	-0.570496
C44	C	-0.022667	-0.218587	-0.570491
C45	C	-0.022719	-0.285384	-0.436585
C46	C	0.031881	-0.285377	-0.436585
C47	C	0.059209	-0.251973	-0.503549
O48	O	0.118239	-0.313740	-0.379660
O49	O	0.118385	-0.190176	-0.627446
C50	C	0.755428	-0.387789	-0.503447
C51	C	0.755438	-0.445903	-0.503462
C52	C	0.789034	-0.806273	-0.436780
C53	C	0.789055	-0.860877	-0.436794
O54	O	0.817528	-0.889119	-0.380046
N55	N	0.755608	-0.888185	-0.503564
C56	C	0.722142	-0.860886	-0.570333
O57	O	0.693695	-0.889128	-0.627128
C58	C	0.722125	-0.806283	-0.570323
C59	C	0.755570	-0.778978	-0.503541
C60	C	0.822478	-0.778967	-0.370004
C61	C	0.822457	-0.724367	-0.369989
C62	C	0.788992	-0.697072	-0.436750
C63	C	0.755549	-0.724377	-0.503526
C64	C	0.688662	-0.778985	-0.637096
C65	C	0.688648	-0.724378	-0.637081
C66	C	0.722093	-0.697073	-0.570299
C67	C	0.722064	-0.642481	-0.570272
N68	N	0.755511	-0.615173	-0.503501
C69	C	0.788975	-0.642468	-0.436740
C70	C	0.722181	-0.975557	-0.570349
C71	C	0.722195	-1.030159	-0.570354
C72	C	0.789109	-1.030146	-0.436816
C73	C	0.789092	-0.975543	-0.436806
C74	C	0.755628	-0.948249	-0.503578
C75	C	0.788928	-0.527803	-0.436713
C76	C	0.788902	-0.473198	-0.436701
C77	C	0.721991	-0.473216	-0.570242
C78	C	0.722014	-0.527816	-0.570251
C79	C	0.755487	-0.555109	-0.503483
O80	O	0.693606	-0.614204	-0.626993
O81	O	0.817422	-0.614220	-0.379964
C82	C	0.891889	-0.251975	-0.503529
C83	C	0.950003	-0.251987	-0.503544
C84	C	0.755552	-0.251896	-0.776065
C85	C	0.755567	-0.251875	-0.892219
C86	C	0.755618	-0.115573	-0.503566
C87	C	0.755662	-0.057459	-0.503596
C88	C	0.723822	-0.220083	-0.944012
C89	C	0.723837	-0.220060	-1.064062
C90	C	0.755510	-0.251958	-0.231985
C91	C	0.755596	-0.251833	-0.115832
H92	H	0.206338	-0.157968	-0.691955
Cl93	Cl	0.445271	-0.327320	-0.352357
H94	H	0.782777	-0.279050	-1.071298
H95	H	0.661424	-0.801208	-0.691472
Cl96	Cl	0.679926	-0.438892	-0.654171
H97	H	0.556423	-0.312507	-0.381987
Cl98	Cl	0.830951	-0.438874	-0.352740
H99	H	0.457478	-0.191332	-0.624963
H100	H	0.206159	-0.345966	-0.315130
H101	H	0.849692	-0.702138	-0.315612
Cl102	Cl	0.646577	-0.690069	-0.721030
H103	H	0.816326	-0.953314	-0.382427
Cl104	Cl	0.831178	-1.064470	-0.352885
Cl105	Cl	0.568649	-0.176533	-0.654594
Cl106	Cl	0.864553	-0.813271	-0.286064
H107	H	0.054182	-0.191381	-0.625024
Cl108	Cl	0.679957	-0.562144	-0.654185
H109	H	0.696631	-0.192883	-0.899477
H110	H	0.305209	-0.345953	-0.315102
Cl111	Cl	0.797545	-0.293876	-0.960968
H112	H	0.816186	-0.550018	-0.382346
Cl113	Cl	0.317485	-0.143164	-0.721598
H114	H	-0.044868	-0.191388	-0.625015
Cl115	Cl	0.681877	-0.178032	-1.132824
Cl116	Cl	0.066165	-0.327367	-0.352418
Cl117	Cl	0.680142	-1.064479	-0.654300
H118	H	0.694927	-0.953337	-0.624719
Cl119	Cl	-0.057087	-0.327370	-0.352426
