data_functionalizedCrystal
_audit_creation_method	'MofGen! by Chris Wilmer'
_symmetry_space_group_name_H-M	'P1'
_symmetry_Int_Tables_number	1
_symmetry_cell_setting	triclinic
loop_
_symmetry_equiv_pos_as_xyz
  x,y,z
_cell_length_a	14.519709
_cell_length_b	17.038278
_cell_length_c	13.596369
_cell_angle_alpha	89.986926
_cell_angle_beta	90.000291
_cell_angle_gamma	87.395324
loop_
_atom_site_label
_atom_site_type_symbol
_atom_site_fract_x
_atom_site_fract_y
_atom_site_fract_z
O1	O	1.231710	0.102502	-0.081679
O2	O	1.731710	0.602502	0.418321
O3	O	0.964157	0.114573	-0.081711
O4	O	1.464157	0.614573	0.418289
O5	O	1.096344	-0.005280	-0.081670
O6	O	1.596344	0.494720	0.418330
O7	O	1.099522	0.222356	-0.081720
O8	O	1.599522	0.722356	0.418280
O9	O	1.096330	-0.005286	0.081913
O10	O	1.596330	0.494714	0.581913
O11	O	0.964142	0.114567	0.081872
O12	O	1.464142	0.614567	0.581872
O13	O	1.231695	0.102496	0.081904
O14	O	1.731695	0.602496	0.581904
Zn15	Zn	1.097916	0.108530	0.107860
Zn16	Zn	1.597916	0.608530	0.607860
Zn17	Zn	1.097936	0.108539	-0.107667
Zn18	Zn	1.597936	0.608539	0.392333
O19	O	1.099508	0.222349	0.081863
O20	O	1.599508	0.722349	0.581863
C21	C	0.929746	0.114008	0.000077
C22	C	1.429746	0.614008	0.500077
C23	C	0.827236	0.112322	0.000066
C24	C	1.327236	0.612322	0.500066
C25	C	1.093445	-0.034416	0.000125
C26	C	1.593445	0.465584	0.500125
C27	C	1.084816	-0.121223	0.000137
C28	C	1.584816	0.378777	0.500137
C29	C	0.451866	0.106116	0.000112
C30	C	0.951866	0.606116	0.500112
C31	C	0.556305	0.107839	0.000099
C32	C	1.056305	0.607839	0.500099
C33	C	0.639548	0.109219	0.000088
C34	C	1.139548	0.609219	0.500088
C35	C	0.743994	0.110942	0.000076
C36	C	1.243994	0.610942	0.500076
C37	C	1.031804	-0.611721	0.000041
C38	C	1.531804	-0.111721	0.500041
C39	C	1.039919	-0.530157	0.000051
C40	C	1.539919	-0.030157	0.500051
C41	C	1.127267	-0.498582	0.000075
C42	C	1.627267	0.001418	0.500075
C43	C	1.206505	-0.548575	0.000079
C44	C	1.706505	-0.048575	0.500079
C45	C	1.198389	-0.630137	0.000061
C46	C	1.698389	-0.130137	0.500061
C47	C	1.155938	-0.252778	0.000123
C48	C	1.655938	0.247222	0.500123
C49	C	1.164048	-0.171210	0.000143
C50	C	1.664048	0.328790	0.500143
C51	C	0.997461	-0.152797	0.000114
C52	C	1.497461	0.347203	0.500114
C53	C	0.989353	-0.234362	0.000103
C54	C	1.489353	0.265638	0.500103
C55	C	1.068591	-0.284348	0.000101
C56	C	1.568591	0.215652	0.500101
C57	C	1.135564	-0.415211	0.000089
C58	C	1.635564	0.084789	0.500089
C59	C	1.060293	-0.367717	0.000080
C60	C	1.560293	0.132283	0.500080
C61	C	1.266105	0.103062	0.000114
C62	C	1.766105	0.603062	0.500114
C63	C	1.368616	0.104748	0.000119
C64	C	1.868616	0.604748	0.500119
C65	C	1.102407	0.251486	0.000065
C66	C	1.602407	0.751486	0.500065
C67	C	1.111036	0.338292	0.000047
C68	C	1.611036	0.838292	0.500047
N69	N	1.097910	0.108524	0.254952
N70	N	1.597910	0.608524	0.754952
N71	N	1.097949	0.108539	-0.254759
N72	N	1.597949	0.608539	0.245241
C73	C	1.097934	0.108540	0.656243
C74	C	1.597934	0.608540	1.156243
C75	C	1.097925	0.108538	0.544592
C76	C	1.597925	0.608538	1.044592
C77	C	1.097923	0.108533	0.455601
C78	C	1.597923	0.608533	0.955601
C79	C	1.097912	0.108530	0.343943
C80	C	1.597912	0.608530	0.843943
H81	H	0.960676	-0.637422	0.000033
H82	H	1.460676	-0.137422	0.500033
H83	H	1.235181	-0.145505	0.000163
H84	H	1.735181	0.354495	0.500163
F85	F	1.299468	-0.514969	0.000096
F86	F	1.799468	-0.014969	0.500096
H87	H	1.206683	-0.389494	0.000141
H88	H	1.706683	0.110506	0.500141
H89	H	1.220460	-0.293468	0.000127
H90	H	1.720460	0.206532	0.500127
F91	F	1.282719	-0.683337	0.000063
F92	F	1.782719	-0.183337	0.500063
H93	H	0.932950	-0.112090	0.000115
H94	H	1.432950	0.387910	0.500115
H95	H	0.918225	-0.260063	0.000072
H96	H	1.418225	0.239937	0.500072
F97	F	0.967334	-0.401323	0.000048
F98	F	1.467334	0.098677	0.500048
H99	H	0.975399	-0.489460	0.000043
H100	H	1.475399	0.010540	0.500043
