data_functionalizedCrystal
_audit_creation_method	'MofGen! by Chris Wilmer'
_symmetry_space_group_name_H-M	'P1'
_symmetry_Int_Tables_number	1
_symmetry_cell_setting	triclinic
loop_
_symmetry_equiv_pos_as_xyz
  x,y,z
_cell_length_a	17.699083
_cell_length_b	10.654559
_cell_length_c	9.130313
_cell_angle_alpha	89.999532
_cell_angle_beta	89.994787
_cell_angle_gamma	96.114151
loop_
_atom_site_label
_atom_site_type_symbol
_atom_site_fract_x
_atom_site_fract_y
_atom_site_fract_z
O1	O	-0.106332	1.665966	-0.121784
O2	O	-0.116453	1.300312	-0.121783
O3	O	-0.001269	1.493470	-0.121798
O4	O	-0.221516	1.472808	-0.121769
O5	O	-0.001272	1.493467	0.121801
O6	O	-0.116456	1.300309	0.121816
O7	O	-0.106336	1.665964	0.121815
Cu8	Cu	-0.111396	1.483136	0.144058
Cu9	Cu	-0.111392	1.483139	-0.144026
O10	O	-0.221519	1.472806	0.121830
C11	C	-0.115710	1.253526	0.000016
C12	C	-0.113482	1.114122	0.000015
C13	C	-0.043570	1.063806	0.000010
C14	C	-0.041482	0.932821	-0.000001
C15	C	-0.179224	0.902477	0.000004
C16	C	-0.181311	1.033461	0.000005
C17	C	0.035954	1.081324	0.000013
C18	C	0.038043	0.950338	0.000002
C19	C	-0.249719	1.473547	0.000034
C20	C	-0.333751	1.475768	0.000044
C21	C	-0.381649	1.362389	0.000045
C22	C	-0.460606	1.364483	0.000028
C23	C	-0.491663	1.479959	0.000021
C24	C	-0.443759	1.593347	0.000016
C25	C	-0.364804	1.591251	0.000022
C26	C	-0.762176	1.601801	-0.000013
C27	C	-0.841138	1.603888	-0.000016
C28	C	-0.857978	1.375033	-0.000008
C29	C	-0.779023	1.372937	-0.000001
C30	C	-0.731126	1.486325	-0.000014
C31	C	-0.645512	1.484053	0.000002
C32	C	-0.577275	1.482232	0.000015
C33	C	0.026931	1.492728	-0.000005
C34	C	0.110963	1.490507	-0.000026
C35	C	-0.107079	1.712750	0.000012
C36	C	-0.109306	1.852153	0.000003
N37	N	-0.111398	1.483144	0.346680
N38	N	-0.111384	1.483142	-0.346649
C39	C	-0.060412	1.568695	0.423326
C40	C	-0.060403	1.568692	0.576663
C41	C	-0.162372	1.397581	0.576695
C42	C	-0.162377	1.397579	0.423361
C43	C	-0.001543	1.667489	0.423308
C44	C	-0.001534	1.667485	0.576645
H45	H	-0.238240	1.074422	-0.000015
Cl46	Cl	0.086060	0.905825	0.157374
Cl47	Cl	-0.520818	1.221942	0.000014
Cl48	Cl	-0.021551	1.816138	0.640912
H49	H	0.059978	1.127385	0.105192
H50	H	-0.325806	1.683577	0.000016
H51	H	-0.203878	1.327916	0.639145
Cl52	Cl	-0.226465	1.290009	0.327005
H53	H	-0.469052	1.687369	0.000013
H54	H	-0.234447	0.836787	-0.000004
H55	H	-0.356369	1.268356	0.000068
H56	H	-0.753741	1.278906	0.000012
Cl57	Cl	0.082226	1.146601	-0.157371
H58	H	0.063373	0.915153	-0.105183
Cl59	Cl	0.083335	1.621852	0.650055
H60	H	-0.896986	1.282708	-0.000004
Cl61	Cl	-0.030015	1.807760	0.349873
Cl62	Cl	-0.880179	1.749068	-0.000029
Cl63	Cl	-0.701973	1.744346	-0.000013
Cl64	Cl	0.088268	1.635954	0.359026
