data_functionalizedCrystal
_audit_creation_method	'MofGen! by Chris Wilmer'
_symmetry_space_group_name_H-M	'P1'
_symmetry_Int_Tables_number	1
_symmetry_cell_setting	triclinic
loop_
_symmetry_equiv_pos_as_xyz
  x,y,z
_cell_length_a	19.288813
_cell_length_b	19.288864
_cell_length_c	18.366186
_cell_angle_alpha	89.977106
_cell_angle_beta	90.016152
_cell_angle_gamma	96.874130
loop_
_atom_site_label
_atom_site_type_symbol
_atom_site_fract_x
_atom_site_fract_y
_atom_site_fract_z
O1	O	-0.086651	0.921337	-0.060799
O2	O	-0.098340	0.719074	-0.060751
O3	O	0.008638	0.826068	-0.060753
O4	O	-0.193628	0.814343	-0.060797
O5	O	0.008643	0.826050	0.060346
O6	O	-0.098335	0.719056	0.060348
O7	O	-0.086646	0.921319	0.060301
Zn8	Zn	-0.092489	0.820185	0.079552
Zn9	Zn	-0.092496	0.820208	-0.080002
O10	O	-0.193623	0.814325	0.060303
C11	C	-0.097961	0.693189	-0.000195
C12	C	-0.096832	0.616085	-0.000176
C13	C	-0.159601	0.571378	-0.000201
C14	C	-0.158541	0.498931	-0.000208
C15	C	-0.094707	0.471195	-0.000206
C16	C	-0.031929	0.515912	-0.000177
C17	C	-0.032992	0.588358	-0.000162
C18	C	-0.044528	0.362948	-0.042646
C19	C	-0.043469	0.290504	-0.042666
C20	C	-0.091427	0.247750	-0.000249
C21	C	-0.140458	0.277447	0.042177
C22	C	-0.141520	0.349893	0.042192
C23	C	-0.093548	0.392641	-0.000222
C24	C	-0.153051	0.124486	-0.000282
C25	C	-0.151988	0.052038	-0.000285
C26	C	-0.025374	0.069022	-0.000261
C27	C	-0.026440	0.141468	-0.000250
C28	C	-0.090280	0.169196	-0.000264
C29	C	-0.219503	0.814705	-0.000253
C30	C	-0.296608	0.815820	-0.000271
C31	C	-0.332799	0.816351	0.065744
C32	C	-0.405246	0.817418	0.065756
C33	C	-0.441496	0.817967	-0.000250
C34	C	-0.405296	0.817432	-0.066274
C35	C	-0.332852	0.816358	-0.066284
C36	C	-0.550825	0.860361	-0.050816
C37	C	-0.623267	0.861438	-0.050802
C38	C	-0.664938	0.821276	-0.000221
C39	C	-0.634156	0.780044	0.050359
C40	C	-0.561712	0.778970	0.050349
C41	C	-0.520049	0.819131	-0.000246
C42	C	-0.779684	0.822963	0.065812
C43	C	-0.852132	0.824025	0.065821
C44	C	-0.852180	0.824046	-0.066211
C45	C	-0.779734	0.822976	-0.066218
C46	C	-0.743490	0.822438	-0.000205
C47	C	0.034517	0.825688	-0.000199
C48	C	0.111623	0.824573	-0.000186
C49	C	-0.087024	0.947204	-0.000257
C50	C	-0.088153	1.024308	-0.000281
N51	N	-0.092484	0.820173	0.188443
N52	N	-0.092496	0.820225	-0.188893
C53	C	-0.045138	0.867566	0.226542
C54	C	-0.045135	0.867570	0.302770
C55	C	-0.092490	0.820189	0.340895
C56	C	-0.139840	0.772787	0.302787
C57	C	-0.139837	0.772780	0.226560
C58	C	-0.155779	0.810879	0.461644
C59	C	-0.155783	0.810892	0.537868
C60	C	-0.092499	0.820208	0.576003
C61	C	-0.029207	0.829528	0.537903
C62	C	-0.029205	0.829520	0.461677
C63	C	-0.092498	0.820192	0.423550
C64	C	-0.045145	0.867608	0.696757
C65	C	-0.045141	0.867608	0.772986
C66	C	-0.139852	0.772828	0.773002
C67	C	-0.139850	0.772826	0.696774
C68	C	-0.092497	0.820219	0.658656
H69	H	-0.209657	0.462523	-0.000227
H70	H	-0.178407	0.734237	0.665751
H71	H	-0.434720	0.817838	0.119515
F72	F	-0.890759	0.824608	-0.136460
F73	F	-0.678498	0.737299	0.104199
H74	H	0.022325	0.837114	0.568950
H75	H	-0.750266	0.822549	-0.119975
F76	F	-0.294230	0.815773	0.136001
H77	H	-0.516903	0.893063	-0.092013
F78	F	0.005255	0.918046	0.656189
F79	F	0.008708	0.258904	-0.087826
F80	F	-0.294334	0.815793	-0.136549
F81	F	0.006520	0.408444	-0.087794
F82	F	0.038152	0.839432	0.421131
F83	F	-0.190236	0.722358	0.343363
H84	H	-0.178393	0.734186	0.195539
H85	H	0.018124	0.624760	-0.000142
H86	H	0.024674	0.177870	-0.000234
F87	F	-0.190247	0.722397	0.813574
F88	F	0.005260	0.918015	0.343325
F89	F	0.005258	0.918048	0.813536
H90	H	-0.207318	0.803308	0.568884
H91	H	-0.536652	0.745398	0.091534
H92	H	-0.207316	0.803280	0.430601
H93	H	-0.181440	0.374069	0.076740
H94	H	0.020045	0.493325	-0.000185
H95	H	0.026600	0.046440	-0.000304
F96	F	-0.227546	0.600883	-0.000213
H97	H	-0.205033	0.147063	-0.000282
F98	F	-0.191504	0.231951	0.087323
F99	F	-0.656021	0.905323	-0.104632
H100	H	-0.006579	0.906155	0.195509
F101	F	-0.443877	0.818019	-0.136522
H102	H	-0.750173	0.822518	0.119563
H103	H	-0.203104	0.015637	-0.000301
F104	F	-0.890651	0.824579	0.136087
