data_functionalizedCrystal
_audit_creation_method	'MofGen! by Chris Wilmer'
_symmetry_space_group_name_H-M	'P1'
_symmetry_Int_Tables_number	1
_symmetry_cell_setting	triclinic
loop_
_symmetry_equiv_pos_as_xyz
  x,y,z
_cell_length_a	18.101395
_cell_length_b	16.120530
_cell_length_c	16.120297
_cell_angle_alpha	89.871860
_cell_angle_beta	92.872690
_cell_angle_gamma	92.873335
loop_
_atom_site_label
_atom_site_type_symbol
_atom_site_fract_x
_atom_site_fract_y
_atom_site_fract_z
Zn1	Zn	-0.375190	-1.247384	-0.534565
Zn2	Zn	-0.493082	-1.254317	-0.395508
Zn3	Zn	-0.362676	-1.115376	-0.388483
Zn4	Zn	-0.492400	-1.108274	-0.527477
O5	O	-0.430837	-1.181338	-0.461508
O6	O	-0.396351	-1.364669	-0.522025
O7	O	-0.470832	-1.241761	-0.278211
O8	O	-0.260707	-1.132958	-0.407888
O9	O	-0.482966	-1.369763	-0.419860
O10	O	-0.269901	-1.229944	-0.515214
O11	O	-0.375023	-1.139681	-0.273050
O12	O	-0.374361	-0.998069	-0.401015
O13	O	-0.481804	-1.120853	-0.644783
O14	O	-0.469669	-0.992851	-0.503133
O15	O	-0.395690	-1.223057	-0.649990
O16	O	-0.596620	-1.234873	-0.412987
O17	O	-0.596119	-1.127576	-0.509945
C18	C	-0.623241	-1.181228	-0.461478
C19	C	-0.705558	-1.181256	-0.461497
C20	C	-0.420584	-0.965287	-0.450543
C21	C	-0.416216	-0.872859	-0.445872
C22	C	-0.440067	-1.170389	-0.678403
C23	C	-0.444000	-1.165724	-0.770830
C24	C	-1.004659	-1.181436	-0.461551
C25	C	-0.973063	-1.114068	-0.522721
C26	C	-0.887422	-1.113774	-0.522504
C27	C	-0.856271	-1.181346	-0.461525
C28	C	-0.882548	-1.162064	-0.372686
C29	C	-0.968190	-1.161632	-0.373050
C30	C	-0.978132	-1.268265	-0.488456
C31	C	-0.892539	-1.267650	-0.490352
C32	C	-0.772409	-1.181297	-0.461505
C33	C	-1.088521	-1.181483	-0.461565
C34	C	-0.237683	-1.181470	-0.461558
C35	C	-0.155373	-1.181526	-0.461579
C36	C	-0.441131	-1.398232	-0.472517
C37	C	-0.445517	-1.490660	-0.477208
C38	C	-0.408225	-0.703631	-0.437350
C39	C	-0.453506	-0.659883	-0.485727
C40	C	-0.449060	-0.565718	-0.480986
C41	C	-0.412671	-0.797804	-0.442091
C42	C	-0.451163	-1.157175	-0.940055
C43	C	-0.410297	-1.205665	-0.983822
C44	C	-0.414283	-1.200908	-1.077985
C45	C	-0.447178	-1.161931	-0.845884
C46	C	-0.421592	-1.192292	-0.245460
C47	C	-0.417458	-1.197119	-0.153042
H48	H	-0.869842	-1.125322	-0.588238
H49	H	-0.997097	-1.125459	-0.588658
O50	O	-0.501468	-1.097456	-0.984090
H51	H	-0.559577	-1.112498	-0.968197
H52	H	-0.372317	-1.250750	-0.950575
H53	H	-0.998637	-1.318402	-0.443958
H54	H	-0.875783	-1.282271	-0.555755
O55	O	-0.996740	-1.029203	-0.498924
H56	H	-1.030913	-1.034795	-0.443718
H57	H	-0.495611	-0.693149	-0.530706
O58	O	-0.352476	-0.659564	-0.377756
H59	H	-0.314608	-0.618121	-0.413080
O60	O	-0.855422	-1.028412	-0.498411
H61	H	-0.901127	-0.987182	-0.486863
H62	H	-0.984372	-1.098292	-0.350776
H63	H	-0.988900	-1.208812	-0.325680
H64	H	-0.862211	-1.209784	-0.325672
H65	H	-0.857320	-1.099423	-0.350105
O66	O	-0.864869	-1.337171	-0.436091
H67	H	-0.837323	-1.382153	-0.474739
H68	H	-1.003393	-1.286711	-0.552368
