data_functionalizedCrystal
_audit_creation_method	'MofGen! by Chris Wilmer'
_symmetry_space_group_name_H-M	'P1'
_symmetry_Int_Tables_number	1
_symmetry_cell_setting	triclinic
loop_
_symmetry_equiv_pos_as_xyz
  x,y,z
_cell_length_a	14.908571
_cell_length_b	10.686285
_cell_length_c	10.686551
_cell_angle_alpha	80.915481
_cell_angle_beta	82.072855
_cell_angle_gamma	82.092200
loop_
_atom_site_label
_atom_site_type_symbol
_atom_site_fract_x
_atom_site_fract_y
_atom_site_fract_z
Zn1	Zn	1.453247	-0.559280	-0.787786
Zn2	Zn	1.453174	-0.787854	-0.559278
Zn3	Zn	1.290285	-0.563398	-0.563349
Zn4	Zn	1.311967	-0.760869	-0.760912
O5	O	1.377168	-0.667850	-0.667831
O6	O	1.580533	-0.599171	-0.767016
O7	O	1.422461	-0.771096	-0.381506
O8	O	1.302859	-0.384550	-0.606072
O9	O	1.580479	-0.767103	-0.599133
O10	O	1.422587	-0.381524	-0.770964
O11	O	1.302787	-0.606189	-0.384497
O12	O	1.165865	-0.580023	-0.580014
O13	O	1.339813	-0.721111	-0.942788
O14	O	1.181795	-0.725104	-0.725162
O15	O	1.443611	-0.573004	-0.962533
O16	O	1.443486	-0.962576	-0.573074
O17	O	1.339742	-0.942750	-0.721214
C18	C	1.393985	-0.998895	-0.643815
C19	C	1.401264	-1.140520	-0.633590
C20	C	1.140824	-0.650083	-0.650114
C21	C	1.039718	-0.642510	-0.642563
C22	C	0.866367	-0.779623	-0.779278
C23	C	0.771370	-0.772511	-0.772187
C24	C	0.754723	-0.621170	-0.621297
C25	C	0.849721	-0.628281	-0.628388
C26	C	0.905540	-0.707512	-0.707380
C27	C	1.000539	-0.714629	-0.714463
C28	C	0.983891	-0.563282	-0.563581
C29	C	0.888894	-0.556170	-0.556490
C30	C	1.614435	-0.685688	-0.685618
C31	C	1.715545	-0.693289	-0.693198
C32	C	1.394139	-0.643588	-1.000187
C33	C	1.401371	-0.633249	-1.141818
C34	C	1.360312	-0.335513	-0.691970
C35	C	1.353129	-0.193890	-0.702257
C36	C	1.360311	-0.691930	-0.336778
C37	C	1.353237	-0.701923	-0.195188
H38	H	1.448040	-1.203182	-0.566965
C39	C	1.026978	-0.483960	-0.484481
H40	H	0.980126	-0.435767	-0.436415
H41	H	1.063723	-0.427726	-0.540089
H42	H	1.063658	-0.539467	-0.428114
C43	C	1.289941	-1.109256	-0.792256
H44	H	1.293182	-1.021978	-0.787567
H45	H	1.228984	-1.127854	-0.767405
H46	H	1.308687	-1.125704	-0.877335
C47	C	1.061939	-0.801773	-0.801354
H48	H	1.024999	-0.843689	-0.843168
H49	H	1.099319	-0.863558	-0.751275
H50	H	1.099366	-0.751818	-0.863251
H51	H	0.911816	-0.844143	-0.843589
C52	C	0.728282	-0.851805	-0.851303
H53	H	0.775134	-0.900004	-0.899363
H54	H	0.691603	-0.796291	-0.907655
H55	H	0.691537	-0.908053	-0.795701
C56	C	0.693314	-0.534041	-0.534402
H57	H	0.631127	-0.540146	-0.540472
H58	H	0.705481	-0.448248	-0.560535
H59	H	0.705437	-0.560001	-0.448573
H60	H	0.843433	-0.491660	-0.492181
H61	H	1.306498	-0.768631	-1.132528
C62	C	1.464525	-0.543133	-1.226458
H63	H	1.493756	-0.501444	-1.173985
H64	H	1.429536	-0.481255	-1.279800
H65	H	1.509258	-0.591118	-1.277795
