data_functionalizedCrystal
_audit_creation_method	'MofGen! by Chris Wilmer'
_symmetry_space_group_name_H-M	'P1'
_symmetry_Int_Tables_number	1
_symmetry_cell_setting	triclinic
loop_
_symmetry_equiv_pos_as_xyz
  x,y,z
_cell_length_a	16.120484
_cell_length_b	16.625548
_cell_length_c	16.625539
_cell_angle_alpha	90.018832
_cell_angle_beta	92.870299
_cell_angle_gamma	87.074492
loop_
_atom_site_label
_atom_site_type_symbol
_atom_site_fract_x
_atom_site_fract_y
_atom_site_fract_z
Zn1	Zn	-0.331925	-1.216357	-0.472207
Zn2	Zn	-0.081925	-0.966357	-0.222207
Zn3	Zn	0.168075	-0.716357	0.027793
Zn4	Zn	0.418075	-0.466357	0.277793
Zn5	Zn	-0.471345	-1.209424	-0.344203
Zn6	Zn	-0.221345	-0.959424	-0.094203
Zn7	Zn	0.028655	-0.709424	0.155797
Zn8	Zn	0.278655	-0.459424	0.405797
Zn9	Zn	-0.331949	-1.081526	-0.337384
Zn10	Zn	-0.081949	-0.831526	-0.087384
Zn11	Zn	0.168051	-0.581526	0.162616
Zn12	Zn	0.418051	-0.331526	0.412616
Zn13	Zn	-0.471299	-1.074647	-0.478987
Zn14	Zn	-0.221299	-0.824647	-0.228987
Zn15	Zn	0.028701	-0.574647	0.021013
Zn16	Zn	0.278701	-0.324647	0.271013
O17	O	-0.401629	-1.145488	-0.408195
O18	O	-0.151629	-0.895488	-0.158195
O19	O	0.098371	-0.645488	0.091805
O20	O	0.348371	-0.395488	0.341805
O21	O	-0.350428	-1.328269	-0.455243
O22	O	-0.100428	-1.078269	-0.205243
O23	O	0.149572	-0.828269	0.044757
O24	O	0.399572	-0.578269	0.294757
O25	O	-0.452883	-1.192435	-0.230468
O26	O	-0.202883	-0.942435	0.019532
O27	O	0.047117	-0.692435	0.269532
O28	O	0.297117	-0.442435	0.519532
O29	O	-0.215280	-1.105192	-0.349577
O30	O	0.034720	-0.855192	-0.099577
O31	O	0.284720	-0.605192	0.150423
O32	O	0.534720	-0.355192	0.400423
O33	O	-0.452860	-1.323175	-0.361199
O34	O	-0.202860	-1.073175	-0.111199
O35	O	0.047140	-0.823175	0.138801
O36	O	0.297140	-0.573175	0.388801
O37	O	-0.215262	-1.204252	-0.448631
O38	O	0.034738	-0.954252	-0.198631
O39	O	0.284738	-0.704252	0.051369
O40	O	0.534738	-0.454252	0.301369
O41	O	-0.350470	-1.098469	-0.225458
O42	O	-0.100470	-0.848469	0.024542
O43	O	0.149530	-0.598469	0.274542
O44	O	0.399530	-0.348469	0.524542
O45	O	-0.350425	-0.967781	-0.356152
O46	O	-0.100425	-0.717781	-0.106152
O47	O	0.149575	-0.467781	0.143848
O48	O	0.399575	-0.217781	0.393848
O49	O	-0.452781	-1.093468	-0.590918
O50	O	-0.202781	-0.843468	-0.340918
O51	O	0.047219	-0.593468	-0.090918
O52	O	0.297219	-0.343468	0.159082
O53	O	-0.452804	-0.962727	-0.460186
O54	O	-0.202804	-0.712727	-0.210186
O55	O	0.047196	-0.462727	0.039814
O56	O	0.297196	-0.212727	0.289814
O57	O	-0.350384	-1.197581	-0.585937
O58	O	-0.100384	-0.947581	-0.335937
O59	O	0.149616	-0.697581	-0.085937
O60	O	0.399616	-0.447581	0.164063
O61	O	-0.588005	-1.185765	-0.367774
O62	O	-0.338005	-0.935765	-0.117774
O63	O	-0.088005	-0.685765	0.132226
O64	O	0.161995	-0.435765	0.382226
O65	O	-0.587971	-1.086745	-0.466799
O66	O	-0.337971	-0.836745	-0.216799
O67	O	-0.087971	-0.586745	0.033201
O68	O	0.162029	-0.336745	0.283201
C69	C	-0.401613	-0.935998	-0.408165
C70	C	-0.151613	-0.685998	-0.158165
C71	C	0.098387	-0.435998	0.091835
C72	C	0.348387	-0.185998	0.341835
C73	C	-0.401626	-0.846377	-0.408173
C74	C	-0.151626	-0.596377	-0.158173
C75	C	0.098374	-0.346377	0.091827
C76	C	0.348374	-0.096377	0.341827
C77	C	-0.618238	-1.134778	-0.418779
C78	C	-0.368238	-0.884778	-0.168779
C79	C	-0.118238	-0.634778	0.081221
C80	C	0.131762	-0.384778	0.331221
C81	C	-0.710904	-1.130270	-0.423334
C82	C	-0.460904	-0.880270	-0.173334
C83	C	-0.210904	-0.630270	0.076666
C84	C	0.039096	-0.380270	0.326666
C85	C	-0.401624	-0.518201	-0.408197
C86	C	-0.151624	-0.268201	-0.158197
C87	C	0.098376	-0.018201	0.091803
C88	C	0.348376	0.231799	0.341803
C89	C	-0.401622	-0.609510	-0.408187
C90	C	-0.151622	-0.359510	-0.158187
C91	C	0.098378	-0.109510	0.091813
C92	C	0.348378	0.140490	0.341813
C93	C	-0.401625	-0.682286	-0.408184
C94	C	-0.151625	-0.432286	-0.158184
C95	C	0.098375	-0.182286	0.091816
C96	C	0.348375	0.067714	0.341816
C97	C	-0.401623	-0.773600	-0.408176
C98	C	-0.151623	-0.523600	-0.158176
C99	C	0.098377	-0.273600	0.091824
C100	C	0.348377	-0.023600	0.341824
C101	C	-0.880566	-1.122043	-0.431667
C102	C	-0.630566	-0.872043	-0.181667
C103	C	-0.380566	-0.622043	0.068333
C104	C	-0.130566	-0.372043	0.318333
C105	C	-0.921852	-1.169078	-0.384736
C106	C	-0.671852	-0.919078	-0.134736
C107	C	-0.421852	-0.669078	0.115264
C108	C	-0.171852	-0.419078	0.365264
C109	C	-1.016258	-1.164501	-0.389373
C110	C	-0.766258	-0.914501	-0.139373
C111	C	-0.516258	-0.664501	0.110627
C112	C	-0.266258	-0.414501	0.360627
C113	C	-0.786152	-1.126619	-0.427032
C114	C	-0.536152	-0.876619	-0.177032
C115	C	-0.286152	-0.626619	0.072968
C116	C	-0.036152	-0.376619	0.322968
C117	C	-0.184175	-1.156263	-0.397587
C118	C	0.065825	-0.906263	-0.147587
C119	C	0.315825	-0.656263	0.102413
C120	C	0.565825	-0.406263	0.352413
C121	C	-0.091509	-1.160854	-0.393067
C122	C	0.158491	-0.910854	-0.143067
C123	C	0.408491	-0.660854	0.106933
C124	C	0.658491	-0.410854	0.356933
C125	C	-0.401574	-1.145531	-0.618501
C126	C	-0.151574	-0.895531	-0.368501
C127	C	0.098426	-0.645531	-0.118501
C128	C	0.348426	-0.395531	0.131499
C129	C	-0.401551	-1.145549	-0.708121
C130	C	-0.151551	-0.895549	-0.458121
C131	C	0.098449	-0.645549	-0.208121
C132	C	0.348449	-0.395549	0.041879
C133	C	-0.401641	-0.355797	-0.408218
C134	C	-0.151641	-0.105797	-0.158218
C135	C	0.098359	0.144203	0.091782
C136	C	0.348359	0.394203	0.341782
C137	C	-0.401632	-0.445418	-0.408207
C138	C	-0.151632	-0.195418	-0.158207
C139	C	0.098368	0.054582	0.091793
C140	C	0.348368	0.304582	0.341793
C141	C	-0.401532	-1.145563	-0.780903
C142	C	-0.151532	-0.895563	-0.530903
C143	C	0.098468	-0.645563	-0.280903
C144	C	0.348468	-0.395563	-0.030903
C145	C	-0.401501	-1.145583	-0.872210
C146	C	-0.151501	-0.895583	-0.622210
C147	C	0.098499	-0.645583	-0.372210
C148	C	0.348499	-0.395583	-0.122210
C149	C	-0.401472	-1.145603	-0.944985
C150	C	-0.151472	-0.895603	-0.694985
C151	C	0.098528	-0.645603	-0.444985
C152	C	0.348528	-0.395603	-0.194985
C153	C	-0.401442	-1.145625	-1.036298
C154	C	-0.151442	-0.895625	-0.786298
C155	C	0.098558	-0.645625	-0.536298
C156	C	0.348558	-0.395625	-0.286298
C157	C	-0.401624	-1.145496	-0.198704
C158	C	-0.151624	-0.895496	0.051296
C159	C	0.098376	-0.645496	0.301296
C160	C	0.348376	-0.395496	0.551296
C161	C	-0.401413	-1.145645	-0.109073
C162	C	-0.151413	-0.895645	0.140927
C163	C	0.098587	-0.645645	0.390927
C164	C	0.348587	-0.395645	0.640927
H165	H	-0.886298	-1.212782	-0.341075
H166	H	-0.636298	-0.962782	-0.091075
H167	H	-0.386298	-0.712782	0.158925
H168	H	-0.136298	-0.462782	0.408925
C169	C	-0.928590	-1.063000	-0.490645
C170	C	-0.678590	-0.813000	-0.240645
C171	C	-0.428590	-0.563000	0.009355
C172	C	-0.178590	-0.313000	0.259355
C173	C	-1.024361	-1.058450	-0.495250
C174	C	-0.774361	-0.808450	-0.245250
C175	C	-0.524361	-0.558450	0.004750
C176	C	-0.274361	-0.308450	0.254750
C177	C	-1.072397	-0.999406	-0.554225
C178	C	-0.822397	-0.749406	-0.304225
C179	C	-0.572397	-0.499406	-0.054225
C180	C	-0.322397	-0.249406	0.195775
C181	C	-1.024662	-0.944913	-0.608594
C182	C	-0.774662	-0.694913	-0.358594
C183	C	-0.524662	-0.444913	-0.108594
C184	C	-0.274662	-0.194913	0.141406
C185	C	-0.928885	-0.949461	-0.603990
C186	C	-0.678885	-0.699461	-0.353990
C187	C	-0.428885	-0.449461	-0.103990
C188	C	-0.178885	-0.199461	0.146010
C189	C	-0.880849	-1.008505	-0.545015
C190	C	-0.630849	-0.758505	-0.295015
C191	C	-0.380849	-0.508505	-0.045015
C192	C	-0.130849	-0.258505	0.204985
H193	H	-1.059703	-1.098791	-0.455001
H194	H	-0.809703	-0.848791	-0.205001
H195	H	-0.559703	-0.598791	0.044999
H196	H	-0.309703	-0.348791	0.294999
H197	H	-1.143298	-0.996040	-0.557633
H198	H	-0.893298	-0.746040	-0.307633
H199	H	-0.643298	-0.496040	-0.057633
H200	H	-0.393298	-0.246040	0.192367
H201	H	-1.060221	-0.901205	-0.652251
H202	H	-0.810221	-0.651205	-0.402251
H203	H	-0.560221	-0.401205	-0.152251
H204	H	-0.310221	-0.151205	0.097749
H205	H	-0.893544	-0.909120	-0.644239
H206	H	-0.643544	-0.659120	-0.394239
H207	H	-0.393544	-0.409120	-0.144239
H208	H	-0.143544	-0.159120	0.105761
H209	H	-0.809949	-1.011871	-0.541608
H210	H	-0.559949	-0.761871	-0.291608
H211	H	-0.309949	-0.511871	-0.041608
H212	H	-0.059949	-0.261871	0.208392
