data_functionalizedCrystal
_audit_creation_method	'MofGen! by Chris Wilmer'
_symmetry_space_group_name_H-M	'P1'
_symmetry_Int_Tables_number	1
_symmetry_cell_setting	triclinic
loop_
_symmetry_equiv_pos_as_xyz
  x,y,z
_cell_length_a	12.759401
_cell_length_b	12.759399
_cell_length_c	12.759393
_cell_angle_alpha	90.031461
_cell_angle_beta	90.020473
_cell_angle_gamma	90.016641
loop_
_atom_site_label
_atom_site_type_symbol
_atom_site_fract_x
_atom_site_fract_y
_atom_site_fract_z
Zn1	Zn	1.606259	-0.418167	0.594017
Zn2	Zn	1.606150	-0.593884	0.418336
Zn3	Zn	1.430559	-0.418225	0.418352
Zn4	Zn	1.430548	-0.593809	0.593973
O5	O	1.518379	-0.506021	0.506170
O6	O	1.753265	-0.441484	0.570724
O7	O	1.582816	-0.570638	0.271317
O8	O	1.453916	-0.271196	0.441680
O9	O	1.753185	-0.570582	0.441652
O10	O	1.583002	-0.271154	0.570740
O11	O	1.453810	-0.441582	0.271329
O12	O	1.283536	-0.441509	0.441637
O13	O	1.453897	-0.570454	0.741000
O14	O	1.283528	-0.570510	0.570665
O15	O	1.582991	-0.441411	0.741032
O16	O	1.582806	-0.740895	0.441609
O17	O	1.453792	-0.740840	0.570649
C18	C	1.245411	-0.506008	0.506149
C19	C	1.128635	-0.506028	0.506165
C20	C	1.073796	-0.573301	0.573244
C21	C	0.964072	-0.573305	0.573265
C22	C	0.964035	-0.438760	0.439118
C23	C	1.073757	-0.438752	0.439104
C24	C	1.518314	-0.778989	0.506146
C25	C	1.518383	-0.895765	0.506171
C26	C	1.585637	-0.950621	0.439056
C27	C	1.585705	-1.060345	0.439091
C28	C	1.451255	-1.060348	0.573359
C29	C	1.451193	-0.950626	0.573328
C30	C	1.792412	-0.506035	0.506191
C31	C	1.909189	-0.506041	0.506200
C32	C	1.518455	-0.505918	0.780203
C33	C	1.518488	-0.505874	0.896980
C34	C	1.518472	-0.231988	0.506217
C35	C	1.518512	-0.115211	0.506237
C36	C	1.518363	-0.506049	0.233202
C37	C	1.518534	-0.505797	0.116426
C38	C	1.585733	-0.438630	1.061592
C39	C	1.585713	-0.438671	0.951867
C40	C	1.451285	-0.573047	0.951822
C41	C	1.451311	-0.573011	1.061544
H42	H	1.118408	-0.383963	0.384480
C43	C	1.659553	-0.890278	0.365187
N44	N	1.715232	-0.844831	0.309549
H45	H	1.640471	-1.105004	0.384441
H46	H	1.396554	-0.627770	0.907124
C47	C	1.377338	-1.120705	0.647216
N48	N	1.321658	-1.166164	0.702843
H49	H	1.396426	-0.905959	0.627986
C50	C	1.134158	-0.647300	0.647021
N51	N	1.179619	-0.703034	0.702595
H52	H	1.640470	-0.383899	1.106273
H53	H	0.919427	-0.628084	0.627889
H54	H	0.919340	-0.383988	0.384518
H55	H	1.640435	-0.383978	0.907226
C56	C	1.377381	-0.646902	1.121866
N57	N	1.321700	-0.702555	1.167300
