data_functionalizedCrystal
_audit_creation_method	'MofGen! by Chris Wilmer'
_symmetry_space_group_name_H-M	'P1'
_symmetry_Int_Tables_number	1
_symmetry_cell_setting	triclinic
loop_
_symmetry_equiv_pos_as_xyz
  x,y,z
_cell_length_a	17.699097
_cell_length_b	17.699104
_cell_length_c	15.186229
_cell_angle_alpha	89.995322
_cell_angle_beta	89.993050
_cell_angle_gamma	83.289974
loop_
_atom_site_label
_atom_site_type_symbol
_atom_site_fract_x
_atom_site_fract_y
_atom_site_fract_z
O1	O	1.004075	0.095757	-0.073304
O2	O	0.783699	0.108199	-0.073289
O3	O	0.900105	-0.008210	-0.073289
O4	O	0.887669	0.212166	-0.073304
O5	O	0.900098	-0.008211	0.073168
O6	O	0.783692	0.108197	0.073168
O7	O	1.004068	0.095755	0.073154
Zn8	Zn	0.893878	0.101976	0.096414
Zn9	Zn	0.893889	0.101978	-0.096550
O10	O	0.887662	0.212164	0.073153
C11	C	0.755499	0.107751	-0.000059
C12	C	0.671481	0.106408	-0.000053
C13	C	0.155766	0.098180	-0.079922
C14	C	0.234711	0.099436	-0.079918
C15	C	0.274172	0.100064	-0.000081
C16	C	0.234687	0.099429	0.079758
C17	C	0.155745	0.098167	0.079753
C18	C	0.553051	0.104516	0.079781
C19	C	0.631999	0.105780	0.079780
C20	C	0.632017	0.105785	-0.079890
C21	C	0.553075	0.104523	-0.079895
C22	C	0.513597	0.103884	-0.000057
C23	C	0.427997	0.102520	-0.000063
C24	C	0.359770	0.101433	-0.000074
C25	C	0.899653	-0.036407	-0.000060
C26	C	0.898308	-0.120425	-0.000060
C27	C	0.959052	-0.645293	-0.000089
C28	C	0.960311	-0.566349	-0.000081
C29	C	0.891976	-0.517735	-0.000075
C30	C	0.822378	-0.548068	-0.000067
C31	C	0.821119	-0.627010	-0.000068
C32	C	0.827451	-0.229702	-0.000060
C33	C	0.828715	-0.150754	-0.000061
C34	C	0.966642	-0.169040	-0.000072
C35	C	0.965384	-0.247983	-0.000074
C36	C	0.895786	-0.278309	-0.000062
C37	C	0.894422	-0.363909	-0.000068
C38	C	0.893340	-0.432136	-0.000074
C39	C	1.032268	0.096204	-0.000079
C40	C	1.116286	0.097546	-0.000090
C41	C	0.888114	0.240362	-0.000077
C42	C	0.889459	0.324379	-0.000084
N43	N	0.893877	0.101974	0.228107
N44	N	0.893896	0.101974	-0.228242
C45	C	0.945439	0.050446	0.453830
C46	C	0.945441	0.050444	0.546019
C47	C	0.842329	0.153505	0.546028
C48	C	0.842323	0.153503	0.453840
C49	C	0.893883	0.101974	0.407743
C50	C	0.893890	0.101974	0.592121
C51	C	0.893893	0.101973	0.692077
C52	C	0.893880	0.101974	0.307781
H53	H	0.664170	0.106303	-0.144898
C54	C	1.036861	-0.532987	-0.000082
H55	H	1.027826	-0.479010	-0.000067
H56	H	1.064997	-0.549673	-0.051156
H57	H	1.064985	-0.549689	0.050996
C58	C	1.002150	-0.006232	0.403122
H59	H	0.994771	0.001151	0.341617
H60	H	0.994027	-0.056736	0.418236
H61	H	1.052647	0.001935	0.418222
H62	H	0.766739	-0.508480	-0.000057
H63	H	0.773065	-0.111173	-0.000054
H64	H	0.987422	0.008484	0.583540
C65	C	0.785625	0.210189	0.596737
H66	H	0.793017	0.202817	0.658242
H67	H	0.735127	0.202035	0.581644
H68	H	0.793761	0.260693	0.581617
H69	H	0.800336	0.195463	0.416314
H70	H	0.123600	0.097659	0.144760
H71	H	0.123642	0.097673	-0.144935
H72	H	0.266853	0.099947	-0.144925
H73	H	0.520949	0.104015	-0.144907
C74	C	1.040550	-0.301458	-0.000086
H75	H	1.029832	-0.352816	-0.000095
H76	H	1.069094	-0.292283	0.050983
H77	H	1.069091	-0.292270	-0.051169
C78	C	0.675408	0.106456	0.167605
H79	H	0.640592	0.105884	0.215153
H80	H	0.700357	0.151064	0.170934
H81	H	0.712049	0.062821	0.170912
C82	C	0.744567	-0.660371	-0.000071
H83	H	0.704049	-0.620113	-0.000077
H84	H	0.741204	-0.690792	0.051000
H85	H	0.741215	-0.690781	-0.051152
H86	H	1.014698	-0.684870	-0.000101
H87	H	0.266824	0.099936	0.144763
C88	C	0.509634	0.103823	0.167598
H89	H	0.544443	0.104388	0.215144
H90	H	0.484687	0.059213	0.170925
H91	H	0.472990	0.147456	0.170911
H92	H	1.023312	-0.144340	-0.000094
H93	H	0.770780	-0.254383	-0.000061
