data_functionalizedCrystal
_audit_creation_method	'MofGen! by Chris Wilmer'
_symmetry_space_group_name_H-M	'P1'
_symmetry_Int_Tables_number	1
_symmetry_cell_setting	triclinic
loop_
_symmetry_equiv_pos_as_xyz
  x,y,z
_cell_length_a	16.994738
_cell_length_b	11.169417
_cell_length_c	11.169409
_cell_angle_alpha	89.980176
_cell_angle_beta	90.011213
_cell_angle_gamma	90.012083
loop_
_atom_site_label
_atom_site_type_symbol
_atom_site_fract_x
_atom_site_fract_y
_atom_site_fract_z
Zn1	Zn	-0.313946	-1.835157	0.678719
Zn2	Zn	-0.445878	-1.835128	0.478110
Zn3	Zn	-0.313994	-1.634443	0.478053
Zn4	Zn	-0.445814	-1.634532	0.678755
O5	O	-0.379908	-1.734815	0.578409
O6	O	-0.331454	-2.003102	0.652116
O7	O	-0.428430	-1.808457	0.310153
O8	O	-0.203606	-1.661043	0.504633
O9	O	-0.428384	-2.003081	0.504730
O10	O	-0.203571	-1.808506	0.652062
O11	O	-0.331536	-1.661014	0.310111
O12	O	-0.331473	-1.466505	0.504668
O13	O	-0.428274	-1.661194	0.846700
O14	O	-0.428321	-1.466570	0.652123
O15	O	-0.331391	-1.808593	0.846673
O16	O	-0.556251	-1.808543	0.504765
O17	O	-0.556204	-1.661166	0.652177
C18	C	-0.379896	-1.422990	0.578394
C19	C	-0.379910	-1.289590	0.578416
C20	C	-0.174168	-1.734759	0.578334
C21	C	-0.084846	-1.734739	0.578302
C22	C	-0.674167	-1.734571	0.578110
C23	C	-0.584846	-1.734771	0.578387
Zn24	Zn	0.186001	-1.834664	0.477577
Zn25	Zn	0.186060	-1.634480	0.678634
Zn26	Zn	0.054211	-1.835219	0.678324
Zn27	Zn	0.054098	-1.634093	0.478071
O28	O	0.120092	-1.734614	0.578151
O29	O	0.296390	-1.808039	0.504171
O30	O	0.168642	-1.661503	0.846542
O31	O	0.071716	-2.003094	0.651358
O32	O	0.296433	-1.660965	0.651886
O33	O	0.168541	-2.002687	0.503870
O34	O	0.071773	-1.808984	0.846314
O35	O	-0.056185	-1.808609	0.651837
O36	O	0.071523	-1.660305	0.310056
O37	O	-0.056269	-1.660843	0.504712
O38	O	0.168431	-1.807663	0.309693
O39	O	0.168532	-1.466480	0.652365
O40	O	0.071580	-1.466195	0.505012
C41	C	-0.379820	-1.734907	0.891452
C42	C	-0.379783	-1.734946	1.024852
C43	C	-0.379920	-2.047857	0.578425
C44	C	-0.379926	-2.181257	0.578432
C45	C	-0.379938	-1.734792	0.266584
C46	C	-0.379753	-1.734985	0.133185
C47	C	0.120052	-1.422790	0.578779
C48	C	0.120058	-1.289391	0.579082
C49	C	0.119958	-1.733879	0.265109
C50	C	0.119900	-1.733566	0.131710
C51	C	0.120135	-2.047655	0.577525
C52	C	0.120153	-2.181055	0.577258
C53	C	0.120270	-1.735430	0.889975
C54	C	0.120476	-1.736074	1.023374
