data_functionalizedCrystal
_audit_creation_method	'MofGen! by Chris Wilmer'
_symmetry_space_group_name_H-M	'P1'
_symmetry_Int_Tables_number	1
_symmetry_cell_setting	triclinic
loop_
_symmetry_equiv_pos_as_xyz
  x,y,z
_cell_length_a	18.215407
_cell_length_b	17.638446
_cell_length_c	18.215399
_cell_angle_alpha	78.819282
_cell_angle_beta	89.983101
_cell_angle_gamma	78.755386
loop_
_atom_site_label
_atom_site_type_symbol
_atom_site_fract_x
_atom_site_fract_y
_atom_site_fract_z
Zn1	Zn	1.065770	0.314759	-0.475284
Zn2	Zn	1.040773	0.446951	-0.377091
Zn3	Zn	0.942699	0.314778	-0.352241
Zn4	Zn	0.917773	0.446900	-0.500112
O5	O	0.991754	0.380847	-0.426182
O6	O	1.165436	0.332308	-0.462267
O7	O	1.027734	0.429447	-0.270816
O8	O	0.979918	0.204159	-0.347772
O9	O	1.147071	0.429429	-0.390125
O10	O	1.070338	0.204145	-0.438171
O11	O	0.955679	0.332340	-0.252558
O12	O	0.836411	0.332291	-0.371847
O13	O	0.937435	0.429342	-0.599798
O14	O	0.818098	0.429360	-0.480488
O15	O	1.046168	0.332259	-0.581556
O16	O	1.003564	0.557561	-0.414201
O17	O	0.913196	0.557523	-0.504584
C18	C	0.800552	0.380823	-0.426166
C19	C	0.718752	0.380831	-0.426180
C20	C	0.444159	0.431474	-0.482702
C21	C	0.521019	0.431467	-0.482697
C22	C	0.540087	0.330238	-0.369678
C23	C	0.463227	0.330249	-0.369681
C24	C	0.415266	0.380866	-0.426197
C25	C	0.568985	0.380848	-0.426189
C26	C	0.652320	0.380840	-0.426184
C27	C	0.331925	0.380875	-0.426202
C28	C	0.952983	0.586224	-0.464799
C29	C	0.936464	0.674085	-0.481344
C30	C	0.866091	0.797930	-0.551684
C31	C	0.881619	0.715371	-0.536132
C32	C	0.975799	0.715347	-0.442084
C33	C	0.960277	0.797908	-0.457626
C34	C	0.905422	0.839192	-0.512427
C35	C	0.999608	0.839170	-0.418369
C36	C	0.984089	0.921723	-0.433912
C37	C	0.929239	0.963014	-0.488712
C38	C	0.889903	0.921746	-0.527970
C39	C	1.054466	0.797884	-0.363572
C40	C	1.093797	0.839146	-0.324315
C41	C	1.078275	0.921701	-0.339854
C42	C	1.023425	0.962992	-0.394654
C43	C	1.117610	0.962969	-0.300596
C44	C	1.102091	1.045523	-0.316140
C45	C	1.007906	1.045545	-0.410198
C46	C	1.183702	0.380872	-0.426198
C47	C	1.265499	0.380883	-0.426205
C48	C	0.991809	0.380793	-0.618125
C49	C	0.991833	0.380769	-0.699919
C50	C	1.030683	1.174668	-0.387436
C51	C	1.047237	1.086807	-0.370941
C52	C	1.048476	0.330171	-0.878607
C53	C	1.048489	0.330148	-0.955462
C54	C	0.935265	0.431246	-0.974446
C55	C	0.935249	0.431264	-0.897592
C56	C	0.991859	0.380728	-0.849675
C57	C	0.991887	0.380686	-1.003383
C58	C	0.991901	0.380662	-1.086712
C59	C	0.991844	0.380751	-0.766340
C60	C	0.991752	0.380844	-0.234975
C61	C	0.991913	0.380645	-0.153139
H62	H	0.963241	1.079161	-0.454826
H63	H	1.138462	0.805523	-0.279698
C64	C	0.912113	1.053824	-0.505798
C65	C	0.922455	1.099200	-0.585066
C66	C	0.905304	1.190010	-0.602146
C67	C	0.877812	1.235443	-0.539957
C68	C	0.867469	1.190066	-0.460683
C69	C	0.884620	1.099257	-0.443604
H70	H	0.942807	1.065568	-0.631107
H71	H	0.912961	1.223600	-0.660829
H72	H	0.865116	1.302665	-0.552600
H73	H	0.847117	1.223698	-0.414643
H74	H	0.876963	1.065666	-0.384921
H75	H	0.845239	0.955362	-0.572598
H76	H	0.439703	0.289036	-0.323663
H77	H	1.094591	0.288978	-0.979014
H78	H	0.889176	0.472392	-1.013470
H79	H	1.162278	0.929345	-0.255982
H80	H	0.821426	0.831546	-0.596312
H81	H	0.579146	0.289026	-0.323666
C82	C	0.872967	0.486882	-0.865762
C83	C	0.810703	0.542477	-0.918467
C84	C	0.748423	0.598089	-0.886635
C85	C	0.748405	0.598105	-0.802098
C86	C	0.810670	0.542508	-0.749388
C87	C	0.872951	0.486896	-0.781220
H88	H	0.810715	0.542466	-0.981051
H89	H	0.702330	0.639246	-0.925655
H90	H	0.702301	0.639273	-0.778534
H91	H	0.810659	0.542518	-0.686804
H92	H	0.919044	0.445739	-0.742200
H93	H	0.849587	0.681779	-0.568105
C94	C	0.391400	0.487158	-0.544863
C95	C	0.423185	0.542830	-0.607015
C96	C	0.370427	0.598517	-0.669176
C97	C	0.285884	0.598533	-0.669185
C98	C	0.254094	0.542859	-0.607030
C99	C	0.306852	0.487172	-0.544869
H100	H	0.485773	0.542820	-0.607010
H101	H	0.393960	0.639731	-0.715186
H102	H	0.246830	0.639757	-0.715200
H103	H	0.191507	0.542869	-0.607035
H104	H	0.283319	0.445958	-0.498859
C105	C	1.036137	0.669928	-0.381806
C106	C	1.014935	0.613239	-0.313330
C107	C	1.075273	0.567821	-0.253050
C108	C	1.156812	0.579092	-0.261245
C109	C	1.178019	0.635784	-0.329723
C110	C	1.117681	0.681202	-0.390004
H111	H	0.954571	0.604894	-0.307261
H112	H	1.059574	0.525855	-0.202358
H113	H	1.201478	0.545471	-0.216622
H114	H	1.238383	0.644129	-0.335793
H115	H	1.133380	0.723168	-0.440696
H116	H	0.544540	0.472678	-0.528709
H117	H	1.094569	0.289018	-0.839594
C118	C	1.145349	1.090918	-0.272953
C119	C	1.205680	1.045508	-0.212669
C120	C	1.248938	1.090904	-0.169482
C121	C	1.231866	1.181709	-0.186579
C122	C	1.171533	1.227124	-0.246866
C123	C	1.128274	1.181728	-0.290053
H124	H	1.218320	0.978284	-0.200010
H125	H	1.293602	1.057285	-0.124853
H126	H	1.263889	1.215314	-0.154609
H127	H	1.158892	1.294348	-0.259525
H128	H	1.083610	1.215348	-0.334681
H129	H	1.067101	0.730664	-0.350920
