data_functionalizedCrystal
_audit_creation_method	'MofGen! by Chris Wilmer'
_symmetry_space_group_name_H-M	'P1'
_symmetry_Int_Tables_number	1
_symmetry_cell_setting	triclinic
loop_
_symmetry_equiv_pos_as_xyz
  x,y,z
_cell_length_a	17.077404
_cell_length_b	25.639239
_cell_length_c	17.077396
_cell_angle_alpha	89.968926
_cell_angle_beta	89.980499
_cell_angle_gamma	90.038911
loop_
_atom_site_label
_atom_site_type_symbol
_atom_site_fract_x
_atom_site_fract_y
_atom_site_fract_z
Zn1	Zn	1.199968	-0.208148	-0.443829
Zn2	Zn	1.533302	0.125186	-0.110495
Zn3	Zn	1.866635	0.458519	0.222838
Zn4	Zn	1.199839	-0.295585	-0.312557
Zn5	Zn	1.533173	0.037748	0.020777
Zn6	Zn	1.866506	0.371081	0.354110
Zn7	Zn	1.068700	-0.208166	-0.312576
Zn8	Zn	1.402034	0.125167	0.020757
Zn9	Zn	1.735367	0.458501	0.354090
Zn10	Zn	1.068632	-0.295554	-0.443780
Zn11	Zn	1.401965	0.037779	-0.110447
Zn12	Zn	1.735299	0.371112	0.222886
O13	O	1.134285	-0.251863	-0.378185
O14	O	1.467618	0.081470	-0.044852
O15	O	1.800952	0.414803	0.288481
O16	O	1.309798	-0.219752	-0.426427
O17	O	1.643132	0.113582	-0.093094
O18	O	1.976465	0.446915	0.240240
O19	O	1.182418	-0.284010	-0.202712
O20	O	1.515751	0.049324	0.130621
O21	O	1.849085	0.382657	0.463954
O22	O	1.086196	-0.134998	-0.330016
O23	O	1.419529	0.198335	0.003317
O24	O	1.752863	0.531668	0.336651
O25	O	1.309703	-0.283992	-0.329982
O26	O	1.643037	0.049342	0.003351
O27	O	1.976370	0.382675	0.336685
O28	O	1.182638	-0.134985	-0.426446
O29	O	1.515971	0.198348	-0.093113
O30	O	1.849305	0.531682	0.240220
O31	O	1.086071	-0.219783	-0.202727
O32	O	1.419404	0.113550	0.130606
O33	O	1.752737	0.446884	0.463940
O34	O	0.958844	-0.219753	-0.329969
O35	O	1.292178	0.113580	0.003364
O36	O	1.625511	0.446914	0.336698
O37	O	1.086080	-0.283939	-0.553634
O38	O	1.419413	0.049394	-0.220300
O39	O	1.752746	0.382728	0.113033
O40	O	0.958794	-0.283957	-0.426364
O41	O	1.292128	0.049377	-0.093030
O42	O	1.625461	0.382710	0.240303
O43	O	1.182572	-0.219722	-0.553669
O44	O	1.515905	0.113612	-0.220336
O45	O	1.849239	0.446945	0.112998
O46	O	1.182352	-0.368746	-0.329935
O47	O	1.515685	-0.035413	0.003398
O48	O	1.849018	0.297920	0.336732
O49	O	1.085954	-0.368724	-0.426345
O50	O	1.419288	-0.035390	-0.093011
O51	O	1.752621	0.297943	0.240322
C52	C	0.930337	-0.251854	-0.378164
C53	C	1.263670	0.081480	-0.044830
C54	C	1.597004	0.414813	0.288503
C55	C	0.843087	-0.251862	-0.378173
C56	C	1.176421	0.081471	-0.044840
C57	C	1.509754	0.414804	0.288494
C58	C	0.802092	-0.285344	-0.428285
C59	C	1.135425	0.047990	-0.094952
C60	C	1.468758	0.381323	0.238381
C61	C	0.720111	-0.285345	-0.428298
C62	C	1.053445	0.047989	-0.094965
C63	C	1.386778	0.381322	0.238369
C64	C	0.679128	-0.251867	-0.378194
C65	C	1.012461	0.081466	-0.044860
C66	C	1.345795	0.414800	0.288473
C67	C	0.720129	-0.218382	-0.328079
C68	C	1.053463	0.114951	0.005254
C69	C	1.386796	0.448285	0.338587
C70	C	0.802108	-0.218378	-0.328071
C71	C	1.135442	0.114955	0.005262
C72	C	1.468775	0.448288	0.338595
C73	C	0.549259	-0.218392	-0.328098
C74	C	0.882593	0.114941	0.005235
C75	C	1.215926	0.448275	0.338569
C76	C	0.467275	-0.218396	-0.328105
C77	C	0.800608	0.114937	0.005228
C78	C	1.133941	0.448271	0.338562
C79	C	0.467262	-0.285358	-0.428325
C80	C	0.800596	0.047975	-0.094991
C81	C	1.133929	0.381308	0.238342
C82	C	0.549241	-0.285355	-0.428317
C83	C	0.882574	0.047978	-0.094983
C84	C	1.215908	0.381312	0.238350
C85	C	0.590237	-0.251871	-0.378201
C86	C	0.923570	0.081463	-0.044868
C87	C	1.256904	0.414796	0.288466
C88	C	1.134153	-0.387706	-0.378150
C89	C	1.467486	-0.054373	-0.044816
C90	C	1.800820	0.278961	0.288517
C91	C	1.134168	-0.445820	-0.378160
C92	C	1.467502	-0.112487	-0.044827
C93	C	1.800835	0.220847	0.288506
C94	C	1.184610	-0.806182	-0.328071
C95	C	1.517943	-0.472849	0.005263
C96	C	1.851277	-0.139516	0.338596
C97	C	1.184641	-0.860787	-0.328081
C98	C	1.517974	-0.527453	0.005252
C99	C	1.851307	-0.194120	0.338586
O100	O	1.227391	-0.889023	-0.285454
O101	O	1.560724	-0.555689	0.047880
O102	O	1.894058	-0.222356	0.381213
N103	N	1.134423	-0.888102	-0.378237
N104	N	1.467756	-0.554769	-0.044904
N105	N	1.801090	-0.221436	0.288429
C106	C	1.084177	-0.860811	-0.428392
C107	C	1.417511	-0.527478	-0.095059
C108	C	1.750844	-0.194144	0.238274
O109	O	1.041467	-0.889059	-0.471056
O110	O	1.374800	-0.555726	-0.137722
O111	O	1.708133	-0.222392	0.195611
C112	C	1.084151	-0.806208	-0.428385
C113	C	1.417485	-0.472874	-0.095052
C114	C	1.750818	-0.139541	0.238282
C115	C	1.134367	-0.778895	-0.378220
C116	C	1.467700	-0.445561	-0.044886
C117	C	1.801033	-0.112228	0.288447
C118	C	1.234822	-0.778869	-0.277910
C119	C	1.568155	-0.445536	0.055423
C120	C	1.901489	-0.112203	0.388757
C121	C	1.234790	-0.724269	-0.277899
C122	C	1.568124	-0.390935	0.055435
C123	C	1.901457	-0.057602	0.388768
C124	C	1.184547	-0.696981	-0.328048
C125	C	1.517880	-0.363648	0.005285
C126	C	1.851213	-0.030314	0.338619
C127	C	1.134335	-0.724294	-0.378209
C128	C	1.467668	-0.390961	-0.044875
C129	C	1.801002	-0.057628	0.288458
C130	C	1.033910	-0.778917	-0.478543
C131	C	1.367244	-0.445584	-0.145210
C132	C	1.700577	-0.112251	0.188123
C133	C	1.033889	-0.724310	-0.478532
C134	C	1.367223	-0.390977	-0.145199
C135	C	1.700556	-0.057644	0.188134
C136	C	1.084104	-0.696997	-0.428367
C137	C	1.417438	-0.363664	-0.095034
C138	C	1.750771	-0.030331	0.238300
C139	C	1.084060	-0.642406	-0.428346
C140	C	1.417393	-0.309073	-0.095013
C141	C	1.750727	0.024261	0.238320
N142	N	1.134278	-0.615090	-0.378190
N143	N	1.467611	-0.281757	-0.044857
N144	N	1.800944	0.051576	0.288477
C145	C	1.184521	-0.642378	-0.328041
C146	C	1.517854	-0.309045	0.005293
C147	C	1.851188	0.024289	0.338626
C148	C	1.084236	-0.975482	-0.428404
C149	C	1.417570	-0.642148	-0.095071
C150	C	1.750903	-0.308815	0.238262
C151	C	1.084258	-1.030084	-0.428408
C152	C	1.417591	-0.696751	-0.095075
C153	C	1.750924	-0.363417	0.238259
C154	C	1.184722	-1.030056	-0.328098
C155	C	1.518056	-0.696722	0.005236
C156	C	1.851389	-0.363389	0.338569
C157	C	1.184696	-0.975452	-0.328091
C158	C	1.518030	-0.642119	0.005243
C159	C	1.851363	-0.308786	0.338576
C160	C	1.134454	-0.948166	-0.378248
C161	C	1.467787	-0.614832	-0.044915
C162	C	1.801121	-0.281499	0.288419
C163	C	1.184450	-0.527713	-0.328020
C164	C	1.517784	-0.194379	0.005313
C165	C	1.851117	0.138954	0.338646
C166	C	1.184412	-0.473107	-0.328011
C167	C	1.517745	-0.139774	0.005322
C168	C	1.851078	0.193559	0.338656
C169	C	1.083951	-0.473140	-0.428324
C170	C	1.417284	-0.139807	-0.094991
C171	C	1.750617	0.193526	0.238343
C172	C	1.083986	-0.527741	-0.428331
C173	C	1.417319	-0.194408	-0.094997
C174	C	1.750652	0.138926	0.238336
C175	C	1.134242	-0.555026	-0.378176
C176	C	1.467575	-0.221693	-0.044843
C177	C	1.800909	0.111641	0.288491
O178	O	1.041334	-0.614135	-0.470954
O179	O	1.374667	-0.280802	-0.137621
O180	O	1.708000	0.052531	0.195712
O181	O	1.227232	-0.614123	-0.285392
O182	O	1.560565	-0.280790	0.047941
O183	O	1.893898	0.052544	0.381275
C184	C	1.339029	-0.251873	-0.378208
C185	C	1.672363	0.081460	-0.044874
C186	C	2.005696	0.414793	0.288459
C187	C	1.426279	-0.251877	-0.378217
C188	C	1.759612	0.081456	-0.044884
C189	C	2.092946	0.414789	0.288450
C190	C	1.134333	-0.251825	-0.582930
C191	C	1.467666	0.081509	-0.249596
C192	C	1.800999	0.414842	0.083737
C193	C	1.134353	-0.251808	-0.670180
C194	C	1.467686	0.081525	-0.336846
C195	C	1.801019	0.414858	-0.003513
C196	C	1.134439	-0.115490	-0.378239
C197	C	1.467772	0.217843	-0.044905
C198	C	1.801106	0.551176	0.288428
C199	C	1.134505	-0.057376	-0.378261
C200	C	1.467838	0.275957	-0.044928
C201	C	1.801171	0.609290	0.288405
C202	C	1.184598	-0.218368	-0.711190
C203	C	1.517931	0.114966	-0.377856
C204	C	1.851265	0.448299	-0.044523
C205	C	1.184608	-0.218350	-0.793170
C206	C	1.517941	0.114983	-0.459837
C207	C	1.851274	0.448316	-0.126503
C208	C	1.134375	-0.251777	-0.834139
C209	C	1.467708	0.081557	-0.500806
C210	C	1.801042	0.414890	-0.167473
C211	C	1.084124	-0.285219	-0.793123
C212	C	1.417457	0.048115	-0.459790
C213	C	1.750791	0.381448	-0.126457
C214	C	1.084111	-0.285233	-0.711144
C215	C	1.417445	0.048100	-0.377811
C216	C	1.750778	0.381434	-0.044478
C217	C	1.084156	-0.285187	-0.963994
C218	C	1.417489	0.048146	-0.630660
C219	C	1.750822	0.381479	-0.297327
C220	C	1.084169	-0.285174	-1.045978
C221	C	1.417503	0.048160	-0.712645
C222	C	1.750836	0.381493	-0.379312
C223	C	1.184652	-0.218304	-1.046019
C224	C	1.517985	0.115029	-0.712686
C225	C	1.851319	0.448362	-0.379353
C226	C	1.184639	-0.218319	-0.964040
C227	C	1.517973	0.115015	-0.630707
C228	C	1.851306	0.448348	-0.297374
C229	C	1.134389	-0.251762	-0.923030
C230	C	1.467722	0.081572	-0.589697
C231	C	1.801056	0.414905	-0.256364
C232	C	1.134283	-0.251864	-0.174238
C233	C	1.467616	0.081469	0.159096
C234	C	1.800950	0.414803	0.492429
C235	C	1.134415	-0.251733	-0.086988
C236	C	1.467748	0.081600	0.246345
C237	C	1.801081	0.414934	0.579678
H238	H	0.582607	-0.312619	-0.469112
H239	H	0.915941	0.020715	-0.135778
H240	H	1.249274	0.354048	0.197555
H241	H	1.275682	-0.702034	-0.237052
H242	H	1.609015	-0.368700	0.096281
H243	H	1.942349	-0.035367	0.429614
H244	H	1.043040	-0.450914	-0.469153
H245	H	1.376374	-0.117581	-0.135819
H246	H	1.709707	0.215752	0.197514
H247	H	1.043099	-0.549980	-0.469182
H248	H	1.376432	-0.216647	-0.135848
H249	H	1.709766	0.116686	0.197485
H250	H	0.992977	-0.702096	-0.519379
H251	H	1.326310	-0.368763	-0.186046
H252	H	1.659643	-0.035430	0.147288
H253	H	0.993016	-0.801146	-0.519390
H254	H	1.326349	-0.467813	-0.186056
H255	H	1.659683	-0.134480	0.147277
H256	H	0.835454	-0.312607	-0.469084
H257	H	1.168788	0.020726	-0.135750
H258	H	1.502121	0.354060	0.197583
H259	H	1.043360	-1.052318	-0.469250
H260	H	1.376693	-0.718984	-0.135917
H261	H	1.710027	-0.385651	0.197416
H262	H	0.582636	-0.191121	-0.287296
H263	H	0.915969	0.142212	0.046038
H264	H	1.249302	0.475546	0.379371
H265	H	1.225506	-0.191150	-0.677838
H266	H	1.558839	0.142184	-0.344505
H267	H	1.892172	0.475517	-0.011172
H268	H	1.043225	-0.312412	-0.930606
H269	H	1.376558	0.020921	-0.597272
H270	H	1.709891	0.354255	-0.263939
H271	H	0.433879	-0.312621	-0.469133
H272	H	0.767213	0.020712	-0.135800
H273	H	1.100546	0.354045	0.197534
H274	H	1.225547	-0.191103	-0.930685
H275	H	1.558881	0.142230	-0.597352
H276	H	1.892214	0.475564	-0.264019
H277	H	0.433908	-0.191129	-0.287315
H278	H	0.767242	0.142204	0.046018
H279	H	1.100575	0.475538	0.379352
H280	H	1.225524	-0.191121	-0.826557
H281	H	1.558858	0.142213	-0.493223
H282	H	1.892191	0.475546	-0.159890
H283	H	1.225566	-0.191073	-1.079414
H284	H	1.558900	0.142260	-0.746080
H285	H	1.892233	0.475594	-0.412747
H286	H	1.043221	-0.312433	-0.826487
H287	H	1.376554	0.020900	-0.493154
H288	H	1.709888	0.354234	-0.159820
H289	H	1.043264	-0.312391	-1.079333
H290	H	1.376597	0.020942	-0.746000
H291	H	1.709931	0.354275	-0.412666
H292	H	1.043188	-0.312459	-0.677755
H293	H	1.376522	0.020875	-0.344422
H294	H	1.709855	0.354208	-0.011089
H295	H	1.043317	-0.953267	-0.469246
H296	H	1.376650	-0.619934	-0.135913
H297	H	1.709983	-0.286601	0.197421
H298	H	0.686754	-0.191121	-0.287287
H299	H	1.020088	0.142212	0.046046
H300	H	1.353421	0.475545	0.379380
H301	H	0.686736	-0.312609	-0.469104
H302	H	1.020069	0.020724	-0.135770
H303	H	1.353403	0.354057	0.197563
H304	H	1.225303	-0.450871	-0.287158
H305	H	1.558636	-0.117538	0.046175
H306	H	1.891970	0.215796	0.379509
H307	H	0.835486	-0.191112	-0.287269
H308	H	1.168819	0.142222	0.046065
H309	H	1.502153	0.475555	0.379398
H310	H	1.225375	-0.549922	-0.287182
H311	H	1.558709	-0.216588	0.046152
H312	H	1.892042	0.116745	0.379485
H313	H	1.225586	-0.953217	-0.287242
H314	H	1.558920	-0.619884	0.046091
H315	H	1.892253	-0.286551	0.379424
H316	H	1.225636	-1.052283	-0.287266
H317	H	1.558969	-0.718950	0.046067
H318	H	1.892303	-0.385616	0.379401
H319	H	1.275740	-0.801081	-0.237072
H320	H	1.609074	-0.467748	0.096261
H321	H	1.942407	-0.134414	0.429594
