data_functionalizedCrystal
_audit_creation_method	'MofGen! by Chris Wilmer'
_symmetry_space_group_name_H-M	'P1'
_symmetry_Int_Tables_number	1
_symmetry_cell_setting	triclinic
loop_
_symmetry_equiv_pos_as_xyz
  x,y,z
_cell_length_a	12.827893
_cell_length_b	12.827892
_cell_length_c	11.169409
_cell_angle_alpha	89.966914
_cell_angle_beta	89.978812
_cell_angle_gamma	90.015362
loop_
_atom_site_label
_atom_site_type_symbol
_atom_site_fract_x
_atom_site_fract_y
_atom_site_fract_z
Zn1	Zn	1.597689	-0.415949	-0.678580
Zn2	Zn	2.097689	0.084051	-0.178580
Zn3	Zn	1.597578	-0.590737	-0.477894
Zn4	Zn	2.097578	-0.090737	0.022106
Zn5	Zn	1.422925	-0.416010	-0.477910
Zn6	Zn	1.922925	0.083990	0.022090
Zn7	Zn	1.422916	-0.590649	-0.678535
Zn8	Zn	1.922916	-0.090649	-0.178535
O9	O	1.510277	-0.503336	-0.578230
O10	O	2.010277	-0.003336	-0.078230
O11	O	1.743911	-0.439146	-0.651971
O12	O	2.243911	0.060854	-0.151971
O13	O	1.574367	-0.567621	-0.309947
O14	O	2.074367	-0.067621	0.190053
O15	O	1.446158	-0.269766	-0.504555
O16	O	1.946158	0.230234	-0.004555
O17	O	1.743828	-0.567562	-0.504529
O18	O	2.243828	-0.067562	-0.004529
O19	O	1.574557	-0.269721	-0.651986
O20	O	2.074557	0.230279	-0.151986
O21	O	1.446050	-0.439250	-0.309958
O22	O	1.946050	0.060750	0.190042
O23	O	1.276688	-0.439165	-0.504510
O24	O	1.776688	0.060835	-0.004510
O25	O	1.446143	-0.567412	-0.846490
O26	O	1.946143	-0.067412	-0.346490
O27	O	1.276681	-0.567471	-0.651909
O28	O	1.776681	-0.067471	-0.151909
O29	O	1.574548	-0.439061	-0.846524
O30	O	2.074548	0.060939	-0.346524
O31	O	1.574358	-0.736961	-0.504484
O32	O	2.074358	-0.236961	-0.004484
O33	O	1.446035	-0.736897	-0.651894
O34	O	1.946035	-0.236897	-0.151894
C35	C	1.238767	-0.503316	-0.578207
C36	C	1.738767	-0.003316	-0.078207
C37	C	1.122614	-0.503333	-0.578226
C38	C	1.622614	-0.003333	-0.078226
C39	C	1.070854	-0.566922	-0.651050
C40	C	1.570854	-0.066922	-0.151050
C41	C	0.950803	-0.566940	-0.651071
C42	C	1.450803	-0.066940	-0.151071
C43	C	1.510212	-0.774846	-0.578209
C44	C	2.010212	-0.274846	-0.078209
C45	C	1.510279	-0.890999	-0.578240
C46	C	2.010279	-0.390999	-0.078240
C47	C	1.573853	-0.942781	-0.505378
C48	C	2.073853	-0.442781	-0.005378
C49	C	1.573924	-1.062832	-0.505408
C50	C	2.073924	-0.562832	-0.005408
C51	C	1.782847	-0.503357	-0.578253
C52	C	2.282847	-0.003357	-0.078253
C53	C	1.899000	-0.503366	-0.578263
C54	C	2.399000	-0.003366	-0.078263
C55	C	1.510357	-0.503220	-0.891272
C56	C	2.010357	-0.003220	-0.391272
C57	C	1.510391	-0.503171	-1.024672
C58	C	2.010391	-0.003171	-0.524672
C59	C	1.510371	-0.230766	-0.578277
C60	C	2.010371	0.269234	-0.078277
C61	C	1.510411	-0.114613	-0.578297
C62	C	2.010411	0.385387	-0.078297
C63	C	1.510257	-0.503376	-0.266405
C64	C	2.010257	-0.003376	0.233595
C65	C	1.510425	-0.503131	-0.133006
C66	C	2.010425	-0.003131	0.366994
H67	H	0.943506	-0.448926	-0.515908
H68	H	1.443506	0.051074	-0.015908
H69	H	1.628233	-0.898240	-0.442979
H70	H	2.128233	-0.398240	0.057021
Cl71	Cl	1.139646	-0.650963	-0.747287
Cl72	Cl	1.639646	-0.150963	-0.247287
H73	H	1.078051	-0.448901	-0.515898
H74	H	1.578051	0.051099	-0.015898
H75	H	1.628349	-1.107363	-0.443025
H76	H	2.128349	-0.607363	0.056975
H77	H	1.455976	-1.070089	-0.640676
H78	H	1.955976	-0.570089	-0.140676
H79	H	1.455909	-0.935543	-0.640646
H80	H	1.955909	-0.435543	-0.140646
H81	H	0.906290	-0.621384	-0.713416
H82	H	1.406290	-0.121384	-0.213416
