data_functionalizedCrystal
_audit_creation_method	'MofGen! by Chris Wilmer'
_symmetry_space_group_name_H-M	'P1'
_symmetry_Int_Tables_number	1
_symmetry_cell_setting	triclinic
loop_
_symmetry_equiv_pos_as_xyz
  x,y,z
_cell_length_a	12.759401
_cell_length_b	16.120484
_cell_length_c	12.759393
_cell_angle_alpha	87.137118
_cell_angle_beta	90.018496
_cell_angle_gamma	92.925560
loop_
_atom_site_label
_atom_site_type_symbol
_atom_site_fract_x
_atom_site_fract_y
_atom_site_fract_z
Zn1	Zn	1.584972	-0.331853	0.615146
Zn2	Zn	1.575923	-0.471291	0.448359
Zn3	Zn	1.409271	-0.331897	0.439488
Zn4	Zn	1.400324	-0.471227	0.623996
O5	O	1.492622	-0.401567	0.531747
O6	O	1.730792	-0.350358	0.593030
O7	O	1.553774	-0.452845	0.300164
O8	O	1.440109	-0.215226	0.455373
O9	O	1.724144	-0.452803	0.470492
O10	O	1.569196	-0.215194	0.584428
O11	O	1.431335	-0.350433	0.293646
O12	O	1.261064	-0.350370	0.463955
O13	O	1.424860	-0.452693	0.769840
O14	O	1.254490	-0.452736	0.599512
O15	O	1.560520	-0.350296	0.763338
O16	O	1.545098	-0.587947	0.479074
O17	O	1.416086	-0.587900	0.608114
C18	C	1.219656	-0.401551	0.531732
C19	C	1.102879	-0.401565	0.531752
C20	C	1.478668	-0.618174	0.545540
C21	C	1.472794	-0.710839	0.551475
C22	C	1.044616	-0.454952	0.602231
C23	C	0.934891	-0.454962	0.602243
C24	C	0.941702	-0.348197	0.461287
C25	C	1.051425	-0.348183	0.461281
C26	C	1.040682	-0.516595	0.683607
C27	C	0.930958	-0.516605	0.683619
C28	C	1.462076	-0.880500	0.562334
C29	C	1.523357	-0.921793	0.501178
C30	C	1.517393	-1.016198	0.507219
C31	C	1.468038	-0.786086	0.556293
C32	C	1.766655	-0.401583	0.531763
C33	C	1.883431	-0.401590	0.531770
C34	C	1.492701	-0.401483	0.805775
C35	C	1.492735	-0.401447	0.922550
C36	C	1.506660	-0.184114	0.517924
C37	C	1.512642	-0.091448	0.512033
C38	C	1.492608	-0.401590	0.258781
C39	C	1.492793	-0.401391	0.141992
C40	C	1.563383	-0.348123	0.974027
C41	C	1.563410	-0.348093	1.083750
C42	C	1.422138	-0.454717	1.090507
C43	C	1.422106	-0.454742	0.980787
C44	C	1.644948	-0.286568	0.970127
C45	C	1.644975	-0.286538	1.079849
H46	H	1.098859	-0.304705	0.403897
C47	C	1.344456	-0.513344	1.154574
C48	C	1.385776	-0.578781	1.234162
C49	C	1.308095	-0.637410	1.298228
C50	C	1.189094	-0.630602	1.282705
C51	C	1.147769	-0.565162	1.203113
C52	C	1.225450	-0.506533	1.139047
H53	H	1.473873	-0.583823	1.245657
H54	H	1.338688	-0.685853	1.357147
H55	H	1.131590	-0.674002	1.330130
H56	H	1.059672	-0.560119	1.191619
H57	H	1.194857	-0.458090	1.080128
C58	C	1.081334	-0.599409	0.649339
C59	C	1.003120	-0.670385	0.619980
C60	C	1.043773	-0.753199	0.585711
C61	C	1.162639	-0.765036	0.580802
C62	C	1.240860	-0.694058	0.610162
C63	C	1.200207	-0.611244	0.644431
H64	H	0.915122	-0.661624	0.623614
H65	H	0.985868	-0.805741	0.563977
H66	H	1.192732	-0.826340	0.555434
H67	H	1.328858	-0.702819	0.606528
H68	H	1.258112	-0.558701	0.666165
H69	H	1.627321	-0.222003	0.936253
C70	C	1.600273	-0.873776	0.424302
C71	C	1.606197	-0.778006	0.418280
C72	C	1.683104	-0.729985	0.341402
C73	C	1.754087	-0.777735	0.270546
C74	C	1.748165	-0.873511	0.276565
C75	C	1.671258	-0.921532	0.353443
H76	H	1.553649	-0.742653	0.470735
H77	H	1.687487	-0.659085	0.336947
H78	H	1.811018	-0.742187	0.213636
H79	H	1.800713	-0.908863	0.224111
H80	H	1.666875	-0.992432	0.357899
C81	C	0.885099	-0.603805	0.659543
C82	C	0.814918	-0.615384	0.562619
C83	C	0.769058	-0.702578	0.538543
C84	C	0.793379	-0.778194	0.611391
C85	C	0.863563	-0.766618	0.708322
C86	C	0.909423	-0.679423	0.732398
H87	H	0.796911	-0.559406	0.508687
H88	H	0.717103	-0.711148	0.466788
H89	H	0.759431	-0.842741	0.593569
H90	H	0.881570	-0.822595	0.762254
H91	H	0.961378	-0.670854	0.804152
H92	H	1.405137	-0.916046	0.619223
H93	H	1.720736	-0.309714	0.937567
H94	H	1.364575	-0.498160	0.938878
C95	C	1.610982	-0.203661	1.120572
C96	C	1.581823	-0.132675	1.042424
C97	C	1.547829	-0.049801	1.083149
C98	C	1.542993	-0.037913	1.202023
C99	C	1.572152	-0.108901	1.280179
C100	C	1.606146	-0.191775	1.239453
H101	H	1.585402	-0.141473	0.954420
H102	H	1.526243	0.002749	1.025292
H103	H	1.517828	0.023435	1.232170
H104	H	1.568573	-0.100103	1.368183
H105	H	1.627732	-0.244324	1.297310
C106	C	0.885098	-0.289483	0.383770
C107	C	0.813889	-0.224082	0.425276
C108	C	0.757287	-0.165367	0.347757
C109	C	0.771894	-0.172053	0.228730
C110	C	0.843106	-0.237456	0.187218
C111	C	0.899708	-0.296171	0.264738
H112	H	0.803073	-0.219130	0.513392
H113	H	0.704571	-0.116951	0.378487
H114	H	0.729994	-0.128588	0.171346
H115	H	0.853922	-0.242407	0.099102
H116	H	0.952424	-0.344587	0.234007
H117	H	1.725237	-0.303830	1.110730
H118	H	1.071595	-0.499376	0.763915
H119	H	0.898438	-0.493558	0.759501
