data_functionalizedCrystal
_audit_creation_method	'MofGen! by Chris Wilmer'
_symmetry_space_group_name_H-M	'P1'
_symmetry_Int_Tables_number	1
_symmetry_cell_setting	triclinic
loop_
_symmetry_equiv_pos_as_xyz
  x,y,z
_cell_length_a	12.645331
_cell_length_b	18.050590
_cell_length_c	12.645323
_cell_angle_alpha	90.030576
_cell_angle_beta	90.022676
_cell_angle_gamma	90.017531
loop_
_atom_site_label
_atom_site_type_symbol
_atom_site_fract_x
_atom_site_fract_y
_atom_site_fract_z
Zn1	Zn	1.620725	-0.295674	0.599404
Zn2	Zn	1.954058	0.037660	0.932738
Zn3	Zn	2.287392	0.370993	1.266071
Zn4	Zn	1.620604	-0.419873	0.422127
Zn5	Zn	1.953937	-0.086539	0.755460
Zn6	Zn	2.287271	0.246794	1.088793
Zn7	Zn	1.443439	-0.295699	0.422149
Zn8	Zn	1.776773	0.037634	0.755482
Zn9	Zn	2.110106	0.370968	1.088815
Zn10	Zn	1.443419	-0.419824	0.599342
Zn11	Zn	1.776752	-0.086491	0.932675
Zn12	Zn	2.110085	0.246842	1.266009
O13	O	1.532047	-0.357767	0.510755
O14	O	1.865380	-0.024434	0.844089
O15	O	2.198713	0.308899	1.177422
O16	O	1.769056	-0.312159	0.575905
O17	O	2.102389	0.021174	0.909238
O18	O	2.435723	0.354508	1.242571
O19	O	1.597061	-0.403432	0.273782
O20	O	1.930394	-0.070098	0.607116
O21	O	2.263727	0.263235	0.940449
O22	O	1.467016	-0.191771	0.445697
O23	O	1.800350	0.141562	0.779030
O24	O	2.133683	0.474896	1.112364
O25	O	1.768967	-0.403407	0.445660
O26	O	2.102301	-0.070074	0.778993
O27	O	2.435634	0.263259	1.112326
O28	O	1.597267	-0.191753	0.575926
O29	O	1.930600	0.141581	0.909259
O30	O	2.263934	0.474914	1.242593
O31	O	1.466899	-0.312202	0.273798
O32	O	1.800232	0.021132	0.607132
O33	O	2.133566	0.354465	0.940465
O34	O	1.295089	-0.312155	0.445637
O35	O	1.628423	0.021179	0.778970
O36	O	1.961756	0.354512	1.112304
O37	O	1.466981	-0.403325	0.747698
O38	O	1.800314	-0.069991	1.081031
O39	O	2.133647	0.263342	1.414364
O40	O	1.295074	-0.403349	0.575820
O41	O	1.628407	-0.070016	0.909153
O42	O	1.961741	0.263318	1.242487
O43	O	1.597247	-0.312112	0.747743
O44	O	1.930580	0.021222	1.081077
O45	O	2.263913	0.354555	1.414410
O46	O	1.597040	-0.523791	0.445599
O47	O	1.930374	-0.190458	0.778933
O48	O	2.263707	0.142876	1.112266
O49	O	1.466863	-0.523755	0.575799
O50	O	1.800197	-0.190422	0.909132
O51	O	2.133530	0.142911	1.242466
C52	C	1.256617	-0.357750	0.510725
C53	C	1.589950	-0.024416	0.844058
C54	C	1.923284	0.308917	1.177391
C55	C	1.138787	-0.357760	0.510737
C56	C	1.472120	-0.024427	0.844070
C57	C	1.805454	0.308907	1.177403
C58	C	1.531965	-0.550720	0.510713
C59	C	1.865299	-0.217386	0.844046
C60	C	2.198632	0.115947	1.177380
C61	C	1.532027	-0.633265	0.510731
C62	C	1.865361	-0.299932	0.844064
C63	C	2.198694	0.033401	1.177397
C64	C	0.971197	-0.300126	0.429290
C65	C	1.304531	0.033207	0.762624
C66	C	1.637864	0.366541	1.095957
C67	C	1.093757	-0.300275	0.428931
C68	C	1.427090	0.033058	0.762265
C69	C	1.760424	0.366392	1.095598
C70	C	1.094265	-0.435993	0.480211
C71	C	1.427598	-0.102660	0.813544
C72	C	1.760932	0.230673	1.146877
C73	C	0.971667	-0.435678	0.479655
C74	C	1.305000	-0.102345	0.812988
C75	C	1.638333	0.230988	1.146322
C76	C	0.971638	-0.337906	0.623024
C77	C	1.304971	-0.004573	0.956357
C78	C	1.638305	0.328761	1.289690
C79	C	1.094244	-0.336158	0.622400
C80	C	1.427577	-0.002825	0.955734
C81	C	1.760910	0.330509	1.289067
C82	C	1.602965	-0.832708	0.440027
C83	C	1.936298	-0.499375	0.773360
C84	C	2.269632	-0.166042	1.106694
C85	C	1.628865	-0.882039	0.536780
C86	C	1.962199	-0.548705	0.870113
C87	C	2.295532	-0.215372	1.203447
C88	C	1.532088	-0.784396	0.510773
C89	C	1.865421	-0.451062	0.844106
C90	C	2.198754	-0.117729	1.177439
C91	C	1.506295	-0.882147	0.414063
C92	C	1.839628	-0.548814	0.747397
C93	C	2.172962	-0.215480	1.080730
C94	C	1.532148	-0.930381	0.510805
C95	C	1.865481	-0.597047	0.844138
C96	C	2.198814	-0.263714	1.177472
C97	C	1.558037	-0.832639	0.607577
C98	C	1.891371	-0.499305	0.940910
C99	C	2.224704	-0.165972	1.274243
C100	C	1.435422	-0.832743	0.484795
C101	C	1.768756	-0.499409	0.818128
C102	C	2.102089	-0.166076	1.151461
C103	C	1.461286	-0.882051	0.581614
C104	C	1.794619	-0.548717	0.914948
C105	C	2.127952	-0.215384	1.248281
C106	C	1.532056	-0.700297	0.510753
C107	C	1.865389	-0.366964	0.844086
C108	C	2.198722	-0.033631	1.177419
C109	C	1.532179	-1.014477	0.510836
C110	C	1.865513	-0.681144	0.844169
C111	C	2.198846	-0.347811	1.177503
C112	C	1.808552	-0.357786	0.510787
C113	C	2.141885	-0.024452	0.844120
C114	C	2.475219	0.308881	1.177453
C115	C	1.926382	-0.357793	0.510800
C116	C	2.259715	-0.024460	0.844133
C117	C	2.593049	0.308873	1.177467
C118	C	1.532125	-0.357710	0.787261
C119	C	1.865458	-0.024377	1.120594
C120	C	2.198791	0.308957	1.453928
C121	C	1.532158	-0.357686	0.905091
C122	C	1.865491	-0.024352	1.238424
C123	C	2.198825	0.308981	1.571758
C124	C	1.532157	-0.164062	0.510821
C125	C	1.865491	0.169272	0.844154
C126	C	2.198824	0.502605	1.177488
C127	C	1.532205	-0.081516	0.510849
C128	C	1.865538	0.251817	0.844182
C129	C	2.198871	0.585151	1.177516
C130	C	1.532030	-0.357771	0.235326
C131	C	1.865363	-0.024438	0.568659
C132	C	2.198697	0.308896	0.901992
C133	C	1.532202	-0.357586	0.117496
C134	C	1.865535	-0.024253	0.450829
C135	C	2.198869	0.309080	0.784163
C136	C	1.449955	-0.414797	1.072626
C137	C	1.783288	-0.081464	1.405960
C138	C	2.116621	0.251870	1.739293
C139	C	1.450170	-0.415080	0.950066
C140	C	1.783503	-0.081747	1.283400
C141	C	2.116837	0.251587	1.616733
C142	C	1.643857	-0.378927	0.949608
C143	C	1.977191	-0.045593	1.282941
C144	C	2.310524	0.287740	1.616274
C145	C	1.643406	-0.379285	1.072206
C146	C	1.976740	-0.045951	1.405539
C147	C	2.310073	0.287382	1.738873
C148	C	1.503718	-0.279014	1.072300
C149	C	1.837052	0.054320	1.405633
C150	C	2.170385	0.387653	1.738967
C151	C	1.501226	-0.279485	0.949693
C152	C	1.834560	0.053848	1.283027
C153	C	2.167893	0.387182	1.616360
H154	H	1.123859	-0.242262	0.448066
H155	H	1.457192	0.091071	0.781399
H156	H	1.790526	0.424405	1.114733
F157	F	1.474797	-0.491208	0.911735
F158	F	1.808130	-0.157875	1.245068
F159	F	2.141464	0.175458	1.578402
H160	H	1.468575	-0.472682	1.103437
H161	H	1.801908	-0.139349	1.436770
H162	H	2.135242	0.193984	1.770104
H163	H	1.123433	-0.480108	0.537715
H164	H	1.456767	-0.146775	0.871048
H165	H	1.790100	0.186558	1.204382
F166	F	1.586720	-0.804338	0.714523
F167	F	1.920053	-0.471005	1.047856
F168	F	2.253387	-0.137672	1.381190
H169	H	1.366880	-0.401633	1.102102
H170	H	1.700214	-0.068299	1.435435
H171	H	2.033547	0.265034	1.768768
F172	F	0.932689	-0.224068	0.454030
F173	F	1.266022	0.109265	0.787363
F174	F	1.599355	0.442598	1.120696
F175	F	1.341908	-0.397702	0.910720
F176	F	1.675241	-0.064369	1.244054
F177	F	2.008575	0.268964	1.577387
F178	F	0.930859	-0.317104	0.321233
F179	F	1.264192	0.016229	0.654567
F180	F	1.597526	0.349563	0.987900
H181	H	0.943020	-0.452544	0.397614
H182	H	1.276354	-0.119211	0.730947
H183	H	1.609687	0.214123	1.064280
F184	F	0.933760	-0.392805	0.702406
F185	F	1.267093	-0.059472	1.035739
F186	F	1.600426	0.273862	1.369072
F187	F	1.675959	-0.453216	0.909487
F188	F	2.009292	-0.119882	1.242820
F189	F	2.342625	0.213451	1.576154
F190	F	1.726175	-0.327151	1.111009
F191	F	2.059509	0.006182	1.444342
F192	F	2.392842	0.339515	1.777676
H193	H	1.123035	-0.313420	0.345769
H194	H	1.456368	0.019914	0.679103
H195	H	1.789701	0.353247	1.012436
H196	H	1.123349	-0.278587	0.645418
H197	H	1.456682	0.054746	0.978752
H198	H	1.790016	0.388079	1.312085
F199	F	1.573814	-0.220824	0.909690
F200	F	1.907148	0.112509	1.243024
F201	F	2.240481	0.445843	1.576357
F202	F	1.582018	-0.223300	1.110229
F203	F	1.915351	0.110033	1.443562
F204	F	2.248684	0.443366	1.776896
H205	H	1.667550	-0.436723	1.100809
H206	H	2.000883	-0.103389	1.434142
H207	H	2.334217	0.229944	1.767475
F208	F	1.382975	-0.910193	0.659919
F209	F	1.716308	-0.576860	0.993252
F210	F	2.049641	-0.243527	1.326585
F211	F	1.735752	-0.910331	0.565542
F212	F	2.069085	-0.576997	0.898875
F213	F	2.402419	-0.243664	1.232209
H214	H	1.124920	-0.453148	0.399050
H215	H	1.458253	-0.119815	0.732383
H216	H	1.791587	0.213518	1.065717
H217	H	0.942021	-0.480100	0.536434
H218	H	1.275354	-0.146766	0.869767
H219	H	1.608688	0.186567	1.203101
F220	F	1.328565	-0.804419	0.456015
F221	F	1.661898	-0.471086	0.789348
F222	F	1.995231	-0.137753	1.122681
F223	F	1.477748	-0.910572	0.307147
F224	F	1.811081	-0.577238	0.640481
F225	F	2.144414	-0.243905	0.973814
H226	H	1.706781	-0.338575	0.920478
H227	H	2.040114	-0.005242	1.253812
H228	H	2.373447	0.328092	1.587145
F229	F	1.399108	-0.253707	1.112694
F230	F	1.732441	0.079626	1.446027
F231	F	2.065775	0.412960	1.779360
H232	H	0.940743	-0.281854	0.650783
H233	H	1.274076	0.051479	0.984117
H234	H	1.607409	0.384813	1.317450
H235	H	1.419026	-0.263466	0.920596
H236	H	1.752359	0.069867	1.253930
H237	H	2.085692	0.403200	1.587263
F238	F	1.134308	-0.387055	0.706029
F239	F	1.467642	-0.053722	1.039362
F240	F	1.800975	0.279611	1.372695
H241	H	1.662924	-0.811042	0.380261
H242	H	1.996257	-0.477709	0.713594
H243	H	2.329591	-0.144375	1.046928
