data_functionalizedCrystal
_audit_creation_method	'MofGen! by Chris Wilmer'
_symmetry_space_group_name_H-M	'P1'
_symmetry_Int_Tables_number	1
_symmetry_cell_setting	triclinic
loop_
_symmetry_equiv_pos_as_xyz
  x,y,z
_cell_length_a	14.908571
_cell_length_b	18.101395
_cell_length_c	14.908308
_cell_angle_alpha	86.733684
_cell_angle_beta	89.824947
_cell_angle_gamma	86.727274
loop_
_atom_site_label
_atom_site_type_symbol
_atom_site_fract_x
_atom_site_fract_y
_atom_site_fract_z
Zn1	Zn	1.345208	-0.386468	0.587575
Zn2	Zn	1.353762	-0.503604	0.437213
Zn3	Zn	1.203527	-0.372244	0.428573
Zn4	Zn	1.194790	-0.502724	0.578865
O5	O	1.274322	-0.441260	0.508057
O6	O	1.472167	-0.408328	0.574890
O7	O	1.341069	-0.480594	0.310243
O8	O	1.222397	-0.270503	0.449694
O9	O	1.478452	-0.494387	0.464420
O10	O	1.326490	-0.280953	0.566512
O11	O	1.230692	-0.384085	0.303895
O12	O	1.076543	-0.383231	0.441249
O13	O	1.207507	-0.492887	0.705845
O14	O	1.070124	-0.479094	0.551667
O15	O	1.318019	-0.407474	0.712244
O16	O	1.332598	-0.607115	0.455974
O17	O	1.215801	-0.606469	0.560045
C18	C	1.040709	-0.429524	0.494576
C19	C	0.940767	-0.424523	0.488830
C20	C	0.746339	-0.515086	0.592857
C21	C	0.652434	-0.510389	0.587462
C22	C	0.659052	-0.410428	0.472648
C23	C	0.752956	-0.415125	0.478044
C24	C	0.796596	-0.467457	0.538149
C25	C	0.890503	-0.472157	0.543540
C26	C	0.897118	-0.372193	0.428731
C27	C	0.803213	-0.367496	0.423336
C28	C	1.274203	-0.633663	0.508023
C29	C	1.274233	-0.715980	0.508044
C30	C	1.274427	-1.015083	0.508104
C31	C	1.201093	-0.983397	0.573764
C32	C	1.200777	-0.897753	0.573527
C33	C	1.274331	-0.866694	0.508075
C34	C	1.254147	-0.892332	0.411835
C35	C	1.253677	-0.977973	0.412227
C36	C	1.368144	-0.989281	0.537857
C37	C	1.367465	-0.903695	0.539903
C38	C	1.274278	-0.782831	0.508053
C39	C	1.274478	-1.098945	0.508119
C40	C	1.508847	-0.453042	0.521591
C41	C	1.608787	-0.458063	0.527358
C42	C	1.260834	-0.451669	0.742582
C43	C	1.255087	-0.456105	0.842522
C44	C	1.274464	-0.248107	0.508111
C45	C	1.274525	-0.165797	0.508134
C46	C	1.287808	-0.430840	0.274447
C47	C	1.293730	-0.426205	0.174517
C48	C	1.359359	-0.375483	1.036986
C49	C	1.353962	-0.379648	1.130890
C50	C	1.238890	-0.468597	1.124234
C51	C	1.244288	-0.464432	1.030330
C52	C	1.304525	-0.417874	0.986710
C53	C	1.309927	-0.413713	0.892805
C54	C	1.194851	-0.502657	0.886151
C55	C	1.189453	-0.506822	0.980054
H56	H	0.926033	-0.514769	0.592479
H57	H	1.186561	-0.866562	0.386941
C58	C	0.887353	-0.566676	0.652096
C59	C	0.794316	-0.572611	0.658916
H60	H	0.916969	-0.602194	0.692875
H61	H	0.901999	-0.518301	0.666251
H62	H	0.906187	-0.575521	0.592539
H63	H	0.775481	-0.563760	0.718472
H64	H	0.779663	-0.620997	0.644767
H65	H	0.938048	-0.333411	0.384182
H66	H	1.422713	-1.009859	0.490101
H67	H	0.611518	-0.549172	0.632012
C68	C	0.560327	-0.389301	0.345689
C69	C	0.611053	-0.352893	0.406618
H70	H	0.530694	-0.353775	0.304932
H71	H	0.516976	-0.417003	0.377505
H72	H	0.598915	-0.421808	0.313299
H73	H	0.572464	-0.320390	0.439013
H74	H	0.654409	-0.325178	0.374799
C75	C	1.143543	-0.829640	0.696984
C76	C	1.216958	-0.874622	0.669627
H77	H	1.153534	-0.815358	0.756312
H78	H	1.090600	-0.856373	0.695793
H79	H	1.136716	-0.786675	0.657406
H80	H	1.223781	-0.917590	0.709201
H81	H	1.269916	-0.847889	0.670825
H82	H	0.767668	-0.324888	0.374402
H83	H	1.212915	-1.007887	0.645171
C84	C	1.467968	-0.844518	0.634854
C85	C	1.388163	-0.881755	0.635566
H86	H	1.480747	-0.830987	0.693918
H87	H	1.461428	-0.801205	0.595839
H88	H	1.515855	-0.876116	0.614334
H89	H	1.340275	-0.850155	0.656079
H90	H	1.394697	-0.925074	0.674594
H91	H	1.131935	-1.000760	0.553850
C92	C	1.409607	-0.824343	0.414095
C93	C	1.444538	-0.875644	0.480639
H94	H	1.457188	-0.807030	0.377501
H95	H	1.379760	-0.783733	0.441582
H96	H	1.368192	-0.847481	0.378064
H97	H	1.485948	-0.852504	0.516675
H98	H	1.474399	-0.916261	0.453151
H99	H	1.358977	-0.375804	0.857292
H100	H	1.131201	-0.873076	0.553387
C101	C	1.107083	-0.934628	0.359039
C102	C	1.161414	-0.999090	0.379070
H103	H	1.050120	-0.947663	0.338577
H104	H	1.134828	-0.905008	0.313473
H105	H	1.099441	-0.907502	0.411492
H106	H	1.169061	-1.026213	0.326615
H107	H	1.133662	-1.028722	0.424640
H108	H	1.408412	-0.337578	1.001471
C109	C	1.468251	-0.291314	1.128033
C110	C	1.414241	-0.333055	1.186155
H111	H	1.505469	-0.262551	1.162154
H112	H	1.431200	-0.259398	1.089158
H113	H	1.504726	-0.323688	1.093380
H114	H	1.377762	-0.300680	1.220803
H115	H	1.451297	-0.364974	1.225045
H116	H	1.305069	-0.998720	0.361342
C117	C	1.179506	-0.514451	1.265229
C118	C	1.172667	-0.519757	1.172191
H119	H	1.138622	-0.546036	1.294834
H120	H	1.165507	-0.464718	1.279853
H121	H	1.239026	-0.529014	1.284098
H122	H	1.113148	-0.505189	1.153321
H123	H	1.186660	-0.569501	1.157561
C124	C	1.326721	-1.069117	0.663496
C125	C	1.394425	-1.024036	0.631372
H126	H	1.342937	-1.090568	0.721232
H127	H	1.319403	-1.107280	0.623418
H128	H	1.271907	-1.040070	0.667636
H129	H	1.449238	-1.053084	0.627226
H130	H	1.401753	-0.985867	0.671460
H131	H	1.306121	-0.872037	0.361340
C132	C	1.143912	-0.631303	1.006410
C133	C	1.123244	-0.557999	1.028005
H134	H	1.103033	-0.662896	1.036008
H135	H	1.203426	-0.645846	1.025287
H136	H	1.139278	-0.634880	0.943287
H137	H	1.127885	-0.554420	1.091128
H138	H	1.063715	-0.543451	1.009134
H139	H	1.150203	-0.537177	0.845206
