data_functionalizedCrystal
_audit_creation_method	'MofGen! by Chris Wilmer'
_symmetry_space_group_name_H-M	'P1'
_symmetry_Int_Tables_number	1
_symmetry_cell_setting	triclinic
loop_
_symmetry_equiv_pos_as_xyz
  x,y,z
_cell_length_a	15.625950
_cell_length_b	14.185328
_cell_length_c	10.723024
_cell_angle_alpha	75.338888
_cell_angle_beta	95.649731
_cell_angle_gamma	87.172074
loop_
_atom_site_label
_atom_site_type_symbol
_atom_site_fract_x
_atom_site_fract_y
_atom_site_fract_z
O1	O	1.125222	-0.325770	-0.064280
O2	O	0.882377	-0.237457	-0.110432
O3	O	1.009400	-0.283654	0.094899
O4	O	0.998199	-0.279573	-0.269612
O5	O	0.975323	-0.438105	0.141719
O6	O	0.848299	-0.391908	-0.063612
O7	O	1.091145	-0.480221	-0.017461
Cu8	Cu	0.966610	-0.450167	-0.036261
Cu9	Cu	1.006911	-0.267511	-0.091631
O10	O	0.964121	-0.434024	-0.222792
C11	C	0.834243	-0.303375	-0.089568
C12	C	0.741589	-0.269680	-0.097136
C13	C	0.343917	-0.579707	0.005475
C14	C	0.256863	-0.548002	-0.001674
C15	C	0.294056	-0.379642	-0.052712
C16	C	0.381115	-0.411332	-0.045573
C17	C	0.406038	-0.511365	-0.016477
C18	C	0.443236	-0.342991	-0.067525
C19	C	0.530288	-0.374679	-0.060379
C20	C	0.555219	-0.474708	-0.031281
C21	C	0.493090	-0.543054	-0.009331
C22	C	0.418312	-0.242958	-0.096612
C23	C	0.480433	-0.174616	-0.118564
C24	C	0.567486	-0.206304	-0.111428
C25	C	0.592417	-0.306333	-0.082330
C26	C	0.629614	-0.137959	-0.133378
C27	C	0.716666	-0.169647	-0.126232
C28	C	0.679468	-0.338022	-0.075184
N29	N	0.938271	-0.578640	0.002684
C30	C	1.118450	-1.011766	-0.245031
C31	C	1.097003	-1.108993	-0.215509
C32	C	0.994930	-1.071862	-0.075118
C33	C	1.016366	-0.974628	-0.104633
C34	C	1.078127	-0.944588	-0.189589
C35	C	0.976043	-0.907451	-0.049191
C36	C	0.997480	-0.810226	-0.078699
C37	C	1.059241	-0.780179	-0.163649
C38	C	1.099565	-0.847364	-0.219097
C39	C	0.914286	-0.937494	0.035773
C40	C	0.873963	-0.870317	0.091215
C41	C	0.895396	-0.773089	0.061700
C42	C	0.957157	-0.743042	-0.023250
C43	C	0.855072	-0.705904	0.117148
C44	C	0.876510	-0.608680	0.087641
C45	C	0.978594	-0.645817	-0.052758
C46	C	1.139279	-0.414302	-0.038326
C47	C	1.231934	-0.447990	-0.030759
C48	C	0.991546	-0.360582	0.164709
C49	C	0.989108	-0.359692	0.302967
N50	N	1.035257	-0.139041	-0.130566
C51	C	0.981975	-0.357094	-0.292603
C52	C	0.984415	-0.357978	-0.430863
C53	C	1.060184	-0.385538	0.386554
C54	C	1.057666	-0.384618	0.529451
H55	H	0.513382	-0.624510	0.014342
Br56	Br	0.884573	-0.321662	0.360000
H57	H	0.767247	-0.113996	-0.144114
H58	H	0.804792	-0.730380	0.186331
Br59	Br	1.062422	-0.605043	-0.168046
H60	H	1.149848	-0.822902	-0.288292
H61	H	1.076696	-0.701013	-0.187670
H62	H	0.626103	-0.500507	-0.025463
Br63	Br	0.713299	-0.473783	-0.035718
Br64	Br	0.377749	-0.715468	0.044941
Br65	Br	0.911115	-1.112640	0.040179
H66	H	0.896839	-1.016663	0.059804
H67	H	0.273752	-0.298194	-0.076396
Br68	Br	1.159086	-0.421511	0.649116
H69	H	0.206282	-0.603661	0.016175
Br70	Br	0.790147	-0.911094	0.206511
H71	H	0.347427	-0.217160	-0.102435
H72	H	0.843673	-0.553981	0.132785
Br73	Br	0.446604	-0.038862	-0.158000
H74	H	0.609309	-0.056511	-0.157054
Br75	Br	1.151742	-1.200166	-0.290751
H76	H	1.168734	-0.987303	-0.314226
H77	H	1.122899	-0.408351	0.352326
H78	H	0.923563	-0.335857	0.497348
