data_functionalizedCrystal
_audit_creation_method	'MofGen! by Chris Wilmer'
_symmetry_space_group_name_H-M	'P1'
_symmetry_Int_Tables_number	1
_symmetry_cell_setting	triclinic
loop_
_symmetry_equiv_pos_as_xyz
  x,y,z
_cell_length_a	14.971491
_cell_length_b	17.038272
_cell_length_c	13.448316
_cell_angle_alpha	89.993314
_cell_angle_beta	89.991393
_cell_angle_gamma	87.363896
loop_
_atom_site_label
_atom_site_type_symbol
_atom_site_fract_x
_atom_site_fract_y
_atom_site_fract_z
O1	O	1.194575	0.101917	-0.082736
O2	O	1.694575	0.601917	0.417264
O3	O	0.935089	0.114115	-0.082729
O4	O	1.435089	0.614115	0.417271
O5	O	1.063290	-0.005801	-0.082724
O6	O	1.563290	0.494199	0.417276
O7	O	1.066374	0.221833	-0.082740
O8	O	1.566374	0.721833	0.417260
O9	O	1.063272	-0.005809	0.082659
O10	O	1.563272	0.494191	0.582659
O11	O	0.935071	0.114108	0.082655
O12	O	1.435071	0.614108	0.582655
O13	O	1.194557	0.101910	0.082648
O14	O	1.694557	0.601910	0.582648
Cu15	Cu	1.064813	0.108008	0.097752
Cu16	Cu	1.564813	0.608008	0.597752
Cu17	Cu	1.064834	0.108017	-0.097833
Cu18	Cu	1.564834	0.608017	0.402167
O19	O	1.066356	0.221826	0.082644
O20	O	1.566356	0.721826	0.582644
C21	C	0.901714	0.113565	-0.000036
C22	C	1.401714	0.613565	0.499964
C23	C	0.802295	0.111928	-0.000033
C24	C	1.302295	0.611928	0.499967
C25	C	0.374070	0.104869	-0.090206
C26	C	0.874070	0.604869	0.409794
C27	C	0.467486	0.106404	-0.090202
C28	C	0.967486	0.606404	0.409798
C29	C	0.514180	0.107173	-0.000048
C30	C	1.014180	0.607173	0.499952
C31	C	0.467454	0.106399	0.090108
C32	C	0.967454	0.606399	0.590108
C33	C	0.374041	0.104857	0.090103
C34	C	0.874041	0.604857	0.590103
C35	C	0.662156	0.109613	0.090112
C36	C	1.162156	0.609613	0.590112
C37	C	0.755576	0.111156	0.090117
C38	C	1.255576	0.611156	0.590117
C39	C	0.755601	0.111160	-0.090194
C40	C	1.255601	0.611160	0.409806
C41	C	0.662188	0.109619	-0.090199
C42	C	1.162188	0.609619	0.409801
C43	C	0.615469	0.108846	-0.000042
C44	C	1.115469	0.608846	0.499958
C45	C	1.060476	-0.034936	-0.000032
C46	C	1.560476	0.465064	0.499968
C47	C	1.052106	-0.121739	-0.000033
C48	C	1.552106	0.378261	0.499967
C49	C	1.128950	-0.171763	-0.000034
C50	C	1.628950	0.328237	0.499966
C51	C	1.121080	-0.253323	-0.000043
C52	C	1.621080	0.246677	0.499957
C53	C	1.036366	-0.284857	-0.000044
C54	C	1.536366	0.215143	0.499956
C55	C	0.959517	-0.234827	-0.000046
C56	C	1.459517	0.265173	0.499954
C57	C	0.967387	-0.153269	-0.000044
C58	C	1.467387	0.346731	0.499956
C59	C	1.008561	-0.530648	-0.000057
C60	C	1.508561	-0.030648	0.499943
C61	C	1.000697	-0.612213	-0.000056
C62	C	1.500697	-0.112213	0.499944
C63	C	1.162261	-0.630702	-0.000055
C64	C	1.662261	-0.130702	0.499945
C65	C	1.170124	-0.549142	-0.000047
C66	C	1.670124	-0.049142	0.499953
C67	C	1.093275	-0.499119	-0.000054
C68	C	1.593275	0.000881	0.499946
C69	C	1.028320	-0.368224	-0.000050
C70	C	1.528320	0.131776	0.499950
C71	C	1.101321	-0.415753	-0.000055
C72	C	1.601321	0.084247	0.499945
C73	C	1.227932	0.102459	-0.000047
C74	C	1.727932	0.602459	0.499953
C75	C	1.327351	0.104096	-0.000057
C76	C	1.827351	0.604096	0.499943
C77	C	1.069171	0.250961	-0.000050
C78	C	1.569171	0.750961	0.499950
C79	C	1.077540	0.337764	-0.000057
C80	C	1.577540	0.837764	0.499943
N81	N	1.064804	0.108001	0.235317
N82	N	1.564804	0.608001	0.735317
N83	N	1.064849	0.108017	-0.235397
N84	N	1.564849	0.608017	0.264603
C85	C	1.121592	0.054924	0.287359
C86	C	1.621592	0.554924	0.787359
C87	C	1.121598	0.054924	0.391462
C88	C	1.621598	0.554924	0.891462
C89	C	1.064819	0.108004	0.443521
C90	C	1.564819	0.608004	0.943521
C91	C	1.008025	0.161084	0.391472
C92	C	1.508025	0.661084	0.891472
C93	C	1.008016	0.161080	0.287370
C94	C	1.508016	0.661080	0.787370
C95	C	1.008050	0.161089	0.608452
C96	C	1.508050	0.661089	1.108452
C97	C	1.008061	0.161094	0.712560
C98	C	1.508061	0.661094	1.212560
C99	C	1.121632	0.054933	0.712544
C100	C	1.621632	0.554933	1.212544
C101	C	1.121623	0.054929	0.608442
C102	C	1.621623	0.554929	1.108442
C103	C	1.064830	0.108010	0.556400
C104	C	1.564830	0.608010	1.056400
H105	H	0.793591	0.111786	0.163528
H106	H	1.293591	0.611786	0.663528
N107	N	0.323649	0.104019	0.187337
N108	N	0.823649	0.604019	0.687337
H109	H	0.367443	0.104190	0.244447
H110	H	0.867443	0.604190	0.744447
H111	H	0.281772	0.152094	0.191564
H112	H	0.781772	0.652094	0.691564
H113	H	1.197933	-0.146094	-0.000027
H114	H	1.697933	0.353906	0.499973
H115	H	0.624172	0.108998	-0.163610
H116	H	1.124172	0.608998	0.336390
N117	N	1.203960	-0.307278	-0.000035
N118	N	1.703960	0.192722	0.499965
H119	H	1.240660	-0.297119	-0.061337
H120	H	1.740660	0.202881	0.438663
H121	H	1.240561	-0.297106	0.061319
H122	H	1.740561	0.202894	0.561319
H123	H	1.239107	-0.523473	-0.000046
H124	H	1.739107	-0.023473	0.499954
N125	N	1.182880	-0.002297	0.447595
N126	N	1.682880	0.497703	0.947595
H127	H	1.218862	-0.035911	0.398819
H128	H	1.718862	0.464089	0.898819
H129	H	1.224689	0.027731	0.490750
H130	H	1.724689	0.527731	0.990750
H131	H	1.167861	0.011710	0.566056
H132	H	1.667861	0.511710	1.066056
H133	H	1.224827	-0.671439	-0.000051
H134	H	1.724827	-0.171439	0.499949
H135	H	1.167875	0.011712	0.754923
H136	H	1.667875	0.511712	1.254923
N137	N	0.946818	0.218333	0.768724
N138	N	1.446818	0.718333	1.268724
H139	H	0.983637	0.253006	0.811896
H140	H	1.483637	0.753006	1.311896
H141	H	0.910840	0.251905	0.719907
H142	H	1.410840	0.751905	1.219907
H143	H	0.961800	0.204311	0.566082
H144	H	1.461800	0.704311	1.066082
H145	H	1.170295	-0.390074	-0.000076
H146	H	1.670295	0.109926	0.499924
N147	N	0.909322	-0.646228	-0.000058
N148	N	1.409322	-0.146228	0.499942
H149	H	0.861832	-0.602164	-0.000066
H150	H	1.361832	-0.102164	0.499934
H151	H	0.902554	-0.679661	-0.061368
H152	H	1.402554	-0.179661	0.438632
N153	N	0.946765	0.218332	0.231243
N154	N	1.446765	0.718332	0.731243
H155	H	0.983572	0.253002	0.188030
H156	H	1.483572	0.753002	0.688030
H157	H	0.904894	0.188334	0.188130
H158	H	1.404894	0.688334	0.688130
N159	N	0.946782	0.218330	0.447624
N160	N	1.446782	0.718330	0.947624
H161	H	0.983601	0.253004	0.490796
H162	H	1.483601	0.753004	0.990796
H163	H	0.910814	0.251900	0.398796
H164	H	1.410814	0.751900	0.898796
H165	H	0.904812	-0.112540	-0.000043
H166	H	1.404812	0.387460	0.499957
N167	N	0.611767	0.108774	0.187352
N168	N	1.111767	0.608774	0.687352
H169	H	0.655562	0.108943	0.244461
H170	H	1.155562	0.608943	0.744461
H171	H	0.569895	0.156852	0.191577
H172	H	1.069895	0.656852	0.691577
N173	N	0.925677	-0.476702	-0.000058
N174	N	1.425677	0.023298	0.499942
H175	H	0.889000	-0.486854	-0.061364
H176	H	1.389000	0.013146	0.438636
H177	H	0.889056	-0.486886	0.061292
H178	H	1.389056	0.013114	0.561292
N179	N	0.323710	0.104045	-0.187445
N180	N	0.823710	0.604045	0.312555
H181	H	0.367486	0.104765	-0.244553
H182	H	0.867486	0.604765	0.255447
H183	H	0.288520	0.054971	-0.191368
H184	H	0.788520	0.554971	0.308632
H185	H	0.959345	-0.393909	-0.000049
H186	H	1.459345	0.106091	0.499951
N187	N	0.517878	0.107227	-0.187434
N188	N	1.017878	0.607227	0.312566
H189	H	0.474122	0.106508	-0.244547
H190	H	0.974122	0.606508	0.255453
H191	H	0.553075	0.156297	-0.191371
H192	H	1.053075	0.656297	0.308629
N193	N	0.868145	-0.268835	-0.000053
N194	N	1.368145	0.231165	0.499947
H195	H	0.874817	-0.328093	-0.000051
H196	H	1.374817	0.171907	0.499949
H197	H	0.834238	-0.250545	0.061257
H198	H	1.334238	0.249455	0.561257
H199	H	0.793644	0.111791	-0.163603
H200	H	1.293644	0.611791	0.336397
N201	N	0.517814	0.107235	0.187346
N202	N	1.017814	0.607235	0.687346
H203	H	0.474041	0.106511	0.244455
H204	H	0.974041	0.606511	0.744455
H205	H	0.560141	0.059442	0.191284
H206	H	1.060141	0.559442	0.691284
N207	N	1.182838	-0.002323	0.231213
N208	N	1.682838	0.497677	0.731213
H209	H	1.218812	-0.035948	0.279982
H210	H	1.718812	0.464052	0.779982
H211	H	1.145962	-0.036943	0.188037
H212	H	1.645962	0.463057	0.688037
