data_functionalizedCrystal
_audit_creation_method	'MofGen! by Chris Wilmer'
_symmetry_space_group_name_H-M	'P1'
_symmetry_Int_Tables_number	1
_symmetry_cell_setting	triclinic
loop_
_symmetry_equiv_pos_as_xyz
  x,y,z
_cell_length_a	14.908520
_cell_length_b	14.908780
_cell_length_c	14.908694
_cell_angle_alpha	96.797826
_cell_angle_beta	96.744522
_cell_angle_gamma	83.210051
loop_
_atom_site_label
_atom_site_type_symbol
_atom_site_fract_x
_atom_site_fract_y
_atom_site_fract_z
Zn1	Zn	-0.313858	-1.396257	-0.608918
Zn2	Zn	0.019476	-1.062924	-0.275585
Zn3	Zn	0.352809	-0.729590	0.057749
Zn4	Zn	-0.457411	-1.379587	-0.465375
Zn5	Zn	-0.124078	-1.046253	-0.132042
Zn6	Zn	0.209255	-0.712920	0.201292
Zn7	Zn	-0.313877	-1.236152	-0.448820
Zn8	Zn	0.019456	-0.902819	-0.115486
Zn9	Zn	0.352790	-0.569485	0.217847
Zn10	Zn	-0.473894	-1.236113	-0.608841
Zn11	Zn	-0.140561	-0.902780	-0.275508
Zn12	Zn	0.192772	-0.569447	0.057826
O13	O	-0.389760	-1.312027	-0.532988
O14	O	-0.056427	-0.978694	-0.199655
O15	O	0.276907	-0.645361	0.133678
O16	O	-0.325994	-1.521094	-0.596837
O17	O	0.007339	-1.187761	-0.263504
O18	O	0.340673	-0.854428	0.069829
O19	O	-0.431481	-1.353599	-0.336136
O20	O	-0.098148	-1.020266	-0.002803
O21	O	0.235186	-0.686933	0.330530
O22	O	-0.186829	-1.264383	-0.463161
O23	O	0.146504	-0.931050	-0.129828
O24	O	0.479837	-0.597716	0.203506
O25	O	-0.431462	-1.508847	-0.491377
O26	O	-0.098129	-1.175513	-0.158044
O27	O	0.235205	-0.842180	0.175290
O28	O	-0.186815	-1.382011	-0.580784
O29	O	0.146518	-1.048678	-0.247451
O30	O	0.479852	-0.715345	0.085882
O31	O	-0.326027	-1.248219	-0.323973
O32	O	0.007306	-0.914885	0.009360
O33	O	0.340639	-0.581552	0.342693
O34	O	-0.342010	-1.109098	-0.463086
O35	O	-0.008677	-0.775765	-0.129753
O36	O	0.324657	-0.442431	0.203580
O37	O	-0.459555	-1.264317	-0.735894
O38	O	-0.126222	-0.930984	-0.402561
O39	O	0.207112	-0.597650	-0.069227
O40	O	-0.459574	-1.109070	-0.580653
O41	O	-0.126241	-0.775736	-0.247320
O42	O	0.207093	-0.442403	0.086013
O43	O	-0.341977	-1.381974	-0.735950
O44	O	-0.008644	-1.048641	-0.402617
O45	O	0.324690	-0.715307	-0.069284
O46	O	-0.586643	-1.353562	-0.491302
O47	O	-0.253310	-1.020229	-0.157969
O48	O	0.080024	-0.686895	0.175364
O49	O	-0.598753	-1.248153	-0.596706
O50	O	-0.265420	-0.914819	-0.263373
O51	O	0.067914	-0.581486	0.069960
C52	C	-0.402583	-1.076142	-0.520066
C53	C	-0.069250	-0.742808	-0.186732
C54	C	0.264083	-0.409475	0.146601
C55	C	-0.408092	-0.975229	-0.514560
C56	C	-0.074759	-0.641895	-0.181226
C57	C	0.258574	-0.308562	0.152107
C58	C	-0.308789	-0.798355	-0.614216
C59	C	0.024544	-0.465022	-0.280882
C60	C	0.357878	-0.131688	0.052451
C61	C	-0.313962	-0.703539	-0.609045
C62	C	0.019371	-0.370205	-0.275712
C63	C	0.352705	-0.036872	0.057621
C64	C	-0.423606	-0.690778	-0.499044
C65	C	-0.090273	-0.357445	-0.165711
C66	C	0.243060	-0.024111	0.167622
C67	C	-0.418433	-0.785594	-0.504215
C68	C	-0.085100	-0.452261	-0.170881
C69	C	0.248233	-0.118928	0.162452
C70	C	-0.361024	-0.839380	-0.561803
C71	C	-0.027690	-0.506046	-0.228470
C72	C	0.305643	-0.172713	0.104863
C73	C	-0.355856	-0.934198	-0.566978
C74	C	-0.022523	-0.600864	-0.233645
C75	C	0.310811	-0.267531	0.099689
C76	C	-0.465495	-0.921435	-0.456973
C77	C	-0.132162	-0.588102	-0.123639
C78	C	0.201172	-0.254769	0.209694
C79	C	-0.470668	-0.826619	-0.451802
C80	C	-0.137335	-0.493286	-0.118469
C81	C	0.195999	-0.159952	0.214864
C82	C	-0.625639	-1.299070	-0.545814
C83	C	-0.292306	-0.965736	-0.212480
C84	C	0.041027	-0.632403	0.120853
C85	C	-0.726546	-1.293611	-0.551335
C86	C	-0.393213	-0.960278	-0.218002
C87	C	-0.059880	-0.626945	0.115331
C88	C	-0.903489	-1.393241	-0.452054
C89	C	-0.570156	-1.059908	-0.118721
C90	C	-0.236823	-0.726575	0.214613
C91	C	-0.998300	-1.388116	-0.457239
C92	C	-0.664967	-1.054782	-0.123906
C93	C	-0.331634	-0.721449	0.209427
C94	C	-1.010981	-1.278239	-0.566895
C95	C	-0.677648	-0.944906	-0.233562
C96	C	-0.344314	-0.611572	0.099772
C97	C	-0.916170	-1.283365	-0.561710
C98	C	-0.582837	-0.950032	-0.228377
C99	C	-0.249503	-0.616698	0.104957
C100	C	-0.862427	-1.340867	-0.504286
C101	C	-0.529094	-1.007534	-0.170953
C102	C	-0.195761	-0.674200	0.162380
C103	C	-0.767615	-1.345987	-0.499097
C104	C	-0.434281	-1.012654	-0.165764
C105	C	-0.100948	-0.679321	0.167570
C106	C	-0.780297	-1.236116	-0.608757
C107	C	-0.446964	-0.902783	-0.275424
C108	C	-0.113630	-0.569450	0.057910
C109	C	-0.875108	-1.230991	-0.613942
C110	C	-0.541775	-0.897657	-0.280609
C111	C	-0.208441	-0.564324	0.052724
C112	C	-0.152960	-1.325061	-0.520134
C113	C	0.180374	-0.991728	-0.186801
C114	C	0.513707	-0.658394	0.146532
C115	C	-0.052049	-1.330615	-0.514657
C116	C	0.281284	-0.997282	-0.181323
C117	C	0.614617	-0.663949	0.152010
C118	C	-0.402602	-1.325001	-0.769784
C119	C	-0.069269	-0.991667	-0.436451
C120	C	0.264064	-0.658334	-0.103117
C121	C	-0.408075	-1.330529	-0.870692
C122	C	-0.074742	-0.997196	-0.537359
C123	C	0.258592	-0.663862	-0.204025
C124	C	-0.376879	-0.548834	-0.545955
C125	C	-0.043546	-0.215501	-0.212622
C126	C	0.289787	0.117833	0.120711
C127	C	-0.371370	-0.649747	-0.551463
C128	C	-0.038037	-0.316414	-0.218129
C129	C	0.295297	0.016920	0.115204
C130	C	-0.308553	-1.231163	-1.047644
C131	C	0.024780	-0.897830	-0.714311
C132	C	0.358114	-0.564497	-0.380977
C133	C	-0.313692	-1.236355	-1.142456
C134	C	0.019641	-0.903022	-0.809123
C135	C	0.352974	-0.569688	-0.475789
C136	C	-0.423497	-1.346098	-1.155129
C137	C	-0.090164	-1.012765	-0.821796
C138	C	0.243170	-0.679432	-0.488463
C139	C	-0.418358	-1.340907	-1.060317
C140	C	-0.085024	-1.007573	-0.726984
C141	C	0.248309	-0.674240	-0.393651
C142	C	-0.360883	-1.283438	-1.006578
C143	C	-0.027550	-0.950105	-0.673245
C144	C	0.305784	-0.616772	-0.339911
C145	C	-0.355739	-1.278252	-0.911764
C146	C	-0.022406	-0.944919	-0.578431
C147	C	0.310927	-0.611586	-0.245098
C148	C	-0.465548	-1.387990	-0.924439
C149	C	-0.132215	-1.054657	-0.591106
C150	C	0.201118	-0.721324	-0.257773
C151	C	-0.470688	-1.393182	-1.019251
C152	C	-0.137354	-1.059849	-0.685918
C153	C	0.195979	-0.726515	-0.352584
C154	C	-0.376899	-1.299160	-0.297113
C155	C	-0.043566	-0.965827	0.036220
C156	C	0.289767	-0.632493	0.369553
C157	C	-0.371161	-1.293821	-0.196202
C158	C	-0.037828	-0.960488	0.137132
C159	C	0.295505	-0.627155	0.470465
H160	H	-0.470336	-0.646970	-0.452148
H161	H	-0.137003	-0.313637	-0.118815
H162	H	0.196331	0.019697	0.214519
C163	C	-1.070114	-1.214990	-0.630054
C164	C	-0.736781	-0.881657	-0.296721
C165	C	-0.403447	-0.548324	0.036612
N166	N	-1.114654	-1.167348	-0.677624
N167	N	-0.781321	-0.834015	-0.344290
N168	N	-0.447987	-0.500682	-0.010957
H169	H	-1.031729	-1.430766	-0.414708
H170	H	-0.698395	-1.097433	-0.081375
H171	H	-0.365062	-0.764099	0.251959
C172	C	-0.292701	-0.993360	-0.630323
C173	C	0.040632	-0.660027	-0.296990
C174	C	0.373965	-0.326694	0.036344
N175	N	-0.245128	-1.037919	-0.678033
N176	N	0.088205	-0.704586	-0.344700
N177	N	0.421538	-0.371253	-0.011367
H178	H	-0.746854	-1.193467	-0.651286
H179	H	-0.413521	-0.860133	-0.317952
H180	H	-0.080187	-0.526800	0.015381
C181	C	-0.533816	-0.767445	-0.388459
C182	C	-0.200483	-0.434111	-0.055126
C183	C	0.132850	-0.100778	0.278208
N184	N	-0.581383	-0.722875	-0.340750
N185	N	-0.248050	-0.389542	-0.007417
N186	N	0.085283	-0.056209	0.325916
H187	H	-0.271425	-0.670140	-0.651723
H188	H	0.061909	-0.336807	-0.318389
H189	H	0.395242	-0.003474	0.014944
H190	H	-0.261746	-1.184379	-1.003889
H191	H	0.071587	-0.851045	-0.670555
H192	H	0.404920	-0.517712	-0.337222
H193	H	-0.918878	-1.184177	-0.660697
H194	H	-0.585545	-0.850843	-0.327364
H195	H	-0.252212	-0.517510	0.005969
H196	H	-0.308937	-1.231462	-0.868011
H197	H	0.024397	-0.898129	-0.534677
H198	H	0.357730	-0.564796	-0.201344
H199	H	-0.271080	-1.193787	-1.175888
H200	H	0.062253	-0.860454	-0.842555
H201	H	0.395587	-0.527120	-0.509221
C202	C	-0.522959	-0.966570	-0.399317
C203	C	-0.189625	-0.633236	-0.065983
C204	C	0.143708	-0.299903	0.267350
N205	N	-0.566241	-1.000566	-0.355894
N206	N	-0.232908	-0.667233	-0.022560
N207	N	0.100425	-0.333899	0.310773
H208	H	-0.470303	-1.392873	-1.198900
H209	H	-0.136970	-1.059540	-0.865566
H210	H	0.196364	-0.726207	-0.532233
H211	H	-0.517485	-1.439968	-1.063018
H212	H	-0.184152	-1.106634	-0.729685
H213	H	0.149182	-0.773301	-0.396352
H214	H	-0.723858	-1.392806	-0.452337
H215	H	-0.390524	-1.059473	-0.119004
H216	H	-0.057191	-0.726139	0.214329
C217	C	-0.523115	-1.445497	-0.879259
C218	C	-0.189782	-1.112163	-0.545926
C219	C	0.143552	-0.778830	-0.212593
N220	N	-0.566472	-1.488811	-0.845229
N221	N	-0.233138	-1.155477	-0.511895
N222	N	0.100195	-0.822144	-0.178562
H223	H	-0.262048	-0.842148	-0.661111
H224	H	0.071286	-0.508815	-0.327777
H225	H	0.404619	-0.175481	0.005556
H226	H	-0.859731	-1.440055	-0.405291
H227	H	-0.526398	-1.106722	-0.071957
H228	H	-0.193064	-0.773389	0.261376
