data_functionalizedCrystal
_audit_creation_method	'MofGen! by Chris Wilmer'
_symmetry_space_group_name_H-M	'P1'
_symmetry_Int_Tables_number	1
_symmetry_cell_setting	triclinic
loop_
_symmetry_equiv_pos_as_xyz
  x,y,z
_cell_length_a	6.817900
_cell_length_b	17.982959
_cell_length_c	16.255661
_cell_angle_alpha	95.649314
_cell_angle_beta	103.488922
_cell_angle_gamma	102.451857
loop_
_atom_site_label
_atom_site_type_symbol
_atom_site_fract_x
_atom_site_fract_y
_atom_site_fract_z
V1	V	-4.021547	-0.106029	-0.264227
O2	O	-4.014408	0.004462	-0.258833
O3	O	-3.968052	-0.209628	-0.262769
O4	O	-3.973175	-0.104676	-0.379305
O5	O	-4.009250	-0.101217	-0.141490
V6	V	-4.505831	-0.092780	-0.249504
O7	O	-4.281135	-0.135091	-0.296522
O8	O	-4.696441	-0.063718	-0.217208
O9	O	-4.336120	0.010819	-0.250961
O10	O	-4.630368	-0.203271	-0.254897
O11	O	-4.635526	-0.097592	-0.372240
O12	O	-4.330997	-0.094133	-0.134425
C13	C	-3.811813	-0.234875	-0.258691
C14	C	-3.849361	-0.319570	-0.258267
C15	C	-4.048920	-0.363251	-0.262302
C16	C	-4.084191	-0.442832	-0.261908
C17	C	-3.919899	-0.478730	-0.257473
C18	C	-3.720325	-0.435044	-0.253440
C19	C	-3.685060	-0.355465	-0.253840
C20	C	-3.862545	-0.755976	-0.251828
C21	C	-3.897826	-0.835560	-0.251426
C22	C	-4.261677	-0.843343	-0.259896
C23	C	-4.226411	-0.763764	-0.260296
C24	C	-4.026844	-0.720086	-0.256267
C25	C	-3.988602	-0.633795	-0.256696
C26	C	-3.958136	-0.565018	-0.257038
C27	C	-3.818346	-0.100997	-0.407343
C28	C	-3.860046	-0.100576	-0.501423
C29	C	-3.770848	-0.095550	-0.724225
C30	C	-3.924104	-0.160420	-0.793919
C31	C	-3.936469	-0.099787	-0.673669
C32	C	-3.857540	-0.034174	-0.771610
C33	C	-4.010275	-0.099021	-0.840050
C34	C	-4.089204	-0.164715	-0.742133
C35	C	-4.022581	-0.038412	-0.719809
C36	C	-4.175973	-0.103301	-0.789483
C37	C	-3.893947	-0.100229	-0.577821
C38	C	-4.052814	-0.098585	-0.935897
C39	C	-4.155701	0.036062	-0.255037
C40	C	-4.097391	0.120757	-0.255467
C41	C	-4.149168	-0.097815	-0.106382
C42	C	-4.086706	-0.098232	-0.012302
H43	H	-4.424178	-0.878916	-0.263177
Br44	Br	-4.449382	-0.715047	-0.266300
Br45	Br	-4.462166	-0.108786	-0.836749
H46	H	-3.764031	-0.864786	-0.247820
H47	H	-3.700049	-0.720422	-0.248543
H48	H	-3.586561	-0.464279	-0.249834
Br49	Br	-3.484842	-0.090224	-0.676733
H50	H	-4.246689	-0.478394	-0.265195
Br51	Br	-3.694964	0.057778	-0.793940
H52	H	-4.063689	0.013174	-0.687528
H53	H	-3.882918	-0.212003	-0.826177
Br54	Br	-4.271902	-0.314539	-0.268315
H55	H	-3.522563	-0.319902	-0.250558
Br56	Br	-4.251766	-0.256767	-0.720003
