data_functionalizedCrystal
_audit_creation_method	'MofGen! by Chris Wilmer'
_symmetry_space_group_name_H-M	'P1'
_symmetry_Int_Tables_number	1
_symmetry_cell_setting	triclinic
loop_
_symmetry_equiv_pos_as_xyz
  x,y,z
_cell_length_a	34.490303
_cell_length_b	34.489386
_cell_length_c	34.485816
_cell_angle_alpha	60.004462
_cell_angle_beta	60.008900
_cell_angle_gamma	59.994399
loop_
_atom_site_label
_atom_site_type_symbol
_atom_site_fract_x
_atom_site_fract_y
_atom_site_fract_z
O1	O	0.053846	-0.566517	0.473678
O2	O	0.387179	-0.233184	0.807011
O3	O	0.720513	0.100150	1.140345
O4	O	0.020329	-0.441078	0.381663
O5	O	0.353663	-0.107745	0.714996
O6	O	0.686996	0.225588	1.048329
O7	O	0.099768	-0.520436	0.381578
O8	O	0.433101	-0.187103	0.714912
O9	O	0.766434	0.146230	1.048245
O10	O	-0.025592	-0.487159	0.473762
O11	O	0.307741	-0.153826	0.807096
O12	O	0.641074	0.179508	1.140429
O13	O	0.126127	-0.494082	0.407849
O14	O	0.459461	-0.160749	0.741182
O15	O	0.792794	0.172584	1.074515
O16	O	0.046689	-0.414724	0.407933
O17	O	0.380022	-0.081391	0.741266
O18	O	0.713356	0.251942	1.074600
O19	O	0.080206	-0.540163	0.499949
O20	O	0.413539	-0.206830	0.833282
O21	O	0.746872	0.126504	1.166615
Zn22	Zn	0.067632	-0.473259	0.458112
Zn23	Zn	0.400966	-0.139926	0.791445
Zn24	Zn	0.734299	0.193407	1.124778
Zn25	Zn	0.032903	-0.507982	0.423499
Zn26	Zn	0.366236	-0.174649	0.756833
Zn27	Zn	0.699569	0.158685	1.090166
O28	O	0.000767	-0.460805	0.500033
O29	O	0.334101	-0.127471	0.833366
O30	O	0.667434	0.205862	1.166699
N31	N	0.091336	-0.449565	0.481736
N32	N	0.424669	-0.116232	0.815070
N33	N	0.758002	0.217101	1.148403
N34	N	0.009203	-0.531680	0.399875
N35	N	0.342537	-0.198347	0.733208
N36	N	0.675870	0.134986	1.066541
C37	C	0.142510	-0.268211	0.532817
C38	C	0.475843	0.065122	0.866150
C39	C	0.809176	0.398456	1.199483
C40	C	0.142641	-0.398441	0.662987
C41	C	0.475974	-0.065108	0.996320
C42	C	0.809307	0.268225	1.329653
C43	C	0.142524	-0.398421	0.532817
C44	C	0.475858	-0.065088	0.866150
C45	C	0.809191	0.268245	1.199484
C46	C	0.272762	-0.398394	0.532723
C47	C	0.606096	-0.065060	0.866056
C48	C	0.939429	0.268273	1.199389
C49	C	0.156853	-0.311177	0.547124
C50	C	0.490187	0.022157	0.880457
C51	C	0.823520	0.355490	1.213791
C52	C	0.156928	-0.384109	0.620020
C53	C	0.490261	-0.050775	0.953354
C54	C	0.823594	0.282558	1.286687
C55	C	0.229794	-0.384081	0.547073
C56	C	0.563128	-0.050747	0.880406
C57	C	0.896461	0.282586	1.213739
C58	C	0.156863	-0.384097	0.547124
C59	C	0.490196	-0.050764	0.880458
C60	C	0.823529	0.282570	1.213791
C61	C	0.124253	-0.213522	0.514606
C62	C	0.457586	0.119812	0.847939
C63	C	0.790920	0.453145	1.181272
C64	C	0.124277	-0.416652	0.514606
C65	C	0.457610	-0.083319	0.847940
C66	C	0.790943	0.250015	1.181273
C67	C	0.175110	-0.365866	0.565335
C68	C	0.508444	-0.032533	0.898668
C69	C	0.841777	0.300801	1.232002
C70	C	0.352285	-0.384669	0.490824
C71	C	0.685619	-0.051336	0.824157
C72	C	1.018952	0.281997	1.157490
C73	C	0.401998	-0.401229	0.474223
C74	C	0.735332	-0.067896	0.807556
C75	C	1.068665	0.265437	1.140890
C76	C	0.402027	-0.481671	0.504898
C77	C	0.735361	-0.148337	0.838231
C78	C	1.068694	0.184996	1.171565
C79	C	0.352316	-0.465109	0.521500
C80	C	0.685649	-0.131776	0.854833
C81	C	1.018982	0.201557	1.188167
C82	C	0.136220	-0.188652	0.465734
C83	C	0.469554	0.144681	0.799068
C84	C	0.802887	0.478014	1.132401
C85	C	0.119621	-0.138936	0.449181
C86	C	0.452955	0.194397	0.782515
C87	C	0.786288	0.527731	1.115848
C88	C	0.079092	-0.138961	0.530374
C89	C	0.412425	0.194372	0.863707
C90	C	0.745758	0.527705	1.197040
C91	C	0.095691	-0.188678	0.546927
C92	C	0.429024	0.144656	0.880260
C93	C	0.762357	0.477989	1.213593
C94	C	0.075398	-0.404656	0.526651
C95	C	0.408731	-0.071323	0.859985
C96	C	0.742065	0.262011	1.193318
C97	C	0.058814	-0.421229	0.510091
C98	C	0.392147	-0.087896	0.843424
C99	C	0.725481	0.245437	1.176758
C100	C	0.139984	-0.461794	0.469452
C101	C	0.473317	-0.128461	0.802786
C102	C	0.806650	0.204872	1.136119
C103	C	0.156570	-0.445221	0.486007
C104	C	0.489903	-0.111888	0.819340
C105	C	0.823236	0.221446	1.152673
C106	C	0.075593	-0.404694	0.742565
C107	C	0.408926	-0.071360	1.075898
C108	C	0.742259	0.261973	1.409231
C109	C	0.059066	-0.421281	0.792280
C110	C	0.392399	-0.087948	1.125613
C111	C	0.725733	0.245385	1.458946
C112	C	0.140274	-0.461856	0.792215
C113	C	0.473607	-0.128522	1.125549
C114	C	0.806941	0.204811	1.458882
C115	C	0.156800	-0.445269	0.742499
C116	C	0.490133	-0.111936	1.075832
C117	C	0.823466	0.221398	1.409166
C118	C	0.124458	-0.416687	0.717675
C119	C	0.457791	-0.083353	1.051008
C120	C	0.791125	0.249980	1.384342
C121	C	0.327446	-0.416608	0.514460
C122	C	0.660779	-0.083275	0.847794
C123	C	0.994113	0.250058	1.181127
C124	C	-0.023585	-0.564792	0.161919
C125	C	0.309748	-0.231458	0.495253
C126	C	0.643081	0.101875	0.828586
C127	C	-0.023910	-0.769260	0.366530
C128	C	0.309423	-0.435927	0.699863
C129	C	0.642756	-0.102594	1.033197
C130	C	-0.023880	-0.564780	0.366623
C131	C	0.309454	-0.231447	0.699957
C132	C	0.642787	0.101886	1.033290
C133	C	-0.228325	-0.564561	0.366222
C134	C	0.105008	-0.231228	0.699555
C135	C	0.438341	0.102105	1.032888
C136	C	-0.129610	-0.597564	0.333467
C137	C	0.203723	-0.264230	0.666800
C138	C	0.537056	0.069103	1.000134
C139	C	-0.056729	-0.597644	0.333613
C140	C	0.276604	-0.264311	0.666946
C141	C	0.609937	0.069022	1.000279
C142	C	-0.074925	-0.615849	0.315324
C143	C	0.258409	-0.282516	0.648657
C144	C	0.591742	0.050817	0.981991
C145	C	-0.088689	-0.695351	0.357144
C146	C	0.244644	-0.362018	0.690478
C147	C	0.577978	-0.028685	1.023811
C148	C	-0.072155	-0.745068	0.373736
C149	C	0.261178	-0.411735	0.707069
C150	C	0.594511	-0.078401	1.040402
C151	C	0.008283	-0.745150	0.343188
C152	C	0.341616	-0.411817	0.676522
C153	C	0.674950	-0.078484	1.009855
C154	C	-0.008252	-0.695435	0.326596
C155	C	0.325081	-0.362101	0.659929
C156	C	0.658414	-0.028768	0.993263
C157	C	-0.154529	-0.609541	0.382326
C158	C	0.178805	-0.276208	0.715660
C159	C	0.512138	0.057125	1.048993
C160	C	-0.204241	-0.592916	0.398818
C161	C	0.129092	-0.259583	0.732151
C162	C	0.462425	0.073751	1.065484
C163	C	-0.204114	-0.552341	0.317588
C164	C	0.129220	-0.219007	0.650921
C165	C	0.462553	0.114326	0.984254
C166	C	-0.154401	-0.568966	0.301096
C167	C	0.178932	-0.235632	0.634430
C168	C	0.512266	0.097701	0.967763
C169	C	-0.068707	-0.548770	0.321590
C170	C	0.264626	-0.215436	0.654923
C171	C	0.597959	0.117897	0.988256
C172	C	-0.052166	-0.532225	0.338221
C173	C	0.281167	-0.198891	0.671554
C174	C	0.614500	0.134442	1.004888
C175	C	-0.011669	-0.613425	0.378886
C176	C	0.321665	-0.280091	0.712220
C177	C	0.654998	0.053242	1.045553
C178	C	-0.028210	-0.629972	0.362261
C179	C	0.305124	-0.296638	0.695594
C180	C	0.638457	0.036695	1.028927
C181	C	-0.068581	-0.548777	0.235758
C182	C	0.264752	-0.215444	0.569091
C183	C	0.598086	0.117890	0.902424
C184	C	-0.051939	-0.532234	0.186043
C185	C	0.281395	-0.198900	0.519376
C186	C	0.614728	0.134433	0.852709
C187	C	-0.011379	-0.613438	0.186090
C188	C	0.321955	-0.280105	0.519423
C189	C	0.655288	0.053228	0.852757
C190	C	-0.028020	-0.629981	0.235806
C191	C	0.305313	-0.296647	0.569140
C192	C	0.638647	0.036686	0.902473
C193	C	-0.056622	-0.597649	0.260639
C194	C	0.276711	-0.264315	0.593972
C195	C	0.610044	0.069018	0.927305
C196	C	-0.056739	-0.670537	0.333576
C197	C	0.276595	-0.337204	0.666909
C198	C	0.609928	-0.003870	1.000243
C199	C	-0.005614	-0.545951	0.107238
C200	C	0.327719	-0.212618	0.440571
C201	C	0.661052	0.120716	0.773905
C202	C	-0.006360	-0.823943	0.385033
C203	C	0.326973	-0.490610	0.718366
C204	C	0.660307	-0.157277	1.051699
C205	C	-0.005995	-0.545937	0.384582
C206	C	0.327338	-0.212604	0.717915
C207	C	0.660671	0.120730	1.051248
C208	C	-0.283006	-0.545971	0.383725
C209	C	0.050328	-0.212637	0.717058
C210	C	0.383661	0.120696	1.050391
N211	N	0.426163	-0.449489	0.481488
N212	N	0.759496	-0.116155	0.814821
N213	N	1.092829	0.217178	1.148155
O214	O	0.588601	-0.457377	0.364497
O215	O	0.921934	-0.124043	0.697830
O216	O	1.255268	0.209290	1.031163
O217	O	0.588789	-0.549696	0.489801
O218	O	0.922122	-0.216362	0.823134
O219	O	1.255456	0.116971	1.156468
O220	O	0.588709	-0.549485	0.410335
O221	O	0.922042	-0.216151	0.743668
O222	O	1.255375	0.117182	1.077002
O223	O	0.588681	-0.457588	0.443963
O224	O	0.922015	-0.124254	0.777296
O225	O	1.255348	0.209079	1.110629
O226	O	0.509731	-0.523223	0.436741
O227	O	0.843064	-0.189890	0.770074
O228	O	1.176398	0.143444	1.103408
O229	O	0.509811	-0.523434	0.516207
O230	O	0.843145	-0.190101	0.849540
O231	O	1.176478	0.143233	1.182874
O232	O	0.509624	-0.431115	0.390903
O233	O	0.842957	-0.097782	0.724236
O234	O	1.176290	0.235552	1.057569
Zn235	Zn	0.497178	-0.473105	0.457747
Zn236	Zn	0.830511	-0.139772	0.791081
Zn237	Zn	1.163845	0.193562	1.124414
Zn238	Zn	0.601234	-0.507706	0.422956
Zn239	Zn	0.934568	-0.174372	0.756290
Zn240	Zn	1.267901	0.158961	1.089623
O241	O	0.509704	-0.431326	0.470368
O242	O	0.843037	-0.097993	0.803702
O243	O	1.176371	0.235341	1.137035
N244	N	0.672250	-0.531322	0.399211
N245	N	1.005583	-0.197989	0.732544
N246	N	1.338917	0.135344	1.065877
N247	N	0.091303	-0.114798	0.481730
N248	N	0.424637	0.218535	0.815063
N249	N	0.757970	0.551869	1.148397
O250	O	-0.025603	0.047729	0.473733
O251	O	0.307731	0.381062	0.807066
O252	O	0.641064	0.714395	1.140400
O253	O	0.099703	0.047764	0.381394
O254	O	0.433037	0.381097	0.714727
O255	O	0.766370	0.714431	1.048061
O256	O	0.020199	0.047731	0.381655
O257	O	0.353533	0.381065	0.714988
O258	O	0.686866	0.714398	1.048321
O259	O	0.053901	0.047761	0.473472
O260	O	0.387235	0.381095	0.806805
O261	O	0.720568	0.714428	1.140139
O262	O	0.046564	-0.031252	0.407974
O263	O	0.379897	0.302081	0.741307
O264	O	0.713230	0.635415	1.074641
O265	O	0.126068	-0.031219	0.407713
O266	O	0.459401	0.302114	0.741046
O267	O	0.792735	0.635447	1.074380
O268	O	0.000762	-0.031254	0.500052
O269	O	0.334095	0.302079	0.833385
O270	O	0.667428	0.635412	1.166719
Zn271	Zn	0.067601	-0.043777	0.458061
Zn272	Zn	0.400934	0.289556	0.791395
Zn273	Zn	0.734267	0.622890	1.124728
Zn274	Zn	0.032864	0.060287	0.423385
Zn275	Zn	0.366198	0.393620	0.756718
Zn276	Zn	0.699531	0.726953	1.090051
O277	O	0.080266	-0.031222	0.499791
O278	O	0.413599	0.302111	0.833125
O279	O	0.746933	0.635445	1.166458
N280	N	0.009156	0.131307	0.399717
N281	N	0.342489	0.464641	0.733050
N282	N	0.675823	0.797974	1.066384
N283	N	0.091635	-0.449614	0.816396
N284	N	0.424968	-0.116281	1.149729
N285	N	0.758301	0.217052	1.483063
O286	O	0.083664	-0.566502	0.978913
O287	O	0.416997	-0.233169	1.312246
O288	O	0.750330	0.100165	1.645579
O289	O	-0.008637	-0.441152	0.978954
O290	O	0.324697	-0.107818	1.312287
O291	O	0.658030	0.225515	1.645620
O292	O	-0.008421	-0.520640	0.978930
O293	O	0.324912	-0.187307	1.312264
O294	O	0.658246	0.146027	1.645597
O295	O	0.083448	-0.487013	0.978936
O296	O	0.416781	-0.153680	1.312269
O297	O	0.750115	0.179653	1.645603
O298	O	0.017877	-0.494296	0.899950
O299	O	0.351210	-0.160962	1.233284
O300	O	0.684543	0.172371	1.566617
O301	O	0.017661	-0.414807	0.899974
O302	O	0.350994	-0.081474	1.233307
O303	O	0.684328	0.251860	1.566640
O304	O	0.109961	-0.540157	0.899933
O305	O	0.443295	-0.206824	1.233266
O306	O	0.776628	0.126509	1.566599
Zn307	Zn	0.067986	-0.473299	0.887414
Zn308	Zn	0.401320	-0.139966	1.220747
Zn309	Zn	0.734653	0.193367	1.554080
Zn310	Zn	0.033338	-0.508010	0.991473
Zn311	Zn	0.366672	-0.174676	1.324806
Zn312	Zn	0.700005	0.158657	1.658140
O313	O	0.109746	-0.460669	0.899956
O314	O	0.443079	-0.127336	1.233290
O315	O	0.776412	0.205998	1.566623
N316	N	0.009689	-0.531700	1.062491
N317	N	0.343022	-0.198366	1.395824
N318	N	0.676356	0.134967	1.729157
C319	C	0.030367	-0.412095	0.382120
C320	C	0.363700	-0.078761	0.715454
C321	C	0.697034	0.254572	1.048787
C322	C	0.128741	-0.510370	0.382016
C323	C	0.462075	-0.177037	0.715349
C324	C	0.795408	0.156296	1.048682
C325	C	0.070168	-0.569147	0.499490
C326	C	0.403501	-0.235814	0.832824
C327	C	0.736834	0.097520	1.166157
C328	C	-0.028207	-0.470871	0.499595
C329	C	0.305127	-0.137538	0.832928
C330	C	0.638460	0.195795	1.166262
C331	C	0.549323	-0.549278	0.518791
C332	C	0.882656	-0.215944	0.852124
C333	C	1.215989	0.117389	1.185457
C334	C	0.549225	-0.549017	0.420381
C335	C	0.882558	-0.215684	0.753715
C336	C	1.215891	0.117650	1.087048
C337	C	0.549087	-0.431532	0.361914
C338	C	0.882421	-0.098199	0.695247
C339	C	1.215754	0.235135	1.028581
C340	C	0.549188	-0.431794	0.460322
C341	C	0.882522	-0.098461	0.793655
C342	C	1.215855	0.234873	1.126989
C343	C	0.128638	0.008374	0.381806
C344	C	0.461972	0.341707	0.715139
C345	C	0.795305	0.675041	1.048472
C346	C	0.030215	0.008236	0.382161
C347	C	0.363548	0.341570	0.715494
C348	C	0.696882	0.674903	1.048828
C349	C	-0.028206	0.008233	0.499608
C350	C	0.305127	0.341567	0.832941
C351	C	0.638460	0.674900	1.166274
C352	C	0.070250	0.008272	0.499285
C353	C	0.403584	0.341606	0.832619
C354	C	0.736917	0.674939	1.165952
C355	C	-0.008199	-0.412187	0.939469
C356	C	0.325134	-0.078854	1.272802
C357	C	0.658468	0.254479	1.606136
C358	C	-0.007927	-0.510619	0.939425
C359	C	0.325407	-0.177286	1.272758
C360	C	0.658740	0.156048	1.606091
C361	C	0.109523	-0.569121	0.939417
C362	C	0.442857	-0.235788	1.272751
C363	C	0.776190	0.097545	1.606084
C364	C	0.109257	-0.470684	0.939444
C365	C	0.442591	-0.137351	1.272778
C366	C	0.775924	0.195983	1.606111
H367	H	0.019274	-0.411508	0.812539
H368	H	0.352608	-0.078174	1.145873
H369	H	0.685941	0.255159	1.479206
H370	H	0.164551	0.008603	0.352745
H371	H	0.497884	0.341937	0.686079
H372	H	0.831217	0.675270	1.019412
O373	O	0.079813	0.008277	0.537497
O374	O	0.413146	0.341611	0.870831
O375	O	0.746479	0.674944	1.204164
H376	H	0.054204	0.040468	0.547585
H377	H	0.387538	0.373801	0.880919
H378	H	0.720871	0.707134	1.214252
H379	H	0.138503	-0.605120	0.939399
H380	H	0.471836	-0.271786	1.272732
H381	H	0.805170	0.061547	1.606065
O382	O	0.176433	-0.519761	0.343670
O383	O	0.509766	-0.186428	0.677004
O384	O	0.843100	0.146905	1.010337
H385	H	0.176487	-0.487625	0.311443
H386	H	0.509821	-0.154292	0.644776
H387	H	0.843154	0.179041	0.978110
H388	H	-0.064213	-0.463781	0.528541
H389	H	0.269121	-0.130447	0.861874
H390	H	0.602454	0.202886	1.195207
O391	O	0.147493	-0.461158	0.939439
O392	O	0.480826	-0.127825	1.272772
O393	O	0.814159	0.205509	1.606106
H394	H	0.133906	-0.424412	0.939446
H395	H	0.467240	-0.091079	1.272779
H396	H	0.800573	0.242255	1.606113
H397	H	-0.064192	0.008222	0.528596
H398	H	0.269141	0.341556	0.861929
H399	H	0.602475	0.674889	1.195262
O400	O	-0.046588	-0.364504	0.939488
O401	O	0.286745	-0.031171	1.272821
O402	O	0.620078	0.302163	1.606155
H403	H	-0.033165	-0.341214	0.939499
H404	H	0.300169	-0.007881	1.272832
H405	H	0.633502	0.325452	1.606165
O406	O	0.079653	-0.616877	0.537774
O407	O	0.412986	-0.283544	0.871107
O408	O	0.746319	0.049790	1.204441
H409	H	0.047556	-0.617003	0.570035
H410	H	0.380889	-0.283670	0.903369
H411	H	0.714223	0.049664	1.236702
O412	O	0.549390	-0.587672	0.566459
O413	O	0.882723	-0.254339	0.899793
O414	O	1.216056	0.078995	1.233126
H415	H	0.549406	-0.574242	0.589745
H416	H	0.882739	-0.240909	0.923078
H417	H	1.216072	0.092424	1.256412
O418	O	-0.046142	-0.520132	0.939379
O419	O	0.287191	-0.186799	1.272712
O420	O	0.620524	0.146535	1.606045
H421	H	-0.078421	-0.488043	0.939382
H422	H	0.254913	-0.154709	1.272715
H423	H	0.588246	0.178624	1.606048
O424	O	0.549238	-0.587261	0.410857
O425	O	0.882571	-0.253927	0.744190
O426	O	1.215905	0.079406	1.077523
H427	H	0.549188	-0.573670	0.374125
H428	H	0.882521	-0.240337	0.707459
H429	H	1.215855	0.092997	1.040792
H430	H	0.549182	-0.402927	0.467517
H431	H	0.882516	-0.069594	0.800850
H432	H	1.215849	0.263739	1.134183
O433	O	0.040709	-0.373860	0.715792
O434	O	0.374042	-0.040527	1.049125
O435	O	0.707375	0.292806	1.382458
H436	H	0.018069	-0.393600	0.725345
H437	H	0.351402	-0.060266	1.058679
H438	H	0.684736	0.273067	1.392012
O439	O	0.175155	-0.492680	0.818992
O440	O	0.508489	-0.159347	1.152325
O441	O	0.841822	0.173986	1.485658
H442	H	0.211912	-0.498236	0.793332
H443	H	0.545245	-0.164902	1.126666
H444	H	0.878579	0.168431	1.459999
O445	O	0.549021	-0.393138	0.314245
O446	O	0.882354	-0.059805	0.647578
O447	O	1.215687	0.273529	0.980912
H448	H	0.549012	-0.406570	0.290957
H449	H	0.882345	-0.073237	0.624290
H450	H	1.215679	0.260096	0.957624
H451	H	0.196592	-0.455039	0.722237
H452	H	0.529926	-0.121705	1.055570
H453	H	0.863259	0.211628	1.388903
O454	O	0.020657	0.008232	0.343945
O455	O	0.353990	0.341566	0.677279
O456	O	0.687324	0.674899	1.010612
H457	H	0.011865	-0.023967	0.356799
H458	H	0.345199	0.309366	0.690133
H459	H	0.678532	0.642699	1.023466
O460	O	0.040569	-0.373848	0.557502
O461	O	0.373903	-0.040514	0.890835
O462	O	0.707236	0.292819	1.224168
H463	H	0.003795	-0.368289	0.563091
H464	H	0.337128	-0.034955	0.896424
H465	H	0.670462	0.298378	1.229757
H466	H	0.019013	-0.411451	0.519888
H467	H	0.352346	-0.078117	0.853221
H468	H	0.685680	0.255216	1.186554
H469	H	0.196371	-0.454985	0.476195
H470	H	0.529704	-0.121652	0.809528
H471	H	0.863037	0.211681	1.142861
O472	O	0.174815	-0.492610	0.438606
O473	O	0.508149	-0.159277	0.771939
O474	O	0.841482	0.174057	1.105272
H475	H	0.211590	-0.498164	0.433012
H476	H	0.544923	-0.164831	0.766345
H477	H	0.878256	0.168502	1.099679
H478	H	0.332093	-0.491119	0.540748
H479	H	0.665427	-0.157786	0.874082
H480	H	0.998760	0.175547	1.207415
H481	H	0.422274	-0.521162	0.510626
H482	H	0.755607	-0.187829	0.843960
H483	H	1.088941	0.145504	1.177293
H484	H	0.332037	-0.345175	0.485091
H485	H	0.665371	-0.011842	0.818425
H486	H	0.998704	0.321492	1.151758
O487	O	0.428796	-0.366783	0.448728
O488	O	0.762129	-0.033449	0.782062
O489	O	1.095462	0.299884	1.115395
H490	H	0.419227	-0.340200	0.416465
H491	H	0.752560	-0.006866	0.749798
H492	H	1.085893	0.326467	1.083131
O493	O	0.167027	-0.215449	0.430876
O494	O	0.500361	0.117884	0.764209
O495	O	0.833694	0.451217	1.097542
H496	H	0.147267	-0.205914	0.408256
H497	H	0.480601	0.127419	0.741589
H498	H	0.813934	0.460753	1.074922
O499	O	0.132531	-0.112109	0.396468
O500	O	0.465864	0.221225	0.729801
O501	O	0.799198	0.554558	1.063134
H502	H	0.119150	-0.121655	0.380195
H503	H	0.452483	0.211679	0.713528
H504	H	0.785817	0.545012	1.046861
O505	O	0.048289	-0.112161	0.565231
O506	O	0.381622	0.221172	0.898565
O507	O	0.714955	0.554506	1.231898
H508	H	0.042758	-0.137808	0.601997
H509	H	0.376091	0.195525	0.935330
H510	H	0.709425	0.528858	1.268664
O511	O	0.020886	-0.364364	0.343836
O512	O	0.354220	-0.031031	0.677170
O513	O	0.687553	0.302303	1.010503
H514	H	0.025036	-0.369206	0.312317
H515	H	0.358369	-0.035873	0.645650
H516	H	0.691702	0.297461	0.978983
O517	O	0.082718	-0.215502	0.599639
O518	O	0.416051	0.117831	0.932972
O519	O	0.749384	0.451165	1.266305
H520	H	0.060045	-0.189872	0.619330
H521	H	0.393379	0.143461	0.952663
H522	H	0.726712	0.476795	1.285997
H523	H	-0.061683	-0.492436	0.165791
H524	H	0.271650	-0.159103	0.499124
H525	H	0.604984	0.174231	0.832457
H526	H	0.011902	-0.639768	0.165877
H527	H	0.345235	-0.306435	0.499210
H528	H	0.678569	0.026898	0.832543
O529	O	-0.099428	-0.513904	0.262543
O530	O	0.233905	-0.180571	0.595877
O531	O	0.567238	0.152763	0.929210
H532	H	-0.104946	-0.477140	0.236890
H533	H	0.228387	-0.143807	0.570223
H534	H	0.561721	0.189526	0.903556
H535	H	-0.091926	-0.522444	0.298262
H536	H	0.241407	-0.189111	0.631595
H537	H	0.574741	0.144223	0.964929
O538	O	-0.015121	-0.682695	0.262643
O539	O	0.318212	-0.349362	0.595976
O540	O	0.651546	-0.016029	0.929310
H541	H	0.007558	-0.702396	0.237022
H542	H	0.340892	-0.369063	0.570355
H543	H	0.674225	-0.035730	0.903688
H544	H	0.011557	-0.639751	0.402207
H545	H	0.344890	-0.306418	0.735540
H546	H	0.678223	0.026915	1.068874
O547	O	-0.064999	-0.479510	0.325176
O548	O	0.268334	-0.146177	0.658510
O549	O	0.601667	0.187156	0.991843
H550	H	-0.087575	-0.459809	0.302428
H551	H	0.245758	-0.126476	0.635761
H552	H	0.579091	0.206857	0.969094
H553	H	-0.018458	-0.669769	0.372051
H554	H	0.314876	-0.336436	0.705384
H555	H	0.648209	-0.003103	1.038718
H556	H	0.047765	-0.765423	0.337508
H557	H	0.381098	-0.432090	0.670841
H558	H	0.714431	-0.098757	1.004174
O559	O	0.026208	-0.668667	0.301180
O560	O	0.359542	-0.335334	0.634513
O561	O	0.692875	-0.002000	0.967846
H562	H	0.062701	-0.694334	0.299122
H563	H	0.396034	-0.361001	0.632455
H564	H	0.729367	-0.027668	0.965788
H565	H	-0.128170	-0.675084	0.362831
H566	H	0.205163	-0.341750	0.696165
H567	H	0.538496	-0.008417	1.029498
O568	O	-0.106614	-0.771836	0.399160
O569	O	0.226719	-0.438503	0.732493
O570	O	0.560052	-0.105169	1.065827
H571	H	-0.143109	-0.746170	0.401231
H572	H	0.190224	-0.412837	0.734564
H573	H	0.523558	-0.079504	1.067897
H574	H	-0.224531	-0.602667	0.438605
H575	H	0.108802	-0.269333	0.771939
H576	H	0.442136	0.064000	1.105272
O577	O	-0.127778	-0.640390	0.417229
O578	O	0.205555	-0.307057	0.750562
O579	O	0.538888	0.026277	1.083896
H580	H	-0.137333	-0.620655	0.439880
H581	H	0.196000	-0.287322	0.773214
H582	H	0.529334	0.046011	1.106547
O583	O	-0.230858	-0.521498	0.282678
O584	O	0.102475	-0.188165	0.616011
O585	O	0.435809	0.145169	0.949344
H586	H	-0.205178	-0.515965	0.245930
H587	H	0.128155	-0.182632	0.579263
H588	H	0.461488	0.150701	0.912597
H589	H	-0.134111	-0.559208	0.261309
H590	H	0.199222	-0.225874	0.594642
H591	H	0.532555	0.107459	0.927975
