data_functionalizedCrystal
_audit_creation_method	'MofGen! by Chris Wilmer'
_symmetry_space_group_name_H-M	'P1'
_symmetry_Int_Tables_number	1
_symmetry_cell_setting	triclinic
loop_
_symmetry_equiv_pos_as_xyz
  x,y,z
_cell_length_a	27.732048
_cell_length_b	27.732025
_cell_length_c	26.210047
_cell_angle_alpha	89.981000
_cell_angle_beta	90.003465
_cell_angle_gamma	82.638061
loop_
_atom_site_label
_atom_site_type_symbol
_atom_site_fract_x
_atom_site_fract_y
_atom_site_fract_z
O1	O	0.640926	0.057511	0.042348
O2	O	0.974260	0.390844	0.375681
O3	O	1.307593	0.724177	0.709015
O4	O	0.500132	0.066256	0.042361
O5	O	0.833466	0.399590	0.375694
O6	O	1.166799	0.732923	0.709028
O7	O	0.574908	-0.008514	0.042370
O8	O	0.908241	0.324819	0.375703
O9	O	1.241575	0.658153	0.709036
O10	O	0.566151	0.132281	0.042339
O11	O	0.899484	0.465614	0.375673
O12	O	1.232818	0.798948	0.709006
O13	O	0.574893	-0.008502	-0.042488
O14	O	0.908227	0.324831	0.290845
O15	O	1.241560	0.658164	0.624178
O16	O	0.500118	0.066268	-0.042497
O17	O	0.833451	0.399601	0.290836
O18	O	1.166785	0.732935	0.624170
O19	O	0.640912	0.057522	-0.042510
O20	O	0.974245	0.390856	0.290823
O21	O	1.307579	0.724189	0.624157
Cu22	Cu	0.570514	0.061896	-0.050252
Cu23	Cu	0.903847	0.395230	0.283082
Cu24	Cu	1.237180	0.728563	0.616415
Cu25	Cu	0.570531	0.061882	0.050103
Cu26	Cu	0.903864	0.395216	0.383436
Cu27	Cu	1.237197	0.728549	0.716769
O28	O	0.566137	0.132293	-0.042519
O29	O	0.899470	0.465626	0.290815
O30	O	1.232803	0.798959	0.624148
C31	C	0.482118	0.066079	-0.000066
C32	C	0.815452	0.399412	0.333267
C33	C	1.148785	0.732745	0.666601
C34	C	0.428463	0.065526	-0.000060
C35	C	0.761797	0.398859	0.333273
C36	C	1.095130	0.732192	0.666607
C37	C	0.574719	-0.026515	-0.000054
C38	C	0.908052	0.306818	0.333279
C39	C	1.241385	0.640151	0.666612
C40	C	0.574170	-0.080171	-0.000039
C41	C	0.907503	0.253163	0.333294
C42	C	1.240837	0.586496	0.666628
C43	C	0.089645	0.106230	-0.000091
C44	C	0.422978	0.439563	0.333242
C45	C	0.756312	0.772897	0.666576
C46	C	-0.112014	0.104179	-0.000095
C47	C	0.221319	0.437512	0.333238
C48	C	0.554652	0.770846	0.666572
O49	O	-0.143273	0.141400	-0.000125
O50	O	0.190060	0.474733	0.333208
O51	O	0.523394	0.808067	0.666542
N52	N	-0.131135	0.059843	-0.000085
N53	N	0.202199	0.393177	0.333249
N54	N	0.535532	0.726510	0.666582
C55	C	-0.099836	0.016017	-0.000076
C56	C	0.233497	0.349350	0.333257
C57	C	0.566830	0.682684	0.666590
O58	O	-0.120726	-0.021740	-0.000073
O59	O	0.212607	0.311593	0.333260
O60	O	0.545940	0.644927	0.666594
C61	C	0.101822	0.018069	-0.000076
C62	C	0.435155	0.351402	0.333257
C63	C	0.768489	0.684735	0.666591
C64	C	0.120939	0.062407	-0.000081
C65	C	0.454273	0.395741	0.333252
C66	C	0.787606	0.729074	0.666585
C67	C	0.108763	0.150565	-0.000097
C68	C	0.442096	0.483898	0.333237
C69	C	0.775429	0.817232	0.666570
C70	C	0.159175	0.151077	-0.000093
C71	C	0.492508	0.484411	0.333240
C72	C	0.825841	0.817744	0.666574
C73	C	0.190469	0.107255	-0.000083
C74	C	0.523802	0.440588	0.333250
C75	C	0.857135	0.773921	0.666583
C76	C	0.171351	0.062920	-0.000077
C77	C	0.504684	0.396253	0.333256
C78	C	0.838018	0.729586	0.666589
C79	C	0.133119	-0.025757	-0.000072
C80	C	0.466453	0.307576	0.333262
C81	C	0.799786	0.640910	0.666595
C82	C	0.183537	-0.025240	-0.000073
C83	C	0.516870	0.308093	0.333261
C84	C	0.850203	0.641427	0.666594
C85	C	0.202654	0.019099	-0.000078
C86	C	0.535987	0.352432	0.333255
C87	C	0.869320	0.685765	0.666589
C88	C	0.253057	0.019609	-0.000064
C89	C	0.586391	0.352942	0.333269
C90	C	0.919724	0.686276	0.666603
N91	N	0.272177	0.063945	-0.000074
N92	N	0.605511	0.397278	0.333259
N93	N	0.938844	0.730611	0.666592
C94	C	0.240883	0.107768	-0.000084
C95	C	0.574217	0.441101	0.333249
C96	C	0.907550	0.774434	0.666583
C97	C	-0.205710	0.014943	-0.000076
C98	C	0.127623	0.348277	0.333258
C99	C	0.460956	0.681610	0.666591
C100	C	-0.256125	0.014430	-0.000075
C101	C	0.077209	0.347764	0.333258
C102	C	0.410542	0.681097	0.666592
C103	C	-0.268299	0.102592	-0.000094
C104	C	0.065034	0.435926	0.333239
C105	C	0.398367	0.769259	0.666572
C106	C	-0.217884	0.103105	-0.000092
C107	C	0.115449	0.436438	0.333242
C108	C	0.448783	0.769771	0.666575
C109	C	-0.186590	0.059279	-0.000086
C110	C	0.146743	0.392612	0.333247
C111	C	0.480076	0.725946	0.666581
C112	C	0.346752	0.108840	-0.000076
C113	C	0.680086	0.442173	0.333258
C114	C	1.013419	0.775507	0.666591
C115	C	0.397169	0.109348	-0.000070
C116	C	0.730503	0.442682	0.333264
C117	C	1.063836	0.776015	0.666597
C118	C	0.409339	0.021187	-0.000053
C119	C	0.742673	0.354520	0.333280
C120	C	1.076006	0.687853	0.666614
C121	C	0.358927	0.020678	-0.000056
C122	C	0.692260	0.354011	0.333277
C123	C	1.025594	0.687345	0.666611
C124	C	0.327634	0.064509	-0.000069
C125	C	0.660967	0.397842	0.333264
C126	C	0.994301	0.731175	0.666597
O127	O	0.284344	-0.017592	-0.000040
O128	O	0.617678	0.315741	0.333294
O129	O	0.951011	0.649075	0.666627
O130	O	0.261783	0.145519	-0.000099
O131	O	0.595116	0.478853	0.333234
O132	O	0.928449	0.812186	0.666568
C133	C	0.039233	0.105718	-0.000095
C134	C	0.372566	0.439051	0.333239
C135	C	0.705900	0.772384	0.666572
C136	C	0.020115	0.061383	-0.000089
C137	C	0.353449	0.394716	0.333244
C138	C	0.686782	0.728049	0.666578
C139	C	0.051410	0.017560	-0.000079
C140	C	0.384743	0.350893	0.333254
C141	C	0.718076	0.684227	0.666587
C142	C	-0.030299	0.060870	-0.000088
C143	C	0.303034	0.394203	0.333245
C144	C	0.636368	0.727536	0.666579
C145	C	-0.061593	0.104692	-0.000098
C146	C	0.271740	0.438026	0.333236
C147	C	0.605073	0.771359	0.666569
C148	C	-0.042473	0.149028	-0.000108
C149	C	0.290860	0.482361	0.333225
C150	C	0.624194	0.815695	0.666559
C151	C	0.007939	0.149540	-0.000104
C152	C	0.341272	0.482874	0.333229
C153	C	0.674606	0.816207	0.666562
C154	C	0.032289	-0.026776	-0.000069
C155	C	0.365623	0.306558	0.333265
C156	C	0.698956	0.639891	0.666598
C157	C	-0.018123	-0.027284	-0.000072
C158	C	0.315210	0.306049	0.333261
C159	C	0.648544	0.639382	0.666595
C160	C	-0.049417	0.016538	-0.000082
C161	C	0.283916	0.349872	0.333252
C162	C	0.617249	0.683205	0.666585
C163	C	0.570281	-0.463343	0.046188
C164	C	0.903615	-0.130009	0.379521
C165	C	1.236948	0.203324	0.712854
C166	C	0.572334	-0.261683	0.046204
C167	C	0.905667	0.071650	0.379537
C168	C	1.239000	0.404983	0.712871
O169	O	0.572625	-0.235621	0.085544
O170	O	0.905958	0.097712	0.418878
O171	O	1.239292	0.431045	0.752211
N172	N	0.572582	-0.236456	-0.000051
N173	N	0.905916	0.096878	0.333282
N174	N	1.239249	0.430211	0.666616
C175	C	0.572321	-0.261646	-0.046313
C176	C	0.905655	0.071687	0.287020
C177	C	1.238988	0.405020	0.620354
O178	O	0.572585	-0.235562	-0.085655
O179	O	0.905918	0.097771	0.247678
O180	O	1.239252	0.431104	0.581012
C181	C	0.570272	-0.463305	-0.046329
C182	C	0.903606	-0.129972	0.287005
C183	C	1.236939	0.203361	0.620338
C184	C	0.570019	-0.488530	-0.000071
C185	C	0.903352	-0.155196	0.333262
C186	C	1.236685	0.178137	0.666596
C187	C	0.570028	-0.488567	0.092442
C188	C	0.903361	-0.155234	0.425775
C189	C	1.236695	0.178100	0.759108
C190	C	0.569512	-0.538979	0.092437
C191	C	0.902846	-0.205645	0.425771
C192	C	1.236179	0.127688	0.759104
C193	C	0.569250	-0.564166	0.046179
C194	C	0.902583	-0.230832	0.379512
C195	C	1.235916	0.102501	0.712845
C196	C	0.569503	-0.538941	-0.000075
C197	C	0.902836	-0.205608	0.333258
C198	C	1.236169	0.127725	0.666591
C199	C	0.570014	-0.488496	-0.092590
C200	C	0.903348	-0.155162	0.240743
C201	C	1.236681	0.178171	0.574076
C202	C	0.569503	-0.538914	-0.092590
C203	C	0.902837	-0.205581	0.240743
C204	C	1.236170	0.127753	0.574077
C205	C	0.569250	-0.564138	-0.046332
C206	C	0.902583	-0.230805	0.287001
C207	C	1.235916	0.102528	0.620334
C208	C	0.568724	-0.614540	-0.046339
C209	C	0.902058	-0.281206	0.286995
C210	C	1.235391	0.052127	0.620328
N211	N	0.568476	-0.639767	-0.000084
N212	N	0.901809	-0.306434	0.333250
N213	N	1.235142	0.026899	0.666583
C214	C	0.568738	-0.614580	0.046175
C215	C	0.902072	-0.281247	0.379508
C216	C	1.235405	0.052086	0.712841
C217	C	0.573396	-0.155772	-0.046301
C218	C	0.906729	0.177561	0.287032
C219	C	1.240063	0.510894	0.620365
C220	C	0.573907	-0.105358	-0.046298
C221	C	0.907241	0.227975	0.287036
C222	C	1.240574	0.561309	0.620369
C223	C	0.573921	-0.105398	0.046219
C224	C	0.907254	0.227935	0.379553
C225	C	1.240587	0.561268	0.712886
C226	C	0.573406	-0.155813	0.046215
C227	C	0.906739	0.177520	0.379548
C228	C	1.240073	0.510853	0.712882
C229	C	0.573147	-0.181000	-0.000047
C230	C	0.906481	0.152333	0.333287
C231	C	1.239814	0.485667	0.666620
C232	C	0.567655	-0.720448	0.046162
C233	C	0.900988	-0.387115	0.379495
C234	C	1.234321	-0.053781	0.712828
C235	C	0.567137	-0.770864	0.046153
C236	C	0.900470	-0.437530	0.379487
C237	C	1.233804	-0.104197	0.712820
C238	C	0.567126	-0.770819	-0.046364
C239	C	0.900460	-0.437486	0.286970
C240	C	1.233793	-0.104152	0.620303
C241	C	0.567641	-0.720408	-0.046355
C242	C	0.900975	-0.387074	0.286978
C243	C	1.234308	-0.053741	0.620311
C244	C	0.567907	-0.695223	-0.000088
C245	C	0.901241	-0.361890	0.333245
C246	C	1.234574	-0.028557	0.666578
O247	O	0.568438	-0.640634	-0.085658
O248	O	0.901771	-0.307300	0.247675
O249	O	1.235105	0.026033	0.581008
O250	O	0.568485	-0.640675	0.085511
O251	O	0.901819	-0.307341	0.418844
O252	O	1.235152	0.025992	0.752178
C253	C	0.570797	-0.412931	0.046192
C254	C	0.904130	-0.079598	0.379526
C255	C	1.237464	0.253735	0.712859
C256	C	0.571050	-0.387707	-0.000062
C257	C	0.904383	-0.054373	0.333271
C258	C	1.237717	0.278960	0.666605
C259	C	0.570787	-0.412894	-0.046320
C260	C	0.904121	-0.079561	0.287013
C261	C	1.237454	0.253773	0.620346
C262	C	0.571561	-0.337292	-0.000058
C263	C	0.904895	-0.003959	0.333275
C264	C	1.238228	0.329374	0.666609
C265	C	0.571824	-0.312105	0.046201
C266	C	0.905157	0.021228	0.379534
C267	C	1.238491	0.354562	0.712867
C268	C	0.571575	-0.337333	0.092455
C269	C	0.904909	-0.003999	0.425789
C270	C	1.238242	0.329334	0.759122
C271	C	0.571060	-0.387744	0.092451
C272	C	0.904393	-0.054411	0.425784
C273	C	1.237726	0.278923	0.759117
C274	C	0.571036	-0.387666	-0.092575
C275	C	0.904369	-0.054333	0.240758
C276	C	1.237703	0.279000	0.574091
C277	C	0.571551	-0.337255	-0.092567
C278	C	0.904885	-0.003921	0.240766
C279	C	1.238218	0.329412	0.574100
C280	C	0.571814	-0.312068	-0.046308
C281	C	0.905147	0.021266	0.287025
C282	C	1.238481	0.354599	0.620358
C283	C	0.658926	0.057700	-0.000082
C284	C	0.992260	0.391033	0.333251
C285	C	1.325593	0.724367	0.666585
C286	C	0.712581	0.058253	-0.000085
C287	C	1.045914	0.391586	0.333249
C288	C	1.379248	0.724920	0.666582
C289	C	0.566326	0.150294	-0.000094
C290	C	0.899659	0.483627	0.333240
C291	C	1.232993	0.816961	0.666573
C292	C	0.566874	0.203949	-0.000105
C293	C	0.900208	0.537283	0.333228
C294	C	1.233541	0.870616	0.666561
N295	N	0.570505	0.061906	-0.120836
N296	N	0.903839	0.395239	0.212498
N297	N	1.237172	0.728572	0.545831
C298	C	0.603638	0.028782	-0.473346
C299	C	0.936971	0.362115	-0.140013
C300	C	1.270305	0.695448	0.193321
C301	C	0.603649	0.028775	-0.687005
C302	C	0.936982	0.362108	-0.353671
C303	C	1.270315	0.695441	-0.020338
O304	O	0.631801	0.000614	-0.714623
O305	O	0.965134	0.333947	-0.381290
O306	O	1.298467	0.667280	-0.047957
N307	N	0.570533	0.061872	-0.713730
N308	N	0.903867	0.395205	-0.380396
N309	N	1.237200	0.728538	-0.047063
C310	C	0.537411	0.094971	-0.687037
C311	C	0.870744	0.428304	-0.353703
C312	C	1.204078	0.761637	-0.020370
O313	O	0.509241	0.123118	-0.714671
O314	O	0.842575	0.456452	-0.381337
O315	O	1.175908	0.789785	-0.048004
C316	C	0.537398	0.094975	-0.473379
C317	C	0.870732	0.428308	-0.140046
C318	C	1.204065	0.761641	0.193288
C319	C	0.570519	0.061879	-0.446657
C320	C	0.903852	0.395212	-0.113323
C321	C	1.237186	0.728546	0.220010
C322	C	0.636756	-0.004312	-0.446624
C323	C	0.970089	0.329021	-0.113290
C324	C	1.303422	0.662355	0.220043
C325	C	0.636754	-0.004308	-0.393212
C326	C	0.970088	0.329025	-0.059879
C327	C	1.303421	0.662358	0.273455
C328	C	0.603635	0.028789	-0.366523
C329	C	0.936969	0.362122	-0.033190
C330	C	1.270302	0.695456	0.300144
C331	C	0.570518	0.061883	-0.393245
C332	C	0.903851	0.395216	-0.059912
C333	C	1.237184	0.728549	0.273421
C334	C	0.504274	0.128071	-0.446687
C335	C	0.837607	0.461404	-0.113354
C336	C	1.170941	0.794738	0.219979
C337	C	0.504273	0.128068	-0.393269
C338	C	0.837606	0.461402	-0.059936
C339	C	1.170940	0.794735	0.273397
C340	C	0.537394	0.094972	-0.366547
C341	C	0.870727	0.428306	-0.033214
C342	C	1.204060	0.761639	0.300120
C343	C	0.537398	0.094984	-0.313145
C344	C	0.870731	0.428317	0.020189
C345	C	1.204064	0.761650	0.353522
N346	N	0.570513	0.061887	-0.286420
N347	N	0.903846	0.395220	0.046914
N348	N	1.237180	0.728553	0.380247
C349	C	0.603632	0.028789	-0.313109
C350	C	0.936965	0.362123	0.020224
C351	C	1.270298	0.695456	0.353558
C352	C	0.537421	0.094967	-0.799210
C353	C	0.870754	0.428300	-0.465877
C354	C	1.204087	0.761634	-0.132543
C355	C	0.537424	0.094967	-0.852624
C356	C	0.870758	0.428300	-0.519291
C357	C	1.204091	0.761633	-0.185958
C358	C	0.603661	0.028770	-0.852588
C359	C	0.936995	0.362103	-0.519255
C360	C	1.270328	0.695436	-0.185922
C361	C	0.603660	0.028773	-0.799173
C362	C	0.936993	0.362106	-0.465840
C363	C	1.270326	0.695440	-0.132507
C364	C	0.570536	0.061870	-0.772485
C365	C	0.903869	0.395203	-0.439152
C366	C	1.237202	0.728537	-0.105818
C367	C	0.603627	0.028800	-0.200941
C368	C	0.936960	0.362134	0.132392
C369	C	1.270294	0.695467	0.465726
C370	C	0.603624	0.028808	-0.147525
C371	C	0.936957	0.362142	0.185809
C372	C	1.270291	0.695475	0.519142
C373	C	0.537385	0.095003	-0.147565
C374	C	0.870719	0.428336	0.185768
C375	C	1.204052	0.761670	0.519101
C376	C	0.537390	0.094997	-0.200977
C377	C	0.870723	0.428330	0.132356
C378	C	1.204056	0.761664	0.465690
C379	C	0.570512	0.061891	-0.227663
C380	C	0.903846	0.395225	0.105670
C381	C	1.237179	0.728558	0.439003
O382	O	0.509257	0.123126	-0.285493
O383	O	0.842590	0.456460	0.047840
O384	O	1.175924	0.789793	0.381173
O385	O	0.631790	0.000639	-0.285466
O386	O	0.965123	0.333972	0.047868
O387	O	1.298457	0.667306	0.381201
C388	C	0.603639	0.028778	-0.526757
C389	C	0.936973	0.362111	-0.193424
C390	C	1.270306	0.695444	0.139909
C391	C	0.570522	0.061871	-0.553480
C392	C	0.903855	0.395205	-0.220146
C393	C	1.237188	0.728538	0.113187
C394	C	0.537403	0.094969	-0.526791
C395	C	0.870736	0.428302	-0.193457
C396	C	1.204069	0.761635	0.139876
C397	C	0.570525	0.061871	-0.606894
C398	C	0.903859	0.395204	-0.273561
C399	C	1.237192	0.728538	0.059773
C400	C	0.603644	0.028774	-0.633583
C401	C	0.936977	0.362107	-0.300250
C402	C	1.270311	0.695440	0.033084
C403	C	0.636759	-0.004323	-0.606858
C404	C	0.970093	0.329010	-0.273525
C405	C	1.303426	0.662343	0.059809
C406	C	0.636758	-0.004320	-0.553446
C407	C	0.970091	0.329014	-0.220113
C408	C	1.303425	0.662347	0.113220
C409	C	0.504287	0.128066	-0.553516
C410	C	0.837621	0.461399	-0.220182
C411	C	1.170954	0.794732	0.113151
C412	C	0.504292	0.128060	-0.606927
C413	C	0.837625	0.461393	-0.273594
C414	C	1.170958	0.794726	0.059739
C415	C	0.537411	0.094962	-0.633616
C416	C	0.870744	0.428296	-0.300283
C417	C	1.204077	0.761629	0.033050
N418	N	0.570543	0.061869	0.120687
N419	N	0.903876	0.395202	0.454020
N420	N	1.237210	0.728536	0.787353
H421	H	0.412731	0.145456	-0.000074
H422	H	0.746065	0.478789	0.333260
H423	H	1.079398	0.812122	0.666593
H424	H	0.510446	0.121920	-0.777484
H425	H	0.843780	0.455253	-0.444151
H426	H	1.177113	0.788586	-0.110817
Br427	Br	-0.191945	0.163280	-0.000099
Br428	Br	0.141388	0.496614	0.333234
Br429	Br	0.474722	0.829947	0.666568
H430	H	0.566910	-0.791335	-0.084026
H431	H	0.900244	-0.458002	0.249307
H432	H	1.233577	-0.124669	0.582641
Br433	Br	0.681708	-0.049239	-0.643089
Br434	Br	1.015042	0.284095	-0.309756
Br435	Br	1.348375	0.617428	0.023577
Br436	Br	-0.163247	-0.044541	-0.000068
Br437	Br	0.170087	0.288793	0.333265
Br438	Br	0.503420	0.622126	0.666598
H439	H	0.321279	0.144531	-0.000088
H440	H	0.654612	0.477864	0.333245
H441	H	0.987946	0.811198	0.666579
Br442	Br	0.570679	-0.421841	-0.155361
Br443	Br	0.904013	-0.088507	0.177972
Br444	Br	1.237346	0.244826	0.511305
H445	H	0.057765	-0.062462	-0.000062
H446	H	0.391098	0.270871	0.333271
H447	H	0.724432	0.604204	0.666604
H448	H	0.477322	0.155014	-0.628681
H449	H	0.810655	0.488348	-0.295348
H450	H	1.143989	0.821681	0.037986
H451	H	0.510422	0.121952	-0.125827
H452	H	0.843755	0.455285	0.207507
H453	H	1.177088	0.788619	0.540840
H454	H	-0.033683	-0.063393	-0.000064
H455	H	0.299651	0.269940	0.333270
H456	H	0.632984	0.603274	0.666603
Br457	Br	0.107188	-0.085935	-0.000053
Br458	Br	0.440521	0.247399	0.333280
Br459	Br	0.773855	0.580732	0.666613
Br460	Br	-0.310780	0.162066	-0.000108
Br461	Br	0.022554	0.495399	0.333225
Br462	Br	0.355887	0.828732	0.666559
Br463	Br	0.459323	0.172989	-0.482942
Br464	Br	0.792656	0.506322	-0.149609
Br465	Br	1.125989	0.839655	0.183724
Br466	Br	0.571888	-0.303027	-0.155352
Br467	Br	0.905222	0.030306	0.177982
Br468	Br	1.238555	0.363640	0.511315
Br469	Br	0.570386	-0.454394	0.155230
Br470	Br	0.903719	-0.121061	0.488563
Br471	Br	1.237052	0.212272	0.821897
H472	H	-0.271685	-0.021675	-0.000063
H473	H	0.061648	0.311659	0.333271
H474	H	0.394982	0.644992	0.666604
Br475	Br	0.332981	-0.039496	-0.000051
Br476	Br	0.666314	0.293837	0.333283
Br477	Br	0.999648	0.627171	0.666616
H478	H	0.209014	-0.060929	-0.000069
H479	H	0.542348	0.272404	0.333265
H480	H	0.875681	0.605737	0.666598
Br481	Br	0.571931	-0.303140	0.155234
Br482	Br	0.905264	0.030193	0.488568
Br483	Br	1.238598	0.363527	0.821901
H484	H	0.510459	0.121921	-0.874378
H485	H	0.843793	0.455255	-0.541045
H486	H	1.177126	0.788588	-0.207711
Br487	Br	0.574238	-0.071129	-0.109079
Br488	Br	0.907571	0.262204	0.224255
Br489	Br	1.240904	0.595537	0.557588
Br490	Br	0.451819	-0.038284	-0.000041
Br491	Br	0.785153	0.295049	0.333292
Br492	Br	1.118486	0.628383	0.666626
H493	H	0.023499	0.185645	-0.000109
H494	H	0.356832	0.518979	0.333224
H495	H	0.690166	0.852312	0.666557
H496	H	0.510425	0.121951	-0.222735
H497	H	0.843758	0.455284	0.110599
H498	H	1.177091	0.788618	0.443932
Br499	Br	-0.084954	0.208501	-0.000117
Br500	Br	0.248380	0.541834	0.333216
Br501	Br	0.581713	0.875168	0.666549
Br502	Br	0.566790	-0.805093	0.108936
Br503	Br	0.900124	-0.471760	0.442269
Br504	Br	1.233457	-0.138427	0.775603
H505	H	0.174735	0.187182	-0.000097
H506	H	0.508068	0.520516	0.333236
H507	H	0.841401	0.853849	0.666570
H508	H	0.663728	-0.031269	-0.531693
H509	H	0.997061	0.302064	-0.198360
H510	H	1.330395	0.635397	0.134974
H511	H	0.567872	-0.699949	0.083837
H512	H	0.901205	-0.366616	0.417170
H513	H	1.234538	-0.033282	0.750503
Br514	Br	0.569173	-0.573204	0.155219
Br515	Br	0.902506	-0.239871	0.488552
Br516	Br	1.235840	0.093462	0.821886
H517	H	0.663723	-0.031259	-0.371458
H518	H	0.997056	0.302074	-0.038125
H519	H	1.330389	0.635408	0.295209
H520	H	0.569293	-0.559418	-0.130263
H521	H	0.902626	-0.226085	0.203070
H522	H	1.235960	0.107248	0.536404
Br523	Br	0.648611	-0.016145	-0.762913
Br524	Br	0.981944	0.317189	-0.429580
Br525	Br	1.315277	0.650522	-0.096246
H526	H	0.567829	-0.699866	-0.084022
H527	H	0.901162	-0.366533	0.249311
H528	H	1.234495	-0.033199	0.582645
Br529	Br	0.648578	-0.016109	-0.111261
Br530	Br	0.981912	0.317225	0.222072
Br531	Br	1.315245	0.650558	0.555405
H532	H	0.477317	0.155017	-0.531790
H533	H	0.810651	0.488350	-0.198456
H534	H	1.143984	0.821684	0.134877
Br535	Br	0.681708	-0.049236	-0.482835
Br536	Br	1.015041	0.284097	-0.149502
Br537	Br	1.348374	0.617430	0.183831
H538	H	0.573198	-0.176347	0.083882
H539	H	0.906532	0.156986	0.417216
H540	H	1.239865	0.490319	0.750549
H541	H	0.574131	-0.084882	0.083885
H542	H	0.907465	0.248451	0.417218
H543	H	1.240798	0.581785	0.750552
Br544	Br	0.648579	-0.016129	-0.237150
Br545	Br	0.981913	0.317204	0.096184
Br546	Br	1.315246	0.650537	0.429517
H547	H	0.570853	-0.408277	0.130119
H548	H	0.904186	-0.074944	0.463452
H549	H	1.237520	0.258389	0.796785
H550	H	0.573186	-0.176275	-0.083976
H551	H	0.906519	0.157058	0.249358
H552	H	1.239852	0.490392	0.582691
H553	H	0.477298	0.155019	-0.371542
H554	H	0.810631	0.488353	-0.038209
H555	H	1.143965	0.821686	0.295124
H556	H	0.570226	-0.467968	-0.130258
H557	H	0.903559	-0.134634	0.203075
H558	H	1.236893	0.198699	0.536408
Br559	Br	0.066300	0.210047	-0.000110
Br560	Br	0.399634	0.543380	0.333224
Br561	Br	0.732967	0.876714	0.666557
H562	H	0.630629	0.001821	-0.874328
H563	H	0.963962	0.335155	-0.540994
H564	H	1.297295	0.668488	-0.207661
