data_functionalizedCrystal
_audit_creation_method	'MofGen! by Chris Wilmer'
_symmetry_space_group_name_H-M	'P1'
_symmetry_Int_Tables_number	1
_symmetry_cell_setting	triclinic
loop_
_symmetry_equiv_pos_as_xyz
  x,y,z
_cell_length_a	11.169417
_cell_length_b	12.759400
_cell_length_c	12.759393
_cell_angle_alpha	89.969790
_cell_angle_beta	89.981955
_cell_angle_gamma	90.015563
loop_
_atom_site_label
_atom_site_type_symbol
_atom_site_fract_x
_atom_site_fract_y
_atom_site_fract_z
Zn1	Zn	1.834905	-0.418194	-0.593977
Zn2	Zn	1.834785	-0.593908	-0.418297
Zn3	Zn	1.634197	-0.418247	-0.418317
Zn4	Zn	1.634183	-0.593834	-0.593939
O5	O	1.734518	-0.506046	-0.506132
O6	O	2.002839	-0.441512	-0.570680
O7	O	1.808133	-0.570660	-0.271279
O8	O	1.660877	-0.271219	-0.441643
O9	O	2.002751	-0.570609	-0.441609
O10	O	1.808337	-0.271180	-0.570699
O11	O	1.660761	-0.441602	-0.271293
O12	O	1.466246	-0.441530	-0.441606
O13	O	1.660854	-0.570481	-0.740965
O14	O	1.466235	-0.570533	-0.570635
O15	O	1.808323	-0.441439	-0.740993
O16	O	1.808119	-0.740920	-0.441572
O17	O	1.660738	-0.740865	-0.570616
C18	C	1.422693	-0.506030	-0.506119
C19	C	1.289293	-0.506048	-0.506138
C20	C	1.734446	-0.779013	-0.506111
C21	C	1.734526	-0.895790	-0.506136
C22	C	1.811352	-0.950645	-0.439018
C23	C	1.811426	-1.060369	-0.439050
C24	C	1.657836	-1.060372	-0.573323
C25	C	1.657769	-0.950650	-0.573295
C26	C	1.888109	-0.895785	-0.371859
C27	C	1.964941	-0.950640	-0.304734
C28	C	1.965015	-1.060364	-0.304767
C29	C	1.888256	-1.115233	-0.371924
C30	C	2.047560	-0.506062	-0.506147
C31	C	2.180960	-0.506070	-0.506153
C32	C	1.734600	-0.505946	-0.780166
C33	C	1.734635	-0.505904	-0.896943
C34	C	1.734622	-0.232012	-0.506177
C35	C	1.734666	-0.115236	-0.506197
C36	C	1.811415	-0.573028	-1.061526
C37	C	1.811379	-0.573075	-0.951802
C38	C	1.657913	-0.438688	-0.951813
C39	C	1.657944	-0.438647	-1.061535
C40	C	1.888173	-0.640196	-1.116380
C41	C	1.964894	-0.707414	-1.061517
C42	C	1.964858	-0.707461	-0.951792
C43	C	1.888101	-0.640291	-0.896931
C44	C	1.734505	-0.506069	-0.233165
C45	C	1.734702	-0.505816	-0.116389
H46	H	1.888054	-0.806442	-0.371822
C47	C	2.049532	-1.120703	-0.230931
N48	N	2.113189	-1.166147	-0.175310
H49	H	1.595342	-1.105055	-0.627998
H50	H	1.888214	-0.640163	-1.205723
C51	C	1.573503	-0.364793	-0.891462
N52	N	1.509930	-0.309128	-0.846005
C53	C	1.573238	-0.890306	-0.647113
N54	N	1.509563	-0.844854	-0.702712
C55	C	1.573557	-0.364708	-1.121888
N56	N	1.509993	-0.309017	-1.167346
H57	H	2.027381	-0.762105	-1.106192
H58	H	2.027320	-0.762198	-0.907126
C59	C	2.049373	-0.890283	-0.230868
N60	N	2.112968	-0.844824	-0.175230
C61	C	1.888346	-1.235933	-0.371959
N62	N	1.888411	-1.326843	-0.371981
C63	C	1.888059	-0.640353	-0.776231
N64	N	1.888031	-0.640398	-0.685320
