data_functionalizedCrystal
_audit_creation_method	'MofGen! by Chris Wilmer'
_symmetry_space_group_name_H-M	'P1'
_symmetry_Int_Tables_number	1
_symmetry_cell_setting	triclinic
loop_
_symmetry_equiv_pos_as_xyz
  x,y,z
_cell_length_a	19.077105
_cell_length_b	21.295417
_cell_length_c	21.295420
_cell_angle_alpha	90.017552
_cell_angle_beta	92.311980
_cell_angle_gamma	87.726672
loop_
_atom_site_label
_atom_site_type_symbol
_atom_site_fract_x
_atom_site_fract_y
_atom_site_fract_z
Zn1	Zn	1.075919	-0.289439	0.394522
Zn2	Zn	1.075829	-0.394680	0.289244
Zn3	Zn	0.958231	-0.285195	0.285043
Zn4	Zn	0.958178	-0.390436	0.390253
O5	O	1.017039	-0.339938	0.339766
O6	O	1.174397	-0.306952	0.384100
O7	O	1.060213	-0.380157	0.200597
O8	O	0.973902	-0.197671	0.299594
O9	O	1.174331	-0.384272	0.306753
O10	O	1.060367	-0.200789	0.380027
O11	O	0.973815	-0.299719	0.197511
O12	O	0.859733	-0.295603	0.295456
O13	O	0.973812	-0.377038	0.478910
O14	O	0.859695	-0.372923	0.372753
O15	O	1.060316	-0.302836	0.482045
O16	O	1.060162	-0.482205	0.302615
O17	O	0.973724	-0.479086	0.376826
C18	C	0.834177	-0.333343	0.333186
C19	C	0.755947	-0.330536	0.330386
C20	C	0.719193	-0.369535	0.369252
C21	C	0.645688	-0.366890	0.366624
C22	C	0.608939	-0.325249	0.325126
C23	C	0.645698	-0.286246	0.286259
C24	C	0.719202	-0.288889	0.288890
C25	C	0.389108	-0.313020	0.312951
C26	C	0.315599	-0.310382	0.310321
C27	C	0.315594	-0.391025	0.390687
C28	C	0.389099	-0.393667	0.393312
C29	C	0.425852	-0.354661	0.354447
N30	N	0.533805	-0.322546	0.322438
N31	N	0.500984	-0.357362	0.357139
C32	C	1.016947	-0.503486	0.339727
C33	C	1.016972	-0.573455	0.339734
C34	C	1.062020	-0.607926	0.301135
C35	C	1.062053	-0.673670	0.301151
C36	C	1.017025	-0.704939	0.339758
C37	C	0.971974	-0.670461	0.378365
C38	C	0.971947	-0.604718	0.378353
N39	N	0.955455	-0.805990	0.342341
N40	N	0.955483	-0.868442	0.342349
C41	C	1.017104	-0.903017	0.339797
N42	N	1.078698	-0.872780	0.337225
N43	N	1.078670	-0.810322	0.337214
C44	C	1.017049	-0.776226	0.339775
C45	C	1.062191	-1.008775	0.301212
C46	C	1.062226	-1.074520	0.301232
C47	C	0.972141	-1.071309	0.378443
C48	C	0.972113	-1.005566	0.378427
C49	C	1.017137	-0.974302	0.339808
C50	C	1.200615	-0.346559	0.346371
C51	C	1.278845	-0.349381	0.349187
C52	C	1.017068	-0.339937	0.503957
C53	C	1.017081	-0.339937	0.573925
C54	C	1.017151	-0.175752	0.339818
C55	C	1.017198	-0.105785	0.339841
C56	C	0.972100	-0.298056	0.605175
C57	C	0.972087	-0.298059	0.670917
C58	C	1.017068	-0.339937	0.705407
C59	C	1.062052	-0.381825	0.674150
C60	C	1.062058	-0.381826	0.608409
N61	N	1.078662	-0.346985	0.810856
N62	N	1.078654	-0.346981	0.873307
C63	C	1.017050	-0.339939	0.903481
N64	N	0.955452	-0.332889	0.868845
N65	N	0.955461	-0.332890	0.806389
C66	C	1.017065	-0.339941	0.776693
C67	C	0.972051	-0.298059	1.006016
C68	C	0.972037	-0.298067	1.071760
C69	C	1.062008	-0.381830	1.074991
C70	C	1.062016	-0.381826	1.009249
C71	C	1.017038	-0.339937	0.974765
C72	C	1.017011	-0.339950	1.176213
C73	C	1.017017	-0.339945	1.106245
H74	H	0.285662	-0.422780	0.422329
N75	N	1.107995	-0.575991	0.261676
N76	N	1.083231	-0.538465	0.220645
H77	H	1.115698	-0.515912	0.192771
H78	H	0.935427	-0.263952	0.977939
N79	N	0.278070	-0.267841	0.267926
N80	N	0.310892	-0.233018	0.233229
H81	H	0.284388	-0.202975	0.203289
H82	H	0.615766	-0.398647	0.398272
H83	H	1.098646	-0.415928	0.983805
N84	N	1.108070	-0.708881	0.261713
N85	N	1.148263	-0.680959	0.227234
H86	H	1.180760	-0.705825	0.199378
H87	H	0.935473	-0.263949	0.577103
N88	N	0.926090	-0.255291	1.103695
N89	N	0.881220	-0.275818	1.138748
H90	H	0.848771	-0.245607	1.161306
N91	N	0.426646	-0.436200	0.435696
N92	N	0.492273	-0.438557	0.438035
H93	H	0.518792	-0.468601	0.467964
N94	N	0.925988	-0.702409	0.417802
N95	N	0.926017	-0.761106	0.417807
H96	H	0.893540	-0.783671	0.445663
H97	H	1.098634	-0.415926	1.103072
N98	N	0.926102	-0.970343	0.417855
N99	N	0.950826	-0.934513	0.458869
H100	H	0.918333	-0.909637	0.486720
H101	H	1.098914	-1.102585	0.269802
H102	H	0.935459	-0.263952	0.696366
H103	H	0.749109	-0.403446	0.403041
N104	N	0.426632	-0.273178	0.273244
N105	N	0.393810	-0.236007	0.236193
H106	H	0.420313	-0.207868	0.208146
N107	N	1.108193	-0.976826	0.261786
N108	N	1.108166	-0.918128	0.261783
H109	H	1.140657	-0.895565	0.233941
N110	N	1.107990	-0.424602	0.709386
N111	N	1.107979	-0.424597	0.768083
H112	H	1.140421	-0.454811	0.792969
H113	H	1.098690	-0.415930	0.582965
N114	N	0.925937	-0.569505	0.417791
N115	N	0.930571	-0.576981	0.476048
H116	H	0.898075	-0.552110	0.503902
N117	N	0.608151	-0.243710	0.243878
N118	N	0.542524	-0.241355	0.241533
H119	H	0.516006	-0.211314	0.211600
H120	H	0.749126	-0.257129	0.257245
H121	H	0.935481	-1.096768	0.409881
