data_functionalizedCrystal
_audit_creation_method	'MofGen! by Chris Wilmer'
_symmetry_space_group_name_H-M	'P1'
_symmetry_Int_Tables_number	1
_symmetry_cell_setting	triclinic
loop_
_symmetry_equiv_pos_as_xyz
  x,y,z
_cell_length_a	11.792241
_cell_length_b	10.654583
_cell_length_c	9.130313
_cell_angle_alpha	89.994699
_cell_angle_beta	90.002721
_cell_angle_gamma	95.654027
loop_
_atom_site_label
_atom_site_type_symbol
_atom_site_fract_x
_atom_site_fract_y
_atom_site_fract_z
O1	O	0.159597	-1.667357	0.121994
O2	O	0.174746	-1.301841	0.121954
O3	O	0.002022	-1.493469	0.121965
O4	O	0.332321	-1.475729	0.121983
O5	O	0.002023	-1.493469	-0.121634
O6	O	0.174746	-1.301841	-0.121645
O7	O	0.159597	-1.667357	-0.121605
Cu8	Cu	0.167172	-1.484599	-0.143867
Cu9	Cu	0.167171	-1.484599	0.144217
O10	O	0.332321	-1.475729	-0.121616
C11	C	0.173626	-1.255047	0.000150
C12	C	0.170274	-1.115615	0.000134
C13	C	0.168711	-1.050090	-0.132644
C14	C	0.165571	-0.919078	-0.132627
C15	C	0.165562	-0.919127	0.132958
C16	C	0.168694	-1.050138	0.132939
C17	C	0.168721	-1.050059	-0.285977
C18	C	0.165581	-0.919047	-0.285961
C19	C	-0.040271	-1.492355	0.000166
C20	C	-0.166293	-1.489019	0.000167
C21	C	-0.397020	-1.482886	0.000190
C22	C	-0.268627	-1.486294	0.000178
C23	C	0.374614	-1.476843	0.000187
C24	C	0.500636	-1.480179	0.000195
C25	C	0.160700	-0.714154	0.000188
C26	C	0.164002	-0.853592	0.000169
N27	N	0.167171	-1.484609	-0.346490
C28	C	0.236652	-1.561233	-0.576493
C29	C	0.236659	-1.561235	-0.423156
C30	C	0.097680	-1.407966	-0.423169
C31	C	0.097679	-1.407959	-0.576503
C32	C	0.316887	-1.649726	-0.576484
C33	C	0.316894	-1.649728	-0.423147
N34	N	0.167163	-1.484599	0.346839
H35	H	0.169949	-1.103486	0.241060
H36	H	0.164276	-0.865800	0.241083
Cl37	Cl	0.286679	-0.847234	-0.376836
H38	H	0.281220	-1.744403	-0.624042
H39	H	0.090284	-1.096541	-0.344862
H40	H	0.041105	-1.345544	-0.638920
H41	H	0.406390	-1.618545	-0.618092
Cl42	Cl	0.296525	-1.095369	-0.359422
H43	H	0.082801	-0.889694	-0.333547
H44	H	0.041110	-1.345567	-0.360735
Cl45	Cl	0.448795	-1.588200	-0.349709
H46	H	0.289007	-1.748861	-0.381529
