data_functionalizedCrystal
_audit_creation_method	'MofGen! by Chris Wilmer'
_symmetry_space_group_name_H-M	'P1'
_symmetry_Int_Tables_number	1
_symmetry_cell_setting	triclinic
loop_
_symmetry_equiv_pos_as_xyz
  x,y,z
_cell_length_a	15.944551
_cell_length_b	17.038272
_cell_length_c	14.421503
_cell_angle_alpha	90.004327
_cell_angle_beta	89.996859
_cell_angle_gamma	87.305147
loop_
_atom_site_label
_atom_site_type_symbol
_atom_site_fract_x
_atom_site_fract_y
_atom_site_fract_z
O1	O	1.121728	0.100827	-0.077015
O2	O	0.878066	0.113259	-0.077039
O3	O	0.998449	-0.006773	-0.077020
O4	O	1.001345	0.220859	-0.077034
O5	O	0.998429	-0.006755	0.077204
O6	O	0.878046	0.113277	0.077185
O7	O	1.121708	0.100845	0.077208
Cu8	Cu	0.999875	0.107062	0.091278
Cu9	Cu	0.999899	0.107041	-0.091109
O10	O	1.001325	0.220877	0.077189
C11	C	0.846725	0.112752	0.000070
C12	C	0.753369	0.111205	0.000062
C13	C	0.532936	0.033105	0.000085
C14	C	0.474515	0.069363	-0.075958
C15	C	0.582443	0.108405	0.000073
C16	C	0.474519	0.069398	0.076094
C17	C	0.417337	0.105696	0.000088
C18	C	0.525252	0.144684	-0.076033
C19	C	0.525261	0.144709	0.076088
C20	C	0.466862	0.181022	0.000027
C21	C	0.677557	0.109964	0.000063
C22	C	0.322225	0.104143	0.000090
C23	C	0.995805	-0.035893	0.000092
C24	C	0.987945	-0.122688	0.000091
C25	C	1.060103	-0.172781	0.000098
C26	C	1.052713	-0.254334	0.000089
C27	C	0.973165	-0.285792	0.000078
C28	C	0.901002	-0.235693	0.000068
C29	C	0.908393	-0.154142	0.000071
C30	C	0.947056	-0.531558	0.000063
C31	C	0.939671	-0.613115	0.000063
C32	C	1.091383	-0.631751	0.000083
C33	C	1.098766	-0.550197	0.000091
C34	C	1.026603	-0.500105	0.000075
C35	C	0.965610	-0.369152	0.000071
C36	C	1.034159	-0.416747	0.000076
C37	C	1.153049	0.101352	0.000097
C38	C	1.246405	0.102899	0.000100
C39	C	1.003969	0.249997	0.000076
C40	C	1.011829	0.336792	0.000071
N41	N	0.999865	0.107077	0.219560
N42	N	0.999916	0.107021	-0.219390
C43	C	0.944187	0.162555	0.469205
C44	C	1.021171	0.177734	0.531013
C45	C	0.999884	0.107058	0.408721
C46	C	0.922921	0.091897	0.531006
C47	C	0.999895	0.107042	0.591442
C48	C	1.076908	0.122272	0.469169
C49	C	0.978606	0.036405	0.469156
C50	C	1.055642	0.051554	0.530937
C51	C	0.999876	0.107070	0.303460
C52	C	0.999912	0.107030	0.696701
H53	H	0.452139	0.037506	-0.140243
H54	H	0.874891	-0.638725	0.000069
H55	H	0.547656	0.176539	0.140376
C56	C	0.836178	0.074849	0.567404
C57	C	0.837513	0.074385	0.664477
C58	C	0.757618	0.058701	0.698035
H59	H	0.820597	0.025041	0.545414
H60	H	0.796657	0.114346	0.546319
H61	H	0.877022	0.034890	0.685553
H62	H	0.853079	0.124187	0.686492
H63	H	0.718096	0.098198	0.676950
H64	H	0.742044	0.008893	0.676038
H65	H	0.758511	0.058391	0.763902
H66	H	1.039179	0.237476	0.558183
C67	C	0.555105	0.187046	-0.161819
C68	C	0.642862	0.187951	-0.160857
C69	C	0.670394	0.226955	-0.239873
H70	H	0.532002	0.239459	-0.162123
H71	H	0.537365	0.160463	-0.215774
H72	H	0.660593	0.214535	-0.106916
H73	H	0.665986	0.135549	-0.160567
H74	H	0.652654	0.200373	-0.293828
H75	H	0.647285	0.279366	-0.240170
H76	H	0.729939	0.227569	-0.239235
C77	C	1.163642	0.139549	0.432931
C78	C	1.162601	0.139436	0.335852
C79	C	1.242471	0.155388	0.302435
H80	H	1.203356	0.100409	0.454443
H81	H	1.178807	0.189598	0.454592
H82	H	1.147447	0.089393	0.314199
H83	H	1.122904	0.178576	0.314315
H84	H	1.257636	0.205438	0.324097
H85	H	1.282179	0.116246	0.323954
H86	H	1.241774	0.155321	0.236565
H87	H	0.888296	-0.490782	0.000051
C88	C	1.146397	-0.138479	0.000156
C89	C	1.137429	-0.056338	0.000182
C90	C	1.216907	-0.024715	0.000244
H91	H	1.176430	-0.155590	-0.053609
H92	H	1.176357	-0.155627	0.053961
H93	H	1.107482	-0.039196	-0.053617
H94	H	1.107411	-0.039205	0.053942
H95	H	1.246867	-0.041863	0.054049
H96	H	1.246933	-0.041831	-0.053522
H97	H	1.210833	0.031021	0.000270
H98	H	0.897141	0.209524	0.442099
C99	C	1.118656	-0.010940	0.566812
C100	C	1.199079	0.005297	0.535328
C101	C	1.257151	-0.052245	0.568370
H102	H	1.104116	-0.061032	0.544716
H103	H	1.118044	-0.010885	0.632686
H104	H	1.199689	0.005234	0.469467
H105	H	1.213645	0.055379	0.557421
H106	H	1.256539	-0.052190	0.634244
H107	H	1.242603	-0.102333	0.546272
H108	H	1.311726	-0.041232	0.547020
H109	H	0.452149	0.037543	0.140380
H110	H	0.438170	0.243580	-0.000020
C111	C	1.131157	-0.308590	0.000152
C112	C	1.202403	-0.263586	0.000195
C113	C	1.274683	-0.313539	0.000266
H114	H	1.131561	-0.340812	-0.053615
H115	H	1.131462	-0.340777	0.053954
H116	H	1.202098	-0.231413	-0.053602
H117	H	1.202027	-0.231366	0.053958
H118	H	1.274988	-0.345726	0.054068
H119	H	1.275078	-0.345758	-0.053503
H120	H	1.323032	-0.283011	0.000303
H121	H	0.561807	-0.029389	-0.000006
C122	C	1.185209	-0.516196	0.000060
C123	C	1.246822	-0.577522	0.000044
C124	C	1.326463	-0.546230	0.000010
H125	H	1.191351	-0.484781	0.053830
H126	H	1.191301	-0.484793	-0.053739
H127	H	1.240733	-0.608911	0.053837
H128	H	1.240708	-0.608942	-0.053723
H129	H	1.332555	-0.514827	-0.053788
H130	H	1.332596	-0.514816	0.053782
H131	H	1.368277	-0.587834	-0.000009
H132	H	0.836233	-0.261313	0.000053
H133	H	1.150134	-0.672544	0.000093
H134	H	0.849634	-0.113356	0.000064
C135	C	0.954396	-0.043192	0.432940
C136	C	0.873715	-0.058750	0.464197
C137	C	0.851370	-0.132062	0.430841
H138	H	0.993323	-0.082799	0.454974
H139	H	0.955025	-0.042756	0.367068
H140	H	0.873092	-0.059192	0.530055
H141	H	0.834769	-0.019162	0.442166
H142	H	0.851999	-0.131626	0.364969
H143	H	0.890303	-0.171663	0.452878
H144	H	0.796624	-0.142624	0.452037
H145	H	1.098927	-0.391130	0.000064
H146	H	0.900842	-0.394774	0.000065
