data_functionalizedCrystal
_audit_creation_method	'MofGen! by Chris Wilmer'
_symmetry_space_group_name_H-M	'P1'
_symmetry_Int_Tables_number	1
_symmetry_cell_setting	triclinic
loop_
_symmetry_equiv_pos_as_xyz
  x,y,z
_cell_length_a	14.908571
_cell_length_b	18.101395
_cell_length_c	14.908308
_cell_angle_alpha	93.266316
_cell_angle_beta	90.175053
_cell_angle_gamma	86.727274
loop_
_atom_site_label
_atom_site_type_symbol
_atom_site_fract_x
_atom_site_fract_y
_atom_site_fract_z
Zn1	Zn	1.345208	-0.386468	-0.587575
Zn2	Zn	1.353762	-0.503604	-0.437213
Zn3	Zn	1.203527	-0.372244	-0.428573
Zn4	Zn	1.194790	-0.502724	-0.578865
O5	O	1.274322	-0.441260	-0.508057
O6	O	1.472167	-0.408328	-0.574890
O7	O	1.341069	-0.480594	-0.310243
O8	O	1.222397	-0.270503	-0.449694
O9	O	1.478452	-0.494387	-0.464420
O10	O	1.326490	-0.280953	-0.566512
O11	O	1.230692	-0.384085	-0.303895
O12	O	1.076543	-0.383231	-0.441249
O13	O	1.207507	-0.492887	-0.705845
O14	O	1.070124	-0.479094	-0.551667
O15	O	1.318019	-0.407474	-0.712244
O16	O	1.332598	-0.607115	-0.455974
O17	O	1.215801	-0.606469	-0.560045
C18	C	1.040709	-0.429524	-0.494576
C19	C	0.940767	-0.424523	-0.488830
C20	C	0.746339	-0.515086	-0.592857
C21	C	0.652434	-0.510389	-0.587462
C22	C	0.659052	-0.410428	-0.472648
C23	C	0.752956	-0.415125	-0.478044
C24	C	0.796596	-0.467457	-0.538149
C25	C	0.890503	-0.472157	-0.543540
C26	C	0.897118	-0.372193	-0.428731
C27	C	0.803213	-0.367496	-0.423336
C28	C	1.274203	-0.633663	-0.508023
C29	C	1.274233	-0.715980	-0.508044
C30	C	1.274427	-1.015083	-0.508104
C31	C	1.201093	-0.983397	-0.573764
C32	C	1.200777	-0.897753	-0.573527
C33	C	1.274331	-0.866694	-0.508075
C34	C	1.254147	-0.892332	-0.411835
C35	C	1.253677	-0.977973	-0.412227
C36	C	1.368144	-0.989281	-0.537857
C37	C	1.367465	-0.903695	-0.539903
C38	C	1.274278	-0.782831	-0.508053
C39	C	1.274478	-1.098945	-0.508119
C40	C	1.508847	-0.453042	-0.521591
C41	C	1.608787	-0.458063	-0.527358
C42	C	1.260834	-0.451669	-0.742582
C43	C	1.255087	-0.456105	-0.842522
C44	C	1.274464	-0.248107	-0.508111
C45	C	1.274525	-0.165797	-0.508134
C46	C	1.359359	-0.375483	-1.036986
C47	C	1.353962	-0.379648	-1.130890
C48	C	1.238890	-0.468597	-1.124234
C49	C	1.244288	-0.464432	-1.030330
C50	C	1.304525	-0.417874	-0.986710
C51	C	1.309927	-0.413713	-0.892805
C52	C	1.194851	-0.502657	-0.886151
C53	C	1.189453	-0.506822	-0.980054
C54	C	1.287808	-0.430840	-0.274447
C55	C	1.293730	-0.426205	-0.174517
H56	H	0.611518	-0.549172	-0.632012
N57	N	0.793411	-0.571532	-0.657675
H58	H	0.829999	-0.545295	-0.701647
H59	H	0.834402	-0.606109	-0.623226
N60	N	1.173928	-0.518810	-1.171292
H61	H	1.140007	-0.545035	-1.125195
H62	H	1.130099	-0.488302	-1.207857
H63	H	1.150203	-0.537177	-0.845206
N64	N	1.163149	-0.998698	-0.379695
H65	H	1.171249	-1.027548	-0.323930
H66	H	1.123969	-0.952193	-0.365284
N67	N	1.393939	-1.023389	-0.629611
H68	H	1.345130	-1.055917	-0.652821
H69	H	1.401754	-0.982788	-0.672188
N70	N	1.374903	-0.363506	-0.845758
H71	H	1.370010	-0.367304	-0.778641
H72	H	1.438163	-0.378993	-0.865882
H73	H	1.140408	-0.544727	-1.015582
H74	H	0.623503	-0.367818	-0.423719
N75	N	1.164618	-0.858213	-0.378852
H76	H	1.173632	-0.826867	-0.321652
H77	H	1.137055	-0.826178	-0.426152
N78	N	0.756143	-0.311070	-0.358492
H79	H	0.689029	-0.315326	-0.363368
H80	H	0.776241	-0.320509	-0.295203
N81	N	1.216741	-1.015840	-0.668352
H82	H	1.162608	-1.043188	-0.689265
H83	H	1.226604	-0.974640	-0.709536
N84	N	1.216650	-0.875064	-0.667825
H85	H	1.216470	-0.819261	-0.667851
H86	H	1.276668	-0.897427	-0.690112
N87	N	1.321744	-1.005462	-0.344825
H88	H	1.351920	-0.961944	-0.314987
H89	H	1.290420	-1.032736	-0.297849
N90	N	1.387767	-0.882131	-0.633755
H91	H	1.336856	-0.848533	-0.655572
H92	H	1.445342	-0.855290	-0.633197
N93	N	1.443093	-0.876167	-0.481760
H94	H	1.417941	-0.839158	-0.433746
H95	H	1.474833	-0.919372	-0.452583
H96	H	0.938048	-0.333411	-0.384182
H97	H	1.131935	-1.000760	-0.553850
N98	N	1.440431	-1.016534	-0.474603
H99	H	1.412661	-1.045453	-0.426904
H100	H	1.486547	-1.049588	-0.509427
N101	N	1.108621	-0.865056	-0.546843
H102	H	1.068047	-0.906286	-0.535183
H103	H	1.113493	-0.831767	-0.490536
H104	H	1.306121	-0.872037	-0.361340
N105	N	0.937576	-0.528600	-0.608360
H106	H	0.891485	-0.558058	-0.642199
H107	H	0.974167	-0.502306	-0.652272
N108	N	1.424335	-0.325280	-0.989932
H109	H	1.458258	-0.299059	-1.036032
H110	H	1.390001	-0.287442	-0.948867
N111	N	1.413096	-0.333921	-1.185118
H112	H	1.452070	-0.303795	-1.143232
H113	H	1.452450	-0.367876	-1.226475
