data_functionalizedCrystal
_audit_creation_method	'MofGen! by Chris Wilmer'
_symmetry_space_group_name_H-M	'P1'
_symmetry_Int_Tables_number	1
_symmetry_cell_setting	triclinic
loop_
_symmetry_equiv_pos_as_xyz
  x,y,z
_cell_length_a	21.395362
_cell_length_b	21.395362
_cell_length_c	21.395356
_cell_angle_alpha	90.039977
_cell_angle_beta	89.970423
_cell_angle_gamma	89.954240
loop_
_atom_site_label
_atom_site_type_symbol
_atom_site_fract_x
_atom_site_fract_y
_atom_site_fract_z
Zn1	Zn	-0.249146	-0.957824	-0.354648
Zn2	Zn	-0.353923	-0.957747	-0.249868
Zn3	Zn	-0.249197	-0.853053	-0.249842
Zn4	Zn	-0.353923	-0.853014	-0.354565
O5	O	-0.301547	-0.905409	-0.302231
O6	O	-0.263024	-1.045491	-0.340794
O7	O	-0.340053	-0.943843	-0.162187
O8	O	-0.161512	-0.867000	-0.263768
O9	O	-0.340003	-1.045435	-0.263813
O10	O	-0.161475	-0.943974	-0.340769
O11	O	-0.263111	-0.866926	-0.162167
O12	O	-0.263110	-0.765370	-0.263688
O13	O	-0.340002	-0.866933	-0.442254
O14	O	-0.340052	-0.765341	-0.340628
O15	O	-0.263023	-0.943936	-0.442315
O16	O	-0.441601	-0.943805	-0.263733
O17	O	-0.441601	-0.866858	-0.340653
C18	C	-0.301587	-0.742622	-0.302146
C19	C	-0.301619	-0.672980	-0.302125
C20	C	-0.341737	-0.640269	-0.342125
C21	C	-0.341725	-0.574833	-0.342149
C22	C	-0.301601	-0.542112	-0.302161
C23	C	-0.261475	-0.574832	-0.262158
C24	C	-0.261484	-0.640266	-0.262140
C25	C	-0.296567	-0.438395	-0.245748
C26	C	-0.296562	-0.372962	-0.245765
C27	C	-0.301568	-0.340291	-0.302215
C28	C	-0.306592	-0.373062	-0.358651
C29	C	-0.306602	-0.438496	-0.358633
C30	C	-0.301586	-0.471160	-0.302175
C31	C	-0.341675	-0.236627	-0.342244
C32	C	-0.341658	-0.171190	-0.342268
C33	C	-0.261411	-0.171190	-0.262272
C34	C	-0.261425	-0.236626	-0.262253
C35	C	-0.301560	-0.269340	-0.302238
C36	C	-0.464335	-0.905336	-0.302200
C37	C	-0.533976	-0.905362	-0.302208
C38	C	-1.035752	-0.945626	-0.262280
C39	C	-0.970316	-0.945603	-0.262265
C40	C	-0.937614	-0.905498	-0.302276
C41	C	-0.970353	-0.865403	-0.342292
C42	C	-1.035788	-0.865423	-0.342301
C43	C	-0.833916	-0.900482	-0.358704
C44	C	-0.768483	-0.900466	-0.358696
C45	C	-0.735794	-0.905432	-0.302247
C46	C	-0.768546	-0.910426	-0.245805
C47	C	-0.833980	-0.910446	-0.245814
C48	C	-0.866662	-0.905471	-0.302270
C49	C	-0.632110	-0.945495	-0.262214
C50	C	-0.566673	-0.945467	-0.262199
C51	C	-0.566712	-0.865271	-0.342231
C52	C	-0.632147	-0.865296	-0.342241
C53	C	-0.664842	-0.905411	-0.302234
C54	C	-0.138124	-0.905500	-0.302275
C55	C	-0.068483	-0.905539	-0.302294
C56	C	-0.301507	-0.905438	-0.465654
C57	C	-0.301490	-0.905451	-0.535295
C58	C	-0.301518	-0.068833	-0.302298
C59	C	-0.301532	-0.138474	-0.302281
C60	C	-0.261307	-0.945605	-1.037125
C61	C	-0.261322	-0.945600	-0.971689
C62	C	-0.301406	-0.905504	-0.938934
C63	C	-0.341490	-0.865422	-0.971620
C64	C	-0.341478	-0.865432	-1.037054
C65	C	-0.306386	-0.849036	-0.835235
C66	C	-0.306394	-0.849024	-0.769802
C67	C	-0.301446	-0.905472	-0.737113
C68	C	-0.296479	-0.961934	-0.769866
C69	C	-0.296467	-0.961944	-0.835300
C70	C	-0.301424	-0.905489	-0.867982
C71	C	-0.261385	-0.945550	-0.633483
C72	C	-0.261404	-0.945546	-0.568046
C73	C	-0.341569	-0.865362	-0.567978
C74	C	-0.341553	-0.865372	-0.633413
C75	C	-0.301457	-0.905465	-0.666162
C76	C	-0.301542	-0.905416	-0.139443
C77	C	-0.301383	-0.905526	-0.069802
H78	H	-0.310668	-0.346463	-0.404619
C79	C	-0.217353	-0.676250	-0.218131
N80	N	-0.184114	-0.703354	-0.184982
C81	C	-0.530669	-0.989560	-0.218168
N82	N	-0.503551	-1.022768	-0.185001
C83	C	-0.385817	-0.272615	-0.386235
N84	N	-0.419063	-0.299719	-0.419372
C85	C	-0.311828	-0.786934	-0.871186
N86	N	-0.315927	-0.740160	-0.898263
H87	H	-0.741931	-0.914470	-0.199840
C88	C	-0.217338	-0.538838	-0.218170
N89	N	-0.184092	-0.511727	-0.185039
C90	C	-1.071712	-0.989748	-0.218263
N91	N	-1.098799	-1.022978	-0.185107
H92	H	-0.860526	-0.896552	-0.404684
H93	H	-0.292448	-1.007899	-0.743252
H94	H	-1.062437	-0.832780	-0.374888
C95	C	-0.291062	-0.474326	-0.183643
N96	N	-0.286917	-0.501389	-0.136868
H97	H	-0.374325	-0.144557	-0.374845
C98	C	-0.217231	-0.989690	-0.935736
N99	N	-0.184019	-1.022897	-0.908658
H100	H	-0.943662	-0.978248	-0.229680
C101	C	-0.217205	-0.989714	-1.073144
N102	N	-0.183989	-1.022938	-1.100275
C103	C	-0.530744	-0.821154	-0.386242
N104	N	-0.503649	-0.787924	-0.419392
H105	H	-0.943724	-0.832748	-0.374868
C106	C	-0.312128	-0.474541	-0.420711
N107	N	-0.316289	-0.501690	-0.467470
H108	H	-0.658732	-0.978159	-0.229637
C109	C	-0.385664	-0.821257	-0.531951
N110	N	-0.418878	-0.788036	-0.504812
H111	H	-0.228771	-0.978189	-0.541441
C112	C	-0.385633	-0.821273	-0.669360
N113	N	-0.418837	-0.788056	-0.696435
H114	H	-0.228738	-0.144550	-0.229715
H115	H	-0.228759	-0.263260	-0.229677
C116	C	-0.291031	-0.336921	-0.183685
N117	N	-0.286862	-0.309776	-0.136925
H118	H	-0.860644	-0.914511	-0.199857
H119	H	-0.658797	-0.832654	-0.374827
H120	H	-0.292423	-1.007917	-0.861964
C121	C	-0.385563	-0.821335	-1.073001
N122	N	-0.418766	-0.788119	-1.100077
C123	C	-0.217286	-0.989660	-0.669508
N124	N	-0.184072	-1.022885	-0.696641
C125	C	-0.732462	-0.894972	-0.420783
N126	N	-0.705333	-0.890831	-0.467549
H127	H	-0.374393	-0.548194	-0.374724
C128	C	-0.385885	-0.676250	-0.386113
N129	N	-0.419137	-0.703353	-0.419245
C130	C	-0.311854	-0.786915	-0.733780
N131	N	-0.315966	-0.740133	-0.706650
C132	C	-0.385581	-0.821314	-0.935588
N133	N	-0.418793	-0.788092	-0.908449
