data_functionalizedCrystal
_audit_creation_method	'MofGen! by Chris Wilmer'
_symmetry_space_group_name_H-M	'P1'
_symmetry_Int_Tables_number	1
_symmetry_cell_setting	triclinic
loop_
_symmetry_equiv_pos_as_xyz
  x,y,z
_cell_length_a	19.805407
_cell_length_b	21.295417
_cell_length_c	21.295411
_cell_angle_alpha	89.978356
_cell_angle_beta	89.974514
_cell_angle_gamma	90.030507
loop_
_atom_site_label
_atom_site_type_symbol
_atom_site_fract_x
_atom_site_fract_y
_atom_site_fract_z
Zn1	Zn	1.034756	-0.250681	-0.355927
Zn2	Zn	1.534756	0.249319	0.144073
Zn3	Zn	1.034651	-0.355933	-0.250652
Zn4	Zn	1.534651	0.144067	0.249348
Zn5	Zn	0.921559	-0.250681	-0.250670
Zn6	Zn	1.421559	0.249319	0.249330
Zn7	Zn	0.921526	-0.355916	-0.355882
Zn8	Zn	1.421526	0.144084	0.144118
O9	O	0.978123	-0.303303	-0.303283
O10	O	1.478123	0.196697	0.196717
O11	O	1.129459	-0.264650	-0.341973
O12	O	1.629459	0.235350	0.158027
O13	O	1.019619	-0.341978	-0.162565
O14	O	1.519619	0.158022	0.337435
O15	O	0.936632	-0.162592	-0.264659
O16	O	1.436632	0.337408	0.235341
O17	O	1.129381	-0.341978	-0.264628
O18	O	1.629381	0.158022	0.235372
O19	O	1.019798	-0.162592	-0.341991
O20	O	1.519798	0.337408	0.158009
O21	O	0.936531	-0.264650	-0.162578
O22	O	1.436531	0.235350	0.337422
O23	O	0.826838	-0.264634	-0.264616
O24	O	1.326838	0.235366	0.235384
O25	O	0.936576	-0.341949	-0.443978
O26	O	1.436576	0.158051	0.056022
O27	O	0.826814	-0.341950	-0.341915
O28	O	1.326814	0.158050	0.158085
O29	O	1.019766	-0.264633	-0.444010
O30	O	1.519766	0.235367	0.055990
O31	O	1.019587	-0.444020	-0.264585
O32	O	1.519587	0.055980	0.235415
O33	O	0.936475	-0.444008	-0.341897
O34	O	1.436475	0.055992	0.158103
C35	C	0.802267	-0.303291	-0.303263
C36	C	1.302267	0.196709	0.196737
C37	C	0.727035	-0.303301	-0.303269
C38	C	1.227035	0.196699	0.196731
C39	C	0.691696	-0.343620	-0.343453
C40	C	1.191696	0.156380	0.156547
C41	C	0.621007	-0.343621	-0.343462
C42	C	1.121007	0.156379	0.156538
C43	C	0.585659	-0.303306	-0.303283
C44	C	1.085659	0.196694	0.196717
C45	C	0.621003	-0.262982	-0.263097
C46	C	1.121003	0.237018	0.236903
C47	C	0.691690	-0.262979	-0.263092
C48	C	1.191690	0.237021	0.236908
C49	C	0.335930	-0.262996	-0.263118
C50	C	0.835930	0.237004	0.236882
C51	C	0.265238	-0.263005	-0.263125
C52	C	0.765238	0.236995	0.236875
C53	C	0.265247	-0.343638	-0.343488
C54	C	0.765247	0.156362	0.156512
C55	C	0.335934	-0.343635	-0.343483
C56	C	0.835934	0.156365	0.156517
C57	C	0.371272	-0.303309	-0.303299
C58	C	0.871272	0.196691	0.196701
C59	C	0.447920	-0.303308	-0.303291
C60	C	0.947920	0.196692	0.196709
C61	C	0.509012	-0.303310	-0.303288
C62	C	1.009012	0.196690	0.196712
C63	C	0.978034	-0.466854	-0.303248
C64	C	1.478034	0.033146	0.196752
C65	C	0.978058	-0.536823	-0.303254
C66	C	1.478058	-0.036823	0.196746
C67	C	1.021373	-0.569675	-0.263039
C68	C	1.521373	-0.069675	0.236961
C69	C	1.021405	-0.635417	-0.263053
C70	C	1.521405	-0.135417	0.236947
C71	C	0.978109	-0.668305	-0.303276
C72	C	1.478109	-0.168305	0.196724
C73	C	0.934791	-0.635445	-0.343499
C74	C	1.434791	-0.135445	0.156501
C75	C	0.934766	-0.569704	-0.343488
C76	C	1.434766	-0.069704	0.156512
N77	N	0.918900	-0.771572	-0.308068
N78	N	1.418900	-0.271572	0.191932
N79	N	0.918926	-0.834023	-0.308075
N80	N	1.418926	-0.334023	0.191925
C81	C	0.978185	-0.866380	-0.303312
C82	C	1.478185	-0.366380	0.196688
N83	N	1.037419	-0.833926	-0.298530
N84	N	1.537419	-0.333926	0.201470
N85	N	1.037392	-0.771468	-0.298520
N86	N	1.537392	-0.271468	0.201480
C87	C	0.978133	-0.739590	-0.303293
C88	C	1.478133	-0.239590	0.196707
C89	C	1.021538	-0.970517	-0.263110
C90	C	1.521538	-0.470517	0.236890
C91	C	1.021571	-1.036261	-0.263129
C92	C	1.521571	-0.536261	0.236871
C93	C	0.934952	-1.036288	-0.343571
C94	C	1.434952	-0.536288	0.156429
C95	C	0.934925	-0.970545	-0.343556
C96	C	1.434925	-0.470545	0.156444
C97	C	0.978217	-0.937664	-0.303322
C98	C	1.478217	-0.437664	0.196678
C99	C	1.154666	-0.303315	-0.303304
C100	C	1.654666	0.196685	0.196696
C101	C	1.229898	-0.303321	-0.303313
C102	C	1.729898	0.196679	0.196687
C103	C	0.978179	-0.303290	-0.467473
C104	C	1.478179	0.196710	0.032527
C105	C	0.978203	-0.303284	-0.537441
C106	C	1.478203	0.196716	-0.037441
C107	C	0.978230	-0.139113	-0.303332
C108	C	1.478230	0.360887	0.196668
C109	C	0.978276	-0.069144	-0.303353
C110	C	1.478276	0.430856	0.196647
C111	C	1.021518	-0.263024	-0.570326
C112	C	1.521518	0.236976	-0.070326
C113	C	1.021517	-0.262996	-0.636069
C114	C	1.521517	0.237004	-0.136069
C115	C	0.978208	-0.303241	-0.668924
C116	C	1.478208	0.196759	-0.168924
C117	C	0.934885	-0.343504	-0.636031
C118	C	1.434885	0.156496	-0.136031
C119	C	0.934882	-0.343525	-0.570290
C120	C	1.434882	0.156475	-0.070290
N121	N	0.972986	-0.358308	-0.772139
N122	N	1.472986	0.141692	-0.272139
N123	N	0.972993	-0.358286	-0.834591
N124	N	1.472993	0.141714	-0.334591
C125	C	0.978213	-0.303177	-0.866999
C126	C	1.478213	0.196823	-0.366999
N127	N	0.983439	-0.248089	-0.834596
N128	N	1.483439	0.251911	-0.334596
N129	N	0.983436	-0.248113	-0.772139
N130	N	1.483436	0.251887	-0.272139
C131	C	0.978206	-0.303221	-0.740209
C132	C	1.478206	0.196779	-0.240209
C133	C	1.021529	-0.262884	-0.971169
C134	C	1.521529	0.237116	-0.471169
C135	C	1.021523	-0.262855	-1.036913
C136	C	1.521523	0.237145	-0.536913
C137	C	0.934895	-0.343368	-1.036874
C138	C	1.434895	0.156632	-0.536874
C139	C	0.934897	-0.343391	-0.971132
C140	C	1.434897	0.156609	-0.471132
C141	C	0.978217	-0.303149	-0.938283
C142	C	1.478217	0.196851	-0.438283
C143	C	0.978106	-0.303271	-0.139731
C144	C	1.478106	0.196729	0.360269
C145	C	0.978213	-0.303099	-0.069764
C146	C	1.478213	0.196901	0.430236
H147	H	0.364694	-0.230166	-0.230393
H148	H	0.864694	0.269834	0.269607
H149	H	0.364711	-0.376465	-0.376199
H150	H	0.864711	0.123535	0.123801
H151	H	0.236466	-0.376471	-0.376210
H152	H	0.736466	0.123529	0.123790
H153	H	1.056848	-1.063008	-0.230382
H154	H	1.556848	-0.563008	0.269618
H155	H	1.056788	-0.230208	-0.662849
H156	H	1.556788	0.269792	-0.162849
H157	H	1.056680	-0.662171	-0.230305
H158	H	1.556680	-0.162171	0.269695
H159	H	1.056626	-0.542905	-0.230280
H160	H	1.556626	-0.042905	0.269720
H161	H	0.720471	-0.376451	-0.376170
H162	H	1.220471	0.123549	0.123830
H163	H	0.899541	-0.662227	-0.376250
H164	H	1.399541	-0.162227	0.123750
H165	H	0.899493	-0.542955	-0.376237
H166	H	1.399493	-0.042955	0.123763
H167	H	1.056792	-0.943744	-0.230351
H168	H	1.556792	-0.443744	0.269649
H169	H	0.592237	-0.376453	-0.376184
H170	H	1.092237	0.123547	0.123816
H171	H	0.899607	-0.376309	-0.543516
H172	H	1.399607	0.123691	-0.043516
H173	H	0.899629	-0.376179	-0.944357
H174	H	1.399629	0.123821	-0.444357
H175	H	0.592217	-0.230155	-0.230385
H176	H	1.092217	0.269845	0.269615
H177	H	1.056799	-0.230113	-0.944422
H178	H	1.556799	0.269887	-0.444422
H179	H	0.236459	-0.230171	-0.230406
H180	H	0.736459	0.269829	0.269594
H181	H	1.056792	-0.230255	-0.543585
H182	H	1.556792	0.269745	-0.043585
H183	H	0.720463	-0.230144	-0.230373
H184	H	1.220463	0.269856	0.269627
H185	H	0.899703	-1.063064	-0.376324
H186	H	1.399703	-0.563064	0.123676
H187	H	0.899651	-0.943795	-0.376300
H188	H	1.399651	-0.443795	0.123700
H189	H	0.899621	-0.376269	-0.662786
H190	H	1.399621	0.123731	-0.162786
H191	H	0.899625	-0.376129	-1.063624
H192	H	1.399625	0.123871	-0.563624
H193	H	1.056794	-0.230067	-1.063687
H194	H	1.556794	0.269933	-0.563687
