data_functionalizedCrystal
_audit_creation_method	'MofGen! by Chris Wilmer'
_symmetry_space_group_name_H-M	'P1'
_symmetry_Int_Tables_number	1
_symmetry_cell_setting	triclinic
loop_
_symmetry_equiv_pos_as_xyz
  x,y,z
_cell_length_a	6.817900
_cell_length_b	7.076028
_cell_length_c	16.255699
_cell_angle_alpha	91.113035
_cell_angle_beta	103.489404
_cell_angle_gamma	117.700652
loop_
_atom_site_label
_atom_site_type_symbol
_atom_site_fract_x
_atom_site_fract_y
_atom_site_fract_z
V1	V	-4.199837	-0.665702	-0.115740
O2	O	-4.183835	-0.652302	0.006949
O3	O	-4.150383	-0.661849	-0.230827
O4	O	-4.226824	-0.955718	-0.113351
O5	O	-4.106865	-0.356398	-0.111340
V6	V	-4.673833	-0.628622	-0.101137
O7	O	-4.481994	-0.747040	-0.147773
O8	O	-4.841874	-0.547283	-0.069104
O9	O	-4.500081	-0.632474	0.013950
O10	O	-4.807232	-0.642022	-0.223826
O11	O	-4.884203	-0.937925	-0.105536
O12	O	-4.423640	-0.338605	-0.103526
C13	C	-3.992688	-0.651528	-0.258902
C14	C	-4.034043	-0.650311	-0.352983
C15	C	-3.940997	-0.636367	-0.575838
C16	C	-3.979956	-0.464501	-0.623805
C17	C	-4.109890	-0.648186	-0.525241
C18	C	-4.144649	-0.817907	-0.644911
C19	C	-4.183146	-0.646142	-0.691635
C20	C	-4.148237	-0.476189	-0.571961
C21	C	-4.312974	-0.829753	-0.593071
C22	C	-4.352043	-0.657851	-0.641013
C23	C	-4.067683	-0.649362	-0.429386
C24	C	-4.225360	-0.644953	-0.787488
C25	C	-4.223594	-0.267928	-0.107830
C26	C	-4.097161	-0.026376	-0.109043
C27	C	-4.321117	-0.642790	0.042021
C28	C	-4.259004	-0.644020	0.136101
H29	H	-3.839601	-0.310060	-0.637724
C30	C	-4.620011	-0.985974	-0.525768
C31	C	-4.502360	-1.038235	-0.574250
H32	H	-4.736937	-1.114698	-0.514157
H33	H	-4.514962	-0.898782	-0.473422
H34	H	-4.687958	-0.909029	-0.556856
H35	H	-4.434398	-1.115167	-0.543160
H36	H	-4.607426	-1.125462	-0.626605
C37	C	-4.110450	-0.283823	-0.440877
C38	C	-4.149622	-0.281015	-0.529209
H39	H	-4.111285	-0.163321	-0.414484
H40	H	-4.228285	-0.413332	-0.430196
H41	H	-3.965191	-0.276682	-0.418043
H42	H	-4.294890	-0.288172	-0.552043
H43	H	-4.031780	-0.151473	-0.539896
C44	C	-3.531292	-0.432349	-0.552401
C45	C	-3.705784	-0.623828	-0.537372
H46	H	-3.386084	-0.424599	-0.528647
H47	H	-3.555581	-0.430251	-0.612261
H48	H	-3.533852	-0.312337	-0.526475
H49	H	-3.703235	-0.743842	-0.563304
H50	H	-3.681488	-0.625946	-0.477501
H51	H	-4.526224	-0.666879	-0.669328
C52	C	-3.928209	-1.001160	-0.654691
C53	C	-4.143094	-1.012843	-0.687789
H54	H	-3.927246	-1.121507	-0.681156
H55	H	-3.811356	-0.871547	-0.665754
H56	H	-3.900313	-1.002540	-0.594714
H57	H	-4.170983	-1.011447	-0.747765
H58	H	-4.259982	-1.142490	-0.676732
