data_functionalizedCrystal
_audit_creation_method	'MofGen! by Chris Wilmer'
_symmetry_space_group_name_H-M	'P1'
_symmetry_Int_Tables_number	1
_symmetry_cell_setting	triclinic
loop_
_symmetry_equiv_pos_as_xyz
  x,y,z
_cell_length_a	16.992697
_cell_length_b	10.268362
_cell_length_c	16.974755
_cell_angle_alpha	93.662169
_cell_angle_beta	92.979258
_cell_angle_gamma	90.001978
loop_
_atom_site_label
_atom_site_type_symbol
_atom_site_fract_x
_atom_site_fract_y
_atom_site_fract_z
O1	O	-1.040199	0.125789	0.167654
O2	O	-0.540199	0.625789	0.667654
O3	O	-0.811915	0.125639	0.165814
O4	O	-0.311915	0.625639	0.665814
O5	O	-0.932429	0.113610	0.052031
O6	O	-0.432429	0.613610	0.552031
O7	O	-0.919685	0.137818	0.281436
O8	O	-0.419685	0.637818	0.781436
O9	O	-0.932419	-0.102991	0.052026
O10	O	-0.432419	0.397009	0.552026
O11	O	-0.811905	-0.090962	0.165808
O12	O	-0.311905	0.409038	0.665808
O13	O	-1.040188	-0.090812	0.167648
O14	O	-0.540188	0.409188	0.667648
Cu15	Cu	-0.926046	-0.110664	0.166728
Cu16	Cu	-0.426046	0.389336	0.666728
Cu17	Cu	-0.926058	0.145492	0.166734
Cu18	Cu	-0.426058	0.645492	0.666734
O19	O	-0.919675	-0.078783	0.281431
O20	O	-0.419675	0.421217	0.781431
C21	C	-0.782700	0.017095	0.163445
C22	C	-0.282700	0.517095	0.663445
C23	C	-0.695664	0.016367	0.156385
C24	C	-0.195664	0.516367	0.656385
C25	C	-0.645346	0.023555	0.224501
C26	C	-0.145346	0.523555	0.724501
C27	C	-0.563567	0.022838	0.217863
C28	C	-0.063567	0.522838	0.717863
C29	C	-0.532108	0.014943	0.143108
C30	C	-0.032108	0.514943	0.643108
C31	C	-0.582433	0.007751	0.074987
C32	C	-0.082433	0.507751	0.574987
C33	C	-0.664211	0.008458	0.081626
C34	C	-0.164211	0.508458	0.581626
C35	C	-0.288542	0.012011	0.115593
C36	C	0.211458	0.512011	0.615593
C37	C	-0.206758	0.011308	0.108959
C38	C	0.293242	0.511308	0.608959
C39	C	-0.187897	0.026393	0.251836
C40	C	0.312103	0.526393	0.751836
C41	C	-0.269677	0.027107	0.258468
C42	C	0.230323	0.527107	0.758468
C43	C	-0.319995	0.019908	0.190347
C44	C	0.180005	0.519908	0.690347
N45	N	-0.448517	0.014215	0.136321
N46	N	0.051483	0.514215	0.636321
N47	N	-0.403585	0.020627	0.197135
N48	N	0.096415	0.520627	0.697135
N49	N	-0.926043	-0.290831	0.166723
N50	N	-0.426043	0.209169	0.666723
C51	C	-0.926054	-0.556500	0.166733
C52	C	-0.426054	-0.056500	0.666733
C53	C	-0.926045	-0.408663	0.166729
C54	C	-0.426045	0.091337	0.666729
C55	C	-0.069403	0.017741	0.170017
C56	C	0.430597	0.517741	0.670017
C57	C	-0.156440	0.018496	0.177075
C58	C	0.343560	0.518496	0.677075
C59	C	-0.931942	0.002201	0.022539
C60	C	-0.431942	0.502201	0.522539
C61	C	-0.930496	-0.007062	-0.065330
C62	C	-0.430496	0.492938	0.434670
N63	N	-0.926067	0.325657	0.166733
N64	N	-0.426067	0.825657	0.666733
C65	C	-0.922285	-0.071822	-0.559940
C66	C	-0.422285	0.428178	-0.059940
C67	C	-0.923651	-0.063125	-0.477377
C68	C	-0.423651	0.436875	0.022623
C69	C	-0.924346	0.059296	-0.436085
C70	C	-0.424346	0.559296	0.063915
C71	C	-0.923667	0.173027	-0.477358
C72	C	-0.423667	0.673027	0.022642
C73	C	-0.922295	0.164328	-0.559919
C74	C	-0.422295	0.664328	-0.059919
C75	C	-0.928445	0.097971	-0.189164
C76	C	-0.428445	0.597971	0.310836
C77	C	-0.929819	0.106661	-0.106598
C78	C	-0.429819	0.606661	0.393402
C79	C	-0.929802	-0.129492	-0.106623
C80	C	-0.429802	0.370508	0.393377
C81	C	-0.928435	-0.138180	-0.189185
C82	C	-0.428435	0.361820	0.310815
C83	C	-0.927751	-0.024449	-0.230451
C84	C	-0.427751	0.475551	0.269549
N85	N	-0.925745	0.068188	-0.351693
N86	N	-0.425745	0.568188	0.148307
N87	N	-0.926347	-0.033343	-0.314841
N88	N	-0.426347	0.466657	0.185159
C89	C	-0.920162	0.032629	0.310923
C90	C	-0.420162	0.532629	0.810923
C91	C	-0.921608	0.041900	0.398793
C92	C	-0.421608	0.541900	0.898793
H93	H	-0.146920	0.032252	0.307296
H94	H	0.353080	0.532252	0.807296
F95	F	-0.924419	0.303317	-0.433411
F96	F	-0.424419	0.803317	0.066589
H97	H	-0.329502	0.006147	0.060123
H98	H	0.170498	0.506147	0.560123
H99	H	-0.670953	0.029985	0.285375
H100	H	-0.170953	0.529985	0.785375
F101	F	-0.930560	0.236964	-0.062653
F102	F	-0.430560	0.736964	0.437347
H103	H	-0.927873	-0.237868	-0.222800
H104	H	-0.427873	0.262132	0.277200
H105	H	-0.921739	0.256934	-0.593518
H106	H	-0.421739	0.756934	-0.093518
H107	H	-0.927895	0.190579	-0.222754
H108	H	-0.427895	0.690579	0.277246
H109	H	-0.556813	0.001304	0.014119
H110	H	-0.056813	0.501304	0.514119
H111	H	-0.705180	0.002605	0.026158
H112	H	-0.205180	0.502605	0.526158
H113	H	-0.181148	0.004880	0.048081
H114	H	0.318852	0.504880	0.548081
F115	F	-0.921551	-0.202121	-0.603879
F116	F	-0.421551	0.297879	-0.103879
H117	H	-0.522600	0.028693	0.273331
H118	H	-0.022600	0.528693	0.773331
H119	H	-0.295284	0.033552	0.319342
H120	H	0.204716	0.533552	0.819342
H121	H	-0.930357	-0.222085	-0.073015
H122	H	-0.430357	0.277915	0.426985
F123	F	-0.924358	-0.184165	-0.433460
F124	F	-0.424358	0.315835	0.066540
