data_functionalizedCrystal
_audit_creation_method	'MofGen! by Chris Wilmer'
_symmetry_space_group_name_H-M	'P1'
_symmetry_Int_Tables_number	1
_symmetry_cell_setting	triclinic
loop_
_symmetry_equiv_pos_as_xyz
  x,y,z
_cell_length_a	11.026607
_cell_length_b	10.268362
_cell_length_c	11.026607
_cell_angle_alpha	90.003050
_cell_angle_beta	108.586017
_cell_angle_gamma	90.003722
loop_
_atom_site_label
_atom_site_type_symbol
_atom_site_fract_x
_atom_site_fract_y
_atom_site_fract_z
O1	O	1.726734	0.108297	0.533625
O2	O	2.226734	0.608297	1.033625
O3	O	1.360154	0.108299	0.472861
O4	O	1.860154	0.608299	0.972861
O5	O	1.513062	0.108294	0.319953
O6	O	2.013062	0.608294	0.819953
O7	O	1.573825	0.108303	0.686533
O8	O	2.073825	0.608303	1.186533
O9	O	1.513043	-0.108307	0.319941
O10	O	2.013043	0.391693	0.819941
O11	O	1.360135	-0.108302	0.472849
O12	O	1.860135	0.391698	0.972849
O13	O	1.726715	-0.108304	0.533613
O14	O	2.226715	0.391696	1.033613
Cu15	Cu	1.543423	-0.128080	0.503230
Cu16	Cu	2.043423	0.371920	1.003230
Cu17	Cu	1.543445	0.128075	0.503244
Cu18	Cu	2.043445	0.628075	1.003244
O19	O	1.573807	-0.108298	0.686521
O20	O	2.073807	0.391702	1.186521
C21	C	1.312485	-0.000001	0.461645
C22	C	1.812485	0.499999	0.961645
C23	C	1.170471	-0.000000	0.428228
C24	C	1.670471	0.500000	0.928228
N25	N	1.543417	-0.308246	0.503221
N26	N	2.043417	0.191754	1.003221
C27	C	1.116821	0.000003	0.520498
C28	C	1.616821	0.500003	1.020498
C29	C	0.970043	0.000004	0.485962
C30	C	1.470043	0.500004	0.985962
C31	C	1.543438	-0.573916	0.503240
C32	C	2.043438	-0.073916	1.003240
C33	C	1.543423	-0.426078	0.503233
C34	C	2.043423	0.073922	1.003233
C35	C	1.774384	-0.000001	0.544828
C36	C	2.274384	0.499999	1.044828
C37	C	1.916398	0.000007	0.578245
C38	C	2.416398	0.500007	1.078245
C39	C	1.501843	-0.000005	0.272287
C40	C	2.001843	0.499995	0.772287
C41	C	1.468426	-0.000000	0.130273
C42	C	1.968426	0.500000	0.630273
N43	N	1.543460	0.308241	0.503244
N44	N	2.043460	0.808241	1.003244
C45	C	1.560695	0.000001	0.076624
C46	C	2.060695	0.500001	0.576624
C47	C	1.526160	0.000006	-0.070155
C48	C	2.026160	0.500006	0.429845
C49	C	1.585026	0.000004	0.734187
C50	C	2.085026	0.500004	1.234187
C51	C	1.618443	0.000007	0.876200
C52	C	2.118443	0.500007	1.376200
H53	H	1.179555	-0.000002	0.625061
H54	H	1.679555	0.499998	1.125061
O55	O	1.087392	-0.000004	0.289716
O56	O	1.587392	0.499996	0.789716
H57	H	0.985143	0.000005	0.284327
H58	H	1.485143	0.500005	0.784327
H59	H	1.421590	0.000015	-0.132884
H60	H	1.921590	0.500015	0.367116
H61	H	1.665258	-0.000008	0.139357
H62	H	2.165258	0.499992	0.639357
H63	H	1.723013	0.000105	-0.061072
H64	H	2.223013	0.500105	0.438928
H65	H	1.363863	0.000009	0.067540
H66	H	1.863863	0.500009	0.567540
H67	H	0.979125	0.000001	0.682816
H68	H	1.479125	0.500001	1.182816
O69	O	0.886968	0.000000	0.347443
O70	O	1.386968	0.500000	0.847443
H71	H	0.784719	0.000009	0.342054
H72	H	1.284719	0.500009	0.842054
