data_functionalizedCrystal
_audit_creation_method	'MofGen! by Chris Wilmer'
_symmetry_space_group_name_H-M	'P1'
_symmetry_Int_Tables_number	1
_symmetry_cell_setting	triclinic
loop_
_symmetry_equiv_pos_as_xyz
  x,y,z
_cell_length_a	23.532407
_cell_length_b	23.532357
_cell_length_c	15.186229
_cell_angle_alpha	89.990735
_cell_angle_beta	89.999328
_cell_angle_gamma	82.838519
loop_
_atom_site_label
_atom_site_type_symbol
_atom_site_fract_x
_atom_site_fract_y
_atom_site_fract_z
O1	O	0.755246	0.069136	-0.073184
O2	O	1.255246	0.569136	0.426816
O3	O	0.589381	0.079140	-0.073199
O4	O	1.089381	0.579140	0.426801
O5	O	0.677330	-0.008796	-0.073173
O6	O	1.177330	0.491204	0.426827
O7	O	0.667297	0.157072	-0.073210
O8	O	1.167297	0.657072	0.426790
O9	O	0.677324	-0.008797	0.073285
O10	O	1.177324	0.491203	0.573285
O11	O	0.589375	0.079138	0.073258
O12	O	1.089375	0.579138	0.573258
O13	O	0.755240	0.069135	0.073274
O14	O	1.255240	0.569135	0.573274
Zn15	Zn	0.672307	0.074136	0.096519
Zn16	Zn	1.172307	0.574136	0.596519
Zn17	Zn	0.672315	0.074138	-0.096444
Zn18	Zn	1.172315	0.574138	0.403556
O19	O	0.667291	0.157070	0.073247
O20	O	1.167291	0.657070	0.573247
C21	C	0.568162	0.078884	0.000028
C22	C	1.068162	0.578884	0.500028
C23	C	0.504945	0.078118	0.000023
C24	C	1.004945	0.578118	0.500023
C25	C	0.238788	0.022922	0.000059
C26	C	0.738788	0.522922	0.500059
C27	C	0.298188	0.023633	0.000059
C28	C	0.798188	0.523633	0.500059
O29	O	0.334940	-0.020154	0.000099
O30	O	0.834940	0.479846	0.500099
N31	N	0.320805	0.075911	0.000041
N32	N	0.820805	0.575911	0.500041
C33	C	0.284018	0.127480	0.000033
C34	C	0.784018	0.627480	0.500033
O35	O	0.308710	0.172012	0.000019
O36	O	0.808710	0.672012	0.500019
C37	C	0.224619	0.126768	0.000040
C38	C	0.724619	0.626768	0.500040
C39	C	0.202006	0.074487	0.000048
C40	C	0.702006	0.574487	0.500048
C41	C	0.216174	-0.029355	0.000069
C42	C	0.716174	0.470645	0.500069
C43	C	0.156778	-0.030066	0.000068
C44	C	0.656778	0.469934	0.500068
C45	C	0.119996	0.021499	0.000057
C46	C	0.619996	0.521499	0.500057
C47	C	0.142610	0.073776	0.000047
C48	C	0.642610	0.573776	0.500047
C49	C	0.187833	0.178337	0.000037
C50	C	0.687833	0.678337	0.500037
C51	C	0.128431	0.177620	0.000045
C52	C	0.628431	0.677620	0.500045
C53	C	0.105818	0.125339	0.000054
C54	C	0.605818	0.625339	0.500054
C55	C	0.046431	0.124630	0.000035
C56	C	0.546431	0.624630	0.500035
N57	N	0.023815	0.072353	0.000052
N58	N	0.523815	0.572353	0.500052
C59	C	0.060597	0.020787	0.000063
C60	C	0.560597	0.520787	0.500063
C61	C	0.408760	0.128971	0.000020
C62	C	0.908760	0.628971	0.500020
C63	C	0.468158	0.129684	0.000007
C64	C	0.968158	0.629684	0.500007
C65	C	0.482324	0.025837	0.000035
C66	C	0.982324	0.525837	0.500035
C67	C	0.422925	0.025125	0.000042
C68	C	0.922925	0.525125	0.500042
C69	C	0.386143	0.076694	0.000038
C70	C	0.886143	0.576694	0.500038
C71	C	-0.064140	0.019297	0.000060
C72	C	0.435860	0.519297	0.500060
C73	C	-0.123542	0.018591	0.000055
C74	C	0.376458	0.518591	0.500055
C75	C	-0.137702	0.122438	0.000032
C76	C	0.362298	0.622438	0.500032
C77	C	-0.078306	0.123145	0.000032
C78	C	0.421694	0.623145	0.500032
C79	C	-0.041525	0.071570	0.000049
C80	C	0.458475	0.571570	0.500049
O81	O	0.009644	0.168394	-0.000002
O82	O	0.509644	0.668394	0.499998
O83	O	0.035897	-0.023737	0.000089
O84	O	0.535897	0.476263	0.500089
C85	C	0.677076	-0.030013	0.000059
C86	C	1.177076	0.469987	0.500059
C87	C	0.676322	-0.093232	0.000067
C88	C	1.176322	0.406768	0.500067
C89	C	0.671588	-0.485242	-0.079815
C90	C	1.171588	0.014758	0.420185
C91	C	0.670871	-0.544642	-0.079820
C92	C	1.170871	-0.044642	0.420180
O93	O	0.670483	-0.575357	-0.147716
O94	O	1.170483	-0.075357	0.352284
N95	N	0.670512	-0.574354	0.000013
N96	N	1.170512	-0.074354	0.500013
C97	C	0.670865	-0.544662	0.079856
C98	C	1.170865	-0.044662	0.579856
O99	O	0.670493	-0.575388	0.147759
O100	O	1.170493	-0.075388	0.647759
C101	C	0.671578	-0.485263	0.079860
C102	C	1.171578	0.014737	0.579860
C103	C	0.671942	-0.455555	0.000022
C104	C	1.171942	0.044445	0.500022
C105	C	0.671952	-0.455534	-0.159646
C106	C	1.171952	0.044466	0.340354
C107	C	0.672670	-0.396139	-0.159641
C108	C	1.172670	0.103861	0.340359
C109	C	0.673025	-0.366452	-0.079804
C110	C	1.173025	0.133548	0.420196
C111	C	0.672661	-0.396160	0.000027
C112	C	1.172661	0.103840	0.500027
C113	C	0.671926	-0.455572	0.159702
C114	C	1.171926	0.044428	0.659702
C115	C	0.672639	-0.396169	0.159699
C116	C	1.172639	0.103831	0.659699
C117	C	0.673004	-0.366461	0.079861
C118	C	1.173004	0.133539	0.579861
C119	C	0.673733	-0.307078	0.079870
C120	C	1.173733	0.192922	0.579870
N121	N	0.674092	-0.277366	0.000037
N122	N	1.174092	0.222634	0.500037
C123	C	0.673738	-0.307053	-0.079800
C124	C	1.173738	0.192947	0.420200
C125	C	0.669366	-0.669404	0.079841
C126	C	1.169366	-0.169404	0.579841
C127	C	0.668657	-0.728802	0.079838
C128	C	1.168657	-0.228802	0.579838
C129	C	0.668662	-0.728777	-0.079838
C130	C	1.168662	-0.228777	0.420162
C131	C	0.669375	-0.669378	-0.079834
C132	C	1.169375	-0.169378	0.420166
C133	C	0.669725	-0.639692	0.000008
C134	C	1.169725	-0.139692	0.500008
C135	C	0.675247	-0.182319	-0.079783
C136	C	1.175247	0.317681	0.420217
C137	C	0.675967	-0.122919	-0.079770
C138	C	1.175967	0.377081	0.420230
C139	C	0.675959	-0.122948	0.079906
C140	C	1.175959	0.377052	0.579906
C141	C	0.675242	-0.182343	0.079894
C142	C	1.175242	0.317657	0.579894
C143	C	0.674883	-0.212027	0.000042
C144	C	1.174883	0.287973	0.500042
O145	O	0.674119	-0.276324	0.147731
O146	O	1.174119	0.223676	0.647731
O147	O	0.674102	-0.276318	-0.147692
O148	O	1.174102	0.223682	0.352308
C149	C	0.776459	0.069390	0.000045
C150	C	1.276459	0.569390	0.500045
C151	C	0.839676	0.070156	0.000044
C152	C	1.339676	0.570156	0.500044
C153	C	0.667545	0.178288	0.000014
C154	C	1.167545	0.678288	0.500014
C155	C	0.668300	0.241506	0.000000
C156	C	1.168300	0.741506	0.500000
N157	N	0.672306	0.074135	0.228212
N158	N	1.172306	0.574135	0.728212
N159	N	0.672320	0.074135	-0.228137
N160	N	1.172320	0.574135	0.271863
C161	C	0.711263	0.035210	0.453946
C162	C	1.211263	0.535210	0.953946
C163	C	0.711265	0.035209	0.546136
C164	C	1.211265	0.535209	1.046136
C165	C	0.633359	0.113062	0.546122
C166	C	1.133359	0.613062	1.046122
C167	C	0.633355	0.113060	0.453934
C168	C	1.133355	0.613060	0.953934
C169	C	0.672310	0.074135	0.407849
C170	C	1.172310	0.574135	0.907849
C171	C	0.672316	0.074135	0.592226
C172	C	1.172316	0.574135	1.092226
C173	C	0.672318	0.074134	0.692182
C174	C	1.172318	0.574134	1.192182
C175	C	0.672308	0.074135	0.307886
C176	C	1.172308	0.574135	0.807886
H177	H	0.138372	-0.072639	0.000079
H178	H	0.638372	0.427361	0.500079
O179	O	0.401028	-0.025696	-0.000061
O180	O	0.901028	0.474304	0.499939
C181	C	0.419840	-0.057101	-0.075919
C182	C	0.919840	0.442899	0.424081
H183	H	0.460949	-0.041815	-0.101218
H184	H	0.960949	0.458185	0.398782
H185	H	0.428360	-0.104576	-0.058849
H186	H	0.928360	0.395424	0.441151
H187	H	0.385423	-0.050307	-0.129029
H188	H	0.885423	0.449693	0.370971
O189	O	0.676393	-0.094146	0.157483
O190	O	1.176393	0.405854	0.657483
C191	C	0.725531	-0.115402	0.206092
C192	C	1.225531	0.384598	0.706092
H193	H	0.759829	-0.136428	0.159400
H194	H	1.259829	0.363572	0.659400
H195	H	0.742544	-0.078600	0.242320
H196	H	1.242544	0.421400	0.742320
H197	H	0.713955	-0.148366	0.255862
H198	H	1.213955	0.351634	0.755862
O199	O	0.749054	-0.002571	0.409042
O200	O	1.249054	0.497429	0.909042
C201	C	0.740678	0.005750	0.317788
C202	C	1.240678	0.505750	0.817788
H203	H	0.719162	0.051151	0.305171
H204	H	1.219162	0.551151	0.805171
H205	H	0.783833	-0.000851	0.282730
H206	H	1.283833	0.499149	0.782730
H207	H	0.712267	-0.026319	0.291674
H208	H	1.212267	0.473681	0.791674
O209	O	-0.028359	-0.030764	-0.000047
O210	O	0.471641	0.469236	0.499953
C211	C	0.006412	-0.033467	-0.075911
C212	C	0.506412	0.466533	0.424089
H213	H	0.009167	0.011721	-0.101204
H214	H	0.509167	0.511721	0.398796
H215	H	0.051178	-0.054950	-0.058852
H216	H	0.551178	0.445050	0.441148
H217	H	-0.012990	-0.059357	-0.129021
H218	H	0.487010	0.440643	0.370979
H219	H	-0.167661	0.164421	0.000019
H220	H	0.332339	0.664421	0.500019
H221	H	0.671630	-0.479750	0.224715
H222	H	1.171630	0.020250	0.724715
O223	O	-0.145602	-0.032147	0.000026
O224	O	0.354398	0.467853	0.500026
C225	C	-0.205917	-0.021723	0.000043
C226	C	0.294083	0.478277	0.500043
H227	H	-0.220121	0.022802	-0.027695
H228	H	0.279879	0.522802	0.472305
H229	H	-0.223964	-0.055156	-0.042470
H230	H	0.276036	0.444844	0.457530
H231	H	-0.222439	-0.024388	0.070306
H232	H	0.277561	0.475612	0.570306
H233	H	0.486564	0.172256	-0.000012
H234	H	0.986564	0.672256	0.499988
H235	H	0.669671	-0.645194	-0.144845
H236	H	1.169671	-0.145194	0.355155
O237	O	0.595544	0.150952	0.590792
O238	O	1.095544	0.650952	1.090792
C239	C	0.604478	0.207284	0.568261
C240	C	1.104478	0.707284	1.068261
H241	H	0.626429	0.207100	0.501325
H242	H	1.126429	0.707100	1.001325
H243	H	0.561506	0.235549	0.565100
H244	H	1.061506	0.735549	1.065100
H245	H	0.632723	0.224755	0.620137
H246	H	1.132723	0.724755	1.120137
H247	H	0.601632	0.144757	0.416399
H248	H	1.101632	0.644757	0.916399
H249	H	0.668372	-0.752959	-0.144846
H250	H	1.168372	-0.252959	0.355154
H251	H	0.246117	-0.071348	0.000081
H252	H	0.746117	0.428652	0.500081
O253	O	0.518141	-0.024204	0.000090
O254	O	1.018141	0.475796	0.500090
C255	C	0.575415	-0.012358	0.000062
C256	C	1.075415	0.487642	0.500062
H257	H	0.577433	0.032364	0.027776
H258	H	1.077433	0.532364	0.527776
H259	H	0.602519	-0.045244	0.042592
H260	H	1.102519	0.454756	0.542592
H261	H	0.592607	-0.014617	-0.070201
H262	H	1.092607	0.485383	0.429799
H263	H	0.378815	0.170968	0.000011
H264	H	0.878815	0.670968	0.500011
H265	H	0.671662	-0.479699	-0.224663
H266	H	1.171662	0.020301	0.275337
O267	O	0.749159	-0.002623	0.590779
O268	O	1.249159	0.497377	1.090779
C269	C	0.783528	-0.036988	0.530330
C270	C	1.283528	0.463012	1.030330
H271	H	0.784032	-0.013639	0.464610
H272	H	1.284032	0.486361	0.964610
H273	H	0.829060	-0.045908	0.556964
H274	H	1.329060	0.454092	1.056964
H275	H	0.765286	-0.079203	0.520537
H276	H	1.265286	0.420797	1.020537
O277	O	0.674794	-0.211171	0.157465
O278	O	1.174794	0.288829	0.657465
C279	C	0.625646	-0.189917	0.206045
C280	C	1.125646	0.310083	0.706045
H281	H	0.591365	-0.168869	0.159333
H282	H	1.091365	0.331131	0.659333
H283	H	0.608612	-0.226724	0.242249
H284	H	1.108612	0.273276	0.742249
H285	H	0.637217	-0.156972	0.255833
H286	H	1.137217	0.343028	0.755833
O287	O	0.209695	0.229174	0.000075
O288	O	0.709695	0.729174	0.500075
C289	C	0.164483	0.274526	0.000052
C290	C	0.664483	0.774526	0.500052
H291	H	0.124222	0.258785	0.027777
H292	H	0.624222	0.758785	0.527777
H293	H	0.176681	0.311045	0.042573
H294	H	0.676681	0.811045	0.542573
H295	H	0.155985	0.290422	-0.070211
H296	H	0.655985	0.790422	0.429789
H297	H	0.098485	0.219615	0.000046
H298	H	0.598485	0.719615	0.500046
O299	O	-0.056430	0.173979	0.000054
O300	O	0.443570	0.673979	0.500054
C301	C	-0.101636	0.219339	0.000015
C302	C	0.398364	0.719339	0.500015
H303	H	-0.141902	0.203609	0.027740
H304	H	0.358098	0.703609	0.527740
H305	H	-0.089433	0.255860	0.042529
H306	H	0.410567	0.755860	0.542529
H307	H	-0.110127	0.235228	-0.070253
H308	H	0.389873	0.735228	0.429747
O309	O	0.668206	-0.757615	0.157418
O310	O	1.168206	-0.257615	0.657418
C311	C	0.619055	-0.736352	0.205983
C312	C	1.119055	-0.236352	0.705983
H313	H	0.584777	-0.715315	0.159259
H314	H	1.084777	-0.215315	0.659259
H315	H	0.602020	-0.773152	0.242206
H316	H	1.102020	-0.273152	0.742206
H317	H	0.630622	-0.703396	0.255756
H318	H	1.130622	-0.203396	0.755756
O319	O	0.676293	-0.094145	-0.157407
O320	O	1.176293	0.405855	0.342593
C321	C	0.675839	-0.133092	-0.227871
C322	C	1.175839	0.366908	0.272129
H323	H	0.657294	-0.172973	-0.204467
H324	H	1.157294	0.327027	0.295533
H325	H	0.648395	-0.112148	-0.283711
H326	H	1.148395	0.387852	0.216289
H327	H	0.721460	-0.145646	-0.252415
H328	H	1.221460	0.354354	0.247585
O329	O	0.674975	-0.211216	-0.157297
O330	O	1.174975	0.288784	0.342703
C331	C	0.723897	-0.252300	-0.162099
C332	C	1.223897	0.247700	0.337901
H333	H	0.740233	-0.263468	-0.092785
H334	H	1.240233	0.236532	0.407215
H335	H	0.712299	-0.292542	-0.195914
H336	H	1.212299	0.207458	0.304086
H337	H	0.758719	-0.234111	-0.201479
H338	H	1.258719	0.265889	0.298521
O339	O	0.669791	-0.640518	0.157350
O340	O	1.169791	-0.140518	0.657350
C341	C	0.719542	-0.612906	0.162152
C342	C	1.219542	-0.112906	0.662152
H343	H	0.736096	-0.606235	0.092839
H344	H	1.236096	-0.106235	0.592839
H345	H	0.708949	-0.569630	0.195956
H346	H	1.208949	-0.069630	0.695956
H347	H	0.753809	-0.640522	0.201543
H348	H	1.253809	-0.140522	0.701543
H349	H	0.672965	-0.371956	-0.224653
H350	H	1.172965	0.128044	0.275347
H351	H	0.672915	-0.372000	0.224718
H352	H	1.172915	0.128000	0.724718
