data_functionalizedCrystal
_audit_creation_method	'MofGen! by Chris Wilmer'
_symmetry_space_group_name_H-M	'P1'
_symmetry_Int_Tables_number	1
_symmetry_cell_setting	triclinic
loop_
_symmetry_equiv_pos_as_xyz
  x,y,z
_cell_length_a	10.654550
_cell_length_b	16.109301
_cell_length_c	9.730223
_cell_angle_alpha	89.997247
_cell_angle_beta	89.996251
_cell_angle_gamma	83.973192
loop_
_atom_site_label
_atom_site_type_symbol
_atom_site_fract_x
_atom_site_fract_y
_atom_site_fract_z
O1	O	1.666250	0.116770	-0.114408
O2	O	1.300620	0.127896	-0.114386
O3	O	1.493479	0.001362	-0.114384
O4	O	1.473391	0.243304	-0.114410
O5	O	1.493477	0.001365	0.114196
O6	O	1.300618	0.127899	0.114194
O7	O	1.666248	0.116773	0.114172
Zn8	Zn	1.483433	0.122337	0.150475
Zn9	Zn	1.483436	0.122332	-0.150689
O10	O	1.473389	0.243307	0.114170
C11	C	1.253832	0.127080	-0.000093
C12	C	1.114422	0.124636	-0.000085
C13	C	1.033926	0.199138	-0.000113
C14	C	0.902936	0.196836	-0.000136
C15	C	0.932952	0.045526	-0.000109
C16	C	1.063939	0.047828	-0.000076
C17	C	1.016595	0.286496	-0.000135
C18	C	0.885606	0.284194	-0.000158
C19	C	1.492665	-0.029616	-0.000093
C20	C	1.490225	-0.121926	-0.000091
C21	C	1.598991	-0.343552	-0.000119
C22	C	1.596689	-0.430286	-0.000130
C23	C	1.367868	-0.411772	-0.000111
C24	C	1.370172	-0.325040	-0.000110
C25	C	1.485737	-0.290932	-0.000107
C26	C	1.481131	-0.464399	-0.000119
C27	C	1.478634	-0.558440	-0.000131
C28	C	1.488234	-0.196885	-0.000097
C29	C	1.713036	0.117589	-0.000124
C30	C	1.852446	0.120033	-0.000141
C31	C	1.474204	0.274286	-0.000124
C32	C	1.476643	0.366595	-0.000135
N33	N	1.483440	0.122339	0.356011
N34	N	1.483438	0.122324	-0.356225
C35	C	1.568859	0.066329	0.427939
C36	C	1.568856	0.066319	0.571822
C37	C	1.398010	0.178336	0.571837
C38	C	1.398008	0.178342	0.427957
C39	C	1.667500	0.001659	0.427931
C40	C	1.667497	0.001649	0.571814
H41	H	1.051874	0.314310	-0.098825
H42	H	1.693091	-0.315785	-0.000119
N43	N	1.054857	0.331746	0.126575
H44	H	1.097547	0.382190	0.098378
H45	H	0.977399	0.350222	0.183050
N46	N	0.878497	-0.037312	-0.000119
H47	H	0.949372	-0.084159	-0.000098
H48	H	0.824783	-0.041562	0.084607
H49	H	1.273779	-0.439553	-0.000111
H50	H	1.277941	-0.282194	-0.000104
N51	N	1.305870	0.238733	0.649444
H52	H	1.353832	0.275840	0.709142
H53	H	1.251777	0.274160	0.581958
H54	H	1.328442	0.223942	0.369395
N55	N	0.824634	0.319162	0.130557
H56	H	0.841974	0.379232	0.141801
H57	H	0.730537	0.316135	0.125691
N58	N	1.718844	-0.487038	-0.000124
H59	H	1.699854	-0.547159	-0.000128
H60	H	1.769211	-0.475915	-0.084860
H61	H	1.763815	0.015894	0.610857
H62	H	0.843427	0.317108	-0.095829
N63	N	1.787921	0.028470	0.368796
H64	H	1.783524	0.027494	0.265128
H65	H	1.798807	0.086897	0.400921
N66	N	1.640250	-0.082984	0.376193
H67	H	1.628082	-0.120759	0.456885
H68	H	1.561028	-0.076703	0.318495
N69	N	1.628181	-0.078342	0.630936
H70	H	1.629615	-0.075427	0.734603
H71	H	1.540041	-0.086118	0.598814
N72	N	1.150763	-0.032526	-0.000010
H73	H	1.098903	-0.081530	-0.000008
H74	H	1.205796	-0.034880	-0.084727
