data_functionalizedCrystal
_audit_creation_method	'MofGen! by Chris Wilmer'
_symmetry_space_group_name_H-M	'P1'
_symmetry_Int_Tables_number	1
_symmetry_cell_setting	triclinic
loop_
_symmetry_equiv_pos_as_xyz
  x,y,z
_cell_length_a	18.050591
_cell_length_b	21.395361
_cell_length_c	21.395355
_cell_angle_alpha	90.021511
_cell_angle_beta	89.969444
_cell_angle_gamma	89.973287
loop_
_atom_site_label
_atom_site_type_symbol
_atom_site_fract_x
_atom_site_fract_y
_atom_site_fract_z
Zn1	Zn	1.135350	0.249578	-0.354349
Zn2	Zn	1.468684	0.582911	-0.021015
Zn3	Zn	1.802017	0.916245	0.312318
Zn4	Zn	1.135235	0.354338	-0.249566
Zn5	Zn	1.468568	0.687671	0.083768
Zn6	Zn	1.801901	1.021004	0.417101
Zn7	Zn	1.011149	0.249571	-0.249574
Zn8	Zn	1.344482	0.582904	0.083759
Zn9	Zn	1.677815	0.916237	0.417092
Zn10	Zn	1.011112	0.354314	-0.354295
Zn11	Zn	1.344445	0.687648	-0.020962
Zn12	Zn	1.677779	1.020981	0.312372
O13	O	1.073211	0.301950	-0.301946
O14	O	1.406545	0.635283	0.031387
O15	O	1.739878	0.968617	0.364721
O16	O	1.239260	0.263487	-0.340468
O17	O	1.572593	0.596821	-0.007135
O18	O	1.905926	0.930154	0.326199
O19	O	1.118741	0.340447	-0.161889
O20	O	1.452075	0.673780	0.171444
O21	O	1.785408	1.007114	0.504778
O22	O	1.027688	0.161894	-0.263499
O23	O	1.361021	0.495227	0.069834
O24	O	1.694355	0.828560	0.403168
O25	O	1.239175	0.340454	-0.263484
O26	O	1.572508	0.673787	0.069849
O27	O	1.905841	1.007121	0.403182
O28	O	1.118938	0.161899	-0.340476
O29	O	1.452272	0.495232	-0.007143
O30	O	1.785605	0.828566	0.326190
O31	O	1.027576	0.263475	-0.161895
O32	O	1.360909	0.596808	0.171438
O33	O	1.694242	0.930142	0.504771
O34	O	0.907219	0.263452	-0.263447
O35	O	1.240553	0.596786	0.069886
O36	O	1.573886	0.930119	0.403220
O37	O	1.027626	0.340414	-0.441980
O38	O	1.360959	0.673747	-0.108647
O39	O	1.694292	1.007081	0.224687
O40	O	0.907192	0.340407	-0.340385
O41	O	1.240526	0.673740	-0.007051
O42	O	1.573859	1.007074	0.326282
O43	O	1.118903	0.263465	-0.442019
O44	O	1.452236	0.596798	-0.108686
O45	O	1.785570	0.930131	0.224647
O46	O	1.118706	0.442012	-0.263432
O47	O	1.452039	0.775346	0.069901
O48	O	1.785373	1.108679	0.403235
O49	O	1.027514	0.441995	-0.340376
O50	O	1.360847	0.775329	-0.007043
O51	O	1.694180	1.108662	0.326290
C52	C	1.073113	0.464738	-0.301911
C53	C	1.406447	0.798071	0.031422
C54	C	1.739780	1.131404	0.364756
C55	C	1.073139	0.534379	-0.301917
C56	C	1.406473	0.867712	0.031416
C57	C	1.739806	1.201046	0.364750
C58	C	0.880259	0.301927	-0.301911
C59	C	1.213593	0.635260	0.031422
C60	C	1.546926	0.968593	0.364755
C61	C	0.797713	0.301932	-0.301911
C62	C	1.131047	0.635265	0.031422
C63	C	1.464380	0.968599	0.364755
C64	C	1.073273	0.301937	-0.465369
C65	C	1.406606	0.635271	-0.132036
C66	C	1.739940	0.968604	0.201297
C67	C	1.073299	0.301932	-0.535011
C68	C	1.406633	0.635265	-0.201677
C69	C	1.739966	0.968599	0.131656
C70	C	0.598256	0.260035	-0.260169
C71	C	0.931589	0.593369	0.073164
C72	C	1.264923	0.926702	0.406498
C73	C	0.548830	0.317181	-0.244746
C74	C	0.882164	0.650514	0.088587
C75	C	1.215497	0.983847	0.421921
C76	C	0.646583	0.301951	-0.301940
C77	C	0.979916	0.635284	0.031394
C78	C	1.313250	0.968618	0.364727
C79	C	0.548927	0.244826	-0.317361
C80	C	0.882260	0.578159	0.015972
C81	C	1.215594	0.911492	0.349305
C82	C	0.500598	0.301964	-0.301966
C83	C	0.833931	0.635298	0.031367
C84	C	1.167265	0.968631	0.364701
C85	C	0.598245	0.359126	-0.286487
C86	C	0.931578	0.692459	0.046847
C87	C	1.264911	1.025793	0.380180
C88	C	0.598346	0.286732	-0.359129
C89	C	0.931679	0.620066	-0.025795
C90	C	1.265013	0.953399	0.307538
C91	C	0.548943	0.343917	-0.343727
C92	C	0.882276	0.677250	-0.010394
C93	C	1.215609	1.010584	0.322940
C94	C	0.730681	0.301942	-0.301923
C95	C	1.064015	0.635276	0.031410
C96	C	1.397348	0.968609	0.364744
C97	C	0.416502	0.301979	-0.301983
C98	C	0.749835	0.635313	0.031351
C99	C	1.083168	0.968646	0.364684
C100	C	1.266917	0.301974	-0.301981
C101	C	1.600250	0.635307	0.031352
C102	C	1.933584	0.968641	0.364686
C103	C	1.349463	0.301984	-0.301996
C104	C	1.682796	0.635318	0.031337
C105	C	2.016129	0.968651	0.364671
C106	C	1.073330	0.138527	-0.301995
C107	C	1.406663	0.471860	0.031339
C108	C	1.739997	0.805193	0.364672
C109	C	1.073381	0.068886	-0.302015
C110	C	1.406714	0.402219	0.031318
C111	C	1.740047	0.735552	0.364651
C112	C	1.120665	0.567080	-0.261893
C113	C	1.453999	0.900414	0.071440
C114	C	1.787332	1.233747	0.404773
C115	C	1.120700	0.632516	-0.261907
C116	C	1.454033	0.965849	0.071426
C117	C	1.787367	1.299182	0.404759
C118	C	1.073195	0.665247	-0.301939
C119	C	1.406529	0.998581	0.031395
C120	C	1.739862	1.331914	0.364728
C121	C	1.025666	0.632538	-0.341970
C122	C	1.358999	0.965871	-0.008637
C123	C	1.692333	1.299205	0.324697
C124	C	1.025638	0.567104	-0.341959
C125	C	1.358971	0.900437	-0.008626
C126	C	1.692305	1.233771	0.324707
C127	C	1.006327	0.768959	-0.306843
C128	C	1.339660	1.102292	0.026491
C129	C	1.672994	1.435625	0.359824
C130	C	1.006354	0.834391	-0.306849
C131	C	1.339687	1.167725	0.026484
C132	C	1.673020	1.501058	0.359818
C133	C	1.073282	0.867068	-0.301975
C134	C	1.406615	1.200401	0.031358
C135	C	1.739948	1.533735	0.364691
C136	C	1.140185	0.834304	-0.297082
C137	C	1.473519	1.167637	0.036251
C138	C	1.806852	1.500970	0.369584
C139	C	1.140157	0.768869	-0.297072
C140	C	1.473491	1.102203	0.036262
C141	C	1.806824	1.435536	0.369595
C142	C	1.073221	0.736200	-0.301955
C143	C	1.406554	1.069533	0.031378
C144	C	1.739887	1.402866	0.364712
C145	C	1.120849	0.970722	-0.261965
C146	C	1.454182	1.304055	0.071369
C147	C	1.787516	1.637389	0.404702
C148	C	1.120885	1.036158	-0.261983
C149	C	1.454218	1.369492	0.071350
C150	C	1.787552	1.702825	0.404684
C151	C	1.025844	1.036180	-0.342043
C152	C	1.359178	1.369513	-0.008709
C153	C	1.692511	1.702846	0.324624
C154	C	1.025815	0.970744	-0.342027
C155	C	1.359149	1.304078	-0.008694
C156	C	1.692482	1.637411	0.324639
C157	C	1.073317	0.938019	-0.301985
C158	C	1.406650	1.271353	0.031348
C159	C	1.739983	1.604686	0.364682
C160	C	1.120825	0.261863	-0.567745
C161	C	1.454159	0.595196	-0.234412
C162	C	1.787492	0.928529	0.098921
C163	C	1.120824	0.261836	-0.633181
C164	C	1.454158	0.595169	-0.299847
C165	C	1.787491	0.928503	0.033486
C166	C	1.073305	0.301889	-0.665879
C167	C	1.406638	0.635223	-0.332546
C168	C	1.739972	0.968556	0.000788
C169	C	1.025770	0.341961	-0.633136
C170	C	1.359103	0.675295	-0.299803
C171	C	1.692437	1.008628	0.033530
C172	C	1.025767	0.341983	-0.567702
C173	C	1.359100	0.675316	-0.234369
C174	C	1.692434	1.008649	0.098964
C175	C	1.067407	0.358304	-0.769541
C176	C	1.400740	0.691638	-0.436208
C177	C	1.734074	1.024971	-0.102874
C178	C	1.067415	0.358284	-0.834974
C179	C	1.400749	0.691617	-0.501641
C180	C	1.734082	1.024951	-0.168307
C181	C	1.073310	0.301823	-0.867700
C182	C	1.406643	0.635156	-0.534367
C183	C	1.739976	0.968490	-0.201033
C184	C	1.079212	0.245381	-0.834985
C185	C	1.412545	0.578714	-0.501651
C186	C	1.745878	0.912047	-0.168318
C187	C	1.079209	0.245402	-0.769550
C188	C	1.412542	0.578735	-0.436217
C189	C	1.745875	0.912069	-0.102884
C190	C	1.073303	0.301870	-0.736831
C191	C	1.406636	0.635204	-0.403498
C192	C	1.739969	0.968537	-0.070165
C193	C	1.120837	0.261721	-0.971387
C194	C	1.454171	0.595055	-0.638054
C195	C	1.787504	0.928388	-0.304720
C196	C	1.120831	0.261693	-1.036824
C197	C	1.454164	0.595027	-0.703490
C198	C	1.787498	0.928360	-0.370157
C199	C	1.025780	0.341824	-1.036778
C200	C	1.359114	0.675158	-0.703445
C201	C	1.692447	1.008491	-0.370112
C202	C	1.025783	0.341847	-0.971343
C203	C	1.359116	0.675180	-0.638009
C204	C	1.692449	1.008513	-0.304676
C205	C	1.073315	0.301796	-0.938651
C206	C	1.406648	0.635129	-0.605318
C207	C	1.739982	0.968463	-0.271985
C208	C	1.073193	0.301918	-0.139158
C209	C	1.406526	0.635251	0.194175
C210	C	1.739859	0.968584	0.527508
C211	C	1.073310	0.301746	-0.069518
C212	C	1.406644	0.635080	0.263816
C213	C	1.739977	0.968413	0.597149
H214	H	0.527082	0.330063	-0.196393
H215	H	0.860415	0.663396	0.136940
H216	H	1.193749	0.996729	0.470273
O217	O	1.172154	1.071427	-0.218812
O218	O	1.505487	1.404760	0.114522
O219	O	1.838820	1.738094	0.447855
H220	H	1.209944	1.101188	-0.246892
H221	H	1.543277	1.434522	0.086441
H222	H	1.876610	1.767855	0.419774
O223	O	0.626810	0.423144	-0.269139
O224	O	0.960143	0.756478	0.064194
O225	O	1.293477	1.089811	0.397528
H226	H	0.688298	0.422629	-0.269238
H227	H	1.021631	0.755962	0.064096
H228	H	1.354965	1.089295	0.397429
H229	H	0.987062	0.374611	-0.541050
H230	H	1.320395	0.707944	-0.207717
H231	H	1.653729	1.041278	0.125617
O232	O	0.626953	0.213138	-0.213330
O233	O	0.960286	0.546472	0.120003
O234	O	1.293620	0.879805	0.453337
H235	H	0.579499	0.190111	-0.189710
H236	H	0.912832	0.523444	0.143624
H237	H	1.246165	0.856777	0.476957
O238	O	0.520422	0.390927	-0.390529
O239	O	0.853755	0.724260	-0.057195
O240	O	1.187088	1.057593	0.276138
H241	H	0.540276	0.438285	-0.377589
H242	H	0.873610	0.771618	-0.044256
H243	H	1.206943	1.104951	0.289078
O244	O	1.212309	0.733526	-0.291799
O245	O	1.545643	1.066860	0.041534
O246	O	1.878976	1.400193	0.374868
H247	H	1.248753	0.746031	-0.331676
H248	H	1.582086	1.079364	0.001657
H249	H	1.915419	1.412698	0.334991
O250	O	0.627189	0.269650	-0.423156
O251	O	0.960522	0.602983	-0.089823
O252	O	1.293856	0.936317	0.243511
H253	H	0.607476	0.222181	-0.435842
H254	H	0.940809	0.555515	-0.102508
H255	H	1.274143	0.888848	0.230825
H256	H	0.987082	0.374430	-1.063400
H257	H	1.320415	0.707764	-0.730067
H258	H	1.653748	1.041097	-0.396734
O259	O	1.061047	0.419208	-0.734250
O260	O	1.394380	0.752541	-0.400917
O261	O	1.727713	1.085874	-0.067584
H262	H	1.062028	0.409741	-0.683254
H263	H	1.395361	0.743074	-0.349921
H264	H	1.728695	1.076408	-0.016587
H265	H	1.062614	0.404243	-0.861606
H266	H	1.395947	0.737576	-0.528272
H267	H	1.729281	1.070909	-0.194939
O268	O	0.520232	0.180828	-0.334634
O269	O	0.853565	0.514162	-0.001301
O270	O	1.186898	0.847495	0.332032
H271	H	0.539991	0.146120	-0.299882
H272	H	0.873324	0.479453	0.033451
H273	H	1.206658	0.812787	0.366785
O274	O	1.171906	0.531782	-0.218716
O275	O	1.505240	0.865116	0.114617
O276	O	1.838573	1.198449	0.447951
H277	H	1.204966	0.565519	-0.190892
H278	H	1.538300	0.898853	0.142441
H279	H	1.871633	1.232186	0.475775
O280	O	1.171955	0.667799	-0.218732
O281	O	1.505288	1.001132	0.114601
O282	O	1.838622	1.334466	0.447934
H283	H	1.204976	0.634050	-0.190884
H284	H	1.538310	0.967383	0.142449
H285	H	1.871643	1.300717	0.475783
H286	H	0.951876	0.861063	-0.310827
H287	H	1.285210	1.194397	0.022506
H288	H	1.618543	1.527730	0.355840
O289	O	1.212381	0.869535	-0.291831
O290	O	1.545715	1.202869	0.041503
O291	O	1.879048	1.536202	0.374836
H292	H	1.201166	0.920540	-0.292669
H293	H	1.534499	1.253873	0.040664
H294	H	1.867832	1.587207	0.373998
H295	H	1.159530	0.944076	-0.229362
H296	H	1.492863	1.277409	0.103972
H297	H	1.826197	1.610743	0.437305
O298	O	0.974609	1.071477	-0.385221
O299	O	1.307942	1.404811	-0.051887
O300	O	1.641275	1.738144	0.281446
H301	H	0.941556	1.037741	-0.413052
H302	H	1.274890	1.371075	-0.079719
H303	H	1.608223	1.704408	0.253615
H304	H	0.987112	0.944117	-0.374616
H305	H	1.320445	1.277450	-0.041283
H306	H	1.653779	1.610784	0.292051
H307	H	0.951822	0.742360	-0.310814
H308	H	1.285155	1.075693	0.022520
H309	H	1.618488	1.409026	0.355853
H310	H	0.987077	0.374571	-0.659764
H311	H	1.320410	0.707905	-0.326430
H312	H	1.653744	1.041238	0.006903
O313	O	0.974500	0.385056	-0.936041
O314	O	1.307834	0.718389	-0.602708
O315	O	1.641167	1.051723	-0.269375
H316	H	0.987186	0.434233	-0.948596
H317	H	1.320519	0.767566	-0.615262
H318	H	1.653852	1.100899	-0.281929
O319	O	0.974419	0.667836	-0.385141
O320	O	1.307752	1.001169	-0.051808
O321	O	1.641085	1.334502	0.281525
H322	H	0.982414	0.718831	-0.378418
H323	H	1.315747	1.052164	-0.045085
H324	H	1.649081	1.385497	0.288248
H325	H	0.986936	0.540478	-0.374552
H326	H	1.320269	0.873811	-0.041219
H327	H	1.653603	1.207145	0.292114
O328	O	1.172087	0.218665	-0.532483
O329	O	1.505420	0.551999	-0.199150
O330	O	1.838754	0.885332	0.134183
H331	H	1.205132	0.190795	-0.566244
H332	H	1.538465	0.524128	-0.232910
H333	H	1.871799	0.857462	0.100423
H334	H	1.159524	0.229203	-0.659839
H335	H	1.492858	0.562537	-0.326505
H336	H	1.826191	0.895870	0.006828
O337	O	1.085570	0.184531	-0.734262
O338	O	1.418904	0.517865	-0.400928
O339	O	1.752237	0.851198	-0.067595
H340	H	1.089667	0.145264	-0.768006
H341	H	1.423000	0.478597	-0.434672
H342	H	1.756334	0.811930	-0.101339
H343	H	1.084013	0.199405	-0.861628
H344	H	1.417346	0.532738	-0.528295
H345	H	1.750679	0.866072	-0.194962
H346	H	1.159537	0.229106	-0.944768
H347	H	1.492870	0.562439	-0.611435
H348	H	1.826203	0.895773	-0.278102
H349	H	1.159531	0.229060	-1.063475
H350	H	1.492865	0.562394	-0.730142
H351	H	1.826198	0.895727	-0.396809
