data_functionalizedCrystal
_audit_creation_method	'MofGen! by Chris Wilmer'
_symmetry_space_group_name_H-M	'P1'
_symmetry_Int_Tables_number	1
_symmetry_cell_setting	triclinic
loop_
_symmetry_equiv_pos_as_xyz
  x,y,z
_cell_length_a	10.654541
_cell_length_b	14.044220
_cell_length_c	9.730217
_cell_angle_alpha	89.995579
_cell_angle_beta	89.999932
_cell_angle_gamma	88.836403
loop_
_atom_site_label
_atom_site_type_symbol
_atom_site_fract_x
_atom_site_fract_y
_atom_site_fract_z
O1	O	1.681226	0.133219	-0.114252
O2	O	1.317022	0.145915	-0.114264
O3	O	1.493657	0.001546	-0.114245
O4	O	1.504591	0.277587	-0.114271
O5	O	1.493651	0.001545	0.114335
O6	O	1.317016	0.145914	0.114316
O7	O	1.681220	0.133218	0.114328
Zn8	Zn	1.499117	0.139565	0.150614
Zn9	Zn	1.499125	0.139567	-0.150550
O10	O	1.504585	0.277586	0.114309
C11	C	1.270128	0.144983	0.000024
C12	C	1.130404	0.142195	0.000020
C13	C	1.119781	0.314827	-0.000014
C14	C	1.048829	0.399829	-0.000036
C15	C	0.917547	0.397204	-0.000037
C16	C	0.857215	0.309567	-0.000012
C17	C	0.928167	0.224565	0.000011
C18	C	1.059452	0.227199	0.000008
C19	C	0.938790	0.051935	0.000054
C20	C	1.070072	0.054558	0.000046
C21	C	0.878458	-0.035701	0.000080
C22	C	0.949411	-0.120706	0.000092
C23	C	1.080701	-0.118077	0.000092
C24	C	1.141025	-0.030444	0.000068
C25	C	1.488869	-0.033800	0.000046
C26	C	1.474593	-0.139120	0.000047
C27	C	1.448494	-0.331952	0.000026
C28	C	1.549742	-0.388921	0.000026
C29	C	1.535221	-0.496219	0.000014
C30	C	1.463014	-0.224644	0.000038
C31	C	1.728114	0.134150	0.000037
C32	C	1.867838	0.136938	0.000032
C33	C	1.509374	0.312933	0.000015
C34	C	1.523649	0.418252	0.000005
N35	N	1.499121	0.139564	0.356151
N36	N	1.499131	0.139561	-0.356087
C37	C	1.655605	0.011763	0.356159
C38	C	1.733855	-0.052135	0.428102
C39	C	1.733868	-0.052135	0.571982
C40	C	1.655619	0.011767	0.643921
C41	C	1.577368	0.075664	0.571978
C42	C	1.577367	0.075660	0.428095
C43	C	1.420880	0.203459	0.571970
C44	C	1.420872	0.203466	0.428090
C45	C	1.342631	0.267361	0.643909
C46	C	1.264385	0.331265	0.571965
C47	C	1.264376	0.331263	0.428076
C48	C	1.342621	0.267363	0.356146
H49	H	0.859777	0.466420	-0.000046
C50	C	0.734045	-0.038586	0.000080
N51	N	0.625271	-0.040761	0.000074
H52	H	1.350915	-0.363762	0.000020
H53	H	1.797562	-0.104165	0.369517
H54	H	0.900278	-0.192053	0.000112
C55	C	1.655606	0.011764	0.197887
N56	N	1.655609	0.011762	0.078675
H57	H	1.200650	0.383293	0.369507
H58	H	1.647330	-0.357109	-0.000063
H59	H	1.797581	-0.104169	0.630559
H60	H	0.750318	0.307437	0.000004
C61	C	1.178310	0.401542	0.651106
N62	N	1.113476	0.454475	0.710722
C63	C	1.158738	-0.211589	0.000117
N64	N	1.217512	-0.282024	0.000135
H65	H	1.655623	0.011755	0.761076
H66	H	1.342639	0.267354	0.761063
H67	H	1.226677	0.316973	-0.000043
C68	C	1.115203	0.496225	-0.000063
N69	N	1.165194	0.568830	-0.000081
C70	C	1.342618	0.267354	0.197874
N71	N	1.342614	0.267342	0.078662
H72	H	1.247921	-0.028295	0.000051
