data_functionalizedCrystal
_audit_creation_method	'MofGen! by Chris Wilmer'
_symmetry_space_group_name_H-M	'P1'
_symmetry_Int_Tables_number	1
_symmetry_cell_setting	triclinic
loop_
_symmetry_equiv_pos_as_xyz
  x,y,z
_cell_length_a	14.044220
_cell_length_b	11.792254
_cell_length_c	10.268362
_cell_angle_alpha	90.001515
_cell_angle_beta	89.999929
_cell_angle_gamma	88.693738
loop_
_atom_site_label
_atom_site_type_symbol
_atom_site_fract_x
_atom_site_fract_y
_atom_site_fract_z
O1	O	-1.259125	-0.273764	-0.108163
O2	O	-0.925791	0.059570	0.225170
O3	O	-0.592458	0.392903	0.558504
O4	O	-0.983104	-0.263885	-0.108196
O5	O	-0.649771	0.069449	0.225137
O6	O	-0.316438	0.402782	0.558471
O7	O	-1.127806	-0.104283	-0.108169
O8	O	-0.794473	0.229051	0.225164
O9	O	-0.461140	0.562384	0.558497
O10	O	-1.114423	-0.433366	-0.108189
O11	O	-0.781089	-0.100032	0.225144
O12	O	-0.447756	0.233301	0.558477
O13	O	-1.127793	-0.104287	0.108431
O14	O	-0.794459	0.229046	0.441765
O15	O	-0.461126	0.562379	0.775098
O16	O	-0.983090	-0.263889	0.108405
O17	O	-0.649757	0.069444	0.441738
O18	O	-0.316424	0.402777	0.775071
O19	O	-1.259111	-0.273768	0.108438
O20	O	-0.925777	0.059565	0.441771
O21	O	-0.592444	0.392898	0.775104
Cu22	Cu	-1.121099	-0.268829	0.128199
Cu23	Cu	-0.787766	0.064504	0.461532
Cu24	Cu	-0.454433	0.397838	0.794865
Cu25	Cu	-1.121116	-0.268824	-0.127957
Cu26	Cu	-0.787782	0.064510	0.205377
Cu27	Cu	-0.454449	0.397843	0.538710
O28	O	-1.114409	-0.433370	0.108411
O29	O	-0.781075	-0.100037	0.441744
O30	O	-0.447742	0.233297	0.775078
C31	C	-0.947761	-0.259563	0.000100
C32	C	-0.614427	0.073771	0.333434
C33	C	-0.281094	0.407104	0.666767
C34	C	-0.842468	-0.246664	0.000088
C35	C	-0.509135	0.086670	0.333421
C36	C	-0.175801	0.420003	0.666755
C37	C	-1.126956	-0.061915	0.000130
C38	C	-0.793623	0.271418	0.333464
C39	C	-0.460290	0.604751	0.666797
C40	C	-1.124433	0.064335	0.000129
C41	C	-0.791100	0.397668	0.333462
C42	C	-0.457766	0.731001	0.666796
C43	C	-1.294455	-0.278090	0.000139
C44	C	-0.961121	0.055243	0.333472
C45	C	-0.627788	0.388576	0.666805
C46	C	-1.399747	-0.290989	0.000142
C47	C	-1.066414	0.042344	0.333476
C48	C	-0.733080	0.375677	0.666809
C49	C	-0.649685	-0.223082	0.000115
C50	C	-0.316351	0.110252	0.333449
C51	C	0.016982	0.443585	0.666782
C52	C	-0.592525	-0.314566	0.000115
C53	C	-0.259192	0.018767	0.333448
C54	C	0.074142	0.352100	0.666782
C55	C	-0.485254	-0.301445	0.000130
C56	C	-0.151920	0.031888	0.333464
C57	C	0.181413	0.365222	0.666797
C58	C	-0.756966	-0.236201	0.000100
C59	C	-0.423633	0.097132	0.333433
C60	C	-0.090299	0.430465	0.666767
C61	C	-1.115259	-0.475738	0.000108
C62	C	-0.781925	-0.142404	0.333442
C63	C	-0.448592	0.190929	0.666775
C64	C	-1.117782	-0.601988	0.000101
C65	C	-0.784449	-0.268654	0.333435
C66	C	-0.451116	0.064679	0.666768
C67	C	-1.122383	0.166864	0.000124
C68	C	-0.789049	0.500197	0.333457
C69	C	-0.455716	0.833530	0.666791
C70	C	-1.119819	0.295491	0.000112
C71	C	-0.786485	0.628824	0.333445
C72	C	-0.453152	0.962158	0.666778
N73	N	-1.121095	-0.268833	0.308364
N74	N	-0.787761	0.064500	0.641698
N75	N	-0.454428	0.397834	0.975031
N76	N	-1.121128	-0.268812	-0.308123
N77	N	-0.787795	0.064522	0.025211
N78	N	-0.454461	0.397855	0.358544
C79	C	-1.121102	-0.268834	0.426207
C80	C	-0.787768	0.064499	0.759540
C81	C	-0.454435	0.397832	1.092873
C82	C	-1.121113	-0.268825	0.574045
C83	C	-0.787780	0.064508	0.907378
C84	C	-0.454447	0.397842	1.240711
H85	H	-0.624152	-0.402743	0.000103
H86	H	-0.290819	-0.069410	0.333437
H87	H	0.042514	0.263923	0.666770
O88	O	-0.611805	-0.117975	0.000061
O89	O	-0.278472	0.215358	0.333395
O90	O	0.054862	0.548692	0.666728
C91	C	-0.468784	-0.008908	0.000147
C92	C	-0.135450	0.324426	0.333481
C93	C	0.197883	0.657759	0.666814
C94	C	-0.511571	-0.128004	0.000185
C95	C	-0.178237	0.205329	0.333518
C96	C	0.155096	0.538663	0.666851
H97	H	-0.387739	-0.016976	0.000275
H98	H	-0.054406	0.316358	0.333608
H99	H	0.278928	0.649691	0.666941
H100	H	-0.493406	0.039224	-0.090526
H101	H	-0.160073	0.372558	0.242808
H102	H	0.173261	0.705891	0.576141
H103	H	-0.493541	0.039205	0.090768
H104	H	-0.160208	0.372538	0.424102
H105	H	0.173125	0.705871	0.757435
H106	H	-0.486833	-0.176211	-0.090375
H107	H	-0.153499	0.157123	0.242958
H108	H	0.179834	0.490456	0.576292
H109	H	-0.486952	-0.176050	0.090918
H110	H	-0.153619	0.157283	0.424251
H111	H	0.179714	0.490617	0.757584
