data_functionalizedCrystal
_audit_creation_method	'MofGen! by Chris Wilmer'
_symmetry_space_group_name_H-M	'P1'
_symmetry_Int_Tables_number	1
_symmetry_cell_setting	triclinic
loop_
_symmetry_equiv_pos_as_xyz
  x,y,z
_cell_length_a	18.627209
_cell_length_b	18.627245
_cell_length_c	18.627297
_cell_angle_alpha	90.002039
_cell_angle_beta	59.997764
_cell_angle_gamma	119.999505
loop_
_atom_site_label
_atom_site_type_symbol
_atom_site_fract_x
_atom_site_fract_y
_atom_site_fract_z
O1	O	0.633240	-0.492487	-0.021356
O2	O	0.486232	-0.388089	0.021256
O3	O	0.633235	-0.388090	-0.125751
O4	O	0.486237	-0.492486	0.125650
O5	O	0.513833	-0.507491	-0.125750
O6	O	0.366830	-0.507491	0.021256
O7	O	0.513838	-0.611888	-0.021356
Cu8	Cu	0.429432	-0.570592	-0.000050
Cu9	Cu	0.570639	-0.429386	-0.000050
O10	O	0.366835	-0.611888	0.125650
C11	C	0.356044	-0.256981	0.030935
C12	C	0.406443	-0.162283	0.024836
C13	C	0.269040	-0.300581	0.031539
C14	C	0.356039	-0.386984	0.030943
C15	C	0.406432	-0.431287	0.024852
C16	C	0.269035	-0.430387	0.031548
C17	C	0.226044	-0.386980	0.030935
C18	C	0.137446	-0.431279	0.024835
C19	C	0.398838	-0.300585	0.031548
O20	O	-0.104357	-0.492473	0.125628
O21	O	0.104456	-0.388087	-0.125773
O22	O	0.104445	-0.388079	0.021231
O23	O	-0.104347	-0.492481	-0.021377
O24	O	0.104443	-0.507482	0.021239
O25	O	0.104454	-0.507490	-0.125766
O26	O	-0.104359	-0.611876	0.125635
Cu27	Cu	0.000047	-0.570585	-0.000064
Cu28	Cu	0.000049	-0.429377	-0.000074
O29	O	-0.104349	-0.611884	-0.021369
C30	C	0.644032	-0.386988	-0.387050
C31	C	0.593636	-0.431288	-0.431350
C32	C	0.731038	-0.300590	-0.430453
C33	C	0.644032	-0.386989	-0.257049
C34	C	0.593635	-0.431289	-0.162352
C35	C	0.731037	-0.300591	-0.300650
C36	C	0.774032	-0.256989	-0.387049
C37	C	0.862632	-0.162293	-0.431348
C38	C	0.601235	-0.430392	-0.300651
C39	C	0.774046	-0.612985	-0.031065
C40	C	0.862649	-0.568684	-0.024971
C41	C	0.731054	-0.699383	-0.031674
C42	C	0.644041	-0.612987	-0.031058
C43	C	0.593641	-0.568688	-0.024957
C44	C	0.601246	-0.699385	-0.031667
C45	C	0.644046	-0.742985	-0.031064
C46	C	0.593651	-0.837682	-0.024969
C47	C	0.731049	-0.569582	-0.031668
O48	O	0.513853	0.125719	-0.021375
O49	O	0.366846	-0.125679	0.021232
O50	O	0.513856	0.021313	-0.125772
O51	O	0.366843	-0.021273	0.125629
O52	O	0.633253	0.021308	-0.125765
O53	O	0.486243	-0.125684	0.021240
O54	O	0.633250	0.125715	-0.021368
Cu55	Cu	0.570648	0.000015	-0.000063
Cu56	Cu	0.429448	0.000020	-0.000072
O57	O	0.486240	-0.021277	0.125637
O58	O	1.104430	0.125703	-0.492538
O59	O	0.895633	-0.125693	-0.388147
O60	O	0.895628	0.021304	-0.388137
O61	O	1.104435	-0.021294	-0.492548
O62	O	0.895631	0.021307	-0.507540
O63	O	0.895636	-0.125690	-0.507550
O64	O	1.104433	0.125707	-0.611941
Cu65	Cu	1.000035	0.000009	-0.570648
Cu66	Cu	1.000031	0.000005	-0.429440
O67	O	1.104438	-0.021290	-0.611951
O68	O	0.486231	-0.492492	-0.611948
O69	O	0.633235	-0.388089	-0.507553
O70	O	0.486230	-0.388092	-0.507544
O71	O	0.633237	-0.492489	-0.611956
O72	O	0.366830	-0.507491	-0.388142
O73	O	0.513836	-0.507489	-0.388151
O74	O	0.366832	-0.611891	-0.492545
Cu75	Cu	0.429431	-0.570592	-0.429446
Cu76	Cu	0.570636	-0.429388	-0.570653
O77	O	0.513837	-0.611889	-0.492554
C78	C	0.226037	-0.742990	0.386948
C79	C	0.137437	-0.837686	0.431246
C80	C	0.269030	-0.699390	0.430353
C81	C	0.356038	-0.612990	0.256949
C82	C	0.406435	-0.568689	0.162252
C83	C	0.398834	-0.569587	0.300552
C84	C	0.356036	-0.612992	0.386950
C85	C	0.406432	-0.568693	0.431252
C86	C	0.269032	-0.699388	0.300549
C87	C	0.356072	-0.256998	-0.387073
C88	C	0.406471	-0.162302	-0.431376
C89	C	0.398871	-0.300602	-0.430474
C90	C	0.226065	-0.386993	-0.257069
C91	C	0.137460	-0.431289	-0.162372
C92	C	0.269061	-0.430399	-0.300668
C93	C	0.356072	-0.386999	-0.387067
C94	C	0.406470	-0.431301	-0.431363
C95	C	0.269062	-0.300596	-0.300674
C96	C	-0.355976	-0.612966	0.386929
C97	C	-0.406375	-0.568665	0.431227
C98	C	-0.398774	-0.699363	0.430336
C99	C	-0.225968	-0.612971	0.256931
C100	C	-0.137363	-0.568674	0.162234
C101	C	-0.268964	-0.699368	0.300535
C102	C	-0.355975	-0.742967	0.386934
C103	C	-0.406373	-0.837662	0.431237
C104	C	-0.268965	-0.569565	0.300530
C105	C	0.774043	0.030960	-0.387056
C106	C	0.862639	0.024853	-0.431349
C107	C	0.731051	0.031562	-0.430463
C108	C	0.644049	0.030984	-0.257064
C109	C	0.593654	0.024903	-0.162369
C110	C	0.601253	0.031586	-0.300669
C111	C	0.644048	0.030963	-0.387064
C112	C	0.593653	0.024861	-0.431366
C113	C	0.731051	0.031582	-0.300660
O114	O	0.633296	0.125696	-0.611974
O115	O	0.486277	-0.125703	-0.507578
O116	O	0.633270	0.021285	-0.507563
O117	O	0.486303	-0.021292	-0.611989
O118	O	0.513860	0.021290	-0.388165
O119	O	0.366867	-0.125699	-0.388180
O120	O	0.513886	0.125701	-0.492576
Cu121	Cu	0.429473	0.000002	-0.429476
Cu122	Cu	0.570689	-0.000004	-0.570678
O123	O	0.366893	-0.021288	-0.492591
C124	C	0.356047	-0.030929	0.386929
C125	C	0.406443	-0.024827	0.431231
C126	C	0.269046	-0.031526	0.430327
C127	C	0.356047	-0.030948	0.256928
C128	C	0.406442	-0.024868	0.162234
C129	C	0.269045	-0.031546	0.300525
C130	C	0.226053	-0.030923	0.386920
C131	C	0.137458	-0.024816	0.431213
C132	C	0.398842	-0.031551	0.300533
H133	H	0.468845	-0.265578	0.032531
C134	C	0.779219	0.032992	-0.525161
C135	C	0.879010	0.108598	-0.578159
C136	C	0.923415	0.109942	-0.665393
H137	H	0.741254	0.033316	-0.544997
H138	H	0.779630	-0.017706	-0.528550
H139	H	0.878594	0.159283	-0.574774
H140	H	0.917002	0.108291	-0.558350
H141	H	0.923826	0.059244	-0.668782
H142	H	0.885442	0.110264	-0.685221
H143	H	0.991130	0.161236	-0.701362
C144	C	0.778818	-0.253942	-0.253831
C145	C	0.708264	-0.249651	-0.178608
C146	C	0.752235	-0.206682	-0.135456
H147	H	0.836875	-0.196109	-0.292100
H148	H	0.798433	-0.285551	-0.237302
H149	H	0.688663	-0.218041	-0.195138
H150	H	0.650204	-0.307472	-0.140318
H151	H	0.771850	-0.238292	-0.118927
H152	H	0.810292	-0.148852	-0.173732
H153	H	0.704369	-0.203773	-0.084409
C154	C	0.220855	-0.525087	0.032993
C155	C	0.121071	-0.578073	0.108614
C156	C	0.076654	-0.665310	0.109970
H157	H	0.258822	-0.544927	0.033308
H158	H	0.220430	-0.528481	-0.017698
H159	H	0.121503	-0.574683	0.159292
H160	H	0.083078	-0.558261	0.108315
H161	H	0.076228	-0.668704	0.059280
H162	H	0.114629	-0.685141	0.110283
H163	H	0.008943	-0.701270	0.161274
H164	H	0.233059	-0.265572	0.032519
H165	H	0.233069	-0.032524	0.265512
C166	C	0.779190	-0.253950	-0.525175
C167	C	0.878950	-0.229846	-0.578160
C168	C	0.923336	-0.186900	-0.665423
H169	H	0.779672	-0.202820	-0.528674
H170	H	0.741150	-0.292311	-0.544934
H171	H	0.916980	-0.191487	-0.558407
H172	H	0.878497	-0.280959	-0.574687
H173	H	0.885297	-0.225260	-0.685182
H174	H	0.923811	-0.135773	-0.668914
H175	H	0.991025	-0.170547	-0.701386
C176	C	0.492105	-0.254033	-0.525187
C177	C	0.469472	-0.300798	-0.578191
C178	C	0.555327	-0.257920	-0.665442
H179	H	0.546236	-0.251025	-0.528659
H180	H	0.511557	-0.196231	-0.544952
H181	H	0.450035	-0.358584	-0.558432
H182	H	0.415356	-0.303808	-0.574746
H183	H	0.574778	-0.200118	-0.685207
H184	H	0.609452	-0.254915	-0.668905
H185	H	0.539980	-0.289639	-0.701418
C186	C	0.507752	-0.524983	-0.253985
C187	C	0.428248	-0.529632	-0.249690
C188	C	0.342107	-0.616745	-0.206696
H189	H	0.488194	-0.544759	-0.196151
H190	H	0.522806	-0.561147	-0.285581
H191	H	0.413195	-0.493482	-0.218093
H192	H	0.447773	-0.509875	-0.307511
H193	H	0.357161	-0.652908	-0.238292
H194	H	0.322558	-0.636513	-0.148865
H195	H	0.288156	-0.619912	-0.203784
C196	C	0.508034	0.033087	-0.254028
C197	C	0.530678	0.108729	-0.229903
C198	C	0.444839	0.110150	-0.186954
H199	H	0.453887	-0.017568	-0.202904
H200	H	0.488602	0.033410	-0.292392
H201	H	0.550096	0.108397	-0.191540
H202	H	0.584811	0.159395	-0.281010
H203	H	0.425408	0.110473	-0.225318
H204	H	0.390698	0.059492	-0.135834
H205	H	0.460195	0.161476	-0.170587
C206	C	0.492067	-0.474877	0.253910
C207	C	0.469454	-0.421860	0.229769
C208	C	0.555309	-0.334613	0.186820
H209	H	0.546210	-0.471401	0.202794
H210	H	0.511492	-0.455127	0.292280
H211	H	0.450042	-0.441604	0.191401
H212	H	0.415325	-0.425310	0.280869
H213	H	0.574735	-0.314863	0.225190
H214	H	0.609447	-0.331146	0.135708
H215	H	0.539976	-0.298629	0.170442
H216	H	0.233082	-0.265584	-0.265673
C217	C	-0.492019	-0.746003	0.525044
C218	C	-0.469420	-0.770134	0.578080
C219	C	-0.555289	-0.813080	0.665324
H220	H	-0.546152	-0.797122	0.528516
H221	H	-0.511454	-0.707635	0.544784
H222	H	-0.449999	-0.808499	0.558346
H223	H	-0.415302	-0.719031	0.574635
H224	H	-0.574725	-0.774713	0.685064
H225	H	-0.609416	-0.864195	0.668787
H226	H	-0.539965	-0.829451	0.701321
C227	C	0.220924	-0.032984	0.525034
C228	C	0.121152	-0.108615	0.578059
C229	C	0.076806	-0.109989	0.665304
H230	H	0.220468	0.017679	0.528498
H231	H	0.258972	-0.033293	0.544788
H232	H	0.083114	-0.108298	0.558311
H233	H	0.121579	-0.159290	0.574622
H234	H	0.114854	-0.110297	0.685058
H235	H	0.076358	-0.059322	0.668759
H236	H	0.009111	-0.161307	0.701293
C237	C	0.492286	-0.032722	0.253912
C238	C	0.571814	0.042109	0.249613
C239	C	0.657904	0.041057	0.206680
H240	H	0.511856	-0.032964	0.196081
H241	H	0.477170	-0.083951	0.285550
H242	H	0.586930	0.093325	0.217974
H243	H	0.552278	0.042367	0.307432
H244	H	0.642787	-0.010172	0.238318
H245	H	0.677464	0.040813	0.148851
H246	H	0.711871	0.091824	0.203764
H247	H	0.531229	-0.734390	-0.032637
H248	H	0.767034	0.032559	-0.265654
H249	H	0.767030	-0.498596	-0.032637
C250	C	-0.221009	-0.746118	0.254033
C251	C	-0.192194	-0.770273	0.300842
C252	C	-0.148033	-0.813354	0.258047
H253	H	-0.162882	-0.707851	0.196222
H254	H	-0.268738	-0.797239	0.251076
H255	H	-0.144467	-0.719159	0.303789
H256	H	-0.250302	-0.808550	0.358651
H257	H	-0.195763	-0.864475	0.255090
H258	H	-0.089911	-0.775082	0.200237
H259	H	-0.128485	-0.829755	0.289805
H260	H	-0.233030	-0.498600	0.265502
H261	H	0.767042	-0.734385	-0.032654
C262	C	0.220846	-0.746071	0.525072
C263	C	0.121072	-0.770204	0.578033
C264	C	0.076649	-0.813191	0.665295
H265	H	0.258822	-0.707752	0.544887
H266	H	0.220400	-0.797194	0.528526
H267	H	0.121524	-0.719088	0.574583
H268	H	0.083071	-0.808533	0.558246
H269	H	0.076203	-0.864314	0.668749
H270	H	0.114632	-0.774868	0.685101
H271	H	0.008945	-0.829578	0.701239
H272	H	0.233064	-0.501391	-0.265660
C273	C	0.221105	-0.745901	0.253786
C274	C	0.192278	-0.699117	0.229610
C275	C	0.148155	-0.741926	0.186510
H276	H	0.162988	-0.803715	0.292049
H277	H	0.268859	-0.748846	0.202672
H278	H	0.144527	-0.696182	0.280717
H279	H	0.250377	-0.641305	0.191337
H280	H	0.195909	-0.744872	0.135395
H281	H	0.090042	-0.799739	0.224778
H282	H	0.128599	-0.710186	0.170094
