data_functionalizedCrystal
_audit_creation_method	'MofGen! by Chris Wilmer'
_symmetry_space_group_name_H-M	'P1'
_symmetry_Int_Tables_number	1
_symmetry_cell_setting	triclinic
loop_
_symmetry_equiv_pos_as_xyz
  x,y,z
_cell_length_a	16.956995
_cell_length_b	15.625429
_cell_length_c	16.053802
_cell_angle_alpha	74.515382
_cell_angle_beta	87.607939
_cell_angle_gamma	80.348218
loop_
_atom_site_label
_atom_site_type_symbol
_atom_site_fract_x
_atom_site_fract_y
_atom_site_fract_z
O1	O	1.061920	0.032734	-0.079396
O2	O	1.561920	0.532734	0.420604
O3	O	0.830252	0.063833	-0.088799
O4	O	1.330252	0.563833	0.411201
O5	O	0.950392	-0.081132	-0.044917
O6	O	1.450392	0.418868	0.455083
O7	O	0.941781	0.177699	-0.123277
O8	O	1.441781	0.677699	0.376723
O9	O	0.943778	-0.073184	0.091536
O10	O	1.443778	0.426816	0.591536
O11	O	0.823639	0.071781	0.047654
O12	O	1.323639	0.571781	0.547654
O13	O	1.055307	0.040682	0.057057
O14	O	1.555307	0.540682	0.557057
Zn15	Zn	0.938423	0.057494	0.074021
Zn16	Zn	1.438423	0.557494	0.574021
Zn17	Zn	0.947136	0.047021	-0.105762
Zn18	Zn	1.447136	0.547021	0.394238
O19	O	0.935167	0.185648	0.013175
O20	O	1.435167	0.685648	0.513175
C21	C	0.797263	0.069399	-0.021053
C22	C	1.297263	0.569399	0.478947
C23	C	0.708817	0.074133	-0.022481
C24	C	1.208817	0.574133	0.477519
C25	C	0.210076	0.109546	-0.033234
C26	C	0.710076	0.609546	0.466766
C27	C	0.293181	0.105091	-0.031884
C28	C	0.793181	0.605091	0.468116
C29	C	0.342951	0.021471	-0.006562
C30	C	0.842951	0.521471	0.493438
C31	C	0.309612	-0.057699	0.017404
C32	C	0.809612	0.442301	0.517404
C33	C	0.226509	-0.053244	0.016048
C34	C	0.726509	0.446756	0.516048
C35	C	0.592375	-0.000582	0.000129
C36	C	1.092375	0.499418	0.500129
C37	C	0.675483	-0.005031	0.001485
C38	C	1.175483	0.494969	0.501485
C39	C	0.659047	0.157760	-0.047804
C40	C	1.159047	0.657760	0.452196
C41	C	0.575942	0.162208	-0.049153
C42	C	1.075942	0.662208	0.450847
C43	C	0.542611	0.083037	-0.025191
C44	C	1.042611	0.583037	0.474809
N45	N	0.427897	0.016916	-0.005180
N46	N	0.927897	0.516916	0.494820
N47	N	0.457666	0.087593	-0.026580
N48	N	0.957666	0.587593	0.473420
C49	C	0.946041	-0.110122	0.033288
C50	C	1.446041	0.389878	0.533288
C51	C	0.942919	-0.208345	0.063019
C52	C	1.442919	0.291655	0.563019
C53	C	0.950653	-0.553046	-0.211070
C54	C	1.450653	-0.053046	0.288930
C55	C	0.947715	-0.645338	-0.183107
C56	C	1.447715	-0.145338	0.316893
C57	C	0.940506	-0.636660	-0.034356
C58	C	1.440506	-0.136660	0.465644
C59	C	0.943447	-0.544366	-0.062306
C60	C	1.443447	-0.044366	0.437694
C61	C	0.948520	-0.502566	-0.150664
C62	C	1.448520	-0.002566	0.349336
C63	C	0.941314	-0.493886	-0.001900
C64	C	1.441314	0.006114	0.498100
C65	C	0.944251	-0.401599	-0.029848
C66	C	1.444251	0.098401	0.470152
C67	C	0.949321	-0.359792	-0.118202
C68	C	1.449321	0.140208	0.381798
C69	C	0.951457	-0.410279	-0.178612
C70	C	1.451457	0.089721	0.321388
C71	C	0.936236	-0.535686	0.086458
C72	C	1.436236	-0.035686	0.586458
C73	C	0.934103	-0.485206	0.146864
C74	C	1.434103	0.014794	0.646864
C75	C	0.937045	-0.392919	0.118916
C76	C	1.437045	0.107081	0.618916
C77	C	0.942115	-0.351112	0.030562
C78	C	1.442115	0.148888	0.530562
C79	C	0.934910	-0.342431	0.179326
C80	C	1.434910	0.157569	0.679326
C81	C	0.937846	-0.250144	0.151377
C82	C	1.437846	0.249856	0.651377
C83	C	0.945052	-0.258825	0.002613
C84	C	1.445052	0.241175	0.502613
C85	C	1.088296	0.035116	-0.010690
C86	C	1.588296	0.535116	0.489310
C87	C	1.176743	0.030381	-0.009267
C88	C	1.676743	0.530381	0.490733
C89	C	0.939518	0.214638	-0.065031
C90	C	1.439518	0.714638	0.434969
C91	C	0.942640	0.312859	-0.094768
C92	C	1.442640	0.812859	0.405232
N93	N	0.932482	0.064640	0.196718
N94	N	1.432482	0.564640	0.696718
N95	N	0.953083	0.039868	-0.228457
N96	N	1.453083	0.539868	0.271543
C97	C	0.983621	0.002976	0.259078
C98	C	1.483621	0.502976	0.759078
C99	C	0.979473	0.007983	0.344969
C100	C	1.479473	0.507983	0.844969
C101	C	0.924189	0.074658	0.368497
C102	C	1.424189	0.574658	0.868497
C103	C	0.873045	0.136325	0.306130
C104	C	1.373045	0.636325	0.806130
C105	C	0.877190	0.131313	0.220242
C106	C	1.377190	0.631313	0.720242
C107	C	0.906084	0.096523	0.623288
C108	C	1.406084	0.596523	1.123288
C109	C	0.901944	0.101532	0.709183
C110	C	1.401944	0.601532	1.209183
C111	C	1.008372	-0.026812	0.748016
C112	C	1.508372	0.473188	1.248016
C113	C	1.012515	-0.031814	0.662124
C114	C	1.512515	0.468186	1.162124
C115	C	0.961368	0.029850	0.599765
C116	C	1.461368	0.529850	1.099765
N117	N	0.919950	0.079779	0.456291
N118	N	1.419950	0.579779	0.956291
N119	N	0.965604	0.024724	0.511975
N120	N	1.465604	0.524724	1.011975
H121	H	0.716005	-0.073128	0.022102
H122	H	1.216005	0.426872	0.522102
C123	C	0.928520	-0.531196	0.244055
C124	C	1.428520	-0.031196	0.744055
N125	N	0.924316	-0.565835	0.317261
N126	N	1.424316	-0.065835	0.817261
H127	H	0.350141	-0.125784	0.038016
H128	H	0.850141	0.374216	0.538016
H129	H	0.169559	0.177639	-0.053847
H130	H	0.669559	0.677639	0.446153
C131	C	0.329843	0.192179	-0.058238
C132	C	0.829843	0.692179	0.441762
N133	N	0.357456	0.257778	-0.078085
N134	N	0.857456	0.757778	0.421915
H135	H	0.565247	-0.065048	0.019642
H136	H	1.065247	0.434952	0.519642
H137	H	1.050012	-0.077017	0.798796
H138	H	1.550012	0.422983	1.298796
H139	H	0.199370	-0.117708	0.035563
H140	H	0.699370	0.382292	0.535563
H141	H	0.856924	0.155830	0.728333
H142	H	1.356924	0.655830	1.228333
C143	C	0.934923	-0.682650	0.062836
C144	C	1.434923	-0.182650	0.562836
N145	N	0.930719	-0.717289	0.136042
N146	N	1.430719	-0.217289	0.636042
C147	C	1.035710	-0.059872	0.413568
C148	C	1.535710	0.440128	0.913568
N149	N	1.078064	-0.110992	0.465240
N150	N	1.578064	0.389008	0.965240
C151	C	0.950636	-0.212841	-0.094585
C152	C	1.450636	0.287159	0.405415
N153	N	0.954840	-0.178205	-0.167792
N154	N	1.454840	0.321795	0.332208
C155	C	0.957041	-0.364295	-0.275811
C156	C	1.457041	0.135705	0.224189
N157	N	0.961244	-0.329659	-0.349018
N158	N	1.461244	0.170341	0.150982
C159	C	0.820939	0.199155	0.151643
C160	C	1.320939	0.699155	0.651643
N161	N	0.778570	0.250256	0.099975
N162	N	1.278570	0.750256	0.599975
C163	C	0.812225	0.209661	0.332017
C164	C	1.312225	0.709661	0.832017
N165	N	0.766413	0.264898	0.351513
N166	N	1.266413	0.764898	0.851513
C167	C	0.956237	-0.507062	-0.308268
C168	C	1.456237	-0.007062	0.191732
N169	N	0.960440	-0.472426	-0.381475
N170	N	1.460440	0.027574	0.118525
C171	C	1.073327	-0.105166	0.636252
C172	C	1.573327	0.394834	1.136252
N173	N	1.119132	-0.160415	0.616765
N174	N	1.619132	0.339585	1.116765
H175	H	0.951704	-0.284644	-0.140957
H176	H	1.451704	0.215356	0.359043
H177	H	0.864439	0.146734	0.572522
H178	H	1.364439	0.646734	1.072522
H179	H	0.949445	-0.686435	-0.232305
H180	H	1.449445	-0.186435	0.267695
H181	H	0.933836	-0.610830	0.109210
H182	H	1.433836	-0.110830	0.609210
H183	H	0.930771	-0.376477	0.251266
H184	H	1.430771	0.123523	0.751266
H185	H	0.535425	0.230300	-0.069775
H186	H	1.035425	0.730300	0.430225
H187	H	0.936092	-0.209038	0.200565
H188	H	1.436092	0.290962	0.700565
H189	H	0.686195	0.222216	-0.067314
H190	H	1.186195	0.722216	0.432686
H191	H	1.028642	-0.051314	0.239928
H192	H	1.528642	0.448686	0.739928
