data_functionalizedCrystal
_audit_creation_method	'MofGen! by Chris Wilmer'
_symmetry_space_group_name_H-M	'P1'
_symmetry_Int_Tables_number	1
_symmetry_cell_setting	triclinic
loop_
_symmetry_equiv_pos_as_xyz
  x,y,z
_cell_length_a	16.120530
_cell_length_b	18.050589
_cell_length_c	16.120297
_cell_angle_alpha	92.875657
_cell_angle_beta	90.128140
_cell_angle_gamma	87.123928
loop_
_atom_site_label
_atom_site_type_symbol
_atom_site_fract_x
_atom_site_fract_y
_atom_site_fract_z
Zn1	Zn	1.247404	-0.376248	-0.534587
Zn2	Zn	1.497404	-0.126248	-0.284587
Zn3	Zn	1.747404	0.123752	-0.034587
Zn4	Zn	1.997404	0.373752	0.215413
Zn5	Zn	1.254344	-0.494473	-0.395537
Zn6	Zn	1.504344	-0.244473	-0.145537
Zn7	Zn	1.754344	0.005527	0.104463
Zn8	Zn	2.004344	0.255527	0.354463
Zn9	Zn	1.115396	-0.363698	-0.388504
Zn10	Zn	1.365396	-0.113698	-0.138504
Zn11	Zn	1.615396	0.136302	0.111496
Zn12	Zn	1.865396	0.386302	0.361496
Zn13	Zn	1.108300	-0.493789	-0.527506
Zn14	Zn	1.358300	-0.243789	-0.277506
Zn15	Zn	1.608300	0.006211	-0.027506
Zn16	Zn	1.858300	0.256211	0.222494
O17	O	1.181361	-0.432052	-0.461533
O18	O	1.431361	-0.182052	-0.211533
O19	O	1.681361	0.067948	0.038467
O20	O	1.931361	0.317948	0.288467
O21	O	1.364691	-0.397469	-0.522048
O22	O	1.614691	-0.147469	-0.272048
O23	O	1.864691	0.102531	-0.022048
O24	O	2.114691	0.352531	0.227952
O25	O	1.241786	-0.472159	-0.278238
O26	O	1.491786	-0.222159	-0.028238
O27	O	1.741786	0.027841	0.221762
O28	O	1.991786	0.277841	0.471762
O29	O	1.132972	-0.261442	-0.407903
O30	O	1.382972	-0.011442	-0.157903
O31	O	1.632972	0.238558	0.092097
O32	O	1.882972	0.488558	0.342097
O33	O	1.369789	-0.484328	-0.419888
O34	O	1.619789	-0.234328	-0.169888
O35	O	1.869789	0.015672	0.080112
O36	O	2.119789	0.265672	0.330112
O37	O	1.229959	-0.270662	-0.515230
O38	O	1.479959	-0.020662	-0.265230
O39	O	1.729959	0.229338	-0.015230
O40	O	1.979959	0.479338	0.234770
O41	O	1.139701	-0.376080	-0.273071
O42	O	1.389701	-0.126080	-0.023071
O43	O	1.639701	0.123920	0.226929
O44	O	1.889701	0.373920	0.476929
O45	O	0.998089	-0.375417	-0.401037
O46	O	1.248089	-0.125417	-0.151037
O47	O	1.498089	0.124583	0.098963
O48	O	1.748089	0.374583	0.348963
O49	O	1.120879	-0.483162	-0.644811
O50	O	1.370879	-0.233162	-0.394811
O51	O	1.620879	0.016838	-0.144811
O52	O	1.870879	0.266838	0.105189
O53	O	0.992876	-0.470994	-0.503160
O54	O	1.242876	-0.220994	-0.253160
O55	O	1.492876	0.029006	-0.003160
O56	O	1.742876	0.279006	0.246840
O57	O	1.223078	-0.396806	-0.650014
O58	O	1.473078	-0.146806	-0.400014
O59	O	1.723078	0.103194	-0.150014
O60	O	1.973078	0.353194	0.099986
O61	O	1.234906	-0.598303	-0.413022
O62	O	1.484906	-0.348303	-0.163022
O63	O	1.734906	-0.098303	0.086978
O64	O	1.984906	0.151697	0.336978
O65	O	1.127608	-0.597800	-0.509979
O66	O	1.377608	-0.347800	-0.259979
O67	O	1.627608	-0.097800	-0.009979
O68	O	1.877608	0.152200	0.240021
C69	C	0.965310	-0.421770	-0.450568
C70	C	1.215310	-0.171770	-0.200568
C71	C	1.465310	0.078230	0.049432
C72	C	1.715310	0.328230	0.299432
C73	C	0.872881	-0.417390	-0.445896
C74	C	1.122881	-0.167390	-0.195896
C75	C	1.372881	0.082610	0.054104
C76	C	1.622881	0.332610	0.304104
C77	C	1.181261	-0.624999	-0.461515
C78	C	1.431261	-0.374999	-0.211515
C79	C	1.681261	-0.124999	0.038485
C80	C	1.931261	0.125001	0.288485
C81	C	1.181293	-0.707547	-0.461538
C82	C	1.431293	-0.457547	-0.211538
C83	C	1.681293	-0.207547	0.038462
C84	C	1.931293	0.042453	0.288462
C85	C	0.703653	-0.409376	-0.437374
C86	C	0.953653	-0.159376	-0.187374
C87	C	1.203653	0.090624	0.062626
C88	C	1.453653	0.340624	0.312626
C89	C	0.659907	-0.454785	-0.485754
C90	C	0.909907	-0.204785	-0.235754
C91	C	1.159907	0.045215	0.014246
C92	C	1.409907	0.295215	0.264246
C93	C	0.565742	-0.450326	-0.481012
C94	C	0.815742	-0.200326	-0.231012
C95	C	1.065742	0.049674	0.018988
C96	C	1.315742	0.299674	0.268988
C97	C	0.797826	-0.413834	-0.442115
C98	C	1.047826	-0.163834	-0.192115
C99	C	1.297826	0.086166	0.057885
C100	C	1.547826	0.336166	0.307885
C101	C	1.123001	-0.906753	-0.514247
C102	C	1.373001	-0.656753	-0.264247
C103	C	1.623001	-0.406753	-0.014247
C104	C	1.873001	-0.156753	0.235753
C105	C	1.106578	-0.951975	-0.437341
C106	C	1.356578	-0.701975	-0.187341
C107	C	1.606578	-0.451975	0.062659
C108	C	1.856578	-0.201975	0.312659
C109	C	1.181375	-0.858682	-0.461553
C110	C	1.431375	-0.608682	-0.211553
C111	C	1.681375	-0.358682	0.038447
C112	C	1.931375	-0.108682	0.288447
C113	C	1.197838	-0.960544	-0.538470
C114	C	1.447838	-0.710544	-0.288470
C115	C	1.697838	-0.460544	-0.038470
C116	C	1.947838	-0.210544	0.211530
C117	C	1.181451	-1.004671	-0.461574
C118	C	1.431451	-0.754671	-0.211574
C119	C	1.681451	-0.504671	0.038426
C120	C	1.931451	-0.254671	0.288426
C121	C	1.164914	-0.902813	-0.384605
C122	C	1.414914	-0.652813	-0.134605
C123	C	1.664914	-0.402813	0.115395
C124	C	1.914914	-0.152813	0.365395
C125	C	1.256207	-0.911381	-0.485787
C126	C	1.506207	-0.661381	-0.235787
C127	C	1.756207	-0.411381	0.014213
C128	C	2.006207	-0.161381	0.264213
C129	C	1.239815	-0.956580	-0.408830
C130	C	1.489815	-0.706580	-0.158830
C131	C	1.739815	-0.456580	0.091170
C132	C	1.989815	-0.206580	0.341170
C133	C	1.181328	-0.774581	-0.461542
C134	C	1.431328	-0.524581	-0.211542
C135	C	1.681328	-0.274581	0.038458
C136	C	1.931328	-0.024581	0.288458
C137	C	1.181498	-1.088770	-0.461577
C138	C	1.431498	-0.838770	-0.211577
C139	C	1.681498	-0.588770	0.038423
C140	C	1.931498	-0.338770	0.288423
C141	C	1.398256	-0.442375	-0.472543
C142	C	1.648256	-0.192375	-0.222543
C143	C	1.898256	0.057625	0.027457
C144	C	2.148256	0.307625	0.277457
C145	C	1.490683	-0.446774	-0.477234
C146	C	1.740683	-0.196774	-0.227234
C147	C	1.990683	0.053226	0.022766
C148	C	2.240683	0.303226	0.272766
C149	C	1.170413	-0.441308	-0.678428
C150	C	1.420413	-0.191308	-0.428428
C151	C	1.670413	0.058692	-0.178428
C152	C	1.920413	0.308692	0.071572
C153	C	1.165748	-0.445252	-0.770856
C154	C	1.415748	-0.195252	-0.520856
C155	C	1.665748	0.054748	-0.270856
C156	C	1.915748	0.304748	-0.020856
C157	C	1.181483	-0.238354	-0.461572
C158	C	1.431483	0.011646	-0.211572
C159	C	1.681483	0.261646	0.038428
C160	C	1.931483	0.511646	0.288428
C161	C	1.181535	-0.155811	-0.461588
C162	C	1.431535	0.094189	-0.211588
C163	C	1.681535	0.344189	0.038412
C164	C	1.931535	0.594189	0.288412
C165	C	1.157199	-0.452435	-0.940081
C166	C	1.407199	-0.202435	-0.690081
C167	C	1.657199	0.047565	-0.440081
C168	C	1.907199	0.297565	-0.190081
C169	C	1.205687	-0.411454	-0.983846
C170	C	1.455687	-0.161454	-0.733846
C171	C	1.705687	0.088546	-0.483846
C172	C	1.955687	0.338546	-0.233846
C173	C	1.200930	-0.415451	-1.078009
C174	C	1.450930	-0.165451	-0.828009
C175	C	1.700930	0.084549	-0.578009
C176	C	1.950930	0.334549	-0.328009
C177	C	1.161955	-0.448439	-0.845910
C178	C	1.411955	-0.198439	-0.595910
C179	C	1.661955	0.051561	-0.345910
C180	C	1.911955	0.301561	-0.095910
C181	C	1.192314	-0.422781	-0.245485
C182	C	1.442314	-0.172781	0.004515
C183	C	1.692314	0.077219	0.254515
C184	C	1.942314	0.327219	0.504515
C185	C	1.197141	-0.418635	-0.153066
C186	C	1.447141	-0.168635	0.096934
C187	C	1.697141	0.081365	0.346934
C188	C	1.947141	0.331365	0.596934
H189	H	0.693175	-0.497008	-0.530735
H190	H	0.943175	-0.247008	-0.280735
H191	H	1.193175	0.002992	-0.030735
H192	H	1.443175	0.252992	0.219265
H193	H	0.670386	-0.367156	-0.392397
H194	H	0.920386	-0.117156	-0.142397
H195	H	1.170386	0.132844	0.107603
H196	H	1.420386	0.382844	0.357603
H197	H	1.073570	-0.884877	-0.558738
H198	H	1.323570	-0.634877	-0.308738
H199	H	1.573570	-0.384877	-0.058738
H200	H	1.823570	-0.134877	0.191262
H201	H	1.250770	-0.373367	-0.950596
H202	H	1.500770	-0.123367	-0.700596
H203	H	1.750770	0.126633	-0.450596
H204	H	2.000770	0.376633	-0.200596
H205	H	1.112120	-0.490519	-0.973329
H206	H	1.362120	-0.240519	-0.723329
H207	H	1.612120	0.009481	-0.473329
H208	H	1.862120	0.259481	-0.223329
H209	H	1.043330	-0.969970	-0.416862
H210	H	1.293330	-0.719970	-0.166862
H211	H	1.543330	-0.469970	0.083138
H212	H	1.793330	-0.219970	0.333138
H213	H	1.150946	-0.877680	-0.319545
H214	H	1.400946	-0.627680	-0.069545
H215	H	1.650946	-0.377680	0.180455
H216	H	1.900946	-0.127680	0.430455
H217	H	1.319438	-0.893389	-0.506301
H218	H	1.569438	-0.643389	-0.256301
H219	H	1.819438	-0.393389	-0.006301
H220	H	2.069438	-0.143389	0.243699
H221	H	1.211733	-0.985762	-0.603509
H222	H	1.461733	-0.735762	-0.353509
H223	H	1.711733	-0.485762	-0.103509
H224	H	1.961733	-0.235762	0.146491
H225	H	1.289216	-0.978312	-0.364224
H226	H	1.539216	-0.728312	-0.114224
H227	H	1.789216	-0.478312	0.135776
H228	H	2.039216	-0.228312	0.385776
