data_functionalizedCrystal
_audit_creation_method	'MofGen! by Chris Wilmer'
_symmetry_space_group_name_H-M	'P1'
_symmetry_Int_Tables_number	1
_symmetry_cell_setting	triclinic
loop_
_symmetry_equiv_pos_as_xyz
  x,y,z
_cell_length_a	10.654556
_cell_length_b	10.654551
_cell_length_c	14.586319
_cell_angle_alpha	89.997973
_cell_angle_beta	89.998146
_cell_angle_gamma	84.486483
loop_
_atom_site_label
_atom_site_type_symbol
_atom_site_fract_x
_atom_site_fract_y
_atom_site_fract_z
O1	O	1.667836	0.176435	-0.076202
O2	O	1.302358	0.193233	-0.076211
O3	O	1.493499	0.002095	-0.076204
O4	O	1.476695	0.367573	-0.076209
O5	O	1.493486	0.002092	0.076277
O6	O	1.302345	0.193230	0.076270
O7	O	1.667822	0.176433	0.076279
Cu8	Cu	1.485082	0.184831	0.090197
Cu9	Cu	1.485098	0.184835	-0.090129
O10	O	1.476681	0.367570	0.076272
C11	C	1.255554	0.191997	0.000028
C12	C	1.116111	0.188302	0.000025
C13	C	0.919573	0.183100	-0.083085
C14	C	1.050595	0.186565	-0.083091
C15	C	1.050599	0.186561	0.083152
C16	C	0.919580	0.183088	0.083157
C17	C	1.238629	0.117861	-0.182955
C18	C	1.304134	0.119619	-0.266081
C19	C	1.252627	0.191956	-0.339468
C20	C	1.135613	0.262565	-0.329733
C21	C	1.070113	0.260818	-0.246607
C22	C	1.121622	0.188452	-0.173223
C23	C	0.731542	0.251803	0.183015
C24	C	0.666039	0.250065	0.266143
C25	C	0.717543	0.177736	0.339537
C26	C	0.834559	0.107145	0.329812
C27	C	0.900062	0.108883	0.246684
C28	C	0.848549	0.181210	0.173289
C29	C	1.492258	-0.044704	0.000035
C30	C	1.488566	-0.184147	0.000030
C31	C	1.486840	-0.249650	-0.083088
C32	C	1.483360	-0.380670	-0.083089
C33	C	1.483337	-0.380675	0.083154
C34	C	1.486808	-0.249656	0.083154
C35	C	1.405178	-0.550742	-0.182951
C36	C	1.403474	-0.616251	-0.266074
C37	C	1.478073	-0.582708	-0.339458
C38	C	1.554407	-0.483661	-0.329722
C39	C	1.556122	-0.418160	-0.246598
C40	C	1.481493	-0.451698	-0.173218
C41	C	1.565001	-0.079583	0.183011
C42	C	1.566725	-0.014080	0.266136
C43	C	1.492133	-0.047622	0.339527
C44	C	1.415818	-0.146676	0.329801
C45	C	1.414094	-0.212178	0.246676
C46	C	1.488683	-0.178627	0.173284
C47	C	1.714627	0.177669	0.000038
C48	C	1.854070	0.181364	0.000035
C49	C	1.477922	0.414370	0.000031
C50	C	1.481615	0.553813	0.000030
N51	N	1.485080	0.184828	0.217029
N52	N	1.485110	0.184828	-0.216961
C53	C	1.569746	0.100221	0.452038
C54	C	1.569750	0.100218	0.548020
C55	C	1.400435	0.269439	0.548023
C56	C	1.400427	0.269435	0.452044
C57	C	1.485089	0.184827	0.404054
C58	C	1.485101	0.184828	0.596014
C59	C	1.485105	0.184826	0.700082
C60	C	1.485085	0.184828	0.299980
H61	H	0.866238	0.181695	-0.150768
F62	F	0.541504	0.325206	0.276494
H63	H	1.488268	-0.196316	-0.150773
F64	F	1.310339	0.359483	0.599103
F65	F	1.310314	0.359484	0.400971
H66	H	0.974845	0.318310	-0.238680
H67	H	1.638682	0.031327	0.412967
F68	F	1.080810	0.339570	-0.407840
F69	F	1.024603	0.033750	0.236335
F70	F	1.120330	0.188406	0.171610
F71	F	1.481465	-0.450405	0.171615
F72	F	1.659850	0.010166	0.599085
F73	F	1.332873	-0.317605	0.236327
F74	F	1.322347	0.193825	-0.427935
H75	H	1.399409	0.062121	-0.274002
F76	F	1.637357	-0.312754	-0.236234
F77	F	1.633819	-0.447981	-0.407826
F78	F	1.293460	0.040869	-0.104851
F79	F	0.889382	0.030168	0.407928
H80	H	0.664204	0.176338	0.407227
F81	F	1.644411	-0.043891	0.104905
H82	H	0.689603	0.310718	0.123258
H83	H	1.476683	-0.636055	-0.407138
F84	F	1.322230	-0.721659	-0.276432
H85	H	1.355052	-0.173963	0.389554
F86	F	1.325756	-0.586434	-0.104856
F87	F	1.647962	0.091332	0.276489
F88	F	1.493986	0.022086	0.428001
