data_functionalizedCrystal
_audit_creation_method	'MofGen! by Chris Wilmer'
_symmetry_space_group_name_H-M	'P1'
_symmetry_Int_Tables_number	1
_symmetry_cell_setting	triclinic
loop_
_symmetry_equiv_pos_as_xyz
  x,y,z
_cell_length_a	14.519709
_cell_length_b	11.792241
_cell_length_c	10.268362
_cell_angle_alpha	90.005428
_cell_angle_beta	89.998968
_cell_angle_gamma	83.936780
loop_
_atom_site_label
_atom_site_type_symbol
_atom_site_fract_x
_atom_site_fract_y
_atom_site_fract_z
O1	O	-1.224412	-0.148781	-0.108131
O2	O	-0.891079	0.184552	0.225202
O3	O	-0.557745	0.517886	0.558536
O4	O	-0.955999	-0.166302	-0.108171
O5	O	-0.622666	0.167031	0.225162
O6	O	-0.289333	0.500365	0.558496
O7	O	-1.096719	0.007665	-0.108141
O8	O	-0.763386	0.340998	0.225192
O9	O	-0.430053	0.674332	0.558526
O10	O	-1.083692	-0.322748	-0.108161
O11	O	-0.750359	0.010585	0.225172
O12	O	-0.417025	0.343918	0.558506
O13	O	-1.096707	0.007672	0.108460
O14	O	-0.763374	0.341006	0.441793
O15	O	-0.430040	0.674339	0.775126
O16	O	-0.955987	-0.166295	0.108430
O17	O	-0.622654	0.167039	0.441763
O18	O	-0.289320	0.500372	0.775096
O19	O	-1.224400	-0.148774	0.108470
O20	O	-0.891066	0.184559	0.441803
O21	O	-0.557733	0.517893	0.775136
Cu22	Cu	-1.090192	-0.157534	0.128227
Cu23	Cu	-0.756859	0.175800	0.461560
Cu24	Cu	-0.423526	0.509133	0.794894
Cu25	Cu	-1.090207	-0.157542	-0.127928
Cu26	Cu	-0.756873	0.175791	0.205405
Cu27	Cu	-0.423540	0.509124	0.538738
O28	O	-1.083680	-0.322741	0.108440
O29	O	-0.750346	0.010592	0.441773
O30	O	-0.417013	0.343926	0.775106
C31	C	-0.921630	-0.165482	0.000124
C32	C	-0.588297	0.167852	0.333458
C33	C	-0.254964	0.501185	0.666791
C34	C	-0.819240	-0.163035	0.000109
C35	C	-0.485907	0.170298	0.333443
C36	C	-0.152573	0.503632	0.666776
C37	C	-1.258769	-0.149594	0.000171
C38	C	-0.925435	0.183739	0.333505
C39	C	-0.592102	0.517073	0.666838
C40	C	-1.361159	-0.152041	0.000178
C41	C	-1.027826	0.181292	0.333511
C42	C	-0.694492	0.514626	0.666845
C43	C	-1.095895	0.049955	0.000159
C44	C	-0.762562	0.383288	0.333492
C45	C	-0.429228	0.716622	0.666826
C46	C	-1.093446	0.175955	0.000157
C47	C	-0.760112	0.509289	0.333491
C48	C	-0.426779	0.842622	0.666824
C49	C	-0.444311	-0.154027	0.000169
C50	C	-0.110978	0.179306	0.333502
C51	C	0.222355	0.512640	0.666836
C52	C	-0.548628	-0.156528	0.000152
C53	C	-0.215295	0.176805	0.333485
C54	C	0.118038	0.510138	0.666819
C55	C	-0.631772	-0.158531	0.000138
C56	C	-0.298439	0.174803	0.333471
C57	C	0.034894	0.508136	0.666805
C58	C	-0.736096	-0.161033	0.000123
C59	C	-0.402763	0.172301	0.333457
C60	C	-0.069429	0.505634	0.666790
C61	C	-1.084504	-0.365031	0.000137
C62	C	-0.751171	-0.031698	0.333470
C63	C	-0.417838	0.301636	0.666804
C64	C	-1.086954	-0.491031	0.000130
C65	C	-0.753620	-0.157698	0.333463
C66	C	-0.420287	0.175636	0.666797
N67	N	-1.090189	-0.157527	0.308393
N68	N	-0.756855	0.175806	0.641726
N69	N	-0.423522	0.509140	0.975060
C70	C	-1.088942	0.406642	0.000135
C71	C	-0.755608	0.739976	0.333468
C72	C	-0.422275	1.073309	0.666801
C73	C	-1.091444	0.278271	0.000147
C74	C	-0.758111	0.611604	0.333480
C75	C	-0.424777	0.944938	0.666814
N76	N	-1.090218	-0.157540	-0.308094
N77	N	-0.756884	0.175793	0.025239
N78	N	-0.423551	0.509127	0.358572
C79	C	-1.090202	-0.157540	0.574063
C80	C	-0.756869	0.175793	0.907397
C81	C	-0.423535	0.509127	1.240730
C82	C	-1.090192	-0.157536	0.426226
C83	C	-0.756858	0.175797	0.759559
C84	C	-0.423525	0.509131	1.092892
