data_functionalizedCrystal
_audit_creation_method	'MofGen! by Chris Wilmer'
_symmetry_space_group_name_H-M	'P1'
_symmetry_Int_Tables_number	1
_symmetry_cell_setting	triclinic
loop_
_symmetry_equiv_pos_as_xyz
  x,y,z
_cell_length_a	11.169417
_cell_length_b	19.805399
_cell_length_c	11.169416
_cell_angle_alpha	89.979683
_cell_angle_beta	90.011589
_cell_angle_gamma	89.985031
loop_
_atom_site_label
_atom_site_type_symbol
_atom_site_fract_x
_atom_site_fract_y
_atom_site_fract_z
Zn1	Zn	1.834908	-0.382671	-0.477795
Zn2	Zn	1.834814	-0.269497	-0.678499
Zn3	Zn	1.634210	-0.269504	-0.477832
Zn4	Zn	1.634202	-0.382653	-0.678439
O5	O	1.734534	-0.326081	-0.578141
O6	O	2.002846	-0.367662	-0.504428
O7	O	1.808167	-0.174781	-0.651920
O8	O	1.660876	-0.284527	-0.309878
O9	O	2.002776	-0.284514	-0.651884
O10	O	1.808329	-0.367670	-0.309850
O11	O	1.660785	-0.174787	-0.504492
O12	O	1.466259	-0.284509	-0.504434
O13	O	1.660862	-0.477372	-0.651783
O14	O	1.466253	-0.367639	-0.651819
O15	O	1.808320	-0.477385	-0.504370
O16	O	1.808159	-0.284496	-0.846440
O17	O	1.660770	-0.367632	-0.846397
C18	C	1.422709	-0.326073	-0.578125
C19	C	1.289309	-0.326086	-0.578147
C20	C	1.734601	-0.502624	-0.578066
C21	C	1.734630	-0.577856	-0.578033
C22	C	1.811413	-0.613208	-0.501272
C23	C	1.811425	-0.683897	-0.501237
C24	C	1.734659	-0.719232	-0.577971
C25	C	1.657868	-0.683874	-0.654736
C26	C	1.657850	-0.613187	-0.654763
C27	C	1.657935	-0.968948	-0.654624
C28	C	1.657961	-1.039640	-0.654592
C29	C	1.811510	-1.039657	-0.501097
C30	C	1.811493	-0.968970	-0.501125
C31	C	1.734697	-0.933619	-0.577885
C32	C	1.734683	-0.856971	-0.577920
C33	C	1.734679	-0.795879	-0.577942
C34	C	2.047576	-0.326089	-0.578158
C35	C	2.180976	-0.326093	-0.578166
C36	C	1.734486	-0.326076	-0.889966
C37	C	1.734575	-0.326096	-1.023366
C38	C	1.734536	-0.150225	-0.578130
C39	C	1.734739	-0.074994	-0.577824
C40	C	1.734614	-0.326101	-0.265099
C41	C	1.734648	-0.326110	-0.131699
H42	H	1.873928	-0.584443	-0.438790
O43	O	1.583406	-0.578870	-0.729511
C44	C	1.609600	-0.596148	-0.849120
H45	H	1.705479	-0.615593	-0.855167
H46	H	1.599252	-0.549655	-0.908430
H47	H	1.545251	-0.637167	-0.880482
O48	O	1.885958	-0.718158	-0.426502
C49	C	1.859739	-0.700896	-0.306892
H50	H	1.813584	-0.649571	-0.304434
H51	H	1.946372	-0.698479	-0.253086
H52	H	1.798061	-0.740677	-0.266436
O53	O	1.886101	-0.934751	-0.426472
C54	C	1.953896	-0.981113	-0.358731
H55	H	1.904754	-1.031499	-0.354553
H56	H	1.966714	-0.960696	-0.264178
H57	H	2.045040	-0.988632	-0.402680
H58	H	1.595444	-1.068408	-0.717081
H59	H	1.874037	-1.068448	-0.438592
H60	H	1.595421	-0.940174	-0.717144
O61	O	1.583407	-0.718301	-0.729234
C62	C	1.599865	-0.788273	-0.712732
H63	H	1.692501	-0.797937	-0.673430
H64	H	1.591705	-0.815130	-0.802620
H65	H	1.528700	-0.808333	-0.648805
