data_functionalizedCrystal
_audit_creation_method	'MofGen! by Chris Wilmer'
_symmetry_space_group_name_H-M	'P1'
_symmetry_Int_Tables_number	1
_symmetry_cell_setting	triclinic
loop_
_symmetry_equiv_pos_as_xyz
  x,y,z
_cell_length_a	12.759401
_cell_length_b	12.827892
_cell_length_c	12.759393
_cell_angle_alpha	89.972926
_cell_angle_beta	90.022037
_cell_angle_gamma	89.982598
loop_
_atom_site_label
_atom_site_type_symbol
_atom_site_fract_x
_atom_site_fract_y
_atom_site_fract_z
Zn1	Zn	1.606249	0.415975	0.594076
Zn2	Zn	1.606132	0.590753	0.418406
Zn3	Zn	1.430547	0.416027	0.418408
Zn4	Zn	1.430532	0.590676	0.594040
O5	O	1.518365	0.503358	0.506233
O6	O	1.753254	0.439170	0.570787
O7	O	1.582798	0.567629	0.271386
O8	O	1.453910	0.269784	0.441726
O9	O	1.753169	0.567578	0.441724
O10	O	1.582997	0.269746	0.570789
O11	O	1.453797	0.439258	0.271386
O12	O	1.283524	0.439184	0.441691
O13	O	1.453883	0.567447	0.741066
O14	O	1.283513	0.567498	0.570728
O15	O	1.582982	0.439096	0.741092
O16	O	1.582783	0.736978	0.441689
O17	O	1.453770	0.736922	0.570727
C18	C	1.245398	0.503339	0.506207
C19	C	1.128621	0.503356	0.506220
C20	C	1.518291	0.774867	0.506227
C21	C	1.518355	0.891021	0.506260
C22	C	1.073711	0.570111	0.438930
C23	C	0.963986	0.570129	0.438958
C24	C	0.964093	0.436627	0.573568
C25	C	1.073815	0.436615	0.573545
C26	C	0.813990	0.693344	0.401244
C27	C	0.759075	0.760091	0.333938
C28	C	0.794622	0.776009	0.231389
C29	C	0.885081	0.725165	0.196126
C30	C	0.939990	0.658411	0.263426
C31	C	0.904445	0.642513	0.365990
C32	C	1.223814	0.313399	0.611248
C33	C	1.278724	0.246639	0.678544
C34	C	1.243180	0.230710	0.781095
C35	C	1.152717	0.281535	0.816354
C36	C	1.097807	0.348295	0.749058
C37	C	1.133359	0.364226	0.646509
C38	C	1.582334	1.062843	0.442517
C39	C	1.582269	0.942793	0.442481
C40	C	1.792398	0.503377	0.506259
C41	C	1.909175	0.503385	0.506271
C42	C	1.518444	0.503257	0.780266
C43	C	1.518477	0.503214	0.897043
C44	C	1.518459	1.230787	0.506274
C45	C	1.518478	1.114634	0.506324
C46	C	1.518347	0.503382	0.233265
C47	C	1.518517	0.503130	0.116489
C48	C	1.585704	0.436371	0.951920
C49	C	1.585721	0.436326	1.061644
C50	C	1.451283	0.569977	1.061604
C51	C	1.451261	0.570016	0.951882
C52	C	1.623339	0.313032	1.211616
C53	C	1.690582	0.246198	1.266497
C54	C	1.793095	0.230176	1.230906
C55	C	1.828387	0.281003	1.140437
C56	C	1.761149	0.347845	1.085561
C57	C	1.658621	0.363847	1.121150
C58	C	1.413654	0.693311	0.801909
C59	C	1.346421	0.760159	0.747031
C60	C	1.243906	0.776192	0.782620
C61	C	1.208619	0.725383	0.873093
C62	C	1.275852	0.658535	0.927970
C63	C	1.378366	0.642501	0.892374
H64	H	1.118330	0.624458	0.384112
H65	H	1.637048	1.107379	0.387911
H66	H	1.123770	0.268558	0.899856
H67	H	1.636943	0.898254	0.387857
O68	O	1.927992	0.265294	1.105989
C69	C	1.979778	0.195421	1.173837
H70	H	1.919377	0.146102	1.217125
H71	H	2.028393	0.241223	1.232979
C72	C	2.126454	0.184419	1.056419
C73	C	2.052268	0.123838	1.109579
H74	H	2.171173	0.140266	1.016783
H75	H	2.091567	0.231497	1.010709
H76	H	2.166955	0.222584	1.105713
H77	H	2.011760	0.085684	1.060285
H78	H	2.087150	0.076752	1.155279
H79	H	0.685422	0.801486	0.362659
H80	H	1.463687	0.935553	0.560895
O81	O	1.453250	1.061626	0.571616
C82	C	1.476167	1.088101	0.676381
H83	H	1.516523	1.167340	0.678691
H84	H	1.530189	1.026623	0.711739
C85	C	1.324146	0.995705	0.737102
C86	C	1.373704	1.093033	0.739939
H87	H	1.260944	0.998743	0.776310
H88	H	1.308708	0.977865	0.666520
H89	H	1.369175	0.944483	0.766565
H90	H	1.328681	1.144250	0.710465
H91	H	1.389133	1.110882	0.810518
O92	O	1.795581	0.397263	0.997775
C93	C	1.882266	0.460579	1.023095
H94	H	1.920953	0.430125	1.097616
H95	H	1.854724	0.544123	1.036133
C96	C	1.914386	0.495429	0.840946
C97	C	1.961907	0.458019	0.932470
H98	H	1.963511	0.493855	0.785043
H99	H	1.855982	0.452776	0.823887
H100	H	1.891436	0.565047	0.851826
H101	H	1.984844	0.388400	0.921594
H102	H	2.020317	0.500661	0.949525
O103	O	0.779437	0.678082	0.500887
C104	C	0.777974	0.774093	0.554612
H105	H	0.772776	0.840620	0.495568
H106	H	0.852804	0.782480	0.602722
C107	C	0.688694	0.696065	0.700586
C108	C	0.682302	0.777774	0.628067
H109	H	0.629683	0.698335	0.745901
H110	H	0.689684	0.631380	0.664393
H111	H	0.751057	0.703064	0.740667
H112	H	0.619947	0.770768	0.587979
H113	H	0.681300	0.842459	0.664255
H114	H	1.539862	0.326063	1.240597
H115	H	1.640433	0.381974	0.907273
O116	O	1.858272	0.165200	1.284325
C117	C	1.805157	0.123811	1.371826
H118	H	1.717026	0.127218	1.357515
H119	H	1.825422	0.171396	1.444498
C120	C	1.947058	0.005532	1.406150
C121	C	1.838814	0.009709	1.388569
H122	H	1.967822	-0.064849	1.416482
H123	H	1.982845	0.033419	1.347201
H124	H	1.963932	0.045193	1.466708
H125	H	1.821944	-0.029940	1.328006
H126	H	1.803025	-0.018187	1.447509
H127	H	1.661838	0.204814	1.340157
O128	O	1.386097	0.634836	1.115040
C129	C	1.400513	0.620453	1.223652
H130	H	1.481610	0.586231	1.238656
H131	H	1.338225	0.564785	1.254785
C132	C	1.291248	0.768198	1.261540
C133	C	1.390857	0.726175	1.279970
H134	H	1.285287	0.833411	1.296282
H135	H	1.281532	0.777886	1.188366
H136	H	1.239352	0.721798	1.287484
H137	H	1.442750	0.772568	1.254014
H138	H	1.400581	0.716497	1.353141
H139	H	1.247112	0.617164	1.001638
H140	H	1.125144	0.738442	0.902072
O141	O	0.919488	0.740774	0.096486
C142	C	0.851613	0.810574	0.044639
H143	H	0.808345	0.859947	0.104995
H144	H	0.792457	0.764704	-0.003895
C145	C	0.968973	0.821448	-0.102097
C146	C	0.915837	0.882095	-0.027966
H147	H	1.008587	0.865563	-0.146887
H148	H	1.014701	0.774419	-0.067168
H149	H	0.919667	0.783227	-0.142530
H150	H	0.965144	0.920305	0.012474
H151	H	0.870119	0.929132	-0.062890
O152	O	1.178474	0.841133	0.729463
C153	C	1.080414	0.844357	0.780263
H154	H	1.090512	0.821216	0.865948
H155	H	1.024289	0.787749	0.740364
C156	C	1.023071	0.984031	0.668663
C157	C	1.035475	0.955617	0.773906
H158	H	0.995347	1.052659	0.664739
H159	H	1.089134	0.981856	0.634435
H160	H	0.976303	0.936848	0.635427
H161	H	1.082253	1.002791	0.807137
H162	H	0.969419	0.957802	0.808139
H163	H	1.013638	0.617012	0.234714
H164	H	1.375166	0.801540	0.673370
O165	O	0.910969	0.371648	0.638908
C166	C	0.937771	0.267464	0.616101
H167	H	1.017412	0.265242	0.575700
H168	H	0.875993	0.232205	0.562160
C169	C	0.845101	0.207015	0.768252
C170	C	0.942922	0.204287	0.718638
H171	H	0.848273	0.168043	0.831501
H172	H	0.827040	0.277205	0.783616
H173	H	0.793629	0.177635	0.723291
H174	H	0.994388	0.233678	0.763595
H175	H	0.960991	0.134100	0.703284
H176	H	0.749906	0.830359	0.176589
H177	H	1.024139	0.389669	0.777771
H178	H	1.352379	0.205247	0.649824
O179	O	1.296656	0.165986	0.846486
C180	C	1.399830	0.203161	0.859412
H181	H	1.402213	0.290219	0.841594
H182	H	1.454420	0.160120	0.803487
C183	C	1.432645	0.077384	0.995028
C184	C	1.435570	0.184312	0.973153
H185	H	1.454693	0.065753	1.065187
H186	H	1.363135	0.052335	0.986318
H187	H	1.478136	0.041529	0.948417
H188	H	1.390069	0.220163	1.019755
H189	H	1.505072	0.209366	0.981874
O190	O	1.258463	0.328723	0.511644
C191	C	1.350089	0.269559	0.494959
H192	H	1.352387	0.201836	0.552797
H193	H	1.421860	0.321076	0.507105
C194	C	1.347298	0.310003	0.311157
C195	C	1.350117	0.226819	0.382190
H196	H	1.347319	0.283642	0.241595
H197	H	1.285570	0.349866	0.322398
H198	H	1.407109	0.352926	0.321292
H199	H	1.290301	0.183905	0.372063
H200	H	1.411835	0.186947	0.370945
H201	H	1.497129	0.680254	0.772918
