data_functionalizedCrystal
_audit_creation_method	'MofGen! by Chris Wilmer'
_symmetry_space_group_name_H-M	'P1'
_symmetry_Int_Tables_number	1
_symmetry_cell_setting	triclinic
loop_
_symmetry_equiv_pos_as_xyz
  x,y,z
_cell_length_a	12.827892
_cell_length_b	19.077142
_cell_length_c	12.827879
_cell_angle_alpha	92.344306
_cell_angle_beta	89.937748
_cell_angle_gamma	92.288937
loop_
_atom_site_label
_atom_site_type_symbol
_atom_site_fract_x
_atom_site_fract_y
_atom_site_fract_z
Zn1	Zn	-0.479930	-1.076223	-0.655082
Zn2	Zn	-0.654799	-1.076105	-0.480336
Zn3	Zn	-0.473047	-0.958472	-0.473328
Zn4	Zn	-0.647599	-0.958509	-0.648017
O5	O	-0.563844	-1.017327	-0.564191
O6	O	-0.509021	-1.174700	-0.637791
O7	O	-0.630822	-1.060436	-0.333166
O8	O	-0.327726	-0.974126	-0.497462
O9	O	-0.637497	-1.174614	-0.509406
O10	O	-0.332783	-1.060637	-0.630997
O11	O	-0.497289	-0.974012	-0.328018
O12	O	-0.490307	-0.859984	-0.490612
O13	O	-0.625224	-0.974188	-0.795195
O14	O	-0.618550	-0.860011	-0.618955
O15	O	-0.502039	-1.060672	-0.800385
O16	O	-0.800078	-1.060472	-0.502555
O17	O	-0.794788	-0.974074	-0.625750
C18	C	-0.552901	-0.834459	-0.553257
C19	C	-0.548245	-0.756227	-0.548604
C20	C	-0.835351	-1.017283	-0.564170
C21	C	-0.951507	-1.017329	-0.564200
C22	C	-0.612927	-0.719506	-0.613134
C23	C	-0.608538	-0.645999	-0.608767
C24	C	-0.539472	-0.609215	-0.539864
C25	C	-0.474782	-0.645941	-0.475331
C26	C	-0.479167	-0.719447	-0.479704
C27	C	-0.519184	-0.389373	-0.519637
C28	C	-0.514807	-0.315862	-0.515266
C29	C	-0.648562	-0.315925	-0.648705
C30	C	-0.652945	-0.389432	-0.653067
C31	C	-0.588251	-0.426152	-0.588538
N32	N	-0.534987	-0.534079	-0.535396
N33	N	-0.592732	-0.501287	-0.593012
C34	C	-1.005878	-1.060132	-0.503312
C35	C	-1.125931	-1.060180	-0.503342
C36	C	-0.291277	-1.017391	-0.564236
C37	C	-0.175126	-1.017418	-0.564255
C38	C	-0.563596	-1.017447	-0.836769
C39	C	-0.563490	-1.017498	-0.952925
C40	C	-0.574824	-0.200909	-0.575156
C41	C	-0.579489	-0.279141	-0.579797
C42	C	-0.564017	-1.017248	-0.292676
C43	C	-0.563837	-1.017333	-0.176528
C44	C	-0.497946	-0.974390	-0.002190
C45	C	-0.498131	-0.974301	-0.122234
H46	H	-0.661211	-0.616104	-0.661314
H47	H	-0.963550	-1.096745	-0.451166
H48	H	-0.466514	-0.419261	-0.467084
H49	H	-1.172678	-1.096823	-0.451211
C50	C	-1.111989	-0.967907	-0.634684
C51	C	-1.033758	-0.912669	-0.585948
C52	C	-0.970612	-0.863158	-0.656377
C53	C	-0.985697	-0.868885	-0.775542
C54	C	-1.063931	-0.924126	-0.824284
C55	C	-1.127077	-0.973636	-0.753855
H56	H	-1.022588	-0.908427	-0.497730
H57	H	-0.912697	-0.822266	-0.620294
H58	H	-0.938953	-0.832235	-0.827677
H59	H	-1.075101	-0.928367	-0.912503
H60	H	-1.184992	-1.014529	-0.789938
C61	C	-0.421950	-0.924615	0.060881
C62	C	-0.421876	-0.924774	0.180917
C63	C	-0.345879	-0.874996	0.243985
C64	C	-0.269957	-0.825060	0.187017
C65	C	-0.270028	-0.824899	0.066974
C66	C	-0.346025	-0.874677	0.003907
H67	H	-0.478080	-0.961741	0.223094
H68	H	-0.345826	-0.875115	0.332848
H69	H	-0.213699	-0.788211	0.233703
H70	H	-0.213824	-0.787931	0.024797
H71	H	-0.346078	-0.874557	-0.084957
C72	C	-0.422318	-0.924439	-0.179472
C73	C	-0.465086	-0.869383	-0.250975
C74	C	-0.389271	-0.819519	-0.308215
C75	C	-0.270687	-0.824710	-0.293951
C76	C	-0.227913	-0.879768	-0.222445
C77	C	-0.303729	-0.929633	-0.165205
H78	H	-0.552874	-0.865538	-0.261537
H79	H	-0.420936	-0.778761	-0.361149
H80	H	-0.214564	-0.787798	-0.336324
H81	H	-0.140125	-0.883614	-0.211883
H82	H	-0.272064	-0.970390	-0.112271
H83	H	-0.418543	-0.615985	-0.419233
H84	H	-0.709188	-0.419377	-0.709173
H85	H	-0.669172	-0.749451	-0.669239
H86	H	-0.619744	-1.054338	0.000380
H87	H	-0.701230	-0.286020	-0.701242
C88	C	-0.639652	-1.067198	-0.119298
C89	C	-0.596884	-1.122254	-0.047795
C90	C	-0.672699	-1.172118	0.009444
C91	C	-0.791283	-1.166927	-0.004819
C92	C	-0.834057	-1.111869	-0.076325
C93	C	-0.758242	-1.062004	-0.133565
H94	H	-0.509096	-1.126099	-0.037233
H95	H	-0.641034	-1.212876	0.062378
H96	H	-0.847406	-1.203840	0.037553
H97	H	-0.921845	-1.108024	-0.086887
H98	H	-0.789907	-1.021247	-0.186498
H99	H	-0.458553	-0.285914	-0.459163
H100	H	-0.426490	-0.749344	-0.427162
H101	H	-0.993837	-0.980722	-0.616353
