data_functionalizedCrystal
_audit_creation_method	'MofGen! by Chris Wilmer'
_symmetry_space_group_name_H-M	'P1'
_symmetry_Int_Tables_number	1
_symmetry_cell_setting	triclinic
loop_
_symmetry_equiv_pos_as_xyz
  x,y,z
_cell_length_a	15.995363
_cell_length_b	11.792241
_cell_length_c	10.268362
_cell_angle_alpha	90.005428
_cell_angle_beta	90.001437
_cell_angle_gamma	83.845406
loop_
_atom_site_label
_atom_site_type_symbol
_atom_site_fract_x
_atom_site_fract_y
_atom_site_fract_z
O1	O	-1.111644	-0.146363	-0.108205
O2	O	-0.611644	0.353637	0.391795
O3	O	-0.867952	-0.164414	-0.108229
O4	O	-0.367952	0.335586	0.391771
O5	O	-0.995711	0.009831	-0.108208
O6	O	-0.495711	0.509831	0.391792
O7	O	-0.983884	-0.320608	-0.108227
O8	O	-0.483884	0.179392	0.391773
O9	O	-0.995700	0.009838	0.108393
O10	O	-0.495700	0.509838	0.608393
O11	O	-0.867940	-0.164407	0.108372
O12	O	-0.367940	0.335593	0.608372
O13	O	-1.111632	-0.146356	0.108395
O14	O	-0.611632	0.353644	0.608395
Cu15	Cu	-0.989785	-0.155381	0.128161
Cu16	Cu	-0.489785	0.344619	0.628161
Cu17	Cu	-0.989799	-0.155389	-0.127995
Cu18	Cu	-0.489799	0.344611	0.372005
O19	O	-0.983873	-0.320601	0.108374
O20	O	-0.483873	0.179399	0.608374
C21	C	-0.836748	-0.163662	0.000068
C22	C	-0.336748	0.336338	0.500068
C23	C	-0.743788	-0.161417	0.000060
C24	C	-0.243788	0.338583	0.500060
N25	N	-0.989782	-0.155374	0.308327
N26	N	-0.489782	0.344626	0.808327
C27	C	-0.994963	0.052120	0.000092
C28	C	-0.494963	0.552120	0.500092
C29	C	-0.992739	0.178115	0.000091
C30	C	-0.492739	0.678115	0.500091
C31	C	-0.406006	-0.153356	0.000092
C32	C	0.093994	0.346644	0.500092
C33	C	-0.452876	-0.029259	0.000582
C34	C	0.047124	0.470741	0.500582
C35	C	-0.549576	-0.031504	0.000083
C36	C	-0.049576	0.468496	0.500083
C37	C	-0.573584	-0.157354	0.000077
C38	C	-0.073584	0.342646	0.500077
C39	C	-0.532781	-0.218566	-0.123611
C40	C	-0.032781	0.281434	0.376389
C41	C	-0.436132	-0.215443	-0.123704
C42	C	0.063868	0.284557	0.376296
C43	C	-0.435792	-0.217999	0.122611
C44	C	0.064208	0.282001	0.622611
C45	C	-0.532736	-0.217975	0.124236
C46	C	-0.032736	0.282025	0.624236
C47	C	-0.668291	-0.159621	0.000064
C48	C	-0.168291	0.340379	0.500064
C49	C	-0.311298	-0.151093	0.000096
C50	C	0.188702	0.348907	0.500096
C51	C	-0.142837	-0.147093	0.000098
C52	C	0.357163	0.352907	0.500098
C53	C	-0.235801	-0.149293	0.000109
C54	C	0.264199	0.350707	0.500109
C55	C	-0.984621	-0.362889	0.000071
C56	C	-0.484621	0.137111	0.500071
C57	C	-0.986845	-0.488884	0.000064
C58	C	-0.486845	0.011116	0.500064
C59	C	-0.988650	0.408793	0.000069
C60	C	-0.488650	0.908793	0.500069
C61	C	-0.990922	0.280427	0.000081
C62	C	-0.490922	0.780427	0.500081
N63	N	-0.989808	-0.155387	-0.308160
N64	N	-0.489808	0.344613	0.191840
C65	C	-0.989794	-0.155387	0.573997
C66	C	-0.489794	0.344613	1.073997
C67	C	-0.989785	-0.155383	0.426159
C68	C	-0.489785	0.344617	0.926159
H69	H	-0.434125	0.020351	0.089284
H70	H	0.065875	0.520351	0.589284
H71	H	-0.433063	0.020117	-0.087625
H72	H	0.066937	0.520117	0.412375
H73	H	-0.547326	-0.311025	-0.128215
H74	H	-0.047326	0.188975	0.371785
H75	H	-0.548518	-0.309748	0.131702
H76	H	-0.048518	0.190252	0.631702
H77	H	-0.577219	0.016931	-0.088731
H78	H	-0.077219	0.516931	0.411269
H79	H	-0.404446	-0.309494	0.123444
H80	H	0.095554	0.190506	0.623444
H81	H	-0.417625	-0.170807	-0.216159
H82	H	0.082375	0.329193	0.283841
N83	N	-0.396202	-0.329741	-0.130749
N84	N	0.103798	0.170259	0.369251
N85	N	-0.439742	-0.411560	-0.135591
N86	N	0.060258	0.088440	0.364409
H87	H	-0.411546	-0.492282	-0.140571
H88	H	0.088454	0.007718	0.359429
H89	H	-0.559845	-0.173290	0.215739
H90	H	-0.059845	0.326710	0.715739
N91	N	-0.568151	-0.165287	-0.239102
N92	N	-0.068151	0.334713	0.260898
N93	N	-0.645334	-0.162054	-0.260191
N94	N	-0.145334	0.337946	0.239809
H95	H	-0.670318	-0.124434	-0.341759
H96	H	-0.170318	0.375566	0.158241
N97	N	-0.584954	0.028868	0.111308
N98	N	-0.084954	0.528868	0.611308
N99	N	-0.538232	0.072962	0.189845
N100	N	-0.038232	0.572962	0.689845
H101	H	-0.563214	0.115611	0.268398
H102	H	-0.063214	0.615611	0.768398
N103	N	-0.409787	-0.167092	0.240215
N104	N	0.090213	0.332908	0.740215
N105	N	-0.368979	-0.082541	0.235155
N106	N	0.131021	0.417459	0.735155
H107	H	-0.350611	-0.046578	0.318207
H108	H	0.149389	0.453422	0.818207
