data_functionalizedCrystal
_audit_creation_method	'MofGen! by Chris Wilmer'
_symmetry_space_group_name_H-M	'P1'
_symmetry_Int_Tables_number	1
_symmetry_cell_setting	triclinic
loop_
_symmetry_equiv_pos_as_xyz
  x,y,z
_cell_length_a	12.759401
_cell_length_b	12.759394
_cell_length_c	12.759393
_cell_angle_alpha	89.969400
_cell_angle_beta	89.980535
_cell_angle_gamma	90.013528
loop_
_atom_site_label
_atom_site_type_symbol
_atom_site_fract_x
_atom_site_fract_y
_atom_site_fract_z
Zn1	Zn	1.606262	-0.418214	-0.594016
Zn2	Zn	1.606158	-0.593933	-0.418339
Zn3	Zn	1.430564	-0.418267	-0.418352
Zn4	Zn	1.430555	-0.593850	-0.593977
O5	O	1.518385	-0.506066	-0.506171
O6	O	1.753269	-0.441535	-0.570722
O7	O	1.582826	-0.570687	-0.271319
O8	O	1.453917	-0.271239	-0.441676
O9	O	1.753193	-0.570635	-0.441653
O10	O	1.583002	-0.271200	-0.570735
O11	O	1.453817	-0.441626	-0.271329
O12	O	1.283541	-0.441547	-0.441639
O13	O	1.453902	-0.570495	-0.741003
O14	O	1.283535	-0.570547	-0.570670
O15	O	1.582993	-0.441455	-0.741032
O16	O	1.582817	-0.740943	-0.441616
O17	O	1.453802	-0.740882	-0.570657
C18	C	1.245417	-0.506044	-0.506152
C19	C	1.128641	-0.506060	-0.506169
C20	C	0.964016	-0.573201	-0.438891
C21	C	1.073740	-0.573180	-0.438873
C22	C	1.073812	-0.438950	-0.573480
C23	C	0.964089	-0.438966	-0.573492
C24	C	0.909121	-0.640333	-0.371598
C25	C	0.963942	-0.707443	-0.304285
C26	C	1.073666	-0.707422	-0.304267
C27	C	1.128569	-0.640291	-0.371562
C28	C	1.518326	-0.779033	-0.506154
C29	C	1.518397	-0.895810	-0.506181
C30	C	1.652713	-0.895611	-0.640671
C31	C	1.719903	-0.950372	-0.707924
C32	C	1.719966	-1.060094	-0.707947
C33	C	1.652828	-1.115057	-0.640712
C34	C	1.585637	-1.060295	-0.573459
C35	C	1.585584	-0.950571	-0.573441
C36	C	1.451318	-1.060495	-0.438975
C37	C	1.451260	-0.950773	-0.438946
C38	C	1.384181	-1.115457	-0.371740
C39	C	1.316994	-1.060696	-0.304480
C40	C	1.316935	-0.950968	-0.304459
C41	C	1.384069	-0.896012	-0.371693
C42	C	1.792418	-0.506088	-0.506190
C43	C	1.909194	-0.506098	-0.506199
C44	C	1.518458	-0.505960	-0.780204
C45	C	1.518489	-0.505915	-0.896981
C46	C	1.518472	-0.232033	-0.506211
C47	C	1.518509	-0.115256	-0.506228
C48	C	1.585716	-0.438718	-0.951859
C49	C	1.585741	-0.438680	-1.061584
C50	C	1.451310	-0.573045	-1.061541
C51	C	1.451280	-0.573077	-0.951819
C52	C	1.652926	-0.371555	-0.897021
C53	C	1.720159	-0.304353	-0.951900
C54	C	1.720184	-0.304315	-1.061624
C55	C	1.652976	-0.371479	-1.116470
C56	C	1.518372	-0.506096	-0.233203
C57	C	1.518544	-0.505845	-0.116427
H58	H	0.819778	-0.640360	-0.371607
H59	H	0.919453	-0.384320	-0.628295
F60	F	1.379790	-0.644523	-1.119915
F61	F	1.652993	-0.371423	-1.233249
H62	H	1.774921	-0.249589	-1.106303
F63	F	1.245415	-0.892695	-0.232883
H64	H	1.774667	-1.104680	-0.762721
H65	H	1.396522	-0.627779	-0.907136
F66	F	1.132009	-0.778831	-0.232616
H67	H	1.652678	-0.806270	-0.640650
F68	F	1.791345	-0.891870	-0.779485
H69	H	0.919234	-0.762093	-0.249492
H70	H	1.384032	-0.806671	-0.371678
H71	H	1.118522	-0.384296	-0.628268
F72	F	1.245348	-0.640259	-0.371526
H73	H	1.384232	-1.204799	-0.371767
F74	F	1.653014	-1.231832	-0.640623
H75	H	1.262330	-1.105456	-0.249748
H76	H	1.652915	-0.371581	-0.807679
F77	F	1.791669	-0.232863	-0.893528
