data_functionalizedCrystal
_audit_creation_method	'MofGen! by Chris Wilmer'
_symmetry_space_group_name_H-M	'P1'
_symmetry_Int_Tables_number	1
_symmetry_cell_setting	triclinic
loop_
_symmetry_equiv_pos_as_xyz
  x,y,z
_cell_length_a	16.992695
_cell_length_b	19.288867
_cell_length_c	18.366186
_cell_angle_alpha	89.992441
_cell_angle_beta	89.993794
_cell_angle_gamma	86.902646
loop_
_atom_site_label
_atom_site_type_symbol
_atom_site_fract_x
_atom_site_fract_y
_atom_site_fract_z
O1	O	0.097803	0.927052	-0.060525
O2	O	0.431136	1.260385	0.272809
O3	O	0.764469	1.593718	0.606142
O4	O	0.110993	0.725560	-0.060532
O5	O	0.444327	1.058893	0.272801
O6	O	0.777660	1.392227	0.606135
O7	O	-0.009742	0.825498	-0.060523
O8	O	0.323592	1.158832	0.272811
O9	O	0.656925	1.492165	0.606144
O10	O	0.218538	0.827114	-0.060534
O11	O	0.551871	1.160447	0.272799
O12	O	0.885205	1.493780	0.606133
O13	O	-0.009748	0.825480	0.060577
O14	O	0.323586	1.158813	0.393910
O15	O	0.656919	1.492146	0.727243
O16	O	0.110988	0.725542	0.060567
O17	O	0.444321	1.058875	0.393901
O18	O	0.777654	1.392208	0.727234
O19	O	0.097797	0.927033	0.060575
O20	O	0.431130	1.260367	0.393908
O21	O	0.764464	1.593700	0.727241
Zn22	Zn	0.104391	0.826285	0.079798
Zn23	Zn	0.437725	1.159618	0.413131
Zn24	Zn	0.771058	1.492951	0.746465
Zn25	Zn	0.104399	0.826309	-0.079756
Zn26	Zn	0.437732	1.159642	0.253578
Zn27	Zn	0.771066	1.492976	0.586911
O28	O	0.218532	0.827095	0.060565
O29	O	0.551865	1.160429	0.393899
O30	O	0.885199	1.493762	0.727232
C31	C	0.110566	0.699650	0.000017
C32	C	0.443899	1.032983	0.333350
C33	C	0.777233	1.366316	0.666684
C34	C	0.109291	0.622472	0.000014
C35	C	0.442624	0.955805	0.333348
C36	C	0.775958	1.289139	0.666681
C37	C	-0.038950	0.823411	0.000027
C38	C	0.294383	1.156744	0.333360
C39	C	0.627717	1.490077	0.666694
C40	C	-0.125972	0.817210	0.000026
C41	C	0.207361	1.150543	0.333360
C42	C	0.540694	1.483877	0.666693
C43	C	0.100111	0.066381	-0.065988
C44	C	0.433445	0.399715	0.267345
C45	C	0.766778	0.733048	0.600679
C46	C	0.101304	0.138898	-0.065991
C47	C	0.434638	0.472232	0.267342
C48	C	0.767971	0.805565	0.600676
C49	C	0.101901	0.175152	0.000020
C50	C	0.435235	0.508485	0.333354
C51	C	0.768568	0.841819	0.666687
C52	C	0.101285	0.138884	0.066039
C53	C	0.434618	0.472217	0.399372
C54	C	0.767952	0.805550	0.732706
C55	C	0.100084	0.066368	0.066040
C56	C	0.433417	0.399702	0.399373
C57	C	0.766751	0.733035	0.732706
C58	C	0.149717	0.287258	0.050591
C59	C	0.483050	0.620592	0.383924
C60	C	0.816384	0.953925	0.717258
C61	C	0.150923	0.359772	0.050587
C62	C	0.484256	0.693105	0.383921
C63	C	0.817589	1.026439	0.717254
C64	C	0.105602	0.398813	0.000020
C65	C	0.438936	0.732147	0.333354
C66	C	0.772269	1.065480	0.666687
C67	C	0.059086	0.365331	-0.050555
C68	C	0.392420	0.698665	0.282778
C69	C	0.725753	1.031998	0.616111
C70	C	0.057885	0.292816	-0.050555
C71	C	0.391218	0.626150	0.282779
C72	C	0.724552	0.959483	0.616112
C73	C	0.103203	0.253783	0.000027
C74	C	0.436537	0.587116	0.333360
C75	C	0.769870	0.920449	0.666693
C76	C	0.107507	0.513705	-0.065997
C77	C	0.440840	0.847038	0.267336
C78	C	0.774174	1.180371	0.600669
C79	C	0.108695	0.586223	-0.065997
C80	C	0.442029	0.919557	0.267336
C81	C	0.775362	1.252890	0.600669
C82	C	0.108684	0.586207	0.066034
C83	C	0.442017	0.919540	0.399368
C84	C	0.775351	1.252873	0.732701
C85	C	0.107488	0.513690	0.066032
C86	C	0.440821	0.847023	0.399366
C87	C	0.774154	1.180356	0.732699
C88	C	0.106903	0.477443	0.000015
C89	C	0.440236	0.810776	0.333348
C90	C	0.773570	1.144110	0.666681
C91	C	-0.176423	0.877038	0.000029
C92	C	0.156910	1.210372	0.333363
C93	C	0.490243	1.543705	0.666696
C94	C	-0.258190	0.871208	0.000022
C95	C	0.075144	1.204541	0.333356
C96	C	0.408477	1.537875	0.666689
C97	C	-0.289503	0.805549	0.000017
C98	C	0.043831	1.138882	0.333351
C99	C	0.377164	1.472215	0.666684
C100	C	-0.239045	0.745716	0.000012
C101	C	0.094288	1.079050	0.333346
C102	C	0.427622	1.412383	0.666679
C103	C	-0.157280	0.751547	0.000014
C104	C	0.176053	1.084880	0.333348
C105	C	0.509386	1.418214	0.666681
C106	C	-0.533015	0.781382	0.000007
C107	C	-0.199682	1.114715	0.333340
C108	C	0.133651	1.448048	0.666673
C109	C	-0.614786	0.775555	0.000007
C110	C	-0.281453	1.108889	0.333340
C111	C	0.051880	1.442222	0.666674
C112	C	-0.633925	0.901048	0.000015
C113	C	-0.300592	1.234381	0.333349
C114	C	0.032741	1.567714	0.666682
C115	C	-0.552158	0.906873	0.000022
C116	C	-0.218825	1.240206	0.333355
C117	C	0.114508	1.573539	0.666688
C118	C	-0.501708	0.847040	0.000013
C119	C	-0.168374	1.180373	0.333346
C120	C	0.164959	1.513707	0.666679
N121	N	-0.373081	0.799588	0.000012
N122	N	-0.039747	1.132921	0.333346
N123	N	0.293586	1.466254	0.666679
N124	N	-0.418131	0.853002	0.000012
N125	N	-0.084798	1.186335	0.333346
N126	N	0.248535	1.519669	0.666679
C127	C	0.247740	0.829183	0.000014
C128	C	0.581074	1.162516	0.333347
C129	C	0.914407	1.495849	0.666681
C130	C	0.334763	0.835383	0.000010
C131	C	0.668096	1.168717	0.333343
C132	C	1.001429	1.502050	0.666676
C133	C	0.098224	0.952944	0.000024
C134	C	0.431558	1.286277	0.333357
C135	C	0.764891	1.619610	0.666691
C136	C	0.099499	1.030122	0.000022
C137	C	0.432833	1.363455	0.333355
C138	C	0.766166	1.696788	0.666689
N139	N	0.104385	0.826273	0.188689
N140	N	0.437719	1.159606	0.522023
N141	N	0.771052	1.492940	0.855356
N142	N	0.104399	0.826326	-0.188647
N143	N	0.437732	1.159659	0.144687
N144	N	0.771065	1.492992	0.478020
C145	C	0.050950	0.870543	0.226794
C146	C	0.384283	1.203876	0.560127
C147	C	0.717617	1.537209	0.893460
C148	C	0.050947	0.870547	0.303022
C149	C	0.384280	1.203880	0.636355
C150	C	0.717613	1.537213	0.969688
C151	C	0.104392	0.826289	0.341142
C152	C	0.437725	1.159622	0.674475
C153	C	0.771059	1.492955	1.007809
C154	C	0.157831	0.782011	0.303028
C155	C	0.491165	1.115344	0.636362
C156	C	0.824498	1.448677	0.969695
C157	C	0.157828	0.782003	0.226802
C158	C	0.491161	1.115336	0.560135
C159	C	0.824495	1.448669	0.893469
C160	C	0.175821	0.821154	0.461899
C161	C	0.509154	1.154487	0.795232
C162	C	0.842488	1.487820	1.128565
C163	C	0.175825	0.821166	0.538123
C164	C	0.509159	1.154500	0.871457
C165	C	0.842492	1.487833	1.204790
C166	C	0.104402	0.826309	0.576250
C167	C	0.437735	1.159642	0.909583
C168	C	0.771068	1.492976	1.242916
C169	C	0.032971	0.831454	0.538141
C170	C	0.366304	1.164787	0.871475
C171	C	0.699637	1.498120	1.204808
C172	C	0.032967	0.831446	0.461915
C173	C	0.366301	1.164779	0.795248
C174	C	0.699634	1.498112	1.128582
C175	C	0.104401	0.826292	0.423797
C176	C	0.437734	1.159625	0.757130
C177	C	0.771068	1.492959	1.090463
C178	C	0.050958	0.870586	0.697009
C179	C	0.384291	1.203919	1.030342
C180	C	0.717625	1.537252	1.363676
C181	C	0.050954	0.870585	0.773238
C182	C	0.384287	1.203918	1.106572
C183	C	0.717620	1.537252	1.439905
C184	C	0.157845	0.782052	0.773243
C185	C	0.491179	1.115386	1.106577
C186	C	0.824512	1.448719	1.439910
C187	C	0.157843	0.782049	0.697016
C188	C	0.491176	1.115383	1.030349
C189	C	0.824510	1.448716	1.363682
C190	C	0.104400	0.826320	0.658903
C191	C	0.437734	1.159653	0.992236
C192	C	0.771067	1.492986	1.325570
H193	H	0.099632	0.036874	-0.119745
H194	H	0.432965	0.370207	0.213588
H195	H	0.766299	0.703540	0.546922
H196	H	-0.025194	0.835633	0.430890
H197	H	0.308139	1.168966	0.764224
H198	H	0.641473	1.502299	1.097557
C199	C	-0.007813	0.919255	0.184870
C200	C	0.325520	1.252588	0.518204
C201	C	0.658853	1.585921	0.851537
H202	H	-0.000153	0.912922	0.134014
H203	H	0.333180	1.246255	0.467348
H204	H	0.666514	1.579588	0.800681
H205	H	-0.060123	0.908837	0.197362
H206	H	0.273210	1.242171	0.530695
H207	H	0.606544	1.575504	0.864029
H208	H	0.000602	0.966069	0.197362
H209	H	0.333935	1.299402	0.530696
H210	H	0.667269	1.632736	0.864029
C211	C	-0.313683	0.937019	0.000033
C212	C	0.019651	1.270352	0.333366
C213	C	0.352984	1.603686	0.666700
H214	H	-0.283323	0.976958	0.000047
H215	H	0.050010	1.310291	0.333380
H216	H	0.383343	1.643625	0.666713
H217	H	-0.345973	0.937367	-0.042197
H218	H	-0.012640	1.270700	0.291136
H219	H	0.320693	1.604033	0.624470
H220	H	-0.345980	0.937341	0.042268
H221	H	-0.012647	1.270674	0.375602
H222	H	0.320687	1.604007	0.708935
H223	H	0.233989	0.816982	0.569145
H224	H	0.567322	1.150315	0.902479
H225	H	0.900655	1.483648	1.235812
C226	C	0.109369	0.626109	-0.138612
C227	C	0.442702	0.959443	0.194721
C228	C	0.776036	1.292776	0.528054
H229	H	0.108856	0.594133	-0.177927
H230	H	0.442190	0.927466	0.155407
H231	H	0.775523	1.260800	0.488740
H232	H	0.064132	0.657158	-0.141362
H233	H	0.397465	0.990491	0.191971
H234	H	0.730799	1.323825	0.525304
H235	H	0.155548	0.651637	-0.141352
H236	H	0.488882	0.984970	0.191982
H237	H	0.822215	1.318304	0.525315
H238	H	-0.150935	0.930505	0.000038
H239	H	0.182398	1.263838	0.333371
H240	H	0.515731	1.597172	0.666704
C241	C	-0.649233	0.703329	0.000002
C242	C	-0.315900	1.036662	0.333335
C243	C	0.017434	1.369995	0.666668
H244	H	-0.705155	0.708428	0.000011
H245	H	-0.371821	1.041761	0.333345
H246	H	-0.038488	1.375095	0.666678
H247	H	-0.631901	0.678508	-0.042230
H248	H	-0.298568	1.011842	0.291103
H249	H	0.034766	1.345175	0.624436
H250	H	-0.631904	0.678497	0.042235
H251	H	-0.298571	1.011830	0.375568
H252	H	0.034763	1.345164	0.708902
C253	C	-0.477530	0.715568	0.000010
C254	C	-0.144197	1.048902	0.333343
C255	C	0.189136	1.382235	0.666676
H256	H	-0.507892	0.675631	0.000017
H257	H	-0.174559	1.008964	0.333350
H258	H	0.158774	1.342298	0.666683
H259	H	-0.445228	0.715234	-0.042218
H260	H	-0.111894	1.048567	0.291115
H261	H	0.221439	1.381901	0.624448
H262	H	-0.445245	0.715230	0.042247
H263	H	-0.111911	1.048564	0.375580
H264	H	0.221422	1.381897	0.708914
C265	C	0.199566	0.244317	0.106221
C266	C	0.532900	0.577650	0.439554
C267	C	0.866233	0.910984	0.772887
H268	H	0.192182	0.196335	0.098984
H269	H	0.525516	0.529668	0.432318
H270	H	0.858849	0.863002	0.765651
H271	H	0.253647	0.252944	0.099858
H272	H	0.586980	0.586278	0.433191
H273	H	0.920314	0.919611	0.766524
H274	H	0.183606	0.257174	0.154144
H275	H	0.516939	0.590507	0.487478
H276	H	0.850273	0.923840	0.820811
C277	C	0.106855	0.473827	-0.138610
C278	C	0.440188	0.807161	0.194723
C279	C	0.773521	1.140494	0.528056
H280	H	0.106063	0.425446	-0.129156
H281	H	0.439396	0.758779	0.204177
H282	H	0.772729	1.092112	0.537510
H283	H	0.061348	0.488473	-0.165734
H284	H	0.394681	0.821806	0.167599
H285	H	0.728014	1.155139	0.500933
H286	H	0.152764	0.482956	-0.165734
H287	H	0.486098	0.816289	0.167599
H288	H	0.819431	1.149623	0.500933
H289	H	0.101807	0.168427	-0.119746
H290	H	0.435140	0.501760	0.213587
H291	H	0.768474	0.835093	0.546921
C292	C	-0.517719	0.979098	0.000017
C293	C	-0.184386	1.312431	0.333351
C294	C	0.148947	1.645764	0.666684
H295	H	-0.559478	1.013895	0.000011
H296	H	-0.226145	1.347229	0.333344
H297	H	0.107189	1.680562	0.666677
H298	H	-0.486224	0.983977	0.042246
H299	H	-0.152891	1.317311	0.375579
H300	H	0.180443	1.650644	0.708913
H301	H	-0.486218	0.983982	-0.042219
H302	H	-0.152885	1.317316	0.291114
H303	H	0.180448	1.650649	0.624447
C304	C	0.107094	0.473782	0.138642
C305	C	0.440428	0.807115	0.471975
C306	C	0.773761	1.140449	0.805309
H307	H	0.106370	0.425398	0.129189
H308	H	0.439703	0.758732	0.462522
H309	H	0.773037	1.092065	0.795855
H310	H	0.153076	0.482986	0.165605
H311	H	0.486410	0.816319	0.498938
H312	H	0.819743	1.149653	0.832271
H313	H	0.061658	0.488331	0.165926
H314	H	0.394991	0.821664	0.499259
H315	H	0.728325	1.154997	0.832592
C316	C	0.006719	0.255985	-0.106177
C317	C	0.340052	0.589319	0.227156
C318	C	0.673385	0.922652	0.560490
H319	H	0.012501	0.207207	-0.098935
H320	H	0.345834	0.540541	0.234398
H321	H	0.679167	0.873874	0.567732
H322	H	-0.046968	0.271122	-0.099812
H323	H	0.286365	0.604455	0.233521
H324	H	0.619699	0.937788	0.566854
H325	H	0.023069	0.266897	-0.154104
H326	H	0.356402	0.600230	0.179230
H327	H	0.689735	0.933563	0.512563
H328	H	0.201346	0.745974	0.334070
H329	H	0.534680	1.079307	0.667403
H330	H	0.868013	1.412641	1.000736
H331	H	0.109167	0.615724	0.119782
H332	H	0.442500	0.949057	0.453115
H333	H	0.775834	1.282390	0.786448
H334	H	-0.025189	0.835641	0.569182
H335	H	0.308144	1.168974	0.902515
H336	H	0.641477	1.502308	1.235848
H337	H	0.188818	0.387026	0.091754
H338	H	0.522152	0.720359	0.425087
H339	H	0.855485	1.053693	0.758420
C340	C	0.101945	0.178759	0.138649
C341	C	0.435278	0.512092	0.471982
C342	C	0.768612	0.845426	0.805316
H343	H	0.102757	0.227140	0.129195
H344	H	0.436090	0.560473	0.462528
H345	H	0.769423	0.893806	0.795862
H346	H	0.056041	0.169635	0.165775
H347	H	0.389374	0.502969	0.499108
H348	H	0.722707	0.836302	0.832442
H349	H	0.147457	0.164109	0.165770
H350	H	0.480790	0.497442	0.499104
H351	H	0.814124	0.830775	0.832437
H352	H	0.099589	0.036846	0.119795
H353	H	0.432922	0.370179	0.453128
H354	H	0.766255	0.703513	0.786462
C355	C	-0.689421	0.966857	0.000015
C356	C	-0.356088	1.300190	0.333348
C357	C	-0.022754	1.633524	0.666681
H358	H	-0.742602	0.953983	0.000006
H359	H	-0.409269	1.287317	0.333339
H360	H	-0.075936	1.620650	0.666673
H361	H	-0.679961	0.993590	0.042244
H362	H	-0.346627	1.326924	0.375577
H363	H	-0.013294	1.660257	0.708910
H364	H	-0.679945	0.993595	-0.042222
H365	H	-0.346612	1.326928	0.291112
H366	H	-0.013278	1.660262	0.624445
C367	C	-0.273487	0.673493	0.000009
C368	C	0.059846	1.006826	0.333343
C369	C	0.393179	1.340159	0.666676
H370	H	-0.329409	0.678587	0.000017
H371	H	0.003924	1.011921	0.333350
H372	H	0.337257	1.345254	0.666683
H373	H	-0.256151	0.648672	-0.042221
H374	H	0.077182	0.982005	0.291113
H375	H	0.410516	1.315339	0.624446
H376	H	-0.256158	0.648664	0.042245
H377	H	0.077176	0.981997	0.375578
H378	H	0.410509	1.315331	0.708911
H379	H	0.233987	0.816954	0.430863
H380	H	0.567320	1.150287	0.764196
H381	H	0.900653	1.483620	1.097529
C382	C	-0.101784	0.685736	0.000013
C383	C	0.231549	1.019070	0.333346
C384	C	0.564883	1.352403	0.666680
H385	H	-0.132142	0.645797	0.000016
H386	H	0.201191	0.979130	0.333349
H387	H	0.534525	1.312463	0.666683
H388	H	-0.069485	0.685410	-0.042217
H389	H	0.263849	1.018743	0.291117
H390	H	0.597182	1.352077	0.624450
H391	H	-0.069496	0.685395	0.042249
H392	H	0.263838	1.018729	0.375582
H393	H	0.597171	1.352062	0.708915
H394	H	0.007431	0.906597	0.334052
H395	H	0.340765	1.239931	0.667385
H396	H	0.674098	1.573264	1.000719
C397	C	-0.007833	0.919272	0.655082
C398	C	0.325500	1.252605	0.988415
C399	C	0.658834	1.585939	1.321749
H400	H	-0.039667	0.945631	0.688696
H401	H	0.293666	1.278965	1.022030
H402	H	0.627000	1.612298	1.355363
H403	H	0.020282	0.949742	0.625335
H404	H	0.353616	1.283076	0.958669
H405	H	0.686949	1.616409	1.292002
H406	H	-0.040397	0.892473	0.625357
H407	H	0.292936	1.225806	0.958691
H408	H	0.626270	1.559140	1.292024
H409	H	0.007436	0.906632	0.804263
H410	H	0.340769	1.239965	1.137597
H411	H	0.674103	1.573299	1.470930
H412	H	0.022184	0.397117	-0.091734
H413	H	0.355518	0.730451	0.241599
H414	H	0.688851	1.063784	0.574933
C415	C	0.216634	0.733369	0.815167
C416	C	0.549967	1.066702	1.148500
C417	C	0.883301	1.400036	1.481833
H418	H	0.208986	0.739716	0.866022
H419	H	0.542320	1.073049	1.199356
H420	H	0.875653	1.406383	1.532689
H421	H	0.208254	0.686549	0.802686
H422	H	0.541587	1.019883	1.136019
H423	H	0.874921	1.353216	1.469353
H424	H	0.268936	0.743817	0.802665
H425	H	0.602269	1.077150	1.135998
H426	H	0.935603	1.410483	1.469332
H427	H	0.201358	0.746004	0.665989
H428	H	0.534692	1.079337	0.999322
H429	H	0.868025	1.412671	1.332656
H430	H	0.201342	0.745952	0.195777
H431	H	0.534676	1.079286	0.529110
H432	H	0.868009	1.412619	0.862443
