data_functionalizedCrystal
_audit_creation_method	'MofGen! by Chris Wilmer'
_symmetry_space_group_name_H-M	'P1'
_symmetry_Int_Tables_number	1
_symmetry_cell_setting	triclinic
loop_
_symmetry_equiv_pos_as_xyz
  x,y,z
_cell_length_a	19.805407
_cell_length_b	12.759399
_cell_length_c	19.805399
_cell_angle_alpha	89.980449
_cell_angle_beta	90.017803
_cell_angle_gamma	89.988434
loop_
_atom_site_label
_atom_site_type_symbol
_atom_site_fract_x
_atom_site_fract_y
_atom_site_fract_z
Zn1	Zn	1.034793	0.418366	0.382725
Zn2	Zn	1.034732	0.594059	0.269553
Zn3	Zn	0.921608	0.418387	0.269554
Zn4	Zn	0.921595	0.593995	0.382703
O5	O	0.978182	0.506202	0.326134
O6	O	1.129501	0.441690	0.367722
O7	O	1.019705	0.570791	0.174837
O8	O	0.936653	0.271363	0.284575
O9	O	1.129456	0.570771	0.284575
O10	O	1.019809	0.271348	0.367722
O11	O	0.936593	0.441725	0.174837
O12	O	0.826889	0.441663	0.284554
O13	O	0.936631	0.570662	0.477423
O14	O	0.826880	0.570682	0.367685
O15	O	1.019797	0.441628	0.477439
O16	O	1.019693	0.741072	0.284553
O17	O	0.936572	0.741025	0.367684
C18	C	0.802326	0.506169	0.326117
C19	C	0.727094	0.506180	0.326126
C20	C	0.691774	0.439086	0.369487
C21	C	0.621085	0.439092	0.369490
C22	C	0.585718	0.506197	0.326135
C23	C	0.621043	0.573294	0.282769
C24	C	0.691730	0.573282	0.282764
C25	C	0.335970	0.573341	0.282790
C26	C	0.265278	0.573350	0.282800
C27	C	0.265325	0.439151	0.369516
C28	C	0.336012	0.439139	0.369510
C29	C	0.371331	0.506231	0.326143
C30	C	0.447979	0.506223	0.326140
C31	C	0.509071	0.506211	0.326141
C32	C	0.978143	0.779169	0.326131
C33	C	0.978188	0.895946	0.326152
C34	C	1.021519	0.950797	0.282918
C35	C	1.021564	1.060521	0.282946
C36	C	0.934940	1.060533	0.369444
C37	C	0.934900	0.950811	0.369420
C38	C	1.101458	1.210401	0.258867
C39	C	1.144783	1.265256	0.215622
C40	C	1.155200	1.229704	0.149580
C41	C	1.122282	1.139298	0.126769
C42	C	1.078952	1.084449	0.170011
C43	C	1.068548	1.119999	0.236063
C44	C	0.855005	0.800929	0.393491
C45	C	0.811671	0.746077	0.436729
C46	C	0.801247	0.781627	0.502773
C47	C	0.834153	0.872037	0.525581
C48	C	0.877487	0.926888	0.482343
C49	C	0.887912	0.891331	0.416300
C50	C	1.154724	0.506236	0.326151
C51	C	1.229956	0.506250	0.326158
C52	C	0.978220	0.506136	0.502677
C53	C	0.978236	0.506107	0.577909
C54	C	0.978242	1.232168	0.326163
C55	C	0.978273	1.115392	0.326205
C56	C	0.978183	0.506192	0.150278
C57	C	0.978298	0.505924	0.075046
C58	C	1.021541	0.438916	0.613262
C59	C	1.021548	0.438886	0.683951
C60	C	0.978253	0.506052	0.719284
C61	C	0.934942	0.573247	0.683926
C62	C	0.934933	0.573271	0.613238
C63	C	0.934981	0.573149	0.968999
C64	C	0.934995	0.573122	1.039691
C65	C	1.021596	0.438763	1.039711
C66	C	1.021587	0.438788	0.969024
C67	C	0.978274	0.505978	0.933672
C68	C	0.978266	0.506008	0.857023
C69	C	0.978264	0.506028	0.795931
H70	H	0.364804	0.384499	0.404817
C71	C	1.069169	0.365030	0.574399
C72	C	1.122295	0.410579	0.525811
C73	C	1.169922	0.336688	0.486950
C74	C	1.164423	0.217248	0.496678
C75	C	1.111295	0.171692	0.545268
C76	C	1.063667	0.245583	0.584129
H77	H	1.126367	0.499001	0.518609
H78	H	1.209251	0.370412	0.450981
H79	H	1.199679	0.162549	0.467911
H80	H	1.107222	0.083270	0.552471
H81	H	1.024338	0.211860	0.620098
H82	H	0.720564	0.384444	0.404794
C83	C	0.887362	0.647002	1.078560
C84	C	0.839716	0.720904	1.039676
C85	C	0.792085	0.794779	1.078545
C86	C	0.792100	0.794752	1.156298
C87	C	0.839748	0.720847	1.195186
C88	C	0.887379	0.646972	1.156317
H89	H	0.839703	0.720926	0.982114
H90	H	0.756813	0.849488	1.049756
H91	H	0.756841	0.849439	1.185071
H92	H	0.839761	0.720824	1.252748
H93	H	0.922651	0.592262	1.185106
H94	H	0.364718	0.627973	0.247478
H95	H	0.592331	0.384460	0.404800
H96	H	0.592242	0.627927	0.247465
H97	H	0.899662	0.627975	0.584454
H98	H	0.236484	0.627997	0.247493
H99	H	0.720487	0.627916	0.247454
C100	C	0.887322	0.647148	0.722785
C101	C	0.810376	0.638581	0.713056
C102	C	0.762758	0.712494	0.751911
C103	C	0.792086	0.794975	0.800494
C104	C	0.869036	0.803546	0.810224
C105	C	0.916654	0.729633	0.771370
H106	H	0.788661	0.577520	0.677090
H107	H	0.705794	0.706149	0.744707
H108	H	0.756837	0.849690	0.829256
H109	H	0.890750	0.864606	0.846190
H110	H	0.973618	0.735978	0.778573
H111	H	1.056768	0.906129	0.247688
C112	C	1.042747	0.985004	0.144929
C113	C	1.054201	0.945892	0.072281
C114	C	1.018001	0.846440	0.047199
C115	C	0.970347	0.786099	0.094766
C116	C	0.958891	0.825210	0.167419
C117	C	0.995091	0.924662	0.192501
H118	H	1.089479	0.990561	0.037065
H119	H	1.026482	0.817488	-0.006584
H120	H	0.943550	0.712479	0.076199
H121	H	0.923613	0.780541	0.202635
H122	H	0.986610	0.953614	0.246283
C123	C	1.133738	1.100198	0.054116
C124	C	1.205243	1.070120	0.030531
C125	C	1.216701	1.031017	-0.042123
C126	C	1.156654	1.021991	-0.091190
C127	C	1.085145	1.052069	-0.067605
C128	C	1.073686	1.091173	0.005048
H129	H	1.249698	1.076801	0.066854
H130	H	1.269638	1.008750	-0.059581
H131	H	1.165137	0.993044	-0.144972
H132	H	1.040690	1.045389	-0.103929
H133	H	1.020750	1.113439	0.022507
C134	C	1.202860	1.290040	0.102010
C135	C	1.239065	1.389480	0.127096
C136	C	1.286727	1.449818	0.079531
C137	C	1.298185	1.410717	0.006881
C138	C	1.261979	1.311272	-0.018208
C139	C	1.214317	1.250934	0.029356
H140	H	1.230584	1.418429	0.180879
H141	H	1.313529	1.523434	0.098104
H142	H	1.333468	1.455383	-0.028330
H143	H	1.270460	1.282323	-0.071992
H144	H	1.187515	1.177318	0.010783
H145	H	0.236560	0.384517	0.404826
H146	H	1.171585	1.338865	0.234201
H147	H	1.056845	0.384097	0.940259
C148	C	0.887322	1.120887	0.417034
C149	C	0.887363	1.241576	0.417063
C150	C	0.839743	1.301928	0.464653
C151	C	0.792083	1.241589	0.512214
C152	C	0.792040	1.120892	0.512187
C153	C	0.839660	1.060541	0.464597
H154	H	0.922646	1.286249	0.381854
H155	H	0.839775	1.391276	0.464673
H156	H	0.756832	1.286265	0.547443
H157	H	0.756757	1.076220	0.547396
H158	H	0.839628	0.971193	0.464577
C159	C	0.913689	1.026337	0.507431
C160	C	0.902227	1.065450	0.580078
C161	C	0.938429	1.164897	0.605166
C162	C	0.986093	1.225231	0.557606
C163	C	0.997557	1.186120	0.484955
C164	C	0.961355	1.086673	0.459867
H165	H	0.866941	1.020786	0.615289
H166	H	0.929942	1.193849	0.658948
H167	H	1.012892	1.298848	0.576178
H168	H	1.032843	1.230784	0.449744
H169	H	0.969842	1.057720	0.406086
C170	C	0.822691	0.911151	0.598231
C171	C	0.751183	0.941220	0.621811
C172	C	0.739717	0.980334	0.694461
C173	C	0.799761	0.989379	0.743531
C174	C	0.871274	0.959309	0.719952
C175	C	0.882739	0.920195	0.647302
H176	H	0.706731	0.934525	0.585485
H177	H	0.686778	1.002594	0.711915
H178	H	0.791273	1.018333	0.797311
H179	H	0.915726	0.966004	0.756278
H180	H	0.935679	0.897935	0.629848
H181	H	1.092987	1.239350	0.312647
H182	H	0.765958	0.736958	0.537977
C183	C	1.069184	0.364971	0.722840
C184	C	1.116810	0.291092	0.683976
C185	C	1.164445	0.217170	0.722865
C186	C	1.164453	0.217127	0.800618
C187	C	1.116825	0.291009	0.839486
C188	C	1.069191	0.364931	0.800597
H189	H	1.116805	0.291121	0.626414
H190	H	1.199702	0.162478	0.694091
H191	H	1.199716	0.162406	0.829406
H192	H	1.116830	0.290980	0.897048
H193	H	1.033933	0.419623	0.829371
H194	H	0.784881	0.672456	0.418155
H195	H	1.056861	0.384050	1.068504
H196	H	0.863494	0.771969	0.339714
H197	H	0.899723	0.627874	0.940224
