data_functionalizedCrystal
_audit_creation_method	'MofGen! by Chris Wilmer'
_symmetry_space_group_name_H-M	'P1'
_symmetry_Int_Tables_number	1
_symmetry_cell_setting	triclinic
loop_
_symmetry_equiv_pos_as_xyz
  x,y,z
_cell_length_a	25.639239
_cell_length_b	16.959455
_cell_length_c	16.959447
_cell_angle_alpha	89.981652
_cell_angle_beta	89.968198
_cell_angle_gamma	90.038114
loop_
_atom_site_label
_atom_site_type_symbol
_atom_site_fract_x
_atom_site_fract_y
_atom_site_fract_z
Zn1	Zn	-0.208155	1.208310	-0.446902
Zn2	Zn	0.291845	1.708310	0.053098
Zn3	Zn	-0.295594	1.208181	-0.314717
Zn4	Zn	0.204406	1.708181	0.185283
Zn5	Zn	-0.208173	1.076130	-0.314738
Zn6	Zn	0.291827	1.576130	0.185262
Zn7	Zn	-0.295560	1.076060	-0.446854
Zn8	Zn	0.204440	1.576060	0.053146
O9	O	-0.251871	1.142170	-0.380803
O10	O	0.248129	1.642170	0.119197
O11	O	-0.219760	1.318904	-0.429378
O12	O	0.280240	1.818904	0.070622
O13	O	-0.284019	1.190640	-0.204109
O14	O	0.215981	1.690640	0.295891
O15	O	-0.135006	1.093747	-0.332299
O16	O	0.364994	1.593747	0.167701
O17	O	-0.284001	1.318809	-0.332262
O18	O	0.215999	1.818809	0.167738
O19	O	-0.134992	1.190859	-0.429399
O20	O	0.365008	1.690859	0.070601
O21	O	-0.219791	1.093622	-0.204124
O22	O	0.280209	1.593622	0.295876
O23	O	-0.219759	0.965510	-0.332253
O24	O	0.280241	1.465510	0.167747
O25	O	-0.283944	1.093628	-0.557472
O26	O	0.216056	1.593628	-0.057472
O27	O	-0.283962	0.965459	-0.429318
O28	O	0.216038	1.465459	0.070682
O29	O	-0.219728	1.190791	-0.557506
O30	O	0.280272	1.690791	-0.057506
O31	O	-0.368755	1.190572	-0.332216
O32	O	0.131245	1.690572	0.167784
O33	O	-0.368730	1.093503	-0.429297
O34	O	0.131270	1.593503	0.070703
C35	C	-0.251859	0.936804	-0.380783
C36	C	0.248141	1.436804	0.119217
C37	C	-0.251867	0.848947	-0.380794
C38	C	0.248133	1.348947	0.119206
C39	C	-0.285267	0.807622	-0.330158
C40	C	0.214733	1.307622	0.169842
C41	C	-0.218471	0.807719	-0.431435
C42	C	0.281529	1.307719	0.068565
C43	C	-0.218476	0.725173	-0.431445
C44	C	0.281524	1.225173	0.068555
C45	C	-0.251875	0.683848	-0.380809
C46	C	0.248125	1.183848	0.119191
C47	C	-0.285271	0.725069	-0.330164
C48	C	0.214729	1.225069	0.169836
C49	C	-0.185077	0.683946	-0.482083
C50	C	0.314923	1.183946	0.017917
C51	C	-0.185079	0.601395	-0.482094
C52	C	0.314921	1.101395	0.017906
C53	C	-0.218482	0.560069	-0.431462
C54	C	0.281518	1.060069	0.068538
C55	C	-0.251879	0.601295	-0.380816
C56	C	0.248121	1.101295	0.119184
C57	C	-0.285279	0.559969	-0.330180
C58	C	0.214721	1.059969	0.169820
C59	C	-0.318679	0.601194	-0.279537
C60	C	0.181321	1.101194	0.220463
C61	C	-0.318673	0.683742	-0.279532
C62	C	0.181327	1.183742	0.220468
C63	C	-0.218488	0.477520	-0.431467
C64	C	0.281512	0.977520	0.068533
C65	C	-0.285283	0.477416	-0.330186
C66	C	0.214717	0.977416	0.169814
C67	C	-0.387713	1.142037	-0.380766
C68	C	0.112287	1.642037	0.119234
C69	C	-0.445827	1.142053	-0.380777
C70	C	0.054173	1.642053	0.119223
C71	C	-0.806190	1.192846	-0.330339
C72	C	-0.306190	1.692846	0.169661
C73	C	-0.860795	1.192877	-0.330349
C74	C	-0.360795	1.692877	0.169651
O75	O	-0.889032	1.235925	-0.287425
O76	O	-0.389032	1.735925	0.212575
N77	N	-0.888110	1.142309	-0.380855
N78	N	-0.388110	1.642309	0.119145
C79	C	-0.860817	1.091714	-0.431359
C80	C	-0.360817	1.591714	0.068641
O81	O	-0.889065	1.048706	-0.474320
O82	O	-0.389065	1.548706	0.025680
C83	C	-0.806214	1.091688	-0.431352
C84	C	-0.306214	1.591688	0.068648
C85	C	-0.778902	1.142253	-0.380837
C86	C	-0.278902	1.642253	0.119163
C87	C	-0.778878	1.243407	-0.279829
C88	C	-0.278878	1.743407	0.220171
C89	C	-0.724278	1.243375	-0.279817
C90	C	-0.224278	1.743375	0.220183
C91	C	-0.696989	1.192782	-0.330316
C92	C	-0.196989	1.692782	0.169684
C93	C	-0.724301	1.142221	-0.380826
C94	C	-0.224301	1.642221	0.119174
C95	C	-0.778923	1.041097	-0.481860
C96	C	-0.278923	1.541097	0.018140
C97	C	-0.724316	1.041075	-0.481848
C98	C	-0.224316	1.541075	0.018152
C99	C	-0.697004	1.091640	-0.431334
C100	C	-0.197004	1.591640	0.068666
C101	C	-0.642413	1.091596	-0.431313
C102	C	-0.142413	1.591596	0.068687
N103	N	-0.615098	1.142163	-0.380807
N104	N	-0.115098	1.642163	0.119193
C105	C	-0.642386	1.192756	-0.330309
C106	C	-0.142386	1.692756	0.169691
C107	C	-0.975488	1.091773	-0.431371
C108	C	-0.475488	1.591773	0.068629
C109	C	-1.030090	1.091795	-0.431375
C110	C	-0.530090	1.591795	0.068625
C111	C	-1.030064	1.192959	-0.330366
C112	C	-0.530064	1.692959	0.169634
C113	C	-0.975461	1.192933	-0.330359
C114	C	-0.475461	1.692933	0.169641
C115	C	-0.948173	1.142341	-0.380866
C116	C	-0.448173	1.642341	0.119134
C117	C	-0.527721	1.192685	-0.330288
C118	C	-0.027721	1.692685	0.169712
C119	C	-0.473116	1.192646	-0.330279
C120	C	0.026884	1.692646	0.169721
C121	C	-0.473147	1.091485	-0.431290
C122	C	0.026853	1.591485	0.068710
C123	C	-0.527747	1.091521	-0.431297
C124	C	-0.027747	1.591521	0.068703
C125	C	-0.555033	1.142127	-0.380793
C126	C	-0.055033	1.642127	0.119207
O127	O	-0.614141	1.048572	-0.474218
O128	O	-0.114141	1.548572	0.025782
O129	O	-0.614132	1.235764	-0.287363
O130	O	-0.114132	1.735764	0.212637
C131	C	-0.115498	1.142325	-0.380856
C132	C	0.384502	1.642325	0.119144
C133	C	-0.057383	1.142391	-0.380879
C134	C	0.442617	1.642391	0.119121
C135	C	-0.251830	1.142216	-0.586971
C136	C	0.248170	1.642216	-0.086971
C137	C	-0.251813	1.142236	-0.674828
C138	C	0.248187	1.642236	-0.174828
C139	C	-0.251882	1.348339	-0.380823
C140	C	0.248118	1.848339	0.119177
C141	C	-0.251887	1.436195	-0.380831
C142	C	0.248113	1.936195	0.119169
C143	C	-0.285245	1.192759	-0.716095
C144	C	0.214755	1.692759	-0.216095
C145	C	-0.218368	1.091727	-0.716114
C146	C	0.281632	1.591727	-0.216114
C147	C	-0.218353	1.091741	-0.798660
C148	C	0.281647	1.591741	-0.298660
C149	C	-0.251785	1.142263	-0.839927
C150	C	0.248215	1.642263	-0.339927
C151	C	-0.285232	1.192772	-0.798649
C152	C	0.214768	1.692772	-0.298649
C153	C	-0.184911	1.041227	-0.839944
C154	C	0.315089	1.541227	-0.339944
C155	C	-0.184894	1.041238	-0.922495
C156	C	0.315106	1.541238	-0.422495
C157	C	-0.218324	1.091765	-0.963764
C158	C	0.281676	1.591765	-0.463764
C159	C	-0.251771	1.142277	-0.922481
C160	C	0.248229	1.642277	-0.422481
C161	C	-0.285203	1.192799	-0.963748
C162	C	0.214797	1.692799	-0.463748
C163	C	-0.318648	1.243315	-0.922466
C164	C	0.181352	1.743315	-0.422466
C165	C	-0.318661	1.243299	-0.839917
C166	C	0.181339	1.743299	-0.339917
C167	C	-0.218311	1.091781	-1.046313
C168	C	0.281689	1.591781	-0.546313
C169	C	-0.285190	1.192813	-1.046302
C170	C	0.214810	1.692813	-0.546302
C171	C	-0.251873	1.142170	-0.175436
C172	C	0.248127	1.642170	0.324564
C173	C	-0.251743	1.142304	-0.087580
C174	C	0.248257	1.642304	0.412420
H175	H	-0.312462	0.841191	-0.288928
H176	H	0.187538	1.341191	0.211072
H177	H	-0.549986	1.050349	-0.472433
H178	H	-0.049986	1.550349	0.027567
O179	O	-0.182447	0.852285	-0.486046
O180	O	0.317553	1.352285	0.013954
H181	H	-0.188055	0.916612	-0.477534
H182	H	0.311945	1.416612	0.022466
H183	H	-0.157883	0.717599	-0.523305
H184	H	0.342117	1.217599	-0.023305
H185	H	-0.450920	1.050290	-0.472404
H186	H	0.049080	1.550290	0.027596
O187	O	-0.148816	0.986762	-0.967014
O188	O	0.351184	1.486762	-0.467014
H189	H	-0.154422	0.995257	-1.031349
H190	H	0.345578	1.495257	-0.531349
H191	H	-1.052323	1.050612	-0.472502
H192	H	-0.552323	1.550612	0.027498
O193	O	-0.182310	1.037242	-0.671606
O194	O	0.317690	1.537242	-0.171606
H195	H	-0.205715	0.996999	-0.633975
H196	H	0.294285	1.496999	-0.133975
O197	O	-0.321249	1.247310	-1.090805
O198	O	0.178751	1.747310	-0.590805
H199	H	-0.315621	1.238838	-1.155143
H200	H	0.184379	1.738838	-0.655143
H201	H	-1.052292	1.234157	-0.289250
H202	H	-0.552292	1.734157	0.210750
O203	O	-0.946057	1.037183	-0.485830
O204	O	-0.446057	1.537183	0.014170
H205	H	-0.974228	1.002020	-0.520938
H206	H	-0.474228	1.502020	-0.020938
H207	H	-0.157884	0.567837	-0.523332
H208	H	0.342116	1.067837	-0.023332
O209	O	-0.354732	1.297777	-0.795388
O210	O	0.145268	1.797777	-0.295388
H211	H	-0.377973	1.332918	-0.837950
H212	H	0.122027	1.832918	-0.337950
H213	H	-0.345870	1.284448	-0.956077
H214	H	0.154130	1.784448	-0.456077
O215	O	-0.182469	0.433054	-0.486082
O216	O	0.317531	0.933054	0.013918
H217	H	-0.159244	0.475658	-0.521291
H218	H	0.340756	0.975658	-0.021291
H219	H	-0.801151	0.999917	-0.522990
H220	H	-0.301151	1.499917	-0.022990
H221	H	-0.191081	1.050650	-1.079921
H222	H	0.308919	1.550650	-0.579921
H223	H	-0.450880	1.233822	-0.289141
H224	H	0.049120	1.733822	0.210859
H225	H	-0.312474	1.233890	-0.682479
H226	H	0.187526	1.733890	-0.182479
H227	H	-0.549931	1.233895	-0.289165
H228	H	-0.049931	1.733895	0.210835
O229	O	-0.694822	1.297925	-0.225345
O230	O	-0.194822	1.797925	0.274655
H231	H	-0.722978	1.333113	-0.190245
H232	H	-0.222978	1.833113	0.309755
H233	H	-0.801091	1.284611	-0.238706
H234	H	-0.301091	1.784611	0.261294
O235	O	-0.321308	0.432846	-0.275571
O236	O	0.178692	0.932846	0.224429
H237	H	-0.297876	0.395241	-0.235423
H238	H	0.202124	0.895241	0.264577
O239	O	-0.946003	1.247478	-0.275885
O240	O	-0.446003	1.747478	0.224115
H241	H	-0.974157	1.282663	-0.240778
H242	H	-0.474157	1.782663	0.259222
H243	H	-0.345865	0.717314	-0.238299
H244	H	0.154135	1.217314	0.261701
O245	O	-0.148853	0.986743	-0.795432
O246	O	0.351147	1.486743	-0.295432
H247	H	-0.172261	0.946508	-0.757795
H248	H	0.327739	1.446508	-0.257795
O249	O	-0.354702	0.556620	-0.224920
O250	O	0.145298	1.056620	0.275080
H251	H	-0.349091	0.492294	-0.233437
H252	H	0.150909	0.992294	0.266563
H253	H	-0.702101	0.999878	-0.522980
H254	H	-0.202101	1.499878	-0.022980
