data_functionalizedCrystal
_audit_creation_method	'MofGen! by Chris Wilmer'
_symmetry_space_group_name_H-M	'P1'
_symmetry_Int_Tables_number	1
_symmetry_cell_setting	triclinic
loop_
_symmetry_equiv_pos_as_xyz
  x,y,z
_cell_length_a	18.215407
_cell_length_b	18.215405
_cell_length_c	18.215399
_cell_angle_alpha	89.968171
_cell_angle_beta	89.983176
_cell_angle_gamma	90.024268
loop_
_atom_site_label
_atom_site_type_symbol
_atom_site_fract_x
_atom_site_fract_y
_atom_site_fract_z
Zn1	Zn	1.125056	-0.292966	-0.416108
Zn2	Zn	1.124973	-0.416042	-0.293039
Zn3	Zn	1.001995	-0.292995	-0.293056
Zn4	Zn	1.001956	-0.415996	-0.416064
O5	O	1.063495	-0.354500	-0.354567
O6	O	1.228029	-0.309299	-0.399795
O7	O	1.108641	-0.399751	-0.190057
O8	O	1.018370	-0.190007	-0.309405
O9	O	1.227968	-0.399723	-0.309376
O10	O	1.108782	-0.189985	-0.399811
O11	O	1.018289	-0.309349	-0.190069
O12	O	0.899005	-0.309304	-0.309361
O13	O	1.018304	-0.399644	-0.519054
O14	O	0.898977	-0.399672	-0.399735
O15	O	1.108745	-0.309254	-0.519087
O16	O	1.108604	-0.519020	-0.309333
O17	O	1.018224	-0.518986	-0.399719
C18	C	0.872289	-0.354487	-0.354546
C19	C	0.790490	-0.354499	-0.354554
C20	C	0.602300	-0.401628	-0.401552
C21	C	0.525442	-0.401630	-0.401562
C22	C	0.525441	-0.307384	-0.307597
C23	C	0.602299	-0.307379	-0.307592
C24	C	0.640726	-0.354505	-0.354569
C25	C	0.487010	-0.354513	-0.354583
C26	C	0.403676	-0.354515	-0.354592
C27	C	0.724065	-0.354502	-0.354560
C28	C	1.063421	-0.545706	-0.354535
C29	C	1.063456	-0.627505	-0.354546
C30	C	1.110655	-0.892555	-0.307582
C31	C	1.110624	-0.815697	-0.307565
C32	C	1.016426	-0.815702	-0.401602
C33	C	1.016453	-0.892560	-0.401614
C34	C	1.063572	-0.930984	-0.354605
C35	C	1.063514	-0.777268	-0.354576
C36	C	1.063481	-0.693935	-0.354558
C37	C	1.063604	-1.014323	-0.354622
C38	C	1.255448	-0.354513	-0.354588
C39	C	1.337247	-0.354518	-0.354598
C40	C	1.063530	-0.354441	-0.546520
C41	C	1.063544	-0.354416	-0.628319
C42	C	1.063589	-0.162547	-0.354615
C43	C	1.063630	-0.080748	-0.354635
C44	C	1.016538	-0.307311	-0.816520
C45	C	1.016551	-0.307297	-0.893379
C46	C	1.110639	-0.401432	-0.893355
C47	C	1.110622	-0.401450	-0.816498
C48	C	1.063572	-0.354386	-0.778082
C49	C	1.063602	-0.354353	-0.931798
C50	C	1.063616	-0.354337	-1.015132
C51	C	1.063557	-0.354402	-0.694743
C52	C	1.063503	-0.354505	-0.163360
C53	C	1.063630	-0.354323	-0.081562
H54	H	0.633586	-0.439999	-0.439806
H55	H	0.978109	-0.923849	-0.439908
Cl56	Cl	0.957388	-0.248148	-0.768229
Cl57	Cl	0.650609	-0.248129	-0.248527
H58	H	0.978250	-0.268965	-0.924671
Cl59	Cl	1.169785	-0.460594	-0.941654
Cl60	Cl	1.169752	-0.460637	-0.768172
H61	H	0.494159	-0.440002	-0.439822
Cl62	Cl	1.169886	-0.940858	-0.248482
Cl63	Cl	0.477127	-0.248145	-0.248542
H64	H	0.978064	-0.784409	-0.439876
H65	H	1.148963	-0.784410	-0.269273
