data_functionalizedCrystal
_audit_creation_method	'MofGen! by Chris Wilmer'
_symmetry_space_group_name_H-M	'P1'
_symmetry_Int_Tables_number	1
_symmetry_cell_setting	triclinic
loop_
_symmetry_equiv_pos_as_xyz
  x,y,z
_cell_length_a	12.837943
_cell_length_b	15.995350
_cell_length_c	11.892095
_cell_angle_alpha	93.891441
_cell_angle_beta	85.689438
_cell_angle_gamma	89.160657
loop_
_atom_site_label
_atom_site_type_symbol
_atom_site_fract_x
_atom_site_fract_y
_atom_site_fract_z
O1	O	1.382080	0.212847	-0.093972
O2	O	1.080275	0.202094	-0.093979
O3	O	1.239427	0.086241	-0.093975
O4	O	1.222927	0.328700	-0.093977
O5	O	1.226157	0.095884	0.094032
O6	O	1.067005	0.211737	0.094028
O7	O	1.368810	0.222490	0.094035
Zn8	Zn	1.215800	0.218644	0.123881
Zn9	Zn	1.233284	0.205939	-0.123826
O10	O	1.209657	0.338343	0.094030
C11	C	1.035019	0.203283	0.000023
C12	C	0.919942	0.192449	0.000020
C13	C	0.678983	0.322688	0.000035
C14	C	0.570857	0.312513	0.000033
C15	C	0.595563	0.161925	0.000023
C16	C	0.703688	0.172100	0.000025
C17	C	0.745394	0.252484	0.000029
C18	C	0.853523	0.262658	0.000023
C19	C	0.878225	0.112072	0.000020
C20	C	0.770100	0.101896	0.000018
C21	C	1.232110	0.059813	0.000027
C22	C	1.230066	-0.033301	0.000020
C23	C	1.222721	-0.371634	0.000024
C24	C	1.109405	-0.333265	-0.000400
C25	C	1.111421	-0.236390	0.000023
C26	C	1.226364	-0.203783	0.000021
C27	C	1.274693	-0.234893	0.107382
C28	C	1.271839	-0.331752	0.107472
C29	C	1.289271	-0.342889	-0.106327
C30	C	1.289344	-0.246018	-0.107746
C31	C	1.228429	-0.108921	0.000024
C32	C	1.220659	-0.466496	0.000029
C33	C	1.414066	0.221301	0.000030
C34	C	1.529143	0.232134	0.000025
C35	C	1.216974	0.364770	0.000026
C36	C	1.219020	0.457884	0.000025
N37	N	1.203876	0.227315	0.292935
N38	N	1.245217	0.197262	-0.292880
C39	C	1.328193	0.136877	0.529587
C40	C	1.319865	0.142945	0.647928
C41	C	1.178889	0.245514	0.647962
C42	C	1.187216	0.239446	0.529621
C43	C	1.261872	0.185127	0.470437
C44	C	1.270204	0.179064	0.352093
C45	C	1.129223	0.281628	0.352129
C46	C	1.120896	0.287696	0.470471
H47	H	0.887477	0.328111	0.000028
C48	C	1.044305	-0.198169	0.104171
N49	N	0.993752	-0.169382	0.182621
C50	C	1.056265	0.334706	0.287055
N51	N	1.001316	0.374685	0.238040
C52	C	0.951288	0.034842	0.000011
N53	N	1.006319	-0.023325	-0.000000
C54	C	0.724863	0.411109	0.000032
N55	N	0.759417	0.477710	0.000032
C56	C	0.724210	0.013478	0.000012
N57	N	0.689647	-0.053120	0.000002
C58	C	1.041183	-0.359264	0.103052
N59	N	0.989804	-0.378838	0.180982
H60	H	1.230224	-0.205512	0.187277
C61	C	1.059381	-0.208060	-0.103941
N62	N	1.020177	-0.186726	-0.182248
C63	C	0.497808	0.389743	0.000040
N64	N	0.442786	0.447916	0.000047
H65	H	1.257956	-0.370559	-0.187700
H66	H	1.373623	-0.224301	-0.114230
H67	H	0.561579	0.096485	0.000112
C68	C	1.055534	-0.368528	-0.104403
N69	N	1.014956	-0.395096	-0.182739
C70	C	1.209101	-0.355311	0.215886
N71	N	1.161841	-0.373052	0.297543
C72	C	1.383793	-0.366011	0.114068
N73	N	1.468114	-0.391812	0.119044
H74	H	1.358857	-0.213825	0.111373
C75	C	1.352323	0.119310	0.286993
N76	N	1.414174	0.074299	0.237963
H77	H	1.254075	-0.226105	-0.187169
C78	C	1.402235	-0.376844	-0.107309
N79	N	1.487316	-0.402424	-0.108042
C80	C	1.410318	0.077130	0.464482
N81	N	1.472175	0.032127	0.415447
C82	C	1.392821	0.089863	0.712989
N83	N	1.447772	0.049878	0.761992
H84	H	1.118099	0.289733	0.696165
C85	C	1.038771	0.347437	0.535586
N86	N	0.976913	0.392435	0.584630
