data_functionalizedCrystal
_audit_creation_method	'MofGen! by Chris Wilmer'
_symmetry_space_group_name_H-M	'P1'
_symmetry_Int_Tables_number	1
_symmetry_cell_setting	triclinic
loop_
_symmetry_equiv_pos_as_xyz
  x,y,z
_cell_length_a	12.594517
_cell_length_b	12.594509
_cell_length_c	12.645330
_cell_angle_alpha	89.972877
_cell_angle_beta	90.017492
_cell_angle_gamma	89.978673
loop_
_atom_site_label
_atom_site_type_symbol
_atom_site_fract_x
_atom_site_fract_y
_atom_site_fract_z
Zn1	Zn	1.627255	-0.601868	-0.422013
Zn2	Zn	2.127255	-0.101868	0.077987
Zn3	Zn	1.627141	-0.423893	-0.599308
Zn4	Zn	2.127141	0.076107	-0.099308
Zn5	Zn	1.449259	-0.423897	-0.422058
Zn6	Zn	1.949259	0.076103	0.077942
Zn7	Zn	1.449236	-0.601823	-0.599234
Zn8	Zn	1.949236	-0.101823	-0.099234
O9	O	1.538222	-0.512870	-0.510653
O10	O	2.038222	-0.012870	-0.010653
O11	O	1.776185	-0.578277	-0.445543
O12	O	2.276185	-0.078277	0.054457
O13	O	1.603506	-0.274948	-0.575845
O14	O	2.103506	0.225052	-0.075845
O15	O	1.472928	-0.447526	-0.273705
O16	O	1.972928	0.052474	0.226295
O17	O	1.776102	-0.447519	-0.575801
O18	O	2.276102	0.052481	-0.075801
O19	O	1.603701	-0.578281	-0.273672
O20	O	2.103701	-0.078281	0.226328
O21	O	1.472817	-0.274951	-0.445621
O22	O	1.972817	0.225049	0.054379
O23	O	1.300310	-0.447482	-0.445549
O24	O	1.800310	0.052518	0.054451
O25	O	1.472889	-0.750775	-0.575676
O26	O	1.972889	-0.250775	-0.075676
O27	O	1.300293	-0.578204	-0.575720
O28	O	1.800293	-0.078204	-0.075720
O29	O	1.603678	-0.750808	-0.445472
O30	O	2.103678	-0.250808	0.054528
O31	O	1.603484	-0.447475	-0.747645
O32	O	2.103484	0.052525	-0.247645
O33	O	1.472778	-0.578200	-0.747591
O34	O	1.972778	-0.078200	-0.247591
C35	C	1.261682	-0.512839	-0.510632
C36	C	1.761682	-0.012839	-0.010632
C37	C	1.143376	-0.512851	-0.510649
C38	C	1.643376	-0.012851	-0.010649
C39	C	1.074101	-0.441887	-0.439752
C40	C	1.574101	0.058113	0.060248
C41	C	1.003287	-0.415709	-0.536451
C42	C	1.503287	0.084291	-0.036451
C43	C	1.003391	-0.539047	-0.413997
C44	C	1.503391	-0.039047	0.086003
C45	C	1.074121	-0.486622	-0.607398
C46	C	1.574121	0.013378	-0.107398
C47	C	1.074230	-0.610005	-0.484879
C48	C	1.574230	-0.110005	0.015121
C49	C	1.003448	-0.583864	-0.581645
C50	C	1.503448	-0.083864	-0.081645
C51	C	1.538294	-0.790491	-0.510561
C52	C	2.038294	-0.290491	-0.010561
C53	C	1.538324	-0.908797	-0.510521
C54	C	2.038324	-0.408797	-0.010521
C55	C	1.467210	-0.978032	-0.581299
C56	C	1.967210	-0.478032	-0.081299
C57	C	1.564330	-1.048823	-0.607200
C58	C	2.064330	-0.548823	-0.107200
C59	C	1.441280	-1.048805	-0.484555
C60	C	1.941280	-0.548805	0.015445
C61	C	1.635495	-0.978030	-0.536474
C62	C	2.135495	-0.478030	-0.036474
C63	C	1.512380	-0.978006	-0.413783
C64	C	2.012380	-0.478006	0.086217
C65	C	1.609566	-1.048765	-0.439649
C66	C	2.109566	-0.548765	0.060351
C67	C	1.815843	-0.512903	-0.510676
C68	C	2.315843	-0.012903	-0.010676
C69	C	1.934149	-0.512916	-0.510685
C70	C	2.434149	-0.012916	-0.010685
C71	C	1.538145	-0.512856	-0.786083
C72	C	2.038145	-0.012856	-0.286083
C73	C	1.538209	-0.512885	-0.903913
C74	C	2.038209	-0.012885	-0.403913
C75	C	1.538213	-0.236329	-0.510669
C76	C	2.038213	0.263671	-0.010669
C77	C	1.538389	-0.118025	-0.510410
C78	C	2.038389	0.381975	-0.010410
C79	C	1.456321	-0.595377	-1.071487
C80	C	1.956321	-0.095377	-0.571487
C81	C	1.455902	-0.595112	-0.948928
C82	C	1.955902	-0.095112	-0.448928
C83	C	1.507845	-0.400712	-0.948512
C84	C	2.007845	0.099288	-0.448512
C85	C	1.507345	-0.401213	-1.071110
C86	C	2.007345	0.098787	-0.571110
C87	C	1.650962	-0.541656	-1.071002
C88	C	2.150962	-0.041656	-0.571002
C89	C	1.650271	-0.544108	-0.948395
C90	C	2.150271	-0.044108	-0.448395
C91	C	1.538329	-0.512909	-0.234148
C92	C	2.038329	-0.012909	0.265852
C93	C	1.538375	-0.512925	-0.116318
C94	C	2.038375	-0.012925	0.383682
H95	H	1.105060	-0.464401	-0.689174
H96	H	1.605060	0.035599	-0.189174
F97	F	1.114989	-0.717331	-0.456325
F98	F	1.614989	-0.217331	0.043675
H99	H	1.426400	-0.375934	-0.917901
H100	H	1.926400	0.124066	-0.417901
F101	F	0.962774	-0.567971	-0.307144
F102	F	1.462774	-0.067971	0.192856
H103	H	1.673170	-0.626662	-0.919241
H104	H	2.173170	-0.126662	-0.419241
H105	H	1.678662	-0.622062	-1.101843
H106	H	2.178662	-0.122062	-0.601843
H107	H	1.714625	-0.488428	-0.917747
H108	H	2.214625	0.011572	-0.417747
F109	F	0.963152	-0.662342	-0.660117
F110	F	1.463152	-0.162342	-0.160117
H111	H	1.717615	-0.947071	-0.558483
H112	H	2.217615	-0.447071	-0.058483
H113	H	1.359184	-1.079895	-0.462639
H114	H	1.859184	-0.579895	0.037361
H115	H	1.407118	-0.946976	-0.641246
H116	H	1.907118	-0.446976	-0.141246
H117	H	0.972128	-0.333575	-0.558270
H118	H	1.472128	0.166425	-0.058270
F119	F	1.582062	-0.318171	-1.109881
F120	F	2.082062	0.181829	-0.609881
H121	H	1.586309	-1.079930	-0.688962
H122	H	2.086309	-0.579930	-0.188962
F123	F	1.688296	-1.089108	-0.361353
F124	F	2.188296	-0.589108	0.138647
F125	F	1.114653	-0.363354	-0.361463
F126	F	1.614653	0.136646	0.138537
F127	F	1.483615	-0.937314	-0.306945
F128	F	1.983615	-0.437314	0.193055
H129	H	1.425043	-0.376874	-1.099802
H130	H	1.925043	0.123126	-0.599802
F131	F	1.480731	-0.703828	-0.909507
F132	F	1.980731	-0.203828	-0.409507
F133	F	1.730871	-0.463175	-1.108911
F134	F	2.230871	0.036825	-0.608911
F135	F	1.480919	-0.704453	-1.109928
F136	F	1.980919	-0.204453	-0.609928
F137	F	1.347908	-0.570834	-1.111896
F138	F	1.847908	-0.070834	-0.611896
H139	H	1.372435	-0.576077	-0.919694
H140	H	1.872435	-0.076077	-0.419694
F141	F	1.583482	-0.318217	-0.910406
F142	F	2.083482	0.181783	-0.410406
