data_functionalizedCrystal
_audit_creation_method	'MofGen! by Chris Wilmer'
_symmetry_space_group_name_H-M	'P1'
_symmetry_Int_Tables_number	1
_symmetry_cell_setting	triclinic
loop_
_symmetry_equiv_pos_as_xyz
  x,y,z
_cell_length_a	29.839131
_cell_length_b	29.839135
_cell_length_c	12.759393
_cell_angle_alpha	89.974022
_cell_angle_beta	89.963184
_cell_angle_gamma	90.043950
loop_
_atom_site_label
_atom_site_type_symbol
_atom_site_fract_x
_atom_site_fract_y
_atom_site_fract_z
Zn1	Zn	-0.178801	0.686766	-0.594115
Zn2	Zn	0.321199	1.186766	-0.094115
Zn3	Zn	-0.253938	0.686685	-0.418416
Zn4	Zn	0.246062	1.186685	0.081584
Zn5	Zn	-0.178826	0.611635	-0.418435
Zn6	Zn	0.321174	1.111635	0.081565
Zn7	Zn	-0.253908	0.611597	-0.594038
Zn8	Zn	0.246092	1.111597	-0.094038
O9	O	-0.216369	0.649171	-0.506251
O10	O	0.283631	1.149171	-0.006251
O11	O	-0.188770	0.749622	-0.570833
O12	O	0.311230	1.249622	-0.070833
O13	O	-0.243998	0.676711	-0.271397
O14	O	0.256002	1.176711	0.228603
O15	O	-0.115956	0.621652	-0.441780
O16	O	0.384044	1.121652	0.058220
O17	O	-0.243973	0.749563	-0.441747
O18	O	0.256027	1.249563	0.058253
O19	O	-0.115937	0.676850	-0.570851
O20	O	0.384063	1.176850	-0.070851
O21	O	-0.188813	0.621573	-0.271411
O22	O	0.311187	1.121573	0.228589
O23	O	-0.188784	0.548763	-0.441705
O24	O	0.311216	1.048763	0.058295
O25	O	-0.243922	0.621586	-0.741069
O26	O	0.256078	1.121586	-0.241069
O27	O	-0.243946	0.548735	-0.570719
O28	O	0.256054	1.048735	-0.070719
O29	O	-0.188741	0.676813	-0.741126
O30	O	0.311259	1.176813	-0.241126
O31	O	-0.316801	0.676674	-0.441672
O32	O	0.183199	1.176674	0.058328
O33	O	-0.316779	0.621507	-0.570701
O34	O	0.183221	1.121507	-0.070701
C35	C	-0.216365	0.532448	-0.506206
C36	C	0.283635	1.032448	-0.006206
C37	C	-0.216374	0.482514	-0.506212
C38	C	0.283626	0.982514	-0.006212
C39	C	-0.333091	0.649090	-0.506199
C40	C	0.166909	1.149090	-0.006199
C41	C	-0.383026	0.649096	-0.506212
C42	C	0.116974	1.149096	-0.006212
C43	C	-0.187668	0.172899	-0.573565
C44	C	0.312332	0.672899	-0.073565
C45	C	-0.187671	-0.014775	-0.573595
C46	C	0.312329	0.485225	-0.073595
O47	O	-0.163254	-0.039015	-0.630811
O48	O	0.336746	0.460985	-0.130811
N49	N	-0.216369	-0.038271	-0.506289
N50	N	0.283631	0.461729	-0.006289
C51	C	-0.245066	-0.014847	-0.438967
C52	C	0.254934	0.485153	0.061033
O53	O	-0.269472	-0.039139	-0.381713
O54	O	0.230528	0.460861	0.118287
C55	C	-0.245061	0.172825	-0.438933
C56	C	0.254939	0.672825	0.061067
C57	C	-0.216364	0.196320	-0.506250
C58	C	0.283636	0.696320	-0.006250
C59	C	-0.158973	0.196393	-0.640876
C60	C	0.341027	0.696393	-0.140876
C61	C	-0.158975	0.243309	-0.640871
C62	C	0.341025	0.743309	-0.140871
C63	C	-0.187670	0.266729	-0.573557
C64	C	0.312330	0.766729	-0.073557
C65	C	-0.216365	0.243235	-0.506246
C66	C	0.283635	0.743235	-0.006246
C67	C	-0.273755	0.196248	-0.371606
C68	C	0.226245	0.696248	0.128394
C69	C	-0.273750	0.243169	-0.371601
C70	C	0.226250	0.743169	0.128399
C71	C	-0.245054	0.266664	-0.438919
C72	C	0.254946	0.766664	0.061081
C73	C	-0.245062	0.313571	-0.438927
C74	C	0.254938	0.813571	0.061073
N75	N	-0.216364	0.337068	-0.506232
N76	N	0.283636	0.837068	-0.006232
C77	C	-0.187668	0.313647	-0.573547
C78	C	0.312332	0.813647	-0.073547
C79	C	-0.245068	-0.113378	-0.438991
C80	C	0.254932	0.386622	0.061009
C81	C	-0.245070	-0.160296	-0.439001
C82	C	0.254930	0.339704	0.060999
C83	C	-0.187674	-0.160220	-0.573628
C84	C	0.312326	0.339780	-0.073628
C85	C	-0.187675	-0.113301	-0.573622
C86	C	0.312325	0.386699	-0.073622
C87	C	-0.216370	-0.089881	-0.506297
C88	C	0.283630	0.410119	-0.006297
C89	C	-0.187673	0.412173	-0.573534
C90	C	0.312327	0.912173	-0.073534
C91	C	-0.187679	0.459093	-0.573527
C92	C	0.312321	0.959093	-0.073527
C93	C	-0.245073	0.459013	-0.438897
C94	C	0.254927	0.959013	0.061103
C95	C	-0.245069	0.412097	-0.438907
C96	C	0.254931	0.912097	0.061093
C97	C	-0.216366	0.388679	-0.506229
C98	C	0.283634	0.888679	-0.006229
O99	O	-0.269463	0.337841	-0.381732
O100	O	0.230537	0.837841	0.118268
O101	O	-0.163259	0.337947	-0.630776
O102	O	0.336741	0.837947	-0.130776
C103	C	-0.187667	0.125983	-0.573569
C104	C	0.312333	0.625983	-0.073569
C105	C	-0.216361	0.102489	-0.506258
C106	C	0.283639	0.602489	-0.006258
C107	C	-0.245057	0.125910	-0.438943
C108	C	0.254943	0.625910	0.061057
C109	C	-0.216363	0.055571	-0.506268
C110	C	0.283637	0.555571	-0.006268
C111	C	-0.187668	0.032150	-0.573583
C112	C	0.312332	0.532150	-0.073583
C113	C	-0.158970	0.055647	-0.640888
C114	C	0.341030	0.555647	-0.140888
C115	C	-0.158971	0.102562	-0.640884
C116	C	0.341029	0.602562	-0.140884
C117	C	-0.273755	0.102413	-0.371638
C118	C	0.226245	0.602413	0.128362
C119	C	-0.273752	0.055497	-0.371648
C120	C	0.226248	0.555497	0.128352
C121	C	-0.245056	0.032076	-0.438963
C122	C	0.254944	0.532076	0.061037
C123	C	-0.692668	0.677948	-0.439164
C124	C	-0.192668	1.177948	0.060836
C125	C	-0.880341	0.678004	-0.439205
C126	C	-0.380341	1.178004	0.060795
O127	O	-0.904605	0.702471	-0.382158
O128	O	-0.404605	1.202471	0.117842
N129	N	-0.903811	0.649264	-0.506330
N130	N	-0.403811	1.149264	-0.006330
C131	C	-0.880359	0.620510	-0.573455
C132	C	-0.380359	1.120510	-0.073455
O133	O	-0.904628	0.596070	-0.630558
O134	O	-0.404628	1.096070	-0.130558
C135	C	-0.692687	0.620457	-0.573419
C136	C	-0.192687	1.120457	-0.073419
C137	C	-0.669220	0.649196	-0.506281
C138	C	-0.169220	1.149196	-0.006281
C139	C	-0.669200	0.706685	-0.372033
C140	C	-0.169200	1.206685	0.127967
C141	C	-0.622285	0.706669	-0.372019
C142	C	-0.122285	1.206669	0.127981
C143	C	-0.598837	0.677916	-0.439137
C144	C	-0.098837	1.177916	0.060863
C145	C	-0.622304	0.649180	-0.506268
C146	C	-0.122304	1.149180	-0.006268
C147	C	-0.669237	0.591706	-0.640548
C148	C	-0.169237	1.091706	-0.140548
C149	C	-0.622316	0.591696	-0.640535
C150	C	-0.122316	1.091696	-0.140535
C151	C	-0.598848	0.620435	-0.573398
C152	C	-0.098848	1.120435	-0.073398
C153	C	-0.551941	0.620412	-0.573372
C154	C	-0.051941	1.120412	-0.073372
N155	N	-0.528471	0.649151	-0.506246
N156	N	-0.028471	1.149151	-0.006246
C157	C	-0.551919	0.677904	-0.439129
C158	C	-0.051919	1.177904	0.060871
C159	C	-0.978890	0.620539	-0.573468
C160	C	-0.478890	1.120539	-0.073468
C161	C	-1.025808	0.620552	-0.573476
C162	C	-0.525808	1.120552	-0.073476
C163	C	-1.025786	0.678046	-0.439227
C164	C	-0.525786	1.178046	0.060773
C165	C	-0.978867	0.678031	-0.439214
C166	C	-0.478867	1.178031	0.060786
C167	C	-0.955420	0.649279	-0.506342
C168	C	-0.455420	1.149279	-0.006342
C169	C	-0.453393	0.677868	-0.439105
C170	C	0.046607	1.177868	0.060895
C171	C	-0.406474	0.677848	-0.439094
C172	C	0.093526	1.177848	0.060906
C173	C	-0.406499	0.620356	-0.573347
C174	C	0.093501	1.120356	-0.073347
C175	C	-0.453415	0.620374	-0.573354
C176	C	0.046585	1.120374	-0.073354
C177	C	-0.476861	0.649134	-0.506230
C178	C	0.023139	1.149134	-0.006230
O179	O	-0.527648	0.595961	-0.630397
O180	O	-0.027648	1.095961	-0.130397
O181	O	-0.527642	0.702348	-0.382051
O182	O	-0.027642	1.202348	0.117949
C183	C	-0.739583	0.677964	-0.439178
C184	C	-0.239583	1.177964	0.060822
C185	C	-0.763051	0.649228	-0.506309
C186	C	-0.263051	1.149228	-0.006309
C187	C	-0.739603	0.620475	-0.573426
C188	C	-0.239603	1.120475	-0.073426
C189	C	-0.809968	0.649240	-0.506317
C190	C	-0.309968	1.149240	-0.006317
C191	C	-0.833417	0.677993	-0.439199
C192	C	-0.333417	1.177993	0.060801
C193	C	-0.809947	0.706732	-0.372074
C194	C	-0.309947	1.206732	0.127926
C195	C	-0.763031	0.706717	-0.372060
C196	C	-0.263031	1.206717	0.127940
C197	C	-0.763072	0.591735	-0.640552
C198	C	-0.263072	1.091735	-0.140552
C199	C	-0.809988	0.591753	-0.640559
C200	C	-0.309988	1.091753	-0.140559
C201	C	-0.833436	0.620506	-0.573441
C202	C	-0.333436	1.120506	-0.073441
C203	C	-0.099190	0.649264	-0.506326
C204	C	0.400810	1.149264	-0.006326
C205	C	-0.049256	0.649304	-0.506358
C206	C	0.450744	1.149304	-0.006358
C207	C	-0.216325	0.649204	-0.780284
C208	C	0.283675	1.149204	-0.280284
C209	C	-0.216307	0.649219	-0.897061
C210	C	0.283693	1.149219	-0.397061
C211	C	-0.216372	0.766349	-0.506297
C212	C	0.283628	1.266349	-0.006297
C213	C	-0.216374	0.816283	-0.506316
C214	C	0.283626	1.316283	-0.006316
C215	C	-0.187570	0.677977	-0.951954
C216	C	0.312430	1.177977	-0.451954
C217	C	-0.187550	0.677985	-1.061679
C218	C	0.312450	1.177985	-0.561679
C219	C	-0.245009	0.620474	-1.061606
C220	C	0.254991	1.120474	-0.561606
C221	C	-0.245026	0.620464	-0.951884
C222	C	0.254974	1.120464	-0.451884
C223	C	-0.134546	0.694093	-1.211674
C224	C	0.365454	1.194093	-0.711674
C225	C	-0.105812	0.722859	-1.266571
C226	C	0.394188	1.222859	-0.766571
C227	C	-0.098923	0.766697	-1.230990
C228	C	0.401077	1.266697	-0.730990
C229	C	-0.120773	0.781778	-1.140514
C230	C	0.379227	1.281778	-0.640514
C231	C	-0.149509	0.753015	-1.085623
C232	C	0.350491	1.253015	-0.585623
C233	C	-0.156390	0.709171	-1.121202
C234	C	0.343610	1.209171	-0.621202
C235	C	-0.298032	0.604361	-0.801887
C236	C	0.201968	1.104361	-0.301887
C237	C	-0.326771	0.575600	-0.746994
C238	C	0.173229	1.075600	-0.246994
C239	C	-0.333665	0.531761	-0.782572
C240	C	0.166335	1.031761	-0.282572
C241	C	-0.311823	0.516681	-0.873052
C242	C	0.188177	1.016681	-0.373052
C243	C	-0.283084	0.545442	-0.927945
C244	C	0.216916	1.045442	-0.427945
C245	C	-0.276189	0.589281	-0.892359
C246	C	0.223811	1.089281	-0.392359
C247	C	-0.216379	0.649163	-0.233284
C248	C	0.283621	1.149163	0.266716
C249	C	-0.216271	0.649236	-0.116507
C250	C	0.283729	1.149236	0.383493
H251	H	-0.164310	0.478220	-0.628348
H252	H	0.335690	0.978220	-0.128348
H253	H	-0.167301	0.765295	-1.011962
H254	H	0.332699	1.265295	-0.511962
H255	H	-0.603181	0.730071	-0.317354
H256	H	-0.103181	1.230071	0.182646
H257	H	-0.115164	0.817478	-1.111557
H258	H	0.384836	1.317478	-0.611557
H259	H	-0.135606	0.262434	-0.695686
H260	H	0.364394	0.762434	-0.195686
F261	F	-0.157124	0.387256	-0.645185
F262	F	0.342876	0.887256	-0.145185
F263	F	-0.953941	0.589935	-0.644919
F264	F	-0.453941	1.089935	-0.144919
H265	H	-0.268437	0.478091	-0.384093
H266	H	0.231563	0.978091	0.115907
F267	F	-0.275623	0.387092	-0.367288
F268	F	0.224377	0.887092	0.132712
F269	F	-0.259837	0.529391	-1.024242
F270	F	0.240163	1.029391	-0.524242
H271	H	-0.743928	0.730118	-0.317391
H272	H	-0.243928	1.230118	0.182609
F273	F	-0.128428	0.171474	-0.712527
F274	F	0.371572	0.671474	-0.212527
H275	H	-0.829046	0.730142	-0.317421
H276	H	-0.329046	1.230142	0.182579
F277	F	-0.082559	0.706806	-1.362859
F278	F	0.417441	1.206806	-0.862859
F279	F	-0.381501	0.708437	-0.367634
F280	F	0.118499	1.208437	0.132366
F281	F	-0.128428	0.127561	-0.712533
F282	F	0.371572	0.627561	-0.212533
H283	H	-0.164306	-0.094175	-0.628436
H284	H	0.335694	0.405825	-0.128436
H285	H	-0.297117	0.262236	-0.316774
H286	H	0.202883	0.762236	0.183226
F287	F	-0.275574	0.589875	-1.119962
F288	F	0.224426	1.089875	-0.619962
F289	F	-0.068343	0.797311	-1.289421
F290	F	0.431657	1.297311	-0.789421
H291	H	-0.164309	-0.179297	-0.628439
H292	H	0.335691	0.320703	-0.128439
H293	H	-0.268443	-0.179421	-0.384197
H294	H	0.231557	0.320579	0.115803
H295	H	-0.268436	-0.094313	-0.384164
H296	H	0.231564	0.405687	0.115836
H297	H	-0.135606	0.036569	-0.695701
H298	H	0.364394	0.536569	-0.195701
F299	F	-0.834958	0.561162	-0.712018
F300	F	-0.334958	1.061162	-0.212018
F301	F	-0.350021	0.591652	-0.650703
F302	F	0.149979	1.091652	-0.150703
F303	F	-0.141871	0.647432	-1.249540
F304	F	0.358129	1.147432	-0.749540
F305	F	-1.050778	0.589959	-0.644921
F306	F	-0.550778	1.089959	-0.144921
H307	H	-0.743985	0.568322	-0.695208
H308	H	-0.243985	1.068322	-0.195208
F309	F	-0.290684	0.651016	-0.763995
F310	F	0.209316	1.151016	-0.263995
H311	H	-0.688287	0.730101	-0.317377
H312	H	-0.188287	1.230101	0.182623
F313	F	-0.304295	0.127333	-0.299979
F314	F	0.195705	0.627333	0.200021
F315	F	-0.319161	0.470022	-0.910923
F316	F	0.180839	0.970022	-0.410923
F317	F	-0.953896	0.708618	-0.367759
F318	F	-0.453896	1.208618	0.132241
F319	F	-0.478339	0.708477	-0.367663
F320	F	0.021661	1.208477	0.132337
F321	F	-0.304297	0.030498	-0.299995
F322	F	0.195703	0.530498	0.200005
F323	F	-0.694202	0.561122	-0.712015
F324	F	-0.194202	1.061122	-0.212015
F325	F	-0.597364	0.561095	-0.711987
F326	F	-0.097364	1.061095	-0.211987
F327	F	-0.478391	0.589779	-0.644789
F328	F	0.021609	1.089779	-0.144789
H329	H	-0.357071	0.508345	-0.737873
H330	H	0.142929	1.008345	-0.237873
F331	F	-0.157003	0.708579	-0.893611
F332	F	0.342997	1.208579	-0.393611
H333	H	-0.297123	0.177127	-0.316788
H334	H	0.202877	0.677127	0.183212
H335	H	-1.044885	0.701458	-0.384577
H336	H	-0.544885	1.201458	0.115423
H337	H	-0.387401	0.596945	-0.627990
H338	H	0.112599	1.096945	-0.127990
