data_functionalizedCrystal
_audit_creation_method	'MofGen! by Chris Wilmer'
_symmetry_space_group_name_H-M	'P1'
_symmetry_Int_Tables_number	1
_symmetry_cell_setting	triclinic
loop_
_symmetry_equiv_pos_as_xyz
  x,y,z
_cell_length_a	18.101398
_cell_length_b	18.101395
_cell_length_c	16.120256
_cell_angle_alpha	92.871553
_cell_angle_beta	92.873216
_cell_angle_gamma	90.027218
loop_
_atom_site_label
_atom_site_type_symbol
_atom_site_fract_x
_atom_site_fract_y
_atom_site_fract_z
Zn1	Zn	1.110881	-0.316190	-0.471491
Zn2	Zn	1.610881	0.183810	0.028509
Zn3	Zn	1.117054	-0.433750	-0.332076
Zn4	Zn	1.617054	0.066250	0.167924
Zn5	Zn	0.993319	-0.309917	-0.332082
Zn6	Zn	1.493319	0.190083	0.167918
Zn7	Zn	0.986992	-0.439981	-0.471429
Zn8	Zn	1.486992	0.060019	0.028571
O9	O	1.052062	-0.374960	-0.401770
O10	O	1.552062	0.125040	0.098230
O11	O	1.215332	-0.331802	-0.453021
O12	O	1.715332	0.168198	0.046979
O13	O	1.105872	-0.412091	-0.215415
O14	O	1.605872	0.087909	0.284585
O15	O	1.008978	-0.207118	-0.350604
O16	O	1.508978	0.292882	0.149396
O17	O	1.219867	-0.418173	-0.350594
O18	O	1.719867	0.081827	0.149406
O19	O	1.095351	-0.211726	-0.453027
O20	O	1.595351	0.288274	0.046973
O21	O	1.014964	-0.321111	-0.215419
O22	O	1.514964	0.178889	0.284581
O23	O	0.888848	-0.327153	-0.350543
O24	O	1.388848	0.172847	0.149457
O25	O	0.998195	-0.428793	-0.588100
O26	O	1.498195	0.071207	-0.088100
O27	O	0.884200	-0.422710	-0.452920
O28	O	1.384200	0.077290	0.047080
O29	O	1.089216	-0.337844	-0.588146
O30	O	1.589216	0.162156	-0.088146
O31	O	1.099737	-0.538208	-0.350533
O32	O	1.599737	-0.038208	0.149467
O33	O	1.004181	-0.542786	-0.452915
O34	O	1.504181	-0.042786	0.047085
C35	C	0.859653	-0.374928	-0.401726
C36	C	1.359653	0.125072	0.098274
C37	C	0.777339	-0.374933	-0.401727
C38	C	1.277339	0.125067	0.098273
C39	C	0.478245	-0.374982	-0.401797
C40	C	0.978245	0.125018	0.098203
C41	C	0.512456	-0.314588	-0.337699
C42	C	1.012456	0.185412	0.162301
C43	C	0.598086	-0.314730	-0.337425
C44	C	1.098086	0.185270	0.162575
C45	C	0.626629	-0.374957	-0.401763
C46	C	1.126629	0.125043	0.098237
C47	C	0.596591	-0.451886	-0.377755
C48	C	1.096591	0.048114	0.122245
C49	C	0.510966	-0.451546	-0.377309
C50	C	1.010966	0.048454	0.122691
C51	C	0.505885	-0.359132	-0.490054
C52	C	1.005885	0.140868	0.009946
C53	C	0.591557	-0.357373	-0.489573
C54	C	1.091557	0.142627	0.010427
C55	C	0.710489	-0.374947	-0.401744
C56	C	1.210489	0.125053	0.098256
C57	C	0.394385	-0.374996	-0.401814
C58	C	0.894385	0.125004	0.098186
C59	C	1.051961	-0.567369	-0.401734
C60	C	1.551961	-0.067369	0.098266
C61	C	1.051985	-0.649683	-0.401747
C62	C	1.551985	-0.149683	0.098253
C63	C	1.052069	-0.800393	-0.401780
C64	C	1.552069	-0.300393	0.098220
C65	C	0.991920	-0.834656	-0.466147
C66	C	1.491920	-0.334656	0.033853
C67	C	0.992124	-0.920286	-0.466418
C68	C	1.492124	-0.420286	0.033582
C69	C	1.052149	-0.948777	-0.401813
C70	C	1.552149	-0.448777	0.098187
C71	C	1.129160	-0.918667	-0.425457
C72	C	1.629160	-0.418667	0.074543
C73	C	1.128760	-0.833042	-0.425905
C74	C	1.628760	-0.333042	0.074095
C75	C	1.035914	-0.828053	-0.313616
C76	C	1.535914	-0.328053	0.186384
C77	C	1.034218	-0.913727	-0.314105
C78	C	1.534218	-0.413727	0.185895
C79	C	1.052200	-1.032637	-0.401830
C80	C	1.552200	-0.532637	0.098170
C81	C	1.052023	-0.716533	-0.401765
C82	C	1.552023	-0.216533	0.098235
C83	C	1.245222	-0.374992	-0.401814
C84	C	1.745222	0.125008	0.098186
C85	C	1.327535	-0.375006	-0.401833
C86	C	1.827535	0.124994	0.098167
C87	C	1.042311	-0.384713	-0.619218
C88	C	1.542311	0.115287	-0.119218
C89	C	1.038156	-0.388870	-0.711881
C90	C	1.538156	0.111130	-0.211881
C91	C	1.052182	-0.181800	-0.401823
C92	C	1.552182	0.318200	0.098177
C93	C	1.052233	-0.099487	-0.401846
C94	C	1.552233	0.400513	0.098154
C95	C	1.073729	-0.353266	-0.922848
C96	C	1.573729	0.146734	-0.422848
C97	C	1.030545	-0.396427	-0.881533
C98	C	1.530545	0.103573	-0.381533
C99	C	1.034781	-0.392221	-0.787130
C100	C	1.534781	0.107779	-0.287130
C101	C	1.069494	-0.357471	-1.017259
C102	C	1.569494	0.142529	-0.517259
C103	C	1.061817	-0.365191	-0.185168
C104	C	1.561817	0.134809	0.314832
C105	C	1.066116	-0.360826	-0.092505
C106	C	1.566116	0.139174	0.407495
H107	H	0.614918	-0.497918	-0.422980
H108	H	1.114918	0.002082	0.077020
H109	H	0.980900	-0.805544	-0.292046
H110	H	1.480900	-0.305544	0.207954
C111	C	1.127975	-0.299089	-0.874859
C112	C	1.627975	0.200911	-0.374859
H113	H	1.123745	-0.303343	-0.816786
H114	H	1.623745	0.196657	-0.316786
H115	H	1.116553	-0.249947	-0.889070
H116	H	1.616553	0.250053	-0.389070
H117	H	1.177101	-0.310569	-0.889098
H118	H	1.677101	0.189431	-0.389098
C119	C	1.095152	-0.797725	-0.248831
C120	C	1.595152	-0.297725	0.251169
H121	H	1.129565	-0.768347	-0.275337
H122	H	1.629565	-0.268347	0.224663
H123	H	1.120295	-0.837777	-0.224130
H124	H	1.620295	-0.337777	0.275870
H125	H	1.072137	-0.768323	-0.207066
H126	H	1.572137	-0.268323	0.292934
H127	H	1.143642	-0.942938	-0.489200
H128	H	1.643642	-0.442938	0.010800
C129	C	0.487306	-0.328134	-0.249865
C130	C	0.987306	0.171866	0.250135
H131	H	0.456049	-0.370436	-0.252087
H132	H	0.956049	0.129564	0.247913
H133	H	0.460977	-0.286200	-0.229477
H134	H	0.960977	0.213800	0.270523
H135	H	0.529384	-0.336139	-0.213845
H136	H	1.029384	0.163861	0.286155
C137	C	0.629702	-0.328447	-0.249079
C138	C	1.129702	0.171553	0.250921
H139	H	0.590200	-0.333964	-0.213219
H140	H	1.090200	0.166036	0.286781
H141	H	0.659738	-0.287646	-0.229184
H142	H	1.159738	0.212354	0.270816
H143	H	0.658663	-0.372207	-0.250328
H144	H	1.158663	0.127793	0.249672
H145	H	0.990388	-0.436534	-0.917061
H146	H	1.490388	0.063466	-0.417061
H147	H	0.491216	-0.257234	-0.352582
H148	H	0.991216	0.242766	0.147418
C149	C	0.625601	-0.237495	-0.357735
C150	C	1.125601	0.262505	0.142265
H151	H	0.584425	-0.205749	-0.366225
H152	H	1.084425	0.294251	0.133775
H153	H	0.652675	-0.241308	-0.406740
H154	H	1.152675	0.258692	0.093260
H155	H	0.656667	-0.217771	-0.312753
H156	H	1.156667	0.282229	0.187247
H157	H	0.493860	-0.465454	-0.312789
H158	H	0.993860	0.034546	0.187211
C159	C	0.480247	-0.514046	-0.437700
C160	C	0.980247	-0.014046	0.062300
H161	H	0.520106	-0.539541	-0.462383
H162	H	1.020106	-0.039541	0.037617
H163	H	0.449239	-0.493542	-0.479880
H164	H	0.949239	0.006458	0.020120
H165	H	0.452455	-0.547606	-0.408105
H166	H	0.952455	-0.047606	0.091895
C167	C	0.475421	-0.284953	-0.519547
C168	C	0.975421	0.215047	-0.019547
H169	H	0.492757	-0.276447	-0.572914
H170	H	0.992757	0.223553	-0.072914
H171	H	0.491813	-0.246063	-0.481264
H172	H	0.991813	0.253937	0.018736
H173	H	0.422894	-0.286590	-0.522666
H174	H	0.922894	0.213410	-0.022666
C175	C	0.629392	-0.471110	-0.291532
C176	C	1.129392	0.028890	0.208468
H177	H	0.661389	-0.432359	-0.270049
H178	H	1.161389	0.067641	0.229951
H179	H	0.656517	-0.515897	-0.296412
H180	H	1.156517	-0.015897	0.203588
H181	H	0.590501	-0.476916	-0.254934
H182	H	1.090501	0.023084	0.245066
H183	H	0.611087	-0.300781	-0.507675
H184	H	1.111087	0.199219	-0.007675
C185	C	0.617396	-0.412902	-0.557548
C186	C	1.117396	0.087098	-0.057548
H187	H	0.650053	-0.447695	-0.533156
H188	H	1.150053	0.052305	-0.033156
H189	H	0.642358	-0.387175	-0.597836
H190	H	1.142358	0.112825	-0.097836
H191	H	0.575708	-0.438113	-0.583578
H192	H	1.075708	0.061887	-0.083578
C193	C	0.475612	-0.418616	-0.554576
C194	C	0.975612	0.081384	-0.054576
H195	H	0.446268	-0.452948	-0.527903
H196	H	0.946268	0.047052	-0.027903
H197	H	0.515688	-0.443813	-0.579160
H198	H	1.015688	0.056187	-0.079160
H199	H	0.446186	-0.395783	-0.596459
H200	H	0.946186	0.104217	-0.096459
H201	H	0.934902	-0.940703	-0.451639
H202	H	1.434902	-0.440703	0.048361
C203	C	0.914329	-0.806032	-0.446418
C204	C	1.414329	-0.306032	0.053582
H205	H	0.917918	-0.772925	-0.398753
H206	H	1.417918	-0.272925	0.101247
H207	H	0.883413	-0.846571	-0.435847
H208	H	1.383413	-0.346571	0.064153
H209	H	0.893790	-0.780923	-0.492482
H210	H	1.393790	-0.280923	0.007518
C211	C	1.005764	-0.809481	-0.553897
C212	C	1.505764	-0.309481	-0.053897
H213	H	1.048043	-0.778183	-0.551478
H214	H	1.548043	-0.278183	-0.051478
H215	H	0.963875	-0.783189	-0.574469
H216	H	1.463875	-0.283189	-0.074469
H217	H	1.013932	-0.851545	-0.589878
H218	H	1.513932	-0.351545	-0.089878
H219	H	1.002566	-0.943671	-0.531747
H220	H	1.502566	-0.443671	-0.031747
H221	H	1.142893	-0.815919	-0.490347
H222	H	1.642893	-0.315919	0.009653
H223	H	1.174903	-0.810269	-0.381052
H224	H	1.674903	-0.310269	0.118948
C225	C	1.191156	-0.943369	-0.364089
C226	C	1.691156	-0.443369	0.135911
H227	H	1.170575	-0.972338	-0.323409
H228	H	1.670575	-0.472338	0.176591
H229	H	1.214847	-0.901041	-0.337558
H230	H	1.714847	-0.401041	0.162442
H231	H	1.226287	-0.971982	-0.393444
H232	H	1.726287	-0.471982	0.106556
C233	C	0.957745	-0.940290	-0.289937
C234	C	1.457745	-0.440290	0.210063
H235	H	0.936821	-0.972597	-0.333119
H236	H	1.436821	-0.472597	0.166881
H237	H	0.926244	-0.898870	-0.281836
H238	H	1.426244	-0.398870	0.218164
H239	H	0.963012	-0.965840	-0.239931
H240	H	1.463012	-0.465840	0.260069
H241	H	1.075151	-0.932837	-0.263604
H242	H	1.575151	-0.432837	0.236396
