data_functionalizedCrystal
_audit_creation_method	'MofGen! by Chris Wilmer'
_symmetry_space_group_name_H-M	'P1'
_symmetry_Int_Tables_number	1
_symmetry_cell_setting	triclinic
loop_
_symmetry_equiv_pos_as_xyz
  x,y,z
_cell_length_a	25.639239
_cell_length_b	25.639242
_cell_length_c	25.639233
_cell_angle_alpha	90.023283
_cell_angle_beta	89.981253
_cell_angle_gamma	89.966656
loop_
_atom_site_label
_atom_site_type_symbol
_atom_site_fract_x
_atom_site_fract_y
_atom_site_fract_z
Zn1	Zn	-0.208289	-0.799225	-0.295758
Zn2	Zn	0.125044	-0.465892	0.037576
Zn3	Zn	0.458378	-0.132558	0.370909
Zn4	Zn	-0.295708	-0.799149	-0.208322
Zn5	Zn	0.037626	-0.465815	0.125011
Zn6	Zn	0.370959	-0.132482	0.458345
Zn7	Zn	-0.208280	-0.711801	-0.208320
Zn8	Zn	0.125053	-0.378468	0.125013
Zn9	Zn	0.458387	-0.045135	0.458346
Zn10	Zn	-0.295687	-0.711746	-0.295710
Zn11	Zn	0.037646	-0.378413	0.037623
Zn12	Zn	0.370980	-0.045080	0.370956
O13	O	-0.251991	-0.755480	-0.252028
O14	O	0.081342	-0.422147	0.081306
O15	O	0.414676	-0.088814	0.414639
O16	O	-0.219898	-0.872380	-0.284180
O17	O	0.113436	-0.539047	0.049153
O18	O	0.446769	-0.205713	0.382487
O19	O	-0.284115	-0.787553	-0.135157
O20	O	0.049218	-0.454219	0.198177
O21	O	0.382552	-0.120886	0.531510
O22	O	-0.135116	-0.723453	-0.219938
O23	O	0.198217	-0.390120	0.113395
O24	O	0.531551	-0.056787	0.446729
O25	O	-0.284124	-0.872324	-0.219941
O26	O	0.049210	-0.538991	0.113392
O27	O	0.382543	-0.205657	0.446725
O28	O	-0.135122	-0.787683	-0.284178
O29	O	0.198211	-0.454350	0.049155
O30	O	0.531544	-0.121016	0.382489
O31	O	-0.219882	-0.723379	-0.135155
O32	O	0.113451	-0.390046	0.198178
O33	O	0.446784	-0.056712	0.531511
O34	O	-0.219862	-0.638629	-0.219892
O35	O	0.113471	-0.305296	0.113441
O36	O	0.446804	0.028038	0.446775
O37	O	-0.284089	-0.723360	-0.368882
O38	O	0.049245	-0.390026	-0.035549
O39	O	0.382578	-0.056693	0.297785
O40	O	-0.284080	-0.638589	-0.284097
O41	O	0.049254	-0.305255	0.049236
O42	O	0.382587	0.028078	0.382569
O43	O	-0.219878	-0.787630	-0.368917
O44	O	0.113456	-0.454297	-0.035583
O45	O	0.446789	-0.120963	0.297750
O46	O	-0.368870	-0.787499	-0.219895
O47	O	-0.035537	-0.454166	0.113438
O48	O	0.297797	-0.120833	0.446771
O49	O	-0.368855	-0.723286	-0.284099
O50	O	-0.035522	-0.389952	0.049234
O51	O	0.297812	-0.056619	0.382568
C52	C	-0.251968	-0.619638	-0.251990
C53	C	0.081365	-0.286304	0.081344
C54	C	0.414698	0.047029	0.414677
C55	C	-0.251971	-0.561524	-0.251986
C56	C	0.081362	-0.228190	0.081348
C57	C	0.414696	0.105143	0.414681
C58	C	-0.218495	-0.310343	-0.218641
C59	C	0.114838	0.022991	0.114693
C60	C	0.448172	0.356324	0.448026
C61	C	-0.218490	-0.364947	-0.218636
C62	C	0.114843	-0.031614	0.114698
C63	C	0.448176	0.301720	0.448031
O64	O	-0.189998	-0.393194	-0.190262
O65	O	0.143335	-0.059861	0.143071
O66	O	0.476668	0.273473	0.476405
N67	N	-0.251977	-0.392250	-0.252007
N68	N	0.081356	-0.058917	0.081326
N69	N	0.414690	0.274417	0.414660
C70	C	-0.285466	-0.364946	-0.285389
C71	C	0.047867	-0.031612	0.047944
C72	C	0.381200	0.301721	0.381277
O73	O	-0.313948	-0.393183	-0.313774
O74	O	0.019385	-0.059850	0.019559
O75	O	0.352718	0.273484	0.352893
C76	C	-0.285468	-0.310342	-0.285397
C77	C	0.047865	0.022991	0.047937
C78	C	0.381199	0.356324	0.381270
C79	C	-0.251983	-0.283042	-0.252019
C80	C	0.081350	0.050291	0.081314
C81	C	0.414684	0.383624	0.414647
C82	C	-0.185013	-0.283042	-0.185266
C83	C	0.148321	0.050291	0.148067
C84	C	0.481654	0.383624	0.481400
C85	C	-0.185018	-0.228442	-0.185271
C86	C	0.148315	0.104892	0.148062
C87	C	0.481649	0.438225	0.481396
C88	C	-0.218506	-0.201141	-0.218650
C89	C	0.114827	0.132192	0.114684
C90	C	0.448161	0.465525	0.448017
C91	C	-0.251988	-0.228442	-0.252024
C92	C	0.081345	0.104892	0.081310
C93	C	0.414678	0.438225	0.414643
C94	C	-0.318954	-0.283039	-0.318781
C95	C	0.014379	0.050294	0.014552
C96	C	0.347712	0.383627	0.347886
C97	C	-0.318953	-0.228432	-0.318786
C98	C	0.014381	0.104901	0.014548
C99	C	0.347714	0.438234	0.347881
C100	C	-0.285468	-0.201132	-0.285409
C101	C	0.047865	0.132201	0.047925
C102	C	0.381199	0.465535	0.381258
C103	C	-0.285482	-0.146541	-0.285407
C104	C	0.047852	0.186792	0.047927
C105	C	0.381185	0.520126	0.381260
N106	N	-0.251995	-0.119238	-0.252035
N107	N	0.081338	0.214096	0.081298
N108	N	0.414671	0.547429	0.414631
C109	C	-0.218508	-0.146538	-0.218657
C110	C	0.114826	0.186795	0.114677
C111	C	0.448159	0.520129	0.448010
C112	C	-0.285460	-0.479616	-0.285372
C113	C	0.047874	-0.146283	0.047961
C114	C	0.381207	0.187050	0.381295
C115	C	-0.285461	-0.534219	-0.285363
C116	C	0.047872	-0.200885	0.047971
C117	C	0.381205	0.132448	0.381304
C118	C	-0.218485	-0.534216	-0.218609
C119	C	0.114849	-0.200883	0.114724
C120	C	0.448182	0.132451	0.448057
C121	C	-0.218486	-0.479613	-0.218617
C122	C	0.114847	-0.146279	0.114717
C123	C	0.448180	0.187054	0.448050
C124	C	-0.251973	-0.452313	-0.252001
C125	C	0.081360	-0.118980	0.081333
C126	C	0.414693	0.214353	0.414666
C127	C	-0.218522	-0.031873	-0.218668
C128	C	0.114812	0.301460	0.114665
C129	C	0.448145	0.634794	0.447998
C130	C	-0.218532	0.022732	-0.218674
C131	C	0.114802	0.356066	0.114659
C132	C	0.448135	0.689399	0.447992
C133	C	-0.285506	0.022725	-0.285429
C134	C	0.047827	0.356058	0.047904
C135	C	0.381161	0.689392	0.381238
C136	C	-0.285498	-0.031876	-0.285422
C137	C	0.047835	0.301458	0.047912
C138	C	0.381168	0.634791	0.381245
C139	C	-0.252002	-0.059173	-0.252039
C140	C	0.081331	0.274160	0.081294
C141	C	0.414665	0.607493	0.414627
O142	O	-0.313958	-0.118259	-0.313767
O143	O	0.019375	0.215074	0.019566
O144	O	0.352709	0.548408	0.352899
O145	O	-0.190025	-0.118294	-0.190282
O146	O	0.143308	0.215039	0.143052
O147	O	0.476641	0.548373	0.476385
C148	C	-0.387833	-0.755392	-0.252004
C149	C	-0.054500	-0.422059	0.081330
C150	C	0.278833	-0.088726	0.414663
C151	C	-0.445947	-0.755403	-0.252011
C152	C	-0.112614	-0.422069	0.081322
C153	C	0.220719	-0.088736	0.414656
C154	C	-0.806306	-0.789004	-0.218654
C155	C	-0.472973	-0.455670	0.114680
C156	C	-0.139639	-0.122337	0.448013
C157	C	-0.860910	-0.789024	-0.218661
C158	C	-0.527577	-0.455691	0.114673
C159	C	-0.194244	-0.122357	0.448006
O160	O	-0.889143	-0.817502	-0.190273
O161	O	-0.555810	-0.484168	0.143060
O162	O	-0.222476	-0.150835	0.476394
N163	N	-0.888230	-0.755572	-0.252062
N164	N	-0.554897	-0.422239	0.081271
N165	N	-0.221563	-0.088906	0.414604
C166	C	-0.860943	-0.722102	-0.285463
C167	C	-0.527609	-0.388768	0.047871
C168	C	-0.194276	-0.055435	0.381204
O169	O	-0.889194	-0.693651	-0.313874
O170	O	-0.555861	-0.360317	0.019459
O171	O	-0.222527	-0.026984	0.352792
C172	C	-0.806339	-0.722085	-0.285458
C173	C	-0.473006	-0.388751	0.047875
C174	C	-0.139673	-0.055418	0.381209
C175	C	-0.779022	-0.755535	-0.252051
C176	C	-0.445689	-0.422201	0.081283
C177	C	-0.112356	-0.088868	0.414616
C178	C	-0.778989	-0.822452	-0.185249
C179	C	-0.445656	-0.489118	0.148084
C180	C	-0.112322	-0.155785	0.481417
C181	C	-0.724388	-0.822431	-0.185242
C182	C	-0.391055	-0.489097	0.148092
C183	C	-0.057722	-0.155764	0.481425
C184	C	-0.697105	-0.788962	-0.218639
C185	C	-0.363771	-0.455628	0.114695
C186	C	-0.030438	-0.122295	0.448028
C187	C	-0.724422	-0.755514	-0.252043
C188	C	-0.391088	-0.422180	0.081290
C189	C	-0.057755	-0.088847	0.414624
C190	C	-0.779053	-0.688617	-0.318861
C191	C	-0.445719	-0.355284	0.014473
C192	C	-0.112386	-0.021950	0.347806
C193	C	-0.724446	-0.688603	-0.318853
C194	C	-0.391112	-0.355270	0.014480
C195	C	-0.057779	-0.021936	0.347813
C196	C	-0.697129	-0.722053	-0.285446
C197	C	-0.363796	-0.388720	0.047887
C198	C	-0.030462	-0.055387	0.381221
C199	C	-0.642538	-0.722024	-0.285432
C200	C	-0.309204	-0.388690	0.047901
C201	C	0.024129	-0.055357	0.381234
N202	N	-0.615218	-0.755475	-0.252031
N203	N	-0.281885	-0.422142	0.081303
N204	N	0.051449	-0.088809	0.414636
C205	C	-0.642501	-0.788944	-0.218634
C206	C	-0.309168	-0.455611	0.114699
C207	C	0.024165	-0.122278	0.448033
C208	C	-0.975613	-0.722141	-0.285471
C209	C	-0.642280	-0.388808	0.047862
C210	C	-0.308946	-0.055474	0.381196
C211	C	-1.030215	-0.722155	-0.285473
C212	C	-0.696882	-0.388822	0.047860
C213	C	-0.363549	-0.055489	0.381193
C214	C	-1.030179	-0.789078	-0.218672
C215	C	-0.696846	-0.455745	0.114661
C216	C	-0.363513	-0.122412	0.447995
C217	C	-0.975576	-0.789061	-0.218667
C218	C	-0.642243	-0.455728	0.114666
C219	C	-0.308909	-0.122395	0.448000
C220	C	-0.948293	-0.755593	-0.252069
C221	C	-0.614960	-0.422260	0.081264
C222	C	-0.281627	-0.088926	0.414597
C223	C	-0.527836	-0.788897	-0.218620
C224	C	-0.194503	-0.455564	0.114713
C225	C	0.138830	-0.122231	0.448046
C226	C	-0.473231	-0.788872	-0.218614
C227	C	-0.139898	-0.455538	0.114719
C228	C	0.193436	-0.122205	0.448053
C229	C	-0.473272	-0.721951	-0.285417
C230	C	-0.139939	-0.388617	0.047916
C231	C	0.193395	-0.055284	0.381249
C232	C	-0.527873	-0.721974	-0.285422
C233	C	-0.194539	-0.388641	0.047912
C234	C	0.138794	-0.055307	0.381245
C235	C	-0.555153	-0.755452	-0.252021
C236	C	-0.221820	-0.422118	0.081312
C237	C	0.111513	-0.088785	0.414645
O238	O	-0.614270	-0.693562	-0.313807
O239	O	-0.280937	-0.360229	0.019526
O240	O	0.052396	-0.026895	0.352860
O241	O	-0.614243	-0.817396	-0.190232
O242	O	-0.280910	-0.484062	0.143101
O243	O	0.052423	-0.150729	0.476435
C244	C	-0.115618	-0.755583	-0.252063
C245	C	0.217715	-0.422250	0.081270
C246	C	0.551049	-0.088916	0.414604
C247	C	-0.057504	-0.755627	-0.252078
C248	C	0.275830	-0.422293	0.081255
C249	C	0.609163	-0.088960	0.414588
C250	C	-0.251982	-0.755497	-0.388401
C251	C	0.081352	-0.422164	-0.055067
C252	C	0.414685	-0.088831	0.278266
C253	C	-0.251978	-0.755504	-0.446515
C254	C	0.081356	-0.422171	-0.113181
C255	C	0.414689	-0.088838	0.220152
C256	C	-0.252013	0.108147	-0.252059
C257	C	0.081320	0.441480	0.081275
C258	C	0.414654	0.774813	0.414608
C259	C	-0.252020	0.050033	-0.252053
C260	C	0.081314	0.383366	0.081280
C261	C	0.414647	0.716699	0.414614
C262	C	-0.218444	-0.789012	-0.806902
C263	C	0.114890	-0.455679	-0.473568
C264	C	0.448223	-0.122346	-0.140235
C265	C	-0.218429	-0.789019	-0.861506
C266	C	0.114904	-0.455685	-0.528173
C267	C	0.448237	-0.122352	-0.194839
O268	O	-0.189979	-0.817466	-0.889763
O269	O	0.143354	-0.484133	-0.556430
O270	O	0.476688	-0.150799	-0.223096
N271	N	-0.251855	-0.755562	-0.888797
N272	N	0.081478	-0.422229	-0.555464
N273	N	0.414811	-0.088895	-0.222131
C274	C	-0.285294	-0.722093	-0.861482
C275	C	0.048039	-0.388760	-0.528148
C276	C	0.381373	-0.055426	-0.194815
O277	O	-0.313724	-0.693636	-0.889709
O278	O	0.019610	-0.360302	-0.556376
O279	O	0.352943	-0.026969	-0.223042
C280	C	-0.285305	-0.722084	-0.806878
C281	C	0.048028	-0.388751	-0.473545
C282	C	0.381361	-0.055418	-0.140212
C283	C	-0.251881	-0.755547	-0.779590
C284	C	0.081452	-0.422214	-0.446256
C285	C	0.414786	-0.088880	-0.112923
C286	C	-0.185022	-0.822472	-0.779613
C287	C	0.148312	-0.489138	-0.446280
C288	C	0.481645	-0.155805	-0.112947
C289	C	-0.185037	-0.822466	-0.725013
C290	C	0.148296	-0.489133	-0.391679
C291	C	0.481630	-0.155799	-0.058346
C292	C	-0.218474	-0.789000	-0.697701
C293	C	0.114859	-0.455667	-0.364367
C294	C	0.448192	-0.122334	-0.031034
C295	C	-0.251896	-0.755541	-0.724989
C296	C	0.081437	-0.422208	-0.391656
C297	C	0.414770	-0.088874	-0.058323
C298	C	-0.318741	-0.688613	-0.779563
C299	C	0.014592	-0.355280	-0.446230
C300	C	0.347925	-0.021946	-0.112897
C301	C	-0.318749	-0.688607	-0.724956
C302	C	0.014584	-0.355273	-0.391623
C303	C	0.347917	-0.021940	-0.058290
C304	C	-0.285325	-0.722069	-0.697668
C305	C	0.048008	-0.388736	-0.364335
C306	C	0.381342	-0.055403	-0.031001
C307	C	-0.285349	-0.722070	-0.643077
C308	C	0.047984	-0.388736	-0.309743
C309	C	0.381318	-0.055403	0.023590
N310	N	-0.251923	-0.755526	-0.615785
N311	N	0.081410	-0.422193	-0.282452
N312	N	0.414744	-0.088860	0.050881
C313	C	-0.218486	-0.788992	-0.643097
C314	C	0.114848	-0.455658	-0.309764
C315	C	0.448181	-0.122325	0.023569
C316	C	-0.285267	-0.722113	-0.976152
C317	C	0.048067	-0.388780	-0.642819
C318	C	0.381400	-0.055446	-0.309486
C319	C	-0.285258	-0.722124	-1.030755
C320	C	0.048075	-0.388791	-0.697421
C321	C	0.381408	-0.055457	-0.364088
C322	C	-0.218393	-0.789049	-1.030775
C323	C	0.114940	-0.455716	-0.697442
C324	C	0.448274	-0.122383	-0.364109
C325	C	-0.218404	-0.789041	-0.976172
C326	C	0.114929	-0.455707	-0.642839
C327	C	0.448262	-0.122374	-0.309505
C328	C	-0.251841	-0.755570	-0.948861
C329	C	0.081492	-0.422237	-0.615528
C330	C	0.414826	-0.088903	-0.282194
C331	C	-0.218521	-0.788977	-0.528432
C332	C	0.114813	-0.455644	-0.195099
C333	C	0.448146	-0.122311	0.138235
C334	C	-0.218540	-0.788970	-0.473827
C335	C	0.114793	-0.455636	-0.140493
C336	C	0.448126	-0.122303	0.192840
C337	C	-0.285404	-0.722043	-0.473811
C338	C	0.047930	-0.388710	-0.140477
C339	C	0.381263	-0.055376	0.192856
C340	C	-0.285386	-0.722052	-0.528411
C341	C	0.047947	-0.388719	-0.195078
C342	C	0.381280	-0.055385	0.138255
C343	C	-0.251940	-0.755521	-0.555721
C344	C	0.081393	-0.422187	-0.222387
C345	C	0.414726	-0.088854	0.110946
O346	O	-0.313783	-0.693635	-0.614785
O347	O	0.019550	-0.360302	-0.281452
O348	O	0.352884	-0.026969	0.051882
O349	O	-0.190056	-0.817439	-0.614863
O350	O	0.143277	-0.484106	-0.281530
O351	O	0.476611	-0.150773	0.051803
C352	C	-0.251962	-0.755494	-0.116185
C353	C	0.081371	-0.422160	0.217148
C354	C	0.414704	-0.088827	0.550482
C355	C	-0.251819	-0.755588	-0.058071
C356	C	0.081514	-0.422254	0.275262
C357	C	0.414848	-0.088921	0.608595
H358	H	-0.191218	-0.457388	-0.191440
H359	H	0.142115	-0.124055	0.141894
H360	H	0.475449	0.209278	0.475227
Br361	Br	-0.173087	0.059779	-0.173372
Br362	Br	0.160247	0.393113	0.159961
Br363	Br	0.493580	0.726446	0.493295
H364	H	-0.312482	-0.694881	-1.052968
H365	H	0.020852	-0.361548	-0.719635
H366	H	0.354185	-0.028214	-0.386302
Br367	Br	-0.564947	-0.676565	-0.330748
Br368	Br	-0.231613	-0.343231	0.002585
Br369	Br	0.101720	-0.009898	0.335919
Br370	Br	-1.067282	-0.676749	-0.330806
Br371	Br	-0.733948	-0.343416	0.002527
Br372	Br	-0.400615	-0.010082	0.335860
H373	H	-0.345959	-0.661364	-0.801772
H374	H	-0.012625	-0.328031	-0.468439
H375	H	0.320708	0.005303	-0.135106
H376	H	-0.345973	-0.661345	-0.702723
H377	H	-0.012639	-0.328011	-0.369389
H378	H	0.320694	0.005322	-0.036056
Br379	Br	-0.330780	-0.676627	-0.436734
Br380	Br	0.002553	-0.343294	-0.103401
Br381	Br	0.335887	-0.009960	0.229933
H382	H	-0.801197	-0.849709	-0.158054
H383	H	-0.467864	-0.516376	0.175280
H384	H	-0.134531	-0.183042	0.508613
H385	H	-0.312608	-0.694809	-0.550631
H386	H	0.020725	-0.361475	-0.217298
H387	H	0.354059	-0.028142	0.116036
H388	H	-0.312773	0.044963	-0.312603
H389	H	0.020560	0.378296	0.020730
H390	H	0.353894	0.711629	0.354063
Br391	Br	-0.938592	-0.676712	-0.330803
Br392	Br	-0.605259	-0.343379	0.002530
Br393	Br	-0.271925	-0.010045	0.335863
Br394	Br	-0.173041	-0.834456	-0.939143
Br395	Br	0.160292	-0.501122	-0.605810
Br396	Br	0.493625	-0.167789	-0.272477
H397	H	-0.191243	-0.054092	-0.191488
H398	H	0.142090	0.279241	0.141845
H399	H	0.475423	0.612574	0.475179
Br400	Br	-0.139567	-0.191400	-0.139976
Br401	Br	0.193767	0.141933	0.193357
Br402	Br	0.527100	0.475267	0.526691
H403	H	-0.191216	-0.556454	-0.191432
H404	H	0.142118	-0.223120	0.141902
H405	H	0.475451	0.110213	0.475235
Br406	Br	-0.330916	-0.571262	-0.330653
Br407	Br	0.002417	-0.237929	0.002680
Br408	Br	0.335751	0.095404	0.336014
Br409	Br	-0.139556	-0.320082	-0.139962
Br410	Br	0.193777	0.013251	0.193371
Br411	Br	0.527110	0.346584	0.526704
H412	H	-0.312733	-0.457393	-0.312556
H413	H	0.020600	-0.124059	0.020777
H414	H	0.353933	0.209274	0.354110
Br415	Br	-0.938509	-0.834459	-0.173326
Br416	Br	-0.605175	-0.501126	0.160007
Br417	Br	-0.271842	-0.167792	0.493340
H418	H	-0.550042	-0.816159	-0.191424
H419	H	-0.216709	-0.482826	0.141910
H420	H	0.116625	-0.149492	0.475243
H421	H	-0.450991	-0.816111	-0.191408
H422	H	-0.117658	-0.482777	0.141925
H423	H	0.215675	-0.149444	0.475259
Br424	Br	-0.816112	-0.643223	-0.364208
Br425	Br	-0.482779	-0.309889	-0.030875
Br426	Br	-0.149445	0.023444	0.302459
H427	H	-1.052404	-0.816333	-0.191480
H428	H	-0.719070	-0.482999	0.141853
H429	H	-0.385737	-0.149666	0.475187
H430	H	-0.191284	-0.816229	-0.550661
H431	H	0.142049	-0.482896	-0.217328
H432	H	0.475382	-0.149562	0.116006
Br433	Br	-0.687324	-0.867838	-0.139908
Br434	Br	-0.353991	-0.534504	0.193425
Br435	Br	-0.020657	-0.201171	0.526758
H436	H	-0.191165	-0.816298	-1.053023
H437	H	0.142168	-0.482964	-0.719689
H438	H	0.475502	-0.149631	-0.386356
Br439	Br	-0.687422	-0.643181	-0.364190
Br440	Br	-0.354089	-0.309848	-0.030856
Br441	Br	-0.020756	0.023486	0.302477
H442	H	-0.346222	-0.305258	-0.345960
H443	H	-0.012888	0.028076	-0.012627
H444	H	0.320445	0.361409	0.320706
Br445	Br	-0.364400	-0.191386	-0.364098
Br446	Br	-0.031067	0.141947	-0.030764
Br447	Br	0.302267	0.475280	0.302569
H448	H	-0.451049	-0.694699	-0.312607
H449	H	-0.117716	-0.361366	0.020726
H450	H	0.215618	-0.028032	0.354060
H451	H	-0.191322	-0.816221	-0.451611
H452	H	0.142011	-0.482888	-0.118278
H453	H	0.475345	-0.149554	0.215056
Br454	Br	-0.330949	-0.068927	-0.330713
Br455	Br	0.002384	0.264406	0.002621
Br456	Br	0.335718	0.597739	0.335954
H457	H	-0.157818	-0.849714	-0.702799
H458	H	0.175515	-0.516380	-0.369466
H459	H	0.508848	-0.183047	-0.036132
H460	H	-0.157790	-0.849723	-0.801845
H461	H	0.175543	-0.516390	-0.468512
H462	H	0.508876	-0.183057	-0.135178
H463	H	-0.312498	-0.694857	-0.953919
H464	H	0.020836	-0.361523	-0.620586
H465	H	0.354169	-0.028190	-0.287252
