data_functionalizedCrystal
_audit_creation_method	'MofGen! by Chris Wilmer'
_symmetry_space_group_name_H-M	'P1'
_symmetry_Int_Tables_number	1
_symmetry_cell_setting	triclinic
loop_
_symmetry_equiv_pos_as_xyz
  x,y,z
_cell_length_a	16.109301
_cell_length_b	16.109304
_cell_length_c	14.586319
_cell_angle_alpha	89.999019
_cell_angle_beta	89.999213
_cell_angle_gamma	83.462059
loop_
_atom_site_label
_atom_site_type_symbol
_atom_site_fract_x
_atom_site_fract_y
_atom_site_fract_z
O1	O	1.103132	0.106866	-0.076177
O2	O	0.861070	0.120165	-0.076190
O3	O	0.988749	-0.007515	-0.076184
O4	O	0.975453	0.234546	-0.076183
O5	O	0.988741	-0.007517	0.076297
O6	O	0.861061	0.120163	0.076290
O7	O	1.103123	0.106864	0.076304
Cu8	Cu	0.982091	0.113514	0.090220
Cu9	Cu	0.982102	0.113516	-0.090106
O10	O	0.975444	0.234545	0.076297
C11	C	0.830091	0.119626	0.000048
C12	C	0.737795	0.118010	0.000043
C13	C	0.988206	-0.038491	0.000055
C14	C	0.986590	-0.130786	0.000048
C15	C	0.515524	0.190018	0.000053
C16	C	0.428803	0.188494	0.000059
C17	C	0.448676	0.037005	0.000055
C18	C	0.535395	0.038530	0.000056
C19	C	0.568816	0.115039	0.000050
C20	C	0.395377	0.111990	0.000055
C21	C	0.301351	0.110337	0.000062
C22	C	0.662848	0.116693	0.000046
C23	C	0.982861	-0.343123	-0.083066
C24	C	0.981335	-0.429843	-0.083065
C25	C	0.981330	-0.429842	0.083178
C26	C	0.982850	-0.343122	0.083176
C27	C	0.983620	-0.299766	0.000052
C28	C	0.980573	-0.473205	0.000054
C29	C	0.978919	-0.567231	0.000056
C30	C	0.985273	-0.205734	0.000050
C31	C	1.134102	0.107404	0.000064
C32	C	1.226398	0.109019	0.000063
C33	C	0.975987	0.265520	0.000057
C34	C	0.977603	0.357816	0.000057
N35	N	0.982090	0.113511	0.217052
N36	N	0.982110	0.113511	-0.216938
C37	C	1.038645	0.056993	0.452061
C38	C	1.038647	0.056991	0.548042
C39	C	0.925549	0.170032	0.548046
C40	C	0.925543	0.170029	0.452066
C41	C	0.982096	0.113511	0.404077
C42	C	0.982104	0.113512	0.596037
C43	C	0.982106	0.113510	0.700104
C44	C	0.982093	0.113512	0.300003
H45	H	0.542732	0.252316	0.000056
H46	H	0.578788	-0.022530	0.000056
H47	H	1.084693	0.010972	0.412990
H48	H	0.385416	0.249550	0.000064
Br49	Br	0.403313	-0.066823	0.000059
H50	H	1.084694	0.010969	0.587109
H51	H	0.983486	-0.307824	-0.150751
H52	H	0.983463	-0.307820	0.150864
Br53	Br	0.980301	-0.488681	-0.195872
Br54	Br	0.980282	-0.488688	0.195984
H55	H	0.879505	0.216049	0.587129
Br56	Br	0.848786	0.246731	0.386937
