data_functionalizedCrystal
_audit_creation_method	'MofGen! by Chris Wilmer'
_symmetry_space_group_name_H-M	'P1'
_symmetry_Int_Tables_number	1
_symmetry_cell_setting	triclinic
loop_
_symmetry_equiv_pos_as_xyz
  x,y,z
_cell_length_a	22.010155
_cell_length_b	23.532407
_cell_length_c	23.532407
_cell_angle_alpha	82.848678
_cell_angle_beta	90.000423
_cell_angle_gamma	90.003069
loop_
_atom_site_label
_atom_site_type_symbol
_atom_site_fract_x
_atom_site_fract_y
_atom_site_fract_z
O1	O	-0.050455	-0.755264	-0.069127
O2	O	0.199545	-0.505264	0.180873
O3	O	0.449545	-0.255264	0.430873
O4	O	0.699545	-0.005264	0.680873
O5	O	-0.050474	-0.589400	-0.079130
O6	O	0.199526	-0.339400	0.170870
O7	O	0.449526	-0.089400	0.420870
O8	O	0.699526	0.160600	0.670870
O9	O	-0.050453	-0.677334	0.008803
O10	O	0.199547	-0.427334	0.258803
O11	O	0.449547	-0.177334	0.508803
O12	O	0.699547	0.072666	0.758803
O13	O	-0.050476	-0.667330	-0.157060
O14	O	0.199524	-0.417330	0.092940
O15	O	0.449524	-0.167330	0.342940
O16	O	0.699524	0.082670	0.592940
O17	O	0.050597	-0.677318	0.008790
O18	O	0.300597	-0.427318	0.258790
O19	O	0.550597	-0.177318	0.508790
O20	O	0.800597	0.072682	0.758790
O21	O	0.050576	-0.589384	-0.079143
O22	O	0.300576	-0.339384	0.170857
O23	O	0.550576	-0.089384	0.420857
O24	O	0.800576	0.160616	0.670857
O25	O	0.050595	-0.755248	-0.069140
O26	O	0.300595	-0.505248	0.180860
O27	O	0.550595	-0.255248	0.430860
O28	O	0.800595	-0.005248	0.680860
Cu29	Cu	0.059812	-0.672315	-0.074143
Cu30	Cu	0.309812	-0.422315	0.175857
Cu31	Cu	0.559812	-0.172315	0.425857
Cu32	Cu	0.809812	0.077685	0.675857
Cu33	Cu	-0.059691	-0.672333	-0.074127
Cu34	Cu	0.190309	-0.422333	0.175873
Cu35	Cu	0.440309	-0.172333	0.425873
Cu36	Cu	0.690309	0.077667	0.675873
O37	O	0.050574	-0.667314	-0.157073
O38	O	0.300574	-0.417314	0.092927
O39	O	0.550574	-0.167314	0.342927
O40	O	0.800574	0.082686	0.592927
C41	C	0.000049	-0.568176	-0.078882
C42	C	0.250049	-0.318176	0.171118
C43	C	0.500049	-0.068176	0.421118
C44	C	0.750049	0.181824	0.671118
C45	C	0.000042	-0.504959	-0.078116
C46	C	0.250042	-0.254959	0.171884
C47	C	0.500042	-0.004959	0.421884
C48	C	0.750042	0.245041	0.671884
N49	N	0.143865	-0.672305	-0.074153
N50	N	0.393865	-0.422305	0.175847
N51	N	0.643865	-0.172305	0.425847
N52	N	0.893865	0.077695	0.675847
N53	N	-0.143744	-0.672347	-0.074112
N54	N	0.106256	-0.422347	0.175888
N55	N	0.356256	-0.172347	0.425888
N56	N	0.606256	0.077653	0.675888
C57	C	0.563653	-0.711273	-0.035196
C58	C	0.813653	-0.461273	0.214804
C59	C	1.063653	-0.211273	0.464804
C60	C	1.313653	0.038727	0.714804
C61	C	0.627261	-0.711275	-0.035192
C62	C	0.877261	-0.461275	0.214808
C63	C	1.127261	-0.211275	0.464808
C64	C	1.377261	0.038725	0.714808
O65	O	0.660160	-0.744384	-0.002076
O66	O	0.910160	-0.494384	0.247924
O67	O	1.160160	-0.244384	0.497924
O68	O	1.410160	0.005616	0.747924
N69	N	0.659072	-0.672333	-0.074115
N70	N	0.909072	-0.422333	0.175885
N71	N	1.159072	-0.172333	0.425885
N72	N	1.409072	0.077667	0.675885
C73	C	0.627272	-0.633382	-0.113041
C74	C	0.877272	-0.383382	0.136959
C75	C	1.127272	-0.133382	0.386959
C76	C	1.377272	0.116618	0.636959
O77	O	0.660170	-0.600259	-0.146148
O78	O	0.910170	-0.350259	0.103852
O79	O	1.160170	-0.100259	0.353852
O80	O	1.410170	0.149741	0.603852
C81	C	0.563665	-0.633377	-0.113042
C82	C	0.813665	-0.383377	0.136958
C83	C	1.063665	-0.133377	0.386958
C84	C	1.313665	0.116623	0.636958
C85	C	0.531858	-0.672326	-0.074120
C86	C	0.781858	-0.422326	0.175880
C87	C	1.031858	-0.172326	0.425880
C88	C	1.281858	0.077674	0.675880
C89	C	0.531846	-0.750217	0.003723
C90	C	0.781846	-0.500217	0.253723
C91	C	1.031846	-0.250217	0.503723
C92	C	1.281846	-0.000217	0.753723
C93	C	0.468243	-0.750215	0.003719
C94	C	0.718243	-0.500215	0.253719
C95	C	0.968243	-0.250215	0.503719
C96	C	1.218243	-0.000215	0.753719
C97	C	0.436447	-0.711268	-0.035205
C98	C	0.686447	-0.461268	0.214795
C99	C	0.936447	-0.211268	0.464795
C100	C	1.186447	0.038732	0.714795
C101	C	0.468255	-0.672324	-0.074125
C102	C	0.718255	-0.422324	0.175875
C103	C	0.968255	-0.172324	0.425875
C104	C	1.218255	0.077676	0.675875
C105	C	0.531866	-0.594424	-0.151965
C106	C	0.781866	-0.344424	0.098035
C107	C	1.031866	-0.094424	0.348035
C108	C	1.281866	0.155576	0.598035
C109	C	0.468256	-0.594422	-0.151962
C110	C	0.718256	-0.344422	0.098038
C111	C	0.968256	-0.094422	0.348038
C112	C	1.218256	0.155578	0.598038
C113	C	0.436448	-0.633370	-0.113040
C114	C	0.686448	-0.383370	0.136960
C115	C	0.936448	-0.133370	0.386960
C116	C	1.186448	0.116630	0.636960
C117	C	0.372856	-0.633374	-0.113054
C118	C	0.622856	-0.383374	0.136946
C119	C	0.872856	-0.133374	0.386946
C120	C	1.122856	0.116626	0.636946
N121	N	0.341045	-0.672317	-0.074130
N122	N	0.591045	-0.422317	0.175870
N123	N	0.841045	-0.172317	0.425870
N124	N	1.091045	0.077683	0.675870
C125	C	0.372841	-0.711263	-0.035206
C126	C	0.622841	-0.461263	0.214794
C127	C	0.872841	-0.211263	0.464794
C128	C	1.122841	0.038737	0.714794
C129	C	0.760850	-0.633395	-0.113036
C130	C	1.010850	-0.383395	0.136964
C131	C	1.260850	-0.133395	0.386964
C132	C	1.510850	0.116605	0.636964
C133	C	0.824455	-0.633402	-0.113039
C134	C	1.074455	-0.383402	0.136961
C135	C	1.324455	-0.133402	0.386961
C136	C	1.574455	0.116598	0.636961
C137	C	0.824440	-0.711294	-0.035188
C138	C	1.074440	-0.461294	0.214812
C139	C	1.324440	-0.211294	0.464812
C140	C	1.574440	0.038706	0.714812
C141	C	0.760833	-0.711290	-0.035189
C142	C	1.010833	-0.461290	0.214811
C143	C	1.260833	-0.211290	0.464811
C144	C	1.510833	0.038710	0.714811
C145	C	0.729039	-0.672337	-0.074113
C146	C	0.979039	-0.422337	0.175887
C147	C	1.229039	-0.172337	0.425887
C148	C	1.479039	0.077663	0.675887
C149	C	0.239269	-0.711256	-0.035220
C150	C	0.489269	-0.461256	0.214780
C151	C	0.739269	-0.211256	0.464780
C152	C	0.989269	0.038744	0.714780
C153	C	0.175660	-0.711252	-0.035229
C154	C	0.425660	-0.461252	0.214771
C155	C	0.675660	-0.211252	0.464771
C156	C	0.925660	0.038748	0.714771
C157	C	0.175681	-0.633358	-0.113077
C158	C	0.425681	-0.383358	0.136923
C159	C	0.675681	-0.133358	0.386923
C160	C	0.925681	0.116642	0.636923
C161	C	0.239284	-0.633364	-0.113070
C162	C	0.489284	-0.383364	0.136930
C163	C	0.739284	-0.133364	0.386930
C164	C	0.989284	0.116636	0.636930
C165	C	0.271077	-0.672315	-0.074136
C166	C	0.521077	-0.422315	0.175864
C167	C	0.771077	-0.172315	0.425864
C168	C	1.021077	0.077685	0.675864
O169	O	0.339916	-0.600282	-0.146151
O170	O	0.589916	-0.350282	0.103849
O171	O	0.839916	-0.100282	0.353849
O172	O	1.089916	0.149718	0.603849
O173	O	0.339935	-0.744376	-0.002100
O174	O	0.589935	-0.494376	0.247900
O175	O	0.839935	-0.244376	0.497900
O176	O	1.089935	0.005624	0.747900
C177	C	0.000074	-0.677071	0.030013
C178	C	0.250074	-0.427071	0.280013
C179	C	0.500074	-0.177071	0.530013
C180	C	0.750074	0.072929	0.780013
C181	C	0.000078	-0.676305	0.093230
C182	C	0.250078	-0.426305	0.343230
C183	C	0.500078	-0.176305	0.593230
C184	C	0.750078	0.073695	0.843230
C185	C	0.000071	-0.776472	-0.069388
C186	C	0.250071	-0.526472	0.180612
C187	C	0.500071	-0.276472	0.430612
C188	C	0.750071	-0.026472	0.680612
C189	C	0.000073	-0.839689	-0.070154
C190	C	0.250073	-0.589689	0.179846
C191	C	0.500073	-0.339689	0.429846
C192	C	0.750073	-0.089689	0.679846
C193	C	0.000063	-0.105856	-0.125350
C194	C	0.250063	0.144144	0.124650
C195	C	0.500063	0.394144	0.374650
C196	C	0.750063	0.644144	0.624650
C197	C	0.000067	-0.046456	-0.124638
C198	C	0.250067	0.203544	0.125362
C199	C	0.500067	0.453544	0.375362
C200	C	0.750067	0.703544	0.625362
O201	O	0.000083	-0.009711	-0.168424
O202	O	0.250083	0.240289	0.081576
O203	O	0.500083	0.490289	0.331576
O204	O	0.750083	0.740289	0.581576
N205	N	0.000073	-0.023830	-0.072362
N206	N	0.250073	0.226170	0.177638
N207	N	0.500073	0.476170	0.427638
N208	N	0.750073	0.726170	0.677638
C209	C	0.000082	-0.060607	-0.020794
C210	C	0.250082	0.189393	0.229206
C211	C	0.500082	0.439393	0.479206
C212	C	0.750082	0.689393	0.729206
O213	O	0.000088	-0.035908	0.023737
O214	O	0.250088	0.214092	0.273737
O215	O	0.500088	0.464092	0.523737
O216	O	0.750088	0.714092	0.773737
C217	C	0.000082	-0.120006	-0.021506
C218	C	0.250082	0.129994	0.228494
C219	C	0.500082	0.379994	0.478494
C220	C	0.750082	0.629994	0.728494
C221	C	0.000070	-0.142629	-0.073785
C222	C	0.250070	0.107371	0.176215
C223	C	0.500070	0.357371	0.426215
C224	C	0.750070	0.607371	0.676215
C225	C	0.000051	-0.128479	-0.177625
C226	C	0.250051	0.121521	0.072375
C227	C	0.500051	0.371521	0.322375
C228	C	0.750051	0.621521	0.572375
C229	C	0.000046	-0.187876	-0.178336
C230	C	0.250046	0.062124	0.071664
C231	C	0.500046	0.312124	0.321664
C232	C	0.750046	0.562124	0.571664
C233	C	0.000053	-0.224649	-0.126772
C234	C	0.250053	0.025351	0.123228
C235	C	0.500053	0.275351	0.373228
C236	C	0.750053	0.525351	0.623228
C237	C	0.000065	-0.202025	-0.074497
C238	C	0.250065	0.047975	0.175503
C239	C	0.500065	0.297975	0.425503
C240	C	0.750065	0.547975	0.675503
C241	C	0.000096	-0.156783	0.030062
C242	C	0.250096	0.093217	0.280062
C243	C	0.500096	0.343217	0.530062
C244	C	0.750096	0.593217	0.780062
C245	C	0.000097	-0.216185	0.029345
C246	C	0.250097	0.033815	0.279345
C247	C	0.500097	0.283815	0.529345
C248	C	0.750097	0.533815	0.779345
C249	C	0.000084	-0.238808	-0.022934
C250	C	0.250084	0.011192	0.227066
C251	C	0.500084	0.261192	0.477066
C252	C	0.750084	0.511192	0.727066
C253	C	0.000067	-0.298194	-0.023643
C254	C	0.250067	-0.048194	0.226357
C255	C	0.500067	0.201806	0.476357
C256	C	0.750067	0.451806	0.726357
N257	N	0.000061	-0.320820	-0.075920
N258	N	0.250061	-0.070820	0.174080
N259	N	0.500061	0.179180	0.424080
N260	N	0.750061	0.429180	0.674080
C261	C	0.000054	-0.284048	-0.127484
C262	C	0.250054	-0.034048	0.122516
C263	C	0.500054	0.215952	0.372516
C264	C	0.750054	0.465952	0.622516
C265	C	0.000082	0.064135	-0.019302
C266	C	0.250082	0.314135	0.230698
C267	C	0.500082	0.564135	0.480698
C268	C	0.750082	0.814135	0.730698
C269	C	0.000077	0.123533	-0.018589
C270	C	0.250077	0.373533	0.231411
C271	C	0.500077	0.623533	0.481411
C272	C	0.750077	0.873533	0.731411
C273	C	0.000063	0.137680	-0.122434
C274	C	0.250063	0.387680	0.127566
C275	C	0.500063	0.637680	0.377566
C276	C	0.750063	0.887680	0.627566
C277	C	0.000064	0.078281	-0.123146
C278	C	0.250064	0.328281	0.126854
C279	C	0.500064	0.578281	0.376854
C280	C	0.750064	0.828281	0.626854
C281	C	0.000076	0.041509	-0.071578
C282	C	0.250076	0.291509	0.178422
C283	C	0.500076	0.541509	0.428422
C284	C	0.750076	0.791509	0.678422
C285	C	0.000043	-0.408784	-0.128974
C286	C	0.250043	-0.158784	0.121026
C287	C	0.500043	0.091216	0.371026
C288	C	0.750043	0.341216	0.621026
C289	C	0.000035	-0.468186	-0.129680
C290	C	0.250035	-0.218186	0.120320
C291	C	0.500035	0.031814	0.370320
C292	C	0.750035	0.281814	0.620320
C293	C	0.000052	-0.482329	-0.025836
C294	C	0.250052	-0.232329	0.224164
C295	C	0.500052	0.017671	0.474164
C296	C	0.750052	0.267671	0.724164
C297	C	0.000057	-0.422932	-0.025129
C298	C	0.250057	-0.172932	0.224871
C299	C	0.500057	0.077068	0.474871
C300	C	0.750057	0.327068	0.724871
C301	C	0.000054	-0.386160	-0.076702
C302	C	0.250054	-0.136160	0.173298
C303	C	0.500054	0.113840	0.423298
C304	C	0.750054	0.363840	0.673298
O305	O	0.000054	-0.334974	0.020119
O306	O	0.250054	-0.084974	0.270119
O307	O	0.500054	0.165026	0.520119
O308	O	0.750054	0.415026	0.770119
O309	O	0.000055	-0.308755	-0.172007
O310	O	0.250055	-0.058755	0.077993
O311	O	0.500055	0.191245	0.327993
O312	O	0.750055	0.441245	0.577993
C313	C	0.000046	-0.667577	-0.178283
C314	C	0.250046	-0.417577	0.071717
C315	C	0.500046	-0.167577	0.321717
C316	C	0.750046	0.082423	0.571717
C317	C	0.000037	-0.668343	-0.241500
C318	C	0.250037	-0.418343	0.008500
C319	C	0.500037	-0.168343	0.258500
C320	C	0.750037	0.081657	0.508500
C321	C	0.000050	-0.723539	0.492333
C322	C	0.250050	-0.473539	0.742333
C323	C	0.500050	-0.223539	0.992333
C324	C	0.750050	0.026461	1.242333
C325	C	0.000046	-0.722827	0.551733
C326	C	0.250046	-0.472827	0.801733
C327	C	0.500046	-0.222827	1.051733
C328	C	0.750046	0.027173	1.301733
O329	O	0.000028	-0.766613	0.588478
O330	O	0.250028	-0.516613	0.838478
O331	O	0.500028	-0.266613	1.088478
O332	O	0.750028	-0.016613	1.338478
N333	N	0.000040	-0.670551	0.574359
N334	N	0.250040	-0.420551	0.824359
N335	N	0.500040	-0.170551	1.074359
N336	N	0.750040	0.079449	1.324359
C337	C	0.000033	-0.618983	0.537582
C338	C	0.250033	-0.368983	0.787582
C339	C	0.500033	-0.118983	1.037582
C340	C	0.750033	0.131017	1.287582
O341	O	0.000027	-0.574452	0.562281
O342	O	0.250027	-0.324452	0.812281
O343	O	0.500027	-0.074452	1.062281
O344	O	0.750027	0.175548	1.312281
C345	C	0.000033	-0.619695	0.478182
C346	C	0.250033	-0.369695	0.728182
C347	C	0.500033	-0.119695	0.978182
C348	C	0.750033	0.130305	1.228182
C349	C	0.000045	-0.671974	0.455560
C350	C	0.250045	-0.421974	0.705560
C351	C	0.500045	-0.171974	0.955560
C352	C	0.750045	0.078026	1.205560
C353	C	0.000061	-0.775814	0.469710
C354	C	0.250061	-0.525814	0.719710
C355	C	0.500061	-0.275814	0.969710
C356	C	0.750061	-0.025814	1.219710
C357	C	0.000067	-0.776525	0.410313
C358	C	0.250067	-0.526525	0.660313
C359	C	0.500067	-0.276525	0.910313
C360	C	0.750067	-0.026525	1.160313
C361	C	0.000062	-0.724961	0.373540
C362	C	0.250062	-0.474961	0.623540
C363	C	0.500062	-0.224961	0.873540
C364	C	0.750062	0.025039	1.123540
C365	C	0.000051	-0.672685	0.396164
C366	C	0.250051	-0.422685	0.646164
C367	C	0.500051	-0.172685	0.896164
C368	C	0.750051	0.077315	1.146164
C369	C	0.000022	-0.568127	0.441406
C370	C	0.250022	-0.318127	0.691406
C371	C	0.500022	-0.068127	0.941406
C372	C	0.750022	0.181873	1.191406
C373	C	0.000022	-0.568844	0.382004
C374	C	0.250022	-0.318844	0.632004
C375	C	0.500022	-0.068844	0.882004
C376	C	0.750022	0.181156	1.132004
C377	C	0.000034	-0.621123	0.359381
C378	C	0.250034	-0.371123	0.609381
C379	C	0.500034	-0.121123	0.859381
C380	C	0.750034	0.128877	1.109381
C381	C	0.000052	-0.621832	0.299995
C382	C	0.250052	-0.371832	0.549995
C383	C	0.500052	-0.121832	0.799995
C384	C	0.750052	0.128168	1.049995
N385	N	0.000057	-0.674109	0.277368
N386	N	0.250057	-0.424109	0.527368
N387	N	0.500057	-0.174109	0.777368
N388	N	0.750057	0.075891	1.027368
C389	C	0.000062	-0.725673	0.314141
C390	C	0.250062	-0.475673	0.564141
C391	C	0.500062	-0.225673	0.814141
C392	C	0.750062	0.024327	1.064141
C393	C	0.000031	-0.617491	0.662324
C394	C	0.250031	-0.367491	0.912324
C395	C	0.500031	-0.117491	1.162324
C396	C	0.750031	0.132509	1.412324
C397	C	0.000035	-0.616778	0.721722
C398	C	0.250035	-0.366778	0.971722
C399	C	0.500035	-0.116778	1.221722
C400	C	0.750035	0.133222	1.471722
C401	C	0.000047	-0.720623	0.735869
C402	C	0.250047	-0.470623	0.985869
C403	C	0.500047	-0.220623	1.235869
C404	C	0.750047	0.029377	1.485869
C405	C	0.000047	-0.721335	0.676470
C406	C	0.250047	-0.471335	0.926470
C407	C	0.500047	-0.221335	1.176470
C408	C	0.750047	0.028665	1.426470
C409	C	0.000037	-0.669767	0.639698
C410	C	0.250037	-0.419767	0.889698
C411	C	0.500037	-0.169767	1.139698
C412	C	0.750037	0.080233	1.389698
C413	C	0.000075	-0.727163	0.189405
C414	C	0.250075	-0.477163	0.439405
C415	C	0.500075	-0.227163	0.689405
C416	C	0.750075	0.022837	0.939405
C417	C	0.000083	-0.727869	0.130003
C418	C	0.250083	-0.477869	0.380003
C419	C	0.500083	-0.227869	0.630003
C420	C	0.750083	0.022131	0.880003
C421	C	0.000069	-0.624025	0.115860
C422	C	0.250069	-0.374025	0.365860
C423	C	0.500069	-0.124025	0.615860
C424	C	0.750069	0.125975	0.865860
C425	C	0.000064	-0.623318	0.175257
C426	C	0.250064	-0.373318	0.425257
C427	C	0.500064	-0.123318	0.675257
C428	C	0.750064	0.126682	0.925257
C429	C	0.000065	-0.674891	0.212029
C430	C	0.250065	-0.424891	0.462029
C431	C	0.500065	-0.174891	0.712029
C432	C	0.750065	0.075109	0.962029
O433	O	0.000067	-0.578070	0.263215
O434	O	0.250067	-0.328070	0.513215
O435	O	0.500067	-0.078070	0.763215
O436	O	0.750067	0.171930	1.013215
O437	O	0.000060	-0.770196	0.289433
O438	O	0.250060	-0.520196	0.539433
O439	O	0.500060	-0.270196	0.789433
O440	O	0.750060	-0.020196	1.039433
H441	H	0.149765	-0.742971	-0.003534
H442	H	0.399765	-0.492971	0.246466
H443	H	0.649765	-0.242971	0.496466
H444	H	0.899765	0.007029	0.746466
Br445	Br	0.000062	-0.552367	0.205961
Br446	Br	0.250062	-0.302367	0.455961
Br447	Br	0.500062	-0.052367	0.705961
Br448	Br	0.750062	0.197633	0.955961
H449	H	0.000013	-0.526850	0.352066
H450	H	0.250013	-0.276850	0.602066
H451	H	0.500013	-0.026850	0.852066
H452	H	0.750013	0.223150	1.102066
H453	H	0.000094	-0.770443	0.111587
H454	H	0.250094	-0.520443	0.361587
H455	H	0.500094	-0.270443	0.611587
H456	H	0.750094	-0.020443	0.861587
Br457	Br	0.575021	-0.541563	-0.204790
Br458	Br	0.825021	-0.291563	0.045210
Br459	Br	1.075021	-0.041563	0.295210
Br460	Br	1.325021	0.208437	0.545210
H461	H	0.265148	-0.742973	-0.003516
H462	H	0.515148	-0.492973	0.246484
H463	H	0.765148	-0.242973	0.496484
H464	H	1.015148	0.007027	0.746484
H465	H	0.000078	0.141947	0.023982
H466	H	0.250078	0.391947	0.273982
H467	H	0.500078	0.641947	0.523982
H468	H	0.750078	0.891947	0.773982
H469	H	0.442372	-0.562700	-0.183658
H470	H	0.692372	-0.312700	0.066342
H471	H	0.942372	-0.062700	0.316342
H472	H	1.192372	0.187300	0.566342
Br473	Br	0.000076	-0.797156	0.239299
Br474	Br	0.250076	-0.547156	0.489299
Br475	Br	0.500076	-0.297156	0.739299
Br476	Br	0.750076	-0.047156	0.989299
Br477	Br	0.000047	0.047586	-0.194099
Br478	Br	0.250047	0.297586	0.055901
Br479	Br	0.500047	0.547586	0.305901
Br480	Br	0.750047	0.797586	0.555901
H481	H	0.850339	-0.743006	-0.003493
H482	H	1.100339	-0.493006	0.246507
H483	H	1.350339	-0.243006	0.496507
H484	H	1.600339	0.006994	0.746507
H485	H	0.000074	-0.819097	0.391900
H486	H	0.250074	-0.569097	0.641900
H487	H	0.500074	-0.319097	0.891900
H488	H	0.750074	-0.069097	1.141900
Br489	Br	0.000063	-0.532246	0.044141
Br490	Br	0.250063	-0.282246	0.294141
Br491	Br	0.500063	-0.032246	0.544141
Br492	Br	0.750063	0.217754	0.794141
Br493	Br	0.717706	-0.580529	-0.165870
Br494	Br	0.967706	-0.330529	0.084130
Br495	Br	1.217706	-0.080529	0.334130
Br496	Br	1.467706	0.169471	0.584130
Br497	Br	0.000032	-0.218568	-0.249291
Br498	Br	0.250032	0.031432	0.000709
Br499	Br	0.500032	0.281432	0.250709
Br500	Br	0.750032	0.531432	0.500709
Br501	Br	0.000076	-0.392228	0.045822
Br502	Br	0.250076	-0.142228	0.295822
Br503	Br	0.500076	0.107772	0.545822
Br504	Br	0.750076	0.357772	0.795822
H505	H	0.000106	-0.138375	0.072634
H506	H	0.250106	0.111625	0.322634
H507	H	0.500106	0.361625	0.572634
H508	H	0.750106	0.611625	0.822634
Br509	Br	0.000068	-0.845804	0.519606
Br510	Br	0.250068	-0.595804	0.769606
Br511	Br	0.500068	-0.345804	1.019606
Br512	Br	0.750068	-0.095804	1.269606
Br513	Br	0.000064	-0.792288	0.645775
Br514	Br	0.250064	-0.542288	0.895775
Br515	Br	0.500064	-0.292288	1.145775
Br516	Br	0.750064	-0.042288	1.395775
Br517	Br	0.717673	-0.764150	0.017636
Br518	Br	0.967673	-0.514150	0.267636
Br519	Br	1.217673	-0.264150	0.517636
Br520	Br	1.467673	-0.014150	0.767636
H521	H	0.557728	-0.781933	0.035423
H522	H	0.807728	-0.531933	0.285423
H523	H	1.057728	-0.281933	0.535423
H524	H	1.307728	-0.031933	0.785423
Br525	Br	0.132520	-0.580505	-0.165903
Br526	Br	0.382520	-0.330505	0.084097
Br527	Br	0.632520	-0.080505	0.334097
Br528	Br	0.882520	0.169495	0.584097
H529	H	0.000048	-0.762610	0.765821
H530	H	0.250048	-0.512610	1.015821
H531	H	0.500048	-0.262610	1.265821
H532	H	0.750048	-0.012610	1.515821
H533	H	0.850348	-0.601692	-0.144738
H534	H	1.100348	-0.351692	0.105262
H535	H	1.350348	-0.101692	0.355262
H536	H	1.600348	0.148308	0.605262
H537	H	0.000086	0.034198	0.022693
H538	H	0.250086	0.284198	0.272693
H539	H	0.500086	0.534198	0.522693
H540	H	0.750086	0.784198	0.772693
H541	H	0.000036	-0.574207	0.740136
H542	H	0.250036	-0.324207	0.990136
H543	H	0.500036	-0.074207	1.240136
H544	H	0.750036	0.175793	1.490136
Br545	Br	0.000023	-0.547499	0.612424
Br546	Br	0.250023	-0.297499	0.862424
Br547	Br	0.500023	-0.047499	1.112424
Br548	Br	0.750023	0.202501	1.362424
H549	H	0.265183	-0.601654	-0.144769
H550	H	0.515183	-0.351654	0.105231
H551	H	0.765183	-0.101654	0.355231
H552	H	1.015183	0.148346	0.605231
H553	H	0.000025	-0.486602	-0.172255
H554	H	0.250025	-0.236602	0.077745
H555	H	0.500025	0.013398	0.327745
H556	H	0.750025	0.263398	0.577745
H557	H	0.000009	-0.525555	0.459814
H558	H	0.250009	-0.275555	0.709814
H559	H	0.500009	-0.025555	0.959814
H560	H	0.750009	0.224445	1.209814
H561	H	0.442349	-0.781929	0.035414
H562	H	0.692349	-0.531929	0.285414
H563	H	0.942349	-0.281929	0.535414
H564	H	1.192349	-0.031929	0.785414
H565	H	0.000060	0.167632	-0.164421
H566	H	0.250060	0.417632	0.085579
H567	H	0.500060	0.667632	0.335579
H568	H	0.750060	0.917632	0.585579
H569	H	0.000067	-0.582043	0.085909
H570	H	0.250067	-0.332043	0.335909
H571	H	0.500067	-0.082043	0.585909
H572	H	0.750067	0.167957	0.835909
Br573	Br	0.000116	-0.266088	0.099335
Br574	Br	0.250116	-0.016088	0.349335
Br575	Br	0.500116	0.233912	0.599335
Br576	Br	0.750116	0.483912	0.849335
Br577	Br	0.000042	-0.078583	-0.247615
Br578	Br	0.250042	0.171417	0.002385
Br579	Br	0.500042	0.421417	0.252385
Br580	Br	0.750042	0.671417	0.502385
Br581	Br	0.000040	-0.358890	-0.198967
Br582	Br	0.250040	-0.108890	0.051033
Br583	Br	0.500040	0.141110	0.301033
Br584	Br	0.750040	0.391110	0.551033
