data_functionalizedCrystal
_audit_creation_method	'MofGen! by Chris Wilmer'
_symmetry_space_group_name_H-M	'P1'
_symmetry_Int_Tables_number	1
_symmetry_cell_setting	triclinic
loop_
_symmetry_equiv_pos_as_xyz
  x,y,z
_cell_length_a	14.628931
_cell_length_b	17.917603
_cell_length_c	17.917567
_cell_angle_alpha	89.758519
_cell_angle_beta	116.962135
_cell_angle_gamma	57.011374
loop_
_atom_site_label
_atom_site_type_symbol
_atom_site_fract_x
_atom_site_fract_y
_atom_site_fract_z
Zr1	Zr	0.909317	0.757807	0.060812
O2	O	1.100018	0.638383	0.180229
O3	O	0.718612	0.794418	0.024204
O4	O	0.891918	0.801525	0.173113
O5	O	0.940437	0.625669	-0.086142
O6	O	0.878198	0.930214	0.167500
O7	O	0.926712	0.631275	0.031320
O8	O	0.568185	0.917500	-0.098872
O9	O	1.250450	0.638382	0.180229
O10	O	0.786813	0.906071	0.004402
O11	O	0.807296	0.805847	-0.079070
O12	O	1.011342	0.814215	0.096252
O13	O	1.031824	0.713991	0.012780
Zr14	Zr	0.909324	0.954110	-0.135479
Zr15	Zr	0.887434	0.963052	0.051859
Zr16	Zr	0.931207	0.748865	-0.126527
Zr17	Zr	1.149239	0.757807	0.060812
Zr18	Zr	0.669402	0.954110	-0.135479
O19	O	1.100029	0.917500	-0.098871
O20	O	1.068904	0.930214	0.167500
O21	O	1.131143	0.625668	-0.086142
O22	O	0.718623	1.073535	-0.254896
O23	O	0.687498	1.086249	0.011475
O24	O	0.749737	0.781703	-0.242167
O25	O	0.878204	1.086249	0.011475
O26	O	0.926723	0.910392	-0.247780
O27	O	0.940443	0.781703	-0.242167
O28	O	0.891929	1.080642	-0.105987
O29	O	1.233057	0.801524	0.173113
O30	O	0.585584	0.910393	-0.247781
O31	O	0.568191	1.073535	-0.254897
O32	O	0.550791	1.080642	-0.105988
O33	O	1.267850	0.631275	0.031320
O34	O	1.250456	0.794417	0.024205
O35	O	0.807299	0.897702	-0.170919
O36	O	0.786817	0.997926	-0.087448
O37	O	1.011345	0.906070	0.004402
O38	O	1.031828	0.805847	-0.079069
C39	C	0.609215	0.855959	-0.037334
C40	C	0.507361	0.855959	-0.037334
C41	C	0.277932	0.920399	-0.101770
C42	C	0.383200	0.920400	-0.101771
C43	C	0.936692	0.599229	-0.026136
C44	C	0.945982	0.512097	-0.022335
C45	C	0.962951	0.352584	-0.015394
C46	C	0.855695	0.359326	-0.059271
C47	C	0.865137	0.270568	-0.055409
C48	C	0.953512	0.441349	-0.019255
C49	C	1.209426	0.855958	-0.037333
C50	C	1.311280	0.855958	-0.037333
C51	C	0.881939	0.867144	0.196998
C52	C	0.872646	0.870940	0.276528
C53	C	0.881949	1.112688	-0.048532
C54	C	0.872659	1.199820	-0.052332
C55	C	0.962948	0.834012	0.503169
C56	C	0.855690	0.877889	0.422158
C57	C	0.865128	0.874021	0.341123
C58	C	0.953512	0.837879	0.584212
C59	C	0.936699	0.844770	0.728334
C60	C	0.945985	0.840964	0.648801
C61	C	0.581843	1.112689	-0.048532
C62	C	0.470700	1.199821	-0.052333
C63	C	0.636596	0.844774	-0.271666
C64	C	0.544036	0.840978	-0.351196
C65	C	0.609224	1.101504	-0.282864
C66	C	0.507374	1.184839	-0.366194
C67	C	1.209417	0.610414	0.208197
C68	C	1.311267	0.527078	0.291527
C69	C	1.236798	0.599228	-0.026135
C70	C	1.347941	0.512097	-0.022334
C71	C	1.182045	0.867143	0.196998
C72	C	1.274605	0.870939	0.276529
C73	C	0.418503	1.192792	-0.006165
C74	C	0.314085	1.274654	-0.009719
C75	C	0.261859	1.363545	-0.059445
C76	C	0.314065	1.370572	-0.105614
C77	C	0.418488	1.288710	-0.102055
C78	C	0.500571	0.887142	-0.436496
C79	C	0.413615	0.883572	-0.511230
C80	C	0.370119	0.833842	-0.500662
C81	C	0.413592	0.787672	-0.415353
C82	C	0.500553	0.791237	-0.340620
C83	C	0.448852	1.276299	-0.361756
C84	C	0.353164	1.354610	-0.440048
C85	C	0.315995	1.341459	-0.522776
C86	C	0.374527	1.249990	-0.527212
C87	C	0.470219	1.171681	-0.448921
C88	C	1.369801	0.435618	0.287089
C89	C	1.465518	0.357307	0.365380
C90	C	1.502693	0.370458	0.448109
C91	C	1.444154	0.461927	0.452544
C92	C	1.348445	0.540236	0.374254
C93	C	1.400147	0.519126	-0.068494
C94	C	1.504589	0.437264	-0.064920
C95	C	1.556818	0.348374	-0.015191
C96	C	1.504608	0.341347	0.030974
C97	C	1.400173	0.423208	0.027405
C98	C	1.318074	0.920678	0.265932
C99	C	1.405030	0.924263	0.340651
C100	C	1.448524	0.878103	0.425966
C101	C	1.405046	0.828363	0.436561
C102	C	1.318084	0.824784	0.361843
H103	H	0.354825	0.975566	-0.156941
Cl104	Cl	1.688107	0.245471	-0.010715
Cl105	Cl	0.702972	0.940371	0.409037
Cl106	Cl	1.115655	0.771531	0.516285
H107	H	1.339540	0.424892	0.219735
Cl108	Cl	1.539086	0.242329	0.359783
Cl109	Cl	0.195690	1.439916	-0.621191
Cl110	Cl	1.274861	0.655212	0.379849
Cl111	Cl	0.484142	1.081054	0.056359
Cl112	Cl	1.334548	0.414354	0.085434
H113	H	1.061858	0.280158	0.025067
Cl114	Cl	0.248470	1.265798	0.048323
H115	H	1.580626	0.306686	0.511851
Cl116	Cl	0.130580	1.466448	-0.063912
Cl117	Cl	0.702974	0.471152	-0.121728
Cl118	Cl	0.327783	1.233474	-0.631220
Cl119	Cl	0.279594	1.469589	-0.434451
Cl120	Cl	0.555176	0.733201	-0.233388
H121	H	0.271528	1.442957	-0.146100
H122	H	1.440421	0.964765	0.332007
Cl123	Cl	0.358895	0.725160	-0.402082
H124	H	0.535747	0.800784	0.017834
Cl125	Cl	1.459749	0.770328	0.543822
Cl126	Cl	0.484086	1.297563	-0.160108
Cl127	Cl	1.557853	0.882608	0.519890
Cl128	Cl	0.475679	0.770781	0.047847
Cl129	Cl	0.555231	0.949669	-0.449806
Cl130	Cl	0.358976	0.941624	-0.618466
Cl131	Cl	0.260792	0.829370	-0.594622
Cl132	Cl	1.570277	0.229591	0.093483
Cl133	Cl	0.543772	1.056706	-0.454516
H134	H	1.474434	0.472624	0.519911
Cl135	Cl	0.495566	1.292856	-0.257765
Cl136	Cl	1.334515	0.630864	-0.131013
Cl137	Cl	1.570199	0.446120	-0.122966
H138	H	0.171447	0.975571	-0.156932
Cl139	Cl	1.263413	0.978717	0.158687
Cl140	Cl	1.263462	0.762239	0.375180
