data_functionalizedCrystal
_audit_creation_method	'MofGen! by Chris Wilmer'
_symmetry_space_group_name_H-M	'P1'
_symmetry_Int_Tables_number	1
_symmetry_cell_setting	triclinic
loop_
_symmetry_equiv_pos_as_xyz
  x,y,z
_cell_length_a	8.559649
_cell_length_b	14.472310
_cell_length_c	8.559649
_cell_angle_alpha	90.000502
_cell_angle_beta	69.778664
_cell_angle_gamma	90.012175
loop_
_atom_site_label
_atom_site_type_symbol
_atom_site_fract_x
_atom_site_fract_y
_atom_site_fract_z
O1	O	2.126904	0.076826	-0.055049
O2	O	1.651419	0.076830	0.028732
O3	O	1.931052	0.076827	-0.250901
O4	O	1.847271	0.076829	0.224584
O5	O	1.930986	-0.076855	-0.250878
O6	O	1.651353	-0.076852	0.028755
O7	O	2.126838	-0.076856	-0.055026
Cu8	Cu	1.889090	-0.090886	-0.013134
Cu9	Cu	1.889168	0.090861	-0.013160
O10	O	1.847205	-0.076853	0.224607
C11	C	1.591077	-0.000010	0.035093
C12	C	1.411378	-0.000009	0.053992
N13	N	1.889047	-0.218717	-0.013118
C14	C	1.889166	-0.592808	-0.013166
C15	C	1.739148	-0.553641	0.136067
C16	C	1.739397	-0.446553	0.136514
C17	C	1.889106	-0.407217	-0.013142
C18	C	2.053838	-0.446055	0.003058
C19	C	2.052971	-0.553177	0.004094
C20	C	1.876010	-0.553338	-0.179179
C21	C	1.871989	-0.446211	-0.177568
C22	C	1.889083	-0.302329	-0.013133
C23	C	1.889200	-0.697696	-0.013174
C24	C	2.187180	-0.000013	-0.061387
C25	C	2.366879	-0.000008	-0.080286
C26	C	1.937369	-0.000012	-0.311198
C27	C	1.956268	-0.000007	-0.490898
N28	N	1.889225	0.218692	-0.013191
C29	C	1.840889	-0.000011	0.284904
C30	C	1.821990	-0.000010	0.464604
H31	H	1.466258	-0.000005	-0.209705
N32	N	1.279745	0.000002	0.225441
H33	H	1.165724	0.000005	0.215100
H34	H	1.292776	-0.056970	0.287966
N35	N	1.576306	-0.411754	0.127837
H36	H	1.598249	-0.372839	0.024491
H37	H	1.503673	-0.466048	0.123746
H38	H	1.692570	-0.000012	-0.436018
H39	H	1.615578	-0.579428	0.129892
H40	H	1.745637	-0.420918	0.260141
N41	N	1.747167	-0.589236	0.298947
H42	H	1.847548	-0.630628	0.276486
H43	H	1.756435	-0.535360	0.370236
N44	N	2.072531	-0.586269	0.163620
H45	H	2.081632	-0.531271	0.232608
H46	H	1.972496	-0.624599	0.228416
N47	N	2.203811	-0.587504	-0.135879
H48	H	2.270581	-0.533047	-0.197972
H49	H	2.274989	-0.626187	-0.088502
N50	N	2.204110	-0.412313	-0.138239
H51	H	2.166759	-0.371426	-0.214291
H52	H	2.278845	-0.375977	-0.091742
N53	N	2.127710	-0.000021	-0.622541
H54	H	2.141712	0.056944	-0.694270
H55	H	2.214528	-0.000054	-0.567197
H56	H	2.069495	-0.419218	0.121992
H57	H	1.759622	-0.580405	-0.199912
N58	N	2.009443	-0.410760	-0.329442
H59	H	2.075862	-0.464602	-0.394215
H60	H	1.959343	-0.375184	-0.402082
H61	H	1.750915	-0.420828	-0.190346
H62	H	1.985655	-0.578666	-0.289989
