data_functionalizedCrystal
_audit_creation_method	'MofGen! by Chris Wilmer'
_symmetry_space_group_name_H-M	'P1'
_symmetry_Int_Tables_number	1
_symmetry_cell_setting	triclinic
loop_
_symmetry_equiv_pos_as_xyz
  x,y,z
_cell_length_a	16.992694
_cell_length_b	16.992695
_cell_length_c	15.455425
_cell_angle_alpha	92.813861
_cell_angle_beta	87.179027
_cell_angle_gamma	89.331777
loop_
_atom_site_label
_atom_site_type_symbol
_atom_site_fract_x
_atom_site_fract_y
_atom_site_fract_z
O1	O	1.054114	-0.170165	-0.072022
O2	O	1.554114	0.329835	0.427978
O3	O	0.825715	-0.168335	-0.072047
O4	O	1.325715	0.331665	0.427953
O5	O	0.938998	-0.055049	-0.072028
O6	O	1.438998	0.444951	0.427972
O7	O	0.940830	-0.283450	-0.072041
O8	O	1.440830	0.216550	0.427959
O9	O	0.932452	-0.048539	0.072232
O10	O	1.432452	0.451461	0.572232
O11	O	0.819168	-0.161824	0.072212
O12	O	1.319168	0.338176	0.572212
O13	O	1.047567	-0.163654	0.072238
O14	O	1.547567	0.336346	0.572238
Cu15	Cu	0.932770	-0.162145	0.085397
Cu16	Cu	1.432770	0.337855	0.585397
Cu17	Cu	0.940512	-0.169844	-0.085207
Cu18	Cu	1.440512	0.330156	0.414793
O19	O	0.934283	-0.276940	0.072218
O20	O	1.434283	0.223060	0.572218
C21	C	0.793081	-0.162724	0.000079
C22	C	1.293081	0.337276	0.500079
C23	C	0.705597	-0.155696	0.000070
C24	C	1.205597	0.344304	0.500070
C25	C	0.659607	-0.223514	0.000066
C26	C	1.159607	0.276486	0.500066
C27	C	0.577405	-0.216904	0.000079
C28	C	1.077405	0.283096	0.500079
C29	C	0.541197	-0.142476	0.000088
C30	C	1.041197	0.357524	0.500088
C31	C	0.587193	-0.074653	0.000094
C32	C	1.087193	0.425347	0.500094
C33	C	0.669393	-0.081263	0.000088
C34	C	1.169393	0.418737	0.500088
C35	C	0.295881	-0.115080	0.000113
C36	C	0.795881	0.384920	0.500113
C37	C	0.213676	-0.108476	0.000116
C38	C	0.713676	0.391524	0.500116
C39	C	0.203893	-0.250728	0.000103
C40	C	0.703893	0.249272	0.500103
C41	C	0.286095	-0.257331	0.000091
C42	C	0.786095	0.242669	0.500091
C43	C	0.332084	-0.189508	0.000102
C44	C	0.832084	0.310492	0.500102
N45	N	0.457174	-0.135718	0.000098
N46	N	0.957174	0.364282	0.500098
N47	N	0.416105	-0.196266	0.000098
N48	N	0.916105	0.303734	0.500098
C49	C	0.933369	-0.022434	0.000102
C50	C	1.433369	0.477566	0.500102
C51	C	0.926341	0.065051	0.000101
C52	C	1.426341	0.565051	0.500101
C53	C	1.080200	-0.169265	0.000109
C54	C	1.580200	0.330735	0.500109
C55	C	1.167685	-0.176294	0.000113
C56	C	1.667685	0.323706	0.500113
C57	C	0.939913	-0.309555	0.000087
C58	C	1.439913	0.190445	0.500087
C59	C	0.946942	-0.397040	0.000082
C60	C	1.446942	0.102960	0.500082
N61	N	0.927330	-0.156729	0.205390
N62	N	1.427330	0.343271	0.705390
C63	C	0.994158	0.111042	0.000109
C64	C	1.494158	0.611042	0.500109
C65	C	0.987550	0.193242	0.000100
C66	C	1.487550	0.693242	0.500100
C67	C	0.913122	0.229450	0.000089
C68	C	1.413122	0.729450	0.500089
C69	C	0.845300	0.183452	0.000078
C70	C	1.345300	0.683452	0.500078
C71	C	0.851910	0.101253	0.000081
C72	C	1.351910	0.601253	0.500081
C73	C	0.885729	0.474764	0.000074
C74	C	1.385729	0.974764	0.500074
C75	C	0.879124	0.556969	0.000074
C76	C	1.379124	1.056969	0.500074
C77	C	1.021375	0.566753	0.000094
C78	C	1.521375	1.066753	0.500094
C79	C	1.027977	0.484552	0.000102
C80	C	1.527977	0.984552	0.500102
C81	C	0.960155	0.438561	0.000087
C82	C	1.460155	0.938561	0.500087
N83	N	0.906366	0.313472	0.000082
N84	N	1.406366	0.813472	0.500082
N85	N	0.966913	0.354541	0.000087
N86	N	1.466913	0.854541	0.500087
N87	N	0.945958	-0.175254	-0.205200
N88	N	1.445958	0.324746	0.294800
C89	C	0.897283	-0.126554	0.749386
C90	C	1.397283	0.373446	1.249386
C91	C	0.901394	-0.130679	0.658580
C92	C	1.401394	0.369321	1.158580
C93	C	0.954176	-0.183509	0.613189
C94	C	1.454176	0.316491	1.113189
C95	C	1.002856	-0.232211	0.658610
C96	C	1.502856	0.267789	1.158610
C97	C	0.998748	-0.228081	0.749414
C98	C	1.498748	0.271919	1.249414
C99	C	0.971903	-0.201301	0.341615
C100	C	1.471903	0.298699	0.841615
C101	C	0.976005	-0.205429	0.250804
C102	C	1.476005	0.294571	0.750804
C103	C	0.874543	-0.103896	0.250781
C104	C	1.374543	0.396104	0.750781
C105	C	0.870437	-0.099774	0.341587
C106	C	1.370437	0.400226	0.841587
C107	C	0.919120	-0.148473	0.386999
C108	C	1.419120	0.351527	0.886999
N109	N	0.958377	-0.187729	0.520371
N110	N	1.458377	0.312271	1.020371
N111	N	0.914922	-0.144248	0.479816
N112	N	1.414922	0.355752	0.979816
H113	H	0.706838	-0.026038	0.000090
H114	H	1.206838	0.473962	0.500090
O115	O	1.060699	0.242844	0.000123
O116	O	1.560699	0.742844	0.500123
H117	H	1.098751	0.226749	-0.058661
H118	H	1.598751	0.726749	0.441339
O119	O	0.548141	0.005625	0.000113
O120	O	1.048141	0.505625	0.500113
H121	H	0.568929	0.035815	-0.058678
H122	H	1.068929	0.535815	0.441322
O123	O	1.094521	0.616358	0.000111
O124	O	1.594521	1.116358	0.500111
H125	H	1.132568	0.600267	-0.058678
H126	H	1.632568	1.100267	0.441322
O127	O	1.108253	0.445497	0.000093
O128	O	1.608253	0.945497	0.500093
H129	H	1.154303	0.491288	0.000085
H130	H	1.654303	0.991288	0.500085
H131	H	0.539963	-0.272129	0.000075
H132	H	1.039963	0.227871	0.500075
O133	O	1.032941	-0.262415	0.201853
O134	O	1.532941	0.237585	0.701853
H135	H	0.999717	-0.304222	0.160511
H136	H	1.499717	0.195778	0.660511
H137	H	0.818513	0.586447	0.000079
H138	H	1.318513	1.086447	0.500079
H139	H	1.038385	-0.267738	0.786389
H140	H	1.538385	0.232262	1.286389
H141	H	1.054764	0.081568	0.000124
H142	H	1.554764	0.581568	0.500124
O143	O	0.812580	0.425164	0.000079
O144	O	1.312580	0.925164	0.500079
H145	H	0.759718	0.464155	0.000086
H146	H	1.259718	0.964155	0.500086
H147	H	0.784700	0.212939	0.000063
H148	H	1.284700	0.712939	0.500063
H149	H	0.854298	-0.083538	0.786336
H150	H	1.354298	0.416462	1.286336
H151	H	0.796685	0.063808	0.000073
H152	H	1.296685	0.563808	0.500073
H153	H	1.011544	-0.240956	0.378579
H154	H	1.511544	0.259044	0.878579
H155	H	0.861760	-0.091020	0.621608
H156	H	1.361760	0.408980	1.121608
O157	O	0.325153	-0.337606	0.000082
O158	O	0.825153	0.162394	0.500082
H159	H	0.359716	-0.341359	0.058873
H160	H	0.859716	0.158641	0.558873
H161	H	1.045836	-0.275223	0.621646
H162	H	1.545836	0.224777	1.121646
H163	H	0.827458	-0.056753	0.378538
H164	H	1.327458	0.443247	0.878538
O165	O	0.822080	-0.051328	0.201803
O166	O	1.322080	0.448672	0.701803
H167	H	0.833819	-0.063054	0.131035
H168	H	1.333819	0.436946	0.631035
H169	H	0.166440	-0.305945	0.000096
H170	H	0.666440	0.194055	0.500096
O171	O	0.698659	-0.303790	0.000065
O172	O	1.198659	0.196210	0.500065
H173	H	0.652865	-0.349836	0.000076
H174	H	1.152865	0.150164	0.500076
O175	O	0.174616	-0.028196	0.000135
O176	O	0.674616	0.471804	0.500135
H177	H	0.220404	0.017857	0.000150
H178	H	0.720404	0.517857	0.500150
H179	H	0.333316	-0.059853	0.000122
H180	H	0.833316	0.440147	0.500122
