data_functionalizedCrystal
_audit_creation_method	'MofGen! by Chris Wilmer'
_symmetry_space_group_name_H-M	'P1'
_symmetry_Int_Tables_number	1
_symmetry_cell_setting	triclinic
loop_
_symmetry_equiv_pos_as_xyz
  x,y,z
_cell_length_a	12.827893
_cell_length_b	19.121063
_cell_length_c	12.827885
_cell_angle_alpha	87.596223
_cell_angle_beta	90.019272
_cell_angle_gamma	92.468878
loop_
_atom_site_label
_atom_site_type_symbol
_atom_site_fract_x
_atom_site_fract_y
_atom_site_fract_z
Zn1	Zn	1.579836	-0.279578	0.608539
Zn2	Zn	2.079836	0.220422	1.108539
Zn3	Zn	1.572236	-0.397045	0.441232
Zn4	Zn	2.072236	0.102955	0.941232
Zn5	Zn	1.405075	-0.279613	0.433815
Zn6	Zn	1.905075	0.220387	0.933815
Zn7	Zn	1.397572	-0.396992	0.615928
Zn8	Zn	1.897572	0.103008	1.115928
O9	O	1.488680	-0.338307	0.524878
O10	O	1.988680	0.161693	1.024878
O11	O	1.725063	-0.295168	0.586357
O12	O	2.225063	0.204832	1.086357
O13	O	1.550022	-0.381504	0.294014
O14	O	2.050022	0.118496	0.794014
O15	O	1.434577	-0.181324	0.450795
O16	O	1.934577	0.318676	0.950795
O17	O	1.719480	-0.381470	0.463437
O18	O	2.219480	0.118530	0.963437
O19	O	1.562973	-0.181298	0.579165
O20	O	2.062973	0.318702	1.079165
O21	O	1.427209	-0.295227	0.288565
O22	O	1.927209	0.204773	0.788565
O23	O	1.257844	-0.295176	0.457961
O24	O	1.757844	0.204824	0.957961
O25	O	1.421790	-0.381381	0.761182
O26	O	1.921790	0.118619	1.261182
O27	O	1.252332	-0.381414	0.591759
O28	O	1.752332	0.118586	1.091759
O29	O	1.555698	-0.295117	0.755753
O30	O	2.055698	0.204883	1.255753
O31	O	1.542747	-0.495322	0.470602
O32	O	2.042747	0.004678	0.970602
O33	O	1.414422	-0.495284	0.598951
O34	O	1.914422	0.004716	1.098951
C35	C	1.217171	-0.338293	0.524858
C36	C	1.717171	0.161707	1.024858
C37	C	1.101017	-0.338305	0.524875
C38	C	1.601017	0.161695	1.024875
C39	C	1.476974	-0.520787	0.536406
C40	C	1.976974	-0.020787	1.036406
C41	C	1.472062	-0.598853	0.541373
C42	C	1.972062	-0.098853	1.041373
C43	C	1.046528	-0.381045	0.590989
C44	C	1.546528	0.118955	1.090989
C45	C	0.926477	-0.381057	0.591008
C46	C	1.426477	0.118943	1.091008
C47	C	1.536618	-0.635525	0.476937
C48	C	2.036618	-0.135525	0.976937
C49	C	1.532005	-0.708876	0.481614
C50	C	2.032005	-0.208876	0.981614
C51	C	1.462829	-0.745553	0.550723
C52	C	1.962829	-0.245553	1.050723
C53	C	1.398270	-0.708876	0.615166
C54	C	1.898270	-0.208876	1.115166
C55	C	1.402890	-0.635526	0.610493
C56	C	1.902890	-0.135526	1.110493
C57	C	1.445540	-0.967022	0.568177
C58	C	1.945540	-0.467022	1.068177
C59	C	1.440923	-1.040377	0.572842
C60	C	1.940923	-0.540377	1.072842
C61	C	1.574660	-1.040372	0.439292
C62	C	2.074660	-0.540372	0.939292
C63	C	1.579269	-0.967021	0.434621
C64	C	2.079269	-0.467021	0.934621
C65	C	1.514714	-0.930350	0.499067
C66	C	2.014714	-0.430350	0.999067
C67	C	1.458109	-0.820530	0.555503
C68	C	1.958109	-0.320530	1.055503
C69	C	1.519440	-0.855374	0.494292
C70	C	2.019440	-0.355374	0.994292
C71	C	1.761249	-0.338321	0.524900
C72	C	2.261249	0.161679	1.024900
C73	C	1.877402	-0.338327	0.524909
C74	C	2.377402	0.161673	1.024909
C75	C	1.488755	-0.338239	0.797444
C76	C	1.988755	0.161761	1.297444
C77	C	1.488787	-0.338210	0.913596
C78	C	1.988787	0.161790	1.413596
C79	C	1.500460	-0.155115	0.513328
C80	C	2.000460	0.344885	1.013328
C81	C	1.505479	-0.077049	0.508406
C82	C	2.005479	0.422951	1.008406
C83	C	1.488668	-0.338324	0.253370
C84	C	1.988668	0.161676	0.753370
C85	C	1.488851	-0.338155	0.137206
C86	C	1.988851	0.161845	0.637206
C87	C	1.428071	-0.295480	1.082726
C88	C	1.928071	0.204520	1.582726
C89	C	1.428036	-0.295509	0.962678
C90	C	1.928036	0.204491	1.462678
H91	H	1.088756	-0.417624	0.647580
H92	H	1.588756	0.082376	1.147580
F93	F	1.045828	-0.290484	0.450912
F94	F	1.545828	0.209516	0.950912
H95	H	1.375997	-0.258975	0.915836
H96	H	1.875997	0.241025	1.415836
F97	F	1.600718	-0.747902	0.413036
F98	F	2.100718	-0.247902	0.913036
F99	F	1.556802	-0.385972	0.974811
F100	F	2.056802	0.114028	1.474811
H101	H	0.879628	-0.417651	0.647607
H102	H	1.379628	0.082349	1.147607
F103	F	0.938626	-0.290499	0.450914
F104	F	1.438626	0.209501	0.950914
H105	H	1.376065	-0.258920	1.124959
H106	H	1.876065	0.241080	1.624959
H107	H	1.592944	-0.605667	0.420657
H108	H	2.092944	-0.105667	0.920657
F109	F	1.652907	-0.927991	0.361078
F110	F	2.152907	-0.427991	0.861078
F111	F	1.334183	-0.596497	0.679077
F112	F	1.834183	-0.096497	1.179077
F113	F	1.556840	-0.385937	1.082010
F114	F	2.056840	0.114063	1.582010
H115	H	1.627218	-1.070237	0.386825
H116	H	2.127218	-0.570237	0.886825
H117	H	1.575767	-0.825510	0.438028
H118	H	2.075767	-0.325510	0.938028
F119	F	1.384488	-0.859571	0.629051
F120	F	1.884488	-0.359571	1.129051
F121	F	1.367283	-1.079410	0.646389
F122	F	1.867283	-0.579410	1.146389
F123	F	1.376833	-0.928003	0.636766
F124	F	1.876833	-0.428003	1.136766
H125	H	1.341950	-0.738744	0.671440
H126	H	1.841950	-0.238744	1.171440
