data_functionalizedCrystal
_audit_creation_method	'MofGen! by Chris Wilmer'
_symmetry_space_group_name_H-M	'P1'
_symmetry_Int_Tables_number	1
_symmetry_cell_setting	triclinic
loop_
_symmetry_equiv_pos_as_xyz
  x,y,z
_cell_length_a	12.759401
_cell_length_b	18.050590
_cell_length_c	12.759393
_cell_angle_alpha	89.964247
_cell_angle_beta	89.981433
_cell_angle_gamma	90.017597
loop_
_atom_site_label
_atom_site_type_symbol
_atom_site_fract_x
_atom_site_fract_y
_atom_site_fract_z
Zn1	Zn	1.606227	-0.295635	-0.593953
Zn2	Zn	1.606110	-0.419845	-0.418260
Zn3	Zn	1.430529	-0.295671	-0.418292
Zn4	Zn	1.430506	-0.419785	-0.593901
O5	O	1.518343	-0.357734	-0.506101
O6	O	1.753233	-0.312121	-0.570655
O7	O	1.582779	-0.403413	-0.271243
O8	O	1.453895	-0.191742	-0.441629
O9	O	1.753146	-0.403378	-0.441574
O10	O	1.582979	-0.191715	-0.570686
O11	O	1.453781	-0.312183	-0.271267
O12	O	1.283505	-0.312125	-0.441579
O13	O	1.453855	-0.403276	-0.740929
O14	O	1.283488	-0.403312	-0.570598
O15	O	1.582957	-0.312063	-0.740967
O16	O	1.582757	-0.523761	-0.441524
O17	O	1.453741	-0.523718	-0.570567
C18	C	1.245376	-0.357716	-0.506087
C19	C	1.128599	-0.357727	-0.506106
C20	C	1.073775	-0.310299	-0.573422
C21	C	0.964051	-0.310313	-0.573429
C22	C	0.963985	-0.405189	-0.438799
C23	C	1.073707	-0.405171	-0.438788
C24	C	1.128667	-0.262855	-0.640739
C25	C	1.073843	-0.215424	-0.708062
C26	C	0.964119	-0.215438	-0.708069
C27	C	0.909219	-0.262884	-0.640752
C28	C	1.518262	-0.550686	-0.506060
C29	C	1.518324	-0.633232	-0.506077
C30	C	1.588628	-0.832679	-0.436001
C31	C	1.614296	-0.882003	-0.531888
C32	C	1.518384	-0.784362	-0.506119
C33	C	1.492823	-0.882120	-0.410275
C34	C	1.518443	-0.930347	-0.506151
C35	C	1.544100	-0.832599	-0.602056
C36	C	1.422583	-0.832711	-0.480379
C37	C	1.448214	-0.882013	-0.576331
C38	C	1.518352	-0.700264	-0.506099
C39	C	1.518475	-1.014444	-0.506181
C40	C	1.792376	-0.357752	-0.506117
C41	C	1.909153	-0.357760	-0.506123
C42	C	1.518417	-0.357659	-0.780135
C43	C	1.518448	-0.357627	-0.896912
C44	C	1.518453	-0.164028	-0.506167
C45	C	1.518500	-0.081482	-0.506194
C46	C	1.585680	-0.310128	-0.951795
C47	C	1.585705	-0.310101	-1.061519
C48	C	1.451263	-0.405079	-1.061467
C49	C	1.451233	-0.405101	-0.951745
C50	C	1.652895	-0.262654	-0.896962
C51	C	1.720134	-0.215151	-0.951846
C52	C	1.720159	-0.215124	-1.061570
C53	C	1.652945	-0.262600	-1.116410
C54	C	1.518330	-0.357755	-0.233134
C55	C	1.518502	-0.357578	-0.116358
H56	H	1.218010	-0.262838	-0.640741
O57	O	1.386034	-0.451302	-1.114620
C58	C	1.335019	-0.577621	-1.148178
C59	C	1.408936	-0.525353	-1.087901
H60	H	1.353524	-0.637503	-1.126615
H61	H	1.250286	-0.564641	-1.126589
H62	H	1.346574	-0.569409	-1.236021
H63	H	1.397476	-0.533536	-1.000044
H64	H	1.493642	-0.538347	-1.109577
O65	O	1.386082	-0.451280	-0.898298
C66	C	1.371893	-0.551589	-0.774396
C67	C	1.445792	-0.499329	-0.834847
H68	H	1.420139	-0.590460	-0.723098
H69	H	1.316987	-0.517537	-0.722965
H70	H	1.323835	-0.585493	-0.832439
H71	H	1.493918	-0.465414	-0.776879
H72	H	1.500629	-0.533424	-0.886293
H73	H	1.652885	-0.262672	-0.807619
O74	O	1.127330	-0.169407	-0.773413
C75	C	1.296392	-0.127302	-0.833025
C76	C	1.235952	-0.179468	-0.758979
H77	H	1.384223	-0.135408	-0.821365
H78	H	1.274926	-0.140419	-0.917732
H79	H	1.274758	-0.067415	-0.814741
H80	H	1.257554	-0.239373	-0.777168
H81	H	1.257423	-0.166288	-0.674294
H82	H	0.919484	-0.176813	-0.762878
H83	H	0.819874	-0.262875	-0.640741
H84	H	1.388836	-0.903538	-0.635709
O85	O	1.325979	-0.806728	-0.454416
C86	C	1.217562	-0.699296	-0.426141
C87	C	1.327008	-0.728622	-0.455596
H88	H	1.218364	-0.636144	-0.427063
H89	H	1.157461	-0.720392	-0.485106
H90	H	1.195854	-0.719648	-0.344365
H91	H	1.348815	-0.708282	-0.537347
H92	H	1.387046	-0.707531	-0.396563
O93	O	1.467117	-0.907980	-0.313487
C94	C	1.512154	-0.912276	-0.130192
C95	C	1.541361	-0.882929	-0.239743
H96	H	1.572176	-0.892047	-0.070544
H97	H	1.431061	-0.891133	-0.107575
H98	H	1.511635	-0.975425	-0.131373
H99	H	1.541939	-0.819781	-0.238645
H100	H	1.622434	-0.904128	-0.262317
O101	O	1.785271	-0.168995	-0.898465
C102	C	1.799430	-0.068725	-0.774683
C103	C	1.725545	-0.120965	-0.835047
H104	H	1.751170	-0.029869	-0.723412
H105	H	1.854319	-0.102794	-0.723233
H106	H	1.847506	-0.034804	-0.832782
H107	H	1.677401	-0.154897	-0.777023
H108	H	1.670725	-0.086853	-0.886513
H109	H	1.648052	-0.811017	-0.376766
H110	H	0.919276	-0.443818	-0.383996
H111	H	1.695338	-0.903658	-0.553680
O112	O	1.126807	-0.451316	-0.373371
C113	C	1.115172	-0.545398	-0.239804
C114	C	1.054905	-0.493189	-0.313855
H115	H	1.057066	-0.579255	-0.191650
H116	H	1.166527	-0.584309	-0.287890
H117	H	1.166552	-0.511236	-0.184997
H118	H	1.003468	-0.527291	-0.368677
H119	H	1.003616	-0.454276	-0.265703
H120	H	1.565663	-0.810940	-0.683192
H121	H	1.774900	-0.176440	-1.106253
O122	O	1.653135	-0.262505	-1.222997
C123	C	1.726899	-0.210327	-1.380482
C124	C	1.726801	-0.210367	-1.259778
H125	H	1.786436	-0.168167	-1.410257
H126	H	1.748737	-0.267812	-1.410301
H127	H	1.645529	-0.194938	-1.410250
H128	H	1.808146	-0.225724	-1.229921
H129	H	1.704904	-0.152875	-1.230031
