data_functionalizedCrystal
_audit_creation_method	'MofGen! by Chris Wilmer'
_symmetry_space_group_name_H-M	'P1'
_symmetry_Int_Tables_number	1
_symmetry_cell_setting	triclinic
loop_
_symmetry_equiv_pos_as_xyz
  x,y,z
_cell_length_a	17.699077
_cell_length_b	15.995292
_cell_length_c	16.776229
_cell_angle_alpha	90.009293
_cell_angle_beta	89.996981
_cell_angle_gamma	83.374596
loop_
_atom_site_label
_atom_site_type_symbol
_atom_site_fract_x
_atom_site_fract_y
_atom_site_fract_z
O1	O	1.004235	0.105849	-0.066272
O2	O	1.337568	0.439182	0.267061
O3	O	1.670902	0.772516	0.600395
O4	O	0.783876	0.119631	-0.066275
O5	O	1.117210	0.452964	0.267058
O6	O	1.450543	0.786297	0.600391
O7	O	0.900102	-0.009164	-0.066275
O8	O	1.233436	0.324170	0.267059
O9	O	1.566769	0.657503	0.600392
O10	O	0.888009	0.234643	-0.066272
O11	O	1.221342	0.567977	0.267061
O12	O	1.554676	0.901310	0.600394
O13	O	0.900092	-0.009141	0.066302
O14	O	1.233425	0.324192	0.399635
O15	O	1.566758	0.657526	0.732968
O16	O	0.783866	0.119653	0.066301
O17	O	1.117199	0.452986	0.399635
O18	O	1.450532	0.786320	0.732968
O19	O	1.004224	0.105872	0.066305
O20	O	1.337558	0.439205	0.399638
O21	O	1.670891	0.772538	0.732971
Zn22	Zn	0.894043	0.112766	0.087352
Zn23	Zn	1.227377	0.446099	0.420686
Zn24	Zn	1.560710	0.779433	0.754019
Zn25	Zn	0.894057	0.112736	-0.087323
Zn26	Zn	1.227391	0.446070	0.246010
Zn27	Zn	1.560724	0.779403	0.579344
O28	O	0.887998	0.234666	0.066304
O29	O	1.221332	0.567999	0.399637
O30	O	1.554665	0.901332	0.732971
C31	C	0.755673	0.119149	0.000013
C32	C	1.089006	0.452482	0.333346
C33	C	1.422340	0.785816	0.666679
C34	C	0.671653	0.117670	0.000011
C35	C	1.004986	0.451003	0.333344
C36	C	1.338319	0.784337	0.666678
C37	C	0.632178	0.116985	0.072279
C38	C	0.965512	0.450319	0.405613
C39	C	1.298845	0.783652	0.738946
C40	C	0.553234	0.115582	0.072280
C41	C	0.886567	0.448916	0.405614
C42	C	1.219900	0.782249	0.738947
C43	C	0.513764	0.114870	0.000012
C44	C	0.847098	0.448203	0.333345
C45	C	1.180431	0.781537	0.666679
C46	C	0.553244	0.115552	-0.072262
C47	C	0.886578	0.448886	0.261071
C48	C	1.219911	0.782219	0.594405
C49	C	0.632188	0.116949	-0.072262
C50	C	0.965521	0.450283	0.261071
C51	C	1.298855	0.783616	0.594405
C52	C	0.234873	0.109917	-0.072264
C53	C	0.568206	0.443251	0.261070
C54	C	0.901539	0.776584	0.594403
C55	C	0.155923	0.108523	-0.072258
C56	C	0.489256	0.441856	0.261075
C57	C	0.822590	0.775190	0.594409
C58	C	0.155918	0.108551	0.072279
C59	C	0.489252	0.441884	0.405612
C60	C	0.822585	0.775217	0.738945
C61	C	0.234862	0.109948	0.072279
C62	C	0.568196	0.443281	0.405612
C63	C	0.901529	0.776614	0.738945
C64	C	0.274336	0.110625	0.000005
C65	C	0.607669	0.443959	0.333339
C66	C	0.941003	0.777292	0.666672
C67	C	0.359937	0.112145	0.000005
C68	C	0.693270	0.445478	0.333339
C69	C	1.026603	0.778812	0.666672
C70	C	0.428164	0.113356	0.000011
C71	C	0.761497	0.446690	0.333344
C72	C	1.094831	0.780023	0.666678
C73	C	0.899605	-0.040347	0.000012
C74	C	1.232938	0.292986	0.333345
C75	C	1.566271	0.626320	0.666678
C76	C	0.898129	-0.133297	0.000006
C77	C	1.231462	0.200037	0.333339
C78	C	1.564796	0.533370	0.666672
C79	C	0.892704	-0.471024	0.000013
C80	C	1.226038	-0.137691	0.333346
C81	C	1.559371	0.195643	0.666679
C82	C	0.976593	-0.447884	0.000310
C83	C	1.309927	-0.114551	0.333643
C84	C	1.643260	0.218782	0.666977
C85	C	0.978188	-0.351212	0.000008
C86	C	1.311521	-0.017879	0.333342
C87	C	1.644854	0.315455	0.666675
C88	C	0.895396	-0.303474	0.000010
C89	C	1.228730	0.029860	0.333343
C90	C	1.562063	0.363193	0.666676
C91	C	0.853462	-0.332501	-0.075696
C92	C	1.186795	0.000832	0.257637
C93	C	1.520129	0.334165	0.590970
C94	C	0.852452	-0.429290	-0.075757
C95	C	1.185785	-0.095956	0.257577
C96	C	1.519119	0.237377	0.590910
C97	C	0.850727	-0.429118	0.075008
C98	C	1.184060	-0.095784	0.408341
C99	C	1.517393	0.237549	0.741674
C100	C	0.853835	-0.332631	0.076005
C101	C	1.187169	0.000702	0.409339
C102	C	1.520502	0.334035	0.742672
C103	C	0.896913	-0.208781	0.000005
C104	C	1.230246	0.124553	0.333338
C105	C	1.563580	0.457886	0.666672
C106	C	0.891185	-0.565717	0.000012
C107	C	1.224518	-0.232383	0.333345
C108	C	1.557852	0.100950	0.666678
C109	C	1.032427	0.106353	0.000015
C110	C	1.365761	0.439687	0.333348
C111	C	1.699094	0.773020	0.666682
C112	C	1.116448	0.107832	0.000011
C113	C	1.449781	0.441166	0.333345
C114	C	1.783115	0.774499	0.666678
C115	C	0.888496	0.265849	0.000016
C116	C	1.221829	0.599182	0.333349
C117	C	1.555163	0.932516	0.666683
C118	C	0.889972	0.358799	0.000017
C119	C	1.223305	0.692132	0.333350
C120	C	1.556638	1.025466	0.666683
N121	N	0.894039	0.112786	0.206564
N122	N	1.227372	0.446119	0.539897
N123	N	1.560706	0.779452	0.873230
N124	N	0.894068	0.112710	-0.206534
N125	N	1.227401	0.446043	0.126799
N126	N	1.560734	0.779377	0.460132
C127	C	0.848175	0.061997	0.751734
C128	C	1.181508	0.395330	1.085067
C129	C	1.514842	0.728664	1.418401
C130	C	0.848173	0.062004	0.668282
C131	C	1.181506	0.395337	1.001615
C132	C	1.514840	0.728671	1.334949
C133	C	0.894060	0.112729	0.626563
C134	C	1.227394	0.446063	0.959896
C135	C	1.560727	0.779396	1.293230
C136	C	0.939958	0.163444	0.668300
C137	C	1.273292	0.496778	1.001634
C138	C	1.606625	0.830111	1.334967
C139	C	0.939964	0.163432	0.751751
C140	C	1.273297	0.496765	1.085084
C141	C	1.606630	0.830099	1.418418
C142	C	0.939939	0.163493	0.331753
C143	C	1.273272	0.496827	0.665087
C144	C	1.606605	0.830160	0.998420
C145	C	0.939928	0.163504	0.248297
C146	C	1.273262	0.496837	0.581630
C147	C	1.606595	0.830170	0.914963
C148	C	0.848148	0.062066	0.248284
C149	C	1.181481	0.395399	0.581617
C150	C	1.514815	0.728732	0.914951
C151	C	0.848153	0.062053	0.331735
C152	C	1.181487	0.395387	0.665068
C153	C	1.514820	0.728720	0.998401
C154	C	0.894054	0.112765	0.373465
C155	C	1.227387	0.446098	0.706798
C156	C	1.560721	0.779431	1.040132
C157	C	0.894057	0.112755	0.463953
C158	C	1.227390	0.446089	0.797287
C159	C	1.560723	0.779422	1.130620
C160	C	0.894055	0.112744	0.536076
C161	C	1.227388	0.446077	0.869409
C162	C	1.560721	0.779410	1.202743
H163	H	0.521099	0.115011	0.131128
H164	H	0.854432	0.448344	0.464462
H165	H	1.187766	0.781678	0.797795
H166	H	1.011030	-0.332245	0.054276
H167	H	1.344363	0.001088	0.387609
H168	H	1.677696	0.334421	0.720943
Cl169	Cl	0.997663	0.227184	0.804214
Cl170	Cl	1.330997	0.560518	1.137547
Cl171	Cl	1.664330	0.893851	1.470881
H172	H	0.123789	0.107942	-0.131111
H173	H	0.457122	0.441275	0.202222
H174	H	0.790456	0.774609	0.535556
H175	H	0.884370	-0.314119	0.132012
H176	H	1.217703	0.019214	0.465345
H177	H	1.551037	0.352547	0.798678
H178	H	1.008923	-0.475939	0.054602
H179	H	1.342257	-0.142606	0.387935
H180	H	1.675590	0.190728	0.721269
H181	H	0.267003	0.110467	-0.131113
H182	H	0.600336	0.443800	0.202220
H183	H	0.933670	0.777133	0.535554
H184	H	0.788978	-0.442981	0.075518
H185	H	1.122312	-0.109648	0.408852
H186	H	1.455645	0.223686	0.742185
Cl187	Cl	0.503629	0.114626	-0.163114
Cl188	Cl	0.836962	0.447959	0.170219
Cl189	Cl	1.170296	0.781292	0.503552
H190	H	0.977298	0.204812	0.214331
H191	H	1.310631	0.538146	0.547665
H192	H	1.643964	0.871479	0.880998
Cl193	Cl	1.029203	-0.322909	-0.083926
Cl194	Cl	1.362536	0.010424	0.249407
Cl195	Cl	1.695869	0.343757	0.582740
Cl196	Cl	0.681789	0.117886	0.163137
Cl197	Cl	1.015122	0.451220	0.496470
Cl198	Cl	1.348456	0.784553	0.829803
Cl199	Cl	0.106290	0.107694	0.163138
Cl200	Cl	0.439623	0.441028	0.496472
Cl201	Cl	0.772957	0.774361	0.829805
H202	H	1.008753	-0.476977	-0.053676
H203	H	1.342086	-0.143644	0.279657
H204	H	1.675419	0.189689	0.612990
H205	H	0.877140	-0.457251	0.132392
H206	H	1.210474	-0.123918	0.465726
H207	H	1.543807	0.209416	0.799059
Cl208	Cl	0.284476	0.110848	0.163134
Cl209	Cl	0.617810	0.444181	0.496467
Cl210	Cl	0.951143	0.777514	0.829800
H211	H	0.664327	0.117508	-0.131110
H212	H	0.997660	0.450842	0.202223
H213	H	1.330994	0.784175	0.535556
H214	H	0.881503	-0.456175	-0.132349
H215	H	1.214836	-0.122842	0.200984
H216	H	1.548169	0.210491	0.534318
H217	H	0.790944	-0.443714	-0.079186
H218	H	1.124278	-0.110381	0.254147
H219	H	1.457611	0.222953	0.587481
H220	H	0.792539	-0.300509	-0.078510
H221	H	1.125872	0.032825	0.254823
H222	H	1.459205	0.366158	0.588157
Cl223	Cl	0.790446	-0.001690	0.195818
Cl224	Cl	1.123780	0.331643	0.529152
Cl225	Cl	1.457113	0.664976	0.862485
H226	H	0.882591	-0.312510	-0.132037
H227	H	1.215924	0.020823	0.201297
H228	H	1.549258	0.354156	0.534630
H229	H	0.977324	0.204741	0.634326
H230	H	1.310658	0.538075	0.967659
H231	H	1.643991	0.871408	1.300993
Cl232	Cl	0.997637	0.227252	0.384203
Cl233	Cl	1.330970	0.560585	0.717536
Cl234	Cl	1.664303	0.893918	1.050870
H235	H	0.793406	-0.299537	0.080578
H236	H	1.126739	0.033796	0.413911
H237	H	1.460072	0.367130	0.747245
H238	H	0.810804	0.020695	0.785696
H239	H	1.144137	0.354029	1.119029
H240	H	1.477470	0.687362	1.452363
Cl241	Cl	0.790453	-0.001726	0.615823
Cl242	Cl	1.123786	0.331608	0.949156
Cl243	Cl	1.457119	0.664941	1.282489
H244	H	0.810784	0.020751	0.365698
H245	H	1.144118	0.354084	0.699032
H246	H	1.477451	0.687418	1.032365
