data_functionalizedCrystal
_audit_creation_method	'MofGen! by Chris Wilmer'
_symmetry_space_group_name_H-M	'P1'
_symmetry_Int_Tables_number	1
_symmetry_cell_setting	triclinic
loop_
_symmetry_equiv_pos_as_xyz
  x,y,z
_cell_length_a	10.540539
_cell_length_b	10.654550
_cell_length_c	9.730223
_cell_angle_alpha	90.004025
_cell_angle_beta	89.998304
_cell_angle_gamma	95.494789
loop_
_atom_site_label
_atom_site_type_symbol
_atom_site_fract_x
_atom_site_fract_y
_atom_site_fract_z
O1	O	1.685822	-0.176991	-0.114225
O2	O	1.316403	-0.193667	-0.114242
O3	O	1.509607	-0.002593	-0.114224
O4	O	1.492619	-0.368066	-0.114242
O5	O	1.509592	-0.002589	0.114356
O6	O	1.316389	-0.193663	0.114338
O7	O	1.685808	-0.176987	0.114355
Zn8	Zn	1.501096	-0.185324	0.150639
Zn9	Zn	1.501115	-0.185330	-0.150525
O10	O	1.492605	-0.368061	0.114338
C11	C	1.269094	-0.192415	0.000046
C12	C	1.128147	-0.188673	0.000040
N13	N	1.501093	-0.185320	0.356175
C14	C	1.508352	0.044208	0.000065
C15	C	1.504620	0.183652	0.000063
C16	C	0.944772	-0.045302	0.000581
C17	C	1.091388	-0.049095	0.000051
C18	C	1.066458	-0.255846	-0.130489
C19	C	0.919916	-0.251083	-0.130584
C20	C	0.919410	-0.253918	0.129354
C21	C	1.066391	-0.255203	0.131065
C22	C	1.733118	-0.178240	0.000064
C23	C	1.874064	-0.181981	0.000062
C24	C	1.493859	-0.414862	0.000045
C25	C	1.497591	-0.554306	0.000039
C26	C	1.618375	0.263098	0.000067
C27	C	1.614861	0.394120	0.000050
C28	C	1.383827	0.366238	0.000030
C29	C	1.387343	0.235218	0.000037
C30	C	1.586672	-0.100748	0.428109
C31	C	1.586683	-0.100749	0.571992
C32	C	1.415532	-0.269904	0.571995
C33	C	1.415516	-0.269896	0.428114
N34	N	1.501121	-0.185329	0.643938
H35	H	1.134015	0.003760	0.093620
H36	H	1.288344	0.408240	0.000012
C37	C	1.321410	-0.362946	0.651129
C38	C	1.321495	-0.363038	0.809391
C39	C	1.227373	-0.456086	0.888520
C40	C	1.133166	-0.549040	0.809386
C41	C	1.133078	-0.548951	0.651115
C42	C	1.227200	-0.455904	0.571986
H43	H	1.391236	-0.294224	0.867979
H44	H	1.227439	-0.456151	1.005683
H45	H	1.063491	-0.617920	0.867962
H46	H	1.063337	-0.617765	0.592527
H47	H	1.227134	-0.455838	0.454822
C48	C	0.903491	0.028823	-0.124977
C49	C	0.838949	0.151125	-0.104203
C50	C	0.797422	0.225215	-0.229674
C51	C	0.820438	0.177004	-0.375920
C52	C	0.884983	0.054696	-0.396700
C53	C	0.926510	-0.019394	-0.271229
H54	H	0.821909	0.186819	0.004063
H55	H	0.749642	0.315756	-0.214290
H56	H	0.789697	0.231850	-0.468802
H57	H	0.902023	0.019001	-0.504966
H58	H	0.974291	-0.109935	-0.286613
H59	H	1.294704	0.170530	0.000029
H60	H	1.656352	-0.031879	0.369539
H61	H	1.707492	0.458800	0.000051
C62	C	1.147829	0.022789	-0.126575
C63	C	1.059471	0.083822	-0.227533
C64	C	1.115910	0.155704	-0.354169
C65	C	1.260708	0.166553	-0.379846
C66	C	1.349074	0.105519	-0.278885
C67	C	1.292635	0.033637	-0.152249
H68	H	0.952276	0.075792	-0.208528
H69	H	1.050495	0.200886	-0.428907
H70	H	1.302487	0.219765	-0.473590
H71	H	1.456270	0.113548	-0.297890
H72	H	1.358050	-0.011545	-0.077511
H73	H	1.656368	-0.031882	0.630556
H74	H	1.345821	-0.338765	0.369542
H75	H	0.916200	0.009841	0.094191
H76	H	1.109070	-0.209187	-0.227626
H77	H	0.891729	-0.201439	-0.228150
H78	H	0.887874	-0.208745	0.228294
H79	H	1.088775	-0.358349	-0.135350
C80	C	1.121725	-0.188906	0.261526
C81	C	1.222510	-0.074894	0.249203
C82	C	1.277853	-0.008596	0.379660
C83	C	1.232411	-0.056308	0.522440
C84	C	1.131621	-0.170326	0.534769
C85	C	1.076277	-0.236624	0.404312
H86	H	1.256153	-0.039569	0.143503
H87	H	1.352465	0.075808	0.370532
H88	H	1.273380	-0.007230	0.619013
H89	H	1.097977	-0.205651	0.640469
H90	H	1.001665	-0.321028	0.413439
H91	H	1.090580	-0.356965	0.138941
C92	C	0.855560	-0.390112	0.130555
C93	C	0.937997	-0.501827	0.126506
C94	C	0.874140	-0.638015	0.127696
C95	C	0.727846	-0.662488	0.132935
C96	C	0.645401	-0.550770	0.136985
C97	C	0.709258	-0.414582	0.135795
H98	H	1.046300	-0.483713	0.122627
H99	H	0.935172	-0.720715	0.124698
H100	H	0.680576	-0.763302	0.133816
H101	H	0.537098	-0.568884	0.140864
H102	H	0.648225	-0.331882	0.138793
H103	H	0.871911	-0.351466	-0.136513
H104	H	1.713870	0.221117	0.000085
