data_functionalizedCrystal
_audit_creation_method	'MofGen! by Chris Wilmer'
_symmetry_space_group_name_H-M	'P1'
_symmetry_Int_Tables_number	1
_symmetry_cell_setting	triclinic
loop_
_symmetry_equiv_pos_as_xyz
  x,y,z
_cell_length_a	11.169416
_cell_length_b	13.032951
_cell_length_c	11.169409
_cell_angle_alpha	82.803040
_cell_angle_beta	90.031365
_cell_angle_gamma	97.187149
loop_
_atom_site_label
_atom_site_type_symbol
_atom_site_fract_x
_atom_site_fract_y
_atom_site_fract_z
Zn1	Zn	-0.711164	-1.597819	0.911362
Zn2	Zn	-0.377831	-1.264485	1.244695
Zn3	Zn	-0.044498	-0.931152	1.578028
Zn4	Zn	-0.911891	-1.597723	0.710668
Zn5	Zn	-0.578558	-1.264390	1.044002
Zn6	Zn	-0.245224	-0.931056	1.377335
Zn7	Zn	-0.685698	-1.423044	0.685231
Zn8	Zn	-0.352365	-1.089711	1.018564
Zn9	Zn	-0.019032	-0.756378	1.351897
Zn10	Zn	-0.886269	-1.423051	0.885862
Zn11	Zn	-0.552936	-1.089718	1.219196
Zn12	Zn	-0.219602	-0.756385	1.552529
O13	O	-0.798756	-1.510409	0.798281
O14	O	-0.465422	-1.177076	1.131614
O15	O	-0.132089	-0.843743	1.464947
O16	O	-0.759171	-1.744050	0.906057
O17	O	-0.425838	-1.410717	1.239390
O18	O	-0.092505	-1.077384	1.572723
O19	O	-0.881951	-1.574508	0.539338
O20	O	-0.548618	-1.241175	0.872671
O21	O	-0.215284	-0.907842	1.206004
O22	O	-0.521132	-1.446265	0.715253
O23	O	-0.187799	-1.112932	1.048587
O24	O	0.145534	-0.779599	1.381920
O25	O	-0.906644	-1.743980	0.758608
O26	O	-0.573311	-1.410647	1.091941
O27	O	-0.239978	-1.077313	1.425275
O28	O	-0.539842	-1.574672	0.881391
O29	O	-0.206509	-1.241338	1.214724
O30	O	0.126825	-0.908005	1.548058
O31	O	-0.715769	-1.446173	0.520649
O32	O	-0.382435	-1.112839	0.853982
O33	O	-0.049102	-0.779506	1.187315
O34	O	-0.690924	-1.276801	0.690528
O35	O	-0.357591	-0.943467	1.023861
O36	O	-0.024258	-0.610134	1.357194
O37	O	-0.862976	-1.446278	1.057201
O38	O	-0.529643	-1.112944	1.390534
O39	O	-0.196309	-0.779611	1.723868
O40	O	-0.838283	-1.276806	0.837931
O41	O	-0.504949	-0.943473	1.171264
O42	O	-0.171616	-0.610139	1.504598
O43	O	-0.734327	-1.574678	1.075935
O44	O	-0.400994	-1.241345	1.409269
O45	O	-0.067660	-0.908012	1.742602
O46	O	-1.076436	-1.574515	0.733882
O47	O	-0.743103	-1.241182	1.067216
O48	O	-0.409770	-0.907849	1.400549
O49	O	-1.057612	-1.446185	0.862597
O50	O	-0.724279	-1.112851	1.195930
O51	O	-0.390946	-0.779518	1.529263
C52	C	-0.759061	-1.238884	0.758703
C53	C	-0.425727	-0.905551	1.092036
C54	C	-0.092394	-0.572217	1.425369
C55	C	-0.742108	-1.122724	0.741799
C56	C	-0.408774	-0.789391	1.075133
C57	C	-0.075441	-0.456057	1.408466
C58	C	-0.807577	-1.070967	0.807086
C59	C	-0.474243	-0.737633	1.140420
C60	C	-0.140910	-0.404300	1.473753
C61	C	-0.790057	-0.950909	0.789618
C62	C	-0.456724	-0.617576	1.122951
C63	C	-0.123390	-0.284243	1.456284
C64	C	-1.110574	-1.510369	0.798263
C65	C	-0.777241	-1.177035	1.131596
C66	C	-0.443908	-0.843702	1.464930
C67	C	-1.243986	-1.510447	0.798310
C68	C	-0.910653	-1.177114	1.131643
C69	C	-0.577319	-0.843780	1.464976
C70	C	-0.485723	-1.510478	0.798329
C71	C	-0.152390	-1.177145	1.131662
C72	C	0.180943	-0.843812	1.464996
C73	C	-0.352328	-1.510508	0.798349
C74	C	-0.018994	-1.177175	1.131683
C75	C	0.314339	-0.843841	1.465016
C76	C	-0.798634	-1.510489	1.111335
C77	C	-0.465301	-1.177156	1.444668
C78	C	-0.131967	-0.843823	1.778002
C79	C	-0.798582	-1.510524	1.244740
C80	C	-0.465249	-1.177190	1.578073
C81	C	-0.131916	-0.843857	1.911407
C82	C	-0.838593	-0.782995	0.838006
C83	C	-0.505260	-0.449662	1.171339
C84	C	-0.171926	-0.116328	1.504673
C85	C	-0.855535	-0.899155	0.854914
C86	C	-0.522202	-0.565821	1.188247
C87	C	-0.188868	-0.232488	1.521581
C88	C	-0.798799	-1.510389	0.486453
C89	C	-0.465466	-1.177056	0.819786
C90	C	-0.132132	-0.843723	1.153120
C91	C	-0.798542	-1.510558	0.353078
C92	C	-0.465209	-1.177224	0.686412
C93	C	-0.131876	-0.843891	1.019745
H94	H	-0.924554	-0.943720	0.923753
H95	H	-0.591221	-0.610386	1.257087
H96	H	-0.257887	-0.277053	1.590420
Br97	Br	-0.674997	-0.876638	0.674901
Br98	Br	-0.341664	-0.543304	1.008235
Br99	Br	-0.008331	-0.209971	1.341568
Br100	Br	-0.922625	-1.145242	0.921805
Br101	Br	-0.589291	-0.811909	1.255138
Br102	Br	-0.255958	-0.478576	1.588471
Br103	Br	-0.627053	-1.048448	0.627088
Br104	Br	-0.293720	-0.715115	0.960421
Br105	Br	0.039613	-0.381782	1.293754
