data_functionalizedCrystal
_audit_creation_method	'MofGen! by Chris Wilmer'
_symmetry_space_group_name_H-M	'P1'
_symmetry_Int_Tables_number	1
_symmetry_cell_setting	triclinic
loop_
_symmetry_equiv_pos_as_xyz
  x,y,z
_cell_length_a	12.759401
_cell_length_b	13.897447
_cell_length_c	12.759393
_cell_angle_alpha	89.969252
_cell_angle_beta	89.981266
_cell_angle_gamma	90.019691
loop_
_atom_site_label
_atom_site_type_symbol
_atom_site_fract_x
_atom_site_fract_y
_atom_site_fract_z
Zn1	Zn	1.606223	-0.383966	-0.593978
Zn2	Zn	1.606101	-0.545292	-0.418296
Zn3	Zn	1.430524	-0.384013	-0.418317
Zn4	Zn	1.430498	-0.545222	-0.593938
O5	O	1.518337	-0.464623	-0.506132
O6	O	1.753228	-0.405377	-0.570681
O7	O	1.582771	-0.523947	-0.271278
O8	O	1.453892	-0.249025	-0.441644
O9	O	1.753138	-0.523902	-0.441609
O10	O	1.582977	-0.248991	-0.570701
O11	O	1.453774	-0.405456	-0.271293
O12	O	1.283499	-0.405388	-0.441605
O13	O	1.453849	-0.523782	-0.740964
O14	O	1.283481	-0.523827	-0.570633
O15	O	1.582952	-0.405308	-0.740993
O16	O	1.582746	-0.680264	-0.441570
O17	O	1.453731	-0.680213	-0.570613
C18	C	1.245369	-0.464606	-0.506118
C19	C	1.128593	-0.464621	-0.506137
C20	C	1.073748	-0.526391	-0.573210
C21	C	0.964024	-0.526403	-0.573222
C22	C	0.963998	-0.402873	-0.439077
C23	C	1.073720	-0.402857	-0.439072
C24	C	1.128620	-0.588156	-0.640275
C25	C	1.073776	-0.649932	-0.707354
C26	C	0.964052	-0.649944	-0.707365
C27	C	0.909172	-0.588180	-0.640298
C28	C	1.518251	-0.715238	-0.506108
C29	C	1.518311	-0.822452	-0.506132
C30	C	1.518361	-0.909521	-0.506156
C31	C	1.518435	-1.018754	-0.506183
C32	C	1.792370	-0.464642	-0.506147
C33	C	1.909146	-0.464650	-0.506153
C34	C	1.518411	-0.464532	-0.780166
C35	C	1.518443	-0.464493	-0.896942
C36	C	1.518451	-0.213030	-0.506180
C37	C	1.518500	-0.105816	-0.506200
C38	C	1.585696	-0.402748	-1.061546
C39	C	1.585673	-0.402791	-0.951822
C40	C	1.451238	-0.526164	-0.951792
C41	C	1.451267	-0.526125	-1.061514
C42	C	1.652923	-0.341035	-1.116420
C43	C	1.720129	-0.279365	-1.061578
C44	C	1.720107	-0.279408	-0.951854
C45	C	1.652878	-0.341120	-0.896972
C46	C	1.518323	-0.464645	-0.233165
C47	C	1.518494	-0.464412	-0.116389
H48	H	0.819827	-0.588187	-0.640322
F49	F	0.905685	-0.715682	-0.778762
H50	H	0.919307	-0.352589	-0.384473
F51	F	1.379691	-0.591834	-0.893380
H52	H	1.217963	-0.588155	-0.640272
H53	H	1.652946	-0.340991	-1.205763
F54	F	1.379743	-0.591754	-1.119885
H55	H	1.118466	-0.700211	-0.761963
H56	H	1.118376	-0.352551	-0.384462
H57	H	1.774870	-0.229127	-1.106270
H58	H	1.774836	-0.229200	-0.907204
H59	H	1.652873	-0.341157	-0.807627
