data_functionalizedCrystal
_audit_creation_method	'MofGen! by Chris Wilmer'
_symmetry_space_group_name_H-M	'P1'
_symmetry_Int_Tables_number	1
_symmetry_cell_setting	triclinic
loop_
_symmetry_equiv_pos_as_xyz
  x,y,z
_cell_length_a	17.640112
_cell_length_b	25.639239
_cell_length_c	17.640968
_cell_angle_alpha	78.768889
_cell_angle_beta	92.139080
_cell_angle_gamma	101.263838
loop_
_atom_site_label
_atom_site_type_symbol
_atom_site_fract_x
_atom_site_fract_y
_atom_site_fract_z
Zn1	Zn	1.247772	-0.015023	-0.195080
Zn2	Zn	1.581105	0.318310	0.138253
Zn3	Zn	1.914439	0.651643	0.471587
Zn4	Zn	1.221957	-0.122899	-0.068099
Zn5	Zn	1.555290	0.210434	0.265235
Zn6	Zn	1.888623	0.543767	0.598568
Zn7	Zn	1.095090	-0.049036	-0.093726
Zn8	Zn	1.428423	0.284298	0.239607
Zn9	Zn	1.761756	0.617631	0.572940
Zn10	Zn	1.120701	-0.116017	-0.220680
Zn11	Zn	1.454034	0.217317	0.112653
Zn12	Zn	1.787367	0.550650	0.445986
O13	O	1.171380	-0.075744	-0.144396
O14	O	1.504713	0.257590	0.188937
O15	O	1.838046	0.590923	0.522270
O16	O	1.350622	-0.017980	-0.156797
O17	O	1.683955	0.315354	0.176537
O18	O	2.017288	0.648687	0.509870
O19	O	1.183606	-0.130216	0.034775
O20	O	1.516939	0.203117	0.368108
O21	O	1.850272	0.536451	0.701441
O22	O	1.115429	0.028654	-0.107183
O23	O	1.448762	0.361988	0.226151
O24	O	1.782095	0.695321	0.559484
O25	O	1.331655	-0.097236	-0.063504
O26	O	1.664989	0.236098	0.269830
O27	O	1.998322	0.569431	0.603163
O28	O	1.227604	0.053643	-0.181647
O29	O	1.560937	0.386976	0.151687
O30	O	1.894270	0.720310	0.485020
O31	O	1.090397	-0.075949	0.015946
O32	O	1.423730	0.257385	0.349279
O33	O	1.757064	0.590718	0.682613
O34	O	0.992213	-0.069275	-0.132006
O35	O	1.325546	0.264058	0.201327
O36	O	1.658880	0.597392	0.534660
O37	O	1.159079	-0.085505	-0.323557
O38	O	1.492412	0.247828	0.009776
O39	O	1.825746	0.581162	0.343109
O40	O	1.011029	-0.118485	-0.225279
O41	O	1.344362	0.214848	0.108054
O42	O	1.677696	0.548181	0.441388
O43	O	1.252438	-0.011306	-0.304749
O44	O	1.585771	0.322028	0.028584
O45	O	1.919104	0.655361	0.361918
O46	O	1.208439	-0.195165	-0.088327
O47	O	1.541773	0.138169	0.245006
O48	O	1.875106	0.471502	0.578339
O49	O	1.134047	-0.190108	-0.200429
O50	O	1.467380	0.143225	0.132905
O51	O	1.800714	0.476559	0.466238
C52	C	0.974065	-0.096824	-0.184202
C53	C	1.307399	0.236509	0.149131
C54	C	1.640732	0.569842	0.482465
C55	C	0.889657	-0.105852	-0.201249
C56	C	1.222990	0.227481	0.132084
C57	C	1.556324	0.560814	0.465418
C58	C	0.563036	-0.007149	-0.014898
C59	C	0.896369	0.326185	0.318435
C60	C	1.229703	0.659518	0.651769
C61	C	0.483724	-0.015641	-0.030927
C62	C	0.817057	0.317693	0.302407
C63	C	1.150390	0.651026	0.635740
C64	C	0.503337	-0.067003	-0.127884
C65	C	0.836671	0.266331	0.205449
C66	C	1.170004	0.599664	0.538783
C67	C	0.582654	-0.058513	-0.111866
C68	C	0.915987	0.274821	0.221467
C69	C	1.249320	0.608154	0.554801
C70	C	0.612496	-0.028586	-0.055372
C71	C	0.945829	0.304748	0.277962
C72	C	1.279163	0.638081	0.611295
C73	C	0.632114	-0.079950	-0.152340
C74	C	0.965447	0.253384	0.180994
C75	C	1.298780	0.586717	0.514327
C76	C	0.711422	-0.071463	-0.136320
C77	C	1.044756	0.261871	0.197013
C78	C	1.378089	0.595204	0.530346
C79	C	0.741271	-0.041538	-0.079827
C80	C	1.074604	0.291795	0.253506
C81	C	1.407938	0.625128	0.586840
C82	C	0.691805	-0.020099	-0.039352
C83	C	1.025138	0.313235	0.293981
C84	C	1.358471	0.646568	0.627314
C85	C	0.602269	-0.109880	-0.208830
C86	C	0.935602	0.223454	0.124503
C87	C	1.268935	0.556787	0.457837
C88	C	0.651729	-0.131317	-0.249304
C89	C	0.985062	0.202016	0.084030
C90	C	1.318396	0.535350	0.417363
C91	C	0.731040	-0.122827	-0.233288
C92	C	1.064373	0.210507	0.100045
C93	C	1.397707	0.543840	0.433378
C94	C	0.760888	-0.092902	-0.176795
C95	C	1.094222	0.240431	0.156538
C96	C	1.427555	0.573764	0.489872
C97	C	0.780506	-0.144266	-0.273763
C98	C	1.113839	0.189067	0.059570
C99	C	1.447173	0.522400	0.392904
C100	C	0.859815	-0.135779	-0.257743
C101	C	1.193148	0.197554	0.075590
C102	C	1.526481	0.530887	0.408923
C103	C	0.840197	-0.084415	-0.160775
C104	C	1.173530	0.248918	0.172558
C105	C	1.506864	0.582251	0.505891
C106	C	1.171245	-0.211606	-0.144387
C107	C	1.504578	0.121728	0.188946
C108	C	1.837912	0.455061	0.522279
C109	C	1.171262	-0.269716	-0.144395
C110	C	1.504595	0.063617	0.188938
C111	C	1.837929	0.396950	0.522272
C112	C	1.210259	-0.632657	-0.086082
C113	C	1.543593	-0.299324	0.247251
C114	C	1.876926	0.034010	0.580584
C115	C	1.210291	-0.687257	-0.086087
C116	C	1.543624	-0.353923	0.247247
C117	C	1.876957	-0.020590	0.580580
O118	O	1.243308	-0.717705	-0.036496
O119	O	1.576641	-0.384372	0.296837
O120	O	1.909974	-0.051039	0.630171
N121	N	1.171523	-0.711960	-0.144420
N122	N	1.504857	-0.378627	0.188914
N123	N	1.838190	-0.045294	0.522247
C124	C	1.132728	-0.682060	-0.202757
C125	C	1.466062	-0.348727	0.130577
C126	C	1.799395	-0.015394	0.463910
O127	O	1.099757	-0.708086	-0.252374
O128	O	1.433091	-0.374753	0.080959
O129	O	1.766424	-0.041420	0.414292
C130	C	1.132702	-0.627461	-0.202755
C131	C	1.466035	-0.294128	0.130578
C132	C	1.799369	0.039206	0.463912
C133	C	1.171465	-0.602761	-0.144414
C134	C	1.504799	-0.269428	0.188920
C135	C	1.838132	0.063905	0.522253
C136	C	1.249020	-0.607957	-0.027746
C137	C	1.582354	-0.274624	0.305587
C138	C	1.915687	0.058710	0.638920
C139	C	1.248988	-0.553362	-0.027742
C140	C	1.582321	-0.220028	0.305592
C141	C	1.915654	0.113305	0.638925
C142	C	1.210194	-0.523466	-0.086073
C143	C	1.543527	-0.190133	0.247260
C144	C	1.876860	0.143201	0.580594
C145	C	1.171433	-0.548166	-0.144409
C146	C	1.504766	-0.214833	0.188924
C147	C	1.838099	0.118501	0.522258
C148	C	1.093912	-0.597561	-0.261094
C149	C	1.427246	-0.264228	0.072239
C150	C	1.760579	0.069106	0.405572
C151	C	1.093890	-0.542958	-0.261088
C152	C	1.427223	-0.209624	0.072245
C153	C	1.760556	0.123709	0.405579
C154	C	1.132653	-0.518258	-0.202747
C155	C	1.465986	-0.184925	0.130587
C156	C	1.799320	0.148408	0.463920
C157	C	1.132606	-0.463675	-0.202735
C158	C	1.465939	-0.130342	0.130598
C159	C	1.799273	0.202992	0.463931
N160	N	1.171373	-0.438971	-0.144402
N161	N	1.504707	-0.105638	0.188931
N162	N	1.838040	0.227696	0.522264
C163	C	1.210167	-0.468867	-0.086071
C164	C	1.543501	-0.135533	0.247262
C165	C	1.876834	0.197800	0.580596
C166	C	1.132788	-0.796723	-0.202757
C167	C	1.466121	-0.463390	0.130576
C168	C	1.799455	-0.130056	0.463910
C169	C	1.132809	-0.851323	-0.202756
C170	C	1.466143	-0.517989	0.130577
C171	C	1.799476	-0.184656	0.463910
C172	C	1.210373	-0.856515	-0.086087
C173	C	1.543706	-0.523181	0.247247
C174	C	1.877040	-0.189848	0.580580
C175	C	1.210347	-0.801915	-0.086085
C176	C	1.543680	-0.468582	0.247248
C177	C	1.877013	-0.135248	0.580582
C178	C	1.171556	-0.772019	-0.144424
C179	C	1.504889	-0.438686	0.188909
C180	C	1.838222	-0.105352	0.522243
C181	C	1.210095	-0.354212	-0.086065
C182	C	1.543428	-0.020879	0.247268
C183	C	1.876761	0.312455	0.580602
C184	C	1.210056	-0.299612	-0.086064
C185	C	1.543389	0.033721	0.247270
C186	C	1.876722	0.367055	0.580603
C187	C	1.132496	-0.294424	-0.202735
C188	C	1.465829	0.038909	0.130598
C189	C	1.799162	0.372243	0.463932
C190	C	1.132531	-0.349020	-0.202735
C191	C	1.465864	-0.015687	0.130599
C192	C	1.799198	0.317647	0.463932
C193	C	1.171336	-0.378912	-0.144396
C194	C	1.504670	-0.045579	0.188938
C195	C	1.838003	0.287754	0.522271
O196	O	1.099609	-0.433192	-0.252303
O197	O	1.432942	-0.099859	0.081031
O198	O	1.766275	0.233475	0.414364
O199	O	1.243141	-0.442832	-0.036467
O200	O	1.576475	-0.109498	0.296866
O201	O	1.909808	0.223835	0.630199
C202	C	1.369465	-0.054581	-0.104436
C203	C	1.702798	0.278752	0.228898
C204	C	2.036131	0.612085	0.562231
C205	C	1.453877	-0.045563	-0.087407
C206	C	1.787210	0.287770	0.245926
C207	C	2.120543	0.621104	0.579260
C208	C	1.211495	-0.043844	-0.342479
C209	C	1.544828	0.289490	-0.009146
C210	C	1.878161	0.622823	0.324188
C211	C	1.228589	-0.030250	-0.426890
C212	C	1.561923	0.303084	-0.093557
C213	C	1.895256	0.636417	0.239777
C214	C	1.171539	0.060653	-0.144418
C215	C	1.504872	0.393987	0.188915
C216	C	1.838206	0.727320	0.522249
C217	C	1.171607	0.118778	-0.144427
C218	C	1.504940	0.452111	0.188906
C219	C	1.838274	0.785444	0.522240
C220	C	1.041806	-0.178700	-0.753464
C221	C	1.375139	0.154633	-0.420131
C222	C	1.708472	0.487966	-0.086798
C223	C	1.057885	-0.165918	-0.832778
C224	C	1.391218	0.167415	-0.499445
C225	C	1.724551	0.500748	-0.166111
C226	C	1.155091	-0.088661	-0.813184
C227	C	1.488424	0.244672	-0.479851
C228	C	1.821757	0.578006	-0.146517
C229	C	1.139017	-0.101435	-0.733867
C230	C	1.472351	0.231898	-0.400534
C231	C	1.805684	0.565232	-0.067201
C232	C	1.082375	-0.146456	-0.704014
C233	C	1.415708	0.186878	-0.370681
C234	C	1.749041	0.520211	-0.037347
C235	C	1.179586	-0.069190	-0.684417
C236	C	1.512920	0.264143	-0.351084
C237	C	1.846253	0.597476	-0.017751
C238	C	1.163517	-0.081965	-0.605107
C239	C	1.496850	0.251368	-0.271774
C240	C	1.830183	0.584701	0.061559
C241	C	1.106878	-0.126985	-0.575247
C242	C	1.440212	0.206349	-0.241914
C243	C	1.773545	0.539682	0.091419
C244	C	1.066305	-0.159230	-0.624704
C245	C	1.399638	0.174103	-0.291371
C246	C	1.732972	0.507436	0.041963
C247	C	1.236233	-0.024172	-0.714271
C248	C	1.569566	0.309161	-0.380938
C249	C	1.902899	0.642494	-0.047605
C250	C	1.276802	0.008072	-0.664821
C251	C	1.610135	0.341406	-0.331488
C252	C	1.943468	0.674739	0.001845
C253	C	1.260728	-0.004700	-0.585510
C254	C	1.594062	0.328633	-0.252177
C255	C	1.927395	0.661967	0.081156
C256	C	1.204090	-0.049719	-0.555650
C257	C	1.537423	0.283614	-0.222317
C258	C	1.870757	0.616947	0.111016
C259	C	1.301302	0.027546	-0.536054
C260	C	1.634635	0.360879	-0.202720
C261	C	1.967968	0.694212	0.130613
C262	C	1.285232	0.014771	-0.456743
C263	C	1.618565	0.348104	-0.123410
C264	C	1.951899	0.681438	0.209923
C265	C	1.188020	-0.062494	-0.476340
C266	C	1.521354	0.270839	-0.143007
C267	C	1.854687	0.604172	0.190326
C268	C	1.131465	-0.107478	0.052925
C269	C	1.464798	0.225856	0.386258
C270	C	1.798131	0.559189	0.719591
C271	C	1.114517	-0.120908	0.137365
C272	C	1.447851	0.212425	0.470698
C273	C	1.781184	0.545758	0.804031
H274	H	0.587337	0.017230	0.031094
H275	H	0.920671	0.350564	0.364427
H276	H	1.254004	0.683897	0.697761
Cl277	Cl	1.297736	-0.522316	0.045597
Cl278	Cl	1.631069	-0.188983	0.378930
Cl279	Cl	1.964402	0.144351	0.712263
Cl280	Cl	1.083734	-0.256830	-0.276065
Cl281	Cl	1.417067	0.076504	0.057268
Cl282	Cl	1.750400	0.409837	0.390602
Cl283	Cl	1.259142	-0.894108	-0.012754
Cl284	Cl	1.592475	-0.560775	0.320579
Cl285	Cl	1.925808	-0.227442	0.653912
Cl286	Cl	1.336236	0.055306	-0.394573
Cl287	Cl	1.669569	0.388639	-0.061240
Cl288	Cl	2.002903	0.721973	0.272094
H289	H	1.241696	-0.378544	-0.038561
H290	H	1.575029	-0.045210	0.294772
H291	H	1.908362	0.288123	0.628105
H292	H	0.864498	-0.060036	-0.114783
H293	H	1.197832	0.273297	0.218550
H294	H	1.531165	0.606630	0.551883
Cl295	Cl	0.729328	0.017529	0.031665
Cl296	Cl	1.062662	0.350862	0.364999
Cl297	Cl	1.395995	0.684196	0.698332
Cl298	Cl	0.502563	-0.120557	-0.228959
Cl299	Cl	0.835896	0.212776	0.104374
Cl300	Cl	1.169230	0.546109	0.437707
H301	H	0.900087	-0.153235	-0.290702
H302	H	1.233420	0.180098	0.042631
H303	H	1.566754	0.513432	0.375965
Cl304	Cl	1.045188	-0.628596	-0.334450
Cl305	Cl	1.378522	-0.295262	-0.001117
Cl306	Cl	1.711855	0.038071	0.332217
H307	H	1.347425	0.064198	-0.560372
H308	H	1.680759	0.397532	-0.227038
H309	H	2.014092	0.730865	0.106295
Cl310	Cl	0.840974	-0.030871	-0.059683
Cl311	Cl	1.174307	0.302462	0.273651
Cl312	Cl	1.507640	0.635795	0.606984
H313	H	1.201211	-0.052007	-0.837501
H314	H	1.534545	0.281327	-0.504168
H315	H	1.867878	0.614660	-0.170835
H316	H	1.020163	-0.195880	-0.600400
H317	H	1.353496	0.137453	-0.267066
H318	H	1.686829	0.470787	0.066267
H319	H	1.249316	-0.013774	-0.778851
H320	H	1.582650	0.319560	-0.445518
H321	H	1.915983	0.652893	-0.112184
Cl322	Cl	1.258791	-0.268565	-0.012715
Cl323	Cl	1.592124	0.064768	0.320618
Cl324	Cl	1.925458	0.398102	0.653952
H325	H	0.443456	0.001823	0.002031
H326	H	0.776789	0.335156	0.335364
H327	H	1.110122	0.668489	0.668698
Cl328	Cl	1.348009	0.064666	-0.702359
Cl329	Cl	1.681342	0.398000	-0.369026
Cl330	Cl	2.014675	0.731333	-0.035692
H331	H	1.100970	-0.369130	-0.250243
H332	H	1.434303	-0.035797	0.083091
H333	H	1.767636	0.297536	0.416424
Cl334	Cl	1.116804	-0.119089	-0.438806
Cl335	Cl	1.450138	0.214245	-0.105472
Cl336	Cl	1.783471	0.547578	0.227861
Cl337	Cl	0.614203	-0.168945	-0.320313
Cl338	Cl	0.947536	0.164388	0.013020
Cl339	Cl	1.280869	0.497721	0.346353
H340	H	1.062302	-0.518618	-0.308597
H341	H	1.395636	-0.185285	0.024737
H342	H	1.728969	0.148048	0.358070
H343	H	1.101236	-0.871430	-0.250258
H344	H	1.434569	-0.538097	0.083075
H345	H	1.767902	-0.204763	0.416409
Cl346	Cl	0.465811	-0.104631	-0.198894
Cl347	Cl	0.799145	0.228702	0.134440
Cl348	Cl	1.132478	0.562035	0.467773
H349	H	0.756195	-0.168637	-0.319755
H350	H	1.089528	0.164696	0.013578
H351	H	1.422861	0.498029	0.346912
H352	H	1.280615	-0.632292	0.019755
H353	H	1.613948	-0.298959	0.353088
H354	H	1.947282	0.034374	0.686422
H355	H	1.241912	-0.781808	-0.038579
H356	H	1.575245	-0.448475	0.294754
H357	H	1.908578	-0.115141	0.628088
H358	H	1.101193	-0.772385	-0.250263
H359	H	1.434526	-0.439052	0.083071
H360	H	1.767860	-0.105718	0.416404
Cl361	Cl	1.086679	-0.143048	-0.475541
Cl362	Cl	1.420012	0.190286	-0.142208
Cl363	Cl	1.753345	0.523619	0.191126
H364	H	0.995663	-0.215350	-0.729160
H365	H	1.328997	0.117983	-0.395827
H366	H	1.662330	0.451317	-0.062493
H367	H	1.024844	-0.192179	-0.873039
H368	H	1.358178	0.141154	-0.539706
H369	H	1.691511	0.474487	-0.206373
