data_functionalizedCrystal
_audit_creation_method	'MofGen! by Chris Wilmer'
_symmetry_space_group_name_H-M	'P1'
_symmetry_Int_Tables_number	1
_symmetry_cell_setting	triclinic
loop_
_symmetry_equiv_pos_as_xyz
  x,y,z
_cell_length_a	19.805407
_cell_length_b	14.908520
_cell_length_c	19.805398
_cell_angle_alpha	93.269215
_cell_angle_beta	89.986879
_cell_angle_gamma	93.320773
loop_
_atom_site_label
_atom_site_type_symbol
_atom_site_fract_x
_atom_site_fract_y
_atom_site_fract_z
Zn1	Zn	1.019159	-0.359172	-0.398269
Zn2	Zn	1.519159	0.140828	0.101731
Zn3	Zn	1.012562	-0.510040	-0.291612
Zn4	Zn	1.512562	-0.010040	0.208388
Zn5	Zn	0.905985	-0.359199	-0.285095
Zn6	Zn	1.405985	0.140801	0.214905
Zn7	Zn	0.899415	-0.509989	-0.404757
Zn8	Zn	1.399415	-0.009989	0.095243
O9	O	0.959280	-0.434600	-0.344933
O10	O	1.459280	0.065400	0.155067
O11	O	1.113000	-0.379194	-0.384133
O12	O	1.613000	0.120806	0.115867
O13	O	0.998413	-0.490063	-0.196032
O14	O	1.498413	0.009937	0.303968
O15	O	0.926509	-0.232951	-0.294665
O16	O	1.426509	0.267049	0.205335
O17	O	1.108153	-0.490037	-0.305773
O18	O	1.608153	0.009963	0.194227
O19	O	1.009657	-0.232930	-0.377813
O20	O	1.509657	0.267070	0.122187
O21	O	0.920112	-0.379241	-0.191244
O22	O	1.420112	0.120759	0.308756
O23	O	0.810398	-0.379192	-0.300956
O24	O	1.310398	0.120808	0.199044
O25	O	0.915310	-0.489950	-0.498611
O26	O	1.415310	0.010050	0.001389
O27	O	0.805570	-0.489977	-0.388871
O28	O	1.305570	0.010023	0.111129
O29	O	1.003286	-0.379145	-0.493845
O30	O	1.503286	0.120855	0.006155
O31	O	0.992042	-0.636278	-0.312064
O32	O	1.492042	-0.136278	0.187936
O33	O	0.908913	-0.636241	-0.395191
O34	O	1.408913	-0.136241	0.104809
C35	C	0.783425	-0.434583	-0.344911
C36	C	1.283425	0.065417	0.155089
C37	C	0.708192	-0.434597	-0.344918
C38	C	1.208192	0.065403	0.155082
C39	C	0.670349	-0.492370	-0.390629
C40	C	1.170349	0.007630	0.109371
C41	C	0.599660	-0.492371	-0.390639
C42	C	1.099660	0.007629	0.109361
C43	C	0.566817	-0.434604	-0.344933
C44	C	1.066817	0.065396	0.155067
C45	C	0.604666	-0.376825	-0.299220
C46	C	1.104666	0.123175	0.200780
C47	C	0.675353	-0.376820	-0.299214
C48	C	1.175353	0.123180	0.200786
C49	C	0.319591	-0.376845	-0.299243
C50	C	0.819591	0.123155	0.200757
C51	C	0.248899	-0.376857	-0.299251
C52	C	0.748899	0.123143	0.200749
C53	C	0.243899	-0.492397	-0.390668
C54	C	0.743899	0.007603	0.109332
C55	C	0.314586	-0.492391	-0.390662
C56	C	0.814586	0.007609	0.109338
C57	C	0.352429	-0.434609	-0.344951
C58	C	0.852429	0.065391	0.155049
C59	C	0.429077	-0.434607	-0.344942
C60	C	0.929077	0.065393	0.155058
C61	C	0.490169	-0.434610	-0.344939
C62	C	0.990169	0.065390	0.155061
C63	C	0.949067	-0.668994	-0.355053
C64	C	1.449067	-0.168994	0.144947
C65	C	0.944760	-0.769268	-0.359405
C66	C	1.444760	-0.269268	0.140595
C67	C	1.023317	-0.957672	-0.281093
C68	C	1.523317	-0.457672	0.218907
C69	C	1.019272	-1.051889	-0.285180
C70	C	1.519272	-0.551889	0.214820
C71	C	0.932629	-1.051920	-0.371669
C72	C	1.432629	-0.551920	0.128331
C73	C	0.936674	-0.957704	-0.367582
C74	C	1.436674	-0.457704	0.132418
C75	C	0.982019	-0.910583	-0.322292
C76	C	1.482019	-0.410583	0.177708
C77	C	0.986060	-0.816364	-0.318202
C78	C	1.486060	-0.316364	0.181798
C79	C	0.899421	-0.816397	-0.404694
C80	C	1.399421	-0.316397	0.095306
C81	C	0.895376	-0.910614	-0.408781
C82	C	1.395376	-0.410614	0.091219
C83	C	1.135822	-0.434618	-0.344956
C84	C	1.635822	0.065382	0.155044
C85	C	1.211054	-0.434626	-0.344966
C86	C	1.711054	0.065374	0.155034
C87	C	0.959301	-0.434539	-0.521473
C88	C	1.459301	0.065461	-0.021473
C89	C	0.959310	-0.434513	-0.596704
C90	C	1.459310	0.065487	-0.096704
C91	C	0.969552	-0.199291	-0.334788
C92	C	1.469552	0.300709	0.165212
C93	C	0.973929	-0.099017	-0.330465
C94	C	1.473929	0.400983	0.169535
C95	C	1.000194	-0.492075	-1.060980
C96	C	1.500194	0.007925	-0.560980
C97	C	1.000175	-0.492099	-0.990293
C98	C	1.500175	0.007901	-0.490293
C99	C	0.959398	-0.434411	-0.952462
C100	C	1.459398	0.065589	-0.452462
C101	C	0.918634	-0.376702	-0.985322
C102	C	1.418634	0.123298	-0.485322
C103	C	0.918651	-0.376682	-1.056008
C104	C	1.418651	0.123318	-0.556008
C105	C	0.918565	-0.376779	-0.700252
C106	C	1.418565	0.123221	-0.200252
C107	C	0.918553	-0.376801	-0.629561
C108	C	1.418553	0.123199	-0.129561
C109	C	1.000089	-0.492196	-0.634536
C110	C	1.500089	0.007804	-0.134536
C111	C	1.000106	-0.492176	-0.705223
C112	C	1.500106	0.007824	-0.205223
C113	C	0.959339	-0.434471	-0.738077
C114	C	1.459339	0.065529	-0.238077
C115	C	0.959360	-0.434446	-0.814724
C116	C	1.459360	0.065554	-0.314724
C117	C	0.959380	-0.434431	-0.875815
C118	C	1.459380	0.065569	-0.375815
C119	C	0.959301	-0.434596	-0.169077
C120	C	1.459301	0.065404	0.330923
C121	C	0.959435	-0.434368	-0.093836
C122	C	1.459435	0.065632	0.406164
H123	H	0.568850	-0.539416	-0.427861
H124	H	1.068850	-0.039416	0.072139
H125	H	1.022980	-0.777999	-0.281323
H126	H	1.522980	-0.277999	0.218677
H127	H	0.885370	-0.329793	-0.726993
H128	H	1.385370	0.170207	-0.226993
H129	H	0.865791	-0.778046	-0.438239
H130	H	1.365791	-0.278046	0.061761
Cl131	Cl	0.867382	-0.304167	-0.937762
Cl132	Cl	1.367382	0.195833	-0.437762
Cl133	Cl	1.051338	-0.564744	-0.593230
Cl134	Cl	1.551338	-0.064744	-0.093230
H135	H	0.895716	-1.090302	-0.408546
H136	H	1.395716	-0.590302	0.091454
Cl137	Cl	0.563377	-0.304197	-0.241766
Cl138	Cl	1.063377	0.195803	0.258234
H139	H	1.033402	-0.539047	-1.091777
H140	H	1.533402	-0.039047	-0.591777
H141	H	0.885346	-0.329822	-0.598760
H142	H	1.385346	0.170178	-0.098760
H143	H	0.885461	-0.329690	-1.082758
H144	H	1.385461	0.170310	-0.582758
Cl145	Cl	1.051370	-0.564700	-0.752778
Cl146	Cl	1.551370	-0.064700	-0.252778
H147	H	1.060234	-0.919306	-0.244211
H148	H	1.560234	-0.419306	0.255789
Cl149	Cl	0.722928	-0.304186	-0.241748
Cl150	Cl	1.222928	0.195814	0.258252
H151	H	0.213078	-0.539442	-0.427890
H152	H	0.713078	-0.039442	0.072110
Cl153	Cl	0.711630	-0.565000	-0.448087
Cl154	Cl	1.211630	-0.065000	0.051913
Cl155	Cl	1.051419	-0.564647	-0.948992
Cl156	Cl	1.551419	-0.064647	-0.448992
H157	H	0.341323	-0.539434	-0.427878
H158	H	0.841323	-0.039434	0.072122
Cl159	Cl	0.207611	-0.304228	-0.241790
Cl160	Cl	0.707611	0.195772	0.258210
H161	H	0.350395	-0.329803	-0.262018
H162	H	0.850395	0.170197	0.237982
H163	H	1.052903	-1.090226	-0.251633
H164	H	1.552903	-0.590226	0.248367
Cl165	Cl	0.838376	-0.969860	-0.465716
Cl166	Cl	1.338376	-0.469860	0.034284
