data_functionalizedCrystal
_audit_creation_method	'MofGen! by Chris Wilmer'
_symmetry_space_group_name_H-M	'P1'
_symmetry_Int_Tables_number	1
_symmetry_cell_setting	triclinic
loop_
_symmetry_equiv_pos_as_xyz
  x,y,z
_cell_length_a	31.640172
_cell_length_b	20.919151
_cell_length_c	20.919292
_cell_angle_alpha	60.191315
_cell_angle_beta	93.150133
_cell_angle_gamma	58.208797
loop_
_atom_site_label
_atom_site_type_symbol
_atom_site_fract_x
_atom_site_fract_y
_atom_site_fract_z
Zr1	Zr	0.375625	0.741680	-0.125057
O2	O	0.298983	0.883067	-0.235098
O3	O	0.402886	0.600303	-0.085902
O4	O	0.392592	0.741679	-0.227285
O5	O	0.313111	0.741688	0.011642
O6	O	0.462149	0.741668	-0.227289
O7	O	0.309276	0.741691	-0.093716
O8	O	0.480562	0.488771	0.025619
O9	O	0.294699	0.994585	-0.241266
O10	O	0.461871	0.658441	-0.075756
O11	O	0.412824	0.658448	0.002874
O12	O	0.400705	0.824901	-0.163585
O13	O	0.351658	0.824907	-0.084955
Zr14	Zr	0.492676	0.741658	0.042971
Zr15	Zr	0.486559	0.741662	-0.125063
Zr16	Zr	0.381741	0.741676	0.042977
Zr17	Zr	0.368792	0.919538	-0.134893
Zr18	Zr	0.499509	0.563800	0.052807
O19	O	0.465415	0.883035	0.003816
O20	O	0.456718	0.883041	-0.235107
O21	O	0.307680	0.883061	0.003824
O22	O	0.569318	0.600271	0.153012
O23	O	0.560620	0.600277	-0.085910
O24	O	0.411583	0.600297	0.153020
O25	O	0.555189	0.741650	-0.093729
O26	O	0.475708	0.741659	0.145199
O27	O	0.406152	0.741670	0.145202
O28	O	0.559024	0.741647	0.011630
O29	O	0.382877	0.994570	-0.241270
O30	O	0.485424	0.488768	0.159184
O31	O	0.573602	0.488753	0.159179
O32	O	0.568740	0.488757	0.025615
O33	O	0.299561	0.994581	-0.107701
O34	O	0.387739	0.994567	-0.107705
O35	O	0.467595	0.658437	0.081499
O36	O	0.516643	0.658431	0.002869
O37	O	0.455477	0.824890	-0.084961
O38	O	0.406429	0.824897	-0.006330
C39	C	0.442697	0.519196	-0.028740
C40	C	0.445598	0.443691	-0.024565
C41	C	0.404165	0.469684	-0.084055
C42	C	0.406891	0.398752	-0.080160
C43	C	0.451047	0.301828	-0.016771
C44	C	0.492484	0.275835	0.042723
C45	C	0.489760	0.346766	0.038824
C46	C	0.461415	0.084586	-0.001927
C47	C	0.464135	0.013654	0.001968
C48	C	0.378543	0.136576	-0.120915
C49	C	0.375821	0.207503	-0.124806
C50	C	0.417258	0.181505	-0.065315
C51	C	0.453834	0.229322	-0.012786
C52	C	0.414474	0.254010	-0.069303
C53	C	0.295388	0.741692	-0.041036
C54	C	0.248293	0.741700	-0.041033
C55	C	-0.045823	0.741653	-0.099083
C56	C	-0.222810	0.741641	-0.099088
O57	O	-0.247477	0.741600	-0.148430
N58	N	-0.242828	0.741642	-0.041047
C59	C	-0.218594	0.741639	0.017004
O60	O	-0.239678	0.741629	0.066377
C61	C	-0.041606	0.741644	0.017012
C62	C	-0.021594	0.741653	-0.041039
C63	C	-0.025811	0.741661	-0.157129
C64	C	0.018431	0.741670	-0.157129
C65	C	0.042661	0.741670	-0.099085
C66	C	0.022648	0.741662	-0.041040
C67	C	-0.017370	0.741634	0.075065
C68	C	0.026880	0.741633	0.075064
C69	C	0.046892	0.741642	0.017013
C70	C	0.091120	0.741670	0.017004
N71	N	0.111137	0.741669	-0.041038
C72	C	0.086908	0.741669	-0.099082
C73	C	-0.311516	0.741638	0.016995
C74	C	-0.355763	0.741638	0.016992
C75	C	-0.359975	0.741639	-0.099100
C76	C	-0.315730	0.741645	-0.099100
C77	C	-0.291498	0.741638	-0.041047
C78	C	0.179819	0.741687	-0.099080
C79	C	0.224064	0.741700	-0.099078
C80	C	0.228274	0.741694	0.017016
C81	C	0.184031	0.741687	0.017011
C82	C	0.159806	0.741680	-0.041040
O83	O	0.115817	0.741700	0.066325
O84	O	0.108008	0.741658	-0.148437
C85	C	-0.090065	0.741645	-0.099082
C86	C	-0.110078	0.741637	-0.041037
C87	C	-0.085849	0.741637	0.017008
C88	C	-0.154325	0.741637	-0.041040
C89	C	-0.178555	0.741637	-0.099084
C90	C	-0.158537	0.741637	-0.157126
C91	C	-0.114295	0.741645	-0.157127
C92	C	-0.105866	0.741637	0.075049
C93	C	-0.150109	0.741630	0.075045
C94	C	-0.174339	0.741630	0.017000
C95	C	0.572913	0.741646	-0.041050
C96	C	0.620007	0.741638	-0.041053
C97	C	0.426499	0.741674	-0.251228
C98	C	0.423902	0.741676	-0.322563
C99	C	0.425603	0.964142	-0.053346
C100	C	0.422703	1.039647	-0.057522
C101	C	0.461002	0.741672	-0.356078
C102	C	0.458563	0.741665	-0.423100
C103	C	0.419023	0.741669	-0.456610
C104	C	0.381923	0.741671	-0.423088
C105	C	0.384364	0.741671	-0.356064
C106	C	0.409738	0.741664	-0.658977
C107	C	0.407299	0.741667	-0.726008
C108	C	0.483941	0.741659	-0.726015
C109	C	0.486376	0.741664	-0.658992
C110	C	0.449277	0.741661	-0.625473
C111	C	0.416529	0.741665	-0.525119
C112	C	0.451774	0.741658	-0.556962
C113	C	0.441801	0.741664	0.169142
C114	C	0.444398	0.741662	0.240477
C115	C	0.581459	0.519173	-0.028747
C116	C	0.631455	0.443660	-0.024574
C117	C	0.450348	0.519191	0.181445
C118	C	0.455846	0.443684	0.256955
C119	C	0.589110	0.519168	0.181438
C120	C	0.641703	0.443653	0.256946
C121	C	0.279190	0.964170	-0.263524
C122	C	0.226598	1.039685	-0.339032
C123	C	0.286841	0.964165	-0.053339
C124	C	0.236846	1.039678	-0.057512
C125	C	0.417952	0.964147	-0.263531
C126	C	0.412455	1.039654	-0.339041
C127	C	0.626343	0.408204	-0.063663
C128	C	0.673314	0.337261	-0.059758
C129	C	0.725396	0.301771	-0.016759
C130	C	0.730507	0.337235	0.022330
C131	C	0.683536	0.408181	0.018420
C132	C	0.487018	0.408219	0.333464
C133	C	0.492181	0.337282	0.404420
C134	C	0.466175	0.301806	0.398865
C135	C	0.434999	0.337278	0.322348
C136	C	0.429833	0.408218	0.251394
C137	C	0.692007	0.408187	0.251361
C138	C	0.741427	0.337243	0.322301
C139	C	0.740540	0.301761	0.398826
C140	C	0.690230	0.337234	0.404409
C141	C	0.640812	0.408182	0.333469
C142	C	0.176293	1.075160	-0.333447
C143	C	0.126873	1.146126	-0.404389
C144	C	0.127759	1.181611	-0.480915
C145	C	0.178069	1.146134	-0.486497
C146	C	0.227488	1.075174	-0.415556
C147	C	0.241957	1.075142	-0.018431
C148	C	0.194985	1.146104	-0.022355
C149	C	0.142902	1.181596	-0.065356
C150	C	0.137792	1.146130	-0.104442
C151	C	0.184763	1.075174	-0.100523
C152	C	0.438468	1.075108	-0.333460
C153	C	0.433313	1.146045	-0.404403
C154	C	0.402142	1.181533	-0.480927
C155	C	0.376129	1.146072	-0.486506
C156	C	0.381287	1.075131	-0.415563
H157	H	0.495157	0.063406	0.046514
H158	H	0.199157	1.174969	0.009477
H159	H	0.175562	1.046271	-0.271143
N160	N	0.586555	0.446418	0.339495
H161	H	0.563296	0.517638	0.309583
H162	H	0.593542	0.413100	0.398757
H163	H	0.104660	1.239373	-0.068542
H164	H	0.085914	1.175000	-0.399828
N165	N	0.298129	1.036877	0.027941
H166	H	0.321939	0.965658	0.073187
H167	H	0.294184	1.070191	0.052042
N168	N	0.406959	0.298999	0.316363
H169	H	0.365894	0.353118	0.283767
H170	H	0.415011	0.248660	0.372953
H171	H	-0.086141	0.741636	0.122317
H172	H	0.470386	0.244042	0.456647
H173	H	0.360101	1.046273	-0.420119
N174	N	0.362208	0.426786	-0.144330
H175	H	0.333821	0.498949	-0.185077
H176	H	0.344062	0.400024	-0.117481
H177	H	0.689517	0.308334	0.466726
N178	N	0.344349	0.741682	-0.319913
H179	H	0.365368	0.682590	-0.260926
H180	H	0.318937	0.741723	-0.351369
N181	N	0.776052	0.225251	-0.012549
H182	H	0.779177	0.166388	0.014060
H183	H	0.809796	0.208221	0.020604
N184	N	0.339273	0.741685	-0.459234
H185	H	0.316141	0.741687	-0.427829
H186	H	0.358302	0.682595	-0.455866
H187	H	0.454497	1.174910	-0.399845
H188	H	-0.372059	0.741646	0.064254
N189	N	0.534449	0.318727	0.102991
H190	H	0.517819	0.345409	0.132027
H191	H	0.552622	0.345425	0.076140
N192	N	0.795681	0.298986	0.316258
H193	H	0.818930	0.227767	0.346176
H194	H	0.815681	0.311399	0.341522
H195	H	0.095380	1.175039	-0.139454
H196	H	0.528439	0.196912	0.094332
H197	H	0.034724	0.741673	-0.204397
N198	N	0.245646	0.741715	-0.161695
H199	H	0.223581	0.741712	-0.198463
H200	H	0.285629	0.682628	-0.133049
H201	H	0.087515	1.239391	-0.538673
H202	H	0.404452	0.437084	0.189100
H203	H	0.508196	0.437096	0.338002
H204	H	0.046609	0.741624	0.122340
N205	N	0.333852	0.164615	-0.185079
H206	H	0.342277	0.104976	-0.172994
H207	H	0.332101	0.203859	-0.240503
H208	H	0.375098	0.741671	-0.753289
N209	N	0.179020	1.184411	-0.569037
H210	H	0.140078	1.234743	-0.613124
H211	H	0.200436	1.130231	-0.572258
N212	N	0.692971	0.446440	0.168829
H213	H	0.732341	0.413199	0.176068
H214	H	0.671976	0.517662	0.135289
N215	N	0.281745	1.036911	-0.421585
H216	H	0.274802	1.070162	-0.480830
H217	H	0.304964	0.965693	-0.391636
H218	H	0.518573	0.741660	-0.631710
H219	H	0.397946	1.239298	-0.538686
H220	H	0.772919	0.308328	0.057339
N221	N	0.689053	0.446420	0.060583
H222	H	0.712773	0.392280	0.120990
H223	H	0.651376	0.496763	0.051521
N224	N	0.356540	0.574222	-0.152426
H225	H	0.330709	0.579922	-0.189524
H226	H	0.370961	0.606330	-0.184631
N227	N	0.342509	1.184352	-0.569044
H228	H	0.343190	1.234675	-0.613133
H229	H	0.303259	1.213751	-0.576881
N230	N	0.153695	0.741679	-0.161690
H231	H	0.173091	0.741687	-0.198458
H232	H	0.113528	0.800769	-0.195401
N233	N	0.179246	1.036927	-0.142677
H234	H	0.139123	1.070182	-0.170509
H235	H	0.200527	0.965707	-0.101055
H236	H	0.463850	1.046225	-0.271158
H237	H	0.384334	0.741672	-0.552409
H238	H	0.669142	0.308396	-0.091590
N239	N	0.328205	0.312036	-0.193207
H240	H	0.292550	0.326577	-0.191505
H241	H	0.327456	0.326449	-0.247245
N242	N	0.511761	-0.090891	0.070345
H243	H	0.537598	-0.096599	0.107441
H244	H	0.532163	-0.122992	0.046725
N245	N	0.503658	0.741651	-0.319940
H246	H	0.528091	0.682556	-0.260955
H247	H	0.484635	0.800776	-0.323363
H248	H	0.517569	0.308410	0.466716
H249	H	0.780784	0.243991	0.456584
H250	H	0.378524	0.332928	-0.120917
H251	H	0.489786	0.150399	0.038825
H252	H	-0.045534	0.741658	-0.204396
N253	N	-0.294148	0.741649	-0.161710
H254	H	-0.254169	0.682558	-0.133123
H255	H	-0.297636	0.800779	-0.195460
N256	N	-0.386115	0.741645	-0.161710
H257	H	-0.417181	0.741645	-0.152898
H258	H	-0.357587	0.682550	-0.155874
H259	H	0.379530	0.741663	-0.631693
H260	H	-0.033658	0.741626	0.122336
N261	N	-0.285377	0.741614	0.079621
H262	H	-0.304775	0.741611	0.116386
H263	H	-0.288637	0.800701	0.050985
N264	N	0.162437	0.741695	0.079611
H265	H	0.184500	0.741701	0.116379
H266	H	0.165892	0.682597	0.113323
H267	H	-0.098005	0.741652	-0.204397
N268	N	0.254410	0.741697	0.079617
H269	H	0.285476	0.741699	0.070805
H270	H	0.269316	0.682600	0.136143
H271	H	-0.166402	0.741630	0.122316
N272	N	-0.184681	0.741654	-0.219741
H273	H	-0.215747	0.741652	-0.210928
H274	H	-0.156156	0.682566	-0.213917
H275	H	0.488773	0.741660	-0.450388
H276	H	0.483970	0.741649	-0.529674
N277	N	0.523953	0.741661	-0.762165
H278	H	0.516409	0.741662	-0.809709
H279	H	0.562827	0.682566	-0.719271
H280	H	0.583938	0.437099	-0.098687
