data_functionalizedCrystal
_audit_creation_method	'MofGen! by Chris Wilmer'
_symmetry_space_group_name_H-M	'P1'
_symmetry_Int_Tables_number	1
_symmetry_cell_setting	triclinic
loop_
_symmetry_equiv_pos_as_xyz
  x,y,z
_cell_length_a	20.919309
_cell_length_b	20.919309
_cell_length_c	14.560438
_cell_angle_alpha	57.442011
_cell_angle_beta	89.999924
_cell_angle_gamma	60.099716
loop_
_atom_site_label
_atom_site_type_symbol
_atom_site_fract_x
_atom_site_fract_y
_atom_site_fract_z
Zr1	Zr	0.668073	0.648693	-0.119453
O2	O	0.567435	0.790102	-0.279630
O3	O	0.695180	0.513017	-0.065398
O4	O	0.700576	0.646161	-0.264144
O5	O	0.562041	0.656955	0.070256
O6	O	0.809861	0.637643	-0.257560
O7	O	0.562038	0.656957	-0.080885
O8	O	0.800207	0.399473	0.097959
O9	O	0.571694	0.895126	-0.285263
O10	O	0.792822	0.560342	-0.043414
O11	O	0.711266	0.566698	0.064468
O12	O	0.717620	0.723458	-0.169529
O13	O	0.636065	0.729814	-0.061648
Zr14	Zr	0.842373	0.635104	0.132099
Zr15	Zr	0.842369	0.635107	-0.108953
Zr16	Zr	0.668078	0.648690	0.121600
Zr17	Zr	0.674867	0.816195	-0.128436
Zr18	Zr	0.835580	0.467603	0.141083
O19	O	0.815267	0.770780	0.078045
O20	O	0.815261	0.770785	-0.264701
O21	O	0.567441	0.790097	0.063116
O22	O	0.943012	0.493696	0.292276
O23	O	0.943006	0.493700	-0.050469
O24	O	0.695186	0.513013	0.277347
O25	O	0.948406	0.626842	-0.057610
O26	O	0.809870	0.637636	0.276790
O27	O	0.700586	0.646154	0.270207
O28	O	0.948409	0.626840	0.093531
O29	O	0.710236	0.884327	-0.276917
O30	O	0.800210	0.399470	0.289563
O31	O	0.938752	0.388671	0.297909
O32	O	0.938749	0.388674	0.106304
O33	O	0.571698	0.895123	-0.093658
O34	O	0.710240	0.884325	-0.085312
O35	O	0.792826	0.560339	0.182175
O36	O	0.874382	0.553984	0.074294
O37	O	0.799180	0.717099	-0.051821
O38	O	0.717624	0.723455	0.056060
C39	C	0.746725	0.432379	0.017560
C40	C	0.743841	0.361271	0.021374
C41	C	0.537206	0.658892	-0.006810
C42	C	0.463213	0.664660	-0.011268
C43	C	0.785055	0.324546	-0.033148
C44	C	0.782347	0.257727	-0.029554
C45	C	0.738420	0.227638	0.028556
C46	C	0.697205	0.264365	0.083085
C47	C	0.699918	0.331179	0.079497
C48	C	0.728103	0.026067	0.042213
C49	C	0.725391	-0.040749	0.045794
C50	C	0.810535	-0.047384	-0.066843
C51	C	0.813240	0.019435	-0.070432
C52	C	0.772029	0.056153	-0.015898
C53	C	0.735649	0.159340	0.032228
C54	C	0.774805	0.124444	-0.019564
C55	C	0.467703	0.582227	0.052463
C56	C	0.398176	0.587651	0.048272
C57	C	0.324160	0.675510	-0.019657
C58	C	0.319671	0.757949	-0.083390
C59	C	0.389197	0.752523	-0.079192
C60	C	0.112272	0.696151	-0.035621
C61	C	0.042744	0.701571	-0.039817
C62	C	0.121254	0.531272	0.091847
C63	C	0.190777	0.525855	0.096034
C64	C	0.186283	0.608294	0.032306
C65	C	0.253091	0.681057	-0.023946
C66	C	0.257351	0.602746	0.036602
C67	C	0.973241	0.624905	0.019456
C68	C	1.047234	0.619138	0.023914
C69	C	0.755218	0.641903	-0.295197
C70	C	0.755216	0.641904	-0.397530
C71	C	0.763721	0.851418	-0.004914
C72	C	0.766605	0.922527	-0.008728
C73	C	0.715962	0.727047	-0.511437
C74	C	0.715972	0.727042	-0.607585
C75	C	0.794489	0.556744	-0.475905
C76	C	0.794484	0.556749	-0.379759
C77	C	0.755229	0.641895	0.307843
C78	C	0.755231	0.641893	0.410176
C79	C	0.964743	0.415386	0.030693
C80	C	1.035852	0.338510	0.038964
C81	C	0.746731	0.432376	0.319080
C82	C	0.743848	0.361265	0.425227
C83	C	0.964748	0.415382	0.332213
C84	C	1.035859	0.338504	0.442818
C85	C	0.545698	0.868415	-0.319567
C86	C	0.474588	0.945293	-0.430171
C87	C	0.545704	0.868411	-0.018047
C88	C	0.474595	0.945288	-0.026318
C89	C	0.763716	0.851422	-0.306434
C90	C	0.766598	0.922532	-0.412581
C91	C	1.026672	0.305727	-0.018604
C92	C	1.093480	0.233503	-0.010856
C93	C	1.169467	0.194059	0.054468
C94	C	1.178646	0.226849	0.112038
C95	C	1.111838	0.299076	0.104282
C96	C	0.785068	0.324552	0.536527
C97	C	0.782357	0.257746	0.636272
C98	C	0.738431	0.227650	0.624714
C99	C	0.697206	0.264370	0.513402
C100	C	0.699913	0.331179	0.413659
C101	C	1.111832	0.299084	0.438446
C102	C	1.178655	0.226858	0.542361
C103	C	1.169504	0.194049	0.650647
C104	C	1.093523	0.233477	0.655015
C105	C	1.026701	0.305706	0.551101
C106	C	0.398615	0.984722	-0.425800
C107	C	0.331793	1.056968	-0.529716
C108	C	0.340944	1.089780	-0.638002
C109	C	0.416925	1.050348	-0.642371
C110	C	0.483746	0.978108	-0.538456
C111	C	0.483775	0.978078	0.031240
C112	C	0.416967	1.050320	0.023464
C113	C	0.340980	1.089766	-0.041863
C114	C	0.331802	1.056973	-0.099428
C115	C	0.398609	0.984737	-0.091659
C116	C	0.810532	0.952607	-0.400986
C117	C	0.813256	1.019412	-0.500711
C118	C	0.772041	1.056147	-0.612031
C119	C	0.728105	1.026066	-0.623624
C120	C	0.725386	0.959256	-0.523899
H121	H	0.820821	0.349044	-0.080473
F122	F	0.174312	0.774560	-0.096239
H123	H	0.844089	-0.077287	-0.111240
F124	F	0.269549	0.432344	0.168333
F125	F	1.240563	0.117187	0.062713
F126	F	0.426653	1.085278	-0.757627
F127	F	0.269820	1.166666	-0.748590
F128	F	-0.036034	0.795086	-0.112129
F129	F	1.121620	0.333953	0.165566
H130	H	0.694549	1.055985	-0.714274
H131	H	0.545604	0.946005	-0.542029
H132	H	0.699884	0.134835	0.079541
H133	H	0.820838	0.349049	0.545959
F134	F	0.564640	0.936110	0.100770
H135	H	0.269924	1.089102	-0.152617
H136	H	0.815907	0.227825	-0.073948
H137	H	0.815931	0.227856	0.726897
F138	F	0.836274	0.466121	-0.457004
H139	H	0.689607	0.934778	-0.533356
F140	F	0.674194	0.817663	-0.728813
F141	F	0.336125	0.509243	0.108904
F142	F	0.684244	0.065134	0.100258
F143	F	0.859989	0.051457	-0.132287
H144	H	0.385536	0.819649	-0.131074
F145	F	0.656042	0.370241	0.295209
H146	H	0.964806	0.337841	-0.071811
H147	H	0.401839	0.520526	0.100170
H148	H	0.424456	1.077007	0.070346
F149	F	0.854403	0.913522	-0.282520
F150	F	0.250936	1.098920	-0.525042
F151	F	0.860015	1.051419	-0.488349
F152	F	0.678634	-0.072767	0.107642
F153	F	0.269885	1.166646	-0.050121
H154	H	0.826453	0.487411	-0.287004
H155	H	0.683988	0.796386	-0.525913
H156	H	0.391123	0.958042	-0.138527
H157	H	1.086083	0.206754	0.743196
F158	F	0.774940	1.127253	-0.718158
F159	F	0.735558	0.156543	0.730881
F160	F	0.126029	0.443541	0.159670
F161	F	0.546474	0.488715	0.124757
F162	F	0.656054	0.370261	0.137529
F163	F	0.650465	0.232330	0.144947
H164	H	1.085991	0.206815	-0.057737
H165	H	0.661442	0.239855	0.504009
H166	H	0.810574	0.148941	-0.066871
H167	H	1.119298	0.325785	0.350284
F168	F	0.107479	0.783891	-0.103449
F169	F	1.259512	0.184905	0.537686
F170	F	1.240629	0.117174	0.761233
F171	F	0.240895	0.851455	-0.155678
F172	F	0.945847	0.347649	0.555772
H173	H	1.240523	0.194723	0.165223
H174	H	0.391148	0.958011	-0.337638
