data_functionalizedCrystal
_audit_creation_method	'MofGen! by Chris Wilmer'
_symmetry_space_group_name_H-M	'P1'
_symmetry_Int_Tables_number	1
_symmetry_cell_setting	triclinic
loop_
_symmetry_equiv_pos_as_xyz
  x,y,z
_cell_length_a	11.792241
_cell_length_b	15.538191
_cell_length_c	14.185569
_cell_angle_alpha	97.872928
_cell_angle_beta	76.749757
_cell_angle_gamma	65.732755
loop_
_atom_site_label
_atom_site_type_symbol
_atom_site_fract_x
_atom_site_fract_y
_atom_site_fract_z
O1	O	-1.418444	-0.149998	-0.083314
O2	O	-1.082525	-0.163282	-0.083337
O3	O	-1.315872	-0.019844	-0.083326
O4	O	-1.185097	-0.293435	-0.083325
O5	O	-1.384803	0.022524	0.083512
O6	O	-1.151456	-0.120914	0.083501
O7	O	-1.487375	-0.107630	0.083523
Cu8	Cu	-1.325709	-0.110403	0.098746
Cu9	Cu	-1.244191	-0.160508	-0.098559
O10	O	-1.254028	-0.251067	0.083512
C11	C	-1.364019	0.036365	0.000090
C12	C	-1.404772	0.140728	0.000083
C13	C	-1.075048	-0.141265	0.000079
C14	C	-0.950077	-0.138770	0.000070
C15	C	-1.494851	-0.129648	0.000105
C16	C	-1.619819	-0.132144	0.000108
C17	C	-0.721303	-0.134172	0.000099
C18	C	-0.848611	-0.136727	0.000083
C19	C	-1.205880	-0.307277	0.000094
C20	C	-1.165124	-0.411642	0.000094
N21	N	-1.383054	-0.075161	0.237519
C22	C	-0.999871	0.430585	0.000077
C23	C	-1.038198	0.528657	0.000082
C24	C	-1.253772	0.550002	0.000096
C25	C	-1.215461	0.451929	0.000087
C26	C	-1.088510	0.392229	0.000078
C27	C	-1.304100	0.413573	0.000087
C28	C	-1.265794	0.315510	0.000083
C29	C	-1.138849	0.255804	0.000078
C30	C	-1.050204	0.294166	0.000074
C31	C	-1.431054	0.473277	0.000103
C32	C	-1.519692	0.434920	0.000104
C33	C	-1.481384	0.336854	0.000092
C34	C	-1.354439	0.277148	0.000087
C35	C	-1.570029	0.298492	0.000096
C36	C	-1.531723	0.200429	0.000092
C37	C	-1.316133	0.179085	0.000082
N38	N	-1.186858	-0.195743	-0.237333
C39	C	-1.018397	-0.299242	0.605152
C40	C	-1.061840	-0.272554	0.710176
C41	C	-1.268480	-0.145587	0.710147
C42	C	-1.225052	-0.172262	0.605121
C43	C	-1.100010	-0.249091	0.552632
C44	C	-1.306666	-0.122111	0.552601
C45	C	-1.263243	-0.148788	0.447584
C46	C	-1.138207	-0.225616	0.395088
C47	C	-1.056588	-0.275768	0.447615
C48	C	-1.431711	-0.045287	0.605091
C49	C	-1.513324	0.004864	0.552571
C50	C	-1.469899	-0.021808	0.447553
C51	C	-1.344863	-0.098636	0.395056
C52	C	-1.551518	0.028344	0.395025
C53	C	-1.508096	0.001668	0.290008
C54	C	-1.301440	-0.125312	0.290040
H55	H	-1.212754	0.130471	0.000068
O56	O	-0.973802	-0.326655	0.766820
H57	H	-1.025004	-0.295206	0.848663
H58	H	-0.946824	0.245551	0.000060
H59	H	-1.199613	-0.187868	0.247301
H60	H	-0.966014	0.559885	0.000096
O61	O	-0.883509	-0.382094	0.548546
H62	H	-0.825016	-0.354346	0.500724
O63	O	-1.403342	-0.062721	0.766760
H64	H	-1.419825	-0.052591	0.848609
O65	O	-1.648186	0.087730	0.609184
H66	H	-1.664668	0.097860	0.691033
H67	H	-0.954761	-0.338323	0.404877
O68	O	-1.478558	-0.016515	0.718361
H69	H	-1.500852	0.060849	0.746051
O70	O	-1.097517	0.150034	0.000077
H71	H	-1.105838	0.111511	-0.067926
H72	H	-0.896492	0.381971	0.000063
H73	H	-1.653334	0.090893	0.437775
O74	O	-1.390696	0.614394	0.000108
H75	H	-1.402443	0.689028	0.000107
H76	H	-1.462235	0.553123	0.000097
H77	H	-1.102857	-0.247338	0.309576
O78	O	-1.596108	0.055759	0.233350
H79	H	-1.690346	0.113672	0.287491
O80	O	-1.706956	0.362889	0.000117
H81	H	-1.718701	0.437522	0.000121
O82	O	-1.656616	0.499313	0.000115
H83	H	-1.668363	0.573946	0.000115
O84	O	-1.627314	0.159045	0.000082
H85	H	-1.722020	0.217029	0.000076
