data_functionalizedCrystal
_audit_creation_method	'MofGen! by Chris Wilmer'
_symmetry_space_group_name_H-M	'P1'
_symmetry_Int_Tables_number	1
_symmetry_cell_setting	triclinic
loop_
_symmetry_equiv_pos_as_xyz
  x,y,z
_cell_length_a	17.038272
_cell_length_b	17.038272
_cell_length_c	15.500227
_cell_angle_alpha	86.966746
_cell_angle_beta	86.956295
_cell_angle_gamma	88.888444
loop_
_atom_site_label
_atom_site_type_symbol
_atom_site_fract_x
_atom_site_fract_y
_atom_site_fract_z
O1	O	1.052160	-0.167139	-0.071836
O2	O	0.824350	-0.164430	-0.071862
O3	O	0.936901	-0.051879	-0.071842
O4	O	0.939609	-0.279690	-0.071856
O5	O	0.930069	-0.058680	0.072045
O6	O	0.817518	-0.171231	0.072026
O7	O	1.045328	-0.173940	0.072051
Cu8	Cu	0.930799	-0.173207	0.085177
Cu9	Cu	0.938879	-0.165164	-0.084987
O10	O	0.932777	-0.286491	0.072032
C11	C	0.791641	-0.165368	0.000079
C12	C	0.704358	-0.158019	0.000069
C13	C	0.658749	-0.225482	0.000066
C14	C	0.576737	-0.218574	0.000078
C15	C	0.540335	-0.144201	0.000088
C16	C	0.585950	-0.076733	0.000094
C17	C	0.667961	-0.083642	0.000088
C18	C	0.292946	-0.119792	0.000112
C19	C	0.210929	-0.112887	0.000116
C20	C	0.201721	-0.254729	0.000102
C21	C	0.283734	-0.261632	0.000091
C22	C	0.329342	-0.194164	0.000101
C23	C	0.456505	-0.137138	0.000098
C24	C	0.413170	-0.201228	0.000098
C25	C	0.931022	-0.025987	0.000101
C26	C	0.923674	0.061297	0.000100
C27	C	1.078037	-0.173003	0.000109
C28	C	1.165320	-0.180351	0.000113
C29	C	0.938656	-0.312383	0.000087
C30	C	0.946004	-0.399667	0.000082
N31	N	0.925122	-0.178864	0.204861
C32	C	0.991137	0.106906	0.000108
C33	C	0.984229	0.188918	0.000100
C34	C	0.909856	0.225320	0.000088
C35	C	0.842388	0.179705	0.000077
C36	C	0.849297	0.097694	0.000080
C37	C	0.885446	0.472708	0.000074
C38	C	0.878541	0.554725	0.000074
C39	C	1.020383	0.563932	0.000094
C40	C	1.027286	0.481919	0.000102
C41	C	0.959818	0.436312	0.000087
C42	C	0.902792	0.309149	0.000082
C43	C	0.966882	0.352484	0.000087
N44	N	0.944561	-0.159501	-0.204671
C45	C	0.972833	-0.131192	0.250145
C46	C	0.968547	-0.135478	0.340718
C47	C	0.916555	-0.187440	0.386003
C48	C	0.868839	-0.235114	0.340712
C49	C	0.873121	-0.230823	0.250142
C50	C	0.901128	-0.202884	0.659467
C51	C	0.896851	-0.207172	0.750044
C52	C	0.996559	-0.107535	0.750044
C53	C	1.000840	-0.103252	0.659471
C54	C	0.953121	-0.150923	0.614188
C55	C	0.912174	-0.191824	0.478582
C56	C	0.957498	-0.146534	0.521610
H57	H	0.442811	-0.261782	0.000095
H58	H	0.330070	-0.064854	0.000122
H59	H	0.834269	-0.269642	0.213271
H60	H	0.842237	0.338796	0.000075
N61	N	0.546690	0.003484	0.000096
H62	H	0.588030	0.045173	0.000098
H63	H	0.510337	0.006920	0.053437
H64	H	0.705095	-0.028706	0.000090
H65	H	0.999827	-0.104223	0.484736
H66	H	0.781832	0.209350	0.000063
N67	N	1.028907	-0.075133	0.201319
H68	H	0.998357	-0.036568	0.163757
H69	H	1.067446	-0.105740	0.163777
N70	N	1.020035	-0.084090	0.389562
H71	H	1.053635	-0.050535	0.347130
H72	H	1.054962	-0.118296	0.427113
H73	H	0.826501	-0.277420	0.377589
N74	N	0.776534	0.048498	0.000066
H75	H	0.728370	0.084001	0.000059
H76	H	0.773776	0.011751	0.053406
H77	H	0.181294	-0.052321	0.000123
N78	N	0.812679	0.423526	0.000059
H79	H	0.809848	0.386771	0.053395
H80	H	0.814963	0.391867	-0.053319
H81	H	1.043177	-0.060940	0.622602
H82	H	1.027437	0.322844	0.000077
H83	H	0.313367	-0.322194	0.000073
N84	N	1.048024	-0.056121	0.798884
H85	H	1.037424	-0.066721	0.863131
H86	H	1.035997	0.000950	0.783063
H87	H	0.854510	-0.249490	0.786912
N88	N	0.798319	0.593984	0.000056
H89	H	0.794831	0.630327	-0.053282
H90	H	0.789806	0.625241	0.053432
N91	N	0.849657	-0.254293	0.610633
H92	H	0.816073	-0.287861	0.653067
H93	H	0.883799	-0.289251	0.573038
H94	H	0.426857	-0.076584	0.000130
N95	N	0.856109	-0.247874	0.527437
H96	H	0.869607	-0.303473	0.511669
H97	H	0.800534	-0.234285	0.511673
N98	N	1.071354	0.067646	0.000129
H99	H	1.113042	0.108987	0.000131
H100	H	1.079844	0.036337	-0.053210
H101	H	0.688381	-0.286045	0.000058
N102	N	1.056992	0.238111	0.000114
H103	H	1.105154	0.202606	0.000129
H104	H	1.054674	0.269820	0.053455
H105	H	0.164579	-0.309658	0.000096
N106	N	0.527538	-0.291342	0.000173
H107	H	0.563042	-0.339506	0.000192
H108	H	0.495793	-0.289100	-0.053133
N109	N	1.107502	0.442659	0.000119
H110	H	1.149193	0.483997	0.000124
H111	H	1.115993	0.411348	-0.053218
H112	H	1.075311	0.601074	0.000105
