data_functionalizedCrystal
_audit_creation_method	'MofGen! by Chris Wilmer'
_symmetry_space_group_name_H-M	'P1'
_symmetry_Int_Tables_number	1
_symmetry_cell_setting	triclinic
loop_
_symmetry_equiv_pos_as_xyz
  x,y,z
_cell_length_a	15.297475
_cell_length_b	16.625545
_cell_length_c	15.296720
_cell_angle_alpha	99.644333
_cell_angle_beta	88.382886
_cell_angle_gamma	99.673382
loop_
_atom_site_label
_atom_site_type_symbol
_atom_site_fract_x
_atom_site_fract_y
_atom_site_fract_z
Zn1	Zn	1.253381	0.627523	0.726587
Zn2	Zn	1.278640	0.743625	0.580101
Zn3	Zn	1.132260	0.582227	0.554829
Zn4	Zn	1.106867	0.735700	0.701229
O5	O	1.192787	0.672269	0.640686
O6	O	1.379309	0.665198	0.728344
O7	O	1.280421	0.706576	0.454174
O8	O	1.148384	0.475417	0.577649
O9	O	1.397867	0.750498	0.620721
O10	O	1.237371	0.508696	0.703839
O11	O	1.172876	0.587997	0.435607
O12	O	1.006315	0.580312	0.553060
O13	O	1.105104	0.736989	0.827167
O14	O	0.987658	0.693067	0.660620
O15	O	1.212747	0.657513	0.845798
O16	O	1.255798	0.855392	0.596133
O17	O	1.129596	0.849569	0.685125
C18	C	0.965203	0.630915	0.601347
C19	C	0.867838	0.613246	0.584538
C20	C	0.554686	0.798559	0.760825
C21	C	0.646166	0.815166	0.776615
C22	C	0.701588	0.764687	0.728597
C23	C	0.665522	0.697599	0.664786
C24	C	0.574035	0.680995	0.648989
C25	C	0.720937	0.647123	0.616762
C26	C	0.684871	0.580034	0.552951
C27	C	0.593392	0.563433	0.537157
C28	C	0.537969	0.613911	0.585175
C29	C	0.812424	0.663727	0.632559
C30	C	0.831773	0.546162	0.520723
C31	C	0.740293	0.529556	0.504933
C32	C	1.192703	0.881740	0.640643
C33	C	1.192742	0.971371	0.640668
C34	C	1.192867	1.299586	0.640797
C35	C	1.192829	1.208266	0.640763
C36	C	1.192804	1.135481	0.640732
C37	C	1.192767	1.044156	0.640699
C38	C	1.421260	0.713784	0.680180
C39	C	1.518621	0.731476	0.697010
C40	C	1.153275	0.701420	0.869153
C41	C	1.136438	0.713842	0.966512
C42	C	1.192883	1.461986	0.640762
C43	C	1.192900	1.372376	0.640818
C44	C	1.232195	0.643182	0.413117
C45	C	1.249203	0.630563	0.315788
C46	C	1.313160	0.583349	1.279752
C47	C	1.328985	0.571679	1.188279
C48	C	1.280850	0.607219	1.132833
C49	C	1.216886	0.654430	1.168868
C50	C	1.201065	0.666105	1.260351
C51	C	1.168754	0.689976	1.113432
C52	C	1.104791	0.737187	1.149467
C53	C	1.088971	0.748860	1.240941
C54	C	1.137107	0.713320	1.296387
C55	C	1.184576	0.678300	1.021950
C56	C	1.072480	0.761057	1.002549
C57	C	1.056655	0.772726	1.094021
H58	H	0.463478	0.600392	0.572324
C59	C	1.254929	0.626363	0.982321
N60	N	1.307920	0.587237	0.952473
H61	H	1.293739	0.597715	1.058352
H62	H	0.564032	0.508812	0.485189
H63	H	0.710915	0.474932	0.452977
H64	H	1.004575	0.811165	1.123374
H65	H	1.033286	0.789998	0.957404
H66	H	1.036895	0.787310	1.270279
H67	H	1.352350	0.554423	1.324904
C68	C	0.852086	0.737520	0.702754
N69	N	0.881956	0.793103	0.755631
H70	H	0.776075	0.778212	0.741458
H71	H	0.675524	0.869791	0.828568
H72	H	1.124226	0.722819	1.370873
C73	C	1.399335	0.519741	1.148646
N74	N	1.452323	0.480614	1.118793
H75	H	0.876898	0.505059	0.481622
C76	C	0.493718	0.854080	0.813633
N77	N	0.447794	0.895902	0.853411
