data_functionalizedCrystal
_audit_creation_method	'MofGen! by Chris Wilmer'
_symmetry_space_group_name_H-M	'P1'
_symmetry_Int_Tables_number	1
_symmetry_cell_setting	triclinic
loop_
_symmetry_equiv_pos_as_xyz
  x,y,z
_cell_length_a	19.851628
_cell_length_b	14.628931
_cell_length_c	14.628931
_cell_angle_alpha	59.999972
_cell_angle_beta	90.003717
_cell_angle_gamma	59.998289
loop_
_atom_site_label
_atom_site_type_symbol
_atom_site_fract_x
_atom_site_fract_y
_atom_site_fract_z
Zr1	Zr	0.648978	1.000475	-0.119855
O2	O	0.541411	1.191198	-0.265834
O3	O	0.681953	0.809764	-0.075105
O4	O	0.681953	1.000470	-0.265811
O5	O	0.541412	1.000492	0.075304
O6	O	0.792815	1.000452	-0.265792
O7	O	0.541411	1.000492	-0.075128
O8	O	0.792815	0.659315	0.075346
O9	O	0.541411	1.341630	-0.265834
O10	O	0.778751	0.888189	-0.056006
O11	O	0.696017	0.888202	0.056246
O12	O	0.696016	1.112733	-0.168285
O13	O	0.613282	1.112746	-0.056033
Zr14	Zr	0.825790	1.000447	0.120096
Zr15	Zr	0.825790	1.000447	-0.119826
Zr16	Zr	0.648978	1.000475	0.120066
Zr17	Zr	0.648978	1.240397	-0.119856
Zr18	Zr	0.825790	0.760525	0.120096
O19	O	0.792815	1.191158	0.075345
O20	O	0.792815	1.191158	-0.265793
O21	O	0.541412	1.191198	0.075304
O22	O	0.933357	0.809724	0.266074
O23	O	0.933356	0.809724	-0.075063
O24	O	0.681953	0.809764	0.266033
O25	O	0.933357	1.000430	-0.075063
O26	O	0.792815	1.000452	0.266051
O27	O	0.681954	1.000470	0.266033
O28	O	0.933357	1.000430	0.075368
O29	O	0.681953	1.341607	-0.265811
O30	O	0.792815	0.659315	0.266051
O31	O	0.933357	0.659292	0.266075
O32	O	0.933356	0.659292	0.075369
O33	O	0.541412	1.341630	-0.075129
O34	O	0.681953	1.341607	-0.075105
O35	O	0.778752	0.888189	0.168526
O36	O	0.861486	0.888176	0.056274
O37	O	0.778752	1.112720	-0.056006
O38	O	0.696017	1.112733	0.056246
C39	C	0.737384	0.700356	0.000121
C40	C	0.737384	0.598503	0.000121
C41	C	0.778426	0.553087	-0.055564
C42	C	0.778426	0.447817	-0.055565
C43	C	0.516220	1.000496	0.000084
C44	C	0.441158	1.000508	0.000071
C45	C	0.214703	1.122911	-0.061111
C46	C	0.192341	1.061711	-0.105469
C47	C	0.303752	1.000475	0.000103
C48	C	0.192372	1.061682	0.044441
C49	C	0.171020	1.000451	0.000134
C50	C	0.282379	0.939274	-0.044317
C51	C	0.282407	0.939263	0.105652
C52	C	0.260099	0.877974	0.061320
C53	C	0.380214	1.000492	0.000083
C54	C	0.094562	1.000425	0.000152
C55	C	0.958549	1.000426	0.000157
C56	C	1.033610	1.000414	0.000169
C57	C	0.737384	1.000461	-0.299985
C58	C	0.737383	1.000461	-0.401838
C59	C	0.737384	1.300566	0.000120
C60	C	0.737384	1.402419	0.000120
C61	C	0.795426	1.000452	-0.447238
C62	C	0.795427	1.000452	-0.552508
C63	C	0.737385	1.000461	0.300225
C64	C	0.737385	1.000461	0.402078
C65	C	0.958548	0.700320	0.000157
C66	C	1.033609	0.598456	0.000170
C67	C	0.737384	0.700356	0.300226
C68	C	0.737384	0.598503	0.402079
C69	C	0.958549	0.700320	0.300262
C70	C	1.033610	0.598456	0.402128
C71	C	0.516219	1.300601	-0.300022
C72	C	0.441158	1.402466	-0.401887
C73	C	0.516220	1.300601	0.000083
C74	C	0.441159	1.402466	0.000071
C75	C	0.737384	1.300566	-0.299986
C76	C	0.737384	1.402419	-0.401839
C77	C	1.025672	0.550626	-0.058443
C78	C	1.096193	0.454926	-0.058454
C79	C	1.174651	0.407051	0.000156
C80	C	1.182587	0.454891	0.058770
C81	C	1.112066	0.550595	0.058774
C82	C	1.112054	0.550612	0.391371
C83	C	1.182588	0.454912	0.487075
C84	C	1.174678	0.407052	0.593535
C85	C	1.096226	0.454905	0.604290
C86	C	1.025693	0.550609	0.508587
C87	C	0.362714	1.450322	-0.391130
C88	C	0.292180	1.546051	-0.486834
C89	C	0.300090	1.593917	-0.593295
C90	C	0.378542	1.546057	-0.604050
C91	C	0.449075	1.450336	-0.508347
C92	C	0.449096	1.450306	0.058674
C93	C	0.378575	1.546032	0.058658
C94	C	0.300117	1.593910	0.000045
C95	C	0.292181	1.546066	-0.058565
C96	C	0.362702	1.450349	-0.058555
C97	C	0.778426	0.553087	0.503186
C98	C	0.778427	0.447817	0.608458
H99	H	0.196252	1.226436	-0.112951
Br100	Br	0.919236	0.615523	0.523207
H101	H	0.813561	0.408766	-0.103244
Br102	Br	0.389364	1.610940	0.138209
Br103	Br	0.185720	1.610980	-0.472212
H104	H	0.702241	0.441475	0.047790
H105	H	0.702249	0.559447	0.047796
Br106	Br	0.678808	0.533433	0.387687
Br107	Br	0.836998	0.618161	-0.135020
Br108	Br	0.127654	1.147954	-0.254222
Br109	Br	0.204418	1.723815	0.000043
H110	H	0.845117	1.000451	-0.591553
Br111	Br	0.555532	1.385395	-0.522966
Br112	Br	0.291024	0.705333	0.147531
Br113	Br	1.270350	0.277165	0.000139
Br114	Br	0.346855	0.853122	-0.106999
H115	H	0.356258	1.411355	-0.304453
H116	H	1.246476	0.415897	0.106487
H117	H	1.089716	0.415987	-0.106185
H118	H	0.813560	0.592144	0.511812
H119	H	0.512974	1.411331	0.106410
H120	H	0.321215	0.887561	0.194883
Br121	Br	0.127699	1.147966	0.106919
Br122	Br	0.389264	1.611029	-0.748541
H123	H	0.845120	1.000437	-0.408170
H124	H	0.687687	1.000476	-0.558889
H125	H	0.242651	1.671859	-0.671214
Br126	Br	0.654562	1.000459	-0.466934
H127	H	0.961794	0.589604	-0.106184
H128	H	0.702250	0.441464	0.511432
Br129	Br	0.185696	1.611054	-0.138102
Br130	Br	1.122854	0.615489	0.138334
Br131	Br	0.351915	1.385428	-0.138090
H132	H	1.118510	0.589566	0.304694
H133	H	1.246461	0.415960	0.478298
H134	H	1.232117	0.329123	0.671454
H135	H	1.089797	0.415922	0.690983
H136	H	0.813566	0.408759	0.695194
