data_functionalizedCrystal
_audit_creation_method	'MofGen! by Chris Wilmer'
_symmetry_space_group_name_H-M	'P1'
_symmetry_Int_Tables_number	1
_symmetry_cell_setting	triclinic
loop_
_symmetry_equiv_pos_as_xyz
  x,y,z
_cell_length_a	10.685980
_cell_length_b	16.625545
_cell_length_c	10.685880
_cell_angle_alpha	94.337694
_cell_angle_beta	80.918858
_cell_angle_gamma	94.392107
loop_
_atom_site_label
_atom_site_type_symbol
_atom_site_fract_x
_atom_site_fract_y
_atom_site_fract_z
Zn1	Zn	1.995660	-0.265673	-0.866651
Zn2	Zn	2.495660	0.234327	-0.366651
Zn3	Zn	1.979212	-0.390941	-0.654384
Zn4	Zn	2.479212	0.109059	-0.154384
Zn5	Zn	1.767100	-0.265716	-0.638123
Zn6	Zn	2.267100	0.234284	-0.138123
Zn7	Zn	1.783319	-0.410064	-0.850286
Zn8	Zn	2.283319	0.089936	-0.350286
O9	O	1.881322	-0.333098	-0.752361
O10	O	2.381322	0.166902	-0.252361
O11	O	2.171113	-0.274269	-0.852147
O12	O	2.671113	0.225731	-0.352147
O13	O	1.937404	-0.366344	-0.474602
O14	O	2.437404	0.133656	0.025398
O15	O	1.797514	-0.152875	-0.668482
O16	O	2.297514	0.347125	-0.168482
O17	O	2.159029	-0.366303	-0.696196
O18	O	2.659029	0.133697	-0.196196
O19	O	1.965436	-0.152844	-0.836380
O20	O	2.465436	0.347156	-0.336380
O21	O	1.781566	-0.274342	-0.462655
O22	O	2.281566	0.225658	0.037345
O23	O	1.591616	-0.292885	-0.652613
O24	O	2.091616	0.207115	-0.152613
O25	O	1.825157	-0.398895	-1.030082
O26	O	2.325157	0.101105	-0.530082
O27	O	1.603532	-0.398937	-0.808488
O28	O	2.103532	0.101063	-0.308488
O29	O	1.981163	-0.292812	-1.042105
O30	O	2.481163	0.207188	-0.542105
O31	O	1.953131	-0.506312	-0.680327
O32	O	2.453131	-0.006312	-0.180327
O33	O	1.809209	-0.520362	-0.824256
O34	O	2.309209	-0.020362	-0.324256
C35	C	1.551515	-0.347991	-0.727011
C36	C	2.051515	0.152009	-0.227011
C37	C	1.410425	-0.354383	-0.716196
C38	C	1.910425	0.145617	-0.216196
C39	C	1.881181	-0.542594	-0.752311
C40	C	2.381181	-0.042594	-0.252311
C41	C	1.881241	-0.632213	-0.752340
C42	C	2.381241	-0.132213	-0.252340
C43	C	1.881292	-0.704995	-0.752369
C44	C	2.381292	-0.204995	-0.252369
C45	C	1.881368	-0.796301	-0.752403
C46	C	2.381368	-0.296301	-0.252403
C47	C	1.881435	-0.869075	-0.752424
C48	C	2.381435	-0.369075	-0.252424
C49	C	1.881510	-0.960387	-0.752456
C50	C	2.381510	-0.460387	-0.252456
C51	C	2.212417	-0.318148	-0.777811
C52	C	2.712417	0.181852	-0.277811
C53	C	2.353510	-0.311777	-0.788656
C54	C	2.853510	0.188223	-0.288656
C55	C	1.906804	-0.347982	-1.083438
C56	C	2.406804	0.152018	-0.583438
C57	C	1.917663	-0.354325	-1.224523
C58	C	2.417663	0.145675	-0.724523
C59	C	1.881501	-0.122785	-0.752442
C60	C	2.381501	0.377215	-0.252442
C61	C	1.881577	-0.033162	-0.752477
C62	C	2.381577	0.466838	-0.252477
C63	C	1.856013	-0.318211	-0.422578
C64	C	2.356013	0.181789	0.077422
C65	C	1.845400	-0.311631	-0.281513
C66	C	2.345400	0.188369	0.218487
H67	H	1.412722	-0.270406	-0.858963
H68	H	1.912722	0.229594	-0.358963
H69	H	1.351206	-0.395752	-0.645876
H70	H	1.851206	0.104248	-0.145876
H71	H	1.775216	-0.270228	-1.222369
H72	H	2.275216	0.229772	-0.722369
H73	H	1.987847	-0.395733	-1.283672
H74	H	2.487847	0.104267	-0.783672
