data_functionalizedCrystal
_audit_creation_method	'MofGen! by Chris Wilmer'
_symmetry_space_group_name_H-M	'P1'
_symmetry_Int_Tables_number	1
_symmetry_cell_setting	triclinic
loop_
_symmetry_equiv_pos_as_xyz
  x,y,z
_cell_length_a	14.853567
_cell_length_b	8.634740
_cell_length_c	7.681481
_cell_angle_alpha	83.367078
_cell_angle_beta	95.734544
_cell_angle_gamma	92.102619
loop_
_atom_site_label
_atom_site_type_symbol
_atom_site_fract_x
_atom_site_fract_y
_atom_site_fract_z
O1	O	1.206458	0.215934	-0.146299
O2	O	0.946063	0.239924	-0.146328
O3	O	1.063934	0.003427	-0.146312
O4	O	1.088586	0.452432	-0.146315
O5	O	1.078436	-0.025748	0.146548
O6	O	0.960565	0.210749	0.146532
O7	O	1.220960	0.186759	0.146561
Zn8	Zn	1.093065	0.194122	0.193044
Zn9	Zn	1.073958	0.232561	-0.192811
O10	O	1.103089	0.423257	0.146545
C11	C	0.919631	0.224250	0.000098
C12	C	0.819267	0.220994	0.000087
C13	C	1.065600	-0.068623	0.000115
C14	C	1.048949	-0.239841	0.000104
C15	C	0.393449	0.066739	0.000127
C16	C	0.396367	0.347702	0.000124
C17	C	0.490665	0.350765	0.000118
C18	C	0.536358	0.211813	0.000114
C19	C	0.487754	0.069798	0.000116
C20	C	0.539275	0.492779	0.000098
C21	C	0.633578	0.495848	0.000091
C22	C	0.679273	0.356893	0.000099
C23	C	0.630664	0.214872	0.000104
C24	C	0.676357	0.075920	0.000100
C25	C	0.627750	-0.066103	0.000116
C26	C	0.533450	-0.069157	0.000125
C27	C	0.773573	0.359946	0.000091
C28	C	0.770663	0.078980	0.000089
C29	C	1.247391	0.202433	0.000131
C30	C	1.347755	0.205691	0.000131
C31	C	1.101422	0.495306	0.000115
C32	C	1.118073	0.666525	0.000114
N33	N	1.106112	0.167887	0.456380
N34	N	1.060917	0.258784	-0.456147
H35	H	0.977029	-0.290663	0.000089
H36	H	0.353869	-0.048894	0.000148
H37	H	1.189994	-0.282638	0.000057
C38	C	0.827036	0.516162	0.000070
N39	N	0.867304	0.633833	0.000059
H40	H	1.152258	0.075115	0.531592
H41	H	1.014781	0.351561	0.468650
C42	C	0.479975	-0.225368	0.000130
N43	N	0.439693	-0.343024	0.000126
C44	C	0.820918	-0.073883	0.000086
N45	N	0.858769	-0.189019	0.000081
C46	C	0.346101	0.500540	0.000128
N47	N	0.308238	0.615663	0.000138
C48	C	0.687038	0.652072	0.000099
N49	N	0.727306	0.769741	0.000118
H50	H	0.664965	-0.179236	0.000102
H51	H	0.502063	0.605907	0.000083
