data_functionalizedCrystal
_audit_creation_method	'MofGen! by Chris Wilmer'
_symmetry_space_group_name_H-M	'P1'
_symmetry_Int_Tables_number	1
_symmetry_cell_setting	triclinic
loop_
_symmetry_equiv_pos_as_xyz
  x,y,z
_cell_length_a	17.638336
_cell_length_b	13.897447
_cell_length_c	17.640968
_cell_angle_alpha	78.769972
_cell_angle_beta	65.689241
_cell_angle_gamma	78.785134
loop_
_atom_site_label
_atom_site_type_symbol
_atom_site_fract_x
_atom_site_fract_y
_atom_site_fract_z
Zn1	Zn	1.354164	-0.540962	-0.720315
Zn2	Zn	1.854164	-0.040962	-0.220315
Zn3	Zn	1.326208	-0.729371	-0.582494
Zn4	Zn	1.826208	-0.229371	-0.082494
Zn5	Zn	1.188483	-0.540911	-0.554701
Zn6	Zn	1.688483	-0.040911	-0.054701
Zn7	Zn	1.216315	-0.675023	-0.692451
Zn8	Zn	1.716315	-0.175023	-0.192451
O9	O	1.271293	-0.621567	-0.637490
O10	O	1.771293	-0.121567	-0.137490
O11	O	1.465784	-0.588721	-0.725326
O12	O	1.965784	-0.088721	-0.225326
O13	O	1.284591	-0.727095	-0.463479
O14	O	1.784591	-0.227095	0.036521
O15	O	1.210513	-0.405942	-0.576699
O16	O	1.710513	0.094058	-0.076699
O17	O	1.445245	-0.727144	-0.624069
O18	O	1.945245	-0.227144	-0.124069
O19	O	1.332239	-0.405979	-0.698376
O20	O	1.832239	0.094021	-0.198376
O21	O	1.183405	-0.588634	-0.443059
O22	O	1.683405	-0.088634	0.056941
O23	O	1.076847	-0.535935	-0.549681
O24	O	1.576847	-0.035935	-0.049681
O25	O	1.257948	-0.634516	-0.811476
O26	O	1.757948	-0.134516	-0.311476
O27	O	1.097294	-0.634467	-0.650886
O28	O	1.597294	-0.134467	-0.150886
O29	O	1.359226	-0.536022	-0.831947
O30	O	1.859226	-0.036022	-0.331947
O31	O	1.311578	-0.857138	-0.597050
O32	O	1.811578	-0.357138	-0.097050
O33	O	1.230840	-0.817208	-0.677836
O34	O	1.730840	-0.317208	-0.177836
C35	C	1.057167	-0.579299	-0.594244
C36	C	1.557167	-0.079299	-0.094244
C37	C	0.965567	-0.561235	-0.575763
C38	C	1.465567	-0.061235	-0.075763
C39	C	0.825809	-0.484366	-0.497104
C40	C	1.325809	0.015634	0.002896
C41	C	0.911882	-0.501344	-0.514476
C42	C	1.411882	-0.001344	-0.014476
C43	C	0.933193	-0.604176	-0.619699
C44	C	1.433193	-0.104176	-0.119699
C45	C	0.847120	-0.587210	-0.602333
C46	C	1.347120	-0.087210	-0.102333
C47	C	0.793434	-0.527303	-0.541035
C48	C	1.293434	-0.027303	-0.041035
C49	C	0.814744	-0.630147	-0.646264
C50	C	1.314744	-0.130147	-0.146264
C51	C	0.728679	-0.613178	-0.628902
C52	C	1.228679	-0.113178	-0.128902
C53	C	0.674988	-0.553271	-0.567609
C54	C	1.174988	-0.053271	-0.067609
C55	C	0.707368	-0.510334	-0.523673
C56	C	1.207368	-0.010334	-0.023673
C57	C	0.868433	-0.690048	-0.707566
C58	C	1.368433	-0.190048	-0.207566
C59	C	0.836058	-0.732985	-0.751497
C60	C	1.336058	-0.232985	-0.251497
C61	C	0.749990	-0.716022	-0.734131
C62	C	1.249990	-0.216022	-0.234131
C63	C	0.696299	-0.656115	-0.672837
C64	C	1.196299	-0.156115	-0.172837
C65	C	0.717610	-0.758959	-0.778066
C66	C	1.217610	-0.258959	-0.278066
C67	C	0.631544	-0.741990	-0.760704
C68	C	1.131544	-0.241990	-0.260704
C69	C	0.610233	-0.639146	-0.655475
C70	C	1.110233	-0.139146	-0.155475
C71	C	1.271222	-0.872172	-0.637458
C72	C	1.771222	-0.372172	-0.137458
C73	C	1.271272	-0.979391	-0.637486
C74	C	1.771272	-0.479391	-0.137486
C75	C	1.271316	-1.066465	-0.637513
C76	C	1.771316	-0.566465	-0.137513
C77	C	1.271378	-1.175705	-0.637546
C78	C	1.771378	-0.675705	-0.137546
C79	C	1.486254	-0.664001	-0.680905
C80	C	1.986254	-0.164001	-0.180905
C81	C	1.577858	-0.682083	-0.699406
C82	C	2.077858	-0.182083	-0.199406
C83	C	1.314810	-0.579212	-0.852451
C84	C	1.814810	-0.079212	-0.352451
C85	C	1.333355	-0.561163	-0.944054
C86	C	1.833355	-0.061163	-0.444054
C87	C	1.271390	-0.369984	-0.637546
C88	C	1.771390	0.130016	-0.137546
C89	C	1.271431	-0.262775	-0.637569
C90	C	1.771431	0.237225	-0.137569
C91	C	1.130728	-0.758220	-1.192041
C92	C	1.630728	-0.258220	-0.692041
C93	C	1.148171	-0.741252	-1.278120
C94	C	1.648171	-0.241252	-0.778120
C95	C	1.253622	-0.638699	-1.299424
C96	C	1.753622	-0.138699	-0.799424
C97	C	1.236185	-0.655655	-1.213345
C98	C	1.736185	-0.155655	-0.713345
C99	C	1.174738	-0.715417	-1.159660
C100	C	1.674738	-0.215417	-0.659660
C101	C	1.280195	-0.612852	-1.180964
C102	C	1.780195	-0.112852	-0.680964
C103	C	1.262763	-0.629811	-1.094893
C104	C	1.762763	-0.129811	-0.594893
C105	C	1.201320	-0.689573	-1.041203
C106	C	1.701320	-0.189573	-0.541203
C107	C	1.157306	-0.732376	-1.073588
C108	C	1.657306	-0.232376	-0.573588
C109	C	1.341646	-0.553095	-1.234652
C110	C	1.841646	-0.053095	-0.734652
C111	C	1.385656	-0.510292	-1.202271
C112	C	1.885656	-0.010292	-0.702271
C113	C	1.368220	-0.527245	-1.116197
C114	C	1.868220	-0.027245	-0.616197
C115	C	1.306777	-0.587007	-1.062507
C116	C	1.806777	-0.087007	-0.562507
C117	C	1.412234	-0.484442	-1.083811
C118	C	1.912234	0.015558	-0.583811
C119	C	1.394802	-0.501401	-0.997740
C120	C	1.894802	-0.001401	-0.497740
C121	C	1.289345	-0.603966	-0.976436
C122	C	1.789345	-0.103966	-0.476436
C123	C	1.227992	-0.663696	-0.423375
C124	C	1.727992	-0.163696	0.076625
C125	C	1.209607	-0.681505	-0.331805
C126	C	1.709607	-0.181505	0.168195
H127	H	0.605185	-0.776951	-0.796480
H128	H	1.105185	-0.276951	-0.296480
F129	F	0.893201	-0.796746	-0.816728
F130	F	1.393201	-0.296746	-0.316728
F131	F	1.065322	-0.821818	-1.134898
F132	F	1.565322	-0.321818	-0.634898
H133	H	0.566519	-0.590364	-0.605561
H134	H	1.066519	-0.090364	-0.105561
F135	F	0.583389	-0.535207	-0.549133
F136	F	1.083389	-0.035207	-0.049133
F137	F	1.223939	-0.667564	-0.919293
F138	F	1.723939	-0.167564	-0.419293
F139	F	0.774756	-0.822711	-0.843304
F140	F	1.274756	-0.322711	-0.343304
F141	F	0.990337	-0.667936	-0.684931
F142	F	1.490337	-0.167936	-0.184931
F143	F	1.091900	-0.795974	-1.016446
F144	F	1.591900	-0.295974	-0.516446
F145	F	0.960032	-0.708109	-0.726041
F146	F	1.460032	-0.208109	-0.226041
H147	H	0.663653	-0.461552	-0.473758
H148	H	1.163653	0.038448	0.026242
F149	F	1.182770	-0.707628	-0.949597
F150	F	1.682770	-0.207628	-0.449597
H151	H	1.112328	-0.776112	-1.304479
H152	H	1.612328	-0.276112	-0.804479
H153	H	0.782094	-0.435584	-0.447189
H154	H	1.282094	0.064416	0.052811
F155	F	0.946333	-0.455641	-0.467713
F156	F	1.446333	0.044359	0.032287
F157	F	1.319019	-0.575100	-1.356569
F158	F	1.819019	-0.075100	-0.856569
F159	F	1.451053	-0.446694	-1.259415
F160	F	1.951053	0.053306	-0.759415
F161	F	1.360201	-0.535051	-1.326258
F162	F	1.860201	-0.035051	-0.826258
F163	F	1.477636	-0.420851	-1.140958
F164	F	1.977636	0.079149	-0.640958
F165	F	1.441644	-0.455848	-0.963276
F166	F	1.941644	0.044152	-0.463276
