data_functionalizedCrystal
_audit_creation_method	'MofGen! by Chris Wilmer'
_symmetry_space_group_name_H-M	'P1'
_symmetry_Int_Tables_number	1
_symmetry_cell_setting	triclinic
loop_
_symmetry_equiv_pos_as_xyz
  x,y,z
_cell_length_a	10.654541
_cell_length_b	10.489741
_cell_length_c	9.130307
_cell_angle_alpha	89.996969
_cell_angle_beta	89.999822
_cell_angle_gamma	84.511551
loop_
_atom_site_label
_atom_site_type_symbol
_atom_site_fract_x
_atom_site_fract_y
_atom_site_fract_z
O1	O	1.667923	0.179145	-0.121754
O2	O	1.302452	0.196218	-0.121766
O3	O	1.493503	0.002080	-0.121751
O4	O	1.476871	0.373284	-0.121769
O5	O	1.493497	0.002078	0.121848
O6	O	1.302445	0.196216	0.121833
O7	O	1.667916	0.179143	0.121845
Cu8	Cu	1.485180	0.187680	0.144081
Cu9	Cu	1.485188	0.187682	-0.144003
O10	O	1.476865	0.373282	0.121830
C11	C	1.255650	0.194964	0.000032
C12	C	1.116205	0.191216	0.000027
C13	C	1.492244	-0.045452	0.000048
C14	C	1.488486	-0.187080	0.000045
C15	C	1.088342	0.423360	-0.000003
C16	C	1.008902	0.537667	-0.000023
C17	C	0.877882	0.534137	-0.000025
C18	C	0.826301	0.416288	-0.000001
C19	C	0.905742	0.301982	0.000020
C20	C	1.036763	0.305524	0.000017
C21	C	0.933604	0.069840	0.000060
C22	C	1.064624	0.073367	0.000051
C23	C	0.882024	-0.048009	0.000084
C24	C	0.961465	-0.162318	0.000094
C25	C	1.092492	-0.158783	0.000093
C26	C	1.144065	-0.040939	0.000071
C27	C	1.366925	-0.255160	0.000030
C28	C	1.424346	-0.347312	0.120139
C29	C	1.424381	-0.347285	-0.120031
C30	C	1.545957	-0.277366	0.120253
C31	C	1.545975	-0.277329	-0.120025
C32	C	1.603484	-0.369454	0.000114
C33	C	1.714718	0.180397	0.000044
C34	C	1.854163	0.184146	0.000039
C35	C	1.478124	0.420814	0.000028
C36	C	1.481882	0.562441	0.000021
N37	N	1.485184	0.187677	0.346704
N38	N	1.485194	0.187674	-0.346625
C39	C	1.654430	0.015818	0.346708
C40	C	1.739061	-0.070107	0.423376
C41	C	1.739074	-0.070108	0.576710
C42	C	1.654444	0.015823	0.653378
C43	C	1.569812	0.101749	0.576710
C44	C	1.569811	0.101743	0.423373
C45	C	1.400562	0.273600	0.576706
C46	C	1.400554	0.273609	0.423373
C47	C	1.315932	0.359532	0.653375
C48	C	1.231305	0.445465	0.576706
C49	C	1.231296	0.445464	0.423363
C50	C	1.315922	0.359535	0.346704
H51	H	1.050913	0.633617	-0.000039
H52	H	0.813200	0.627215	-0.000031
H53	H	1.372908	-0.378299	0.221679
H54	H	1.315940	0.359522	0.778227
C55	C	1.288181	-0.037046	0.000075
H56	H	1.307518	0.049509	0.000070
H57	H	1.322976	-0.079123	-0.084860
H58	H	1.322959	-0.079101	0.085047
H59	H	1.266979	-0.205460	0.000147
C60	C	1.615366	-0.235759	0.257590
H61	H	1.617290	-0.145402	0.256787
H62	H	1.699149	-0.275916	0.257946
H63	H	1.572454	-0.260273	0.342772
H64	H	1.162375	0.515430	0.360948
H65	H	0.719617	0.413424	0.000016
H66	H	1.703520	-0.418927	0.000184
C67	C	1.654437	0.015810	0.822040
H68	H	1.591910	0.079284	0.856720
H69	H	1.734857	0.034024	0.856740
H70	H	1.636510	-0.065892	0.856715
C71	C	1.832160	-0.164623	0.661055
H72	H	1.820036	-0.152317	0.763354
H73	H	1.916099	-0.149977	0.635922
H74	H	1.817753	-0.249893	0.635940
H75	H	1.157166	-0.251866	0.000116
C76	C	1.615400	-0.235409	-0.257198
H77	H	1.572093	-0.259086	-0.342461
H78	H	1.698961	-0.276123	-0.258061
H79	H	1.617946	-0.145137	-0.255718
H80	H	1.372933	-0.378222	-0.221583
H81	H	1.315928	0.359530	0.221852
H82	H	1.162399	0.515419	0.639139
C83	C	1.654425	0.015831	0.178046
H84	H	1.591908	0.079318	0.143366
H85	H	1.636519	-0.065862	0.143355
H86	H	1.734850	0.034069	0.143363
H87	H	1.807965	-0.140075	0.360940
H88	H	0.775340	-0.050875	0.000091
C89	C	1.232459	0.427249	-0.000014
H90	H	1.251801	0.513801	-0.000024
H91	H	1.267242	0.385168	-0.084953
H92	H	1.267244	0.385193	0.084954
H93	H	0.919457	-0.258261	0.000112
