data_functionalizedCrystal
_audit_creation_method	'MofGen! by Chris Wilmer'
_symmetry_space_group_name_H-M	'P1'
_symmetry_Int_Tables_number	1
_symmetry_cell_setting	triclinic
loop_
_symmetry_equiv_pos_as_xyz
  x,y,z
_cell_length_a	19.077241
_cell_length_b	19.077356
_cell_length_c	19.076919
_cell_angle_alpha	90.107245
_cell_angle_beta	89.886096
_cell_angle_gamma	85.504765
loop_
_atom_site_label
_atom_site_type_symbol
_atom_site_fract_x
_atom_site_fract_y
_atom_site_fract_z
Zn1	Zn	-1.048557	-0.255470	0.429956
Zn2	Zn	-0.548557	0.244530	0.929956
Zn3	Zn	-1.048900	-0.368246	0.307767
Zn4	Zn	-0.548900	0.131754	0.807767
Zn5	Zn	-0.935786	-0.255099	0.307749
Zn6	Zn	-0.435786	0.244901	0.807749
Zn7	Zn	-0.926361	-0.377633	0.420112
Zn8	Zn	-0.426361	0.122367	0.920112
O9	O	-0.989901	-0.314112	0.366396
O10	O	-0.489901	0.185888	0.866396
O11	O	-1.147079	-0.266657	0.417875
O12	O	-0.647079	0.233343	0.917875
O13	O	-1.037983	-0.349154	0.209603
O14	O	-0.537983	0.150846	0.709603
O15	O	-0.954546	-0.156670	0.328073
O16	O	-0.454546	0.343330	0.828073
O17	O	-1.147332	-0.349513	0.328103
O18	O	-0.647332	0.150487	0.828103
O19	O	-1.037398	-0.156943	0.417858
O20	O	-0.537398	0.343057	0.917858
O21	O	-0.954879	-0.266025	0.209591
O22	O	-0.454879	0.233975	0.709591
O23	O	-0.836059	-0.275127	0.318528
O24	O	-0.336059	0.224873	0.818528
O25	O	-0.938483	-0.365511	0.519579
O26	O	-0.438483	0.134489	1.019579
O27	O	-0.829134	-0.365151	0.401080
O28	O	-0.329134	0.134849	0.901080
O29	O	-1.028259	-0.275759	0.526812
O30	O	-0.528259	0.224241	1.026812
O31	O	-1.028844	-0.467969	0.318557
O32	O	-0.528844	0.032031	0.818557
O33	O	-0.938815	-0.474866	0.401097
O34	O	-0.438815	0.025134	0.901097
C35	C	-0.807062	-0.321118	0.358734
C36	C	-0.307062	0.178882	0.858734
C37	C	-0.728842	-0.324133	0.355472
C38	C	-0.228842	0.175867	0.855472
C39	C	-0.691958	-0.282484	0.400745
C40	C	-0.191958	0.217516	0.900745
C41	C	-0.618461	-0.285313	0.397674
C42	C	-0.118461	0.214687	0.897674
C43	C	-0.581851	-0.329795	0.349334
C44	C	-0.081851	0.170205	0.849334
C45	C	-0.618740	-0.371445	0.304056
C46	C	-0.118740	0.128555	0.804056
C47	C	-0.692235	-0.368611	0.307124
C48	C	-0.192235	0.131389	0.807124
C49	C	-0.362059	-0.342883	0.335136
C50	C	0.137941	0.157117	0.835136
C51	C	-0.288559	-0.345714	0.332073
C52	C	0.211441	0.154286	0.832073
C53	C	-0.288285	-0.259582	0.425690
C54	C	0.211715	0.240418	0.925690
C55	C	-0.361781	-0.256756	0.428757
C56	C	0.138219	0.243244	0.928757
C57	C	-0.398664	-0.298403	0.383477
C58	C	0.101336	0.201597	0.883477
N59	N	-0.506726	-0.332689	0.346195
N60	N	-0.006726	0.167311	0.846195
N61	N	-0.473788	-0.295504	0.386613
N62	N	0.026212	0.204496	0.886613
C63	C	-0.982863	-0.496952	0.358777
C64	C	-0.482863	0.003048	0.858777
C65	C	-0.979915	-0.575170	0.355543
C66	C	-0.479915	-0.075170	0.855543
C67	C	-0.982281	-0.321723	0.549359
C68	C	-0.482281	0.178277	1.049359
C69	C	-0.979034	-0.324967	0.627327
C70	C	-0.479034	0.175033	1.127327
C71	C	-0.173454	-0.307075	0.374083
C72	C	0.326546	0.192925	0.874083
C73	C	-0.251674	-0.304066	0.377345
C74	C	0.248326	0.195934	0.877345
C75	C	-0.996985	-0.130558	0.374062
C76	C	-0.496985	0.369442	0.874062
C77	C	-1.000004	-0.052339	0.377328
C78	C	-0.500004	0.447661	0.877328
C79	C	-0.958289	-0.015448	0.332118
C80	C	-0.458289	0.484552	0.832118
C81	C	-0.961124	0.058047	0.335194
C82	C	-0.461124	0.558047	0.835194
C83	C	-1.005679	0.094651	0.383478
C84	C	-0.505679	0.594651	0.883478
C85	C	-1.047396	0.057755	0.428692
C86	C	-0.547396	0.557755	0.928692
C87	C	-1.044557	-0.015739	0.425619
C88	C	-0.544557	0.484261	0.925619
C89	C	-1.018793	0.314440	0.397685
C90	C	-0.518793	0.814440	0.897685
C91	C	-1.021630	0.387939	0.400753
C92	C	-0.521630	0.887939	0.900753
C93	C	-0.935357	0.388227	0.307256
C94	C	-0.435357	0.888227	0.807256
C95	C	-0.932525	0.314731	0.304184
C96	C	-0.432525	0.814731	0.804184
C97	C	-0.974239	0.277841	0.349401
C98	C	-0.474239	0.777841	0.849401
N99	N	-1.008580	0.169775	0.386622
N100	N	-0.508580	0.669775	0.886622
N101	N	-0.971334	0.202718	0.346260
N102	N	-0.471334	0.702718	0.846260
C103	C	-0.997533	-0.306478	0.184149
C104	C	-0.497533	0.193522	0.684149
C105	C	-1.000924	-0.303031	0.106195
C106	C	-0.500924	0.196969	0.606195
C107	C	-1.024248	-0.279763	0.667723
C108	C	-0.524248	0.220237	1.167723
C109	C	-1.021189	-0.282808	0.740982
C110	C	-0.521189	0.217192	1.240982
C111	C	-0.972919	-0.331061	0.773844
C112	C	-0.472919	0.168939	1.273844
C113	C	-0.927700	-0.376266	0.733442
C114	C	-0.427700	0.123734	1.233442
C115	C	-0.930756	-0.373217	0.660185
C116	C	-0.430756	0.126783	1.160185
C117	C	-0.958762	-0.345188	0.992536
C118	C	-0.458762	0.154812	1.492536
C119	C	-0.955710	-0.348235	1.065799
C120	C	-0.455710	0.151765	1.565799
C121	C	-1.049199	-0.254776	1.073334
C122	C	-0.549199	0.245224	1.573334
C123	C	-1.052254	-0.251734	1.000075
C124	C	-0.552254	0.248266	1.500075
C125	C	-1.007033	-0.296936	0.959680
C126	C	-0.507033	0.203064	1.459680
N127	N	-0.969792	-0.334176	0.848726
N128	N	-0.469792	0.165824	1.348726
N129	N	-1.010157	-0.293817	0.884799
N130	N	-0.510157	0.206183	1.384799
H131	H	-0.722266	-0.402525	0.270258
H132	H	-0.222266	0.097475	0.770258
C133	C	-0.247712	-0.213768	0.475487
C134	C	0.252288	0.286232	0.975487
H135	H	-0.198698	-0.221820	0.466735
H136	H	0.301302	0.278180	0.966735
H137	H	-0.257405	-0.225632	0.522673
H138	H	0.242595	0.274368	1.022673
H139	H	-0.261997	-0.165579	0.467764
H140	H	0.238003	0.334421	0.967764
H141	H	-0.588433	-0.251400	0.434541
H142	H	-0.088433	0.248600	0.934541
C143	C	-0.402048	-0.207819	0.481925
C144	C	0.097952	0.292181	0.981925
H145	H	-0.369555	-0.183414	0.508444
H146	H	0.130445	0.316586	1.008444
H147	H	-0.428421	-0.234947	0.512519
H148	H	0.071579	0.265053	1.012519
H149	H	-0.433005	-0.174895	0.457609
H150	H	0.066995	0.325105	0.957609
H151	H	-1.057915	0.417739	0.440074
H152	H	-0.557915	0.917739	0.940074
H153	H	-0.922010	-0.045245	0.292798
H154	H	-0.422010	0.454755	0.792798
H155	H	-0.258752	-0.381940	0.292707
H156	H	0.241248	0.118060	0.792707
C157	C	-0.883505	0.274468	0.251084
C158	C	-0.383505	0.774468	0.751084
H159	H	-0.887791	0.225414	0.255727
H160	H	-0.387791	0.725414	0.755727
H161	H	-0.836262	0.284279	0.259878
H162	H	-0.336262	0.784279	0.759878
H163	H	-0.896230	0.288866	0.204882
H164	H	-0.396230	0.788866	0.704882
H165	H	-1.058008	-0.246001	0.773870
H166	H	-0.558008	0.253999	1.273870
C167	C	-0.915237	0.098628	0.285467
C168	C	-0.415237	0.598628	0.785467
H169	H	-0.923300	0.147640	0.294217
H170	H	-0.423300	0.647640	0.794217
H171	H	-0.927032	0.088944	0.238263
H172	H	-0.427032	0.588944	0.738263
H173	H	-0.867059	0.084341	0.293252
H174	H	-0.367059	0.584341	0.793252
C175	C	-1.090443	-0.056322	0.475348
C176	C	-0.590443	0.443678	0.975348
H177	H	-1.082366	-0.105335	0.466608
H178	H	-0.582366	0.394665	0.966608
H179	H	-1.138619	-0.042042	0.467570
H180	H	-0.638619	0.457958	0.967570
H181	H	-1.078639	-0.046634	0.522552
H182	H	-0.578639	0.453366	1.022552
C183	C	-1.064682	0.273870	0.447417
C184	C	-0.564682	0.773870	0.947417
H185	H	-1.091628	0.306199	0.476606
H186	H	-0.591628	0.806199	0.976606
H187	H	-1.035384	0.242897	0.475656
H188	H	-0.535384	0.742897	0.975656
H189	H	-1.095357	0.247492	0.420667
H190	H	-0.595357	0.747492	0.920667
H191	H	-0.721761	-0.246265	0.440111
H192	H	-0.221761	0.253735	0.940111
H193	H	-0.392080	-0.376795	0.298266
H194	H	0.107920	0.123205	0.798266
C195	C	-1.096406	0.098017	0.481802
C196	C	-0.596406	0.598017	0.981802
H197	H	-1.092129	0.147072	0.477153
H198	H	-0.592129	0.647072	0.977153
H199	H	-1.083681	0.083617	0.527998
H200	H	-0.583681	0.583617	1.027998
H201	H	-1.143653	0.088208	0.473008
H202	H	-0.643653	0.588208	0.973008
C203	C	-0.578470	-0.420374	0.250883
C204	C	-0.078470	0.079626	0.750883
H205	H	-0.529416	-0.416103	0.255544
H206	H	-0.029416	0.083897	0.755544
H207	H	-0.592865	-0.407580	0.204703
H208	H	-0.092865	0.092420	0.704703
H209	H	-0.588279	-0.467634	0.259610
H210	H	-0.088279	0.032366	0.759610
H211	H	-0.901395	0.418269	0.270443
H212	H	-0.401395	0.918269	0.770443
C213	C	-1.077343	-0.226682	0.631582
C214	C	-0.577343	0.273318	1.131582
H215	H	-1.103827	-0.200192	0.666135
H216	H	-0.603827	0.299808	1.166135
H217	H	-1.108160	-0.251232	0.603165
H218	H	-0.608160	0.248768	1.103165
H219	H	-1.052791	-0.195860	0.603158
H220	H	-0.552791	0.304140	1.103158
C221	C	-1.105352	-0.198656	0.963932
C222	C	-0.605352	0.301344	1.463932
H223	H	-1.131839	-0.172167	0.998483
H224	H	-0.631839	0.327833	1.498483
H225	H	-1.136165	-0.223215	0.935517
H226	H	-0.636165	0.276785	1.435517
H227	H	-1.080806	-0.167832	0.935505
H228	H	-0.580806	0.332168	1.435505
C229	C	-1.098932	-0.205052	1.117769
C230	C	-0.598932	0.294948	1.617769
H231	H	-1.090197	-0.213773	1.166105
H232	H	-0.590197	0.286227	1.666105
H233	H	-1.146319	-0.213037	1.107318
H234	H	-0.646319	0.286963	1.607318
H235	H	-1.090952	-0.157662	1.107305
H236	H	-0.590952	0.342338	1.607305
H237	H	-0.916401	-0.387529	1.092553
H238	H	-0.416401	0.112471	1.592553
C239	C	-0.909007	-0.394895	0.948111
C240	C	-0.409007	0.105105	1.448111
H241	H	-0.879823	-0.424067	0.978177
H242	H	-0.379823	0.075933	1.478177
H243	H	-0.880581	-0.367945	0.919382
H244	H	-0.380581	0.132055	1.419382
H245	H	-0.935920	-0.423347	0.919372
H246	H	-0.435920	0.076653	1.419372
C247	C	-0.874604	-0.429344	0.769588
C248	C	-0.374604	0.070656	1.269588
H249	H	-0.879264	-0.424691	0.819004
H250	H	-0.379264	0.075309	1.319004
H251	H	-0.828219	-0.420358	0.756029
H252	H	-0.328219	0.079642	1.256029
H253	H	-0.883585	-0.475734	0.756038
H254	H	-0.383585	0.024266	1.256038
C255	C	-0.881038	-0.422957	0.615749
C256	C	-0.381038	0.077043	1.115749
H257	H	-0.851861	-0.452141	0.645811
H258	H	-0.351861	0.047859	1.145811
H259	H	-0.852602	-0.396037	0.587000
H260	H	-0.352602	0.103963	1.087000
H261	H	-0.907985	-0.451396	0.587030
H262	H	-0.407985	0.048604	1.087030
