data_functionalizedCrystal
_audit_creation_method	'MofGen! by Chris Wilmer'
_symmetry_space_group_name_H-M	'P1'
_symmetry_Int_Tables_number	1
_symmetry_cell_setting	triclinic
loop_
_symmetry_equiv_pos_as_xyz
  x,y,z
_cell_length_a	23.532355
_cell_length_b	23.532357
_cell_length_c	13.101039
_cell_angle_alpha	93.334957
_cell_angle_beta	86.670091
_cell_angle_gamma	82.827896
loop_
_atom_site_label
_atom_site_type_symbol
_atom_site_fract_x
_atom_site_fract_y
_atom_site_fract_z
O1	O	0.758413	0.065839	-0.085086
O2	O	0.592545	0.075872	-0.085121
O3	O	0.680495	-0.012078	-0.085081
O4	O	0.670463	0.153789	-0.085126
O5	O	0.674184	-0.005758	0.085346
O6	O	0.586235	0.082193	0.085306
O7	O	0.752103	0.072160	0.085341
Zn8	Zn	0.668167	0.078180	0.112383
Zn9	Zn	0.676481	0.069852	-0.112162
O10	O	0.664153	0.160110	0.085301
C11	C	0.568173	0.078781	0.000089
C12	C	0.504955	0.078027	0.000077
C13	C	0.109501	0.076736	0.093021
C14	C	0.050101	0.076018	0.093025
O15	O	0.016458	0.078558	0.172031
N16	N	0.023833	0.072217	0.000125
C17	C	0.056968	0.069127	-0.092784
O18	O	0.029170	0.065828	-0.171802
C19	C	0.116367	0.069841	-0.092787
C20	C	0.142631	0.073648	0.000118
C21	C	0.135766	0.080542	0.185918
C22	C	0.195161	0.081260	0.185914
C23	C	0.228291	0.078172	0.093011
C24	C	0.202026	0.074366	0.000114
C25	C	0.149501	0.066747	-0.185696
C26	C	0.208904	0.067460	-0.185691
C27	C	0.235168	0.071267	-0.092785
C28	C	0.294552	0.071996	-0.092793
N29	N	0.320820	0.075798	0.000106
C30	C	0.287690	0.078885	0.093008
C31	C	-0.067774	0.067629	-0.092771
C32	C	-0.127172	0.066919	-0.092769
C33	C	-0.134034	0.073809	0.093041
C34	C	-0.074635	0.074523	0.093038
C35	C	-0.041505	0.071430	0.000129
C36	C	0.412425	0.080394	0.092992
C37	C	0.471825	0.081115	0.092979
C38	C	0.478682	0.074222	-0.092830
C39	C	0.419287	0.073504	-0.092817
C40	C	0.386159	0.076589	0.000102
O41	O	0.328232	0.069456	-0.171760
O42	O	0.315497	0.082177	0.172013
C43	C	0.677089	-0.030135	0.000135
C44	C	0.676334	-0.093353	0.000145
C45	C	0.675039	-0.488811	-0.092811
C46	C	0.674322	-0.548210	-0.092817
O47	O	0.676857	-0.581857	-0.171825
N48	N	0.670526	-0.574476	0.000081
C49	C	0.667442	-0.541338	0.092992
O50	O	0.664147	-0.569133	0.172008
C51	C	0.668155	-0.481939	0.092997
C52	C	0.671956	-0.455677	0.000092
C53	C	0.678839	-0.462548	-0.185708
C54	C	0.679557	-0.403153	-0.185702
C55	C	0.676475	-0.370020	-0.092799
C56	C	0.672674	-0.396282	0.000098
C57	C	0.665066	-0.448802	0.185906
C58	C	0.665779	-0.389399	0.185903
C59	C	0.669581	-0.363137	0.092998
C60	C	0.670310	-0.303753	0.093008
N61	N	0.674105	-0.277488	0.000110
C62	C	0.677188	-0.310621	-0.092794
C63	C	0.665944	-0.666080	0.092974
C64	C	0.665235	-0.725478	0.092970
C65	C	0.672114	-0.732346	-0.092839
C66	C	0.672827	-0.672947	-0.092834
C67	C	0.669739	-0.639814	0.000076
C68	C	0.678696	-0.185886	-0.092773
C69	C	0.679416	-0.126486	-0.092759
C70	C	0.672534	-0.119623	0.093050
C71	C	0.671817	-0.179018	0.093036
C72	C	0.674896	-0.212149	0.000116
O73	O	0.667774	-0.270070	0.171975
O74	O	0.680474	-0.282817	-0.171797
C75	C	0.776474	0.069250	0.000129
C76	C	0.839693	0.070004	0.000134
C77	C	0.667559	0.178166	0.000083
C78	C	0.668314	0.241384	0.000066
N79	N	0.662497	0.083863	0.265628
N80	N	0.682155	0.064164	-0.265408
C81	C	0.654782	0.091600	0.474668
C82	C	0.689868	0.056429	0.525559
C83	C	0.685576	0.060734	0.641876
C84	C	0.659074	0.087296	0.358341
H85	H	0.385458	0.082911	0.168655
H86	H	0.621523	0.124943	0.518450
N87	N	-0.047798	0.078413	0.187925
N88	N	-0.020904	0.119731	0.208639
H89	H	-0.001951	0.122479	0.275656
H90	H	0.723130	0.023085	0.481772
H91	H	0.493206	0.084217	0.168637
H92	H	-0.148553	0.063828	-0.168422
H93	H	0.216541	0.084357	0.261567
H94	H	0.663256	-0.362423	0.261563
H95	H	0.108797	0.083055	0.261575
H96	H	-0.040803	0.065115	-0.168433
N97	N	-0.167892	0.076969	0.187932
N98	N	-0.220925	0.076332	0.187911
H99	H	-0.244839	0.078566	0.254923
H100	H	0.682513	-0.105107	-0.168416
H101	H	0.235875	0.064941	-0.261350
N102	N	0.122695	0.062848	-0.280610
N103	N	0.137128	0.020466	-0.342790
H104	H	0.118199	0.017710	-0.409830
N105	N	0.392463	0.069622	-0.187725
N106	N	0.422053	0.066868	-0.270666
H107	H	0.403113	0.064121	-0.337697
N108	N	0.512537	0.071077	-0.187714
N109	N	0.565570	0.071720	-0.187692
H110	H	0.589483	0.069497	-0.254705
H111	H	0.670027	-0.092635	0.168690
N112	N	0.681839	-0.219714	-0.187696
N113	N	0.685232	-0.196248	-0.270626
H114	H	0.687455	-0.220138	-0.337666
N115	N	0.683438	-0.376341	-0.280612
N116	N	0.686188	-0.405940	-0.363547
H117	H	0.688927	-0.387008	-0.430583
H118	H	0.681347	-0.489519	-0.261366
N119	N	0.676712	-0.646134	-0.187742
N120	N	0.679468	-0.675731	-0.270680
H121	H	0.682213	-0.656798	-0.337714
H122	H	0.674622	-0.759334	-0.168486
N123	N	0.661364	-0.752293	0.187879
N124	N	0.658616	-0.722696	0.270817
H125	H	0.655880	-0.741631	0.337851
N126	N	0.662792	-0.632246	0.187895
N127	N	0.659403	-0.655710	0.270827
H128	H	0.657175	-0.631818	0.337866
N129	N	0.661188	-0.475609	0.280817
N130	N	0.658435	-0.446007	0.363750
H131	H	0.655696	-0.464938	0.430788
N132	N	0.667939	-0.205839	0.187942
N133	N	0.665188	-0.176246	0.270884
H134	H	0.662442	-0.195183	0.337915
