data_functionalizedCrystal
_audit_creation_method	'MofGen! by Chris Wilmer'
_symmetry_space_group_name_H-M	'P1'
_symmetry_Int_Tables_number	1
_symmetry_cell_setting	triclinic
loop_
_symmetry_equiv_pos_as_xyz
  x,y,z
_cell_length_a	10.967926
_cell_length_b	15.995292
_cell_length_c	9.482900
_cell_angle_alpha	99.335510
_cell_angle_beta	92.549900
_cell_angle_gamma	84.103094
loop_
_atom_site_label
_atom_site_type_symbol
_atom_site_fract_x
_atom_site_fract_y
_atom_site_fract_z
O1	O	1.610161	0.147806	0.282517
O2	O	1.260947	0.149642	0.195025
O3	O	1.445137	0.027148	0.241169
O4	O	1.425972	0.270300	0.236372
O5	O	1.407724	0.052134	0.473589
O6	O	1.223534	0.174628	0.427444
O7	O	1.572748	0.172792	0.514936
Cu8	Cu	1.394725	0.175991	0.492412
Cu9	Cu	1.438971	0.146443	0.217549
O10	O	1.388559	0.295286	0.468792
C11	C	1.197554	0.160114	0.300039
C12	C	1.064403	0.154080	0.266678
C13	C	0.985658	0.164333	0.372205
C14	C	0.848039	0.158098	0.337728
C15	C	1.425651	0.008420	0.357180
C16	C	1.423314	-0.084611	0.356584
C17	C	1.414716	-0.422631	0.354443
C18	C	1.547575	-0.394888	0.388270
C19	C	1.550187	-0.298187	0.388374
C20	C	1.418982	-0.254936	0.355506
C21	C	1.373881	-0.300492	0.206135
C22	C	1.372298	-0.397346	0.205628
C23	C	1.327037	-0.368879	0.469252
C24	C	1.331682	-0.272036	0.472236
C25	C	1.421387	-0.160161	0.356100
C26	C	1.412308	-0.517407	0.353838
C27	C	1.636142	0.162320	0.409919
C28	C	1.769295	0.168353	0.443271
C29	C	1.408045	0.314014	0.352778
C30	C	1.410383	0.407044	0.353365
N31	N	1.363614	0.196774	0.685738
N32	N	1.470091	0.125653	0.024226
C33	C	1.429786	0.152568	0.774515
C34	C	1.403910	0.169866	0.935450
H35	H	0.803756	0.181746	0.559149
O36	O	1.303487	0.236972	0.992564
H37	H	1.298929	0.240034	1.110007
O38	O	1.570512	0.058546	0.967114
H39	H	1.575083	0.055489	0.849674
O40	O	1.263197	0.263877	0.742859
H41	H	1.258638	0.266939	0.860302
O42	O	1.031297	0.182085	0.525694
H43	H	1.098056	0.128634	0.548638
H44	H	0.813577	0.144700	0.221851
O45	O	1.374836	-0.231349	0.618359
H46	H	1.374077	-0.161665	0.621052
H47	H	1.435936	-0.289531	0.118928
O48	O	1.018766	0.136340	0.113187
H49	H	0.917834	0.134233	0.110194
H50	H	1.586926	-0.267221	0.496551
O51	O	1.595157	-0.416157	0.531371
H52	H	1.524632	-0.446739	0.579911
O53	O	1.203123	-0.231377	0.451119
H54	H	1.199423	-0.198208	0.356662
H55	H	1.613768	-0.432404	0.306392
O56	O	1.639847	-0.285084	0.279495
H57	H	1.681499	-0.347873	0.226552
H58	H	1.229037	-0.385993	0.445633
H59	H	1.434299	-0.433314	0.117948
O60	O	1.244479	-0.421742	0.165275
H61	H	1.184073	-0.364373	0.146198
H62	H	1.278126	-0.272331	0.177015
H63	H	1.352710	-0.384775	0.580342
H64	H	1.505591	0.101911	0.731378
