data_functionalizedCrystal
_audit_creation_method	'MofGen! by Chris Wilmer'
_symmetry_space_group_name_H-M	'P1'
_symmetry_Int_Tables_number	1
_symmetry_cell_setting	triclinic
loop_
_symmetry_equiv_pos_as_xyz
  x,y,z
_cell_length_a	14.044191
_cell_length_b	12.503572
_cell_length_c	11.026607
_cell_angle_alpha	85.701682
_cell_angle_beta	100.888897
_cell_angle_gamma	93.837835
loop_
_atom_site_label
_atom_site_type_symbol
_atom_site_fract_x
_atom_site_fract_y
_atom_site_fract_z
O1	O	1.312921	0.089261	0.291566
O2	O	1.646255	0.422594	0.624899
O3	O	1.979588	0.755927	0.958232
O4	O	1.035116	0.089275	0.280800
O5	O	1.368449	0.422608	0.614133
O6	O	1.701782	0.755941	0.947466
O7	O	1.150994	0.089265	0.107037
O8	O	1.484327	0.422598	0.440370
O9	O	1.817661	0.755931	0.773704
O10	O	1.197043	0.089270	0.465329
O11	O	1.530376	0.422604	0.798662
O12	O	1.863710	0.755937	1.131995
O13	O	1.142283	-0.089376	0.120129
O14	O	1.475617	0.243957	0.453462
O15	O	1.808950	0.577290	0.786795
O16	O	1.026405	-0.089367	0.293891
O17	O	1.359738	0.243967	0.627225
O18	O	1.693072	0.577300	0.960558
O19	O	1.304211	-0.089381	0.304657
O20	O	1.637544	0.243953	0.637991
O21	O	1.970877	0.577286	0.971324
Cu22	Cu	1.164512	-0.105685	0.300470
Cu23	Cu	1.497846	0.227648	0.633803
Cu24	Cu	1.831179	0.560982	0.967136
Cu25	Cu	1.174814	0.105579	0.284987
Cu26	Cu	1.508147	0.438912	0.618321
Cu27	Cu	1.841481	0.772246	0.951654
O28	O	1.188332	-0.089371	0.478420
O29	O	1.521666	0.243962	0.811754
O30	O	1.854999	0.577296	1.145087
C31	C	0.994642	-0.000044	0.282636
C32	C	1.327976	0.333289	0.615969
C33	C	1.661309	0.666622	0.949303
C34	C	0.887020	-0.000039	0.268588
C35	C	1.220353	0.333294	0.601922
C36	C	1.553686	0.666628	0.935255
C37	C	0.649350	-0.000048	0.342535
C38	C	0.982684	0.333285	0.675868
C39	C	1.316017	0.666618	1.009201
C40	C	0.689983	-0.000048	0.242927
C41	C	1.023316	0.333285	0.576261
C42	C	1.356650	0.666619	0.909594
C43	C	0.799625	-0.000043	0.257209
C44	C	1.132958	0.333290	0.590542
C45	C	1.466291	0.666624	0.923875
C46	C	0.539699	-0.000054	0.328255
C47	C	0.873032	0.333280	0.661589
C48	C	1.206366	0.666613	0.994922
N49	N	1.157274	-0.254277	0.311359
N50	N	1.490607	0.079057	0.644693
N51	N	1.823941	0.412390	0.978026
C52	C	1.146627	-0.473391	0.327389
C53	C	1.479961	-0.140058	0.660722
C54	C	1.813294	0.193276	0.994055
C55	C	1.192702	-0.526722	0.258063
C56	C	1.526036	-0.193389	0.591397
C57	C	1.859369	0.139945	0.924730
C58	C	1.186779	-0.648645	0.266982
C59	C	1.520112	-0.315311	0.600316
C60	C	1.853445	0.018022	0.933649
C61	C	1.152550	-0.351457	0.318471
C62	C	1.485884	-0.018124	0.651804
C63	C	1.819217	0.315209	0.985138
C64	C	1.344684	-0.000059	0.302821
C65	C	1.678017	0.333274	0.636154
C66	C	2.011351	0.666607	0.969488
C67	C	1.452307	-0.000058	0.316868
C68	C	1.785640	0.333276	0.650202
C69	C	2.118974	0.666609	0.983535
C70	C	1.138144	-0.000054	0.067452
C71	C	1.471477	0.333279	0.400785
C72	C	1.804810	0.666613	0.734119
C73	C	1.112819	-0.000049	-0.070005
C74	C	1.446153	0.333284	0.263329
C75	C	1.779486	0.666618	0.596662
N76	N	1.182058	0.254171	0.274089
N77	N	1.515392	0.587504	0.607422
N78	N	1.848725	0.920837	0.940756
C79	C	1.182744	-0.000051	-0.136239
C80	C	1.516078	0.333282	0.197095
C81	C	1.849411	0.666616	0.530428
C82	C	1.156572	-0.000046	-0.278307
C83	C	1.489906	0.333288	0.055026
C84	C	1.823239	0.666621	0.388359
C85	C	1.201183	-0.000050	0.518005
C86	C	1.534516	0.333284	0.851339
C87	C	1.867849	0.666617	1.184672
C88	C	1.226507	-0.000048	0.655461
C89	C	1.559841	0.333286	0.988795
C90	C	1.893174	0.666619	1.322128
H91	H	0.696904	-0.000044	0.438529
H92	H	1.030237	0.333290	0.771862
H93	H	1.363571	0.666623	1.105196
N94	N	1.250862	-0.465926	0.170584
N95	N	1.584195	-0.132593	0.503917
N96	N	1.917529	0.200741	0.837250
H97	H	1.223731	-0.485426	0.083052
H98	H	1.557064	-0.152093	0.416385
H99	H	1.890398	0.181240	0.749719
H100	H	1.246894	-0.386203	0.176636
H101	H	1.580228	-0.052870	0.509970
H102	H	1.913561	0.280463	0.843303
H103	H	1.102736	-0.519295	0.393434
H104	H	1.436069	-0.185961	0.726768
H105	H	1.769403	0.147372	1.060101
N106	N	1.287711	-0.000069	-0.072048
N107	N	1.621044	0.333264	0.261285
N108	N	1.954378	0.666598	0.594619
H109	H	1.291528	-0.000077	0.020343
H110	H	1.624862	0.333256	0.353676
H111	H	1.958195	0.666589	0.687010
H112	H	1.317663	-0.066301	-0.091993
H113	H	1.650996	0.267032	0.241340
H114	H	1.984329	0.600365	0.574673
N115	N	1.051600	-0.000030	-0.342493
N116	N	1.384933	0.333304	-0.009160
N117	N	1.718267	0.666637	0.324174
H118	H	1.047783	-0.000026	-0.434883
H119	H	1.381116	0.333307	-0.101550
H120	H	1.714449	0.666641	0.231783
H121	H	1.015175	-0.066253	-0.312857
H122	H	1.348508	0.267080	0.020476
H123	H	1.681841	0.600413	0.353809
N124	N	1.331481	-0.000045	-0.280357
N125	N	1.664814	0.333288	0.052976
N126	N	1.998148	0.666622	0.386309
H127	H	1.335301	-0.000046	-0.187967
H128	H	1.668634	0.333287	0.145367
H129	H	2.001968	0.666621	0.478700
H130	H	1.361447	-0.066270	-0.300296
H131	H	1.694780	0.267063	0.033037
H132	H	2.028114	0.600396	0.366371
N133	N	1.007853	-0.000033	-0.134195
N134	N	1.341186	0.333300	0.199138
N135	N	1.674519	0.666634	0.532471
H136	H	1.004035	-0.000029	-0.226586
H137	H	1.337368	0.333304	0.106747
H138	H	1.670702	0.666637	0.440081
H139	H	0.971427	-0.066257	-0.104560
H140	H	1.304760	0.267077	0.228774
H141	H	1.638094	0.600410	0.562107
H142	H	0.642430	0.000026	0.146920
H143	H	0.975763	0.333359	0.480253
H144	H	1.309097	0.666693	0.813586
