data_functionalizedCrystal
_audit_creation_method	'MofGen! by Chris Wilmer'
_symmetry_space_group_name_H-M	'P1'
_symmetry_Int_Tables_number	1
_symmetry_cell_setting	triclinic
loop_
_symmetry_equiv_pos_as_xyz
  x,y,z
_cell_length_a	21.295417
_cell_length_b	18.050591
_cell_length_c	18.050582
_cell_angle_alpha	89.976005
_cell_angle_beta	90.026755
_cell_angle_gamma	89.976412
loop_
_atom_site_label
_atom_site_type_symbol
_atom_site_fract_x
_atom_site_fract_y
_atom_site_fract_z
Zn1	Zn	-0.250765	-1.135281	0.420071
Zn2	Zn	0.082568	-0.801947	0.753404
Zn3	Zn	0.415901	-0.468614	1.086737
Zn4	Zn	-0.356027	-1.135186	0.295872
Zn5	Zn	-0.022693	-0.801853	0.629205
Zn6	Zn	0.310640	-0.468520	0.962538
Zn7	Zn	-0.250762	-1.011100	0.295875
Zn8	Zn	0.082571	-0.677767	0.629208
Zn9	Zn	0.415904	-0.344433	0.962542
Zn10	Zn	-0.355988	-1.011043	0.420000
Zn11	Zn	-0.022655	-0.677710	0.753334
Zn12	Zn	0.310679	-0.344376	1.086667
O13	O	-0.303386	-1.073153	0.357954
O14	O	0.029948	-0.739819	0.691288
O15	O	0.363281	-0.406486	1.024621
O16	O	-0.264746	-1.239193	0.403623
O17	O	0.068588	-0.905859	0.736957
O18	O	0.401921	-0.572526	1.070290
O19	O	-0.342078	-1.118710	0.191947
O20	O	-0.008745	-0.785377	0.525281
O21	O	0.324589	-0.452044	0.858614
O22	O	-0.162673	-1.027636	0.312381
O23	O	0.170660	-0.694303	0.645714
O24	O	0.503993	-0.360969	0.979047
O25	O	-0.342081	-1.239124	0.312375
O26	O	-0.008747	-0.905790	0.645708
O27	O	0.324586	-0.572457	0.979041
O28	O	-0.162676	-1.118871	0.403627
O29	O	0.170658	-0.785538	0.736960
O30	O	0.503991	-0.452204	1.070293
O31	O	-0.264741	-1.027545	0.191950
O32	O	0.068592	-0.694211	0.525283
O33	O	0.401926	-0.360878	0.858617
O34	O	-0.264703	-0.907168	0.312313
O35	O	0.068630	-0.573834	0.645646
O36	O	0.401963	-0.240501	0.978979
O37	O	-0.342015	-1.027539	0.523934
O38	O	-0.008682	-0.694206	0.857268
O39	O	0.324652	-0.360872	1.190601
O40	O	-0.342012	-0.907126	0.403507
O41	O	-0.008679	-0.573793	0.736840
O42	O	0.324655	-0.240459	1.070174
O43	O	-0.264708	-1.118816	0.523986
O44	O	0.068625	-0.785483	0.857319
O45	O	0.401958	-0.452149	1.190653
O46	O	-0.444111	-1.118655	0.312307
O47	O	-0.110777	-0.785322	0.645640
O48	O	0.222556	-0.451989	0.978973
O49	O	-0.444082	-1.027448	0.403504
O50	O	-0.110749	-0.694114	0.736837
O51	O	0.222584	-0.360781	1.070170
C52	C	-0.303354	-0.880200	0.357903
C53	C	0.029980	-0.546867	0.691236
C54	C	0.363313	-0.213534	1.024570
C55	C	-0.303355	-0.797655	0.357899
C56	C	0.029978	-0.464321	0.691232
C57	C	0.363311	-0.130988	1.024565
C58	C	-0.466937	-1.073055	0.357913
C59	C	-0.133604	-0.739722	0.691247
C60	C	0.199729	-0.406388	1.024580
C61	C	-0.536905	-1.073081	0.357921
C62	C	-0.203572	-0.739748	0.691254
C63	C	0.129761	-0.406415	1.024587
C64	C	-0.261258	-0.598205	0.308411
C65	C	0.072076	-0.264872	0.641744
C66	C	0.405409	0.068461	0.975077
C67	C	-0.318670	-0.548783	0.290127
C68	C	0.014663	-0.215449	0.623460
C69	C	0.347996	0.117884	0.956794
C70	C	-0.303368	-0.646524	0.357924
C71	C	0.029965	-0.313191	0.691257
C72	C	0.363299	0.020142	1.024591
C73	C	-0.245969	-0.548865	0.376198
C74	C	0.087365	-0.215532	0.709531
C75	C	0.420698	0.117802	1.042865
C76	C	-0.303375	-0.500539	0.357947
C77	C	0.029958	-0.167206	0.691281
C78	C	0.363292	0.166128	1.024614
C79	C	-0.360811	-0.598189	0.339605
C80	C	-0.027477	-0.264856	0.672938
C81	C	0.305856	0.068478	1.006272
C82	C	-0.288071	-0.598276	0.425708
C83	C	0.045263	-0.264942	0.759041
C84	C	0.378596	0.068391	1.092374
C85	C	-0.345523	-0.548875	0.407450
C86	C	-0.012190	-0.215542	0.740783
C87	C	0.321144	0.117791	1.074116
C88	C	-0.303363	-0.730623	0.357909
C89	C	0.029970	-0.397289	0.691242
C90	C	0.363304	-0.063956	1.024576
C91	C	-0.303386	-0.416443	0.357963
C92	C	0.029947	-0.083109	0.691296
C93	C	0.363280	0.250224	1.024629
C94	C	-0.569766	-1.120615	0.310483
C95	C	-0.236432	-0.787282	0.643816
C96	C	0.096901	-0.453949	0.977150
C97	C	-0.635508	-1.120650	0.310500
C98	C	-0.302175	-0.787317	0.643833
C99	C	0.031158	-0.453984	0.977166
C100	C	-0.668388	-1.073138	0.357946
C101	C	-0.335054	-0.739804	0.691280
C102	C	-0.001721	-0.406471	1.024613
C103	C	-0.635519	-1.025600	0.405393
C104	C	-0.302186	-0.692267	0.738726
C105	C	0.031147	-0.358934	1.072060
C106	C	-0.569778	-1.025572	0.405380
C107	C	-0.236445	-0.692239	0.738714
C108	C	0.096889	-0.358906	1.072047
N109	N	-0.771647	-1.008171	0.363590
N110	N	-0.438314	-0.674837	0.696924
N111	N	-0.104981	-0.341504	1.030257
N112	N	-0.834099	-1.008200	0.363598
N113	N	-0.500765	-0.674866	0.696932
N114	N	-0.167432	-0.341533	1.030265
C115	C	-0.866462	-1.073221	0.357989
C116	C	-0.533129	-0.739888	0.691322
C117	C	-0.199796	-0.406554	1.024655
N118	N	-0.834015	-1.138214	0.352357
N119	N	-0.500682	-0.804880	0.685690
N120	N	-0.167349	-0.471547	1.019023
N121	N	-0.771558	-1.138184	0.352345
N122	N	-0.438225	-0.804851	0.685678
N123	N	-0.104892	-0.471517	1.019012
C124	C	-0.739673	-1.073163	0.357966
C125	C	-0.406340	-0.739830	0.691299
C126	C	-0.073006	-0.406497	1.024632
C127	C	-0.970609	-1.120797	0.310567
C128	C	-0.637275	-0.787463	0.643900
C129	C	-0.303942	-0.454130	0.977233
C130	C	-1.036352	-1.120833	0.310589
C131	C	-0.703019	-0.787499	0.643922
C132	C	-0.369686	-0.454166	0.977255
C133	C	-1.036362	-1.025776	0.405478
C134	C	-0.703029	-0.692443	0.738811
C135	C	-0.369695	-0.359110	1.072145
C136	C	-0.970620	-1.025747	0.405460
C137	C	-0.637286	-0.692414	0.738793
C138	C	-0.303953	-0.359080	1.072127
C139	C	-0.937747	-1.073256	0.358000
C140	C	-0.604413	-0.739923	0.691334
C141	C	-0.271080	-0.406589	1.024667
C142	C	-0.139195	-1.073270	0.358012
C143	C	0.194138	-0.739937	0.691345
C144	C	0.527471	-0.406604	1.024679
C145	C	-0.069227	-1.073321	0.358037
C146	C	0.264106	-0.739987	0.691370
C147	C	0.597440	-0.406654	1.024703
C148	C	-0.303358	-1.073182	0.551660
C149	C	0.029976	-0.739848	0.884993
C150	C	0.363309	-0.406515	1.218327
C151	C	-0.303346	-1.073194	0.634206
C152	C	0.029988	-0.739861	0.967539
C153	C	0.363321	-0.406527	1.300873
C154	C	-0.303407	-0.266858	0.357993
C155	C	0.029926	0.066475	0.691326
C156	C	0.363260	0.399809	1.024660
C157	C	-0.303388	-0.349404	0.357975
C158	C	0.029945	-0.016071	0.691308
C159	C	0.363278	0.317263	1.024642
C160	C	-0.303368	-1.073166	0.165002
C161	C	0.029965	-0.739833	0.498336
C162	C	0.363299	-0.406500	0.831669
C163	C	-0.303203	-1.073298	0.082457
C164	C	0.030131	-0.739964	0.415790
C165	C	0.363464	-0.406631	0.749124
C166	C	-0.345328	-1.023596	0.833629
C167	C	-0.011994	-0.690262	1.166962
C168	C	0.321339	-0.356929	1.500295
C169	C	-0.360722	-1.091350	0.883029
C170	C	-0.027389	-0.758017	1.216363
C171	C	0.305945	-0.424683	1.549696
C172	C	-0.303298	-1.073231	0.785336
C173	C	0.030036	-0.739897	1.118670
C174	C	0.363369	-0.406564	1.452003
C175	C	-0.287886	-1.005513	0.883017
C176	C	0.045447	-0.672180	1.216351
C177	C	0.378781	-0.338847	1.549684
C178	C	-0.303252	-1.073260	0.931322
C179	C	0.030081	-0.739927	1.264655
C180	C	0.363414	-0.406593	1.597988
C181	C	-0.318722	-1.141021	0.833650
C182	C	0.014611	-0.807687	1.166983
C183	C	0.347945	-0.474354	1.500317
C184	C	-0.245859	-1.055138	0.833634
C185	C	0.087474	-0.721805	1.166967
C186	C	0.420807	-0.388472	1.500300
C187	C	-0.261232	-1.122940	0.883012
C188	C	0.072101	-0.789606	1.216345
C189	C	0.405435	-0.456273	1.549679
C190	C	-0.303325	-1.073213	0.701238
C191	C	0.030008	-0.739879	1.034571
C192	C	0.363341	-0.406546	1.367905
C193	C	-0.303225	-1.073286	1.015418
C194	C	0.030109	-0.739952	1.348752
C195	C	0.363442	-0.406619	1.682085
H196	H	-0.331616	-0.527044	0.232814
H197	H	0.001717	-0.193711	0.566147
H198	H	0.335051	0.139622	0.899480
N199	N	-0.336102	-1.216897	0.805052
N200	N	-0.002768	-0.883564	1.138385
N201	N	0.330565	-0.550230	1.471718
H202	H	-0.343929	-1.251275	0.848230
H203	H	-0.010595	-0.917941	1.181563
H204	H	0.322738	-0.584608	1.514896
H205	H	-0.300626	-1.236990	0.773841
H206	H	0.032707	-0.903656	1.107174
H207	H	0.366041	-0.570323	1.440507
H208	H	-0.275107	-0.620032	0.483004
H209	H	0.058226	-0.286698	0.816337
H210	H	0.391559	0.046635	1.149670
N211	N	-0.181670	-0.520158	0.396663
N212	N	0.151664	-0.186825	0.729996
N213	N	0.484997	0.146508	1.063329
H214	H	-0.149896	-0.538102	0.359215
H215	H	0.183438	-0.204769	0.692549
H216	H	0.516771	0.128564	1.025882
H217	H	-0.169840	-0.538940	0.447503
H218	H	0.163494	-0.205607	0.780836
H219	H	0.496827	0.127727	1.114169
N220	N	-0.670983	-0.974353	0.456562
N221	N	-0.337650	-0.641020	0.789895
N222	N	-0.004317	-0.307687	1.123228
H223	H	-0.659581	-0.921294	0.444968
H224	H	-0.326248	-0.587961	0.778302
H225	H	0.007086	-0.254628	1.111635
H226	H	-0.659496	-0.985910	0.509615
H227	H	-0.326163	-0.652577	0.842949
H228	H	0.007171	-0.319243	1.176282
H229	H	-0.225669	-1.164975	0.904558
H230	H	0.107664	-0.831642	1.237891
H231	H	0.440997	-0.498309	1.571225
H232	H	-0.543022	-0.986864	0.444010
H233	H	-0.209689	-0.653530	0.777344
H234	H	0.123644	-0.320197	1.110677
H235	H	-0.543003	-1.159302	0.271840
H236	H	-0.209669	-0.825969	0.605174
H237	H	0.123664	-0.492635	0.938507
N238	N	-0.270634	-0.929640	0.911732
N239	N	0.062699	-0.596307	1.245065
N240	N	0.396032	-0.262973	1.578399
H241	H	-0.231136	-0.933210	0.942524
H242	H	0.102198	-0.599877	1.275858
H243	H	0.435531	-0.266543	1.609191
H244	H	-0.306026	-0.909850	0.943267
H245	H	0.027307	-0.576516	1.276601
H246	H	0.360641	-0.243183	1.609934
N247	N	-0.392750	-0.520352	0.462921
N248	N	-0.059417	-0.187019	0.796255
N249	N	0.273917	0.146315	1.129588
H250	H	-0.370523	-0.489573	0.501588
H251	H	-0.037189	-0.156239	0.834921
H252	H	0.296144	0.177094	1.168255
H253	H	-0.414345	-0.563599	0.487632
H254	H	-0.081012	-0.230266	0.820965
H255	H	0.252322	0.103068	1.154298
N256	N	-0.935170	-0.974471	0.456616
N257	N	-0.601836	-0.641137	0.789949
N258	N	-0.268503	-0.307804	1.123283
H259	H	-0.946573	-0.985971	0.509694
H260	H	-0.613240	-0.652638	0.843027
H261	H	-0.279907	-0.319304	1.176361
H262	H	-0.946666	-0.921442	0.444961
H263	H	-0.613333	-0.588109	0.778294
H264	H	-0.279999	-0.254776	1.111627
H265	H	-1.063132	-0.987094	0.444113
H266	H	-0.729798	-0.653761	0.777447
H267	H	-0.396465	-0.320427	1.110780
H268	H	-1.063106	-1.159545	0.271961
H269	H	-0.729773	-0.826212	0.605294
H270	H	-0.396440	-0.492879	0.938627
N271	N	-0.935154	-1.172048	0.259388
N272	N	-0.601821	-0.838714	0.592721
N273	N	-0.268487	-0.505381	0.926054
H274	H	-0.907837	-1.206429	0.289601
H275	H	-0.574504	-0.873095	0.622934
H276	H	-0.241170	-0.539762	0.956267
H277	H	-0.907954	-1.141829	0.224939
H278	H	-0.574621	-0.808495	0.558272
H279	H	-0.241288	-0.475162	0.891605
H280	H	-0.380917	-0.981660	0.811946
H281	H	-0.047584	-0.648327	1.145280
H282	H	0.285749	-0.314994	1.478613
H283	H	-0.225687	-0.619865	0.266497
H284	H	0.107646	-0.286531	0.599830
H285	H	0.440979	0.046802	0.933164
H286	H	-0.197318	-1.039798	0.811920
H287	H	0.136015	-0.706465	1.145253
H288	H	0.469348	-0.373131	1.478587
N289	N	-0.425035	-1.111651	0.911772
N290	N	-0.091702	-0.778318	1.245105
N291	N	0.241631	-0.444984	1.578438
H292	H	-0.456773	-1.074119	0.893812
H293	H	-0.123440	-0.740785	1.227146
H294	H	0.209894	-0.407452	1.560479
H295	H	-0.424381	-1.111997	0.967717
H296	H	-0.091048	-0.778663	1.301051
H297	H	0.242285	-0.445330	1.634384
H298	H	-0.409370	-0.619765	0.324095
H299	H	-0.076037	-0.286432	0.657429
H300	H	0.257297	0.046901	0.990762
N301	N	-0.670962	-1.171922	0.259334
N302	N	-0.337628	-0.838588	0.592668
N303	N	-0.004295	-0.505255	0.926001
H304	H	-0.640161	-1.202015	0.229268
H305	H	-0.306828	-0.868681	0.562602
H306	H	0.026506	-0.535348	0.895935
H307	H	-0.698275	-1.141720	0.224943
H308	H	-0.364942	-0.808387	0.558276
H309	H	-0.031609	-0.475053	0.891610
