data_functionalizedCrystal
_audit_creation_method	'MofGen! by Chris Wilmer'
_symmetry_space_group_name_H-M	'P1'
_symmetry_Int_Tables_number	1
_symmetry_cell_setting	triclinic
loop_
_symmetry_equiv_pos_as_xyz
  x,y,z
_cell_length_a	19.805407
_cell_length_b	21.295417
_cell_length_c	19.805407
_cell_angle_alpha	90.016581
_cell_angle_beta	90.009221
_cell_angle_gamma	90.030507
loop_
_atom_site_label
_atom_site_type_symbol
_atom_site_fract_x
_atom_site_fract_y
_atom_site_fract_z
Zn1	Zn	1.034647	-0.250712	0.382704
Zn2	Zn	1.534647	0.249288	0.882704
Zn3	Zn	1.034574	-0.355955	0.269509
Zn4	Zn	1.534574	0.144045	0.769509
Zn5	Zn	0.921482	-0.250704	0.269529
Zn6	Zn	1.421482	0.249296	0.769529
Zn7	Zn	0.921417	-0.355948	0.382656
Zn8	Zn	1.421417	0.144052	0.882656
O9	O	0.978030	-0.303330	0.326100
O10	O	1.478030	0.196670	0.826100
O11	O	1.129354	-0.264680	0.367701
O12	O	1.629354	0.235320	0.867701
O13	O	1.019569	-0.341992	0.174795
O14	O	1.519569	0.158008	0.674795
O15	O	0.936552	-0.162615	0.284570
O16	O	1.436552	0.337385	0.784570
O17	O	1.129301	-0.342001	0.284537
O18	O	1.629301	0.157999	0.784537
O19	O	1.019693	-0.162622	0.367719
O20	O	1.519693	0.337378	0.867719
O21	O	0.936481	-0.264665	0.174810
O22	O	1.436481	0.235335	0.674810
O23	O	0.826757	-0.264658	0.284523
O24	O	1.326757	0.235342	0.784523
O25	O	0.936441	-0.341989	0.477379
O26	O	1.436441	0.158011	0.977379
O27	O	0.826709	-0.341980	0.367638
O28	O	1.326709	0.158020	0.867638
O29	O	1.019630	-0.264673	0.477414
O30	O	1.519630	0.235327	0.977414
O31	O	1.019506	-0.444043	0.284490
O32	O	1.519506	0.055957	0.784490
O33	O	0.936370	-0.444038	0.367619
O34	O	1.436370	0.055962	0.867619
C35	C	0.802174	-0.303318	0.326078
C36	C	1.302174	0.196682	0.826078
C37	C	0.726942	-0.303328	0.326084
C38	C	1.226942	0.196672	0.826084
C39	C	0.691591	-0.343650	0.369292
C40	C	1.191591	0.156350	0.869292
C41	C	0.620903	-0.343651	0.369301
C42	C	1.120903	0.156349	0.869301
C43	C	0.585567	-0.303333	0.326100
C44	C	1.085567	0.196667	0.826100
C45	C	0.620923	-0.263006	0.282890
C46	C	1.120923	0.236994	0.782890
C47	C	0.691610	-0.263002	0.282885
C48	C	1.191610	0.236998	0.782885
C49	C	0.335850	-0.263020	0.282913
C50	C	0.835850	0.236980	0.782913
C51	C	0.265158	-0.263028	0.282920
C52	C	0.765158	0.236972	0.782920
C53	C	0.265142	-0.343669	0.369329
C54	C	0.765142	0.156331	0.869329
C55	C	0.335829	-0.343665	0.369324
C56	C	0.835829	0.156335	0.869324
C57	C	0.371179	-0.303336	0.326117
C58	C	0.871179	0.196664	0.826117
C59	C	0.447828	-0.303335	0.326108
C60	C	0.947828	0.196665	0.826108
C61	C	0.508920	-0.303337	0.326105
C62	C	1.008920	0.196663	0.826105
C63	C	0.977942	-0.466881	0.326062
C64	C	1.477942	0.033119	0.826062
C65	C	0.977966	-0.536849	0.326069
C66	C	1.477966	-0.036849	0.826069
C67	C	1.021293	-0.569698	0.282828
C68	C	1.521293	-0.069698	0.782828
C69	C	1.021325	-0.635440	0.282843
C70	C	1.521325	-0.135440	0.782843
C71	C	0.978017	-0.668332	0.326092
C72	C	1.478017	-0.168332	0.826092
C73	C	0.934686	-0.635475	0.369341
C74	C	1.434686	-0.135475	0.869341
C75	C	0.934661	-0.569734	0.369329
C76	C	1.434661	-0.069734	0.869329
N77	N	0.918806	-0.771599	0.331245
N78	N	1.418806	-0.271599	0.831245
N79	N	0.918832	-0.834050	0.331252
N80	N	1.418832	-0.334050	0.831252
C81	C	0.978093	-0.866407	0.326131
C82	C	1.478093	-0.366407	0.826131
N83	N	1.037328	-0.833952	0.320989
N84	N	1.537328	-0.333952	0.820989
N85	N	1.037300	-0.771495	0.320979
N86	N	1.537300	-0.271495	0.820979
C87	C	0.978040	-0.739617	0.326110
C88	C	1.478040	-0.239617	0.826110
C89	C	1.021458	-0.970541	0.282904
C90	C	1.521458	-0.470541	0.782904
C91	C	1.021491	-1.036284	0.282924
C92	C	1.521491	-0.536284	0.782924
C93	C	0.934847	-1.036318	0.369419
C94	C	1.434847	-0.536318	0.869419
C95	C	0.934820	-0.970576	0.369402
C96	C	1.434820	-0.470576	0.869402
C97	C	0.978125	-0.937691	0.326142
C98	C	1.478125	-0.437691	0.826142
C99	C	1.154573	-0.303342	0.326122
C100	C	1.654573	0.196658	0.826122
C101	C	1.229805	-0.303348	0.326131
C102	C	1.729805	0.196652	0.826131
C103	C	0.978036	-0.303331	0.502642
C104	C	1.478036	0.196669	1.002642
C105	C	0.978039	-0.303331	0.577874
C106	C	1.478039	0.196669	1.077874
C107	C	0.978138	-0.139139	0.326152
C108	C	1.478138	0.360861	0.826152
C109	C	0.978184	-0.069171	0.326174
C110	C	1.478184	0.430829	0.826174
C111	C	1.021350	-0.263079	0.613238
C112	C	1.521350	0.236921	1.113238
C113	C	1.021344	-0.263077	0.683926
C114	C	1.521344	0.236923	1.183926
C115	C	0.978030	-0.303331	0.719250
C116	C	1.478030	0.196669	1.219250
C117	C	0.934714	-0.343585	0.683881
C118	C	1.434714	0.156415	1.183881
C119	C	0.934717	-0.343584	0.613194
C120	C	1.434717	0.156416	1.113194
C121	C	0.934701	-0.343593	0.968955
C122	C	1.434701	0.156407	1.468955
C123	C	0.934703	-0.343593	1.039647
C124	C	1.434703	0.156407	1.539647
C125	C	1.021328	-0.263086	1.039687
C126	C	1.521328	0.236914	1.539687
C127	C	1.021331	-0.263085	0.969000
C128	C	1.521331	0.236915	1.469000
C129	C	0.978013	-0.303336	0.933637
C130	C	1.478013	0.196664	1.433637
C131	C	0.978019	-0.303337	0.856989
C132	C	1.478019	0.196663	1.356989
C133	C	0.978027	-0.303334	0.795897
C134	C	1.478027	0.196666	1.295897
C135	C	0.978018	-0.303341	1.150244
C136	C	1.478018	0.196659	1.650244
C137	C	0.978011	-0.303337	1.075012
C138	C	1.478011	0.196663	1.575012
H139	H	0.364596	-0.376499	0.404501
H140	H	0.864596	0.123501	0.904501
F141	F	0.227514	-0.386590	0.415315
F142	F	0.727514	0.113410	0.915315
H143	H	0.899588	-1.063098	0.404636
H144	H	1.399588	-0.563098	0.904636
H145	H	0.899442	-0.376355	0.584402
H146	H	1.399442	0.123645	1.084402
F147	F	0.888544	-0.534773	0.415354
F148	F	1.388544	-0.034773	0.915354
H149	H	0.899426	-0.662260	0.404556
H150	H	1.399426	-0.162260	0.904556
H151	H	0.364623	-0.230186	0.247726
H152	H	0.864623	0.269814	0.747726
H153	H	0.899444	-0.376358	0.712647
H154	H	1.399444	0.123642	1.212647
H155	H	0.236389	-0.230192	0.247740
H156	H	0.736389	0.269808	0.747740
H157	H	0.592147	-0.230175	0.247717
H158	H	1.092147	0.269825	0.747717
H159	H	1.056604	-0.230308	0.940243
H160	H	1.556604	0.269692	1.440243
H161	H	0.899536	-0.943829	0.404610
H162	H	1.399536	-0.443829	0.904610
F163	F	1.067466	-0.220257	0.721560
F164	F	1.567466	0.279743	1.221560
H165	H	1.056598	-0.230310	1.068487
H166	H	1.556598	0.269690	1.568487
H167	H	1.056624	-0.230302	0.584482
H168	H	1.556624	0.269698	1.084482
F169	F	1.067441	-0.670407	0.236818
F170	F	1.567441	-0.170407	0.736818
H171	H	1.056556	-0.542925	0.247604
H172	H	1.556556	-0.042925	0.747604
H173	H	0.720356	-0.376484	0.404470
H174	H	1.220356	0.123516	0.904470
F175	F	0.888597	-0.386432	0.931328
F176	F	1.388597	0.113568	1.431328
H177	H	0.899428	-0.376373	1.068405
H178	H	1.399428	0.123627	1.568405
H179	H	0.720392	-0.230164	0.247704
H180	H	1.220392	0.269836	0.747704
H181	H	0.592123	-0.376486	0.404485
H182	H	1.092123	0.123514	0.904485
H183	H	1.056778	-1.063028	0.247714
H184	H	1.556778	-0.563028	0.747714
H185	H	1.056722	-0.943765	0.247681
H186	H	1.556722	-0.443765	0.747681
