data_functionalizedCrystal
_audit_creation_method	'MofGen! by Chris Wilmer'
_symmetry_space_group_name_H-M	'P1'
_symmetry_Int_Tables_number	1
_symmetry_cell_setting	triclinic
loop_
_symmetry_equiv_pos_as_xyz
  x,y,z
_cell_length_a	16.625548
_cell_length_b	14.908520
_cell_length_c	14.908308
_cell_angle_alpha	83.639235
_cell_angle_beta	93.277965
_cell_angle_gamma	86.678216
loop_
_atom_site_label
_atom_site_type_symbol
_atom_site_fract_x
_atom_site_fract_y
_atom_site_fract_z
Zn1	Zn	1.185085	0.389851	-0.532572
Zn2	Zn	1.184994	0.532497	-0.389942
Zn3	Zn	1.058507	0.381156	-0.381229
Zn4	Zn	1.041965	0.541172	-0.541251
O5	O	1.117638	0.461169	-0.461249
O6	O	1.297904	0.408782	-0.513666
O7	O	1.175099	0.505151	-0.262126
O8	O	1.082259	0.255645	-0.394027
O9	O	1.297837	0.513582	-0.408877
O10	O	1.175255	0.262033	-0.505217
O11	O	1.082170	0.393962	-0.255724
O12	O	0.943482	0.402375	-0.402442
O13	O	1.054066	0.528369	-0.666760
O14	O	0.931328	0.519938	-0.520009
O15	O	1.159215	0.417194	-0.660384
O16	O	1.159059	0.660312	-0.417292
O17	O	1.053977	0.666686	-0.528458
C18	C	1.104734	0.696343	-0.474782
C19	C	1.099286	0.796953	-0.480602
C20	C	0.908149	0.461155	-0.461222
C21	C	0.818526	0.461172	-0.461234
C22	C	1.104806	0.474719	-0.697332
C23	C	1.099337	0.480494	-0.797936
C24	C	0.490348	0.461180	-0.461273
C25	C	0.581658	0.461175	-0.461259
C26	C	0.654434	0.461176	-0.461253
C27	C	0.745750	0.461170	-0.461240
C28	C	1.327944	0.461184	-0.461275
C29	C	1.417565	0.461191	-0.461287
C30	C	1.130613	0.225078	-0.447682
C31	C	1.136142	0.124470	-0.441901
C32	C	1.198572	0.979318	-0.375875
C33	C	1.193455	1.073850	-0.381340
C34	C	1.083942	1.080552	-0.497002
C35	C	1.089058	0.986019	-0.491537
C36	C	1.146374	0.935406	-0.430970
C37	C	1.151486	0.840872	-0.425501
C38	C	1.041977	0.847575	-0.541167
C39	C	1.036861	0.942107	-0.546632
C40	C	1.198553	0.375556	-0.980344
C41	C	1.193418	0.380979	-1.074871
C42	C	1.083928	0.496755	-1.081518
C43	C	1.089064	0.491333	-0.986991
C44	C	1.146379	0.430732	-0.936408
C45	C	1.151517	0.425315	-0.841879
C46	C	1.042025	0.541087	-0.848528
C47	C	1.036889	0.546509	-0.943055
C48	C	1.130470	0.447606	-0.226080
C49	C	1.136108	0.441577	-0.125461
H50	H	1.245235	0.938107	-0.326553
C51	C	0.974746	0.612276	-0.998140
C52	C	0.981426	0.605231	-1.090328
C53	C	0.924200	0.665812	-1.141097
H54	H	0.922098	0.598207	-0.981993
H55	H	0.984055	0.672227	-0.986201
H56	H	0.972110	0.545293	-1.102261
H57	H	1.034061	0.619308	-1.106502
H58	H	0.933509	0.725763	-1.129159
H59	H	0.871555	0.651738	-1.124942
H60	H	0.928729	0.661046	-1.203652
C61	C	1.213667	0.786023	-0.359606
C62	C	1.199817	0.803946	-0.271367
C63	C	1.257091	0.753448	-0.210642
H64	H	1.209298	0.723413	-0.364115
H65	H	1.266289	0.802236	-0.373754
H66	H	1.147208	0.787727	-0.257223
H67	H	1.204193	0.866547	-0.266829
H68	H	1.309713	0.769660	-0.224791
H69	H	1.252717	0.690840	-0.215159
H70	H	1.247706	0.765608	-0.150767
H71	H	0.999472	0.811812	-0.586026
H72	H	1.235962	1.109599	-0.336478
C73	C	1.021746	1.135671	-0.562667
C74	C	1.028431	1.227855	-0.555643
C75	C	0.971141	1.278657	-0.616110
H76	H	1.030971	1.123748	-0.622641
H77	H	0.969118	1.119531	-0.548461
H78	H	1.081046	1.243988	-0.569855
H79	H	1.019198	1.239805	-0.495683
H80	H	0.918513	1.262517	-0.601905
H81	H	0.980371	1.266726	-0.676080
H82	H	0.975664	1.341208	-0.611347
H83	H	1.245225	0.326218	-0.939158
C84	C	1.250165	0.321031	-1.122409
C85	C	1.301468	0.266818	-1.057875
C86	C	1.353763	0.211589	-1.101633
H87	H	1.219579	0.283628	-1.157013
H88	H	1.281439	0.357751	-1.161257
H89	H	1.270198	0.230102	-1.019043
H90	H	1.332073	0.304198	-1.023267
H91	H	1.385037	0.248308	-1.140481
H92	H	1.323169	0.174191	-1.136236
H93	H	1.388583	0.174805	-1.057854
H94	H	1.037265	0.546093	-1.122720
C95	C	0.974729	0.997026	-0.612534
C96	C	0.988603	0.979139	-0.700778
C97	C	0.931389	1.029721	-0.761511
H98	H	0.922085	0.980878	-0.598455
H99	H	0.979162	1.059627	-0.607961
H100	H	0.984163	0.916552	-0.705348
H101	H	1.041237	0.995291	-0.714885
H102	H	0.935821	1.092322	-0.756938
H103	H	0.878748	1.013568	-0.747424
H104	H	0.940799	1.017598	-0.821392
H105	H	1.198187	0.375973	-0.800695
C106	C	0.985419	0.600890	-0.800656
C107	C	1.002170	0.583161	-0.707045
C108	C	0.950038	0.638227	-0.662917
H109	H	0.992992	0.662625	-0.819542
H110	H	0.931114	0.588521	-0.815325
H111	H	1.056461	0.595537	-0.692383
H112	H	0.994591	0.521436	-0.688133
H113	H	0.895734	0.625858	-0.677586
H114	H	0.957616	0.699959	-0.681810
H115	H	0.961392	0.626200	-0.599397
