data_functionalizedCrystal
_audit_creation_method	'MofGen! by Chris Wilmer'
_symmetry_space_group_name_H-M	'P1'
_symmetry_Int_Tables_number	1
_symmetry_cell_setting	triclinic
loop_
_symmetry_equiv_pos_as_xyz
  x,y,z
_cell_length_a	17.038272
_cell_length_b	17.038272
_cell_length_c	15.500227
_cell_angle_alpha	93.033254
_cell_angle_beta	86.956295
_cell_angle_gamma	91.111556
loop_
_atom_site_label
_atom_site_type_symbol
_atom_site_fract_x
_atom_site_fract_y
_atom_site_fract_z
O1	O	1.052160	0.167139	-0.071836
O2	O	1.552160	0.667139	0.428164
O3	O	0.824350	0.164430	-0.071862
O4	O	1.324350	0.664430	0.428138
O5	O	0.936901	0.051879	-0.071842
O6	O	1.436901	0.551879	0.428158
O7	O	0.939609	0.279690	-0.071856
O8	O	1.439609	0.779690	0.428144
O9	O	0.930069	0.058680	0.072045
O10	O	1.430069	0.558680	0.572045
O11	O	0.817518	0.171231	0.072026
O12	O	1.317518	0.671231	0.572026
O13	O	1.045328	0.173940	0.072051
O14	O	1.545328	0.673940	0.572051
Cu15	Cu	0.930799	0.173207	0.085177
Cu16	Cu	1.430799	0.673207	0.585177
Cu17	Cu	0.938879	0.165164	-0.084987
Cu18	Cu	1.438879	0.665164	0.415013
O19	O	0.932777	0.286491	0.072032
O20	O	1.432777	0.786491	0.572032
C21	C	0.791641	0.165368	0.000079
C22	C	1.291641	0.665368	0.500079
C23	C	0.704358	0.158019	0.000069
C24	C	1.204358	0.658019	0.500069
C25	C	0.931022	0.025987	0.000101
C26	C	1.431022	0.525987	0.500101
C27	C	0.923674	-0.061297	0.000100
C28	C	1.423674	0.438703	0.500100
C29	C	0.658749	0.225482	0.000066
C30	C	1.158749	0.725482	0.500066
C31	C	0.576737	0.218574	0.000078
C32	C	1.076737	0.718574	0.500078
C33	C	0.540335	0.144201	0.000088
C34	C	1.040335	0.644201	0.500088
C35	C	0.585950	0.076733	0.000094
C36	C	1.085950	0.576733	0.500094
C37	C	0.667961	0.083642	0.000088
C38	C	1.167961	0.583642	0.500088
C39	C	0.292946	0.119792	0.000112
C40	C	0.792946	0.619792	0.500112
C41	C	0.210929	0.112887	0.000116
C42	C	0.710929	0.612887	0.500116
C43	C	0.201721	0.254729	0.000102
C44	C	0.701721	0.754729	0.500102
C45	C	0.283734	0.261632	0.000091
C46	C	0.783734	0.761632	0.500091
C47	C	0.329342	0.194164	0.000101
C48	C	0.829342	0.694164	0.500101
C49	C	0.456505	0.137138	0.000098
C50	C	0.956505	0.637138	0.500098
C51	C	0.413170	0.201228	0.000098
C52	C	0.913170	0.701228	0.500098
C53	C	0.991137	-0.106906	0.000108
C54	C	1.491137	0.393094	0.500108
C55	C	0.984229	-0.188918	0.000100
C56	C	1.484229	0.311082	0.500100
C57	C	0.909856	-0.225320	0.000088
C58	C	1.409856	0.274680	0.500088
C59	C	0.842388	-0.179705	0.000077
C60	C	1.342388	0.320295	0.500077
C61	C	0.849297	-0.097694	0.000080
C62	C	1.349297	0.402306	0.500080
C63	C	0.885446	-0.472708	0.000074
C64	C	1.385446	0.027292	0.500074
C65	C	0.878541	-0.554725	0.000074
C66	C	1.378541	-0.054725	0.500074
C67	C	1.020383	-0.563932	0.000094
C68	C	1.520383	-0.063932	0.500094
C69	C	1.027286	-0.481919	0.000102
C70	C	1.527286	0.018081	0.500102
C71	C	0.959818	-0.436312	0.000087
C72	C	1.459818	0.063688	0.500087
C73	C	0.902792	-0.309149	0.000082
C74	C	1.402792	0.190851	0.500082
C75	C	0.966882	-0.352484	0.000087
C76	C	1.466882	0.147516	0.500087
C77	C	1.078037	0.173003	0.000109
C78	C	1.578037	0.673003	0.500109
C79	C	1.165320	0.180351	0.000113
C80	C	1.665320	0.680351	0.500113
C81	C	0.938656	0.312383	0.000087
C82	C	1.438656	0.812383	0.500087
C83	C	0.946004	0.399667	0.000082
C84	C	1.446004	0.899667	0.500082
N85	N	0.925122	0.178864	0.204861
N86	N	1.425122	0.678864	0.704861
N87	N	0.944561	0.159501	-0.204671
N88	N	1.444561	0.659501	0.295329
C89	C	0.972833	0.131192	0.250145
C90	C	1.472833	0.631192	0.750145
C91	C	0.968547	0.135478	0.340718
C92	C	1.468547	0.635478	0.840718
C93	C	0.916555	0.187440	0.386003
C94	C	1.416555	0.687440	0.886003
C95	C	0.868839	0.235114	0.340712
C96	C	1.368839	0.735114	0.840712
C97	C	0.873121	0.230823	0.250142
C98	C	1.373121	0.730823	0.750142
C99	C	0.901128	0.202884	0.659467
C100	C	1.401128	0.702884	1.159467
C101	C	0.896851	0.207172	0.750044
C102	C	1.396851	0.707172	1.250044
C103	C	0.996559	0.107535	0.750044
C104	C	1.496559	0.607535	1.250044
C105	C	1.000840	0.103252	0.659471
C106	C	1.500840	0.603252	1.159471
C107	C	0.953121	0.150923	0.614188
C108	C	1.453121	0.650923	1.114188
C109	C	0.912174	0.191824	0.478582
C110	C	1.412174	0.691824	0.978582
C111	C	0.957498	0.146534	0.521610
C112	C	1.457498	0.646534	1.021610
H113	H	0.688381	0.286045	0.000058
H114	H	1.188381	0.786045	0.500058
H115	H	0.999827	0.104223	0.484736
H116	H	1.499827	0.604223	0.984736
Br117	Br	0.536549	-0.024203	0.000115
Br118	Br	1.036549	0.475797	0.500115
H119	H	1.043177	0.060940	0.622602
H120	H	1.543177	0.560940	1.122602
H121	H	1.015175	0.088882	0.213280
H122	H	1.515175	0.588882	0.713280
H123	H	0.817974	-0.584359	0.000078
H124	H	1.317974	-0.084359	0.500078
Br125	Br	0.139822	0.346288	0.000089
Br126	Br	0.639822	0.846288	0.500089
Br127	Br	1.033296	0.070777	0.402179
Br128	Br	1.533296	0.570777	0.902179
H129	H	1.051699	-0.077273	0.000123
H130	H	1.551699	0.422727	0.500123
Br131	Br	0.161527	0.011947	0.000147
Br132	Br	0.661527	0.511947	0.500147
Br133	Br	0.354832	0.028227	0.000129
Br134	Br	0.854832	0.528227	0.500129
Br135	Br	1.061316	0.042841	0.811502
Br136	Br	1.561316	0.542841	1.311502
Br137	Br	1.075790	-0.250813	0.000111
Br138	Br	1.575790	0.249187	0.500111
Br139	Br	0.793881	-0.410823	0.000047
Br140	Br	1.293881	0.089177	0.500047
H141	H	0.705095	0.028706	0.000090
H142	H	1.205095	0.528706	0.500090
Br143	Br	0.333131	0.362570	0.000068
Br144	Br	0.833131	0.862570	0.500068
Br145	Br	0.836370	0.267579	0.598016
Br146	Br	1.336370	0.767579	1.098016
H147	H	0.842237	-0.338796	0.000075
H148	H	1.342237	0.161204	0.500075
Br149	Br	0.462573	0.302160	0.000090
Br150	Br	0.962573	0.802160	0.500090
H151	H	0.539605	0.273510	0.000075
H152	H	1.039605	0.773510	0.500075
H153	H	1.027437	-0.322844	0.000077
H154	H	1.527437	0.177156	0.500077
H155	H	0.854510	0.249490	0.786912
H156	H	1.354510	0.749490	1.286912
Br157	Br	0.798269	0.305630	0.402167
Br158	Br	1.298269	0.805630	0.902167
H159	H	0.834269	0.269642	0.213271
H160	H	1.334269	0.769642	0.713271
H161	H	1.087848	-0.452287	0.000111
H162	H	1.587848	0.047713	0.500111
Br163	Br	0.741452	-0.229107	0.000048
Br164	Br	1.241452	0.270893	0.500048
H165	H	0.426857	0.076584	0.000130
H166	H	0.926857	0.576584	0.500130
H167	H	1.075311	-0.601074	0.000105
H168	H	1.575311	-0.101074	0.500105
Br169	Br	0.757737	-0.035795	0.000062
Br170	Br	1.257737	0.464205	0.500062
H171	H	0.869842	0.234135	0.515461
H172	H	1.369842	0.734135	1.015461
