data_functionalizedCrystal
_audit_creation_method	'MofGen! by Chris Wilmer'
_symmetry_space_group_name_H-M	'P1'
_symmetry_Int_Tables_number	1
_symmetry_cell_setting	triclinic
loop_
_symmetry_equiv_pos_as_xyz
  x,y,z
_cell_length_a	21.295417
_cell_length_b	15.297979
_cell_length_c	15.298259
_cell_angle_alpha	91.586881
_cell_angle_beta	80.280707
_cell_angle_gamma	99.689778
loop_
_atom_site_label
_atom_site_type_symbol
_atom_site_fract_x
_atom_site_fract_y
_atom_site_fract_z
Zn1	Zn	-0.011543	1.253491	-0.727446
Zn2	Zn	-0.131474	1.278711	-0.580942
Zn3	Zn	-0.046939	1.132339	-0.555588
Zn4	Zn	-0.137529	1.106956	-0.701975
O5	O	-0.081871	1.192874	-0.641488
O6	O	-0.010104	1.379420	-0.729282
O7	O	-0.132539	1.280473	-0.455003
O8	O	0.045860	1.148479	-0.578435
O9	O	-0.098217	1.397949	-0.621646
O10	O	0.071865	1.237488	-0.704698
O11	O	-0.070432	1.172934	-0.436376
O12	O	-0.076304	1.006389	-0.553736
O13	O	-0.108538	1.105216	-0.827929
O14	O	-0.142860	0.987740	-0.661286
O15	O	-0.015976	1.212875	-0.846643
O16	O	-0.220380	1.255859	-0.596948
O17	O	-0.224830	1.129671	-0.685870
C18	C	-0.114080	0.965280	-0.601996
C19	C	-0.127872	0.867911	-0.585123
C20	C	-0.180173	0.831828	-0.521066
C21	C	-0.193132	0.740344	-0.505216
C22	C	-0.153790	0.684934	-0.553418
C23	C	-0.101486	0.721018	-0.617472
C24	C	-0.088528	0.812510	-0.633327
C25	C	-0.062145	0.665616	-0.665679
C26	C	-0.009841	0.701699	-0.729734
C27	C	0.003115	0.793183	-0.745586
C28	C	-0.036228	0.848593	-0.697385
C29	C	-0.075103	0.574124	-0.649824
C30	C	0.016542	0.554806	-0.762085
C31	C	0.029502	0.646290	-0.777935
C32	C	-0.245444	1.192768	-0.641419
C33	C	-0.315407	1.192797	-0.641433
C34	C	-0.345923	1.258543	-0.595197
C35	C	-0.411658	1.258581	-0.595224
C36	C	-0.446877	1.192859	-0.641475
C37	C	-0.416352	1.127107	-0.687721
C38	C	-0.350617	1.127076	-0.687700
N39	N	-0.560324	1.115073	-0.634856
N40	N	-0.622770	1.115105	-0.634871
C41	C	-0.644933	1.192948	-0.641542
N42	N	-0.602292	1.270762	-0.648181
N43	N	-0.539842	1.270729	-0.648161
C44	C	-0.518156	1.192885	-0.641503
C45	C	-0.746726	1.258740	-0.595333
C46	C	-0.812461	1.258778	-0.595366
C47	C	-0.817155	1.127297	-0.687857
C48	C	-0.751420	1.127266	-0.687830
C49	C	-0.716210	1.192987	-0.641563
C50	C	0.082346	1.193002	-0.641580
C51	C	0.152325	1.193056	-0.641619
C52	C	-0.058984	1.153401	-0.869957
C53	C	-0.049231	1.136580	-0.967317
C54	C	-0.049537	1.421357	-0.681134
C55	C	-0.035758	1.518723	-0.698028
C56	C	-0.151088	1.313127	-1.280545
C57	C	-0.160256	1.328926	-1.189069
C58	C	-0.132501	1.280842	-1.133627
C59	C	-0.095576	1.216953	-1.169669
C60	C	-0.086411	1.201147	-1.261152
C61	C	-0.067824	1.168862	-1.114234
C62	C	-0.030899	1.104974	-1.150276
C63	C	-0.021735	1.089171	-1.241751
C64	C	-0.049491	1.137256	-1.297193
C65	C	-0.076988	1.184668	-1.022751
C66	C	-0.012311	1.072689	-1.003358
C67	C	-0.003143	1.056889	-1.094834
C68	C	-0.104616	1.232245	-0.413916
C69	C	-0.114168	1.249235	-0.316586
H70	H	-0.317256	1.312059	-0.557527
O71	O	-0.441398	1.322326	-0.550220
C72	C	-0.525776	1.354622	-0.433977
C73	C	-0.492168	1.282348	-0.484898
H74	H	-0.566821	1.322329	-0.381140
H75	H	-0.546056	1.393468	-0.482102
H76	H	-0.489293	1.401589	-0.400949
H77	H	-0.528613	1.235322	-0.517929
H78	H	-0.471876	1.243568	-0.436733
O79	O	-0.450609	1.063378	-0.732712
C80	C	-0.514600	1.031099	-0.848959
C81	C	-0.475838	1.103362	-0.798059
H82	H	-0.534997	1.063398	-0.901815
H83	H	-0.555965	0.992301	-0.800824
H84	H	-0.481489	0.984088	-0.881959
H85	H	-0.508897	1.150432	-0.765055
H86	H	-0.434467	1.142094	-0.846234
H87	H	-0.325770	1.073537	-0.725352
O88	O	0.053963	0.828095	-0.807814
C89	C	0.143474	0.799271	-0.917523
C90	C	0.085919	0.759621	-0.847062
H91	H	0.169318	0.743926	-0.949288
H92	H	0.178524	0.849015	-0.884853
H93	H	0.125157	0.834227	-0.970637
H94	H	0.104177	0.724620	-0.793928
H95	H	0.050880	0.709922	-0.879796
H96	H	-0.837305	1.312322	-0.557718
H97	H	-0.718056	1.312257	-0.557663
H98	H	-0.107049	1.236692	-0.993416
H99	H	-0.845829	1.073788	-0.725520
O100	O	-0.196209	1.390867	-1.154003
C101	C	-0.289872	1.420438	-1.052686
C102	C	-0.249222	1.350191	-1.092340
H103	H	-0.332734	1.387582	-1.002810
H104	H	-0.308185	1.452082	-1.107984
H105	H	-0.258757	1.473677	-1.017863
H106	H	-0.280295	1.296899	-1.127155
H107	H	-0.230903	1.318617	-1.037006
O108	O	-0.721881	1.063305	-0.732747
C109	C	-0.733469	0.932926	-0.824525
C110	C	-0.767004	1.005300	-0.773672
H111	H	-0.769932	0.886022	-0.857641
H112	H	-0.713271	0.894031	-0.776349
H113	H	-0.692356	0.965192	-0.877286
H114	H	-0.808143	0.973108	-0.720911
H115	H	-0.787156	1.044189	-0.821902
H116	H	-0.139968	1.293709	-1.059144
O117	O	-0.177982	1.359773	-1.334529
C118	C	-0.192569	1.384992	-1.484047
C119	C	-0.162057	1.332115	-1.423014
H120	H	-0.179716	1.362637	-1.555598
H121	H	-0.173314	1.458753	-1.478402
H122	H	-0.247311	1.372688	-1.463309
H123	H	-0.107313	1.344345	-1.443712
H124	H	-0.181362	1.258371	-1.428667
O125	O	-0.166490	0.596067	-0.538022
C126	C	-0.243207	0.460876	-0.537659
C127	C	-0.228913	0.561517	-0.555114
H128	H	-0.293670	0.432909	-0.551489
H129	H	-0.240429	0.447700	-0.465542
H130	H	-0.206076	0.427499	-0.583088
H131	H	-0.266030	0.594961	-0.509741
H132	H	-0.231669	0.574628	-0.627253
H133	H	-0.042026	1.124397	-1.371681
O134	O	0.014171	1.027102	-1.276622
C135	C	0.077323	0.917665	-1.247725
C136	C	0.036687	0.987946	-1.208121
H137	H	0.095528	0.885974	-1.192358
H138	H	0.120258	0.950473	-1.297518
H139	H	0.046224	0.864472	-1.282619
H140	H	0.067733	1.041159	-1.173181
H141	H	-0.006252	0.955074	-1.158373
O142	O	0.032762	0.994820	-1.129709
C143	C	0.095913	0.885378	-1.100820
C144	C	0.055279	0.955658	-1.061211
H145	H	0.114117	0.853682	-1.045457
H146	H	0.138848	0.918187	-1.150614
H147	H	0.064812	0.832188	-1.135716
H148	H	0.086325	1.008868	-1.026269
H149	H	0.012340	0.922785	-1.011463
H150	H	0.010289	1.033533	-0.958217
H151	H	-0.235718	0.710971	-0.453064
O152	O	-0.218305	0.885781	-0.474302
C153	C	-0.238980	1.035282	-0.449026
C154	C	-0.195730	0.974283	-0.502037
H155	H	-0.220753	1.106846	-0.471443
H156	H	-0.237459	1.029558	-0.375297
H157	H	-0.290781	1.014582	-0.461135
H158	H	-0.143910	0.994943	-0.490002
H159	H	-0.197306	0.980014	-0.575749
H160	H	-0.025677	0.923088	-0.710283
H161	H	-0.117689	0.544754	-0.597671
H162	H	0.072088	0.675682	-0.830089
H163	H	0.048578	0.509691	-0.801336
