data_functionalizedCrystal
_audit_creation_method	'MofGen! by Chris Wilmer'
_symmetry_space_group_name_H-M	'P1'
_symmetry_Int_Tables_number	1
_symmetry_cell_setting	triclinic
loop_
_symmetry_equiv_pos_as_xyz
  x,y,z
_cell_length_a	19.288864
_cell_length_b	19.188930
_cell_length_c	18.366186
_cell_angle_alpha	89.988632
_cell_angle_beta	89.977106
_cell_angle_gamma	83.140512
loop_
_atom_site_label
_atom_site_type_symbol
_atom_site_fract_x
_atom_site_fract_y
_atom_site_fract_z
O1	O	0.921359	0.087099	-0.060791
O2	O	0.719099	0.098849	-0.060743
O3	O	0.826066	-0.008682	-0.060754
O4	O	0.814393	0.194630	-0.060780
O5	O	0.826048	-0.008687	0.060345
O6	O	0.719081	0.098843	0.060357
O7	O	0.921341	0.087094	0.060308
Zn8	Zn	0.820208	0.092968	0.079560
Zn9	Zn	0.820232	0.092975	-0.079994
O10	O	0.814374	0.194625	0.060320
C11	C	0.693214	0.098468	-0.000186
C12	C	0.616110	0.097333	-0.000167
C13	C	0.571419	0.160427	-0.000187
C14	C	0.498972	0.159361	-0.000195
C15	C	0.471219	0.095197	-0.000198
C16	C	0.515921	0.032095	-0.000174
C17	C	0.588366	0.033163	-0.000159
C18	C	0.362960	0.044759	-0.042642
C19	C	0.290515	0.043694	-0.042662
C20	C	0.247773	0.091900	-0.000241
C21	C	0.277483	0.141184	0.042190
C22	C	0.349929	0.142253	0.042205
C23	C	0.392665	0.094032	-0.000214
C24	C	0.124526	0.153843	-0.000268
C25	C	0.052078	0.152774	-0.000272
C26	C	0.069028	0.025506	-0.000259
C27	C	0.141475	0.026576	-0.000248
C28	C	0.169219	0.090747	-0.000256
C29	C	0.825679	-0.034696	-0.000202
C30	C	0.824544	-0.112200	-0.000196
C31	C	0.887309	-0.157129	-0.000207
C32	C	0.886243	-0.229953	-0.000219
C33	C	0.822408	-0.257844	-0.000204
C34	C	0.759636	-0.212906	-0.000196
C35	C	0.760704	-0.140084	-0.000192
N36	N	0.773609	-0.365847	0.041020
N37	N	0.772598	-0.435026	0.041018
C38	C	0.819187	-0.477253	-0.000218
N39	N	0.866835	-0.447689	-0.041442
N40	N	0.867847	-0.378504	-0.041436
C41	C	0.821243	-0.336807	-0.000209
C42	C	0.880800	-0.601146	-0.000243
C43	C	0.879731	-0.673971	-0.000259
C44	C	0.753122	-0.656922	-0.000229
C45	C	0.754193	-0.584099	-0.000220
C46	C	0.818034	-0.556216	-0.000224
C47	C	0.947227	0.087475	-0.000250
C48	C	1.024330	0.088609	-0.000274
C49	C	0.814762	0.220638	-0.000234
C50	C	0.815896	0.298143	-0.000245
N51	N	0.820197	0.092963	0.188451
N52	N	0.820249	0.092974	-0.188885
C53	C	0.867577	0.045371	0.226546
C54	C	0.867582	0.045368	0.302774
C55	C	0.820213	0.092968	0.340903
C56	C	0.772823	0.140563	0.302799
C57	C	0.772816	0.140560	0.226573
C58	C	0.810919	0.156585	0.461657
C59	C	0.810932	0.156589	0.537882
C60	C	0.820232	0.092977	0.576011
C61	C	0.829535	0.029359	0.537906
C62	C	0.829527	0.029356	0.461679
C63	C	0.820215	0.092977	0.423558
C64	C	0.867620	0.045378	0.696761
C65	C	0.867620	0.045374	0.772990
C66	C	0.772864	0.140576	0.773014
C67	C	0.772862	0.140574	0.696786
C68	C	0.820243	0.092976	0.658664
H69	H	0.624755	-0.018218	-0.000144
H70	H	0.906157	0.006613	0.195509
H71	H	0.707661	-0.235620	-0.000186
H72	H	0.709591	-0.103502	-0.000183
H73	H	0.837108	-0.022440	0.568948
C74	C	0.919703	-0.006983	0.344688
H75	H	0.947922	-0.035328	0.311066
H76	H	0.894814	-0.035983	0.374446
H77	H	0.948540	0.018070	0.374399
C78	C	0.682906	-0.687594	-0.000215
H79	H	0.691258	-0.737400	-0.000216
H80	H	0.657078	-0.672147	-0.042438
H81	H	0.657065	-0.672169	0.042027
H82	H	0.803333	0.208389	0.430619
C83	C	0.951020	-0.570470	-0.000255
H84	H	0.988249	-0.607661	-0.000274
H85	H	0.954063	-0.542428	0.041977
H86	H	0.954073	-0.542406	-0.042488
C87	C	0.685153	-0.534672	-0.000203
H88	H	0.694931	-0.487308	-0.000209
H89	H	0.658958	-0.543112	0.042030
H90	H	0.658979	-0.543097	-0.042435
H91	H	0.266331	0.003566	-0.077215
C92	C	0.948776	-0.723393	-0.000270
H93	H	0.986947	-0.696353	-0.000265
H94	H	0.951004	-0.752146	-0.042503
H95	H	0.950978	-0.752164	0.041963
H96	H	0.242684	0.180439	0.076733
C97	C	0.190638	-0.042828	-0.000238
H98	H	0.163736	-0.081196	-0.000247
H99	H	0.219229	-0.045061	0.041997
H100	H	0.219272	-0.045052	-0.042469
C101	C	0.720759	0.192935	0.814947
H102	H	0.727551	0.186124	0.865802
H103	H	0.674427	0.185472	0.802481
H104	H	0.728162	0.239516	0.802440
C105	C	0.919729	-0.006983	0.654824
H106	H	0.947941	-0.035336	0.688433
H107	H	0.948563	0.018057	0.625067
H108	H	0.894825	-0.035985	0.625109
C109	C	0.957531	-0.126460	-0.000224
H110	H	0.994758	-0.163653	-0.000240
H111	H	0.960576	-0.098413	0.042004
H112	H	0.960583	-0.098401	-0.042461
C113	C	0.955286	-0.279383	-0.000226
H114	H	0.993459	-0.252346	-0.000223
H115	H	0.957512	-0.308139	-0.042456
H116	H	0.957486	-0.308150	0.042009
C117	C	0.155048	0.224426	-0.000270
H118	H	0.118052	0.261851	-0.000272
H119	H	0.182978	0.227491	-0.042496
H120	H	0.182934	0.227485	0.041969
H121	H	0.837100	-0.022445	0.430657
C122	C	0.919742	-0.006978	0.814896
H123	H	0.947962	-0.035318	0.781271
H124	H	0.894855	-0.035982	0.844652
H125	H	0.948577	0.018075	0.844609
C126	C	0.720750	0.192932	0.654879
H127	H	0.692542	0.221286	0.688503
H128	H	0.691912	0.167891	0.625163
H129	H	0.745649	0.221934	0.625125
C130	C	0.800700	0.226563	0.579795
H131	H	0.802045	0.217456	0.630653
H132	H	0.756815	0.251569	0.567321
H133	H	0.836940	0.253832	0.567274
H134	H	0.734253	0.179319	0.333848
H135	H	0.734232	0.179316	0.195555
H136	H	0.594003	0.212680	-0.000195
H137	H	0.462577	0.210742	-0.000208
H138	H	0.374116	0.182379	0.076756
H139	H	0.015690	0.204155	-0.000283
H140	H	0.397755	0.005502	-0.077191
C141	C	0.038509	-0.045074	-0.000266
H142	H	-0.011038	-0.036674	-0.000283
H143	H	0.053840	-0.071050	0.041966
H144	H	0.053888	-0.071037	-0.042499
H145	H	0.493320	-0.020148	-0.000187
