data_functionalizedCrystal
_audit_creation_method	'MofGen! by Chris Wilmer'
_symmetry_space_group_name_H-M	'P1'
_symmetry_Int_Tables_number	1
_symmetry_cell_setting	triclinic
loop_
_symmetry_equiv_pos_as_xyz
  x,y,z
_cell_length_a	19.077269
_cell_length_b	16.120444
_cell_length_c	19.076919
_cell_angle_alpha	95.047308
_cell_angle_beta	94.669058
_cell_angle_gamma	90.514064
loop_
_atom_site_label
_atom_site_type_symbol
_atom_site_fract_x
_atom_site_fract_y
_atom_site_fract_z
Zn1	Zn	1.043833	-0.399339	-0.373069
Zn2	Zn	1.042506	-0.533369	-0.261162
Zn3	Zn	0.931170	-0.388596	-0.259457
Zn4	Zn	0.919939	-0.533328	-0.383743
O5	O	0.984362	-0.463658	-0.319358
O6	O	1.142102	-0.421632	-0.354470
O7	O	1.031882	-0.509686	-0.162088
O8	O	0.951370	-0.273358	-0.269348
O9	O	1.141127	-0.520103	-0.272252
O10	O	1.034143	-0.281251	-0.352817
O11	O	0.950083	-0.403322	-0.160836
O12	O	0.831235	-0.403281	-0.279698
O13	O	0.932229	-0.520032	-0.481174
O14	O	0.822984	-0.509615	-0.371010
O15	O	1.023253	-0.421591	-0.473332
O16	O	1.020992	-0.650027	-0.282603
O17	O	0.930942	-0.649996	-0.372662
C18	C	0.801584	-0.455279	-0.326328
C19	C	0.723389	-0.451715	-0.329327
C20	C	0.686149	-0.501220	-0.287859
C21	C	0.612676	-0.497872	-0.290687
C22	C	0.576445	-0.445014	-0.334979
C23	C	0.613690	-0.395507	-0.376452
C24	C	0.687161	-0.398860	-0.373628
C25	C	0.356763	-0.429502	-0.348028
C26	C	0.283287	-0.426151	-0.350847
C27	C	0.282278	-0.528517	-0.265082
C28	C	0.355751	-0.531861	-0.262259
C29	C	0.392990	-0.482358	-0.303734
N30	N	0.501344	-0.441588	-0.337869
N31	N	0.468089	-0.485788	-0.300848
C32	C	0.974623	-0.680263	-0.328990
C33	C	0.970520	-0.772931	-0.333132
C34	C	1.005812	-0.983878	-0.298016
C35	C	0.963042	-0.942593	-0.340702
C36	C	0.967204	-0.848184	-0.336489
C37	C	1.001651	-1.078295	-0.302227
C38	C	1.167854	-0.472071	-0.312361
C39	C	1.246047	-0.475656	-0.309379
C40	C	0.976637	-0.472005	-0.503599
C41	C	0.973344	-0.475562	-0.582112
C42	C	0.994157	-0.246209	-0.309702
C43	C	0.998332	-0.153545	-0.305587
C44	C	1.019187	-0.425983	-0.614916
C45	C	1.016085	-0.429322	-0.688688
C46	C	0.967144	-0.482245	-0.729654
C47	C	0.921296	-0.531826	-0.696845
C48	C	0.924395	-0.528483	-0.623075
C49	C	0.952791	-0.497737	-0.950721
C50	C	0.949697	-0.501078	-1.024496
C51	C	1.044485	-0.398572	-1.016333
C52	C	1.047582	-0.395237	-0.942562
C53	C	1.001733	-0.444815	-0.909760
N54	N	0.963974	-0.485661	-0.805060
N55	N	1.004900	-0.441394	-0.834355
C56	C	0.992100	-0.455285	-0.135828
C57	C	0.995539	-0.451499	-0.057300
H58	H	0.387074	-0.389193	-0.381801
H59	H	0.915466	-0.538119	-0.924023
O60	O	1.053123	-0.941419	-0.250568
C61	C	1.017185	-0.887203	-0.204257
H62	H	0.960828	-0.910849	-0.203121
H63	H	1.044992	-0.884805	-0.148894
H64	H	1.016674	-0.822118	-0.223306
O65	O	0.721452	-0.552494	-0.244848
C66	C	0.794285	-0.544856	-0.251258
H67	H	0.806242	-0.482070	-0.271234
H68	H	0.824160	-0.549293	-0.197514
H69	H	0.811347	-0.597028	-0.290206
H70	H	1.059042	-0.382890	-0.581566
O71	O	1.060691	-0.381135	-0.720440
C72	C	1.104544	-0.333697	-0.668463
H73	H	1.107648	-0.365575	-0.617302
H74	H	1.159478	-0.328317	-0.687274
H75	H	1.081970	-0.268841	-0.658785
O76	O	0.915695	-0.984975	-0.388169
C77	C	0.928959	-0.967595	-0.457070
H78	H	0.986046	-0.946263	-0.457494
H79	H	0.918925	-1.026201	-0.494701
H80	H	0.892633	-0.916268	-0.474732
H81	H	1.087438	-0.352144	-0.909212
O82	O	0.576612	-0.545985	-0.250331
C83	C	0.624345	-0.593367	-0.210640
H84	H	0.678350	-0.561494	-0.204714
H85	H	0.605040	-0.598660	-0.156180
H86	H	0.628241	-0.658259	-0.238931
H87	H	0.881445	-0.574914	-0.730206
O88	O	1.088944	-0.350438	-1.048311
C89	C	1.075729	-0.364749	-1.122207
H90	H	1.019786	-0.390023	-1.135563
H91	H	1.082134	-0.303791	-1.147288
H92	H	1.114580	-0.412004	-1.143525
O93	O	0.902088	-0.552508	-1.064187
C94	C	0.862295	-0.595566	-1.019417
H95	H	0.863602	-0.558924	-0.965408
H96	H	0.805574	-0.602881	-1.043242
H97	H	0.885531	-0.659709	-1.013399
O98	O	0.723362	-0.350894	-0.413987
C99	C	0.761841	-0.402450	-0.460011
H100	H	0.736570	-0.467301	-0.468053
H101	H	0.761760	-0.374903	-0.513046
H102	H	0.818305	-0.406834	-0.436153
H103	H	0.887059	-0.568847	-0.596367
H104	H	0.385246	-0.574903	-0.226190
O105	O	0.248197	-0.374789	-0.393942
C106	C	0.296820	-0.331802	-0.429934
H107	H	0.347560	-0.368450	-0.431837
H108	H	0.273664	-0.324575	-0.486025
H109	H	0.308551	-0.267621	-0.401045
O110	O	0.246174	-0.576729	-0.224838
C111	C	0.259746	-0.661361	-0.243182
H112	H	0.311880	-0.666800	-0.268362
H113	H	0.262710	-0.696456	-0.193715
H114	H	0.215621	-0.689264	-0.282301
O115	O	0.578390	-0.344179	-0.419417
C116	C	0.505555	-0.351847	-0.413030
H117	H	0.496570	-0.376121	-0.360076
H118	H	0.480235	-0.288355	-0.416204
H119	H	0.480965	-0.397263	-0.457646
