data_functionalizedCrystal
_audit_creation_method	'MofGen! by Chris Wilmer'
_symmetry_space_group_name_H-M	'P1'
_symmetry_Int_Tables_number	1
_symmetry_cell_setting	triclinic
loop_
_symmetry_equiv_pos_as_xyz
  x,y,z
_cell_length_a	22.610064
_cell_length_b	14.519709
_cell_length_c	14.519709
_cell_angle_alpha	83.680145
_cell_angle_beta	90.003132
_cell_angle_gamma	89.997369
loop_
_atom_site_label
_atom_site_type_symbol
_atom_site_fract_x
_atom_site_fract_y
_atom_site_fract_z
O1	O	0.049109	-1.223874	-0.120879
O2	O	0.549109	-0.723874	0.379121
O3	O	0.049127	-0.955397	-0.135115
O4	O	0.549127	-0.455397	0.364885
O5	O	0.049112	-1.096754	0.006241
O6	O	0.549112	-0.596754	0.506241
O7	O	0.049124	-1.082517	-0.262235
O8	O	0.549124	-0.582517	0.237765
O9	O	-0.049257	-1.096729	0.006221
O10	O	0.450743	-0.596729	0.506221
O11	O	-0.049242	-0.955372	-0.135136
O12	O	0.450758	-0.455372	0.364864
O13	O	-0.049260	-1.223849	-0.120899
O14	O	0.450740	-0.723849	0.379101
Zn15	Zn	-0.064869	-1.089606	-0.128021
Zn16	Zn	0.435131	-0.589606	0.371979
Zn17	Zn	0.064736	-1.089639	-0.127994
Zn18	Zn	0.564736	-0.589639	0.372006
O19	O	-0.049245	-1.082492	-0.262256
O20	O	0.450755	-0.582492	0.237744
C21	C	-0.000055	-0.921025	-0.134462
C22	C	0.499945	-0.421025	0.365538
C23	C	-0.000048	-0.818643	-0.132474
C24	C	0.499952	-0.318643	0.367526
N25	N	-0.153322	-1.089591	-0.128039
N26	N	0.346678	-0.589591	0.371961
C27	C	-0.000073	-1.096078	0.040591
C28	C	0.499927	-0.596078	0.540591
C29	C	-0.000073	-1.094090	0.142972
C30	C	0.499927	-0.594090	0.642972
C31	C	-0.561970	-1.152235	-0.065411
C32	C	-0.061970	-0.652235	0.434589
C33	C	-0.623890	-1.152240	-0.065404
C34	C	-0.123890	-0.652240	0.434596
O35	O	-0.655914	-1.205463	-0.012169
O36	O	-0.155914	-0.705463	0.487831
N37	N	-0.654859	-1.089639	-0.127975
N38	N	-0.154859	-0.589639	0.372025
C39	C	-0.623905	-1.027022	-0.190550
C40	C	-0.123905	-0.527022	0.309450
O41	O	-0.655933	-0.973775	-0.243770
O42	O	-0.155933	-0.473775	0.256230
C43	C	-0.561986	-1.027014	-0.190551
C44	C	-0.061986	-0.527014	0.309449
C45	C	-0.531020	-1.089626	-0.127983
C46	C	-0.031020	-0.589626	0.372017
C47	C	-0.531004	-1.214841	-0.002846
C48	C	-0.031004	-0.714841	0.497154
C49	C	-0.469088	-1.214837	-0.002855
C50	C	0.030912	-0.714837	0.497145
C51	C	-0.438139	-1.152227	-0.065427
C52	C	0.061861	-0.652227	0.434573
C53	C	-0.469105	-1.089622	-0.127991
C54	C	0.030895	-0.589622	0.372009
C55	C	-0.531034	-0.964394	-0.253121
C56	C	-0.031034	-0.464394	0.246879
C57	C	-0.469111	-0.964391	-0.253117
C58	C	0.030889	-0.464391	0.246883
C59	C	-0.438145	-1.027002	-0.190548
C60	C	0.061855	-0.527002	0.309452
C61	C	-0.376240	-1.027009	-0.190571
C62	C	0.123760	-0.527009	0.309429
N63	N	-0.345270	-1.089610	-0.128000
N64	N	0.154730	-0.589610	0.372000
C65	C	-0.376220	-1.152219	-0.065428
C66	C	0.123780	-0.652219	0.434572
C67	C	-0.753939	-1.027044	-0.190541
C68	C	-0.253939	-0.527044	0.309459
C69	C	-0.815856	-1.027056	-0.190544
C70	C	-0.315856	-0.527056	0.309456
C71	C	-0.815837	-1.152272	-0.065397
C72	C	-0.315837	-0.652272	0.434603
C73	C	-0.753918	-1.152264	-0.065399
C74	C	-0.253918	-0.652264	0.434601
C75	C	-0.722970	-1.089645	-0.127970
C76	C	-0.222970	-0.589645	0.372030
C77	C	-0.246193	-1.152207	-0.065450
C78	C	0.253807	-0.652207	0.434550
C79	C	-0.184271	-1.152200	-0.065467
C80	C	0.315729	-0.652200	0.434533
C81	C	-0.184296	-1.026981	-0.190610
C82	C	0.315704	-0.526981	0.309390
C83	C	-0.246212	-1.026991	-0.190598
C84	C	0.253788	-0.526991	0.309402
C85	C	-0.277159	-1.089607	-0.128010
C86	C	0.222841	-0.589607	0.371990
O87	O	-0.344176	-0.973810	-0.243777
O88	O	0.155824	-0.473810	0.256223
O89	O	-0.344185	-1.205449	-0.012209
O90	O	0.155815	-0.705449	0.487791
N91	N	0.153189	-1.089662	-0.127968
N92	N	0.653189	-0.589662	0.372032
C93	C	-0.000077	-1.258221	-0.121553
C94	C	0.499923	-0.758221	0.378447
C95	C	-0.000080	-1.360602	-0.123541
C96	C	0.499920	-0.860602	0.376459
C97	C	-0.000076	-0.443748	-0.125154
C98	C	0.499924	0.056252	0.374846
C99	C	-0.000068	-0.548056	-0.127187
C100	C	0.499932	-0.048056	0.372813
C101	C	-0.000062	-0.631192	-0.128814
C102	C	0.499938	-0.131192	0.371186
C103	C	-0.000055	-0.735507	-0.130847
C104	C	0.499945	-0.235507	0.369153
C105	C	-0.000059	-1.083168	-0.296606
C106	C	0.499941	-0.583168	0.203394
C107	C	-0.000055	-1.085156	-0.398987
C108	C	0.499945	-0.585156	0.101013
C109	C	-0.000057	-1.086770	0.517868
C110	C	0.499943	-0.586770	1.017868
C111	C	-0.000061	-1.088803	0.413560
C112	C	0.499939	-0.588803	0.913560
C113	C	-0.000065	-1.090430	0.330423
C114	C	0.499935	-0.590430	0.830423
C115	C	-0.000069	-1.092463	0.226109
C116	C	0.499931	-0.592463	0.726109
H117	H	-0.159061	-1.203189	-0.014516
H118	H	0.340939	-0.703189	0.485484
Cl119	Cl	-0.430166	-1.293545	0.075812
Cl120	Cl	0.069834	-0.793545	0.575812
Cl121	Cl	-0.569902	-1.293560	0.075826
Cl122	Cl	-0.069902	-0.793560	0.575826
H123	H	-0.841047	-1.203251	-0.014446
H124	H	-0.341047	-0.703251	0.485554
Cl125	Cl	-0.854778	-0.948354	-0.269217
Cl126	Cl	-0.354778	-0.448354	0.230783
H127	H	-0.728709	-1.203247	-0.014450
H128	H	-0.228709	-0.703247	0.485550
Cl129	Cl	-0.715038	-0.948322	-0.269217
Cl130	Cl	-0.215038	-0.448322	0.230783
Cl131	Cl	-0.145379	-0.948276	-0.269270
Cl132	Cl	0.354621	-0.448276	0.230730
H133	H	-0.271382	-1.203194	-0.014485
H134	H	0.228618	-0.703194	0.485515
H135	H	-0.556238	-0.913410	-0.304070
H136	H	-0.056238	-0.413410	0.195930
Cl137	Cl	-0.430209	-0.885663	-0.331782
Cl138	Cl	0.069791	-0.385663	0.168218
Cl139	Cl	-0.285139	-0.948286	-0.269268
Cl140	Cl	0.214861	-0.448286	0.230732
