data_functionalizedCrystal
_audit_creation_method	'MofGen! by Chris Wilmer'
_symmetry_space_group_name_H-M	'P1'
_symmetry_Int_Tables_number	1
_symmetry_cell_setting	triclinic
loop_
_symmetry_equiv_pos_as_xyz
  x,y,z
_cell_length_a	18.215407
_cell_length_b	19.120904
_cell_length_c	19.121063
_cell_angle_alpha	94.741613
_cell_angle_beta	92.466335
_cell_angle_gamma	92.425671
loop_
_atom_site_label
_atom_site_type_symbol
_atom_site_fract_x
_atom_site_fract_y
_atom_site_fract_z
Zn1	Zn	1.093438	-0.409722	-0.297155
Zn2	Zn	1.593438	0.090278	0.202845
Zn3	Zn	1.093347	-0.297072	-0.409802
Zn4	Zn	1.593347	0.202928	0.090198
Zn5	Zn	0.975859	-0.292080	-0.292151
Zn6	Zn	1.475859	0.207920	0.207849
Zn7	Zn	0.964850	-0.414699	-0.414777
Zn8	Zn	1.464850	0.085301	0.085223
O9	O	1.031873	-0.353393	-0.353471
O10	O	1.531873	0.146607	0.146529
O11	O	1.196409	-0.394785	-0.312110
O12	O	1.696409	0.105215	0.187890
O13	O	1.082331	-0.197950	-0.390019
O14	O	1.582331	0.302050	0.109981
O15	O	0.996102	-0.303513	-0.194352
O16	O	1.496102	0.196487	0.305648
O17	O	1.196342	-0.312022	-0.394871
O18	O	1.696342	0.187978	0.105129
O19	O	1.082486	-0.389944	-0.198029
O20	O	1.582486	0.110056	0.301971
O21	O	0.996013	-0.194281	-0.303581
O22	O	1.496013	0.305719	0.196419
O23	O	0.871415	-0.308339	-0.308405
O24	O	1.371415	0.191661	0.191595
O25	O	0.977338	-0.512499	-0.403350
O26	O	1.477338	-0.012499	0.096650
O27	O	0.863327	-0.398426	-0.398498
O28	O	1.363327	0.101574	0.101502
O29	O	1.071811	-0.508842	-0.316934
O30	O	1.571811	-0.008842	0.183066
O31	O	1.071656	-0.316848	-0.508924
O32	O	1.571656	0.183152	-0.008924
O33	O	0.977250	-0.403267	-0.512579
O34	O	1.477250	0.096733	-0.012579
C35	C	0.840668	-0.353381	-0.353449
C36	C	1.340668	0.146619	0.146551
C37	C	0.758869	-0.353394	-0.353457
C38	C	1.258869	0.146606	0.146543
C39	C	0.489618	-0.400243	-0.400454
C40	C	0.989618	0.099757	0.099546
C41	C	0.566477	-0.400239	-0.400448
C42	C	1.066477	0.099761	0.099552
C43	C	0.574869	-0.306556	-0.306505
C44	C	1.074869	0.193444	0.193495
C45	C	0.498011	-0.306557	-0.306515
C46	C	0.998011	0.193443	0.193485
C47	C	0.455387	-0.353404	-0.353488
C48	C	0.955387	0.146596	0.146512
C49	C	0.609104	-0.353400	-0.353472
C50	C	1.109104	0.146600	0.146528
C51	C	0.692438	-0.353396	-0.353465
C52	C	1.192438	0.146604	0.146535
C53	C	0.372048	-0.353408	-0.353497
C54	C	0.872048	0.146592	0.146503
C55	C	1.023356	-0.536914	-0.361255
C56	C	1.523356	-0.036914	0.138745
C57	C	1.019727	-0.615120	-0.364572
C58	C	1.519727	-0.115120	0.135428
C59	C	1.067207	-0.649959	-0.321140
C60	C	1.567207	-0.149959	0.178860
C61	C	1.063788	-0.723441	-0.324255
C62	C	1.563788	-0.223441	0.175745
C63	C	1.012892	-0.762084	-0.370805
C64	C	1.512892	-0.262084	0.129195
C65	C	0.965408	-0.727240	-0.414238
C66	C	1.465408	-0.227240	0.085762
C67	C	0.968824	-0.653759	-0.411120
C68	C	1.468824	-0.153759	0.088880
C69	C	1.000114	-0.984045	-0.382467
C70	C	1.500114	-0.484045	0.117533
C71	C	0.996703	-1.057531	-0.385583
C72	C	1.496703	-0.557531	0.114417
C73	C	1.095083	-1.053727	-0.295598
C74	C	1.595083	-0.553727	0.204402
C75	C	1.098497	-0.980245	-0.292487
C76	C	1.598497	-0.480245	0.207513
C77	C	1.051010	-0.945407	-0.335918
C78	C	1.551010	-0.445407	0.164082
C79	C	1.009398	-0.837195	-0.373990
C80	C	1.509398	-0.337195	0.126010
C81	C	1.054501	-0.870297	-0.332728
C82	C	1.554501	-0.370297	0.167272
C83	C	1.223825	-0.353405	-0.353494
C84	C	1.723825	0.146595	0.146506
C85	C	1.305623	-0.353410	-0.353503
C86	C	1.805623	0.146590	0.146497
C87	C	1.023267	-0.361155	-0.536283
C88	C	1.523267	0.138845	-0.036283
C89	C	1.019652	-0.364499	-0.614491
C90	C	1.519652	0.135501	-0.114491
C91	C	1.040402	-0.170584	-0.345667
C92	C	1.540402	0.329416	0.154333
C93	C	1.044183	-0.092370	-0.342151
C94	C	1.544183	0.407630	0.157849
C95	C	1.067140	-0.321113	-0.649309
C96	C	1.567140	0.178887	-0.149309
C97	C	1.063744	-0.324263	-0.722795
C98	C	1.563744	0.175737	-0.222795
C99	C	1.012856	-0.370794	-0.761461
C100	C	1.512856	0.129206	-0.261461
C101	C	0.965365	-0.414185	-0.726638
C102	C	1.465365	0.085815	-0.226638
C103	C	0.968765	-0.411039	-0.653154
C104	C	1.468765	0.088961	-0.153154
C105	C	1.000132	-0.382546	-0.983432
C106	C	1.500132	0.117454	-0.483432
C107	C	0.996734	-0.385688	-1.056921
C108	C	1.496734	0.114312	-0.556921
C109	C	1.095114	-0.295766	-1.053073
C110	C	1.595114	0.204234	-0.553073
C111	C	1.098507	-0.292621	-0.979587
C112	C	1.598507	0.207379	-0.479587
C113	C	1.051019	-0.336014	-0.944771
C114	C	1.551019	0.163986	-0.444771
C115	C	1.009381	-0.374013	-0.836575
C116	C	1.509381	0.125987	-0.336575
C117	C	1.054497	-0.332799	-0.869658
C118	C	1.554497	0.167201	-0.369658
C119	C	1.040532	-0.345616	-0.169946
C120	C	1.540532	0.154384	0.330054
C121	C	1.044222	-0.342302	-0.091739
C122	C	1.544222	0.157698	0.408261
H123	H	1.108653	-0.618501	-0.283236
H124	H	1.608653	-0.118501	0.216764
C125	C	1.151400	-0.244226	-0.873234
C126	C	1.651400	0.255774	-0.373234
C127	C	1.110432	-0.281650	-0.827159
C128	C	1.610432	0.218350	-0.327159
H129	H	1.185932	-0.212651	-0.846991
H130	H	1.685932	0.287349	-0.346991
H131	H	1.119280	-0.218517	-0.900787
H132	H	1.619280	0.281483	-0.400787
H133	H	1.176780	-0.276133	-0.903164
H134	H	1.676780	0.223867	-0.403164
H135	H	1.085047	-0.249743	-0.797232
H136	H	1.585047	0.250257	-0.297232
H137	H	1.142556	-0.307361	-0.799594
H138	H	1.642556	0.192639	-0.299594
C139	C	1.135500	-1.071300	-0.177419
C140	C	1.635500	-0.571300	0.322581
C141	C	1.147274	-1.092020	-0.247854
C142	C	1.647274	-0.592020	0.252146
H143	H	1.167724	-1.094938	-0.147942
H144	H	1.667724	-0.594938	0.352058
H145	H	1.085986	-1.082905	-0.167633
H146	H	1.585986	-0.582905	0.332367
H147	H	1.144818	-1.022006	-0.168911
H148	H	1.644818	-0.522006	0.331089
H149	H	1.137950	-1.141313	-0.256363
H150	H	1.637950	-0.641313	0.243637
H151	H	1.196799	-1.080420	-0.257644
H152	H	1.696799	-0.580420	0.242356
H153	H	0.955302	-0.423592	-1.088402
H154	H	1.455302	0.076408	-0.588402
C155	C	1.170415	-0.307876	-0.566188
C156	C	1.670415	0.192124	-0.066188
C157	C	1.123078	-0.269963	-0.606809
C158	C	1.623078	0.230037	-0.106809
H159	H	1.204947	-0.276296	-0.539949
H160	H	1.704947	0.223704	-0.039949
H161	H	1.195789	-0.339774	-0.596121
H162	H	1.695789	0.160226	-0.096121
H163	H	1.142611	-0.333260	-0.534935
H164	H	1.642611	0.166740	-0.034935
H165	H	1.150882	-0.244583	-0.638066
H166	H	1.650882	0.255417	-0.138066
H167	H	1.097702	-0.238052	-0.576873
H168	H	1.597702	0.261948	-0.076873
C169	C	1.220302	-0.262564	-1.074156
C170	C	1.720302	0.237436	-0.574156
C171	C	1.147320	-0.248075	-1.091340
C172	C	1.647320	0.251925	-0.591340
H173	H	1.252534	-0.233118	-1.097777
H174	H	1.752534	0.266882	-0.597777
H175	H	1.228275	-0.310356	-1.088182
H176	H	1.728275	0.189644	-0.588182
H177	H	1.229596	-0.254033	-1.024856
H178	H	1.729596	0.245967	-0.524856
H179	H	1.138024	-0.256611	-1.140639
H180	H	1.638024	0.243389	-0.640639
H181	H	1.139344	-0.200272	-1.077318
H182	H	1.639344	0.299728	-0.577318
H183	H	1.102452	-0.751803	-0.288889
H184	H	1.602452	-0.251803	0.211111
H185	H	1.102414	-0.288933	-0.751140
H186	H	1.602414	0.211067	-0.251140
H187	H	0.923965	-0.758709	-0.452138
H188	H	1.423965	-0.258709	0.047862
H189	H	0.930096	-0.446369	-0.624806
H190	H	1.430096	0.053631	-0.124806
C191	C	0.575444	-0.213945	-0.213658
C192	C	1.075444	0.286055	0.286342
C193	C	0.621723	-0.255062	-0.254874
C194	C	1.121723	0.244938	0.245126
H195	H	0.604370	-0.182151	-0.181786
H196	H	1.104370	0.317849	0.318214
H197	H	0.545309	-0.243500	-0.188092
H198	H	1.045309	0.256500	0.311908
H199	H	0.545275	-0.188290	-0.243144
H200	H	1.045275	0.311710	0.256856
H201	H	0.651887	-0.280721	-0.225387
H202	H	1.151887	0.219279	0.274613
H203	H	0.651871	-0.225503	-0.280442
H204	H	1.151871	0.274497	0.219558
C205	C	0.902529	-0.471726	-0.994627
C206	C	1.402529	0.028274	-0.494627
C207	C	0.947920	-0.430230	-0.945168
C208	C	1.447920	0.069770	-0.445168
H209	H	0.870289	-0.501159	-0.971000
H210	H	1.370289	-0.001159	-0.471000
H211	H	0.931993	-0.499897	-1.024391
H212	H	1.431993	0.000103	-0.524391
H213	H	0.874513	-0.442263	-1.022025
H214	H	1.374513	0.057737	-0.522025
H215	H	0.975940	-0.459694	-0.917773
H216	H	1.475940	0.040306	-0.417773
H217	H	0.918452	-0.402056	-0.915392
H218	H	1.418452	0.097944	-0.415392
H219	H	0.594343	-0.438379	-0.438692
H220	H	1.094343	0.061621	0.061308
H221	H	1.139944	-0.254731	-0.948106
H222	H	1.639944	0.245269	-0.448106
C223	C	0.871257	-0.664896	-0.500398
C224	C	1.371257	-0.164896	-0.000398
C225	C	0.916645	-0.615462	-0.458874
C226	C	1.416645	-0.115462	0.041126
H227	H	0.839048	-0.641252	-0.529884
H228	H	1.339048	-0.141252	-0.029884
H229	H	0.843214	-0.692248	-0.470958
H230	H	1.343214	-0.192248	0.029042
H231	H	0.900730	-0.694706	-0.528523
H232	H	1.400730	-0.194706	-0.028523
H233	H	0.887172	-0.585655	-0.430745
H234	H	1.387172	-0.085655	0.069255
H235	H	0.944691	-0.588098	-0.488318
H236	H	1.444691	-0.088098	0.011682
C237	C	0.916463	-0.458929	-0.840991
C238	C	1.416463	0.041071	-0.340991
C239	C	0.909425	-0.465332	-0.769139
C240	C	1.409425	0.034668	-0.269139
H241	H	0.881922	-0.490502	-0.867226
H242	H	1.381922	0.009498	-0.367226
H243	H	0.964859	-0.469784	-0.853430
H244	H	1.464859	0.030216	-0.353430
H245	H	0.907369	-0.412159	-0.851048
H246	H	1.407369	0.087841	-0.351048
H247	H	0.918524	-0.512101	-0.759081
H248	H	1.418524	-0.012101	-0.259081
H249	H	0.861017	-0.454482	-0.756695
H250	H	1.361017	0.045518	-0.256695
H251	H	0.470141	-0.268412	-0.268269
H252	H	0.970141	0.231588	0.231731
C253	C	0.989244	-0.905429	-0.473611
C254	C	1.489244	-0.405429	0.026389
C255	C	0.947916	-0.945765	-0.430211
C256	C	1.447916	-0.445765	0.069789
H257	H	0.957014	-0.881794	-0.503084
H258	H	1.457014	-0.381794	-0.003084
H259	H	1.018704	-0.935236	-0.501742
H260	H	1.518704	-0.435236	-0.001742
H261	H	1.020035	-0.871893	-0.445438
H262	H	1.520035	-0.371893	0.054562
H263	H	0.917129	-0.979304	-0.458384
H264	H	1.417129	-0.479304	0.041616
H265	H	0.918444	-0.915955	-0.402077
H266	H	1.418444	-0.415955	0.097923
C267	C	1.073029	-0.783654	-0.234581
C268	C	1.573029	-0.283654	0.265419
C269	C	1.110444	-0.827824	-0.281560
C270	C	1.610444	-0.327824	0.218440
H271	H	1.107569	-0.757426	-0.202997
H272	H	1.607569	-0.257426	0.297003
H273	H	1.040915	-0.811177	-0.208878
H274	H	1.540915	-0.311177	0.291122
H275	H	1.045240	-0.752394	-0.260011
H276	H	1.545240	-0.252394	0.239989
H277	H	1.138230	-0.859087	-0.256131
H278	H	1.638230	-0.359087	0.243869
H279	H	1.142572	-0.800298	-0.307266
H280	H	1.642572	-0.300298	0.192734
C281	C	1.116985	-0.893632	-0.194310
C282	C	1.616985	-0.393632	0.305690
C283	C	1.154423	-0.937784	-0.241286
C284	C	1.654423	-0.437784	0.258714
H285	H	1.151509	-0.867421	-0.162696
H286	H	1.651509	-0.367421	0.337304
H287	H	1.084849	-0.921167	-0.168639
H288	H	1.584849	-0.421167	0.331361
H289	H	1.089216	-0.862357	-0.219738
H290	H	1.589216	-0.362357	0.280262
H291	H	1.182188	-0.969064	-0.215858
H292	H	1.682188	-0.469064	0.284142
H293	H	1.186572	-0.910247	-0.266959
H294	H	1.686572	-0.410247	0.233041
H295	H	0.454915	-0.438389	-0.438703
H296	H	0.954915	0.061611	0.061297
H297	H	0.967946	-0.411898	-0.868065
H298	H	1.467946	0.088102	-0.368065
H299	H	0.967962	-0.868666	-0.411895
H300	H	1.467962	-0.368666	0.088105
H301	H	0.955256	-1.088992	-0.423492
H302	H	1.455256	-0.588992	0.076508
