data_functionalizedCrystal
_audit_creation_method	'MofGen! by Chris Wilmer'
_symmetry_space_group_name_H-M	'P1'
_symmetry_Int_Tables_number	1
_symmetry_cell_setting	triclinic
loop_
_symmetry_equiv_pos_as_xyz
  x,y,z
_cell_length_a	15.995350
_cell_length_b	15.995350
_cell_length_c	15.072220
_cell_angle_alpha	89.998899
_cell_angle_beta	89.993871
_cell_angle_gamma	96.507625
loop_
_atom_site_label
_atom_site_type_symbol
_atom_site_fract_x
_atom_site_fract_y
_atom_site_fract_z
O1	O	1.110996	-0.107921	-0.073647
O2	O	1.610996	0.392079	0.426353
O3	O	0.867221	-0.121249	-0.073677
O4	O	1.367221	0.378751	0.426323
O5	O	0.995772	0.007303	-0.073660
O6	O	1.495772	0.507303	0.426340
O7	O	0.982444	-0.236472	-0.073664
O8	O	1.482444	0.263528	0.426336
O9	O	0.995740	0.007296	0.073905
O10	O	1.495740	0.507296	0.573905
O11	O	0.867189	-0.121256	0.073888
O12	O	1.367189	0.378744	0.573888
O13	O	1.110964	-0.107928	0.073918
O14	O	1.610964	0.392072	0.573918
Zn15	Zn	0.989071	-0.114593	0.097332
Zn16	Zn	1.489071	0.385407	0.597332
Zn17	Zn	0.989113	-0.114584	-0.097091
Zn18	Zn	1.489113	0.385416	0.402909
O19	O	0.982413	-0.236480	0.073902
O20	O	1.482413	0.263520	0.573902
C21	C	0.836010	-0.120701	0.000102
C22	C	1.336010	0.379299	0.500102
C23	C	0.743060	-0.119049	0.000090
C24	C	1.243060	0.380951	0.500090
N25	N	0.989049	-0.114599	0.230021
N26	N	1.489049	0.385401	0.730021
C27	C	1.142175	-0.108476	0.000138
C28	C	1.642175	0.391524	0.500138
C29	C	1.235125	-0.110127	0.000143
C30	C	1.735125	0.389873	0.500143
C31	C	0.995205	0.038494	0.000121
C32	C	1.495205	0.538494	0.500121
C33	C	0.993553	0.131444	0.000115
C34	C	1.493553	0.631444	0.500115
C35	C	1.572873	-0.116060	0.000108
C36	C	2.072873	0.383940	0.500108
C37	C	1.525439	-0.207612	0.000440
C38	C	2.025439	0.292388	0.500440
C39	C	1.428748	-0.205959	0.000117
C40	C	1.928748	0.294041	0.500117
C41	C	1.405312	-0.113117	0.000126
C42	C	1.905312	0.386883	0.500126
C43	C	1.446391	-0.067956	-0.084142
C44	C	1.946391	0.432044	0.415858
C45	C	1.543027	-0.070256	-0.084222
C46	C	2.043027	0.429744	0.415778
C47	C	1.543382	-0.068373	0.083587
C48	C	2.043382	0.431627	0.583587
C49	C	1.446437	-0.068395	0.084710
C50	C	1.946437	0.431605	0.584710
C51	C	1.310615	-0.111449	0.000133
C52	C	1.810615	0.388551	0.500133
C53	C	1.667570	-0.117725	0.000094
C54	C	2.167570	0.382275	0.500094
C55	C	0.982980	-0.267671	0.000119
C56	C	1.482980	0.232329	0.500119
C57	C	0.984631	-0.360621	0.000118
C58	C	1.484631	0.139379	0.500118
C59	C	0.987621	0.469192	0.000118
C60	C	1.487621	0.969192	0.500118
C61	C	0.896069	0.421758	-0.000225
C62	C	1.396069	0.921758	0.499775
C63	C	0.897721	0.325068	0.000108
C64	C	1.397721	0.825068	0.500108
C65	C	0.990564	0.301631	0.000116
C66	C	1.490564	0.801631	0.500116
C67	C	1.035702	0.342705	0.084387
C68	C	1.535702	0.842705	0.584387
C69	C	1.033402	0.439341	0.084457
C70	C	1.533402	0.939341	0.584457
C71	C	1.035330	0.439707	-0.083352
C72	C	1.535330	0.939707	0.416648
C73	C	1.035308	0.342761	-0.084465
C74	C	1.535308	0.842761	0.415535
C75	C	0.992231	0.206934	0.000118
C76	C	1.492231	0.706934	0.500118
C77	C	0.985956	0.563890	0.000122
C78	C	1.485956	1.063890	0.500122
N79	N	0.989142	-0.114571	-0.229780
N80	N	1.489142	0.385429	0.270220
C81	C	0.989112	-0.114580	0.589223
C82	C	1.489112	0.385420	1.089223
C83	C	0.920095	-0.183135	0.551607
C84	C	1.420095	0.316865	1.051607
C85	C	0.920254	-0.183385	0.448781
C86	C	1.420254	0.316615	0.948781
C87	C	0.989080	-0.114590	0.411019
C88	C	1.489080	0.385410	0.911019
C89	C	1.076445	-0.133671	0.448321
C90	C	1.576445	0.366329	0.948321
C91	C	1.076058	-0.134159	0.551178
C92	C	1.576058	0.365841	1.051178
C93	C	0.971542	-0.026741	0.551321
C94	C	1.471542	0.473259	1.051321
C95	C	0.969537	-0.027327	0.448458
C96	C	1.469537	0.472673	0.948458
C97	C	0.989067	-0.114593	0.310305
C98	C	1.489067	0.385407	0.810305
C99	C	0.989130	-0.114579	0.689936
C100	C	1.489130	0.385421	1.189936
H101	H	1.400325	-0.241463	0.060520
H102	H	1.900325	0.258537	0.560520
F103	F	0.994691	0.305607	0.166350
F104	F	1.494691	0.805607	0.666350
H105	H	1.419137	-0.101371	0.147051
H106	H	1.919137	0.398629	0.647051
H107	H	1.129029	-0.085068	0.423858
H108	H	1.629029	0.414932	0.923858
F109	F	1.550083	-0.255631	0.079105
F110	F	2.050083	0.244369	0.579105
H111	H	1.431077	-0.000690	0.089803
H112	H	1.931077	0.499310	0.589803
H113	H	1.432265	0.000253	-0.087269
H114	H	1.932265	0.500253	0.412731
F115	F	1.030979	0.042479	0.414873
F116	F	1.530979	0.542479	0.914873
H117	H	1.091540	-0.198219	0.575161
H118	H	1.591540	0.301781	1.075161
F119	F	1.409298	-0.108945	-0.166108
F120	F	1.909298	0.391055	0.333892
F121	F	0.848254	0.445982	-0.079216
F122	F	1.348254	0.945982	0.420784
F123	F	1.392325	-0.252658	-0.078973
F124	F	1.892325	0.247342	0.421027
F125	F	0.890067	-0.002771	0.585257
F126	F	1.390067	0.497229	1.085257
F127	F	1.123557	0.481221	-0.084087
F128	F	1.623557	0.981221	0.415913
H129	H	0.861974	0.297200	0.060612
H130	H	1.361974	0.797200	0.560612
H131	H	1.129019	-0.086195	0.576060
H132	H	1.629019	0.413805	1.076060
F133	F	0.835360	-0.168568	0.415816
F134	F	1.335360	0.331432	0.915816
F135	F	1.570230	-0.107500	0.167064
F136	F	2.070230	0.392500	0.667064
H137	H	1.103910	0.328579	0.087526
H138	H	1.603910	0.828579	0.587526
F139	F	0.848312	0.447646	0.078098
F140	F	1.348312	0.947646	0.578098
F141	F	0.990342	0.463260	0.166785
F142	F	1.490342	0.963260	0.666785
F143	F	0.851342	0.287919	-0.078851
F144	F	1.351342	0.787919	0.421149
H145	H	1.575275	-0.003040	-0.088057
H146	H	2.075275	0.496960	0.411943
H147	H	0.854945	-0.171953	0.576360
H148	H	1.354945	0.328047	1.076360
H149	H	1.575140	-0.000872	0.084154
H150	H	2.075140	0.499128	0.584154
H151	H	1.002306	0.315516	-0.146807
H152	H	1.502306	0.815516	0.353193
H153	H	1.100617	0.471588	0.088286
H154	H	1.600617	0.971588	0.588286
F155	F	0.996218	0.466548	-0.166838
F156	F	1.496218	0.966548	0.333162
H157	H	1.103014	0.327400	-0.089548
H158	H	1.603014	0.827400	0.410452
F159	F	1.551046	-0.255226	-0.078110
F160	F	2.051046	0.244774	0.421890
H161	H	0.931160	-0.247952	0.577446
H162	H	1.431160	0.252048	1.077446
H163	H	1.561329	-0.103184	-0.147215
H164	H	2.061329	0.396816	0.352785
F165	F	0.934890	-0.268594	0.416606
F166	F	1.434890	0.231406	0.916606
H167	H	1.092297	-0.197002	0.422553
H168	H	1.592297	0.302998	0.922553
H169	H	0.905271	-0.012846	0.424078
H170	H	1.405271	0.487154	0.924078
F171	F	1.037326	0.039941	0.583116
F172	F	1.537326	0.539941	1.083116
