data_functionalizedCrystal
_audit_creation_method	'MofGen! by Chris Wilmer'
_symmetry_space_group_name_H-M	'P1'
_symmetry_Int_Tables_number	1
_symmetry_cell_setting	triclinic
loop_
_symmetry_equiv_pos_as_xyz
  x,y,z
_cell_length_a	21.295418
_cell_length_b	21.295417
_cell_length_c	21.295411
_cell_angle_alpha	90.027671
_cell_angle_beta	90.035622
_cell_angle_gamma	90.045515
loop_
_atom_site_label
_atom_site_type_symbol
_atom_site_fract_x
_atom_site_fract_y
_atom_site_fract_z
Zn1	Zn	0.962309	-0.250371	0.356238
Zn2	Zn	1.462309	0.249629	0.856238
Zn3	Zn	0.962228	-0.355636	0.250965
Zn4	Zn	1.462228	0.144364	0.750965
Zn5	Zn	0.857047	-0.250414	0.250948
Zn6	Zn	1.357047	0.249586	0.750948
Zn7	Zn	0.857003	-0.355636	0.356162
Zn8	Zn	1.357003	0.144364	0.856162
O9	O	0.909647	-0.303014	0.303578
O10	O	1.409647	0.196986	0.803578
O11	O	1.050388	-0.264317	0.342313
O12	O	1.550388	0.235683	0.842313
O13	O	0.948260	-0.341696	0.162874
O14	O	1.448260	0.158304	0.662874
O15	O	0.871063	-0.162319	0.264940
O16	O	1.371063	0.337681	0.764940
O17	O	1.050328	-0.341655	0.264969
O18	O	1.550328	0.158345	0.764969
O19	O	0.948398	-0.162287	0.342296
O20	O	1.448398	0.337713	0.842296
O21	O	0.870984	-0.264390	0.162861
O22	O	1.370984	0.235610	0.662861
O23	O	0.768952	-0.264389	0.264866
O24	O	1.268952	0.235611	0.764866
O25	O	0.870988	-0.341654	0.444261
O26	O	1.370988	0.158346	0.944261
O27	O	0.768919	-0.341695	0.342166
O28	O	1.268919	0.158305	0.842166
O29	O	0.948355	-0.264317	0.444317
O30	O	1.448355	0.235683	0.944317
O31	O	0.948217	-0.443725	0.264895
O32	O	1.448217	0.056275	0.764895
O33	O	0.870909	-0.443725	0.342183
O34	O	1.370909	0.056275	0.842183
C35	C	0.746095	-0.303047	0.303506
C36	C	1.246095	0.196953	0.803506
C37	C	0.676127	-0.303077	0.303490
C38	C	1.176127	0.196923	0.803490
C39	C	0.643260	-0.343383	0.343680
C40	C	1.143260	0.156617	0.843680
C41	C	0.577517	-0.343368	0.343708
C42	C	1.077517	0.156632	0.843708
C43	C	0.544644	-0.303052	0.303535
C44	C	1.044644	0.196948	0.803535
C45	C	0.577519	-0.262738	0.263342
C46	C	1.077519	0.237262	0.763342
C47	C	0.643261	-0.262750	0.263320
C48	C	1.143261	0.237250	0.763320
N49	N	0.441376	-0.298132	0.248477
N50	N	0.941376	0.201868	0.748477
N51	N	0.378925	-0.298124	0.248501
N52	N	0.878925	0.201876	0.748501
C53	C	0.346570	-0.303012	0.303602
C54	C	0.846570	0.196988	0.803602
N55	N	0.379025	-0.307921	0.358680
N56	N	0.879025	0.192079	0.858680
N57	N	0.441483	-0.307932	0.358656
N58	N	0.941483	0.192068	0.858656
C59	C	0.473359	-0.303034	0.303556
C60	C	0.973359	0.196966	0.803556
C61	C	0.242417	-0.343304	0.343826
C62	C	0.742417	0.156696	0.843826
C63	C	0.176673	-0.343284	0.343855
C64	C	0.676673	0.156716	0.843855
C65	C	0.176677	-0.262658	0.263484
C66	C	0.676677	0.237342	0.763484
C67	C	0.242419	-0.262674	0.263460
C68	C	0.742419	0.237326	0.763460
C69	C	0.275285	-0.303001	0.303630
C70	C	0.775285	0.196999	0.803630
C71	C	0.909566	-0.466566	0.303547
C72	C	1.409566	0.033434	0.803547
C73	C	0.909590	-0.536534	0.303554
C74	C	1.409590	-0.036534	0.803554
C75	C	0.949835	-0.569327	0.343862
C76	C	1.449835	-0.069327	0.843862
C77	C	0.949857	-0.635070	0.343878
C78	C	1.449857	-0.135070	0.843878
C79	C	0.909641	-0.668016	0.303574
C80	C	1.409641	-0.168016	0.803574
C81	C	0.869387	-0.635215	0.263263
C82	C	1.369387	-0.135215	0.763263
C83	C	0.869362	-0.569474	0.263253
C84	C	1.369362	-0.069474	0.763253
N85	N	0.904889	-0.771277	0.248481
N86	N	1.404889	-0.271277	0.748481
N87	N	0.904917	-0.833728	0.248492
N88	N	1.404917	-0.333728	0.748492
C89	C	0.909714	-0.866091	0.303602
C90	C	1.409714	-0.366091	0.803602
N91	N	0.914495	-0.833643	0.358702
N92	N	1.414495	-0.333643	0.858702
N93	N	0.914470	-0.771186	0.358690
N94	N	1.414470	-0.271186	0.858690
C95	C	0.909664	-0.739302	0.303580
C96	C	1.409664	-0.239302	0.803580
C97	C	0.949986	-0.970170	0.343931
C98	C	1.449986	-0.470170	0.843931
C99	C	0.950004	-1.035914	0.343947
C100	C	1.450004	-0.535914	0.843947
C101	C	0.869537	-1.036058	0.263327
C102	C	1.369537	-0.536058	0.763327
C103	C	0.869516	-0.970315	0.263316
C104	C	1.369516	-0.470315	0.763316
C105	C	0.909744	-0.937375	0.303617
C106	C	1.409744	-0.437375	0.803617
C107	C	1.073837	-0.302981	0.303652
C108	C	1.573837	0.197019	0.803652
C109	C	1.143805	-0.302967	0.303683
C110	C	1.643805	0.197033	0.803683
C111	C	0.909676	-0.302981	0.467769
C112	C	1.409676	0.197019	0.967769
C113	C	0.909688	-0.302966	0.537737
C114	C	1.409688	0.197034	1.037737
C115	C	0.909744	-0.138824	0.303624
C116	C	1.409744	0.361176	0.803624
C117	C	0.909786	-0.068856	0.303644
C118	C	1.409786	0.431144	0.803644
C119	C	0.909654	-0.303002	0.140027
C120	C	1.409654	0.196998	0.640027
C121	C	0.909764	-0.302839	0.070059
C122	C	1.409764	0.197161	0.570059
C123	C	0.949996	-0.343089	1.037202
C124	C	1.449996	0.156911	1.537202
C125	C	0.949984	-0.343109	0.971460
C126	C	1.449984	0.156891	1.471460
C127	C	0.909747	-0.302868	0.938577
C128	C	1.409747	0.197132	1.438577
C129	C	0.869508	-0.262615	0.971441
C130	C	1.369508	0.237385	1.471441
C131	C	0.869516	-0.262601	1.037183
C132	C	1.369516	0.237399	1.537183
N133	N	0.904938	-0.247790	0.835369
N134	N	1.404938	0.252210	1.335369
N135	N	0.904934	-0.247806	0.772917
N136	N	1.404934	0.252194	1.272917
C137	C	0.909720	-0.302911	0.740502
C138	C	1.409720	0.197089	1.240502
N139	N	0.914522	-0.358001	0.772897
N140	N	1.414522	0.141999	1.272897
N141	N	0.914529	-0.357984	0.835354
N142	N	1.414529	0.142016	1.335354
C143	C	0.909734	-0.302880	0.867291
C144	C	1.409734	0.197120	1.367291
C145	C	0.949942	-0.343186	0.636359
C146	C	1.449942	0.156814	1.136359
C147	C	0.949926	-0.343207	0.570616
C148	C	1.449926	0.156793	1.070616
C149	C	0.869452	-0.262707	0.570598
C150	C	1.369452	0.237293	1.070598
C151	C	0.869465	-0.262692	0.636341
C152	C	1.369465	0.237308	1.136341
C153	C	0.909713	-0.302930	0.669217
C154	C	1.409713	0.197070	1.169217
H155	H	0.550750	-0.229912	0.230634
H156	H	1.050750	0.270088	0.730634
Br157	Br	1.004483	-0.679585	0.398582
Br158	Br	1.504483	-0.179585	0.898582
H159	H	0.982776	-1.062613	0.376774
H160	H	1.482776	-0.562613	0.876774
H161	H	0.836788	-1.062882	0.230515
H162	H	1.336788	-0.562882	0.730515
H163	H	0.836641	-0.662045	0.230448
H164	H	1.336641	-0.162045	0.730448
Br165	Br	0.814892	-0.925807	0.208610
Br166	Br	1.314892	-0.425807	0.708610
H167	H	0.149912	-0.229829	0.230777
H168	H	0.649912	0.270171	0.730777
Br169	Br	1.004611	-0.397704	1.081818
Br170	Br	1.504611	0.102296	1.581818
H171	H	0.836746	-0.229852	0.944664
H172	H	1.336746	0.270148	1.444664
Br173	Br	0.814737	-0.524966	0.208546
Br174	Br	1.314737	-0.024966	0.708546
Br175	Br	0.287025	-0.398029	0.398344
Br176	Br	0.787025	0.101971	0.898344
H177	H	0.836753	-0.229823	1.063934
H178	H	1.336753	0.270177	1.563934
H179	H	0.550752	-0.376190	0.376438
H180	H	1.050752	0.123810	0.876438
Br181	Br	1.004578	-0.925462	0.398625
Br182	Br	1.504578	-0.425462	0.898625
H183	H	0.982755	-0.375879	0.944703
H184	H	1.482755	0.124121	1.444703
Br185	Br	0.687861	-0.398110	0.398198
Br186	Br	1.187861	0.101890	0.898198
H187	H	0.149914	-0.376105	0.376587
H188	H	0.649914	0.123895	0.876587
H189	H	0.982713	-0.375952	0.663129
H190	H	1.482713	0.124048	1.163129
Br191	Br	1.004426	-0.524625	0.398559
Br192	Br	1.504426	-0.024625	0.898559
H193	H	0.836689	-0.229944	0.543825
H194	H	1.336689	0.270056	1.043825
Br195	Br	1.004527	-0.397842	0.526023
Br196	Br	1.504527	0.102158	1.026023
Br197	Br	0.687869	-0.208043	0.208773
Br198	Br	1.187869	0.291957	0.708773
Br199	Br	0.287028	-0.207969	0.208913
Br200	Br	0.787028	0.292031	0.708913
H201	H	0.836706	-0.229913	0.663093
H202	H	1.336706	0.270087	1.163093
