data_functionalizedCrystal
_audit_creation_method	'MofGen! by Chris Wilmer'
_symmetry_space_group_name_H-M	'P1'
_symmetry_Int_Tables_number	1
_symmetry_cell_setting	triclinic
loop_
_symmetry_equiv_pos_as_xyz
  x,y,z
_cell_length_a	19.288864
_cell_length_b	10.967829
_cell_length_c	18.366186
_cell_angle_alpha	77.865925
_cell_angle_beta	89.977106
_cell_angle_gamma	83.937959
loop_
_atom_site_label
_atom_site_type_symbol
_atom_site_fract_x
_atom_site_fract_y
_atom_site_fract_z
O1	O	0.922368	0.155662	-0.080313
O2	O	1.422368	0.655662	0.419687
O3	O	0.720245	0.176660	-0.082898
O4	O	1.220245	0.676660	0.417102
O5	O	0.825966	-0.015517	-0.058808
O6	O	1.325966	0.484483	0.441192
O7	O	0.816647	0.347838	-0.104403
O8	O	1.316647	0.847838	0.395597
O9	O	0.825947	-0.015526	0.062292
O10	O	1.325947	0.484474	0.562292
O11	O	0.720226	0.176651	0.038203
O12	O	1.220226	0.676651	0.538203
O13	O	0.922350	0.155652	0.040787
O14	O	1.422350	0.655652	0.540787
Zn15	Zn	0.821285	0.166150	0.058722
Zn16	Zn	1.321285	0.666150	0.558722
Zn17	Zn	0.821309	0.166162	-0.100833
Zn18	Zn	1.321309	0.666162	0.399167
O19	O	0.816629	0.347829	0.016697
O20	O	1.316629	0.847829	0.516697
C21	C	0.694355	0.175980	-0.022257
C22	C	1.194355	0.675980	0.477743
C23	C	0.617238	0.173951	-0.021983
C24	C	1.117238	0.673951	0.478017
C25	C	0.573277	0.286712	-0.036144
C26	C	1.073277	0.786712	0.463856
C27	C	0.500818	0.284807	-0.035913
C28	C	1.000818	0.784807	0.464087
C29	C	0.472322	0.170134	-0.021535
C30	C	0.972322	0.670134	0.478465
C31	C	0.516292	0.057359	-0.007368
C32	C	1.016292	0.557359	0.492632
C33	C	0.588750	0.059267	-0.007592
C34	C	1.088750	0.559267	0.492408
C35	C	0.363478	0.079992	-0.052674
C36	C	0.863478	0.579992	0.447326
C37	C	0.291021	0.078088	-0.052455
C38	C	0.791021	0.578088	0.447545
C39	C	0.248838	0.164242	-0.020839
C40	C	0.748838	0.664242	0.479161
C41	C	0.279119	0.252322	0.010545
C42	C	0.779119	0.752322	0.510545
C43	C	0.351577	0.254230	0.010321
C44	C	0.851577	0.754230	0.510321
C45	C	0.393754	0.168052	-0.021290
C46	C	0.893754	0.668052	0.478710
C47	C	0.126308	0.274945	-0.034750
C48	C	0.626308	0.774945	0.465250
C49	C	0.053847	0.273034	-0.034514
C50	C	0.553847	0.773034	0.465486
C51	C	0.069324	0.045583	-0.005975
C52	C	0.569324	0.545583	0.494025
C53	C	0.141783	0.047497	-0.006205
C54	C	0.641783	0.547497	0.493795
C55	C	0.170270	0.162181	-0.020596
C56	C	0.670270	0.662181	0.479404
C57	C	0.825277	-0.062008	0.007574
C58	C	1.325277	0.437992	0.507574
C59	C	0.823244	-0.200522	0.024952
C60	C	1.323244	0.299478	0.524952
C61	C	0.822348	-0.262265	-0.030034
C62	C	1.322348	0.237735	0.469966
C63	C	0.820247	-0.405426	-0.012075
C64	C	1.320247	0.094574	0.487925
C65	C	0.948240	0.156333	-0.019856
C66	C	1.448240	0.656333	0.480144
C67	C	1.025357	0.158361	-0.020134
C68	C	1.525357	0.658361	0.479866
C69	C	0.817318	0.394320	-0.049687
C70	C	1.317318	0.894320	0.450313
C71	C	0.819350	0.532834	-0.067069
C72	C	1.319350	1.032834	0.432931
N73	N	0.821274	0.166141	0.167615
N74	N	1.321274	0.666141	0.667615
N75	N	0.821326	0.166162	-0.209724
N76	N	1.321326	0.666162	0.290276
C77	C	0.868103	0.081087	0.216377
C78	C	1.368103	0.581087	0.716377
C79	C	0.868107	0.081081	0.292605
C80	C	1.368107	0.581081	0.792605
C81	C	0.821290	0.166151	0.320066
C82	C	1.321290	0.666151	0.820066
C83	C	0.774452	0.251212	0.271294
C84	C	1.274452	0.751212	0.771294
C85	C	0.774444	0.251206	0.195068
C86	C	1.274444	0.751206	0.695068
C87	C	0.812733	0.279846	0.426561
C88	C	1.312733	0.779846	0.926561
C89	C	0.812746	0.279852	0.502785
C90	C	1.312746	0.779852	1.002785
C91	C	0.821309	0.166167	0.555172
C92	C	1.321309	0.666167	1.055172
C93	C	0.829875	0.052469	0.531325
C94	C	1.329875	0.552469	1.031325
C95	C	0.829868	0.052464	0.455100
C96	C	1.329868	0.552464	0.955100
C97	C	0.821292	0.166166	0.402719
C98	C	1.321292	0.666166	0.902719
C99	C	0.868146	0.081099	0.686590
C100	C	1.368146	0.581099	1.186590
C101	C	0.868145	0.081092	0.762820
C102	C	1.368145	0.581092	1.262820
C103	C	0.774493	0.251234	0.741506
C104	C	1.274493	0.751234	1.241506
C105	C	0.774490	0.251230	0.665279
C106	C	1.274490	0.751230	1.165279
C107	C	0.821320	0.166164	0.637825
C108	C	1.321320	0.666164	1.137825
H109	H	0.177577	-0.044325	0.005323
H110	H	0.677577	0.455675	0.505323
H111	H	0.823132	-0.209138	-0.090407
H112	H	1.323132	0.290862	0.409593
H113	H	0.376229	0.325944	0.035878
H114	H	0.876229	0.825944	0.535878
Br115	Br	0.841507	-0.101830	0.602412
Br116	Br	1.341507	0.398170	1.102412
Br117	Br	0.710885	0.366645	0.128885
Br118	Br	1.210885	0.866645	0.628885
H119	H	0.397819	0.009832	-0.078424
H120	H	0.897819	0.509832	0.421576
Br121	Br	0.818926	-0.493953	0.088557
Br122	Br	1.318926	0.006047	0.588557
Br123	Br	0.221879	0.369258	0.053453
Br124	Br	0.721879	0.869258	0.553453
H125	H	0.820130	-0.414044	-0.127446
H126	H	1.320130	0.085956	0.372554
H127	H	0.149504	0.368327	-0.046457
H128	H	0.649504	0.868327	0.453543
H129	H	0.018055	0.364861	-0.046042
H130	H	0.518055	0.864861	0.453958
H131	H	0.266372	0.006374	-0.078014
H132	H	0.766372	0.506374	0.421986
Br133	Br	0.801129	0.434153	0.535141
Br134	Br	1.301129	0.934153	1.035141
Br135	Br	0.030659	-0.110047	0.013551
Br136	Br	0.530659	0.389953	0.513551
Br137	Br	0.477622	-0.098270	0.012153
Br138	Br	0.977622	0.401730	0.512153
H139	H	0.805747	0.372428	0.383912
H140	H	1.305747	0.872428	0.883912
Br141	Br	0.821924	-0.289054	0.125581
Br142	Br	1.321924	0.210946	0.625581
H143	H	0.624544	-0.032559	0.003940
H144	H	1.124544	0.467441	0.503940
H145	H	0.906233	0.011818	0.194027
H146	H	1.406233	0.511818	0.694027
Br147	Br	0.710946	0.366674	0.778769
Br148	Br	1.210946	0.866674	1.278769
H149	H	0.906242	0.011817	0.332315
H150	H	1.406242	0.511817	0.832315
Br151	Br	0.841485	-0.101831	0.422737
Br152	Br	1.341485	0.398169	0.922737
Br153	Br	0.931697	-0.034350	0.649330
Br154	Br	1.431697	0.465650	1.149330
Br155	Br	0.931698	-0.034358	0.829005
Br156	Br	1.431698	0.465642	1.329005
Br157	Br	0.710936	0.366670	0.599094
Br158	Br	1.210936	0.866670	1.099094
Br159	Br	0.710907	0.366657	0.308560
Br160	Br	1.210907	0.866657	0.808560
H161	H	0.596467	0.380097	-0.047864
H162	H	1.096467	0.880097	0.452136
H163	H	0.465018	0.376633	-0.047443
H164	H	0.965018	0.876633	0.452557
