data_functionalizedCrystal
_audit_creation_method	'MofGen! by Chris Wilmer'
_symmetry_space_group_name_H-M	'P1'
_symmetry_Int_Tables_number	1
_symmetry_cell_setting	triclinic
loop_
_symmetry_equiv_pos_as_xyz
  x,y,z
_cell_length_a	19.288864
_cell_length_b	9.616153
_cell_length_c	19.288865
_cell_angle_alpha	90.011727
_cell_angle_beta	83.136245
_cell_angle_gamma	90.016071
loop_
_atom_site_label
_atom_site_type_symbol
_atom_site_fract_x
_atom_site_fract_y
_atom_site_fract_z
O1	O	0.921346	0.116107	0.086650
O2	O	0.719085	0.116014	0.098338
O3	O	0.826060	0.116036	-0.008636
O4	O	0.814371	0.116086	0.193624
O5	O	0.826056	-0.115255	-0.008644
O6	O	0.719081	-0.115277	0.098331
O7	O	0.921342	-0.115184	0.086642
Zn8	Zn	0.820211	-0.151953	0.092486
Zn9	Zn	0.820216	0.152783	0.092495
O10	O	0.814367	-0.115206	0.193617
C11	C	0.693207	0.000356	0.097959
C12	C	0.616103	0.000320	0.096830
N13	N	0.820212	-0.359928	0.092478
C14	C	0.571407	0.000357	0.159598
C15	C	0.498960	0.000372	0.158537
C16	C	0.471212	0.000378	0.094705
C17	C	0.515918	0.000333	0.031929
C18	C	0.588364	0.000304	0.032991
C19	C	0.362952	0.081444	0.044528
C20	C	0.290507	0.081482	0.043468
C21	C	0.247767	0.000461	0.091425
C22	C	0.277478	-0.080579	0.140454
C23	C	0.349923	-0.080608	0.141516
C24	C	0.392658	0.000409	0.093546
C25	C	0.124514	0.000513	0.153047
C26	C	0.052066	0.000519	0.151984
C27	C	0.069026	0.000494	0.025374
C28	C	0.141473	0.000474	0.026439
C29	C	0.169212	0.000490	0.090278
C30	C	0.877645	-0.580242	0.035447
C31	C	0.877495	-0.419075	0.035233
C32	C	0.747795	-0.418497	0.076876
C33	C	0.748137	-0.579715	0.076477
C34	C	0.834558	-0.579775	0.165318
C35	C	0.836202	-0.418546	0.164820
C36	C	0.947220	0.000477	0.087022
C37	C	1.024324	0.000523	0.088151
C38	C	0.825682	0.000386	-0.034516
C39	C	0.824553	0.000373	-0.111620
N40	N	0.820220	0.360758	0.092497
C41	C	0.887321	0.000395	-0.156316
C42	C	0.886260	0.000417	-0.228763
C43	C	0.822428	0.000388	-0.256511
C44	C	0.759652	0.000374	-0.211805
C45	C	0.760714	0.000367	-0.139359
C46	C	0.772247	-0.080651	-0.364801
C47	C	0.771187	-0.080652	-0.437245
C48	C	0.819148	0.000418	-0.479956
C49	C	0.868181	0.081471	-0.450216
C50	C	0.869243	0.081464	-0.377770
C51	C	0.821269	0.000397	-0.335065
C52	C	0.880770	0.000465	-0.603209
C53	C	0.879707	0.000495	-0.675657
C54	C	0.753097	0.000439	-0.658697
C55	C	0.754162	0.000423	-0.586250
C56	C	0.818000	0.000429	-0.558511
C57	C	0.814745	0.000447	0.219497
C58	C	0.815874	0.000469	0.296601
H59	H	0.593987	0.000373	0.211580
H60	H	0.735466	-0.617353	0.023376
Cl61	Cl	0.709549	-0.182551	-0.474627
Cl62	Cl	0.481037	0.000332	-0.048318
Cl63	Cl	0.680199	-0.639985	0.138205
Cl64	Cl	0.675249	0.000389	-0.530057
Cl65	Cl	0.223755	-0.182440	0.200747
H66	H	0.701123	0.000423	-0.681288
H67	H	0.704042	-0.380188	0.117329
H68	H	0.909166	0.147462	-0.353558
Cl69	Cl	0.958623	0.000532	-0.731848
Cl70	Cl	0.711948	-0.182582	-0.311114
Cl71	Cl	0.644557	0.000258	-0.045924
Cl72	Cl	0.679405	0.000350	-0.246686
Cl73	Cl	0.960614	-0.357925	0.049536
Cl74	Cl	0.442760	0.000416	0.237451
Cl75	Cl	0.387273	-0.182488	0.203145
Cl76	Cl	0.416676	0.183308	-0.015767
H77	H	0.709599	0.000348	-0.102967
H78	H	0.734805	-0.378154	0.024379
H79	H	0.931666	-0.618975	0.044553
Cl80	Cl	0.914331	-0.642471	0.188556
Cl81	Cl	0.863747	-0.642833	-0.047526
Cl82	Cl	0.159390	0.000519	0.233300
H83	H	0.015674	0.000542	0.203099
H84	H	0.046435	0.000585	-0.026600
H85	H	0.797068	-0.378279	0.209243
H86	H	0.266322	0.147475	0.003549
Cl87	Cl	0.197666	0.000435	-0.052474
Cl88	Cl	0.863376	-0.359570	-0.048210
Cl89	Cl	0.918445	-0.359425	0.183116
Cl90	Cl	0.769902	-0.638692	0.230861
Cl91	Cl	0.967575	0.000443	-0.121448
H92	H	0.937375	0.000440	-0.265162
H93	H	0.907235	0.147487	-0.484990
Cl94	Cl	0.961023	0.000466	-0.568333
