data_functionalizedCrystal
_audit_creation_method	'MofGen! by Chris Wilmer'
_symmetry_space_group_name_H-M	'P1'
_symmetry_Int_Tables_number	1
_symmetry_cell_setting	triclinic
loop_
_symmetry_equiv_pos_as_xyz
  x,y,z
_cell_length_a	13.339071
_cell_length_b	13.262975
_cell_length_c	15.455313
_cell_angle_alpha	108.568794
_cell_angle_beta	86.594736
_cell_angle_gamma	99.433523
loop_
_atom_site_label
_atom_site_type_symbol
_atom_site_fract_x
_atom_site_fract_y
_atom_site_fract_z
O1	O	1.341292	0.529207	0.052674
O2	O	1.047481	0.459307	0.036189
O3	O	1.203998	0.341993	0.008523
O4	O	1.184774	0.646521	0.080340
O5	O	1.195048	0.348663	0.154358
O6	O	1.038531	0.465977	0.182024
O7	O	1.332342	0.535877	0.198509
Cu8	Cu	1.184619	0.501536	0.203583
Cu9	Cu	1.195203	0.493648	0.031116
O10	O	1.175824	0.653191	0.226175
C11	C	1.005438	0.450834	0.106322
C12	C	0.893497	0.415639	0.098021
C13	C	0.853924	0.305885	0.072141
C14	C	0.748750	0.272814	0.064338
C15	C	0.683139	0.349494	0.082420
C16	C	0.722712	0.459250	0.108307
C17	C	0.827896	0.492325	0.116105
C18	C	0.657111	0.535933	0.126383
C19	C	0.696684	0.645690	0.152270
C20	C	0.801858	0.678758	0.160067
C21	C	0.867469	0.602079	0.141985
C22	C	0.551927	0.502859	0.118586
C23	C	0.525899	0.689298	0.162549
C24	C	0.631073	0.722369	0.170353
C25	C	1.199265	0.305555	0.072059
C26	C	1.198485	0.187042	0.044105
C27	C	1.203010	0.127757	-0.048529
C28	C	1.202290	0.016409	-0.074813
C29	C	1.197052	-0.035663	-0.008466
C30	C	1.192534	0.023623	0.084170
C31	C	1.193247	0.134981	0.110457
C32	C	1.187289	-0.028440	0.150520
C33	C	1.182771	0.030847	0.243156
C34	C	1.183484	0.142194	0.269438
C35	C	1.188722	0.194266	0.203091
C36	C	1.186576	-0.139797	0.124234
C37	C	1.176813	-0.132574	0.283219
C38	C	1.177533	-0.021226	0.309504
C39	C	1.374385	0.544349	0.128374
C40	C	1.486326	0.579544	0.136669
C41	C	1.180557	0.689628	0.162637
C42	C	1.181338	0.808141	0.190585
N43	N	1.177182	0.507086	0.324887
N44	N	1.202649	0.488092	-0.090190
C45	C	1.243699	0.457279	0.358535
C46	C	1.238083	0.461488	0.450336
C47	C	1.165956	0.515512	0.508488
C48	C	1.099432	0.565320	0.474834
C49	C	1.105043	0.561103	0.383033
C50	C	1.141736	0.533683	0.784355
C51	C	1.136132	0.537899	0.876162
C52	C	1.274783	0.434066	0.851657
C53	C	1.280392	0.429859	0.759857
C54	C	1.213865	0.479662	0.726209
N55	N	1.160216	0.519819	0.602324
N56	N	1.219600	0.475348	0.632373
H57	H	1.190252	-0.188058	0.048809
H58	H	0.472478	0.751738	0.177273
O59	O	0.924686	0.223188	0.052633
H60	H	0.907093	0.174855	0.100031
O61	O	1.309848	0.407786	0.486625
H62	H	1.298950	0.320363	0.448582
O63	O	0.980908	0.637756	0.150423
H64	H	1.019878	0.565994	0.133507
O65	O	1.358203	0.371607	0.697146
H66	H	1.350941	0.377059	0.627662
O67	O	0.844546	0.797136	0.187994
H68	H	0.781256	0.844903	0.199270
H69	H	1.172544	-0.174971	0.337245
H70	H	1.196465	-0.126328	-0.029872
H71	H	1.302437	0.413293	0.311194
H72	H	0.663308	0.811735	0.191430
H73	H	1.328945	0.393517	0.879061
H74	H	1.077394	0.581895	0.923507
H75	H	1.205971	-0.031854	-0.150237
H76	H	0.597503	0.322560	0.076065
O77	O	1.208651	0.183915	-0.120084
H78	H	1.208390	0.271304	-0.086240
O79	O	1.189805	0.314407	0.231310
H80	H	1.123418	0.331560	0.201362
H81	H	1.087569	0.574238	0.756967
O82	O	1.178616	0.206145	0.369351
H83	H	1.174867	0.151236	0.411073
O84	O	1.172660	0.042721	0.409417
H85	H	1.103953	0.082766	0.422636
O86	O	1.021638	0.623596	0.537550
H87	H	1.028918	0.618173	0.607042
O88	O	1.033303	0.614815	0.346724
H89	H	1.044222	0.702245	0.384745
O90	O	0.509252	0.384487	0.090683
H91	H	0.539334	0.343408	0.022203
H92	H	0.716539	0.183450	0.043260
