data_functionalizedCrystal
_audit_creation_method	'MofGen! by Chris Wilmer'
_symmetry_space_group_name_H-M	'P1'
_symmetry_Int_Tables_number	1
_symmetry_cell_setting	triclinic
loop_
_symmetry_equiv_pos_as_xyz
  x,y,z
_cell_length_a	18.215407
_cell_length_b	18.215405
_cell_length_c	18.215399
_cell_angle_alpha	90.030970
_cell_angle_beta	90.019350
_cell_angle_gamma	90.025333
loop_
_atom_site_label
_atom_site_type_symbol
_atom_site_fract_x
_atom_site_fract_y
_atom_site_fract_z
Zn1	Zn	1.125068	-0.292980	0.416103
Zn2	Zn	1.375068	-0.042980	0.666103
Zn3	Zn	1.625068	0.207020	0.916103
Zn4	Zn	1.875068	0.457020	1.166103
Zn5	Zn	1.124978	-0.416052	0.293031
Zn6	Zn	1.374978	-0.166052	0.543031
Zn7	Zn	1.624978	0.083948	0.793031
Zn8	Zn	1.874978	0.333948	1.043031
Zn9	Zn	1.002002	-0.293005	0.293050
Zn10	Zn	1.252002	-0.043005	0.543050
Zn11	Zn	1.502002	0.206995	0.793050
Zn12	Zn	1.752002	0.456995	1.043050
Zn13	Zn	1.001967	-0.416010	0.416056
Zn14	Zn	1.251967	-0.166010	0.666056
Zn15	Zn	1.501967	0.083990	0.916056
Zn16	Zn	1.751967	0.333990	1.166056
O17	O	1.063504	-0.354512	0.354560
O18	O	1.313504	-0.104512	0.604560
O19	O	1.563504	0.145488	0.854560
O20	O	1.813504	0.395488	1.104560
O21	O	1.228041	-0.309313	0.399788
O22	O	1.478041	-0.059313	0.649788
O23	O	1.728041	0.190687	0.899788
O24	O	1.978041	0.440687	1.149788
O25	O	1.108642	-0.399758	0.190049
O26	O	1.358642	-0.149758	0.440049
O27	O	1.608642	0.100242	0.690049
O28	O	1.858642	0.350242	0.940049
O29	O	1.018380	-0.190017	0.309401
O30	O	1.268380	0.059983	0.559401
O31	O	1.518380	0.309983	0.809401
O32	O	1.768380	0.559983	1.059401
O33	O	1.227974	-0.399733	0.309368
O34	O	1.477974	-0.149733	0.559368
O35	O	1.727974	0.100267	0.809368
O36	O	1.977974	0.350267	1.059368
O37	O	1.108796	-0.189999	0.399807
O38	O	1.358796	0.060001	0.649807
O39	O	1.608796	0.310001	0.899807
O40	O	1.858796	0.560001	1.149807
O41	O	1.018292	-0.309355	0.190063
O42	O	1.268292	-0.059355	0.440063
O43	O	1.518292	0.190645	0.690063
O44	O	1.768292	0.440645	0.940063
O45	O	0.899013	-0.309315	0.309355
O46	O	1.149013	-0.059315	0.559355
O47	O	1.399013	0.190685	0.809355
O48	O	1.649013	0.440685	1.059355
O49	O	1.018320	-0.399662	0.519046
O50	O	1.268320	-0.149662	0.769046
O51	O	1.518320	0.100338	1.019046
O52	O	1.768320	0.350338	1.269046
O53	O	0.898987	-0.399686	0.399727
O54	O	1.148987	-0.149686	0.649727
O55	O	1.398987	0.100314	0.899727
O56	O	1.648987	0.350314	1.149727
O57	O	1.108762	-0.309272	0.519081
O58	O	1.358762	-0.059272	0.769081
O59	O	1.608762	0.190728	1.019081
O60	O	1.858762	0.440728	1.269081
O61	O	1.108608	-0.519031	0.309322
O62	O	1.358608	-0.269031	0.559322
O63	O	1.608608	-0.019031	0.809322
O64	O	1.858608	0.230969	1.059322
O65	O	1.018232	-0.519000	0.399708
O66	O	1.268232	-0.269000	0.649708
O67	O	1.518232	-0.019000	0.899708
O68	O	1.768232	0.231000	1.149708
C69	C	0.872298	-0.354499	0.354539
C70	C	1.122298	-0.104499	0.604539
C71	C	1.372298	0.145501	0.854539
C72	C	1.622298	0.395501	1.104539
C73	C	0.790499	-0.354512	0.354547
C74	C	1.040499	-0.104512	0.604547
C75	C	1.290499	0.145488	0.854547
C76	C	1.540499	0.395488	1.104547
C77	C	0.602311	-0.401642	0.401544
C78	C	0.852311	-0.151642	0.651544
C79	C	1.102311	0.098358	0.901544
C80	C	1.352311	0.348358	1.151544
C81	C	0.525452	-0.401644	0.401554
C82	C	0.775452	-0.151644	0.651554
C83	C	1.025452	0.098356	0.901554
C84	C	1.275452	0.348356	1.151554
C85	C	0.525449	-0.307395	0.307591
C86	C	0.775449	-0.057395	0.557591
C87	C	1.025449	0.192605	0.807591
C88	C	1.275449	0.442605	1.057591
C89	C	0.602306	-0.307390	0.307586
C90	C	0.852306	-0.057390	0.557586
C91	C	1.102306	0.192610	0.807586
C92	C	1.352306	0.442610	1.057586
C93	C	0.640735	-0.354517	0.354562
C94	C	0.890735	-0.104517	0.604562
C95	C	1.140735	0.145483	0.854562
C96	C	1.390735	0.395483	1.104562
C97	C	0.487019	-0.354525	0.354576
C98	C	0.737019	-0.104525	0.604576
C99	C	0.987019	0.145475	0.854576
C100	C	1.237019	0.395475	1.104576
C101	C	0.403685	-0.354527	0.354585
C102	C	0.653685	-0.104527	0.604585
C103	C	0.903685	0.145473	0.854585
C104	C	1.153685	0.395473	1.104585
C105	C	0.724074	-0.354514	0.354553
C106	C	0.974074	-0.104514	0.604553
C107	C	1.224074	0.145486	0.854553
C108	C	1.474074	0.395486	1.104553
C109	C	1.063426	-0.545718	0.354524
C110	C	1.313426	-0.295718	0.604524
C111	C	1.563426	-0.045718	0.854524
C112	C	1.813426	0.204282	1.104524
C113	C	1.063460	-0.627517	0.354534
C114	C	1.313460	-0.377517	0.604534
C115	C	1.563460	-0.127517	0.854534
C116	C	1.813460	0.122483	1.104534
C117	C	1.110629	-0.815702	0.307556
C118	C	1.360629	-0.565702	0.557556
C119	C	1.610629	-0.315702	0.807556
C120	C	1.860629	-0.065702	1.057556
C121	C	1.110662	-0.892561	0.307574
C122	C	1.360662	-0.642561	0.557574
C123	C	1.610662	-0.392561	0.807574
C124	C	1.860662	-0.142561	1.057574
C125	C	1.016473	-0.892569	0.401616
C126	C	1.266473	-0.642569	0.651616
C127	C	1.516473	-0.392569	0.901616
C128	C	1.766473	-0.142569	1.151616
C129	C	1.016444	-0.815712	0.401601
C130	C	1.266444	-0.565712	0.651601
C131	C	1.516444	-0.315712	0.901601
C132	C	1.766444	-0.065712	1.151601
C133	C	1.063521	-0.777280	0.354567
C134	C	1.313521	-0.527280	0.604567
C135	C	1.563521	-0.277280	0.854567
C136	C	1.813521	-0.027280	1.104567
C137	C	1.063583	-0.930997	0.354600
C138	C	1.313583	-0.680997	0.604600
C139	C	1.563583	-0.430997	0.854600
C140	C	1.813583	-0.180997	1.104600
C141	C	1.063618	-1.014330	0.354619
C142	C	1.313618	-0.764330	0.604619
C143	C	1.563618	-0.514330	0.854619
C144	C	1.813618	-0.264330	1.104619
C145	C	1.063487	-0.693942	0.354548
C146	C	1.313487	-0.443942	0.604548
C147	C	1.563487	-0.193942	0.854548
C148	C	1.813487	0.056058	1.104548
C149	C	1.255457	-0.354525	0.354581
C150	C	1.505457	-0.104525	0.604581
C151	C	1.755457	0.145475	0.854581
C152	C	2.005457	0.395475	1.104581
C153	C	1.337256	-0.354531	0.354591
C154	C	1.587256	-0.104531	0.604591
C155	C	1.837256	0.145469	0.854591
C156	C	2.087256	0.395469	1.104591
C157	C	1.063547	-0.354460	0.546513
C158	C	1.313547	-0.104460	0.796513
C159	C	1.563547	0.145540	1.046513
C160	C	1.813547	0.395540	1.296513
C161	C	1.063565	-0.354437	0.628312
C162	C	1.313565	-0.104437	0.878312
C163	C	1.563565	0.145563	1.128312
C164	C	1.813565	0.395563	1.378312
C165	C	1.063602	-0.162559	0.354611
C166	C	1.313602	0.087441	0.604611
C167	C	1.563602	0.337441	0.854611
C168	C	1.813602	0.587441	1.104611
C169	C	1.063644	-0.080760	0.354633
C170	C	1.313644	0.169240	0.604633
C171	C	1.563644	0.419240	0.854633
C172	C	1.813644	0.669240	1.104633
C173	C	1.063503	-0.354511	0.163353
C174	C	1.313503	-0.104511	0.413353
C175	C	1.563503	0.145489	0.663353
C176	C	1.813503	0.395489	0.913353
C177	C	1.063627	-0.354326	0.081555
C178	C	1.313627	-0.104326	0.331555
C179	C	1.563627	0.145674	0.581555
C180	C	1.813627	0.395674	0.831555
C181	C	1.110686	-0.307308	0.893389
C182	C	1.360686	-0.057308	1.143389
C183	C	1.610686	0.192692	1.393389
C184	C	1.860686	0.442692	1.643389
C185	C	1.110677	-0.307328	0.816530
C186	C	1.360677	-0.057328	1.066530
C187	C	1.610677	0.192672	1.316530
C188	C	1.860677	0.442672	1.566530
C189	C	1.016505	-0.401460	0.816483
C190	C	1.266505	-0.151460	1.066483
C191	C	1.516505	0.098540	1.316483
C192	C	1.766505	0.348540	1.566483
C193	C	1.016518	-0.401444	0.893341
C194	C	1.266518	-0.151444	1.143341
C195	C	1.516518	0.098556	1.393341
C196	C	1.766518	0.348556	1.643341
C197	C	1.063607	-0.354363	0.931791
C198	C	1.313607	-0.104363	1.181791
C199	C	1.563607	0.145637	1.431791
C200	C	1.813607	0.395637	1.681791
C201	C	1.063586	-0.354400	0.778075
C202	C	1.313586	-0.104400	1.028075
C203	C	1.563586	0.145600	1.278075
C204	C	1.813586	0.395600	1.528075
C205	C	1.063576	-0.354422	0.694742
C206	C	1.313576	-0.104422	0.944742
C207	C	1.563576	0.145578	1.194742
C208	C	1.813576	0.395578	1.444742
C209	C	1.063618	-0.354342	1.015130
C210	C	1.313618	-0.104342	1.265130
C211	C	1.563618	0.145658	1.515130
C212	C	1.813618	0.395658	1.765130
H213	H	0.633593	-0.269010	0.269327
H214	H	0.883593	-0.019010	0.519327
H215	H	1.133593	0.230990	0.769327
H216	H	1.383593	0.480990	1.019327
N217	N	1.161475	-0.256529	0.934855
N218	N	1.411475	-0.006529	1.184855
N219	N	1.661475	0.243471	1.434855
N220	N	1.911475	0.493471	1.684855
H221	H	1.214050	-0.267962	0.921485
H222	H	1.464050	-0.017962	1.171485
H223	H	1.714050	0.232038	1.421485
H224	H	1.964050	0.482038	1.671485
H225	H	1.154280	-0.263675	0.989359
H226	H	1.404280	-0.013675	1.239359
H227	H	1.654280	0.236325	1.489359
H228	H	1.904280	0.486325	1.739359
N229	N	1.161406	-0.774250	0.256833
N230	N	1.411406	-0.524250	0.506833
N231	N	1.661406	-0.274250	0.756833
N232	N	1.911406	-0.024250	1.006833
H233	H	1.191255	-0.810256	0.227057
H234	H	1.441255	-0.560256	0.477057
H235	H	1.691255	-0.310256	0.727057
H236	H	1.941255	-0.060256	0.977057
H237	H	1.195431	-0.742312	0.286818
H238	H	1.445431	-0.492312	0.536818
H239	H	1.695431	-0.242312	0.786818
H240	H	1.945431	0.007688	1.036818
N241	N	0.643756	-0.452470	0.452211
N242	N	0.893756	-0.202470	0.702211
N243	N	1.143756	0.047530	0.952211
N244	N	1.393756	0.297530	1.202211
H245	H	0.630407	-0.441105	0.504814
H246	H	0.880407	-0.191105	0.754814
H247	H	1.130407	0.058895	1.004814
H248	H	1.380407	0.308895	1.254814
H249	H	0.698263	-0.445297	0.445017
H250	H	0.948263	-0.195297	0.695017
H251	H	1.198263	0.054703	0.945017
H252	H	1.448263	0.304703	1.195017
N253	N	1.161457	-0.256579	0.775109
N254	N	1.411457	-0.006579	1.025109
N255	N	1.661457	0.243421	1.275109
N256	N	1.911457	0.493421	1.525109
H257	H	1.191289	-0.226754	0.811132
H258	H	1.441289	0.023246	1.061132
H259	H	1.691289	0.273246	1.311132
H260	H	1.941289	0.523246	1.561132
H261	H	1.131512	-0.222529	0.743223
H262	H	1.381512	0.027471	0.993223
H263	H	1.631512	0.277471	1.243223
H264	H	1.881512	0.527471	1.493223
N265	N	0.965716	-0.452236	0.775012
N266	N	1.215716	-0.202236	1.025012
N267	N	1.465716	0.047764	1.275012
N268	N	1.715716	0.297764	1.525012
H269	H	0.972849	-0.445106	0.720495
H270	H	1.222849	-0.195106	0.970495
H271	H	1.472849	0.054894	1.220495
H272	H	1.722849	0.304894	1.470495
H273	H	0.913164	-0.440779	0.788442
H274	H	1.163164	-0.190779	1.038442
H275	H	1.413164	0.059221	1.288442
H276	H	1.663164	0.309221	1.538442
N277	N	0.965625	-0.774267	0.452303
N278	N	1.215625	-0.524267	0.702303
N279	N	1.465625	-0.274267	0.952303
N280	N	1.715625	-0.024267	1.202303
H281	H	0.972753	-0.719747	0.445157
H282	H	1.222753	-0.469747	0.695157
H283	H	1.472753	-0.219747	0.945157
H284	H	1.722753	0.030253	1.195157
H285	H	0.977049	-0.787652	0.504877
H286	H	1.227049	-0.537652	0.754877
H287	H	1.477049	-0.287652	1.004877
H288	H	1.727049	-0.037652	1.254877
H289	H	0.978143	-0.923869	0.439908
H290	H	1.228143	-0.673869	0.689908
H291	H	1.478143	-0.423869	0.939908
H292	H	1.728143	-0.173869	1.189908
N293	N	0.484007	-0.452475	0.452224
N294	N	0.734007	-0.202475	0.702224
N295	N	0.984007	0.047525	0.952224
N296	N	1.234007	0.297525	1.202224
H297	H	0.520016	-0.482328	0.481979
H298	H	0.770016	-0.232328	0.731979
H299	H	1.020016	0.017672	0.981979
H300	H	1.270016	0.267672	1.231979
H301	H	0.452094	-0.486494	0.422205
H302	H	0.702094	-0.236494	0.672205
H303	H	0.952094	0.013506	0.922205
H304	H	1.202094	0.263506	1.172205
N305	N	0.484001	-0.256586	0.256907
N306	N	0.734001	-0.006586	0.506907
N307	N	0.984001	0.243414	0.756907
N308	N	1.234001	0.493414	1.006907
H309	H	0.429481	-0.263747	0.264031
H310	H	0.679481	-0.013747	0.514031
H311	H	0.929481	0.236253	0.764031
H312	H	1.179481	0.486253	1.014031
H313	H	0.497422	-0.267993	0.204333
H314	H	0.747422	-0.017993	0.454333
H315	H	0.997422	0.232007	0.704333
H316	H	1.247422	0.482007	0.954333
N317	N	1.161473	-0.934003	0.256872
N318	N	1.411473	-0.684003	0.506872
N319	N	1.661473	-0.434003	0.756872
N320	N	1.911473	-0.184003	1.006872
H321	H	1.191290	-0.897992	0.227076
H322	H	1.441290	-0.647992	0.477076
H323	H	1.691290	-0.397992	0.727076
H324	H	1.941290	-0.147992	0.977076
H325	H	1.131550	-0.965943	0.222793
H326	H	1.381550	-0.715943	0.472793
H327	H	1.631550	-0.465943	0.722793
H328	H	1.881550	-0.215943	0.972793
H329	H	0.978180	-0.439766	0.924609
H330	H	1.228180	-0.189766	1.174609
H331	H	1.478180	0.060234	1.424609
H332	H	1.728180	0.310234	1.674609
