data_functionalizedCrystal
_audit_creation_method	'MofGen! by Chris Wilmer'
_symmetry_space_group_name_H-M	'P1'
_symmetry_Int_Tables_number	1
_symmetry_cell_setting	triclinic
loop_
_symmetry_equiv_pos_as_xyz
  x,y,z
_cell_length_a	14.971486
_cell_length_b	14.044220
_cell_length_c	13.448316
_cell_angle_alpha	89.992660
_cell_angle_beta	89.998199
_cell_angle_gamma	88.401503
loop_
_atom_site_label
_atom_site_type_symbol
_atom_site_fract_x
_atom_site_fract_y
_atom_site_fract_z
O1	O	1.196679	0.123538	-0.082579
O2	O	0.937445	0.138332	-0.082607
O3	O	1.063171	-0.007054	-0.082584
O4	O	1.070953	0.268924	-0.082602
O5	O	1.063153	-0.007063	0.082800
O6	O	0.937427	0.138323	0.082777
O7	O	1.196661	0.123529	0.082804
Cu8	Cu	1.067042	0.130925	0.097892
Cu9	Cu	1.067064	0.130936	-0.097694
O10	O	1.070935	0.268915	0.082781
C11	C	0.904059	0.137666	0.000082
C12	C	0.804606	0.135683	0.000072
C13	C	0.754109	0.221093	0.000067
C14	C	0.660662	0.219225	0.000082
C15	C	0.617714	0.131945	0.000094
C16	C	0.668218	0.046528	0.000102
C17	C	0.761663	0.048398	0.000094
C18	C	0.473449	0.042638	0.000116
C19	C	0.379997	0.040767	0.000122
C20	C	0.372448	0.213465	0.000104
C21	C	0.465893	0.215334	0.000096
C22	C	0.516390	0.129917	0.000102
C23	C	1.059755	-0.042377	0.000108
C24	C	1.049594	-0.147614	0.000108
C25	C	1.031018	-0.340297	0.000092
C26	C	1.103085	-0.397848	0.000097
C27	C	1.092748	-0.505063	0.000088
C28	C	1.041353	-0.233071	0.000101
C29	C	1.230047	0.124195	0.000114
C30	C	1.329501	0.126178	0.000117
C31	C	1.074351	0.304238	0.000087
C32	C	1.084512	0.409475	0.000080
N33	N	1.067034	0.130917	0.235456
N34	N	1.067079	0.130936	-0.235258
C35	C	1.122727	0.066567	0.287506
C36	C	1.122732	0.066566	0.391610
C37	C	1.067049	0.130921	0.443660
C38	C	1.011350	0.195274	0.391603
C39	C	1.011341	0.195270	0.287501
C40	C	1.011376	0.195281	0.608583
C41	C	1.011386	0.195287	0.712691
C42	C	1.122767	0.066577	0.712691
C43	C	1.122757	0.066572	0.608590
C44	C	1.067060	0.130927	0.556539
H45	H	0.514561	-0.026919	0.000122
H46	H	1.172546	-0.366598	0.000037
H47	H	0.961562	-0.371545	0.000082
C48	C	1.183983	-0.004231	0.230260
N49	N	1.230120	-0.057560	0.187145
H50	H	0.619551	0.288775	0.000077
C51	C	0.950089	0.266057	0.448862
N52	N	0.903946	0.319371	0.491989
H53	H	1.168080	0.014166	0.433989
C54	C	1.184012	-0.004221	0.551336
N55	N	1.230147	-0.057547	0.508212
C56	C	0.513134	0.311346	0.000087
N57	N	0.548716	0.383664	0.000085
C58	C	0.332757	-0.055245	0.000137
N59	N	0.297175	-0.127563	0.000148
H60	H	1.168118	0.014177	0.755077
H61	H	0.331329	0.283015	0.000104
C62	C	0.620972	-0.049481	0.000117
N63	N	0.585387	-0.121797	0.000125
C64	C	0.817209	-0.045560	0.000096
N65	N	0.859045	-0.116333	0.000100
C66	C	0.950126	0.266075	0.769945
N67	N	0.903983	0.319392	0.813069
C68	C	0.950082	0.266068	0.230246
N69	N	0.903941	0.319396	0.187123
H70	H	0.789070	0.292167	0.000056
H71	H	0.966017	0.247682	0.566206
