data_functionalizedCrystal
_audit_creation_method	'MofGen! by Chris Wilmer'
_symmetry_space_group_name_H-M	'P1'
_symmetry_Int_Tables_number	1
_symmetry_cell_setting	triclinic
loop_
_symmetry_equiv_pos_as_xyz
  x,y,z
_cell_length_a	27.732048
_cell_length_b	27.731996
_cell_length_c	10.868271
_cell_angle_alpha	89.988908
_cell_angle_beta	90.001179
_cell_angle_gamma	82.632022
loop_
_atom_site_label
_atom_site_type_symbol
_atom_site_fract_x
_atom_site_fract_y
_atom_site_fract_z
O1	O	0.640916	0.057519	-0.102179
O2	O	0.500121	0.066264	-0.102219
O3	O	0.574905	-0.008507	-0.102171
O4	O	0.566133	0.132290	-0.102227
O5	O	0.574899	-0.008510	0.102473
O6	O	0.500115	0.066262	0.102426
O7	O	0.640910	0.057516	0.102465
Zn8	Zn	0.570512	0.061888	0.134937
Zn9	Zn	0.570520	0.061892	-0.134691
O10	O	0.566127	0.132287	0.102418
C11	C	0.482111	0.066079	0.000099
C12	C	0.428456	0.065527	0.000085
C13	C	0.089634	0.106231	0.000122
C14	C	-0.112026	0.104180	0.000134
O15	O	-0.143288	0.141402	0.000172
N16	N	-0.131141	0.059844	0.000149
C17	C	-0.099838	0.016017	0.000170
O18	O	-0.120724	-0.021740	0.000196
C19	C	0.101820	0.018069	0.000167
C20	C	0.120933	0.062408	0.000139
C21	C	0.108747	0.150567	0.000096
C22	C	0.159159	0.151079	0.000086
C23	C	0.190457	0.107256	0.000103
C24	C	0.171344	0.062920	0.000129
C25	C	0.133122	-0.025757	0.000196
C26	C	0.183539	-0.025240	0.000198
C27	C	0.202652	0.019099	0.000171
C28	C	0.253055	0.019609	0.000136
N29	N	0.272171	0.063946	0.000121
C30	C	0.240872	0.107769	0.000104
C31	C	-0.205712	0.014943	0.000169
C32	C	-0.256126	0.014430	0.000167
C33	C	-0.268310	0.102594	0.000134
C34	C	-0.217895	0.103106	0.000127
C35	C	-0.186597	0.059280	0.000154
C36	C	0.346741	0.108842	0.000083
C37	C	0.397158	0.109350	0.000068
C38	C	0.409337	0.021187	0.000108
C39	C	0.358925	0.020678	0.000116
C40	C	0.327627	0.064510	0.000108
O41	O	0.284346	-0.017592	0.000112
O42	O	0.261767	0.145521	0.000106
C43	C	0.039222	0.105719	0.000132
C44	C	0.020109	0.061384	0.000158
C45	C	0.051408	0.017560	0.000175
C46	C	-0.030305	0.060871	0.000157
C47	C	-0.061604	0.104694	0.000140
C48	C	-0.042489	0.149030	0.000125
C49	C	0.007923	0.149543	0.000115
C50	C	0.032292	-0.026776	0.000190
C51	C	-0.018120	-0.027285	0.000199
C52	C	-0.049419	0.016539	0.000182
C53	C	0.574721	-0.026516	0.000155
C54	C	0.574179	-0.080172	0.000168
C55	C	0.570767	-0.412887	-0.111445
C56	C	0.568706	-0.614545	-0.111468
O57	O	0.568422	-0.640614	-0.206339
N58	N	0.568447	-0.639764	0.000083
C59	C	0.568700	-0.614564	0.111647
O60	O	0.568427	-0.640641	0.206527
C61	C	0.570757	-0.412906	0.111668
C62	C	0.571021	-0.387691	0.000110
C63	C	0.571031	-0.387671	-0.222994
C64	C	0.571549	-0.337260	-0.222988
C65	C	0.571803	-0.312064	-0.111432
C66	C	0.571539	-0.337280	0.000117
C67	C	0.571007	-0.387707	0.223231
C68	C	0.571520	-0.337290	0.223226
C69	C	0.571784	-0.312074	0.111668
C70	C	0.572311	-0.261673	0.111679
N71	N	0.572571	-0.236454	0.000129
C72	C	0.572316	-0.261650	-0.111427
C73	C	0.567620	-0.720438	0.111628
C74	C	0.567107	-0.770852	0.111624
C75	C	0.567112	-0.770829	-0.111492
C76	C	0.567629	-0.720414	-0.111486
C77	C	0.567880	-0.695219	0.000078
C78	C	0.573404	-0.155783	-0.111405
C79	C	0.573924	-0.105368	-0.111388
C80	C	0.573916	-0.105395	0.111727
C81	C	0.573399	-0.155806	0.111711
C82	C	0.573141	-0.180999	0.000135
O83	O	0.572591	-0.235572	0.206501
O84	O	0.572579	-0.235563	-0.206293
C85	C	0.570249	-0.463298	-0.111452
C86	C	0.569986	-0.488513	0.000097
C87	C	0.570240	-0.463318	0.111652
C88	C	0.569472	-0.538928	0.000092
C89	C	0.569218	-0.564123	-0.111464
C90	C	0.569477	-0.538905	-0.223014
C91	C	0.569995	-0.488494	-0.223008
C92	C	0.569981	-0.488536	0.223203
C93	C	0.569463	-0.538948	0.223187
C94	C	0.569209	-0.564143	0.111632
C95	C	0.658920	0.057701	0.000145
C96	C	0.712575	0.058254	0.000151
C97	C	0.566310	0.150296	0.000088
C98	C	0.566853	0.203952	0.000068
N99	N	0.570510	0.061885	0.318951
N100	N	0.570525	0.061891	-0.318705
C101	C	0.570517	0.061891	0.569957
C102	C	0.570511	0.061889	0.430280
H103	H	0.343363	-0.015426	0.000121
O104	O	0.570700	-0.412152	-0.331337
C105	C	0.528254	-0.463284	-0.460854
C106	C	0.528557	-0.435577	-0.338116
H107	H	0.494190	-0.482239	-0.466364
H108	H	0.528499	-0.436611	-0.540616
H109	H	0.561873	-0.491543	-0.466411
H110	H	0.494944	-0.407318	-0.332439
H111	H	0.528337	-0.462279	-0.258413
H112	H	-0.180232	-0.020747	0.000191
O113	O	0.439795	-0.021349	-0.000036
C114	C	0.503774	-0.071943	-0.106058
C115	C	0.469314	-0.023749	-0.106045
H116	H	0.527641	-0.073903	-0.191770
H117	H	0.527715	-0.073906	-0.020471
H118	H	0.481448	-0.103716	-0.105976
H119	H	0.491601	0.008052	-0.106170
H120	H	0.445371	-0.021827	-0.191625
H121	H	0.023479	0.185648	0.000094
O122	O	-0.072966	0.191557	0.000162
C123	C	-0.156038	0.229827	0.000088
C124	C	-0.121575	0.181634	0.000066
H125	H	-0.195346	0.221821	-0.000016
H126	H	-0.149168	0.251671	0.085743
H127	H	-0.149108	0.251669	-0.085544
H128	H	-0.128485	0.159753	0.085640
H129	H	-0.128453	0.159827	-0.085646
O130	O	0.567782	-0.695935	0.219979
C131	C	0.526487	-0.633226	0.349469
C132	C	0.526234	-0.660940	0.226731
H133	H	0.492904	-0.604920	0.354957
H134	H	0.526184	-0.659891	0.429231
H135	H	0.560585	-0.614328	0.355048
H136	H	0.492141	-0.679840	0.221032
H137	H	0.526562	-0.634253	0.147028
H138	H	0.569272	-0.559428	-0.313847
O139	O	0.566935	-0.795380	0.219955
C140	C	0.608212	-0.858124	0.349438
C141	C	0.608480	-0.830379	0.226721
H142	H	0.641792	-0.886434	0.354938
H143	H	0.608509	-0.831480	0.429220
H144	H	0.574111	-0.877020	0.354969
H145	H	0.642576	-0.811481	0.221070
H146	H	0.608158	-0.857046	0.146998
H147	H	0.570188	-0.468027	0.314047
H148	H	0.574125	-0.084871	0.202552
H149	H	0.570210	-0.467968	-0.313850
O150	O	0.415663	0.152455	-0.000122
C151	C	0.420681	0.227954	-0.106217
C152	C	0.399686	0.179162	-0.106142
H153	H	0.407780	0.249557	-0.191938
H154	H	0.407751	0.249623	-0.020639
H155	H	0.462089	0.220788	-0.106164
H156	H	0.358277	0.186285	-0.106238
H157	H	0.412654	0.157509	-0.191712
H158	H	-0.271683	-0.021675	0.000171
H159	H	0.574141	-0.084840	-0.202236
O160	O	0.569119	-0.563402	0.331601
C161	C	0.527062	-0.573003	0.522305
C162	C	0.527393	-0.545285	0.399562
H163	H	0.493335	-0.558360	0.577297
H164	H	0.526614	-0.613367	0.503239
H165	H	0.561016	-0.567783	0.577285
H166	H	0.493445	-0.550466	0.344520
H167	H	0.527866	-0.504932	0.418714
H168	H	-0.033676	-0.063394	0.000211
H169	H	0.567844	-0.699887	-0.202326
O170	O	0.316294	0.151387	-0.000098
C171	C	0.252329	0.201995	-0.106186
C172	C	0.286774	0.153791	-0.106109
H173	H	0.228460	0.203959	-0.191900
H174	H	0.228389	0.203972	-0.020601
H175	H	0.274667	0.233759	-0.106150
H176	H	0.264474	0.122000	-0.106188
H177	H	0.310715	0.151856	-0.191686
O178	O	0.566776	-0.795318	-0.219827
C179	C	0.524310	-0.846463	-0.349258
C180	C	0.524630	-0.818740	-0.226547
H181	H	0.490243	-0.865415	-0.354720
H182	H	0.524549	-0.819802	-0.429046
H183	H	0.557926	-0.874727	-0.354815
H184	H	0.491020	-0.790476	-0.220871
H185	H	0.524416	-0.845430	-0.146817
O186	O	-0.298670	0.145196	0.000287
C187	C	-0.324542	0.220368	0.106343
C188	C	-0.290122	0.172148	0.106296
H189	H	-0.317650	0.242168	0.192054
H190	H	-0.317636	0.242248	0.020755
H191	H	-0.363851	0.212367	0.106287
H192	H	-0.250800	0.180104	0.106395
H193	H	-0.297070	0.150283	0.191875
O194	O	0.177640	0.194194	0.000128
C195	C	0.160216	0.281584	0.000039
C196	C	0.139226	0.232789	0.000013
H197	H	0.129168	0.312801	-0.000080
H198	H	0.183495	0.284061	0.085704
H199	H	0.183529	0.284010	-0.085583
H200	H	0.115890	0.230330	0.085577
H201	H	0.115974	0.230333	-0.085709
H202	H	0.571716	-0.316777	0.314077
O203	O	0.114645	-0.068872	0.000289
C204	C	0.132072	-0.156262	0.000291
C205	C	0.153061	-0.107466	0.000208
H206	H	0.163121	-0.187478	0.000199
H207	H	0.108797	-0.158739	0.085962
H208	H	0.108755	-0.158690	-0.085325
H209	H	0.176399	-0.105006	0.085766
H210	H	0.176309	-0.105009	-0.085520
O211	O	0.213991	-0.067783	0.000055
C212	C	0.277956	-0.118387	-0.105988
C213	C	0.243506	-0.070187	-0.105959
H214	H	0.301821	-0.120351	-0.191704
H215	H	0.301900	-0.120360	-0.020405
H216	H	0.255622	-0.150154	-0.105908
H217	H	0.265802	-0.038392	-0.106082
H218	H	0.219561	-0.068257	-0.191534
H219	H	-0.202337	0.139211	0.000111
O220	O	0.573168	-0.180178	-0.219897
C221	C	0.573182	-0.174815	-0.441193
C222	C	0.573464	-0.147130	-0.318418
H223	H	0.573411	-0.148106	-0.520879
H224	H	0.606786	-0.203089	-0.446878
H225	H	0.539103	-0.193744	-0.446709
H226	H	0.607521	-0.128171	-0.312819
H227	H	0.539838	-0.118883	-0.312785
H228	H	0.083267	0.186255	0.000086
O229	O	0.573063	-0.180274	0.220102
C230	C	0.531022	-0.189905	0.410815
C231	C	0.531342	-0.162168	0.288097
H232	H	0.497299	-0.175271	0.465835
H233	H	0.530574	-0.230266	0.391715
H234	H	0.564980	-0.184691	0.465786
H235	H	0.497389	-0.167343	0.233065
H236	H	0.531814	-0.121818	0.307284
H237	H	0.570792	-0.408229	0.314074
H238	H	0.571762	-0.316734	-0.313830
H239	H	0.057772	-0.062463	0.000207
