data_functionalizedCrystal
_audit_creation_method	'MofGen! by Chris Wilmer'
_symmetry_space_group_name_H-M	'P1'
_symmetry_Int_Tables_number	1
_symmetry_cell_setting	triclinic
loop_
_symmetry_equiv_pos_as_xyz
  x,y,z
_cell_length_a	11.792254
_cell_length_b	15.500227
_cell_length_c	11.792240
_cell_angle_alpha	92.838258
_cell_angle_beta	95.803993
_cell_angle_gamma	92.863989
loop_
_atom_site_label
_atom_site_type_symbol
_atom_site_fract_x
_atom_site_fract_y
_atom_site_fract_z
O1	O	1.512149	0.071962	-0.150399
O2	O	1.181810	0.071966	-0.166416
O3	O	1.354994	0.071938	0.006761
O4	O	1.338965	0.071990	-0.323576
O5	O	1.344484	-0.071949	-0.003706
O6	O	1.171300	-0.071921	-0.176884
O7	O	1.501639	-0.071925	-0.160866
Cu8	Cu	1.335510	-0.085061	-0.169830
Cu9	Cu	1.347939	0.085102	-0.157452
O10	O	1.328455	-0.071897	-0.334043
C11	C	1.134264	0.000023	-0.170641
C12	C	1.008251	0.000023	-0.167621
N13	N	1.326777	-0.204744	-0.178536
C14	C	0.905915	0.000026	-0.165167
C15	C	0.777528	0.000026	-0.162098
C16	C	1.400187	-0.250033	-0.105183
C17	C	1.393592	-0.340605	-0.111777
C18	C	1.313593	-0.385886	-0.191732
C19	C	1.240175	-0.340591	-0.265089
C20	C	1.246765	-0.250021	-0.258488
C21	C	1.289853	-0.659349	-0.215493
C22	C	1.283271	-0.749926	-0.222091
C23	C	1.436688	-0.749933	-0.068777
C24	C	1.443275	-0.659361	-0.062187
C25	C	1.369854	-0.614074	-0.135540
C26	C	1.306853	-0.478465	-0.198477
C27	C	1.376589	-0.521497	-0.128789
C28	C	1.549185	0.000020	-0.156641
C29	C	1.675198	0.000026	-0.159661
C30	C	1.348732	-0.000011	0.043818
C31	C	1.345716	-0.000025	0.169831
N32	N	1.356681	0.204786	-0.148737
C33	C	1.340172	-0.000039	0.400542
C34	C	1.343253	-0.000031	0.272157
C35	C	1.334715	0.000023	0.628898
C36	C	1.337725	-0.000049	0.502879
H37	H	1.465335	-0.213171	-0.040080
H38	H	1.508417	-0.622495	0.002918
H39	H	1.441721	-0.484626	-0.063685
H40	H	1.241717	-0.515341	-0.263580
H41	H	1.453368	-0.377478	-0.052046
H42	H	1.218123	-0.786790	-0.287204
H43	H	1.496463	-0.786814	-0.009055
H44	H	1.230072	-0.622484	-0.275222
H45	H	1.175032	-0.377465	-0.330186
H46	H	1.186985	-0.213148	-0.318219
