data_functionalizedCrystal
_audit_creation_method	'MofGen! by Chris Wilmer'
_symmetry_space_group_name_H-M	'P1'
_symmetry_Int_Tables_number	1
_symmetry_cell_setting	triclinic
loop_
_symmetry_equiv_pos_as_xyz
  x,y,z
_cell_length_a	15.297475
_cell_length_b	15.297327
_cell_length_c	15.298259
_cell_angle_alpha	88.343348
_cell_angle_beta	88.370891
_cell_angle_gamma	91.625546
loop_
_atom_site_label
_atom_site_type_symbol
_atom_site_fract_x
_atom_site_fract_y
_atom_site_fract_z
Zn1	Zn	1.169549	-0.425823	-0.785809
Zn2	Zn	1.161139	-0.596500	-0.663014
Zn3	Zn	1.046767	-0.434114	-0.615184
Zn4	Zn	0.998847	-0.548496	-0.777488
O5	O	1.094075	-0.501233	-0.710374
O6	O	1.287737	-0.465083	-0.793019
O7	O	1.162502	-0.598519	-0.537354
O8	O	1.086628	-0.313716	-0.621283
O9	O	1.281559	-0.590479	-0.702802
O10	O	1.176836	-0.307624	-0.746641
O11	O	1.078474	-0.479215	-0.502214
O12	O	0.921106	-0.432668	-0.613215
O13	O	1.004956	-0.508664	-0.897906
O14	O	0.885899	-0.516704	-0.732458
O15	O	1.130370	-0.418536	-0.904020
O16	O	1.116036	-0.709431	-0.694733
O17	O	0.996801	-0.674163	-0.778837
C18	C	0.872568	-0.470377	-0.666744
C19	C	0.777800	-0.457194	-0.648102
C20	C	0.437417	-0.595466	-0.843613
C21	C	0.526455	-0.607859	-0.861126
C22	C	0.589296	-0.570194	-0.807872
C23	C	0.563089	-0.520133	-0.737101
C24	C	0.474041	-0.507744	-0.719581
C25	C	0.625920	-0.482472	-0.683841
C26	C	0.599713	-0.432411	-0.613069
C27	C	0.510673	-0.420023	-0.595554
C28	C	0.447833	-0.457689	-0.648808
C29	C	0.714968	-0.494861	-0.701360
C30	C	0.751592	-0.407139	-0.577329
C31	C	0.662553	-0.394745	-0.559815
C32	C	1.050327	-0.722729	-0.741095
C33	C	1.031685	-0.817491	-0.754282
C34	C	1.227622	-1.157929	-0.616486
C35	C	1.245137	-1.068897	-0.604092
C36	C	1.191776	-1.006041	-0.641638
C37	C	1.120896	-1.032226	-0.691581
C38	C	1.103375	-1.121268	-0.703971
C39	C	1.067529	-0.969380	-0.729123
C40	C	0.996649	-0.995565	-0.779066
C41	C	0.979132	-1.084599	-0.791454
C42	C	1.032493	-1.147454	-0.753907
C43	C	1.085050	-0.880338	-0.716734
C44	C	0.960803	-0.843677	-0.804219
C45	C	0.943287	-0.932710	-0.816613
C46	C	1.316447	-0.532210	-0.754174
C47	C	1.411209	-0.545411	-0.772839
C48	C	1.063256	-0.457320	-0.932765
C49	C	1.050122	-0.438607	-1.027535
C50	C	1.138015	-0.278873	-0.679555
C51	C	1.156740	-0.184116	-0.666422
C52	C	1.188100	-0.634327	-1.367852
C53	C	1.200434	-0.651914	-1.278811
C54	C	1.162857	-0.598588	-1.215988
C55	C	1.112944	-0.527673	-1.242214
C56	C	1.100603	-0.510089	-1.331264
C57	C	1.075360	-0.474350	-1.179399
C58	C	1.025447	-0.403436	-1.205625
C59	C	1.013109	-0.385854	-1.294667
C60	C	1.050685	-0.439179	-1.357490
C61	C	1.087701	-0.491935	-1.090350
C62	C	1.000205	-0.367697	-1.053761
C63	C	0.987871	-0.350110	-1.142802
C64	C	1.124836	-0.544921	-0.488849
C65	C	1.138182	-0.563417	-0.394078
H66	H	0.641202	-0.353985	-0.502192
O67	O	0.376264	-0.631958	-0.895271
C68	C	0.292054	-0.610310	-0.864614
H69	H	0.296743	-0.548272	-0.825275
H70	H	0.248209	-0.598880	-0.922626
H71	H	0.263117	-0.666270	-0.821152
O72	O	0.361314	-0.445639	-0.631947
C73	C	0.324539	-0.403581	-0.704819
H74	H	0.366176	-0.415651	-0.766036
H75	H	0.255294	-0.430815	-0.713534
H76	H	0.322411	-0.330272	-0.693816
O77	O	0.939501	-0.281128	-1.168246
C78	C	0.977926	-0.203054	-1.138365
H79	H	1.050277	-0.213071	-1.126701
H80	H	0.970793	-0.148353	-1.189644
H81	H	0.943780	-0.184604	-1.074590
H82	H	0.921408	-1.105916	-0.832108
H83	H	1.172902	-0.612913	-1.143487
O84	O	0.485333	-0.371484	-0.526700
C85	C	0.515202	-0.409821	-0.448546
H86	H	0.573627	-0.451950	-0.464013
H87	H	0.535703	-0.356195	-0.402468
H88	H	0.460431	-0.452316	-0.415961
H89	H	0.661794	-0.580287	-0.822136
O90	O	0.812702	-0.370685	-0.525585
C91	C	0.862262	-0.437193	-0.487273
H92	H	0.858689	-0.497786	-0.528833
H93	H	0.933310	-0.413407	-0.483405
H94	H	0.834864	-0.454164	-0.418603
H95	H	1.271057	-1.209113	-0.585914
H96	H	1.218682	-0.677742	-1.419009
H97	H	0.917350	-0.792499	-0.834790
O98	O	1.038858	-0.422119	-1.444018
C99	C	1.120770	-0.405714	-1.486822
H100	H	1.174110	-0.437248	-1.447194
H101	H	1.120073	-0.434520	-1.554706
H102	H	1.134364	-0.332110	-1.493178
O103	O	1.153856	-0.855017	-0.668113
C104	C	1.142765	-0.891003	-0.582492
H105	H	1.097513	-0.951466	-0.583245
H106	H	1.209024	-0.910128	-0.556851
H107	H	1.112792	-0.840516	-0.538144
O108	O	1.248980	-0.720801	-1.253488
C109	C	1.279486	-0.764107	-1.328027
H110	H	1.280539	-0.717067	-1.387243
H111	H	1.348428	-0.787635	-1.316791
H112	H	1.234162	-0.822637	-1.340320
O113	O	1.208937	-0.919589	-0.629551
C114	C	1.282927	-0.909955	-0.577403
H115	H	1.324306	-0.970518	-0.582444
H116	H	1.323421	-0.849772	-0.601233
H117	H	1.260885	-0.901785	-0.506367
O118	O	0.964502	-0.317017	-1.320027
C119	C	0.878861	-0.328122	-1.284126
H120	H	0.879582	-0.373417	-1.223670
H121	H	0.853213	-0.261873	-1.265015
H122	H	0.834535	-0.358053	-1.334658
H123	H	1.302847	-1.047580	-0.563428
O124	O	0.874528	-0.958254	-0.865199
C125	C	0.905272	-1.005548	-0.937026
H126	H	0.971453	-1.033766	-0.921584
H127	H	0.856637	-1.061101	-0.950297
H128	H	0.912587	-0.960024	-0.997277
O129	O	1.015638	-1.233965	-0.765979
C130	C	1.088446	-1.270659	-0.808181
H131	H	1.149676	-1.229014	-0.796183
H132	H	1.097247	-1.339933	-0.781015
H133	H	1.077288	-1.272703	-0.881467
H134	H	1.128347	-0.549670	-1.069006
H135	H	0.969606	-0.324276	-1.002609
O136	O	0.551872	-0.656361	-0.929973
C137	C	0.521981	-0.618064	-1.008136
H138	H	0.510339	-0.545686	-0.998292
H139	H	0.573246	-0.625310	-1.062799
H140	H	0.458189	-0.652227	-1.026523
O141	O	0.740532	-0.543367	-0.770150
C142	C	0.793950	-0.491188	-0.828727
H143	H	0.824204	-0.434307	-0.792418
H144	H	0.848131	-0.532399	-0.857239
H145	H	0.752714	-0.464667	-0.883891
