data_functionalizedCrystal
_audit_creation_method	'MofGen! by Chris Wilmer'
_symmetry_space_group_name_H-M	'P1'
_symmetry_Int_Tables_number	1
_symmetry_cell_setting	triclinic
loop_
_symmetry_equiv_pos_as_xyz
  x,y,z
_cell_length_a	21.395362
_cell_length_b	19.120786
_cell_length_c	21.395355
_cell_angle_alpha	92.459295
_cell_angle_beta	90.043940
_cell_angle_gamma	92.480156
loop_
_atom_site_label
_atom_site_type_symbol
_atom_site_fract_x
_atom_site_fract_y
_atom_site_fract_z
Zn1	Zn	0.947248	-0.279415	0.343943
Zn2	Zn	1.280582	0.053918	0.677276
Zn3	Zn	1.613915	0.387252	1.010610
Zn4	Zn	0.942691	-0.396855	0.234692
Zn5	Zn	1.276024	-0.063522	0.568026
Zn6	Zn	1.609357	0.269811	0.901359
Zn7	Zn	0.842462	-0.279448	0.239143
Zn8	Zn	1.175795	0.053886	0.572476
Zn9	Zn	1.509129	0.387219	0.905810
Zn10	Zn	0.837972	-0.396870	0.339397
Zn11	Zn	1.171305	-0.063536	0.672730
Zn12	Zn	1.504638	0.269797	1.006063
O13	O	0.892593	-0.338147	0.289294
O14	O	1.225926	-0.004814	0.622627
O15	O	1.559260	0.328520	0.955960
O16	O	1.034322	-0.294974	0.329491
O17	O	1.367656	0.038359	0.662824
O18	O	1.700989	0.371693	0.996157
O19	O	0.929367	-0.381289	0.147605
O20	O	1.262700	-0.047955	0.480938
O21	O	1.596034	0.285378	0.814271
O22	O	0.860149	-0.181153	0.256810
O23	O	1.193482	0.152181	0.590144
O24	O	1.526815	0.485514	0.923477
O25	O	1.030974	-0.381257	0.249225
O26	O	1.364307	-0.047924	0.582558
O27	O	1.697641	0.285410	0.915891
O28	O	0.937135	-0.181129	0.333806
O29	O	1.270468	0.152205	0.667140
O30	O	1.603801	0.485538	1.000473
O31	O	0.855729	-0.295030	0.150874
O32	O	1.189063	0.038304	0.484208
O33	O	1.522396	0.371637	0.817541
O34	O	0.754188	-0.295044	0.252402
O35	O	1.087521	0.038290	0.585735
O36	O	1.420854	0.371623	0.919068
O37	O	0.852496	-0.381281	0.427678
O38	O	1.185829	-0.047948	0.761011
O39	O	1.519162	0.285385	1.094345
O40	O	0.750889	-0.381313	0.326058
O41	O	1.084222	-0.047980	0.659391
O42	O	1.417555	0.285353	0.992724
O43	O	0.932781	-0.294988	0.431018
O44	O	1.266114	0.038345	0.764351
O45	O	1.599447	0.371679	1.097685
O46	O	0.925013	-0.495148	0.244816
O47	O	1.258346	-0.161815	0.578150
O48	O	1.591680	0.171519	0.911483
O49	O	0.848076	-0.495159	0.321742
O50	O	1.181410	-0.161825	0.655075
O51	O	1.514743	0.171508	0.988409
C52	C	0.729804	-0.338184	0.289220
C53	C	1.063137	-0.004851	0.622553
C54	C	1.396471	0.328483	0.955886
C55	C	0.660162	-0.338217	0.289202
C56	C	0.993495	-0.004884	0.622536
C57	C	1.326828	0.328450	0.955869
C58	C	0.885580	-0.520639	0.282317
C59	C	1.218913	-0.187306	0.615650
C60	C	1.552247	0.146028	0.948983
C61	C	0.882637	-0.598710	0.279353
C62	C	1.215970	-0.265376	0.612686
C63	C	1.549304	0.067957	0.946019
C64	C	0.625745	-0.383197	0.327493
C65	C	0.959078	-0.049864	0.660826
C66	C	1.292411	0.283470	0.994159
C67	C	0.560310	-0.383180	0.327521
C68	C	0.893643	-0.049846	0.660854
C69	C	1.226977	0.283487	0.994188
C70	C	0.529294	-0.338190	0.289248
C71	C	0.862628	-0.004856	0.622581
C72	C	1.195961	0.328477	0.955915
C73	C	0.563719	-0.293201	0.250955
C74	C	0.897053	0.040132	0.584288
C75	C	1.230386	0.373466	0.917622
C76	C	0.629153	-0.293215	0.250932
C77	C	0.962486	0.040119	0.584266
C78	C	1.295820	0.373452	0.917599
C79	C	0.425784	-0.332531	0.233058
C80	C	0.759118	0.000802	0.566391
C81	C	1.092451	0.334135	0.899725
C82	C	0.360352	-0.332523	0.233080
C83	C	0.693685	0.000811	0.566413
C84	C	1.027018	0.334144	0.899746
C85	C	0.327475	-0.338144	0.289319
C86	C	0.660809	-0.004811	0.622652
C87	C	0.994142	0.328523	0.955985
C88	C	0.360039	-0.343789	0.345537
C89	C	0.693372	-0.010455	0.678871
C90	C	1.026706	0.322878	1.012204
C91	C	0.425473	-0.343802	0.345515
C92	C	0.758806	-0.010469	0.678848
C93	C	1.092139	0.322865	1.012181
C94	C	0.458343	-0.338170	0.289269
C95	C	0.791676	-0.004836	0.622602
C96	C	1.125009	0.328497	0.955935
C97	C	0.222107	-0.383108	0.327643
C98	C	0.555440	-0.049774	0.660977
C99	C	0.888773	0.283559	0.994310
C100	C	0.156671	-0.383086	0.327673
C101	C	0.490004	-0.049752	0.661007
C102	C	0.823338	0.283581	0.994340
C103	C	0.160081	-0.293111	0.251101
C104	C	0.493415	0.040223	0.584435
C105	C	0.826748	0.373556	0.917768
C106	C	0.225516	-0.293129	0.251077
C107	C	0.558849	0.040204	0.584411
C108	C	0.892183	0.373538	0.917744
C109	C	0.256525	-0.338131	0.289347
C110	C	0.589858	-0.004798	0.622681
C111	C	0.923191	0.328535	0.956014
C112	C	0.921307	-0.635315	0.318080
C113	C	1.254640	-0.301981	0.651414
C114	C	1.587974	0.031352	0.984747
C115	C	0.918539	-0.708671	0.315297
C116	C	1.251873	-0.375337	0.648630
C117	C	1.585206	-0.042004	0.981963
C118	C	0.877104	-0.745420	0.273781
C119	C	1.210438	-0.412087	0.607115
C120	C	1.543771	-0.078753	0.940448
C121	C	0.838430	-0.708810	0.235052
C122	C	1.171763	-0.375477	0.568385
C123	C	1.505097	-0.042143	0.901719
C124	C	0.841195	-0.635456	0.237839
C125	C	1.174528	-0.302122	0.571173
C126	C	1.507862	0.031211	0.904506
C127	C	0.866749	-0.966907	0.263361
C128	C	1.200082	-0.633574	0.596694
C129	C	1.533416	-0.300240	0.930027
C130	C	0.863988	-1.040267	0.260575
C131	C	1.197322	-0.706933	0.593908
C132	C	1.530655	-0.373600	0.927242
C133	C	0.944097	-1.040122	0.340821
C134	C	1.277430	-0.706789	0.674154
C135	C	1.610764	-0.373455	1.007487
C136	C	0.946861	-0.966766	0.343602
C137	C	1.280194	-0.633433	0.676935
C138	C	1.613528	-0.300099	1.010269
C139	C	0.908185	-0.930162	0.304875
C140	C	1.241518	-0.596829	0.638208
C141	C	1.574851	-0.263496	0.971541
C142	C	0.874276	-0.820402	0.270933
C143	C	1.207609	-0.487068	0.604267
C144	C	1.540942	-0.153735	0.937600
C145	C	0.911011	-0.855182	0.307726
C146	C	1.244344	-0.521849	0.641060
C147	C	1.577677	-0.188516	0.974393
C148	C	1.056018	-0.338110	0.289369
C149	C	1.389351	-0.004777	0.622702
C150	C	1.722685	0.328557	0.956035
C151	C	1.125660	-0.338094	0.289400
C152	C	1.458993	-0.004761	0.622734
C153	C	1.792326	0.328572	0.956067
C154	C	0.892646	-0.338133	0.452718
C155	C	1.225979	-0.004799	0.786051
C156	C	1.559312	0.328534	1.119384
C157	C	0.892668	-0.338127	0.522359
C158	C	1.226001	-0.004793	0.855693
C159	C	1.559335	0.328540	1.189026
C160	C	0.899651	-0.154942	0.296312
C161	C	1.232984	0.178391	0.629645
C162	C	1.566317	0.511724	0.962979
C163	C	0.902658	-0.076871	0.299303
C164	C	1.235992	0.256462	0.632636
C165	C	1.569325	0.589795	0.965969
C166	C	0.892579	-0.338110	0.126508
C167	C	1.225912	-0.004777	0.459841
C168	C	1.559245	0.328556	0.793174
C169	C	0.892685	-0.337919	0.056874
C170	C	1.226019	-0.004585	0.390207
C171	C	1.559352	0.328748	0.723541
C172	C	0.934471	-0.293192	0.556813
C173	C	1.267804	0.040142	0.890146
C174	C	1.601137	0.373475	1.223479
C175	C	0.934471	-0.293162	0.622249
C176	C	1.267804	0.040172	0.955583
C177	C	1.601138	0.373505	1.288916
C178	C	0.892675	-0.338079	0.653229
C179	C	1.226008	-0.004745	0.986563
C180	C	1.559341	0.328588	1.319896
C181	C	0.850864	-0.383017	0.618768
C182	C	1.184197	-0.049684	0.952101
C183	C	1.517531	0.283650	1.285435
C184	C	0.850861	-0.383041	0.553333
C185	C	1.184194	-0.049707	0.886666
C186	C	1.517527	0.283626	1.219999
C187	C	0.885297	-0.401324	0.754484
C188	C	1.218630	-0.067991	1.087818
C189	C	1.551964	0.265342	1.421151
C190	C	0.885305	-0.401302	0.819918
C191	C	1.218638	-0.067968	1.153252
C192	C	1.551971	0.265365	1.486585
C193	C	0.892681	-0.338005	0.855053
C194	C	1.226015	-0.004671	1.188386
C195	C	1.559348	0.328662	1.521720
C196	C	0.900064	-0.274728	0.824746
C197	C	1.233397	0.058605	1.158080
C198	C	1.566730	0.391938	1.491413
C199	C	0.900060	-0.274752	0.759311
C200	C	1.233394	0.058581	1.092644
C201	C	1.566727	0.391914	1.425978
C202	C	0.892673	-0.338058	0.724183
C203	C	1.226007	-0.004724	1.057516
C204	C	1.559340	0.328609	1.390849
C205	C	0.934487	-0.293033	0.960461
C206	C	1.267820	0.040300	1.293794
C207	C	1.601153	0.373634	1.627127
C208	C	0.934483	-0.293002	1.025898
C209	C	1.267816	0.040332	1.359232
C210	C	1.601149	0.373665	1.692565
C211	C	0.850879	-0.382863	1.022416
C212	C	1.184212	-0.049530	1.355749
C213	C	1.517546	0.283803	1.689082
C214	C	0.850880	-0.382888	0.956979
C215	C	1.184213	-0.049555	1.290313
C216	C	1.517547	0.283778	1.623646
C217	C	0.892687	-0.337974	0.926006
C218	C	1.226020	-0.004641	1.259339
C219	C	1.559354	0.328692	1.592672
H220	H	0.532283	-0.419808	0.358704
H221	H	0.865616	-0.086474	0.692037
H222	H	1.198949	0.246859	1.025371
O223	O	0.119541	-0.431695	0.368887
O224	O	0.452874	-0.098361	0.702221
O225	O	0.786208	0.234972	1.035554
H226	H	0.152098	-0.463026	0.395457
H227	H	0.485431	-0.129692	0.728790
H228	H	0.818764	0.203641	1.062123
H229	H	0.247355	-0.419748	0.358808
H230	H	0.580689	-0.086414	0.692142
H231	H	0.914022	0.246919	1.025475
H232	H	0.944745	-0.825259	0.341530
H233	H	1.278078	-0.491925	0.674864
H234	H	1.611411	-0.158592	1.008197
O235	O	0.666282	-0.244702	0.209630
O236	O	0.999615	0.088631	0.542963
O237	O	1.332948	0.421964	0.876297
H238	H	0.694839	-0.276099	0.176502
H239	H	1.028172	0.057235	0.509835
H240	H	1.361505	0.390568	0.843168
H241	H	0.980601	-0.936846	0.377407
H242	H	1.313934	-0.603513	0.710740
H243	H	1.647267	-0.270179	1.044073
H244	H	0.879297	-0.452825	0.844589
H245	H	1.212631	-0.119492	1.177922
H246	H	1.545964	0.213842	1.511256
O247	O	0.979561	-0.244748	0.523408
O248	O	1.312895	0.088586	0.856742
O249	O	1.646228	0.421919	1.190075
H250	H	0.952897	-0.209029	0.494933
H251	H	1.286230	0.124304	0.828266
H252	H	1.619564	0.457638	1.161600
O253	O	0.985802	-1.079599	0.382599
O254	O	1.319135	-0.746266	0.715933
O255	O	1.652468	-0.412933	1.049266
H256	H	0.976915	-1.136781	0.373694
H257	H	1.310248	-0.803448	0.707027
H258	H	1.643581	-0.470115	1.040361
H259	H	0.809705	-0.605652	0.206304
H260	H	1.143038	-0.272319	0.539637
H261	H	1.476372	0.061014	0.872971
H262	H	0.650988	-0.419840	0.358656
H263	H	0.984321	-0.086507	0.691989
H264	H	1.317655	0.246826	1.025323
H265	H	0.955051	-0.605398	0.351884
H266	H	1.288384	-0.272065	0.685217
H267	H	1.621717	0.061269	1.018550
H268	H	0.968523	-0.256406	1.053950
H269	H	1.301856	0.076927	1.387283
H270	H	1.635189	0.410260	1.720616
O271	O	0.126640	-0.244581	0.209821
O272	O	0.459973	0.088753	0.543155
O273	O	0.793307	0.422086	0.876488
H274	H	0.138684	-0.256546	0.160168
H275	H	0.472018	0.076788	0.493502
H276	H	0.805351	0.410121	0.826835
O277	O	0.530276	-0.244674	0.209671
O278	O	0.863610	0.088660	0.543004
O279	O	1.196943	0.421993	0.876337
H280	H	0.542327	-0.256640	0.160020
H281	H	0.875660	0.076693	0.493353
H282	H	1.208994	0.410026	0.826686
O283	O	0.805797	-0.431308	1.055825
O284	O	1.139130	-0.097974	1.389158
O285	O	1.472464	0.235359	1.722492
H286	H	0.757087	-0.419270	1.043691
H287	H	1.090420	-0.085936	1.377024
H288	H	1.423754	0.247397	1.710357
H289	H	0.950033	-0.738471	0.346828
H290	H	1.283367	-0.405138	0.680161
H291	H	1.616700	-0.071804	1.013495
H292	H	0.840541	-0.850331	0.237130
H293	H	1.173874	-0.516998	0.570463
H294	H	1.507207	-0.183665	0.903796
O295	O	0.819291	-1.079908	0.215801
O296	O	1.152624	-0.746575	0.549134
O297	O	1.485958	-0.413242	0.882467
H298	H	0.792856	-1.042132	0.189344
H299	H	1.126189	-0.708799	0.522677
H300	H	1.459523	-0.375466	0.856011
O301	O	0.825049	-0.927430	0.221581
O302	O	1.158382	-0.594097	0.554914
O303	O	1.491715	-0.260764	0.888247
H304	H	0.795782	-0.965311	0.192237
H305	H	1.129115	-0.631977	0.525570
H306	H	1.462448	-0.298644	0.858904
O307	O	0.805796	-0.431351	0.919805
O308	O	1.139129	-0.098018	1.253138
O309	O	1.472463	0.235315	1.586472
H310	H	0.775134	-0.399917	0.891174
H311	H	1.108467	-0.066584	1.224507
H312	H	1.441800	0.266749	1.557841
O313	O	0.908016	-0.206509	0.726623
O314	O	1.241349	0.126825	1.059957
O315	O	1.574683	0.460158	1.393290
H316	H	0.950420	-0.207624	0.696804
H317	H	1.283753	0.125709	1.030137
H318	H	1.617086	0.459043	1.363471
H319	H	0.968525	-0.256457	0.935241
H320	H	1.301859	0.076876	1.268574
H321	H	1.635192	0.410209	1.601907
H322	H	0.451983	-0.348396	0.391290
H323	H	0.785317	-0.015063	0.724623
H324	H	1.118650	0.318271	1.057956
O325	O	0.324592	-0.349846	0.406203
O326	O	0.657925	-0.016513	0.739537
O327	O	0.991258	0.316820	1.072870
H328	H	0.273621	-0.348878	0.396779
H329	H	0.606955	-0.015545	0.730112
H330	H	0.940288	0.317788	1.063445
H331	H	0.253538	-0.256505	0.219894
H332	H	0.586872	0.076828	0.553227
H333	H	0.920205	0.410162	0.886561
H334	H	0.879123	-0.452855	0.725883
H335	H	1.212456	-0.119522	1.059217
H336	H	1.545789	0.213811	1.392550
O337	O	0.805781	-0.431463	0.652176
O338	O	1.139114	-0.098130	0.985510
O339	O	1.472447	0.235203	1.318843
H340	H	0.812809	-0.423902	0.703466
H341	H	1.146142	-0.090569	1.036800
H342	H	1.479476	0.242764	1.370133
O343	O	0.325230	-0.326431	0.172449
O344	O	0.658564	0.006902	0.505782
O345	O	0.991897	0.340235	0.839115
H346	H	0.359083	-0.322509	0.133340
H347	H	0.692417	0.010824	0.466674
H348	H	1.025750	0.344158	0.800007
O349	O	0.461243	-0.326470	0.172397
O350	O	0.794576	0.006863	0.505730
O351	O	1.127910	0.340197	0.839063
H352	H	0.427608	-0.322555	0.133309
H353	H	0.760942	0.010779	0.466642
H354	H	1.094275	0.344112	0.799976
H355	H	0.804690	-0.738737	0.201252
H356	H	1.138023	-0.405404	0.534585
H357	H	1.471357	-0.072071	0.867919
O358	O	0.979565	-0.244701	0.659422
O359	O	1.312898	0.088633	0.992756
O360	O	1.646231	0.421966	1.326089
H361	H	1.008638	-0.213478	0.626891
H362	H	1.341971	0.119856	0.960224
H363	H	1.675305	0.453189	1.293557
O364	O	0.908004	-0.206448	0.862630
O365	O	1.241338	0.126885	1.195963
O366	O	1.574671	0.460219	1.529297
H367	H	0.906753	-0.217057	0.913223
H368	H	1.240087	0.116276	1.246556
H369	H	1.573420	0.449610	1.579889
H370	H	0.816817	-0.419631	0.525281
H371	H	1.150151	-0.086298	0.858614
H372	H	1.483484	0.247035	1.191948
