data_functionalizedCrystal
_audit_creation_method	'MofGen! by Chris Wilmer'
_symmetry_space_group_name_H-M	'P1'
_symmetry_Int_Tables_number	1
_symmetry_cell_setting	triclinic
loop_
_symmetry_equiv_pos_as_xyz
  x,y,z
_cell_length_a	17.077404
_cell_length_b	10.686285
_cell_length_c	17.077396
_cell_angle_alpha	94.391882
_cell_angle_beta	90.019501
_cell_angle_gamma	85.631810
loop_
_atom_site_label
_atom_site_type_symbol
_atom_site_fract_x
_atom_site_fract_y
_atom_site_fract_z
Zn1	Zn	1.224115	-0.502339	0.419935
Zn2	Zn	1.234129	-0.713359	0.278625
Zn3	Zn	1.092848	-0.502383	0.288680
Zn4	Zn	1.102918	-0.713284	0.409853
O5	O	1.163502	-0.607841	0.349273
O6	O	1.335290	-0.530344	0.401201
O7	O	1.215364	-0.685422	0.170110
O8	O	1.101856	-0.325802	0.314519
O9	O	1.342648	-0.685379	0.297382
O10	O	1.198297	-0.325769	0.410951
O11	O	1.111566	-0.530419	0.177497
O12	O	0.984337	-0.530347	0.304743
O13	O	1.119018	-0.685252	0.521039
O14	O	0.991734	-0.685295	0.393768
O15	O	1.208061	-0.530271	0.528447
O16	O	1.225128	-0.889924	0.287606
O17	O	1.128728	-0.889869	0.384018
C18	C	0.959553	-0.607818	0.349253
C19	C	0.872305	-0.607839	0.349261
C20	C	0.835193	-0.688642	0.395530
C21	C	0.753212	-0.688645	0.395542
C22	C	0.708346	-0.607850	0.349281
C23	C	0.745463	-0.527038	0.303011
C24	C	0.827441	-0.527030	0.303003
C25	C	0.574594	-0.527063	0.303028
C26	C	0.492610	-0.527072	0.303035
C27	C	0.500365	-0.688678	0.395568
C28	C	0.582344	-0.688670	0.395560
C29	C	0.619455	-0.607859	0.349288
C30	C	1.179129	-0.935681	0.333644
C31	C	1.185885	-1.075932	0.326983
C32	C	1.368248	-0.607865	0.349294
C33	C	1.455498	-0.607875	0.349303
C34	C	1.163545	-0.607748	0.554022
C35	C	1.163564	-0.607709	0.641274
C36	C	1.147836	-0.278722	0.364981
C37	C	1.141160	-0.138470	0.371675
C38	C	1.163500	-0.607843	0.145325
C39	C	1.163617	-0.607527	0.058091
C40	C	1.209930	-0.527004	0.686123
C41	C	1.209937	-0.526962	0.768105
C42	C	1.163582	-0.607632	0.805237
C43	C	1.117211	-0.688341	0.760382
C44	C	1.117200	-0.688375	0.678402
C45	C	1.117239	-0.688265	0.931256
C46	C	1.117251	-0.688232	1.013242
C47	C	1.209976	-0.526851	1.020959
C48	C	1.209965	-0.526886	0.938979
C49	C	1.163595	-0.607596	0.894130
H50	H	0.871718	-0.754439	0.433198
C51	C	0.769114	-0.848417	0.486981
C52	C	0.712420	-0.777487	0.446389
H53	H	0.743930	-0.903275	0.518366
H54	H	0.798478	-0.793508	0.519686
H55	H	0.803376	-0.896589	0.450416
H56	H	0.678162	-0.729308	0.482954
H57	H	0.683043	-0.832403	0.413681
H58	H	1.097701	-1.084717	0.415034
C59	C	1.251147	-0.455095	1.150055
C60	C	1.260934	-0.438109	1.070256
H61	H	1.282601	-0.400304	1.180489
H62	H	1.266679	-0.539856	1.159449
H63	H	1.197523	-0.436623	1.164347
H64	H	1.314557	-0.456591	1.055962
H65	H	1.245406	-0.353329	1.060857
H66	H	1.079503	-0.753918	1.043473
H67	H	1.229342	-1.129693	0.283617
H68	H	1.247695	-0.461247	0.804617
C69	C	1.301578	-0.367473	0.701994
C70	C	1.260884	-0.438324	0.645311
H71	H	1.333030	-0.312717	0.676799
H72	H	1.334225	-0.422439	0.731348
H73	H	1.265074	-0.319196	0.736269
H74	H	1.297388	-0.486608	0.611039
H75	H	1.228234	-0.383351	0.615945
H76	H	1.247716	-0.461204	0.908748
C77	C	1.025614	-0.847831	0.931856
C78	C	1.066287	-0.777012	0.881955
H79	H	0.994171	-0.902633	0.901417
H80	H	0.992960	-0.792848	0.966439
H81	H	1.062130	-0.896057	0.961546
H82	H	1.029771	-0.728778	0.852269
H83	H	1.098944	-0.832002	0.847358
H84	H	1.079465	-0.754019	0.790622
C85	C	1.089151	-0.902054	0.642943
C86	C	1.066247	-0.777101	0.629093
H87	H	1.057697	-0.956829	0.612496
H88	H	1.082514	-0.913575	0.697073
H89	H	1.142774	-0.920504	0.628639
H90	H	1.012625	-0.758648	0.643402
H91	H	1.072877	-0.765574	0.574950
C92	C	0.378145	-0.760439	0.436684
C93	C	0.459575	-0.777499	0.446437
H94	H	0.352962	-0.815269	0.468090
H95	H	0.365563	-0.778800	0.383056
H96	H	0.360684	-0.675679	0.452304
H97	H	0.477037	-0.862257	0.430811
H98	H	0.472163	-0.759147	0.500077
H99	H	0.618873	-0.754467	0.433225
C100	C	0.493172	-0.367307	0.211583
C101	C	0.443290	-0.438252	0.252191
H102	H	0.462722	-0.312468	0.180199
H103	H	0.527751	-0.422208	0.178875
H104	H	0.522865	-0.319115	0.248139
H105	H	0.413600	-0.486451	0.215635
H106	H	0.408697	-0.383344	0.284901
H107	H	0.604807	-0.461247	0.265356
H108	H	0.708925	-0.461248	0.265348
H109	H	0.857656	-0.461225	0.265331
