data_functionalizedCrystal
_audit_creation_method	'MofGen! by Chris Wilmer'
_symmetry_space_group_name_H-M	'P1'
_symmetry_Int_Tables_number	1
_symmetry_cell_setting	triclinic
loop_
_symmetry_equiv_pos_as_xyz
  x,y,z
_cell_length_a	12.645323
_cell_length_b	12.759401
_cell_length_c	12.759399
_cell_angle_alpha	90.016641
_cell_angle_beta	90.026803
_cell_angle_gamma	90.020678
loop_
_atom_site_label
_atom_site_type_symbol
_atom_site_fract_x
_atom_site_fract_y
_atom_site_fract_z
Zn1	Zn	-0.599376	-1.606261	0.418215
Zn2	Zn	-0.099376	-1.106261	0.918215
Zn3	Zn	-0.422110	-1.606151	0.593918
Zn4	Zn	0.077890	-1.106151	1.093918
Zn5	Zn	-0.422126	-1.430560	0.418259
Zn6	Zn	0.077874	-0.930560	0.918259
Zn7	Zn	-0.599331	-1.430550	0.593857
Zn8	Zn	-0.099331	-0.930550	1.093857
O9	O	-0.510736	-1.518380	0.506062
O10	O	-0.010736	-1.018380	1.006062
O11	O	-0.575873	-1.753267	0.441530
O12	O	-0.075873	-1.253267	0.941530
O13	O	-0.273764	-1.582817	0.570660
O14	O	0.226236	-1.082817	1.070660
O15	O	-0.445664	-1.453917	0.271232
O16	O	0.054336	-0.953917	0.771232
O17	O	-0.445636	-1.753187	0.570618
O18	O	0.054364	-1.253187	1.070618
O19	O	-0.575888	-1.583004	0.271200
O20	O	-0.075888	-1.083004	0.771200
O21	O	-0.273777	-1.453811	0.441604
O22	O	0.226223	-0.953811	0.941604
O23	O	-0.445621	-1.283538	0.441545
O24	O	0.054379	-0.783538	0.941545
O25	O	-0.747684	-1.453900	0.570515
O26	O	-0.247684	-0.953900	1.070515
O27	O	-0.575813	-1.283530	0.570557
O28	O	-0.075813	-0.783530	1.070557
O29	O	-0.747717	-1.582994	0.441471
O30	O	-0.247717	-1.082994	0.941471
O31	O	-0.445593	-1.582807	0.740931
O32	O	0.054407	-1.082807	1.240931
O33	O	-0.575797	-1.453794	0.740887
O34	O	-0.075797	-0.953794	1.240887
C35	C	-0.510715	-1.245413	0.506050
C36	C	-0.010715	-0.745413	1.006050
C37	C	-0.510731	-1.128636	0.506069
C38	C	-0.010731	-0.628636	1.006069
C39	C	-0.510712	-1.518316	0.779030
C40	C	-0.010712	-1.018316	1.279030
C41	C	-0.510737	-1.518385	0.895806
C42	C	-0.010737	-1.018385	1.395806
C43	C	-0.787241	-1.518458	0.505981
C44	C	-0.287241	-1.018458	1.005981
C45	C	-0.905071	-1.518491	0.505947
C46	C	-0.405071	-1.018491	1.005947
C47	C	-1.072615	-1.437027	0.586745
C48	C	-0.572615	-0.937027	1.086745
C49	C	-0.950055	-1.437241	0.587145
C50	C	-0.450055	-0.937241	1.087145
C51	C	-0.949586	-1.629193	0.535991
C52	C	-0.449586	-1.129193	1.035991
C53	C	-1.072184	-1.628746	0.536498
C54	C	-0.572184	-1.128746	1.036498
C55	C	-1.072274	-1.490299	0.394651
C56	C	-0.572274	-0.990299	0.894651
C57	C	-0.949667	-1.487829	0.395318
C58	C	-0.449667	-0.987829	0.895318
C59	C	-0.235306	-1.518364	0.506067
C60	C	0.264694	-1.018364	1.006067
C61	C	-0.117476	-1.518534	0.505806
C62	C	0.382524	-1.018534	1.005806
C63	C	-0.510757	-1.792414	0.506076
C64	C	-0.010757	-1.292414	1.006076
C65	C	-0.510767	-1.909190	0.506082
C66	C	-0.010767	-1.409190	1.006082
C67	C	-0.578415	-1.073798	0.573348
C68	C	-0.078415	-0.573798	1.073348
C69	C	-0.578436	-0.964074	0.573352
C70	C	-0.078436	-0.464074	1.073352
C71	C	-0.443079	-0.964036	0.438796
C72	C	0.056921	-0.464036	0.938796
C73	C	-0.443065	-1.073758	0.438787
C74	C	0.056935	-0.573758	0.938787
C75	C	-0.510783	-1.518474	0.232029
C76	C	-0.010783	-1.018474	0.732029
C77	C	-0.510803	-1.518514	0.115252
C78	C	-0.010803	-1.018514	0.615252
C79	C	-0.443017	-1.585639	0.950657
C80	C	0.056983	-1.085639	1.450657
C81	C	-0.443052	-1.585706	1.060381
C82	C	0.056948	-1.085706	1.560381
C83	C	-0.578531	-1.451257	1.060394
C84	C	-0.078531	-0.951257	1.560394
C85	C	-0.578500	-1.451195	0.950672
C86	C	-0.078500	-0.951195	1.450672
H87	H	-1.102092	-1.354695	0.568125
H88	H	-0.602092	-0.854695	1.068125
H89	H	-0.387948	-1.118409	0.383994
H90	H	0.112052	-0.618409	0.883994
H91	H	-0.918894	-1.653536	0.616396
H92	H	-0.418894	-1.153536	1.116396
H93	H	-0.920737	-1.455881	0.669549
H94	H	-0.420737	-0.955881	1.169549
H95	H	-0.919046	-1.542857	0.331826
H96	H	-0.419046	-1.042857	0.831826
O97	O	-0.651372	-0.904987	0.646033
O98	O	-0.151372	-0.404987	1.146033
H99	H	-0.734623	-0.926089	0.628210
H100	H	-0.234623	-0.426089	1.128210
H101	H	-1.103182	-1.410980	0.367264
H102	H	-0.603182	-0.910980	0.867264
H103	H	-0.387909	-1.640473	1.105035
H104	H	0.112091	-1.140473	1.605035
H105	H	-0.387841	-1.640350	0.905987
H106	H	0.112159	-1.140350	1.405987
H107	H	-0.633651	-1.396429	0.906010
H108	H	-0.133651	-0.896429	1.406010
H109	H	-1.100792	-1.652679	0.617754
H110	H	-0.600792	-1.152679	1.117754
O111	O	-0.911109	-1.379926	0.365293
O112	O	-0.411109	-0.879926	0.865293
H113	H	-0.938698	-1.322089	0.424233
H114	H	-0.438698	-0.822089	0.924233
O115	O	-0.651597	-1.378769	1.119570
O116	O	-0.151597	-0.878769	1.619570
H117	H	-0.640230	-1.390097	1.205082
H118	H	-0.140230	-0.890097	1.705082
H119	H	-1.101287	-1.549664	0.334349
H120	H	-0.601287	-1.049664	0.834349
O121	O	-0.370075	-0.904830	0.366266
O122	O	0.129925	-0.404830	0.866266
H123	H	-0.417606	-0.854854	0.312883
H124	H	0.082394	-0.354854	0.812883
H125	H	-0.919956	-1.355151	0.568345
H126	H	-0.419956	-0.855151	1.068345
H127	H	-1.101863	-1.691535	0.480104
H128	H	-0.601863	-1.191535	0.980104
O129	O	-1.113479	-1.461457	0.695204
O130	O	-0.613479	-0.961457	1.195204
H131	H	-1.087898	-1.541411	0.718227
H132	H	-0.587898	-1.041411	1.218227
O133	O	-0.910983	-1.711808	0.460393
O134	O	-0.410983	-1.211808	0.960393
H135	H	-0.859534	-1.674752	0.400463
H136	H	-0.359534	-1.174752	0.900463
H137	H	-0.633516	-1.118477	0.628131
H138	H	-0.133516	-0.618477	1.128131
