data_functionalizedCrystal
_audit_creation_method	'MofGen! by Chris Wilmer'
_symmetry_space_group_name_H-M	'P1'
_symmetry_Int_Tables_number	1
_symmetry_cell_setting	triclinic
loop_
_symmetry_equiv_pos_as_xyz
  x,y,z
_cell_length_a	12.837942
_cell_length_b	11.026607
_cell_length_c	10.065918
_cell_angle_alpha	82.315017
_cell_angle_beta	98.912105
_cell_angle_gamma	78.292522
loop_
_atom_site_label
_atom_site_type_symbol
_atom_site_fract_x
_atom_site_fract_y
_atom_site_fract_z
O1	O	0.460549	-1.679306	0.113502
O2	O	0.410030	-1.320158	0.113503
O3	O	0.282899	-1.491767	0.113494
O4	O	0.587680	-1.507697	0.113511
O5	O	0.249114	-1.456073	-0.113496
O6	O	0.376244	-1.284464	-0.113487
O7	O	0.426763	-1.643612	-0.113488
Zn8	Zn	0.396140	-1.458371	-0.149527
Zn9	Zn	0.440654	-1.505399	0.149542
O10	O	0.553894	-1.472003	-0.113479
C11	C	0.226382	-1.468539	-0.000000
C12	C	0.108311	-1.452492	0.000002
C13	C	0.383817	-1.256022	0.000008
C14	C	0.356034	-1.118096	0.000008
C15	C	0.452977	-1.707748	0.000010
C16	C	0.480761	-1.845676	0.000019
C17	C	-0.096644	-1.645415	0.000030
C18	C	-0.207582	-1.630343	0.000032
C19	C	-0.224504	-1.407280	0.000019
C20	C	-0.113566	-1.422352	0.000017
C21	C	-0.049640	-1.541422	0.000020
C22	C	0.061299	-1.556492	0.000008
C23	C	0.044376	-1.333431	0.000004
C24	C	-0.066562	-1.318360	0.000007
C25	C	0.610412	-1.495231	0.000018
C26	C	0.728484	-1.511279	0.000025
N27	N	0.365761	-1.426285	-0.353633
C28	C	0.432749	-1.053162	0.000013
C29	C	0.404035	-0.910607	0.000014
C30	C	0.406704	-1.469552	-0.578575
C31	C	0.430092	-1.494237	-0.421407
N32	N	0.471026	-1.537494	0.353649
H33	H	0.113346	-1.653444	0.000006
F34	F	0.594398	-0.910941	0.000008
H35	H	0.519683	-1.103105	0.000010
F36	F	0.242399	-1.052819	-0.000007
F37	F	0.565633	-1.637418	-0.570117
F38	F	-0.134606	-1.191644	0.000014
H39	H	-0.044596	-1.742364	0.000020
H40	H	0.334317	-1.393114	-0.636905
F41	F	0.524705	-1.594166	-0.345178
F42	F	0.290395	-0.845336	-0.000002
F43	F	-0.257602	-1.741027	0.000047
F44	F	0.271137	-1.326370	-0.429860
F45	F	0.094407	-1.222746	-0.000020
F46	F	-0.292550	-1.280572	0.000049
