data_functionalizedCrystal
_audit_creation_method	'MofGen! by Chris Wilmer'
_symmetry_space_group_name_H-M	'P1'
_symmetry_Int_Tables_number	1
_symmetry_cell_setting	triclinic
loop_
_symmetry_equiv_pos_as_xyz
  x,y,z
_cell_length_a	14.044220
_cell_length_b	15.995350
_cell_length_c	13.101039
_cell_angle_alpha	93.364563
_cell_angle_beta	86.340132
_cell_angle_gamma	88.340626
loop_
_atom_site_label
_atom_site_type_symbol
_atom_site_fract_x
_atom_site_fract_y
_atom_site_fract_z
O1	O	1.262914	0.197637	-0.085096
O2	O	0.986946	0.190352	-0.085122
O3	O	1.132474	0.072670	-0.085107
O4	O	1.117386	0.315319	-0.085111
O5	O	1.122032	0.081129	0.085321
O6	O	0.976505	0.198810	0.085307
O7	O	1.252472	0.206096	0.085333
Zn8	Zn	1.112831	0.203796	0.112379
Zn9	Zn	1.126588	0.192651	-0.112168
O10	O	1.106945	0.323777	0.085318
C11	C	0.946411	0.191392	0.000089
C12	C	0.841186	0.181881	0.000079
C13	C	1.126629	0.045658	0.000105
C14	C	1.124760	-0.047432	0.000099
C15	C	0.648524	0.164494	0.000099
C16	C	0.590890	0.231950	0.000102
C17	C	0.483686	0.222275	0.000114
C18	C	0.755738	0.174167	0.000088
C19	C	1.118044	-0.385681	0.000102
C20	C	1.014425	-0.346007	-0.000290
C21	C	1.016272	-0.249158	0.000094
C22	C	1.121375	-0.217872	0.000100
C23	C	1.166533	-0.250301	0.097426
C24	C	1.163924	-0.347127	0.097507
C25	C	1.177939	-0.356944	-0.096302
C26	C	1.177993	-0.260065	-0.097588
C27	C	1.123263	-0.123033	0.000102
C28	C	1.116159	-0.480519	0.000106
C29	C	1.293008	0.205055	0.000120
C30	C	1.398233	0.214566	0.000123
C31	C	1.112789	0.350789	0.000103
C32	C	1.114659	0.443879	0.000103
N33	N	1.103449	0.211402	0.265626
N34	N	1.135977	0.185039	-0.265416
C35	C	1.090685	0.221758	0.474668
C36	C	1.148739	0.174686	0.525549
C37	C	1.141636	0.180448	0.641867
C38	C	1.097786	0.215997	0.358340
H39	H	0.622062	0.296967	0.000097
H40	H	1.035653	0.266383	0.518459
H41	H	1.243527	-0.230228	0.101050
H42	H	0.617354	0.099482	0.000106
H43	H	0.980363	-0.227200	-0.069674
H44	H	1.203775	0.130059	0.481753
H45	H	0.968933	-0.365237	0.069108
O46	O	0.970220	-0.376054	-0.083579
C47	C	1.032356	-0.433380	-0.142797
H48	H	1.087861	-0.459607	-0.092364
H49	H	0.989651	-0.486828	-0.176039
H50	H	1.069798	-0.400061	-0.207871
H51	H	0.971537	-0.220847	0.069973
O52	O	1.114036	-0.368081	0.184185
C53	C	1.034428	-0.414414	0.157604
H54	H	1.048306	-0.444647	0.076840
H55	H	1.022086	-0.465252	0.214005
H56	H	0.968520	-0.370812	0.160475
O57	O	1.254429	-0.378474	0.102662
C58	C	1.311613	-0.355292	0.017177
H59	H	1.278576	-0.297053	-0.014449
H60	H	1.386318	-0.341271	0.041407
H61	H	1.316188	-0.408804	-0.044550
O62	O	1.118747	-0.215418	0.183801
C63	C	1.022213	-0.237427	0.184907
H64	H	1.015617	-0.297261	0.134491
H65	H	0.994917	-0.248213	0.266755
H66	H	0.978045	-0.184604	0.154371
O67	O	1.143055	-0.388791	-0.184407
C68	C	1.198265	-0.361841	-0.269243
H69	H	1.272008	-0.344687	-0.244733
H70	H	1.205809	-0.414403	-0.332148
H71	H	1.161624	-0.304643	-0.299451
O72	O	1.138641	-0.234976	-0.183387
C73	C	1.060222	-0.179551	-0.155265
H74	H	1.068281	-0.149785	-0.075195
H75	H	1.057599	-0.128462	-0.212236
H76	H	0.991377	-0.215589	-0.155625
O77	O	1.269845	-0.235205	-0.104420
C78	C	1.284984	-0.178813	-0.020653
H79	H	1.230187	-0.189020	0.045074
H80	H	1.359922	-0.190049	0.005498
H81	H	1.277086	-0.111770	-0.044792
O82	O	1.269094	-0.388206	-0.097140
C83	C	1.268605	-0.476464	-0.100826
H84	H	1.200162	-0.498730	-0.134388
H85	H	1.332883	-0.503269	-0.151002
H86	H	1.272378	-0.498761	-0.020069
