data_functionalizedCrystal
_audit_creation_method	'MofGen! by Chris Wilmer'
_symmetry_space_group_name_H-M	'P1'
_symmetry_Int_Tables_number	1
_symmetry_cell_setting	triclinic
loop_
_symmetry_equiv_pos_as_xyz
  x,y,z
_cell_length_a	16.992694
_cell_length_b	15.995350
_cell_length_c	16.053802
_cell_angle_alpha	92.567808
_cell_angle_beta	87.249047
_cell_angle_gamma	87.080299
loop_
_atom_site_label
_atom_site_type_symbol
_atom_site_fract_x
_atom_site_fract_y
_atom_site_fract_z
O1	O	1.043694	0.174244	-0.069318
O2	O	0.815410	0.172295	-0.069342
O3	O	0.935792	0.051799	-0.069329
O4	O	0.923312	0.294739	-0.069332
O5	O	0.929166	0.058403	0.069530
O6	O	0.808784	0.178898	0.069516
O7	O	1.037068	0.180847	0.069540
Zn8	Zn	0.921874	0.180921	0.091575
Zn9	Zn	0.930604	0.172221	-0.091377
O10	O	0.916685	0.301343	0.069527
C11	C	0.782884	0.173091	0.000083
C12	C	0.695841	0.165614	0.000074
C13	C	0.645600	0.237749	0.000074
C14	C	0.563813	0.230720	0.000085
C15	C	0.532268	0.151555	0.000091
C16	C	0.582515	0.079414	0.000094
C17	C	0.664300	0.086444	0.000088
C18	C	0.288669	0.122417	0.000114
C19	C	0.206878	0.115392	0.000117
C20	C	0.188181	0.266699	0.000110
C21	C	0.269969	0.273722	0.000099
C22	C	0.320209	0.201582	0.000106
N23	N	0.448669	0.144368	0.000100
N24	N	0.403806	0.208770	0.000103
C25	C	0.931963	0.023872	0.000099
C26	C	0.930417	-0.069182	0.000094
C27	C	0.924861	-0.407302	0.000096
C28	C	0.839142	-0.365620	-0.000225
C29	C	0.840674	-0.268811	0.000089
C30	C	0.927617	-0.239557	0.000095
C31	C	0.966120	-0.274034	0.079392
C32	C	0.963963	-0.370810	0.079459
C33	C	0.973269	-0.378559	-0.078449
C34	C	0.973299	-0.281665	-0.079497
C35	C	0.929179	-0.144755	0.000096
C36	C	0.923302	-0.502103	0.000100
C37	C	1.069593	0.180051	0.000113
C38	C	1.156637	0.187528	0.000117
C39	C	0.920515	0.329270	0.000097
C40	C	0.922061	0.422324	0.000097
N41	N	0.915921	0.186859	0.216434
N42	N	0.936563	0.166277	-0.216236
C43	C	0.967163	0.135608	0.260134
C44	C	0.963006	0.139770	0.347541
C45	C	0.907611	0.195187	0.391245
C46	C	0.856364	0.246439	0.347539
C47	C	0.860518	0.242273	0.260135
C48	C	0.889469	0.213363	0.652653
C49	C	0.885321	0.217528	0.740064
C50	C	0.991962	0.110857	0.740059
C51	C	0.996114	0.106699	0.652652
C52	C	0.944864	0.157948	0.608954
N53	N	0.903363	0.199444	0.480589
N54	N	0.949109	0.153686	0.519612
H55	H	0.705206	0.027704	0.000088
H56	H	0.933934	-0.244811	0.138399
N57	N	0.172854	0.030003	0.000145
H58	H	0.113420	0.036499	0.000147
H59	H	0.193679	-0.004267	-0.051325
H60	H	1.004731	0.098037	0.383120
H61	H	1.033687	0.069131	0.775646
N62	N	1.026907	0.075822	0.213012
H63	H	0.998665	0.034998	0.176761
H64	H	1.063338	0.108482	0.176783
H65	H	0.671277	0.302214	0.000068
H66	H	0.807588	-0.389148	-0.057091
H67	H	0.840209	0.262658	0.775644
H68	H	0.930299	-0.388357	0.138731
H69	H	0.295647	0.338187	0.000085
N70	N	0.939946	-0.412036	-0.158065
H71	H	0.893128	-0.446178	-0.144022
H72	H	0.922701	-0.363680	-0.192476
N73	N	0.805245	0.297549	0.213003
H74	H	0.813547	0.358311	0.228202
H75	H	0.816305	0.286429	0.151016
N76	N	0.509591	0.308499	0.000098
H77	H	0.472805	0.311371	0.051583
H78	H	0.542007	0.359696	0.000063
N79	N	0.342840	0.044604	0.000109
H80	H	0.379639	0.041697	-0.051367
H81	H	0.374688	0.046633	0.051616
H82	H	1.041221	0.061574	0.617070
H83	H	0.847741	0.255094	0.617081
H84	H	0.147268	0.325432	0.000106
N85	N	0.548496	-0.005972	0.000114
H86	H	0.489061	0.000518	0.000117
H87	H	0.569323	-0.040234	-0.051360
N88	N	0.792758	-0.231268	0.075506
H89	H	0.736526	-0.248506	0.073063
H90	H	0.816155	-0.252008	0.127926
N91	N	1.057037	-0.415046	-0.079152
H92	H	1.068976	-0.451404	-0.131756
H93	H	1.094564	-0.368100	-0.077265
H94	H	1.029854	-0.255493	0.082346
N95	N	1.047106	-0.407724	0.084260
H96	H	1.046354	-0.470818	0.084345
H97	H	1.080340	-0.391170	0.034422
N98	N	0.796610	0.306205	0.394673
H99	H	0.801755	0.301071	0.456676
H100	H	0.806388	0.365488	0.379386
N101	N	0.936102	-0.251938	-0.157202
H102	H	0.938396	-0.189055	-0.158786
H103	H	0.965752	-0.279287	-0.208146
N104	N	0.800236	-0.237681	-0.075204
H105	H	0.781251	-0.286867	-0.108896
H106	H	0.753734	-0.198471	-0.056203
H107	H	1.036930	-0.262288	-0.084280
N108	N	0.790372	-0.391028	0.074670
H109	H	0.823563	-0.429422	0.108806
H110	H	0.771589	-0.339381	0.110013
