data_functionalizedCrystal
_audit_creation_method	'MofGen! by Chris Wilmer'
_symmetry_space_group_name_H-M	'P1'
_symmetry_Int_Tables_number	1
_symmetry_cell_setting	triclinic
loop_
_symmetry_equiv_pos_as_xyz
  x,y,z
_cell_length_a	16.625546
_cell_length_b	12.759401
_cell_length_c	12.759393
_cell_angle_alpha	90.022497
_cell_angle_beta	89.964881
_cell_angle_gamma	89.976710
loop_
_atom_site_label
_atom_site_type_symbol
_atom_site_fract_x
_atom_site_fract_y
_atom_site_fract_z
Zn1	Zn	-0.320945	-1.606210	-0.594030
Zn2	Zn	0.179055	-1.106210	-0.094030
Zn3	Zn	-0.455799	-1.606077	-0.418336
Zn4	Zn	0.044201	-1.106077	0.081664
Zn5	Zn	-0.320986	-1.430508	-0.418360
Zn6	Zn	0.179014	-0.930508	0.081640
Zn7	Zn	-0.455741	-1.430476	-0.593968
Zn8	Zn	0.044259	-0.930476	-0.093968
O9	O	-0.388368	-1.518318	-0.506174
O10	O	0.111632	-1.018318	-0.006174
O11	O	-0.338841	-1.753213	-0.570739
O12	O	0.161159	-1.253213	-0.070739
O13	O	-0.437957	-1.582745	-0.271318
O14	O	0.062043	-1.082745	0.228682
O15	O	-0.208148	-1.453884	-0.441699
O16	O	0.291852	-0.953884	0.058301
O17	O	-0.437917	-1.753116	-0.441658
O18	O	0.062083	-1.253116	0.058342
O19	O	-0.208118	-1.582971	-0.570763
O20	O	0.291882	-1.082971	-0.070763
O21	O	-0.338911	-1.453756	-0.271336
O22	O	0.161089	-0.953756	0.228664
O23	O	-0.338855	-1.283483	-0.441640
O24	O	0.161145	-0.783483	0.058360
O25	O	-0.437819	-1.453830	-0.740998
O26	O	0.062181	-0.953830	-0.240998
O27	O	-0.437859	-1.283460	-0.570658
O28	O	0.062141	-0.783460	-0.070658
O29	O	-0.338784	-1.582940	-0.741043
O30	O	0.161216	-1.082940	-0.241043
O31	O	-0.568624	-1.582714	-0.441598
O32	O	-0.068624	-1.082714	0.058402
O33	O	-0.568581	-1.453701	-0.570634
O34	O	-0.068581	-0.953701	-0.070634
C35	C	-0.388355	-1.245350	-0.506145
C36	C	0.111645	-0.745350	-0.006145
C37	C	-0.388370	-1.128574	-0.506158
C38	C	0.111630	-0.628574	-0.006158
C39	C	-0.439999	-1.073727	-0.573231
C40	C	0.060001	-0.573727	-0.073231
C41	C	-0.440001	-0.964003	-0.573249
C42	C	0.059999	-0.464003	-0.073249
C43	C	-0.336742	-0.963982	-0.439112
C44	C	0.163258	-0.463982	0.060888
C45	C	-0.336737	-1.073704	-0.439101
C46	C	0.163263	-0.573704	0.060899
C47	C	-0.597859	-1.518218	-0.506130
C48	C	-0.097859	-1.018218	-0.006130
C49	C	-0.687480	-1.518272	-0.506146
C50	C	-0.187480	-1.018272	-0.006146
C51	C	-1.015655	-1.518455	-0.506255
C52	C	-0.515655	-1.018455	-0.006255
C53	C	-0.924347	-1.518401	-0.506228
C54	C	-0.424347	-1.018401	-0.006228
C55	C	-0.851571	-1.518363	-0.506200
C56	C	-0.351571	-1.018363	-0.006200
C57	C	-0.760256	-1.518310	-0.506174
C58	C	-0.260256	-1.018310	-0.006174
C59	C	-0.178059	-1.518446	-0.506241
C60	C	0.321941	-1.018446	-0.006241
C61	C	-0.088438	-1.518501	-0.506269
C62	C	0.411562	-1.018501	-0.006269
C63	C	-0.388290	-1.518396	-0.780207
C64	C	0.111710	-1.018396	-0.280207
C65	C	-0.388257	-1.518430	-0.896984
C66	C	0.111743	-1.018430	-0.396984
C67	C	-0.388379	-0.792351	-0.506196
C68	C	0.111621	-0.292351	-0.006196
C69	C	-0.388377	-0.909128	-0.506188
C70	C	0.111623	-0.409128	-0.006188
C71	C	-0.336682	-1.585663	-0.951871
C72	C	0.163318	-1.085663	-0.451871
C73	C	-0.336647	-1.585681	-1.061595
C74	C	0.163353	-1.085681	-0.561595
C75	C	-0.439770	-1.451230	-1.061535
C76	C	0.060230	-0.951230	-0.561535
C77	C	-0.439800	-1.451208	-0.951813
C78	C	0.060200	-0.951208	-0.451813
C79	C	-0.388387	-1.518300	-0.233206
C80	C	0.111613	-1.018300	0.266794
C81	C	-0.388193	-1.518470	-0.116430
C82	C	0.111807	-1.018470	0.383570
H83	H	-0.294710	-1.640397	-0.907232
H84	H	0.205290	-1.140397	-0.407232
N85	N	-0.281018	-1.658204	-1.120782
N86	N	0.218982	-1.158204	-0.620782
H87	H	-0.313773	-1.706880	-1.166308
H88	H	0.186227	-1.206880	-0.666308
H89	H	-0.243641	-1.615471	-1.166245
H90	H	0.256359	-1.115471	-0.666245
H91	H	-0.481736	-1.396502	-1.106191
H92	H	0.018264	-0.896502	-0.606191
H93	H	-0.294706	-0.919294	-0.384515
H94	H	0.205294	-0.419294	0.115485
N95	N	-0.495414	-1.378668	-0.892604
N96	N	0.004586	-0.878668	-0.392604
H97	H	-0.528062	-1.336086	-0.943985
H98	H	-0.028062	-0.836086	-0.443985
H99	H	-0.532747	-1.421383	-0.847063
H100	H	-0.032747	-0.921383	-0.347063
H101	H	-0.482040	-1.118399	-0.627836
H102	H	0.017960	-0.618399	-0.127836
H103	H	-0.294689	-1.118362	-0.384482
H104	H	0.205311	-0.618362	0.115518
N105	N	-0.495690	-0.904846	-0.645586
N106	N	0.004310	-0.404846	-0.145586
H107	H	-0.528397	-0.956258	-0.688060
H108	H	-0.028397	-0.456258	-0.188060
H109	H	-0.532963	-0.859284	-0.602730
H110	H	-0.032963	-0.359284	-0.102730
