data_functionalizedCrystal
_audit_creation_method	'MofGen! by Chris Wilmer'
_symmetry_space_group_name_H-M	'P1'
_symmetry_Int_Tables_number	1
_symmetry_cell_setting	triclinic
loop_
_symmetry_equiv_pos_as_xyz
  x,y,z
_cell_length_a	10.685980
_cell_length_b	12.594509
_cell_length_c	10.686285
_cell_angle_alpha	85.604965
_cell_angle_beta	89.665709
_cell_angle_gamma	85.604980
loop_
_atom_site_label
_atom_site_type_symbol
_atom_site_fract_x
_atom_site_fract_y
_atom_site_fract_z
Zn1	Zn	1.956328	-0.705749	-0.352406
Zn2	Zn	1.972327	-0.515256	-0.562212
Zn3	Zn	1.746541	-0.513155	-0.368535
Zn4	Zn	1.762637	-0.678580	-0.578193
O5	O	1.859458	-0.603185	-0.465336
O6	O	2.134002	-0.692730	-0.366799
O7	O	1.942335	-0.366025	-0.536583
O8	O	1.760938	-0.549194	-0.190849
O9	O	2.145757	-0.552776	-0.520942
O10	O	1.915067	-0.690692	-0.178998
O11	O	1.776452	-0.364481	-0.394289
O12	O	1.573124	-0.522849	-0.409785
O13	O	1.788371	-0.831136	-0.548179
O14	O	1.584950	-0.644386	-0.563819
O15	O	1.930675	-0.851097	-0.382294
O16	O	1.957943	-0.526431	-0.739879
O17	O	1.803885	-0.646423	-0.751620
C18	C	1.533518	-0.580442	-0.490288
C19	C	1.394082	-0.570735	-0.500992
C20	C	1.859534	-0.880818	-0.465220
C21	C	1.859566	-0.999129	-0.465170
C22	C	1.782190	-1.057530	-0.555346
C23	C	1.899015	-1.134471	-0.577224
C24	C	1.742824	-1.132999	-0.443209
C25	C	1.976455	-1.074512	-0.487105
C26	C	1.820184	-1.073032	-0.353043
C27	C	1.937085	-1.149948	-0.374872
C28	C	2.186671	-0.626018	-0.440289
C29	C	2.326110	-0.635748	-0.429615
C30	C	1.884431	-0.583732	-0.791264
C31	C	1.895229	-0.575454	-0.930688
C32	C	1.859448	-0.326642	-0.465356
C33	C	1.859632	-0.208370	-0.465034
C34	C	1.834422	-0.622739	-0.138134
C35	C	1.823753	-0.631072	0.001301
H36	H	1.932360	-1.161614	-0.671989
N37	N	1.386936	-0.714881	-0.342670
N38	N	1.503918	-0.722918	-0.333797
H39	H	1.546886	-0.778806	-0.272389
N40	N	1.333249	-0.491581	-0.587920
N41	N	1.216266	-0.483532	-0.596785
H42	H	1.173300	-0.427629	-0.658174
N43	N	1.982339	-0.507742	-0.991449
N44	N	1.943841	-0.432506	-1.068047
H45	H	2.005359	-0.384682	-1.110961
H46	H	1.716819	-1.017309	-0.631709
H47	H	2.075247	-1.048746	-0.505731
N48	N	2.019316	-1.200164	-0.279128
N49	N	2.133424	-1.184466	-0.281960
H50	H	2.191504	-1.219931	-0.214345
N51	N	1.736645	-0.698768	-0.937926
N52	N	1.775144	-0.773998	-0.861320
H53	H	1.713624	-0.821812	-0.818390
H54	H	1.786807	-1.045861	-0.258308
N55	N	1.618945	-1.165481	-0.419939
N56	N	1.597996	-1.226946	-0.325975
H57	H	1.510505	-1.249883	-0.309546
