data_functionalizedCrystal
_audit_creation_method	'MofGen! by Chris Wilmer'
_symmetry_space_group_name_H-M	'P1'
_symmetry_Int_Tables_number	1
_symmetry_cell_setting	triclinic
loop_
_symmetry_equiv_pos_as_xyz
  x,y,z
_cell_length_a	19.077105
_cell_length_b	15.297327
_cell_length_c	15.298431
_cell_angle_alpha	88.343933
_cell_angle_beta	96.995165
_cell_angle_gamma	97.818066
loop_
_atom_site_label
_atom_site_type_symbol
_atom_site_fract_x
_atom_site_fract_y
_atom_site_fract_z
Zn1	Zn	0.952636	-0.302444	-0.611406
Zn2	Zn	1.452636	0.197556	-0.111406
Zn3	Zn	0.945782	-0.474008	-0.489867
Zn4	Zn	1.445782	0.025992	0.010133
Zn5	Zn	0.852623	-0.323688	-0.459092
Zn6	Zn	1.352623	0.176312	0.040908
Zn7	Zn	0.813596	-0.443126	-0.628538
Zn8	Zn	1.313596	0.056874	-0.128538
O9	O	0.891159	-0.385817	-0.547226
O10	O	1.391159	0.114183	-0.047226
O11	O	1.048902	-0.329236	-0.600994
O12	O	1.548902	0.170764	-0.100994
O13	O	0.946889	-0.475883	-0.364007
O14	O	1.446889	0.024117	0.135993
O15	O	0.885091	-0.199085	-0.459248
O16	O	1.385091	0.300915	0.040752
O17	O	1.043867	-0.455283	-0.511699
O18	O	1.543867	0.044717	-0.011699
O19	O	0.958570	-0.183477	-0.571152
O20	O	1.458570	0.316523	-0.071152
O21	O	0.878446	-0.365443	-0.341396
O22	O	1.378446	0.134557	0.158604
O23	O	0.750271	-0.335499	-0.475860
O24	O	1.250271	0.164501	0.024140
O25	O	0.818575	-0.402650	-0.748044
O26	O	1.318575	0.097350	-0.248044
O27	O	0.721598	-0.423249	-0.600351
O28	O	1.221598	0.076751	-0.100351
O29	O	0.920727	-0.299291	-0.735457
O30	O	1.420727	0.200709	-0.235457
O31	O	0.909046	-0.591697	-0.528312
O32	O	1.409046	-0.091697	-0.028312
O33	O	0.811930	-0.569008	-0.630193
O34	O	1.311930	-0.069008	-0.130193
C35	C	0.710737	-0.378329	-0.536626
C36	C	1.210737	0.121671	-0.036626
C37	C	0.633546	-0.375142	-0.532115
C38	C	1.133546	0.124858	-0.032115
C39	C	0.582368	-0.419432	-0.594738
C40	C	1.082368	0.080568	-0.094738
C41	C	0.509841	-0.416426	-0.590502
C42	C	1.009841	0.083574	-0.090502
C43	C	0.488492	-0.369135	-0.523639
C44	C	0.988492	0.130865	-0.023639
C45	C	0.539677	-0.324840	-0.461012
C46	C	1.039677	0.175160	0.038988
C47	C	0.612203	-0.327841	-0.465253
C48	C	1.112203	0.172159	0.034747
C49	C	0.273182	-0.355244	-0.504018
C50	C	0.773182	0.144756	-0.004018
C51	C	0.200649	-0.352248	-0.499780
C52	C	0.700649	0.147752	0.000220
C53	C	0.170818	-0.443834	-0.629272
C54	C	0.670818	0.056166	-0.129272
C55	C	0.243347	-0.446835	-0.633503
C56	C	0.743347	0.053165	-0.133503
C57	C	0.294525	-0.402536	-0.570880
C58	C	0.794525	0.097464	-0.070880
N59	N	0.414357	-0.366064	-0.519306
N60	N	0.914357	0.133936	-0.019306
N61	N	0.368659	-0.405603	-0.575217
N62	N	0.868659	0.094397	-0.075217
C63	C	0.855526	-0.611928	-0.584471
C64	C	1.355526	-0.111928	-0.084471
C65	C	0.840342	-0.708656	-0.600437
C66	C	1.340342	-0.208656	-0.100437
C67	C	0.999933	-1.028424	-0.433427
C68	C	1.499933	-0.528424	0.066573
C69	C	1.014199	-0.937543	-0.418421
C70	C	1.514199	-0.437543	0.081579
C71	C	0.970736	-0.880317	-0.463924
C72	C	1.470736	-0.380317	0.036076
C73	C	0.913005	-0.913980	-0.524435
C74	C	1.413005	-0.413980	-0.024435
C75	C	0.898734	-1.004871	-0.539437
C76	C	1.398734	-0.504871	-0.039437
C77	C	0.869537	-0.856764	-0.569934
C78	C	1.369537	-0.356764	-0.069934
C79	C	0.811806	-0.890427	-0.630445
C80	C	1.311806	-0.390427	-0.130445
C81	C	0.797538	-0.981309	-0.645444
C82	C	1.297538	-0.481309	-0.145444
C83	C	0.841001	-1.038535	-0.599941
C84	C	1.341001	-0.538535	-0.099941
C85	C	0.883808	-0.765874	-0.554932
C86	C	1.383808	-0.265874	-0.054932
C87	C	0.782609	-0.742321	-0.660942
C88	C	1.282609	-0.242321	-0.160942
C89	C	0.768343	-0.833201	-0.675947
C90	C	1.268343	-0.333201	-0.175947
C91	C	1.072286	-0.393335	-0.557868
C92	C	1.572286	0.106665	-0.057868
C93	C	1.149471	-0.396538	-0.562404
C94	C	1.649471	0.103462	-0.062404
C95	C	0.866062	-0.345156	-0.774209
C96	C	1.366062	0.154844	-0.274209
C97	C	0.855367	-0.327829	-0.870936
C98	C	1.355367	0.172171	-0.370936
C99	C	0.926948	-0.158820	-0.509856
C100	C	1.426948	0.341180	-0.009856
C101	C	0.942200	-0.062088	-0.493931
C102	C	1.442200	0.437912	0.006069
C103	C	0.814707	-0.262186	-0.904599
C104	C	1.314707	0.237814	-0.404599
C105	C	0.804649	-0.245907	-0.995478
C106	C	1.304649	0.254093	-0.495478
C107	C	0.835256	-0.295265	-1.052703
C108	C	1.335256	0.204735	-0.552703
C109	C	0.875921	-0.360905	-1.019040
C110	C	1.375921	0.139095	-0.519040
C111	C	0.885975	-0.377190	-0.928152
C112	C	1.385975	0.122810	-0.428152
C113	C	0.906523	-0.410269	-1.076256
C114	C	1.406523	0.089731	-0.576256
C115	C	0.947188	-0.475910	-1.042592
C116	C	1.447188	0.024090	-0.542592
C117	C	0.957241	-0.492192	-0.951713
C118	C	1.457241	0.007808	-0.451713
C119	C	0.926635	-0.442834	-0.894489
C120	C	1.426635	0.057166	-0.394489
C121	C	0.896469	-0.393984	-1.167143
C122	C	1.396469	0.106016	-0.667143
C123	C	0.967737	-0.508989	-1.190696
C124	C	1.467737	-0.008989	-0.690696
C125	C	0.977795	-0.525268	-1.099817
C126	C	1.477795	-0.025268	-0.599817
C127	C	0.916209	-0.426258	-0.321118
C128	C	1.416209	0.073742	0.178882
C129	C	0.927077	-0.443346	-0.224359
C130	C	1.427077	0.056654	0.275641
H131	H	0.599743	-0.457945	-0.649184
H132	H	1.099743	0.042055	-0.149184
H133	H	0.992661	-0.549178	-1.237289
H134	H	1.492661	-0.049178	-0.737289
H135	H	0.990343	-0.545652	-0.924310
H136	H	1.490343	-0.045652	-0.424310
N137	N	0.735267	-1.017609	-0.710706
N138	N	1.235267	-0.517609	-0.210706
H139	H	0.753087	-1.049213	-0.758935
H140	H	1.253087	-0.549213	-0.258935
H141	H	0.701116	-1.060332	-0.679584
H142	H	1.201116	-0.560332	-0.179584
H143	H	0.982355	-0.806319	-0.451702
H144	H	1.482355	-0.306319	0.048298
H145	H	0.829390	-1.112538	-0.612158
H146	H	1.329390	-0.612538	-0.112158
H147	H	1.061203	-0.910138	-0.369153
H148	H	1.561203	-0.410138	0.130847
H149	H	0.934825	-0.456082	-0.820486
H150	H	1.434825	0.043918	-0.320486
H151	H	0.468173	-0.452493	-0.641496
H152	H	0.968173	0.047507	-0.141496
H153	H	0.653873	-0.291770	-0.414262
H154	H	1.153873	0.208230	0.085738
H155	H	0.930813	-0.738474	-0.505663
H156	H	1.430813	-0.238474	-0.005663
H157	H	0.789787	-0.222010	-0.858001
H158	H	1.289787	0.277990	-0.358001
H159	H	1.035310	-1.075025	-0.396379
H160	H	1.535310	-0.575025	0.103621
H161	H	0.260722	-0.485347	-0.687949
H162	H	0.760722	0.014653	-0.187949
N163	N	0.706077	-0.869513	-0.741209
N164	N	1.206077	-0.369513	-0.241209
H165	H	0.703635	-0.935771	-0.743805
H166	H	1.203635	-0.435771	-0.243805
H167	H	0.660477	-0.854067	-0.722091
H168	H	1.160477	-0.354067	-0.222091
N169	N	0.735727	-0.680605	-0.710018
N170	N	1.235727	-0.180605	-0.210018
H171	H	0.765387	-0.636791	-0.745800
H172	H	1.265387	-0.136791	-0.245800
H173	H	0.696992	-0.715785	-0.750573
H174	H	1.196992	-0.215785	-0.250573
N175	N	0.328376	-0.307451	-0.436488
N176	N	0.828376	0.192549	0.063512
H177	H	0.303844	-0.277036	-0.393491
H178	H	0.803844	0.222964	0.106509
H179	H	0.357360	-0.351266	-0.403733
H180	H	0.857360	0.148734	0.096267
H181	H	1.010904	-0.578713	-1.072395
H182	H	1.510904	-0.078713	-0.572395
H183	H	0.183272	-0.313727	-0.445336
H184	H	0.683272	0.186273	0.054664
H185	H	0.522289	-0.286330	-0.406574
H186	H	1.022289	0.213670	0.093426
N187	N	0.852610	-0.323194	-1.203447
N188	N	1.352610	0.176806	-0.703447
H189	H	0.874947	-0.264292	-1.178029
H190	H	1.374947	0.235708	-0.678029
H191	H	0.850895	-0.320446	-1.269701
H192	H	1.350895	0.179554	-0.769701
N193	N	0.115620	-0.491611	-0.696813
N194	N	0.615620	0.008389	-0.196813
H195	H	0.066435	-0.482536	-0.683984
H196	H	0.566435	0.017464	-0.183984
H197	H	0.123554	-0.467550	-0.757512
H198	H	0.623554	0.032450	-0.257512
N199	N	0.824419	-0.277705	-1.150723
N200	N	1.324419	0.222295	-0.650723
H201	H	0.799822	-0.332953	-1.181696
H202	H	1.299822	0.167047	-0.681696
H203	H	0.794036	-0.228606	-1.163292
H204	H	1.294036	0.271394	-0.663292
H205	H	0.771537	-0.192465	-1.022881
H206	H	1.271537	0.307535	-0.522881
