data_functionalizedCrystal
_audit_creation_method	'MofGen! by Chris Wilmer'
_symmetry_space_group_name_H-M	'P1'
_symmetry_Int_Tables_number	1
_symmetry_cell_setting	triclinic
loop_
_symmetry_equiv_pos_as_xyz
  x,y,z
_cell_length_a	14.519709
_cell_length_b	17.699077
_cell_length_c	16.176319
_cell_angle_alpha	89.996839
_cell_angle_beta	90.005477
_cell_angle_gamma	83.480361
loop_
_atom_site_label
_atom_site_type_symbol
_atom_site_fract_x
_atom_site_fract_y
_atom_site_fract_z
O1	O	0.116581	1.004413	-0.068737
O2	O	0.131760	0.784077	-0.068742
O3	O	-0.010093	0.900087	-0.068732
O4	O	0.258434	0.888403	-0.068747
O5	O	-0.010067	0.900076	0.068761
O6	O	0.131785	0.784066	0.068752
O7	O	0.116607	1.004402	0.068756
Cu8	Cu	0.124198	0.894233	0.081308
Cu9	Cu	0.124168	0.894246	-0.081294
O10	O	0.258459	0.888392	0.068746
C11	C	0.131230	0.755873	0.000005
C12	C	0.129601	0.671850	0.000003
C13	C	0.128847	0.632375	0.074952
C14	C	0.127302	0.553428	0.074953
C15	C	0.126517	0.513957	0.000004
C16	C	0.127268	0.553439	-0.074950
C17	C	0.128806	0.632385	-0.074950
C18	C	0.121062	0.235057	-0.074951
C19	C	0.119526	0.156105	-0.074945
C20	C	0.119557	0.156100	0.074951
C21	C	0.121096	0.235047	0.074951
C22	C	0.121842	0.274522	-0.000002
C23	C	0.123515	0.360125	-0.000003
C24	C	0.124850	0.428354	0.000003
C25	C	-0.044438	0.899537	0.000015
C26	C	-0.146812	0.897905	0.000015
C27	C	-0.521682	0.891898	-0.000006
C28	C	-0.417381	0.893566	-0.000000
C29	C	-0.334250	0.894902	0.000005
C30	C	-0.229943	0.896570	0.000010
C31	C	0.292804	0.888942	-0.000002
C32	C	0.395178	0.890574	-0.000008
C33	C	0.117137	1.032606	0.000008
C34	C	0.118766	1.116629	0.000004
N35	N	0.124219	0.894229	0.195673
N36	N	0.124140	0.894256	-0.195659
C37	C	0.068285	0.848278	0.761065
C38	C	0.068292	0.848277	0.674518
C39	C	0.124160	0.894249	0.631249
C40	C	0.180017	0.940232	0.674530
C41	C	0.180004	0.940237	0.761076
C42	C	0.180069	0.940214	0.325502
C43	C	0.180080	0.940204	0.238950
C44	C	0.068357	0.848253	0.238945
C45	C	0.068344	0.848258	0.325490
C46	C	0.124197	0.894244	0.368764
C47	C	0.124187	0.894246	0.462608
C48	C	0.124175	0.894244	0.537406
H49	H	0.129422	0.664525	-0.135981
C50	C	0.121959	0.278464	0.157392
H51	H	0.122990	0.331134	0.146657
H52	H	0.067954	0.271226	0.188191
H53	H	0.175478	0.259822	0.188184
C54	C	0.118806	0.112669	0.157400
H55	H	0.117791	0.059996	0.146671
H56	H	0.172848	0.119924	0.188145
H57	H	0.065324	0.131284	0.188245
H58	H	0.022876	0.810812	0.203700
H59	H	0.225487	0.977678	0.796310
H60	H	0.118886	0.123971	-0.135981
C61	C	0.006837	0.797701	0.808655
H62	H	-0.026431	0.770322	0.770483
H63	H	0.044683	0.762923	0.842425
H64	H	-0.035666	0.828661	0.842406
H65	H	0.022806	0.810839	0.639287
C66	C	0.126480	0.510007	0.157396
H67	H	0.127181	0.544819	0.202032
H68	H	0.072123	0.484912	0.160522
H69	H	0.179646	0.473507	0.160503
H70	H	0.022854	0.810820	0.360716
C71	C	0.129694	0.675787	0.157396
H72	H	0.129010	0.640968	0.202032
H73	H	0.184047	0.700888	0.160521
H74	H	0.076524	0.712281	0.160504
H75	H	0.225549	0.977658	0.360725
H76	H	0.121666	0.267189	-0.135983
C77	C	0.241473	0.990800	0.626936
H78	H	0.233489	0.984206	0.569194
H79	H	0.224258	1.042562	0.641107
H80	H	0.304596	0.976814	0.641136
H81	H	0.225577	0.977642	0.203722
C82	C	0.126406	0.510023	-0.157392
H83	H	0.125392	0.457350	-0.146659
H84	H	0.072895	0.528663	-0.188187
H85	H	0.180419	0.517262	-0.188187
