data_functionalizedCrystal
_audit_creation_method	'MofGen! by Chris Wilmer'
_symmetry_space_group_name_H-M	'P1'
_symmetry_Int_Tables_number	1
_symmetry_cell_setting	triclinic
loop_
_symmetry_equiv_pos_as_xyz
  x,y,z
_cell_length_a	16.109301
_cell_length_b	23.532357
_cell_length_c	22.010155
_cell_angle_alpha	90.010083
_cell_angle_beta	90.013343
_cell_angle_gamma	83.144938
loop_
_atom_site_label
_atom_site_type_symbol
_atom_site_fract_x
_atom_site_fract_y
_atom_site_fract_z
O1	O	1.102551	0.073204	0.050499
O2	O	0.860415	0.082314	0.050509
O3	O	0.988806	-0.005148	0.050491
O4	O	0.974159	0.160665	0.050517
O5	O	0.988768	-0.005148	-0.050559
O6	O	0.860376	0.082314	-0.050542
O7	O	1.102512	0.073204	-0.050551
Cu8	Cu	0.981441	0.077759	-0.059773
Cu9	Cu	0.981486	0.077759	0.059731
O10	O	0.974121	0.160665	-0.050534
C11	C	0.829424	0.081945	-0.000015
C12	C	0.737137	0.080838	-0.000012
C13	C	0.427747	0.129119	-0.000015
C14	C	0.514459	0.130164	-0.000012
C15	C	0.535175	0.026394	-0.000020
C16	C	0.448465	0.025350	-0.000019
C17	C	0.394752	0.076714	-0.000020
C18	C	0.568175	0.078803	-0.000017
C19	C	0.662191	0.079936	-0.000013
C20	C	0.300730	0.075582	-0.000023
C21	C	0.988420	-0.026366	-0.000036
C22	C	0.987319	-0.089589	-0.000041
C23	C	0.980425	-0.481625	0.055074
C24	C	0.979378	-0.541029	0.055078
O25	O	0.978826	-0.571747	0.101923
N26	N	0.978838	-0.570742	-0.000004
C27	C	0.979336	-0.541048	-0.055093
O28	O	0.978780	-0.571776	-0.101944
C29	C	0.980377	-0.481645	-0.055096
C30	C	0.980926	-0.451936	-0.000010
C31	C	0.980973	-0.451916	0.110155
C32	C	0.982021	-0.392517	0.110151
C33	C	0.982522	-0.362827	0.055067
C34	C	0.981974	-0.392537	-0.000014
C35	C	0.980870	-0.451952	-0.110184
C36	C	0.981910	-0.392545	-0.110182
C37	C	0.982459	-0.362835	-0.055097
C38	C	0.983524	-0.303448	-0.055103
N39	N	0.984064	-0.273735	-0.000021
C40	C	0.983563	-0.303424	0.055064
C41	C	0.977148	-0.665797	-0.055083
C42	C	0.976113	-0.725200	-0.055081
C43	C	0.976154	-0.725176	0.055090
C44	C	0.977195	-0.665773	0.055087
C45	C	0.977689	-0.636084	-0.000001
C46	C	0.985766	-0.178682	0.055052
C47	C	0.986818	-0.119278	0.055043
C48	C	0.986773	-0.119306	-0.055127
C49	C	0.985726	-0.178706	-0.055119
C50	C	0.985219	-0.208392	-0.000025
O51	O	0.984073	-0.272692	-0.101924
O52	O	0.984109	-0.272688	0.101907
C53	C	1.133503	0.073573	-0.000026
C54	C	1.225790	0.074679	-0.000025
C55	C	0.974507	0.181883	-0.000005
C56	C	0.975608	0.245106	0.000005
N57	N	0.981415	0.077758	-0.143826
C58	C	1.031616	0.112305	-0.563601
C59	C	1.031626	0.112304	-0.627209
O60	O	1.074279	0.141673	-0.660098
N61	N	0.981503	0.077752	-0.659033
C62	C	0.931372	0.043196	-0.627245
O63	O	0.888740	0.013806	-0.660154
C64	C	0.931368	0.043194	-0.563639
C65	C	0.981488	0.077752	-0.531819
C66	C	1.081733	0.146860	-0.531781
C67	C	1.081722	0.146862	-0.468178
C68	C	1.031594	0.112309	-0.436395
C69	C	0.981477	0.077754	-0.468215
C70	C	0.881243	0.008635	-0.531853
C71	C	0.881243	0.008637	-0.468242
C72	C	0.931363	0.043195	-0.436422
C73	C	0.931338	0.043204	-0.372829
N74	N	0.981461	0.077755	-0.341006
C75	C	1.031589	0.112308	-0.372789
C76	C	0.931387	0.043200	-0.760823
C77	C	0.931387	0.043204	-0.824428
C78	C	1.031642	0.112311	-0.824388
C79	C	1.031637	0.112310	-0.760781
C80	C	0.981511	0.077752	-0.729000
C81	C	1.031561	0.112310	-0.239217
C82	C	1.031543	0.112311	-0.175608
C83	C	0.931292	0.043201	-0.175655
C84	C	0.931306	0.043203	-0.239258
C85	C	0.981448	0.077759	-0.271038
O86	O	0.888709	0.013848	-0.339900
O87	O	1.074222	0.141687	-0.339872
N88	N	0.981519	0.077755	0.143783
H89	H	0.421601	-0.017328	-0.000021
C90	C	0.982309	-0.360369	-0.170038
C91	C	0.910508	-0.368412	-0.203265
C92	C	0.910850	-0.338787	-0.258408
H93	H	0.982965	-0.320723	-0.162238
H94	H	1.030589	-0.374472	-0.192712
H95	H	0.862241	-0.354306	-0.180596
H96	H	0.909837	-0.408051	-0.211081
H97	H	0.959130	-0.352890	-0.281082
H98	H	0.911509	-0.299143	-0.250602
H99	H	0.862139	-0.344244	-0.280962
H100	H	0.987267	-0.095092	0.099902
H101	H	0.541318	0.172838	-0.000008
H102	H	0.578918	-0.015425	-0.000020
C103	C	0.985096	-0.210859	-0.114988
C104	C	0.985743	-0.172139	-0.163229
C105	C	0.985143	-0.201732	-0.218390
H106	H	1.033159	-0.238393	-0.117368
H107	H	0.936174	-0.229658	-0.117308
H108	H	1.034660	-0.153350	-0.160911
H109	H	0.937684	-0.144605	-0.160870
H110	H	0.936221	-0.220531	-0.220709
H111	H	1.033207	-0.229265	-0.220763
H112	H	0.985574	-0.175465	-0.251128
H113	H	0.890484	0.015070	-0.265167
H114	H	0.384016	0.170944	-0.000016
H115	H	1.122539	0.175000	-0.442275
C116	C	1.136186	0.184442	-0.566171
C117	C	1.180052	0.214708	-0.524678
C118	C	1.230212	0.249346	-0.556331
H119	H	1.174725	0.161180	-0.590985
H120	H	1.101909	0.210678	-0.590970
H121	H	1.214326	0.188475	-0.499890
H122	H	1.141534	0.237981	-0.499863
H123	H	1.195935	0.275583	-0.581130
H124	H	1.268746	0.226080	-0.581144
H125	H	1.259975	0.269890	-0.528183
C126	C	0.977633	-0.633441	0.114854
C127	C	0.906694	-0.592913	0.118064
C128	C	0.907063	-0.563118	0.173113
H129	H	0.977139	-0.659571	0.147704
H130	H	1.026498	-0.614579	0.117163
H131	H	0.857842	-0.611773	0.115761
H132	H	0.907173	-0.566770	0.085227
H133	H	0.955928	-0.544257	0.175422
H134	H	0.906572	-0.589253	0.205958
H135	H	0.858936	-0.535613	0.175296
C136	C	0.985244	-0.210807	0.114931
C137	C	0.985962	-0.172066	0.163162
C138	C	0.985489	-0.201638	0.218331
H139	H	0.936355	-0.229621	0.117309
H140	H	1.033341	-0.238329	0.117265
H141	H	0.937870	-0.144554	0.160829
H142	H	1.034848	-0.153250	0.160805
H143	H	1.033586	-0.229160	0.220665
H144	H	0.936599	-0.220451	0.220702
H145	H	0.985984	-0.175358	0.251062
C146	C	0.982399	-0.360309	0.169999
C147	C	0.910590	-0.368362	0.203184
C148	C	0.910885	-0.338713	0.258327
H149	H	1.030657	-0.374378	0.192711
H150	H	0.983036	-0.320661	0.162179
H151	H	0.909961	-0.408002	0.211006
H152	H	0.862321	-0.354291	0.180490
H153	H	0.911522	-0.299064	0.250507
H154	H	0.959146	-0.352784	0.281034
H155	H	0.862160	-0.344168	0.280848
C156	C	1.086148	0.149845	-0.726346
C157	C	1.130058	0.180093	-0.767803
C158	C	1.180294	0.214671	-0.736107
H159	H	1.051945	0.176096	-0.701531
H160	H	1.124656	0.126526	-0.701545
H161	H	1.091555	0.203410	-0.792593
H162	H	1.164277	0.153857	-0.792619
H163	H	1.218802	0.191352	-0.711306
H164	H	1.146084	0.240919	-0.711293
H165	H	1.210099	0.235194	-0.764230
H166	H	1.072458	0.140447	-0.850277
C167	C	0.977829	-0.633507	-0.114854
C168	C	1.049954	-0.605818	-0.118075
C169	C	1.050603	-0.576065	-0.173122
H170	H	0.977403	-0.659654	-0.147704
H171	H	0.929771	-0.605950	-0.117154
H172	H	1.098000	-0.633373	-0.115780
H173	H	1.050395	-0.579662	-0.085237
H174	H	1.002545	-0.548507	-0.175422
H175	H	1.050175	-0.602216	-0.205969
H176	H	1.099534	-0.557270	-0.175313
C177	C	0.975475	-0.757332	0.114944
C178	C	0.904213	-0.736444	0.148186
C179	C	0.903567	-0.766048	0.203326
H180	H	0.974731	-0.796969	0.107139
H181	H	1.024118	-0.751937	0.137610
H182	H	0.855582	-0.741844	0.125525
H183	H	0.904942	-0.696811	0.156007
H184	H	0.952210	-0.760652	0.225992
H185	H	0.902825	-0.805684	0.195515
H186	H	0.855221	-0.751876	0.225890
C187	C	0.980562	-0.484229	0.169923
C188	C	1.051496	-0.524762	0.173136
C189	C	1.051148	-0.554540	0.228185
H190	H	0.981079	-0.458088	0.202772
H191	H	0.931694	-0.503084	0.172230
H192	H	1.100352	-0.505908	0.170834
H193	H	1.050994	-0.550914	0.140299
H194	H	1.002279	-0.573395	0.230493
H195	H	1.051662	-0.528395	0.261030
H196	H	1.099270	-0.582048	0.230370
C197	C	1.086022	0.149891	-0.273605
C198	C	1.129888	0.180161	-0.232114
C199	C	1.180052	0.214794	-0.263769
H200	H	1.124562	0.126626	-0.298415
H201	H	1.051749	0.176126	-0.298407
H202	H	1.164158	0.153929	-0.207321
H203	H	1.091369	0.203437	-0.207302
H204	H	1.145778	0.241029	-0.288571
H205	H	1.218586	0.191525	-0.288577
H206	H	1.209814	0.235340	-0.235622
C207	C	0.876937	0.005628	-0.858864
C208	C	0.833053	-0.024640	-0.817409
C209	C	0.782897	-0.059270	-0.849106
H210	H	0.838409	0.028895	-0.883685
H211	H	0.911218	-0.020608	-0.883658
H212	H	0.798775	0.001593	-0.792625
H213	H	0.871560	-0.047918	-0.792587
H214	H	0.817177	-0.085506	-0.873901
H215	H	0.744374	-0.035999	-0.873926
H216	H	0.753121	-0.079815	-0.820985
C217	C	0.876885	0.005782	-0.726245
C218	C	0.820295	0.040303	-0.689727
C219	C	0.770080	0.005854	-0.657864
H220	H	0.846957	-0.014800	-0.754244
H221	H	0.911139	-0.020418	-0.701392
H222	H	0.786045	0.066492	-0.714578
H223	H	0.850200	0.060884	-0.661717
H224	H	0.804335	-0.020346	-0.633012
H225	H	0.740159	-0.014726	-0.685868
H226	H	0.731684	0.029271	-0.633079
H227	H	0.987185	-0.095123	-0.099976
H228	H	0.840430	-0.019506	-0.557750
H229	H	0.975679	-0.749385	-0.099937
C230	C	0.826725	-0.028902	-0.433847
C231	C	0.782823	-0.059152	-0.475333
C232	C	0.732585	-0.093730	-0.443672
H233	H	0.860926	-0.055152	-0.409027
H234	H	0.788212	-0.005584	-0.409053
H235	H	0.821331	-0.082468	-0.500116
H236	H	0.748607	-0.032916	-0.500154
H237	H	0.694071	-0.070412	-0.418879
H238	H	0.766791	-0.119977	-0.418854
H239	H	0.702785	-0.114255	-0.471816
H240	H	1.072357	0.140455	-0.149703
H241	H	0.980424	-0.476131	-0.155041
C242	C	0.876727	0.005763	-0.141170
C243	C	0.792813	0.021456	-0.156639
C244	C	0.742529	-0.013018	-0.124875
H245	H	0.892407	-0.033218	-0.151569
H246	H	0.883852	0.010723	-0.098726
H247	H	0.785693	0.016491	-0.199073
H248	H	0.777107	0.060431	-0.146238
H249	H	0.749653	-0.008059	-0.082432
H250	H	0.758216	-0.051997	-0.135277
H251	H	0.685587	-0.002372	-0.135362
