data_functionalizedCrystal
_audit_creation_method	'MofGen! by Chris Wilmer'
_symmetry_space_group_name_H-M	'P1'
_symmetry_Int_Tables_number	1
_symmetry_cell_setting	triclinic
loop_
_symmetry_equiv_pos_as_xyz
  x,y,z
_cell_length_a	14.971482
_cell_length_b	22.010155
_cell_length_c	23.532407
_cell_angle_alpha	90.003838
_cell_angle_beta	96.769323
_cell_angle_gamma	89.992065
loop_
_atom_site_label
_atom_site_type_symbol
_atom_site_fract_x
_atom_site_fract_y
_atom_site_fract_z
O1	O	1.186170	-0.050529	-0.074197
O2	O	0.925675	-0.050533	-0.083087
O3	O	1.063777	-0.050514	0.004256
O4	O	1.048067	-0.050548	-0.161540
O5	O	1.063752	0.050536	0.004243
O6	O	0.925650	0.050517	-0.083100
O7	O	1.186144	0.050521	-0.074211
Cu8	Cu	1.055895	0.059746	-0.078657
Cu9	Cu	1.055925	-0.059758	-0.078640
O10	O	1.048042	0.050502	-0.161554
C11	C	0.892342	-0.000008	-0.082696
C12	C	0.793057	-0.000009	-0.081506
C13	C	0.746405	0.055074	-0.080953
C14	C	0.653118	0.055075	-0.079825
C15	C	0.606485	-0.000008	-0.079255
C16	C	0.653144	-0.055096	-0.079807
C17	C	0.746430	-0.055096	-0.080930
C18	C	0.458707	-0.055091	-0.077467
C19	C	0.365415	-0.055091	-0.076344
C20	C	0.365395	0.055080	-0.076362
C21	C	0.458681	0.055079	-0.077485
C22	C	0.505334	-0.000009	-0.078038
N23	N	1.055880	0.143798	-0.078668
C24	C	1.117079	0.563586	-0.039975
C25	C	1.117083	0.627194	-0.039971
O26	O	1.169080	0.660093	-0.007078
N27	N	1.055923	0.659005	-0.078634
C28	C	0.994749	0.627206	-0.117298
O29	O	0.942727	0.660105	-0.150182
C30	C	0.994741	0.563600	-0.117298
C31	C	1.055911	0.531791	-0.078637
C32	C	1.178243	0.531778	-0.001317
C33	C	1.178240	0.468175	-0.001321
C34	C	1.117072	0.436380	-0.039983
C35	C	1.055908	0.468188	-0.078642
C36	C	0.933564	0.531801	-0.155959
C37	C	0.933561	0.468191	-0.155956
C38	C	0.994731	0.436382	-0.117295
C39	C	0.994737	0.372790	-0.117308
N40	N	1.055897	0.340979	-0.078646
C41	C	1.117065	0.372773	-0.039984
C42	C	0.994768	0.760784	-0.117294
C43	C	0.994780	0.824389	-0.117296
C44	C	1.117113	0.824373	-0.039969
C45	C	1.117105	0.760766	-0.039969
C46	C	1.055928	0.728972	-0.078631
C47	C	1.117054	0.239202	-0.039996
C48	C	1.117048	0.175593	-0.040005
C49	C	0.994712	0.175615	-0.117330
C50	C	0.994721	0.239219	-0.117323
C51	C	1.055895	0.271010	-0.078651
O52	O	0.942764	0.339851	-0.150183
O53	O	1.169070	0.339867	-0.007100
C54	C	1.219477	-0.000005	-0.074601
C55	C	1.318762	-0.000008	-0.075791
C56	C	1.063365	0.000014	0.025467
C57	C	1.062162	0.000023	0.088689
N58	N	1.055944	0.856190	-0.078632
C59	C	1.048455	-0.000028	-0.182764
C60	C	1.049657	-0.000041	-0.245987
C61	C	0.975475	-0.000016	0.355227
C62	C	0.976593	-0.000011	0.295822
O63	O	0.907825	-0.000032	0.259372
N64	N	1.058695	-0.000003	0.272845
C65	C	1.139684	-0.000005	0.309277
O66	O	1.209621	0.000002	0.284278
C67	C	1.138566	-0.000014	0.368680
C68	C	1.056459	-0.000017	0.391654
C69	C	0.893375	-0.000019	0.378202
C70	C	0.892258	-0.000022	0.437603
C71	C	0.973242	-0.000023	0.474029
C72	C	1.055342	-0.000020	0.451055
C73	C	1.219555	-0.000021	0.405111
C74	C	1.218430	-0.000031	0.464518
C75	C	1.136322	-0.000033	0.487492
C76	C	1.135209	-0.000024	0.546883
N77	N	1.053107	-0.000033	0.569860
C78	C	0.972123	-0.000032	0.533433
C79	C	1.142027	0.000013	0.184524
C80	C	1.143146	0.000026	0.125121
C81	C	0.980054	0.000019	0.111671
C82	C	0.978936	0.000010	0.171075
C83	C	1.059925	0.000004	0.207501
C84	C	0.969784	-0.000039	0.658180
C85	C	0.968674	-0.000040	0.717587
C86	C	1.131765	-0.000036	0.731032
C87	C	1.132876	-0.000032	0.671630
C88	C	1.051878	-0.000035	0.635205
O89	O	1.203940	-0.000007	0.583368
O90	O	0.902198	-0.000047	0.558440
H91	H	0.327448	-0.099945	-0.075880
H92	H	0.901810	-0.000039	0.736288
H93	H	0.615169	-0.099945	-0.079338
O94	O	0.891161	0.000042	0.622745
C95	C	0.886899	0.052387	0.587997
H96	H	0.957860	0.069835	0.584932
H97	H	0.846228	0.089033	0.607582
C98	C	0.754169	0.015066	0.531491
C99	C	0.841326	0.036493	0.527722
H100	H	0.726053	0.005263	0.494311
H101	H	0.757038	-0.020199	0.554902
H102	H	0.720287	0.045607	0.547814
H103	H	0.875208	0.005949	0.511406
H104	H	0.838461	0.071753	0.504307
H105	H	0.784413	-0.099951	-0.081381
O106	O	1.237633	0.562590	0.036320
C107	C	1.223587	0.547061	0.092711
H108	H	1.189091	0.500888	0.092673
H109	H	1.179244	0.582871	0.110378
C110	C	1.357113	0.600804	0.130544
C111	C	1.314751	0.544092	0.130498
H112	H	1.413346	0.598976	0.153854
H113	H	1.366575	0.611269	0.092553
H114	H	1.320151	0.630641	0.145265
H115	H	1.351708	0.514259	0.115771
H116	H	1.305298	0.533622	0.168489
O117	O	1.176503	0.144790	-0.002392
C118	C	1.230503	0.186497	0.031723
H119	H	1.193837	0.231841	0.032405
H120	H	1.296779	0.193256	0.013162
C121	C	1.294521	0.105983	0.092303
C122	C	1.249485	0.161674	0.093145
H123	H	1.306234	0.090670	0.130191
H124	H	1.258144	0.077883	0.069318
H125	H	1.349746	0.111622	0.076833
H126	H	1.194256	0.156032	0.108608
H127	H	1.285854	0.189772	0.116134
O128	O	1.176374	0.729821	-0.002358
C129	C	1.128746	0.693078	0.032837
H130	H	1.058578	0.683536	0.010202
H131	H	1.122991	0.717632	0.074908
C132	C	1.265460	0.644385	0.072828
C133	C	1.179281	0.632660	0.045025
H134	H	1.296633	0.607117	0.080348
H135	H	1.297549	0.669140	0.049118
H136	H	1.260653	0.664848	0.107884
H137	H	1.184090	0.612205	0.009966
H138	H	1.147193	0.607900	0.068729
H139	H	1.166917	0.850272	-0.008487
O140	O	0.874261	0.562719	-0.193567
C141	C	0.921827	0.599518	-0.228751
H142	H	0.992355	0.580348	-0.229794
H143	H	0.926671	0.647726	-0.210934
C144	C	0.785345	0.624035	-0.288561
C145	C	0.871967	0.600487	-0.289846
H146	H	0.754589	0.624635	-0.326247
H147	H	0.753298	0.599244	-0.264856
H148	H	0.789394	0.664206	-0.273711
H149	H	0.867917	0.560314	-0.304689
H150	H	0.904013	0.625271	-0.313555
O151	O	0.874100	0.437401	-0.193570
C152	C	0.820103	0.479121	-0.227679
H153	H	0.856772	0.524457	-0.228356
H154	H	0.753829	0.485895	-0.209115
C155	C	0.756072	0.398621	-0.288267
C156	C	0.801113	0.454302	-0.289103
H157	H	0.744354	0.383310	-0.326156
H158	H	0.792448	0.370513	-0.265287
H159	H	0.700849	0.404273	-0.272795
H160	H	0.856340	0.448647	-0.304569
H161	H	0.764746	0.482408	-0.312088
O162	O	0.901466	-0.000014	0.076199
C163	C	0.920068	0.000006	0.018843
H164	H	0.990311	-0.019117	0.016516
H165	H	0.916504	0.048486	0.001671
C166	C	0.764044	-0.016140	-0.014608
C167	C	0.850315	-0.039632	-0.017468
H168	H	0.721015	-0.040588	-0.037008
H169	H	0.751510	-0.016151	0.024033
H170	H	0.761086	0.024259	-0.028918
H171	H	0.853275	-0.080028	-0.003152
H172	H	0.862848	-0.039629	-0.056108
O173	O	0.935279	0.855190	-0.154877
C174	C	0.881311	0.813479	-0.189009
H175	H	0.880515	0.768140	-0.165658
H176	H	0.909973	0.806709	-0.231347
C177	C	0.785696	0.893993	-0.229328
C178	C	0.784712	0.838309	-0.200645
H179	H	0.726110	0.909310	-0.236508
H180	H	0.822057	0.922095	-0.206334
H181	H	0.809585	0.888344	-0.264606
H182	H	0.760833	0.843960	-0.165365
H183	H	0.748345	0.810208	-0.223633
H184	H	1.166867	0.265080	-0.008505
O185	O	0.607681	0.108542	-0.079359
C186	C	0.543151	0.111836	-0.127996
H187	H	0.525665	0.064007	-0.144255
H188	H	0.571682	0.139017	-0.162945
C189	C	0.479223	0.202070	-0.091983
C190	C	0.457739	0.143325	-0.111950
H191	H	0.426538	0.221496	-0.082086
H192	H	0.522699	0.199852	-0.059216
H193	H	0.502999	0.224713	-0.121110
H194	H	0.433974	0.120680	-0.082821
H195	H	0.414257	0.145539	-0.144712
O196	O	0.320097	0.108607	-0.075922
C197	C	0.332320	0.142114	-0.125480
H198	H	0.350580	0.109877	-0.160232
H199	H	0.388848	0.176465	-0.114998
C200	C	0.222217	0.215454	-0.104148
C201	C	0.244637	0.175858	-0.146833
H202	H	0.168132	0.236271	-0.117318
H203	H	0.213984	0.192881	-0.070759
H204	H	0.269331	0.244074	-0.095416
H205	H	0.197529	0.147234	-0.155559
H206	H	0.252860	0.198427	-0.180224
O207	O	0.503962	0.108602	-0.077939
C208	C	0.491717	0.142131	-0.028392
H209	H	0.473468	0.109910	0.006369
H210	H	0.435173	0.176478	-0.038887
C211	C	0.601788	0.215462	-0.049741
C212	C	0.579382	0.175886	-0.007046
H213	H	0.655862	0.236286	-0.036575
H214	H	0.610036	0.192875	-0.083123
H215	H	0.554661	0.244079	-0.058483
H216	H	0.626504	0.147266	0.001691
H217	H	0.571144	0.198470	0.026338
O218	O	1.220788	0.000043	0.219825
C219	C	1.293484	0.000037	0.186801
H220	H	1.270358	0.019172	0.142487
H221	H	1.318692	-0.048439	0.182542
C222	C	1.398484	0.016167	0.270765
C223	C	1.370083	0.039673	0.216340
H224	H	1.445736	0.040614	0.288987
H225	H	1.349508	0.016169	0.293015
H226	H	1.419485	-0.024229	0.267208
H227	H	1.349073	0.080066	0.219897
H228	H	1.419057	0.039680	0.194091
O229	O	0.935215	0.270027	-0.154899
C230	C	0.881243	0.228321	-0.189034
H231	H	0.880455	0.182977	-0.165689
H232	H	0.909896	0.221560	-0.231375
C233	C	0.785616	0.308839	-0.229331
C234	C	0.784642	0.253149	-0.200657
H235	H	0.726028	0.324154	-0.236503
H236	H	0.821980	0.336938	-0.206335
H237	H	0.809498	0.303197	-0.264612
H238	H	0.760771	0.258792	-0.165373
H239	H	0.748272	0.225051	-0.223647
H240	H	0.496689	-0.099950	-0.077917
O241	O	1.237419	0.437299	0.036403
C242	C	1.189626	0.400651	0.071583
H243	H	1.119548	0.391040	0.048843
H244	H	1.183651	0.425321	0.113567
C245	C	1.326225	0.352078	0.111948
C246	C	1.240156	0.340270	0.084015
H247	H	1.357395	0.314834	0.119619
H248	H	1.358425	0.376770	0.088248
H249	H	1.321233	0.372638	0.146931
H250	H	1.245148	0.319718	0.049030
H251	H	1.207957	0.315574	0.107710
O252	O	0.935417	0.144656	-0.154907
C253	C	0.982994	0.107864	-0.190103
H254	H	1.053189	0.098334	-0.167499
H255	H	0.988681	0.132369	-0.232204
C256	C	0.846244	0.059151	-0.229973
C257	C	0.932457	0.047442	-0.202209
H258	H	0.815069	0.021881	-0.237443
H259	H	0.814189	0.083939	-0.206263
H260	H	0.850995	0.079573	-0.265054
H261	H	0.927704	0.027027	-0.167125
H262	H	0.964509	0.022648	-0.225913
O263	O	0.814618	0.000011	0.342903
C264	C	0.741927	-0.000010	0.375932
H265	H	0.765048	0.019111	0.420251
H266	H	0.716743	-0.048489	0.380173
C267	C	0.636910	0.016141	0.291978
C268	C	0.665306	0.039631	0.346410
H269	H	0.589644	0.040590	0.273767
H270	H	0.685882	0.016152	0.269725
H271	H	0.615929	-0.024259	0.295520
H272	H	0.686296	0.080026	0.342867
H273	H	0.616334	0.039627	0.368662
O274	O	1.299394	-0.000048	0.382898
C275	C	1.370620	-0.000039	0.427798
H276	H	1.345905	-0.019173	0.468165
H277	H	1.395566	0.048439	0.436194
C278	C	1.478465	-0.016168	0.361397
C279	C	1.448112	-0.039673	0.410974
H280	H	1.526268	-0.040614	0.351019
H281	H	1.430479	-0.016172	0.331146
H282	H	1.499247	0.024230	0.368400
H283	H	1.427320	-0.080067	0.403969
H284	H	1.496096	-0.039677	0.441224
H285	H	0.825398	-0.000029	0.456302
O286	O	0.899099	-0.000025	0.193295
C287	C	0.827867	-0.000005	0.148398
H288	H	0.852584	-0.019125	0.108023
H289	H	0.802900	0.048474	0.140021
C290	C	0.720040	-0.016157	0.214801
C291	C	0.750395	-0.039647	0.165213
H292	H	0.672249	-0.040608	0.225173
H293	H	0.768029	-0.016168	0.245049
H294	H	0.699240	0.024242	0.207814
H295	H	0.771205	-0.080042	0.172203
H296	H	0.702407	-0.039643	0.134966
H297	H	1.210006	0.000037	0.106422
H298	H	1.284383	-0.000039	0.494174
H299	H	1.199734	-0.000022	0.652924
O300	O	1.210347	-0.000064	0.766503
C301	C	1.191744	-0.000056	0.823859
H302	H	1.121512	-0.019186	0.826182
H303	H	1.195283	0.048421	0.841043
C304	C	1.347777	-0.016195	0.857307
C305	C	1.261519	-0.039695	0.860161
H306	H	1.390819	-0.040644	0.879700
H307	H	1.360312	-0.016198	0.818666
H308	H	1.350713	0.024202	0.871626
H309	H	1.258581	-0.080088	0.845835
H310	H	1.248986	-0.039699	0.898801
H311	H	0.784366	0.099929	-0.081422
H312	H	0.944953	0.734900	-0.148781
