data_functionalizedCrystal
_audit_creation_method	'MofGen! by Chris Wilmer'
_symmetry_space_group_name_H-M	'P1'
_symmetry_Int_Tables_number	1
_symmetry_cell_setting	triclinic
loop_
_symmetry_equiv_pos_as_xyz
  x,y,z
_cell_length_a	19.288864
_cell_length_b	14.853567
_cell_length_c	18.366186
_cell_angle_alpha	89.997562
_cell_angle_beta	89.977106
_cell_angle_gamma	83.385589
loop_
_atom_site_label
_atom_site_type_symbol
_atom_site_fract_x
_atom_site_fract_y
_atom_site_fract_z
O1	O	0.921732	0.112464	-0.060777
O2	O	0.719523	0.127635	-0.060727
O3	O	0.826029	-0.011211	-0.060755
O4	O	0.815226	0.251310	-0.060748
O5	O	0.826011	-0.011217	0.060344
O6	O	0.719505	0.127629	0.060373
O7	O	0.921714	0.112457	0.060322
Zn8	Zn	0.820607	0.120042	0.079575
Zn9	Zn	0.820631	0.120051	-0.079979
O10	O	0.815208	0.251304	0.060351
C11	C	0.693636	0.127144	-0.000171
C12	C	0.616527	0.125679	-0.000152
C13	C	0.825530	-0.044800	-0.000208
C14	C	0.824064	-0.144875	-0.000214
C15	C	0.572106	0.207147	-0.000161
C16	C	0.499654	0.205770	-0.000169
C17	C	0.471627	0.122920	-0.000182
C18	C	0.516058	0.041441	-0.000169
C19	C	0.588508	0.042820	-0.000154
C20	C	0.363152	0.057794	-0.042635
C21	C	0.290702	0.056418	-0.042655
C22	C	0.248167	0.118664	-0.000227
C23	C	0.278088	0.182300	0.042212
C24	C	0.350538	0.183679	0.042228
C25	C	0.393068	0.121416	-0.000199
C26	C	0.125185	0.198645	-0.000243
C27	C	0.052732	0.197265	-0.000247
C28	C	0.069138	0.032933	-0.000254
C29	C	0.141589	0.034316	-0.000244
C30	C	0.169608	0.117174	-0.000242
C31	C	0.754596	-0.557014	-0.000182
C32	C	0.881128	-0.579015	-0.000214
C33	C	0.882507	-0.484989	-0.000219
C34	C	0.819930	-0.426971	-0.000204
C35	C	0.755974	-0.462979	-0.000185
C36	C	0.946462	-0.448973	-0.000231
C37	C	0.947844	-0.354942	-0.000235
C38	C	0.885266	-0.296923	-0.000225
C39	C	0.821307	-0.332936	-0.000207
C40	C	0.758730	-0.274918	-0.000192
C41	C	0.694770	-0.310930	-0.000179
C42	C	0.693396	-0.404960	-0.000176
C43	C	0.886641	-0.202893	-0.000228
C44	C	0.760107	-0.180883	-0.000194
C45	C	0.947601	0.112949	-0.000236
C46	C	1.024710	0.114414	-0.000259
C47	C	0.815707	0.284893	-0.000198
C48	C	0.817174	0.384968	-0.000197
N49	N	0.820595	0.120035	0.188466
N50	N	0.820647	0.120050	-0.188870
C51	C	0.867772	0.058584	0.226553
C52	C	0.867776	0.058580	0.302781
C53	C	0.820611	0.120043	0.340918
C54	C	0.773426	0.181498	0.302822
C55	C	0.773418	0.181495	0.226595
C56	C	0.811590	0.202186	0.461682
C57	C	0.811602	0.202191	0.537907
C58	C	0.820631	0.120054	0.576026
C59	C	0.829661	0.037908	0.537910
C60	C	0.829653	0.037905	0.461684
C61	C	0.820614	0.120053	0.423573
C62	C	0.867814	0.058594	0.696769
C63	C	0.867814	0.058588	0.772998
C64	C	0.773467	0.181514	0.773037
C65	C	0.773464	0.181512	0.696809
C66	C	0.820641	0.120052	0.658679
H67	H	0.463479	0.272114	-0.000174
H68	H	0.938716	-0.173576	-0.000234
O69	O	0.839258	-0.050743	0.420644
H70	H	0.792801	-0.056295	0.386006
O71	O	0.839394	-0.050693	0.579010
H72	H	0.837872	-0.036895	0.638418
H73	H	0.046319	-0.034525	-0.000311
H74	H	0.735000	0.231536	0.195584
O75	O	0.382818	0.252276	0.088028
H76	H	0.341075	0.295318	0.117543
O77	O	0.232224	0.249441	0.087985
H78	H	0.176819	0.237786	0.080855
O79	O	0.636424	-0.045055	-0.000142
H80	H	0.669856	-0.048354	-0.049491
O81	O	0.627280	-0.248345	-0.000156
H82	H	0.582572	-0.289177	-0.000140
H83	H	0.147999	0.266113	-0.000231
O84	O	1.013952	-0.511548	-0.000235
H85	H	1.016365	-0.554911	-0.049594
H86	H	0.709148	-0.133651	-0.000186
O87	O	0.685612	-0.595845	-0.000160
H88	H	0.695163	-0.670977	-0.000155
H89	H	0.932075	-0.626258	-0.000220
O90	O	1.016824	-0.316101	-0.000266
H91	H	1.060105	-0.372242	-0.000284
O92	O	0.801877	0.290785	0.579017
H93	H	0.795589	0.347899	0.539707
O94	O	0.918645	-0.007712	0.185426
H95	H	0.951445	-0.050451	0.224722
O96	O	0.722594	0.247811	0.814158
H97	H	0.730527	0.237495	0.873563
O98	O	0.918668	-0.007692	0.343876
H99	H	0.951475	-0.050422	0.304556
O100	O	0.624414	-0.443798	-0.000146
H101	H	0.633972	-0.518929	-0.000134
H102	H	0.594914	0.274617	-0.000161
O103	O	0.801849	0.290777	0.420563
H104	H	0.844353	0.331867	0.435156
O105	O	0.918686	-0.007701	0.655634
H106	H	0.951484	-0.050445	0.694929
H107	H	0.016564	0.263609	-0.000250
O108	O	0.189508	-0.053554	-0.000240
H109	H	0.157849	-0.111398	-0.000255
O110	O	0.918707	-0.007684	0.814084
H111	H	0.951515	-0.050409	0.774761
H112	H	0.266346	0.004605	-0.077214
O113	O	0.722588	0.247801	0.655721
H114	H	0.689795	0.290546	0.695044
H115	H	0.735022	0.231541	0.333877
H116	H	0.493234	-0.026016	-0.000190
O117	O	0.409028	-0.009342	-0.088404
H118	H	0.376051	-0.053811	-0.117926
