data_functionalizedCrystal
_audit_creation_method	'MofGen! by Chris Wilmer'
_symmetry_space_group_name_H-M	'P1'
_symmetry_Int_Tables_number	1
_symmetry_cell_setting	triclinic
loop_
_symmetry_equiv_pos_as_xyz
  x,y,z
_cell_length_a	10.654550
_cell_length_b	10.654550
_cell_length_c	9.130313
_cell_angle_alpha	89.998357
_cell_angle_beta	89.991721
_cell_angle_gamma	84.484903
loop_
_atom_site_label
_atom_site_type_symbol
_atom_site_fract_x
_atom_site_fract_y
_atom_site_fract_z
O1	O	-1.667842	-0.176395	0.121916
O2	O	-1.302364	-0.193201	0.121892
O3	O	-1.493506	-0.002059	0.121899
O4	O	-1.476700	-0.367537	0.121909
O5	O	-1.493488	-0.002060	-0.121700
O6	O	-1.302345	-0.193202	-0.121707
O7	O	-1.667824	-0.176396	-0.121683
Cu8	Cu	-1.485083	-0.184799	-0.143937
Cu9	Cu	-1.485104	-0.184798	0.144146
O10	O	-1.476681	-0.367538	-0.121690
C11	C	-1.255556	-0.191968	0.000089
C12	C	-1.116113	-0.188276	0.000080
N13	N	-1.485077	-0.184800	-0.346560
C14	C	-1.492263	0.044739	0.000101
C15	C	-1.488571	0.184182	0.000106
C16	C	-1.714631	-0.177630	0.000123
C17	C	-1.854074	-0.181321	0.000141
C18	C	-1.036627	-0.300817	0.000105
C19	C	-0.905607	-0.297341	0.000130
C20	C	-0.933570	-0.068771	0.000113
C21	C	-1.064588	-0.072249	0.000077
C22	C	-1.020482	-0.432780	0.000121
C23	C	-0.889461	-0.429304	0.000146
C24	C	-1.477925	-0.414336	0.000111
C25	C	-1.481616	-0.553779	0.000116
C26	C	-1.601112	0.263668	0.000109
C27	C	-1.597636	0.394688	0.000119
C28	C	-1.369066	0.366725	0.000117
C29	C	-1.372544	0.235707	0.000118
C30	C	-1.733075	0.279813	0.000104
C31	C	-1.729599	0.410834	0.000114
C32	C	-1.400427	-0.269400	-0.423253
C33	C	-1.400452	-0.269397	-0.576590
C34	C	-1.569779	-0.100184	-0.576528
C35	C	-1.569759	-0.100193	-0.423194
C36	C	-1.302664	-0.367090	-0.423290
C37	C	-1.302689	-0.367088	-0.576627
N38	N	-1.485120	-0.184788	0.346769
H39	H	-1.129302	0.019393	0.000036
O40	O	-1.067731	-0.488436	0.139432
H41	H	-1.171738	-0.488942	0.133668
H42	H	-0.843782	-0.469185	-0.105021
O43	O	-1.251153	0.149984	0.000124
H44	H	-1.247277	0.089631	0.099418
H45	H	-1.274601	0.408693	0.000128
H46	H	-0.891602	0.025694	0.000132
O47	O	-1.059357	-0.501032	-0.134988
H48	H	-0.974483	-0.531691	-0.201108
H49	H	-1.784698	0.250456	0.102046
O50	O	-1.788726	0.232601	-0.139208
H51	H	-1.873638	0.184341	-0.112435
H52	H	-0.847736	-0.479025	0.102101
O53	O	-1.331071	-0.494953	-0.368143
H54	H	-1.345007	-0.557542	-0.462749
H55	H	-1.779313	0.452594	-0.101827
H56	H	-1.211475	-0.336504	-0.375759
O57	O	-1.661062	-0.008951	-0.340467
H58	H	-1.719937	0.049888	-0.419520
H59	H	-1.333211	-0.458304	-0.624175
O60	O	-1.661107	-0.008925	-0.659180
H61	H	-1.646897	-0.023125	-0.778688
O62	O	-1.174872	-0.338556	-0.631816
H63	H	-1.112280	-0.324577	-0.537231
H64	H	-1.769488	0.456477	0.105296
