data_functionalizedCrystal
_audit_creation_method	'MofGen! by Chris Wilmer'
_symmetry_space_group_name_H-M	'P1'
_symmetry_Int_Tables_number	1
_symmetry_cell_setting	triclinic
loop_
_symmetry_equiv_pos_as_xyz
  x,y,z
_cell_length_a	8.497365
_cell_length_b	11.169416
_cell_length_c	11.169417
_cell_angle_alpha	89.988973
_cell_angle_beta	90.031044
_cell_angle_gamma	89.951407
loop_
_atom_site_label
_atom_site_type_symbol
_atom_site_fract_x
_atom_site_fract_y
_atom_site_fract_z
Zn1	Zn	-0.891925	-0.477478	-1.835097
Zn2	Zn	-0.628141	-0.678279	-1.834948
Zn3	Zn	-0.628159	-0.477611	-1.634343
Zn4	Zn	-0.891879	-0.678121	-1.634391
O5	O	-0.760026	-0.577872	-1.734695
O6	O	-0.856945	-0.504125	-2.003027
O7	O	-0.407380	-0.651782	-1.808255
O8	O	-0.663175	-0.309644	-1.661016
O9	O	-0.663144	-0.651652	-2.002917
O10	O	-0.856963	-0.309546	-1.808509
O11	O	-0.407394	-0.504352	-1.660872
O12	O	-0.663131	-0.504199	-1.466400
O13	O	-1.112648	-0.651383	-1.661097
O14	O	-0.856885	-0.651512	-1.466435
O15	O	-1.112682	-0.503971	-1.808555
O16	O	-0.663099	-0.846207	-1.808301
O17	O	-0.856867	-0.846091	-1.660953
C18	C	-0.760011	-0.889697	-1.734648
C19	C	-0.760057	-1.023097	-1.734738
C20	C	-0.760006	-0.577854	-1.422870
C21	C	-0.760035	-0.577875	-1.289470
C22	C	-0.350146	-0.578003	-1.734608
C23	C	-0.171503	-0.577757	-1.734779
C24	C	-0.760047	-0.577891	-2.047737
C25	C	-0.760056	-0.577899	-2.181137
C26	C	-0.760076	-0.264830	-1.734774
C27	C	-0.760098	-0.131430	-1.734808
