data_functionalizedCrystal
_audit_creation_method	'MofGen! by Chris Wilmer'
_symmetry_space_group_name_H-M	'P1'
_symmetry_Int_Tables_number	1
_symmetry_cell_setting	triclinic
loop_
_symmetry_equiv_pos_as_xyz
  x,y,z
_cell_length_a	14.519709
_cell_length_b	14.519709
_cell_length_c	15.455322
_cell_angle_alpha	92.669304
_cell_angle_beta	87.319028
_cell_angle_gamma	83.680145
loop_
_atom_site_label
_atom_site_type_symbol
_atom_site_fract_x
_atom_site_fract_y
_atom_site_fract_z
O1	O	1.227897	0.116870	-0.072019
O2	O	1.727897	0.616870	0.427981
O3	O	0.959422	0.131105	-0.072046
O4	O	1.459422	0.631105	0.427954
O5	O	1.100778	-0.010251	-0.072024
O6	O	1.600778	0.489749	0.427976
O7	O	1.086542	0.258225	-0.072041
O8	O	1.586542	0.758225	0.427959
O9	O	1.092693	-0.002200	0.072237
O10	O	1.592693	0.497800	0.572237
O11	O	0.951338	0.139156	0.072215
O12	O	1.451338	0.639156	0.572215
O13	O	1.219813	0.124921	0.072242
O14	O	1.719813	0.624921	0.572242
Cu15	Cu	1.084837	0.132773	0.085400
Cu16	Cu	1.584837	0.632773	0.585400
Cu17	Cu	1.094398	0.123252	-0.085205
Cu18	Cu	1.594398	0.623252	0.414795
O19	O	1.078457	0.266276	0.072220
O20	O	1.578457	0.766276	0.572220
C21	C	1.096072	-0.040585	0.000106
C22	C	1.596072	0.459415	0.500106
C23	C	1.094084	-0.142966	0.000107
C24	C	1.594084	0.357034	0.500107
C25	C	0.921020	0.134467	0.000081
C26	C	1.421020	0.634467	0.500081
C27	C	0.818639	0.132478	0.000071
C28	C	1.318639	0.632478	0.500071
C29	C	0.443741	0.125161	0.000111
C30	C	0.943741	0.625161	0.500111
C31	C	0.548050	0.127193	0.000100
C32	C	1.048050	0.627193	0.500100
C33	C	0.631187	0.128819	0.000090
C34	C	1.131187	0.628819	0.500090
C35	C	0.735502	0.130851	0.000080
C36	C	1.235502	0.630851	0.500080
C37	C	1.086765	-0.517863	0.000083
C38	C	1.586765	-0.017863	0.500083
C39	C	1.088798	-0.413555	0.000090
C40	C	1.588798	0.086445	0.500090
C41	C	1.090424	-0.330418	0.000096
C42	C	1.590424	0.169582	0.500096
C43	C	1.092457	-0.226103	0.000101
C44	C	1.592457	0.273897	0.500101
C45	C	1.258215	0.121559	0.000113
C46	C	1.758215	0.621559	0.500113
C47	C	1.360596	0.123547	0.000117
C48	C	1.860596	0.623547	0.500117
C49	C	1.083163	0.296610	0.000087
C50	C	1.583163	0.796610	0.500087
C51	C	1.085152	0.398991	0.000081
C52	C	1.585152	0.898991	0.500081
N53	N	1.078119	0.139469	0.205395
N54	N	1.578119	0.639469	0.705395
C55	C	1.138193	0.079439	0.250798
C56	C	1.638193	0.579439	0.750798
C57	C	1.133121	0.084511	0.341605
C58	C	1.633121	0.584511	0.841605
C59	C	1.067979	0.149619	0.387007
C60	C	1.567979	0.649619	0.887007
C61	C	1.007899	0.209652	0.341598
C62	C	1.507899	0.709652	0.841598
C63	C	1.012968	0.204575	0.250792
C64	C	1.512968	0.704575	0.750792
C65	C	1.046104	0.171510	0.658585
C66	C	1.546104	0.671510	1.158585
C67	C	1.041042	0.176585	0.749397
C68	C	1.541042	0.676585	1.249397
C69	C	1.166263	0.051442	0.749399
C70	C	1.666263	0.551442	1.249399
C71	C	1.171329	0.046374	0.658592
C72	C	1.671329	0.546374	1.158592
C73	C	1.111246	0.106404	0.613190
C74	C	1.611246	0.606404	1.113190
N75	N	1.062795	0.154807	0.479827
N76	N	1.562795	0.654807	0.979827
N77	N	1.116426	0.101210	0.520372
N78	N	1.616426	0.601210	1.020372
N79	N	1.101115	0.116554	0.794801
N80	N	1.601115	0.616554	1.294801
H81	H	1.191241	0.026425	0.213838
H82	H	1.691241	0.526425	0.713838
F83	F	1.197056	0.020619	0.389927
F84	F	1.697056	0.520619	0.889927
F85	F	1.230201	-0.012444	0.797724
F86	F	1.730201	0.487556	1.297724
H87	H	1.224372	-0.006642	0.621627
H88	H	1.724372	0.493358	1.121627
H89	H	0.987993	0.229607	0.786359
H90	H	1.487993	0.729607	1.286359
H91	H	0.997183	0.220390	0.621626
H92	H	1.497183	0.720390	1.121626
F93	F	0.938565	0.278941	0.389918
F94	F	1.438565	0.778941	0.889918
H95	H	0.964048	0.253457	0.213825
H96	H	1.464048	0.753457	0.713825
