data_functionalizedCrystal
_audit_creation_method	'MofGen! by Chris Wilmer'
_symmetry_space_group_name_H-M	'P1'
_symmetry_Int_Tables_number	1
_symmetry_cell_setting	triclinic
loop_
_symmetry_equiv_pos_as_xyz
  x,y,z
_cell_length_a	12.759401
_cell_length_b	29.839131
_cell_length_c	12.759393
_cell_angle_alpha	89.961905
_cell_angle_beta	89.982620
_cell_angle_gamma	90.041581
loop_
_atom_site_label
_atom_site_type_symbol
_atom_site_fract_x
_atom_site_fract_y
_atom_site_fract_z
Zn1	Zn	1.606049	-0.178824	-0.593935
Zn2	Zn	1.605865	-0.253963	-0.418236
Zn3	Zn	1.430354	-0.178848	-0.418275
Zn4	Zn	1.430257	-0.253928	-0.593877
O5	O	1.518131	-0.216391	-0.506081
O6	O	1.753045	-0.188796	-0.570636
O7	O	1.582546	-0.244023	-0.271220
O8	O	1.453778	-0.115978	-0.441617
O9	O	1.752910	-0.244000	-0.441551
O10	O	1.582860	-0.115960	-0.570674
O11	O	1.453599	-0.188837	-0.271248
O12	O	1.283320	-0.188803	-0.441561
O13	O	1.453613	-0.243941	-0.740906
O14	O	1.283249	-0.243964	-0.570575
O15	O	1.582766	-0.188762	-0.740949
O16	O	1.582452	-0.316825	-0.441495
O17	O	1.453435	-0.316800	-0.570538
C18	C	1.245164	-0.216382	-0.506066
C19	C	1.128387	-0.216390	-0.506085
C20	C	1.073516	-0.245158	-0.573152
C21	C	0.963792	-0.245164	-0.573163
C22	C	0.963820	-0.187631	-0.439032
C23	C	1.073542	-0.187624	-0.439027
C24	C	1.128361	-0.273924	-0.640210
C25	C	1.073489	-0.302695	-0.707282
C26	C	0.963765	-0.302701	-0.707293
C27	C	0.908912	-0.273935	-0.640233
C28	C	1.517942	-0.333113	-0.506029
C29	C	1.517956	-0.383048	-0.506041
C30	C	1.585433	-0.692692	-0.438986
C31	C	1.585563	-0.880365	-0.439027
O32	O	1.642783	-0.904630	-0.381974
N33	N	1.518349	-0.903833	-0.506160
C34	C	1.451103	-0.880379	-0.573292
O35	O	1.393945	-0.904647	-0.630402
C36	C	1.450980	-0.692707	-0.573256
C37	C	1.518190	-0.669242	-0.506111
C38	C	1.652639	-0.669226	-0.371848
C39	C	1.652602	-0.622311	-0.371834
C40	C	1.585359	-0.598861	-0.438959
C41	C	1.518153	-0.622326	-0.506098
C42	C	1.383740	-0.669255	-0.640393
C43	C	1.383717	-0.622334	-0.640380
C44	C	1.450927	-0.598868	-0.573235
C45	C	1.450873	-0.551961	-0.573209
N46	N	1.518086	-0.528493	-0.506076
C47	C	1.585329	-0.551943	-0.438951
C48	C	1.451171	-0.978910	-0.573305
C49	C	1.451201	-1.025828	-0.573313
C50	C	1.585662	-1.025810	-0.439049
C51	C	1.585626	-0.978891	-0.439036
C52	C	1.518385	-0.955442	-0.506172
C53	C	1.585246	-0.453417	-0.438927
C54	C	1.585199	-0.406498	-0.438916
C55	C	1.450743	-0.406520	-0.573184
C56	C	1.450784	-0.453435	-0.573191
C57	C	1.518044	-0.476883	-0.506059
O58	O	1.393691	-0.527667	-0.630240
O59	O	1.642496	-0.527668	-0.381867
C60	C	1.585470	-0.739607	-0.439000
C61	C	1.518264	-0.763073	-0.506138
C62	C	1.451021	-0.739623	-0.573263
C63	C	1.518294	-0.809991	-0.506146
C64	C	1.585537	-0.833440	-0.439021
C65	C	1.652750	-0.809972	-0.371888
C66	C	1.652713	-0.763057	-0.371875
C67	C	1.383808	-0.763091	-0.640396
C68	C	1.383850	-0.810006	-0.640404
C69	C	1.451093	-0.833456	-0.573279
C70	C	1.792164	-0.216399	-0.506096
C71	C	1.908941	-0.216403	-0.506102
C72	C	1.518199	-0.216345	-0.780114
C73	C	1.518229	-0.216325	-0.896891
C74	C	1.518350	-0.099212	-0.506156
C75	C	1.518444	-0.049278	-0.506188
C76	C	1.451114	-0.187584	-0.951774
C77	C	1.451146	-0.187571	-1.061498
C78	C	1.585415	-0.245041	-1.061447
C79	C	1.585377	-0.245056	-0.951725
C80	C	1.383966	-0.158854	-0.896940
C81	C	1.316847	-0.130110	-0.951823
C82	C	1.316879	-0.130097	-1.061547
C83	C	1.384029	-0.158827	-1.116388
C84	C	1.518124	-0.216404	-0.233113
C85	C	1.518298	-0.216297	-0.116337
H86	H	1.118220	-0.164195	-0.384423
O87	O	1.650666	-0.272991	-0.898567
C88	C	1.783787	-0.330017	-0.910085
C89	C	1.709927	-0.298393	-0.970417
H90	H	1.831703	-0.350570	-0.968150
H91	H	1.838816	-0.309426	-0.858752
H92	H	1.735458	-0.353491	-0.858677
H93	H	1.758171	-0.274912	-1.021882
H94	H	1.654895	-0.319012	-1.021684
O95	O	1.717856	-0.740246	-0.306542
C96	C	1.732056	-0.687303	-0.164723
C97	C	1.658156	-0.713111	-0.238632
H98	H	1.683819	-0.665351	-0.109814
H99	H	1.780098	-0.712109	-0.116680
H100	H	1.786976	-0.665318	-0.213018
H101	H	1.603173	-0.735097	-0.190418
H102	H	1.610188	-0.688281	-0.286679
O103	O	1.126651	-0.330697	-0.772372
C104	C	1.160182	-0.407140	-0.823000
C105	C	1.099896	-0.375479	-0.749233
H106	H	1.138590	-0.443353	-0.804303
H107	H	1.138632	-0.399331	-0.907769
H108	H	1.248024	-0.402172	-0.811491
H109	H	1.012040	-0.380429	-0.760648
H110	H	1.121534	-0.383296	-0.664491
H111	H	1.383934	-0.158860	-0.807597
H112	H	1.262221	-0.106695	-1.106230
H113	H	1.262170	-0.106721	-0.907164
H114	H	1.384047	-0.158815	-1.205733
H115	H	1.217703	-0.273923	-0.640207
H116	H	1.639930	-0.387393	-0.384235
O117	O	0.802326	-0.273997	-0.640376
C118	C	0.644854	-0.305522	-0.714106
C119	C	0.765558	-0.305511	-0.714017
H120	H	0.615090	-0.330991	-0.773654
H121	H	0.614916	-0.314825	-0.632753
H122	H	0.615195	-0.270727	-0.736026
H123	H	0.795306	-0.340296	-0.692143
H124	H	0.795425	-0.296182	-0.795380
O125	O	1.385741	-0.956204	-0.638551
C126	C	1.252411	-0.961186	-0.771753
C127	C	1.326445	-0.986953	-0.697906
H128	H	1.204466	-0.986035	-0.819777
H129	H	1.197415	-0.939273	-0.723516
H130	H	1.300604	-0.939169	-0.826692
H131	H	1.278337	-1.008994	-0.642952
H132	H	1.381443	-1.008838	-0.746209
H133	H	1.707499	-0.829074	-0.317230
H134	H	1.328962	-0.603244	-0.695053
O135	O	1.318521	-0.832728	-0.705731
C136	C	1.185123	-0.827781	-0.838872
C137	C	1.259058	-0.801995	-0.764954
H138	H	1.137012	-0.802945	-0.886757
H139	H	1.233298	-0.849692	-0.893928
H140	H	1.130270	-0.849802	-0.790591
H141	H	1.313926	-0.779950	-0.813150
H142	H	1.210818	-0.780113	-0.709895
H143	H	1.707402	-0.688314	-0.317186
O144	O	1.385607	-0.476213	-0.638559
C145	C	1.334487	-0.490508	-0.817233
C146	C	1.408371	-0.464695	-0.743315
H147	H	1.352850	-0.481198	-0.901942
H148	H	1.346073	-0.528075	-0.805810
H149	H	1.249778	-0.481336	-0.798655
H150	H	1.493108	-0.473829	-0.761847
H151	H	1.396694	-0.427135	-0.754751
O152	O	1.318630	-0.740296	-0.705714
C153	C	1.304338	-0.687270	-0.847501
C154	C	1.378283	-0.713061	-0.773612
H155	H	1.352536	-0.665237	-0.902401
H156	H	1.256330	-0.712087	-0.895555
H157	H	1.249388	-0.665367	-0.799190
H158	H	1.433296	-0.734965	-0.821843
H159	H	1.426217	-0.688220	-0.725555
H160	H	1.640355	-0.959788	-0.384362
O161	O	1.650615	-0.272902	-1.114879
C162	C	1.710143	-0.298362	-1.283891
C163	C	1.636263	-0.266781	-1.223513
H164	H	1.698549	-0.293430	-1.371732
H165	H	1.794889	-0.290476	-1.262397
H166	H	1.691633	-0.334585	-1.262232
H167	H	1.654678	-0.230547	-1.245140
H168	H	1.551539	-0.274704	-1.245012
O169	O	0.910495	-0.159759	-0.373772
C170	C	0.786533	-0.153658	-0.231992
C171	C	0.846873	-0.185273	-0.305824
H172	H	0.735063	-0.174274	-0.177053
H173	H	0.844555	-0.133104	-0.183978
H174	H	0.735254	-0.130186	-0.280346
H175	H	0.898153	-0.208773	-0.257552
H176	H	0.788794	-0.205796	-0.353842
O177	O	1.650610	-0.476120	-0.373613
C178	C	1.784004	-0.471138	-0.240474
C179	C	1.710023	-0.445372	-0.314376
H180	H	1.832074	-0.446289	-0.192578
H181	H	1.735868	-0.493130	-0.185429
H182	H	1.838893	-0.493076	-0.288769
H183	H	1.655120	-0.423410	-0.266166
H184	H	1.758224	-0.423408	-0.369425
H185	H	1.640414	-1.044911	-0.384393
H186	H	1.329005	-0.688353	-0.695065
O187	O	1.385582	-0.383714	-0.638501
C188	C	1.371372	-0.330673	-0.780268
C189	C	1.445276	-0.356483	-0.706372
H190	H	1.419604	-0.308644	-0.835146
H191	H	1.323354	-0.355479	-0.828345
H192	H	1.316430	-0.308765	-0.731960
H193	H	1.500282	-0.378392	-0.754599
H194	H	1.493220	-0.331654	-0.658292
H195	H	0.919091	-0.326124	-0.761913
H196	H	1.707333	-0.603208	-0.317162
O197	O	1.386051	-1.048669	-0.638583
C198	C	1.371872	-1.101573	-0.780484
C199	C	1.445768	-1.075744	-0.706607
H200	H	1.420124	-1.123463	-0.835515
H201	H	1.316989	-1.123608	-0.732272
H202	H	1.323791	-1.076740	-0.828408
H203	H	1.493917	-1.100545	-0.658667
H204	H	1.500582	-1.053702	-0.754880
