data_functionalizedCrystal
_audit_creation_method	'MofGen! by Chris Wilmer'
_symmetry_space_group_name_H-M	'P1'
_symmetry_Int_Tables_number	1
_symmetry_cell_setting	triclinic
loop_
_symmetry_equiv_pos_as_xyz
  x,y,z
_cell_length_a	16.625546
_cell_length_b	10.685980
_cell_length_c	10.686551
_cell_angle_alpha	81.591741
_cell_angle_beta	85.590142
_cell_angle_gamma	94.388851
loop_
_atom_site_label
_atom_site_type_symbol
_atom_site_fract_x
_atom_site_fract_y
_atom_site_fract_z
Zn1	Zn	-0.180728	1.995749	-0.866678
Zn2	Zn	0.319272	2.495749	-0.366678
Zn3	Zn	-0.326801	1.979295	-0.654394
Zn4	Zn	0.173199	2.479295	-0.154394
Zn5	Zn	-0.203170	1.767171	-0.638140
Zn6	Zn	0.296830	2.267171	-0.138140
Zn7	Zn	-0.326722	1.783418	-0.850304
Zn8	Zn	0.173278	2.283418	-0.350304
O9	O	-0.259355	1.881408	-0.752379
O10	O	0.240645	2.381408	-0.252379
O11	O	-0.190746	2.171202	-0.852173
O12	O	0.309254	2.671202	-0.352173
O13	O	-0.319826	1.937470	-0.474604
O14	O	0.180174	2.437470	0.025396
O15	O	-0.087354	1.797579	-0.668506
O16	O	0.412646	2.297579	-0.168506
O17	O	-0.298065	2.159113	-0.696209
O18	O	0.201935	2.659113	-0.196209
O19	O	-0.070866	1.965514	-0.836412
O20	O	0.429134	2.465514	-0.336412
O21	O	-0.228995	1.781624	-0.462662
O22	O	0.271005	2.281624	0.037338
O23	O	-0.228919	1.591691	-0.652629
O24	O	0.271081	2.091691	-0.152629
O25	O	-0.297931	1.825270	-1.030110
O26	O	0.202069	2.325270	-0.530110
O27	O	-0.319692	1.603628	-0.808505
O28	O	0.180308	2.103628	-0.308505
O29	O	-0.190670	1.981269	-1.042140
O30	O	0.309330	2.481269	-0.542140
O31	O	-0.439629	1.953225	-0.680332
O32	O	0.060371	2.453225	-0.180332
O33	O	-0.439572	1.809315	-0.824267
O34	O	0.060428	2.309315	-0.324267
C35	C	-0.276733	1.551600	-0.727027
C36	C	0.223267	2.051600	-0.227027
C37	C	-0.284185	1.410509	-0.716211
C38	C	0.215815	1.910509	-0.216211
C39	C	-0.468855	1.881284	-0.752317
C40	C	0.031145	2.381284	-0.252317
C41	C	-0.558472	1.881350	-0.752341
C42	C	-0.058472	2.381350	-0.252341
C43	C	-0.886629	1.881582	-0.752491
C44	C	-0.386629	2.381582	-0.252491
C45	C	-0.795326	1.881514	-0.752452
C46	C	-0.295326	2.381514	-0.252452
C47	C	-0.722553	1.881465	-0.752415
C48	C	-0.222553	2.381465	-0.252415
C49	C	-0.631244	1.881399	-0.752378
C50	C	-0.131244	2.381399	-0.252378
C51	C	-0.049034	1.881570	-0.752472
C52	C	0.450966	2.381570	-0.252472
C53	C	0.040593	1.881639	-0.752512
C54	C	0.540593	2.381639	-0.252512
C55	C	-0.241788	1.906917	-1.083471
C56	C	0.258212	2.406917	-0.583471
C57	C	-0.234302	1.917788	-1.224563
C58	C	0.265698	2.417788	-0.724563
C59	C	-0.241911	2.212504	-0.777831
C60	C	0.258089	2.712504	-0.277831
C61	C	-0.234477	2.353597	-0.788677
C62	C	0.265523	2.853597	-0.288677
C63	C	-0.276792	1.856072	-0.422581
C64	C	0.223208	2.356072	0.077419
C65	C	-0.284038	1.845447	-0.281509
C66	C	0.215962	2.345447	0.218491
H67	H	-0.186214	1.412811	-0.858990
H68	H	0.313786	1.912811	-0.358990
H69	H	-0.185995	1.988047	-1.283755
H70	H	0.314005	2.488047	-0.783755
H71	H	-0.332446	1.351288	-0.645886
H72	H	0.167554	1.851288	-0.145886
C73	C	-0.401253	1.816371	-1.130865
C74	C	0.098747	2.316371	-0.630865
C75	C	-0.349253	1.750611	-1.201613
C76	C	0.150747	2.250611	-0.701613
H77	H	-0.441511	1.757820	-1.081528
H78	H	0.058489	2.257820	-0.581528
H79	H	-0.426471	1.875577	-1.186823
H80	H	0.073529	2.375577	-0.686823
H81	H	-0.371043	1.860297	-1.076247
H82	H	0.128957	2.360297	-0.576247
H83	H	-0.379462	1.706693	-1.256238
H84	H	0.120538	2.206693	-0.756238
H85	H	-0.324034	1.691383	-1.145648
H86	H	0.175966	2.191383	-0.645648
