data_functionalizedCrystal
_audit_creation_method	'MofGen! by Chris Wilmer'
_symmetry_space_group_name_H-M	'P1'
_symmetry_Int_Tables_number	1
_symmetry_cell_setting	triclinic
loop_
_symmetry_equiv_pos_as_xyz
  x,y,z
_cell_length_a	11.792241
_cell_length_b	10.489741
_cell_length_c	10.868271
_cell_angle_alpha	89.995151
_cell_angle_beta	89.999893
_cell_angle_gamma	84.366295
loop_
_atom_site_label
_atom_site_type_symbol
_atom_site_fract_x
_atom_site_fract_y
_atom_site_fract_z
O1	O	1.507380	0.174832	-0.102202
O2	O	1.177088	0.192851	-0.102231
O3	O	1.349749	-0.001782	-0.102208
O4	O	1.334718	0.369465	-0.102224
O5	O	1.349735	-0.001790	0.102436
O6	O	1.177073	0.192843	0.102414
O7	O	1.507366	0.174825	0.102443
Zn8	Zn	1.342217	0.183833	0.134920
Zn9	Zn	1.342236	0.183843	-0.134708
O10	O	1.334704	0.369457	0.102420
C11	C	1.134786	0.191715	0.000088
C12	C	1.008764	0.188327	0.000077
C13	C	0.778035	0.182098	0.000113
C14	C	0.906429	0.185559	0.000093
C15	C	1.348607	-0.049314	0.000113
C16	C	1.345210	-0.190931	0.000111
C17	C	1.235351	-0.258697	0.000092
C18	C	1.287240	-0.351000	0.100997
C19	C	1.287281	-0.350967	-0.100767
C20	C	1.397145	-0.281369	0.101099
C21	C	1.397170	-0.281327	-0.100755
C22	C	1.449140	-0.373603	0.000174
C23	C	1.549667	0.175960	0.000121
C24	C	1.675690	0.179348	0.000124
C25	C	1.335846	0.416989	0.000096
C26	C	1.339243	0.558607	0.000091
N27	N	1.342213	0.183825	0.318934
N28	N	1.342250	0.183840	-0.318722
C29	C	1.342230	0.183840	0.569940
C30	C	1.342217	0.183835	0.430263
H31	H	1.145025	-0.208738	0.000186
C32	C	1.402672	-0.275973	0.321863
C33	C	1.459834	-0.239982	0.216396
H34	H	1.441376	-0.250425	0.393041
H35	H	1.326967	-0.235592	0.321564
H36	H	1.400925	-0.366316	0.322519
H37	H	1.461573	-0.149637	0.215736
H38	H	1.535559	-0.280359	0.216696
C39	C	1.112542	-0.334111	0.215957
C40	C	1.224485	-0.392668	0.216146
H41	H	1.073796	-0.359839	0.287039
H42	H	1.113650	-0.243696	0.216413
H43	H	1.074258	-0.359107	0.144297
H44	H	1.262773	-0.367665	0.287802
H45	H	1.223384	-0.483103	0.215703
C46	C	1.628406	-0.405636	0.105997
C47	C	1.571179	-0.440756	0.000257
H48	H	1.703743	-0.447104	0.106053
H49	H	1.631218	-0.315456	0.106667
H50	H	1.589073	-0.430552	0.176982
H51	H	1.610508	-0.415832	-0.070728
H52	H	1.568373	-0.530956	-0.000425
H53	H	1.443621	-0.250437	-0.186060
C54	C	1.112585	-0.333990	-0.215734
C55	C	1.224521	-0.392566	-0.215934
H56	H	1.073840	-0.359662	-0.286835
H57	H	1.074296	-0.359014	-0.144098
H58	H	1.113709	-0.243564	-0.216155
H59	H	1.223398	-0.482992	-0.215504
H60	H	1.262820	-0.367550	-0.287589
