data_functionalizedCrystal
_audit_creation_method	'MofGen! by Chris Wilmer'
_symmetry_space_group_name_H-M	'P1'
_symmetry_Int_Tables_number	1
_symmetry_cell_setting	triclinic
loop_
_symmetry_equiv_pos_as_xyz
  x,y,z
_cell_length_a	17.699077
_cell_length_b	15.944551
_cell_length_c	16.176319
_cell_angle_alpha	89.992246
_cell_angle_beta	89.993140
_cell_angle_gamma	83.389657
loop_
_atom_site_label
_atom_site_type_symbol
_atom_site_fract_x
_atom_site_fract_y
_atom_site_fract_z
O1	O	1.004263	0.106198	-0.068737
O2	O	1.337596	0.439531	0.264596
O3	O	1.670930	0.772865	0.597929
O4	O	0.783908	0.120023	-0.068742
O5	O	1.117241	0.453356	0.264592
O6	O	1.450574	0.786690	0.597925
O7	O	0.900103	-0.009177	-0.068732
O8	O	1.233436	0.324156	0.264601
O9	O	1.566769	0.657490	0.597935
O10	O	0.888068	0.235398	-0.068747
O11	O	1.221401	0.568732	0.264586
O12	O	1.554735	0.902065	0.597920
O13	O	0.900087	-0.009185	0.068761
O14	O	1.233420	0.324148	0.402095
O15	O	1.566753	0.657481	0.735428
O16	O	0.783892	0.120015	0.068752
O17	O	1.117225	0.453348	0.402085
O18	O	1.450558	0.786681	0.735418
O19	O	1.004247	0.106190	0.068756
O20	O	1.337580	0.439523	0.402089
O21	O	1.670914	0.772857	0.735423
Cu22	Cu	0.894068	0.113102	0.081308
Cu23	Cu	1.227401	0.446435	0.414641
Cu24	Cu	1.560734	0.779768	0.747975
Cu25	Cu	0.894087	0.113111	-0.081294
Cu26	Cu	1.227420	0.446445	0.252040
Cu27	Cu	1.560753	0.779778	0.585373
O28	O	0.888052	0.235390	0.068746
O29	O	1.221385	0.568723	0.402080
O30	O	1.554719	0.902057	0.735413
C31	C	0.755702	0.119524	0.000005
C32	C	1.089035	0.452858	0.333338
C33	C	1.422368	0.786191	0.666671
C34	C	0.671681	0.118041	0.000003
C35	C	1.005014	0.451374	0.333336
C36	C	1.338347	0.784708	0.666670
C37	C	0.632204	0.117337	0.074952
C38	C	0.965537	0.450671	0.408285
C39	C	1.298870	0.784004	0.741618
C40	C	0.553259	0.115930	0.074953
C41	C	0.886592	0.449263	0.408286
C42	C	1.219925	0.782597	0.741619
C43	C	0.513792	0.115232	0.000004
C44	C	0.847125	0.448565	0.333337
C45	C	1.180458	0.781899	0.666671
C46	C	0.553275	0.115933	-0.074950
C47	C	0.886608	0.449267	0.258383
C48	C	1.219941	0.782600	0.591717
C49	C	0.632219	0.117335	-0.074950
C50	C	0.965552	0.450668	0.258383
C51	C	1.298886	0.784001	0.591716
C52	C	0.234902	0.110281	-0.074951
C53	C	0.568235	0.443614	0.258382
C54	C	0.901568	0.776947	0.591715
C55	C	0.155952	0.108882	-0.074945
C56	C	0.489285	0.442215	0.258388
C57	C	0.822618	0.775548	0.591721
C58	C	0.155941	0.108876	0.074951
C59	C	0.489275	0.442209	0.408285
C60	C	0.822608	0.775543	0.741618
C61	C	0.234886	0.110277	0.074951
C62	C	0.568219	0.443611	0.408285
C63	C	0.901552	0.776944	0.741618
C64	C	0.274362	0.110974	-0.000002
C65	C	0.607696	0.444307	0.333331
C66	C	0.941029	0.777641	0.666664
C67	C	0.359964	0.112498	-0.000003
C68	C	0.693297	0.445832	0.333331
C69	C	1.026630	0.779165	0.666664
C70	C	0.428191	0.113714	0.000003
C71	C	0.761524	0.447047	0.333337
C72	C	1.094858	0.780380	0.666670
C73	C	0.899595	-0.040474	0.000015
C74	C	1.232928	0.292859	0.333348
C75	C	1.566262	0.626193	0.666681
C76	C	0.898097	-0.133717	0.000015
C77	C	1.231431	0.199616	0.333349
C78	C	1.564764	0.532950	0.666682
C79	C	0.822494	-0.348413	0.000002
C80	C	1.155827	-0.015079	0.333336
C81	C	1.489161	0.318254	0.666669
C82	C	0.857594	-0.409509	0.067796
C83	C	1.190927	-0.076175	0.401129
C84	C	1.524260	0.257158	0.734462
C85	C	0.895388	-0.304437	0.000009
C86	C	1.228721	0.028896	0.333342
C87	C	1.562054	0.362230	0.666676
C88	C	0.857627	-0.409484	-0.067762
C89	C	1.190960	-0.076151	0.265571
C90	C	1.524293	0.257182	0.598905
C91	C	0.892765	-0.469344	-0.000001
C92	C	1.226098	-0.136011	0.333332
C93	C	1.559431	0.197323	0.666666
C94	C	0.930507	-0.364305	0.067858
C95	C	1.263841	-0.030972	0.401191
C96	C	1.597174	0.302362	0.734525
C97	C	0.930530	-0.364274	-0.067760
C98	C	1.263863	-0.030941	0.265573
C99	C	1.597197	0.302393	0.598906
C100	C	0.965683	-0.425352	0.000049
C101	C	1.299016	-0.092019	0.333383
C102	C	1.632350	0.241314	0.666716
C103	C	0.896896	-0.209438	0.000015
C104	C	1.230230	0.123895	0.333349
C105	C	1.563563	0.457229	0.666682
C106	C	0.891261	-0.564342	-0.000001
C107	C	1.224595	-0.231009	0.333332
C108	C	1.557928	0.102325	0.666665
C109	C	1.032453	0.106689	0.000008
C110	C	1.365786	0.440022	0.333341
C111	C	1.699120	0.773355	0.666675
C112	C	1.116474	0.108172	0.000004
C113	C	1.449807	0.441505	0.333337
C114	C	1.783140	0.774839	0.666671
C115	C	0.888559	0.266687	-0.000002
C116	C	1.221893	0.600020	0.333331
C117	C	1.555226	0.933354	0.666664
C118	C	0.890057	0.359930	-0.000008
C119	C	1.223391	0.693263	0.333325
C120	C	1.556724	1.026597	0.666658
N121	N	0.894060	0.113094	0.195673
N122	N	1.227393	0.446428	0.529006
N123	N	1.560727	0.779761	0.862340
N124	N	0.894101	0.113112	-0.195659
N125	N	1.227434	0.446445	0.137674
N126	N	1.560767	0.779779	0.471008
C127	C	0.945527	0.055908	0.238942
C128	C	1.278860	0.389241	0.572275
C129	C	1.612193	0.722574	0.905608
C130	C	0.945531	0.055907	0.325489
C131	C	1.278864	0.389240	0.658822
C132	C	1.612197	0.722574	0.992155
C133	C	0.894071	0.113097	0.368766
C134	C	1.227404	0.446430	0.702099
C135	C	1.560737	0.779764	1.035432
C136	C	0.842599	0.170286	0.325491
C137	C	1.175932	0.503620	0.658825
C138	C	1.509265	0.836953	0.992158
C139	C	0.842592	0.170283	0.238946
C140	C	1.175925	0.503616	0.572279
C141	C	1.509258	0.836949	0.905612
C142	C	0.842624	0.170302	0.674519
C143	C	1.175958	0.503635	1.007853
C144	C	1.509291	0.836969	1.341186
C145	C	0.842637	0.170303	0.761071
C146	C	1.175970	0.503636	1.094404
C147	C	1.509304	0.836970	1.427738
C148	C	0.945563	0.055926	0.761062
C149	C	1.278897	0.389260	1.094396
C150	C	1.612230	0.722593	1.427729
C151	C	0.945557	0.055923	0.674517
C152	C	1.278890	0.389256	1.007850
C153	C	1.612223	0.722589	1.341184
C154	C	0.894082	0.113108	0.631250
C155	C	1.227415	0.446442	0.964583
C156	C	1.560749	0.779775	1.297917
C157	C	0.894078	0.113108	0.537406
C158	C	1.227411	0.446441	0.870739
C159	C	1.560744	0.779774	1.204073
C160	C	0.894078	0.113103	0.462608
C161	C	1.227412	0.446436	0.795942
C162	C	1.560745	0.779769	1.129275
H163	H	0.267035	0.110845	-0.135983
H164	H	0.600368	0.444178	0.197350
H165	H	0.933701	0.777512	0.530683
Cl166	Cl	0.729080	-0.296789	0.000099
Cl167	Cl	1.062413	0.036544	0.333433
Cl168	Cl	1.395747	0.369877	0.666766
H169	H	0.826756	-0.429555	0.125108
H170	H	1.160089	-0.096222	0.458441
H171	H	1.493423	0.237112	0.791775
H172	H	0.961306	-0.344383	0.125235
H173	H	1.294639	-0.011050	0.458568
H174	H	1.627972	0.322283	0.791901
Cl175	Cl	0.106337	0.108003	-0.169174
Cl176	Cl	0.439671	0.441336	0.164160
Cl177	Cl	0.773004	0.774669	0.497493
Cl178	Cl	0.503663	0.115025	-0.169172
Cl179	Cl	0.836996	0.448358	0.164162
Cl180	Cl	1.170329	0.781692	0.497495
H181	H	0.267015	0.110850	0.135982
H182	H	0.600349	0.444183	0.469315
H183	H	0.933682	0.777516	0.802649
H184	H	0.987475	0.009360	0.796300
H185	H	1.320808	0.342693	1.129633
H186	H	1.654141	0.676026	1.462966
Cl187	Cl	0.978101	-0.333286	-0.156252
Cl188	Cl	1.311434	0.000047	0.177082
Cl189	Cl	1.644768	0.333381	0.510415
Cl190	Cl	0.810017	-0.440396	-0.156243
Cl191	Cl	1.143350	-0.107063	0.177090
Cl192	Cl	1.476683	0.226270	0.510424
Cl193	Cl	1.010232	-0.015987	0.379885
Cl194	Cl	1.343565	0.317347	0.713218
Cl195	Cl	1.676899	0.650680	1.046552
H196	H	0.987462	0.009356	0.639284
H197	H	1.320796	0.342689	0.972617
H198	H	1.654129	0.676023	1.305950
H199	H	1.026241	-0.458640	0.000089
H200	H	1.359574	-0.125306	0.333422
H201	H	1.692908	0.208027	0.666755
H202	H	0.664360	0.117909	-0.135981
H203	H	0.997694	0.451242	0.197352
H204	H	1.331027	0.784576	0.530686
H205	H	0.123790	0.108305	0.135982
H206	H	0.457124	0.441638	0.469316
H207	H	0.790457	0.774972	0.802649
H208	H	0.987434	0.009340	0.203711
H209	H	1.320768	0.342674	0.537045
H210	H	1.654101	0.676007	0.870378
Cl211	Cl	0.777938	0.242204	0.815476
Cl212	Cl	1.111272	0.575537	1.148809
Cl213	Cl	1.444605	0.908871	1.482142
H214	H	0.800695	0.216849	0.360732
H215	H	1.134028	0.550182	0.694066
H216	H	1.467362	0.883516	1.027399
Cl217	Cl	0.503631	0.115061	0.169178
Cl218	Cl	0.836965	0.448394	0.502511
Cl219	Cl	1.170298	0.781727	0.835845
H220	H	0.800714	0.216866	0.639298
H221	H	1.134047	0.550200	0.972632
H222	H	1.467380	0.883533	1.305965
H223	H	0.800681	0.216849	0.203717
H224	H	1.134015	0.550182	0.537051
H225	H	1.467348	0.883515	0.870384
H226	H	0.664331	0.117912	0.135983
H227	H	0.997664	0.451246	0.469317
H228	H	1.330998	0.784579	0.802650
