data_functionalizedCrystal
_audit_creation_method	'MofGen! by Chris Wilmer'
_symmetry_space_group_name_H-M	'P1'
_symmetry_Int_Tables_number	1
_symmetry_cell_setting	triclinic
loop_
_symmetry_equiv_pos_as_xyz
  x,y,z
_cell_length_a	12.759401
_cell_length_b	19.121063
_cell_length_c	19.120904
_cell_angle_alpha	94.741613
_cell_angle_beta	92.424516
_cell_angle_gamma	92.470439
loop_
_atom_site_label
_atom_site_type_symbol
_atom_site_fract_x
_atom_site_fract_y
_atom_site_fract_z
Zn1	Zn	1.561003	-0.297081	-0.409736
Zn2	Zn	1.560873	-0.409728	-0.297087
Zn3	Zn	1.393146	-0.292085	-0.292093
Zn4	Zn	1.377429	-0.414712	-0.414712
O5	O	1.473113	-0.353402	-0.353407
O6	O	1.708006	-0.312030	-0.394801
O7	O	1.545147	-0.389946	-0.197964
O8	O	1.422045	-0.194285	-0.303526
O9	O	1.707910	-0.394791	-0.312038
O10	O	1.545368	-0.197956	-0.389958
O11	O	1.421919	-0.303514	-0.194295
O12	O	1.244041	-0.308347	-0.308351
O13	O	1.395258	-0.403285	-0.512512
O14	O	1.232494	-0.398440	-0.398438
O15	O	1.530128	-0.316862	-0.508857
O16	O	1.529907	-0.508852	-0.316863
O17	O	1.395131	-0.512514	-0.403281
C18	C	1.200147	-0.353393	-0.353393
C19	C	1.083369	-0.353406	-0.353404
C20	C	1.460827	-0.536214	-0.361169
C21	C	1.455665	-0.614423	-0.364513
C22	C	1.022522	-0.400383	-0.400245
C23	C	0.912797	-0.400387	-0.400259
C24	C	0.924775	-0.306434	-0.306585
C25	C	1.034499	-0.306428	-0.306575
C26	C	1.523461	-0.649238	-0.321128
C27	C	1.518612	-0.722723	-0.324277
C28	C	1.445963	-0.761393	-0.370808
C29	C	1.378165	-0.726573	-0.414198
C30	C	1.383019	-0.653089	-0.411052
C31	C	1.427798	-0.983365	-0.382560
C32	C	1.422947	-1.056854	-0.385701
C33	C	1.563396	-1.052999	-0.295781
C34	C	1.568240	-0.979513	-0.292636
C35	C	1.500445	-0.944700	-0.336028
C36	C	1.441003	-0.836507	-0.374027
C37	C	1.505411	-0.869587	-0.332813
C38	C	1.747144	-0.353412	-0.353422
C39	C	1.863920	-0.353416	-0.353428
C40	C	1.460954	-0.361186	-0.536928
C41	C	1.455773	-0.364504	-0.615134
C42	C	1.485474	-0.169876	-0.345630
C43	C	1.490742	-0.091669	-0.342316
C44	C	1.523555	-0.321069	-0.649973
C45	C	1.518674	-0.324183	-0.723455
C46	C	1.446015	-0.370737	-0.762097
C47	C	1.378226	-0.414173	-0.727253
C48	C	1.383103	-0.411055	-0.653772
C49	C	1.427773	-0.382400	-0.984058
C50	C	1.422904	-0.385516	-1.057545
C51	C	1.563351	-0.295525	-1.053742
C52	C	1.568226	-0.292413	-0.980260
C53	C	1.500433	-0.335848	-0.945422
C54	C	1.441027	-0.373923	-0.837208
C55	C	1.505417	-0.332658	-0.870312
C56	C	1.485288	-0.345597	-0.170598
C57	C	1.490686	-0.342081	-0.092384
H58	H	1.062308	-0.438635	-0.438377
H59	H	1.618592	-1.081352	-0.260454
H60	H	0.863259	-0.438639	-0.438402
Br61	Br	1.604009	-0.269470	-0.817868
Br62	Br	0.858445	-0.242680	-0.243035
Br63	Br	1.117084	-0.242662	-0.243008
H64	H	1.319017	-0.758064	-0.452088
Br65	Br	1.622052	-0.596764	-0.257969
Br66	Br	1.291014	-0.605840	-0.469938
Br67	Br	1.279610	-0.477350	-0.779695
H68	H	1.627395	-0.254507	-0.948802
H69	H	1.573817	-0.751066	-0.288948
Br70	Br	1.666852	-0.927038	-0.229493
H71	H	1.363799	-1.088338	-0.423605
Br72	Br	1.335792	-0.936128	-0.441450
H73	H	1.582725	-0.283162	-0.618516
H74	H	1.573872	-0.288815	-0.751818
H75	H	1.327897	-0.446417	-0.625406
H76	H	1.564566	-0.838101	-0.294930
H77	H	1.381850	-0.868000	-0.411911
H78	H	1.618543	-0.260162	-1.082115
Br79	Br	1.324285	-0.448698	-1.109988
H80	H	1.372586	-0.417777	-0.955703
H81	H	1.381872	-0.411830	-0.868679
