data_functionalizedCrystal
_audit_creation_method	'MofGen! by Chris Wilmer'
_symmetry_space_group_name_H-M	'P1'
_symmetry_Int_Tables_number	1
_symmetry_cell_setting	triclinic
loop_
_symmetry_equiv_pos_as_xyz
  x,y,z
_cell_length_a	16.109301
_cell_length_b	17.699083
_cell_length_c	14.586319
_cell_angle_alpha	89.995320
_cell_angle_beta	89.999213
_cell_angle_gamma	83.372248
loop_
_atom_site_label
_atom_site_type_symbol
_atom_site_fract_x
_atom_site_fract_y
_atom_site_fract_z
O1	O	1.102963	0.097285	-0.076184
O2	O	0.860880	0.109391	-0.076199
O3	O	0.988761	-0.006841	-0.076183
O4	O	0.975082	0.213517	-0.076200
O5	O	0.988752	-0.006843	0.076298
O6	O	0.860872	0.109390	0.076282
O7	O	1.102954	0.097283	0.076297
Cu8	Cu	0.981912	0.103336	0.090212
Cu9	Cu	0.981923	0.103338	-0.090114
O10	O	0.975074	0.213516	0.076281
C11	C	0.829902	0.108900	0.000040
C12	C	0.737609	0.107430	0.000034
C13	C	0.515224	0.172981	0.000040
C14	C	0.428506	0.171594	0.000046
C15	C	0.448618	0.033688	0.000053
C16	C	0.535334	0.035076	0.000053
C17	C	0.568635	0.104725	0.000042
C18	C	0.395200	0.101949	0.000047
C19	C	0.301177	0.100445	0.000054
C20	C	0.662664	0.106230	0.000037
C21	C	0.988267	-0.035040	0.000057
C22	C	0.986796	-0.119060	0.000058
C23	C	1.061860	-0.167574	0.000064
C24	C	1.060473	-0.246519	0.000055
C25	C	0.984022	-0.276949	0.000048
C26	C	0.908953	-0.228429	0.000039
C27	C	0.910341	-0.149485	0.000041
C28	C	0.903356	-0.546800	0.000031
C29	C	0.901974	-0.625750	0.000033
C30	C	1.053488	-0.643834	0.000046
C31	C	1.054876	-0.564890	0.000048
C32	C	0.979807	-0.516377	0.000034
C33	C	0.981312	-0.430776	0.000041
C34	C	0.982517	-0.362549	0.000047
C35	C	1.133933	0.097774	0.000056
C36	C	1.226226	0.099244	0.000055
C37	C	0.975568	0.241714	0.000038
C38	C	0.977039	0.325734	0.000032
N39	N	0.981911	0.103334	0.217044
N40	N	0.981931	0.103334	-0.216946
C41	C	1.038555	0.051884	0.452057
C42	C	1.038558	0.051882	0.548038
C43	C	0.925280	0.154787	0.548034
C44	C	0.925274	0.154785	0.452054
C45	C	0.981917	0.103334	0.404068
C46	C	0.981925	0.103334	0.596029
C47	C	0.981927	0.103333	0.700096
C48	C	0.981914	0.103334	0.299995
H49	H	0.542334	0.229694	0.000038
O50	O	1.129119	-0.535295	0.000215
C51	C	1.134444	-0.490160	0.079173
H52	H	1.091036	-0.508823	0.134370
H53	H	1.201464	-0.497263	0.105681
H54	H	1.115139	-0.427900	0.061318
H55	H	0.385022	0.227175	0.000046
O56	O	1.136146	-0.138053	-0.000093
C57	C	1.181905	-0.162857	-0.079052
H58	H	1.137197	-0.179262	-0.134250
H59	H	1.217182	-0.115041	-0.105560
H60	H	1.228337	-0.214321	-0.061198
O61	O	0.416129	-0.033900	0.000015
C62	C	0.328138	-0.020491	0.000035
H63	H	0.307653	0.038579	-0.028835
H64	H	0.301605	-0.065053	-0.044234
H65	H	0.304003	-0.024157	0.073187
O66	O	1.133370	-0.293673	-0.000102
C67	C	1.137102	-0.339882	-0.079066
H68	H	1.094531	-0.310955	-0.134263
H69	H	1.204093	-0.348767	-0.105568
H70	H	1.115703	-0.397287	-0.061220
O71	O	1.126336	-0.691069	0.000008
C72	C	1.108725	-0.767273	0.000023
H73	H	1.043431	-0.770283	-0.028852
H74	H	1.156587	-0.803046	-0.044242
H75	H	1.111916	-0.790112	0.073175
O76	O	0.827633	-0.655185	-0.000023
C77	C	0.761672	-0.595439	-0.000015
H78	H	0.784870	-0.541813	-0.028879
H79	H	0.708295	-0.611925	-0.044294
H80	H	0.738511	-0.584266	0.073133
O81	O	0.587105	-0.031303	0.000014
C82	C	0.539120	-0.093075	0.000038
H83	H	0.474358	-0.073853	-0.028833
H84	H	0.571213	-0.140895	-0.044227
H85	H	0.532989	-0.114426	0.073192
H86	H	0.842230	-0.507310	0.000021
H87	H	0.846705	-0.253211	0.000027
O88	O	0.837347	-0.102464	0.000076
C89	C	0.769571	-0.146249	0.000045
H90	H	0.790788	-0.205175	0.028919
H91	H	0.716981	-0.117114	0.044306
H92	H	0.746138	-0.151861	-0.073110
O93	O	1.093601	0.001829	0.405585
C94	C	1.143604	-0.043571	0.468528
H95	H	1.109524	-0.044430	0.536948
H96	H	1.156407	-0.104013	0.440805
H97	H	1.205315	-0.018981	0.478727
O98	O	0.870347	0.204740	0.594791
C99	C	0.882483	0.193700	0.689796
H100	H	0.948638	0.165428	0.702903
H101	H	0.873121	0.251018	0.726264
H102	H	0.835505	0.155730	0.717046
H103	H	1.084677	0.009985	0.587108
H104	H	0.879149	0.196682	0.412979
