data_functionalizedCrystal
_audit_creation_method	'MofGen! by Chris Wilmer'
_symmetry_space_group_name_H-M	'P1'
_symmetry_Int_Tables_number	1
_symmetry_cell_setting	triclinic
loop_
_symmetry_equiv_pos_as_xyz
  x,y,z
_cell_length_a	23.532407
_cell_length_b	19.188933
_cell_length_c	18.266242
_cell_angle_alpha	89.992377
_cell_angle_beta	89.998826
_cell_angle_gamma	97.002877
loop_
_atom_site_label
_atom_site_type_symbol
_atom_site_fract_x
_atom_site_fract_y
_atom_site_fract_z
O1	O	-0.071107	0.925921	-0.060844
O2	O	0.262226	1.259255	0.272489
O3	O	0.595560	1.592588	0.605822
O4	O	-0.080677	0.722580	-0.060850
O5	O	0.252656	1.055913	0.272484
O6	O	0.585989	1.389246	0.605817
O7	O	0.007026	0.830382	-0.060856
O8	O	0.340360	1.163716	0.272477
O9	O	0.673693	1.497049	0.605810
O10	O	-0.158811	0.818119	-0.060838
O11	O	0.174522	1.151452	0.272495
O12	O	0.507856	1.484785	0.605829
O13	O	0.007031	0.830364	0.060906
O14	O	0.340364	1.163698	0.394239
O15	O	0.673697	1.497031	0.727572
O16	O	-0.080673	0.722562	0.060912
O17	O	0.252660	1.055895	0.394246
O18	O	0.585994	1.389228	0.727579
O19	O	-0.071103	0.925903	0.060917
O20	O	0.262231	1.259237	0.394251
O21	O	0.595564	1.592570	0.727584
Zn22	Zn	-0.075887	0.824230	0.080247
Zn23	Zn	0.257446	1.157563	0.413581
Zn24	Zn	0.590780	1.490896	0.746914
Zn25	Zn	-0.075893	0.824253	-0.080179
Zn26	Zn	0.257440	1.157587	0.253154
Zn27	Zn	0.590774	1.490920	0.586487
O28	O	-0.158806	0.818101	0.060924
O29	O	0.174527	1.151434	0.394257
O30	O	0.507860	1.484767	0.727591
C31	C	-0.080365	0.696561	0.000030
C32	C	0.252968	1.029894	0.333364
C33	C	0.586302	1.363227	0.666697
C34	C	-0.079434	0.619059	0.000028
C35	C	0.253899	0.952393	0.333361
C36	C	0.587232	1.285726	0.666694
C37	C	-0.072793	0.065835	-0.066338
C38	C	0.260541	0.399168	0.266996
C39	C	0.593874	0.732502	0.600329
C40	C	-0.073664	0.138656	-0.066340
C41	C	0.259669	0.471990	0.266993
C42	C	0.593003	0.805323	0.600326
C43	C	-0.074100	0.175062	0.000032
C44	C	0.259233	0.508395	0.333365
C45	C	0.592567	0.841729	0.666699
C46	C	-0.073650	0.138643	0.066412
C47	C	0.259684	0.471976	0.399745
C48	C	0.593017	0.805309	0.733079
C49	C	-0.072773	0.065824	0.066413
C50	C	0.260561	0.399157	0.399746
C51	C	0.593894	0.732490	0.733079
N52	N	-0.107882	0.283967	0.049440
N53	N	0.225451	0.617300	0.382773
N54	N	0.558784	0.950634	0.716106
N55	N	-0.108717	0.353142	0.049434
N56	N	0.224617	0.686475	0.382768
N57	N	0.557950	1.019808	0.716101
C58	C	-0.076741	0.394462	0.000034
C59	C	0.256592	0.727796	0.333367
C60	C	0.589926	1.061129	0.666700
N61	N	-0.043906	0.363993	-0.049373
N62	N	0.289427	0.697327	0.283960
N63	N	0.622760	1.030660	0.617294
N64	N	-0.043075	0.294812	-0.049370
N65	N	0.290259	0.628145	0.283964
N66	N	0.623592	0.961478	0.617297
C67	C	-0.075050	0.254022	0.000038
C68	C	0.258283	0.587356	0.333372
C69	C	0.591616	0.920689	0.666705
C70	C	-0.078132	0.509835	-0.066345
C71	C	0.255202	0.843168	0.266988
C72	C	0.588535	1.176502	0.600321
C73	C	-0.078999	0.582658	-0.066345
C74	C	0.254334	0.915992	0.266988
C75	C	0.587667	1.249325	0.600321
C76	C	-0.078991	0.582642	0.066409
C77	C	0.254343	0.915976	0.399742
C78	C	0.587676	1.249309	0.733076
C79	C	-0.078117	0.509821	0.066407
C80	C	0.255216	0.843155	0.399740
C81	C	0.588549	1.176488	0.733074
C82	C	-0.077691	0.473421	0.000028
C83	C	0.255643	0.806755	0.333361
C84	C	0.588976	1.140088	0.666695
C85	C	-0.180025	0.818422	0.000045
C86	C	0.153308	1.151755	0.333379
C87	C	0.486641	1.485089	0.666712
C88	C	-0.243244	0.819361	0.000052
C89	C	0.090089	1.152694	0.333386
C90	C	0.423422	1.486028	0.666719
C91	C	-0.642224	0.761455	0.000013
C92	C	-0.308891	1.094788	0.333347
C93	C	0.024442	1.428121	0.666680
C94	C	-0.701626	0.762327	0.000008
C95	C	-0.368293	1.095660	0.333342
C96	C	-0.034960	1.428994	0.666675
O97	O	-0.738257	0.708647	-0.000020
O98	O	-0.404923	1.041981	0.333313
O99	O	-0.071590	1.375314	0.666647
N100	N	-0.724389	0.826416	0.000011
N101	N	-0.391056	1.159749	0.333344
N102	N	-0.057722	1.493082	0.666677
C103	C	-0.687746	0.889636	0.000011
C104	C	-0.354413	1.222969	0.333344
C105	C	-0.021079	1.556303	0.666678
O106	O	-0.712562	0.944228	0.000012
O107	O	-0.379228	1.277562	0.333345
O108	O	-0.045895	1.610895	0.666679
C109	C	-0.628345	0.888763	0.000011
C110	C	-0.295012	1.222096	0.333344
C111	C	0.038322	1.555430	0.666678
C112	C	-0.605586	0.824670	0.000016
C113	C	-0.272253	1.158004	0.333349
C114	C	0.061081	1.491337	0.666682
C115	C	-0.619465	0.697367	0.000017
C116	C	-0.286131	1.030700	0.333351
C117	C	0.047202	1.364034	0.666684
C118	C	-0.560067	0.696495	0.000024
C119	C	-0.226733	1.029829	0.333357
C120	C	0.106600	1.363162	0.666690
C121	C	-0.523428	0.759711	0.000026
C122	C	-0.190095	1.093044	0.333360
C123	C	0.143238	1.426378	0.666693
C124	C	-0.546188	0.823798	0.000022
C125	C	-0.212855	1.157132	0.333356
C126	C	0.120479	1.490465	0.666689
C127	C	-0.591703	0.951983	0.000006
C128	C	-0.258370	1.285316	0.333339
C129	C	0.074963	1.618649	0.666673
C130	C	-0.532299	0.951104	0.000005
C131	C	-0.198965	1.284438	0.333339
C132	C	0.134368	1.617771	0.666672
C133	C	-0.509540	0.887012	0.000010
C134	C	-0.176206	1.220345	0.333343
C135	C	0.157127	1.553678	0.666677
C136	C	-0.450152	0.886142	0.000031
C137	C	-0.116818	1.219475	0.333364
C138	C	0.216515	1.552809	0.666698
N139	N	-0.427389	0.822054	0.000029
N140	N	-0.094056	1.155387	0.333362
N141	N	0.239278	1.488720	0.666695
C142	C	-0.464027	0.758838	0.000026
C143	C	-0.130694	1.092171	0.333359
C144	C	0.202639	1.425505	0.666693
C145	C	-0.812492	0.891464	0.000010
C146	C	-0.479159	1.224798	0.333343
C147	C	-0.145826	1.558131	0.666677
C148	C	-0.871892	0.892338	0.000015
C149	C	-0.538559	1.225671	0.333349
C150	C	-0.205225	1.559005	0.666682
C151	C	-0.885768	0.765029	0.000011
C152	C	-0.552435	1.098362	0.333345
C153	C	-0.219102	1.431695	0.666678
C154	C	-0.826368	0.764156	0.000011
C155	C	-0.493034	1.097489	0.333344
C156	C	-0.159701	1.430822	0.666678
C157	C	-0.789730	0.827376	0.000007
C158	C	-0.456396	1.160709	0.333341
C159	C	-0.123063	1.494042	0.666674
C160	C	-0.339287	0.757012	0.000040
C161	C	-0.005953	1.090345	0.333374
C162	C	0.327380	1.423678	0.666707
C163	C	-0.279883	0.756145	0.000050
C164	C	0.053451	1.089479	0.333383
C165	C	0.386784	1.422812	0.666716
C166	C	-0.266012	0.883454	0.000050
C167	C	0.067322	1.216788	0.333383
C168	C	0.400655	1.550121	0.666717
C169	C	-0.325410	0.884321	0.000045
C170	C	0.007923	1.217654	0.333378
C171	C	0.341256	1.550988	0.666711
C172	C	-0.362047	0.821094	0.000037
C173	C	-0.028714	1.154427	0.333370
C174	C	0.304620	1.487761	0.666704
O175	O	-0.413487	0.939794	0.000056
O176	O	-0.080153	1.273127	0.333390
O177	O	0.253180	1.606460	0.666723
O178	O	-0.439203	0.704254	0.000015
O179	O	-0.105870	1.037588	0.333349
O180	O	0.227464	1.370921	0.666682
C181	C	0.028245	0.830061	0.000021
C182	C	0.361579	1.163394	0.333354
C183	C	0.694912	1.496728	0.666688
C184	C	0.091464	0.829122	0.000009
C185	C	0.424798	1.162455	0.333342
C186	C	0.758131	1.495789	0.666676
C187	C	-0.071415	0.951922	0.000036
C188	C	0.261918	1.285256	0.333369
C189	C	0.595252	1.618589	0.666702
C190	C	-0.072346	1.029424	0.000034
C191	C	0.260987	1.362757	0.333367
C192	C	0.594321	1.696090	0.666700
N193	N	-0.075883	0.824218	0.189734
N194	N	0.257451	1.157552	0.523068
N195	N	0.590784	1.490885	0.856401
N196	N	-0.075893	0.824270	-0.189666
N197	N	0.257440	1.157604	0.143667
N198	N	0.590774	1.490937	0.477000
C199	C	-0.037066	0.871969	0.228040
C200	C	0.296267	1.205302	0.561373
C201	C	0.629600	1.538635	0.894707
C202	C	-0.037064	0.871973	0.304685
C203	C	0.296270	1.205307	0.638018
C204	C	0.629603	1.538640	0.971352
C205	C	-0.075887	0.824234	0.343021
C206	C	0.257446	1.157567	0.676354
C207	C	0.590779	1.490901	1.009688
C208	C	-0.114706	0.776474	0.304706
C209	C	0.218627	1.109808	0.638039
C210	C	0.551960	1.443141	0.971372
C211	C	-0.114704	0.776467	0.228062
C212	C	0.218629	1.109800	0.561396
C213	C	0.551962	1.443133	0.894729
N214	N	-0.126302	0.814997	0.463359
N215	N	0.207031	1.148331	0.796692
N216	N	0.540364	1.481664	1.130025
N217	N	-0.126303	0.815009	0.536167
N218	N	0.207031	1.148342	0.869500
N219	N	0.540364	1.481676	1.202834
C220	C	-0.075895	0.824253	0.573943
C221	C	0.257438	1.157587	0.907277
C222	C	0.590771	1.490920	1.240610
N223	N	-0.025486	0.833500	0.536161
N224	N	0.307847	1.166833	0.869495
N225	N	0.641181	1.500166	1.202828
N226	N	-0.025486	0.833492	0.463347
N227	N	0.307847	1.166825	0.796680
N228	N	0.641180	1.500158	1.130013
C229	C	-0.075894	0.824237	0.426128
C230	C	0.257440	1.157570	0.759461
C231	C	0.590773	1.490903	1.092795
C232	C	-0.037073	0.872011	0.695357
C233	C	0.296260	1.205345	1.028690
C234	C	0.629594	1.538678	1.362023
C235	C	-0.037070	0.872011	0.772003
C236	C	0.296264	1.205344	1.105336
C237	C	0.629597	1.538678	1.438670
C238	C	-0.114717	0.776515	0.772022
C239	C	0.218616	1.109849	1.105356
C240	C	0.551949	1.443182	1.438689
C241	C	-0.114716	0.776513	0.695377
C242	C	0.218618	1.109846	1.028711
C243	C	0.551951	1.443179	1.362044
C244	C	-0.075894	0.824264	0.657049
C245	C	0.257439	1.157597	0.990382
C246	C	0.590772	1.490931	1.323716
H247	H	-0.074004	0.168289	0.120453
H248	H	0.259330	0.501622	0.453786
H249	H	0.592663	0.834956	0.787119
H250	H	-0.077756	0.480175	0.120454
H251	H	0.255578	0.813508	0.453787
H252	H	0.588911	1.146841	0.787120
H253	H	-0.005458	0.910893	0.803192
H254	H	0.327876	1.244226	1.136526
H255	H	0.661209	1.577560	1.469859
H256	H	-0.005454	0.910859	0.335880
H257	H	0.327880	1.244192	0.669213
H258	H	0.661213	1.577525	1.002546
H259	H	-0.146316	0.737603	0.335923
H260	H	0.187017	1.070936	0.669256
H261	H	0.520350	1.404270	1.002589
H262	H	-0.005461	0.910892	0.664149
H263	H	0.327873	1.244225	0.997482
H264	H	0.661206	1.577558	1.330815
H265	H	-0.072443	0.036203	-0.120389
H266	H	0.260890	0.369536	0.212945
H267	H	0.594224	0.702870	0.546278
H268	H	-0.072411	0.036178	0.120462
H269	H	0.260922	0.369511	0.453795
H270	H	0.594256	0.702844	0.787129
H271	H	-0.074031	0.168308	-0.120389
H272	H	0.259302	0.501641	0.212944
H273	H	0.592636	0.834974	0.546277
H274	H	-0.146314	0.737582	0.196873
H275	H	0.187020	1.070915	0.530206
H276	H	0.520353	1.404248	0.863540
H277	H	-0.236170	0.934923	0.000056
H278	H	0.097163	1.268256	0.333389
H279	H	0.430496	1.601589	0.666722
H280	H	-0.146326	0.737642	0.803235
H281	H	0.187008	1.070976	1.136568
H282	H	0.520341	1.404309	1.469901
H283	H	-0.649290	0.645886	0.000013
H284	H	-0.315957	0.979220	0.333346
H285	H	0.017376	1.312553	0.666680
H286	H	-0.146326	0.737632	0.664187
H287	H	0.187007	1.070966	0.997520
H288	H	0.520341	1.404299	1.330853
H289	H	-0.807842	0.711966	0.000018
H290	H	-0.474508	1.045299	0.333351
H291	H	-0.141175	1.378632	0.666685
H292	H	-0.782664	0.942949	0.000012
H293	H	-0.449331	1.276282	0.333346
H294	H	-0.115998	1.609616	0.666679
H295	H	-0.077782	0.480197	-0.120395
H296	H	0.255551	0.813530	0.212938
H297	H	0.588884	1.146864	0.546272
H298	H	-0.005454	0.910849	0.196836
H299	H	0.327879	1.244183	0.530169
H300	H	0.661212	1.577516	0.863502
H301	H	-0.261356	0.703951	0.000057
H302	H	0.071977	1.037284	0.333390
H303	H	0.405311	1.370618	0.666724
H304	H	-0.079359	0.612304	-0.120395
H305	H	0.253975	0.945637	0.212939
H306	H	0.587308	1.278971	0.546272
H307	H	-0.079344	0.612283	0.120451
H308	H	0.253990	0.945617	0.453784
H309	H	0.587323	1.278950	0.787117
H310	H	-0.369110	0.705526	0.000034
H311	H	-0.035777	1.038859	0.333367
H312	H	0.297557	1.372193	0.666701
H313	H	-0.541542	0.644304	0.000021
H314	H	-0.208209	0.977638	0.333355
H315	H	0.125125	1.310971	0.666688
H316	H	-0.915611	0.713555	0.000010
H317	H	-0.582277	1.046888	0.333343
H318	H	-0.248944	1.380222	0.666676
H319	H	-0.890417	0.944529	0.000023
H320	H	-0.557084	1.277862	0.333356
H321	H	-0.223750	1.611195	0.666690
H322	H	-0.610223	1.004174	0.000001
H323	H	-0.276889	1.337507	0.333335
H324	H	0.056444	1.670841	0.666668
H325	H	-0.502470	1.002587	-0.000002
H326	H	-0.169137	1.335920	0.333332
H327	H	0.164196	1.669254	0.666665
H328	H	-0.343941	0.936511	0.000051
H329	H	-0.010608	1.269844	0.333384
H330	H	0.322725	1.603177	0.666718
