data_functionalizedCrystal
_audit_creation_method	'MofGen! by Chris Wilmer'
_symmetry_space_group_name_H-M	'P1'
_symmetry_Int_Tables_number	1
_symmetry_cell_setting	triclinic
loop_
_symmetry_equiv_pos_as_xyz
  x,y,z
_cell_length_a	27.731994
_cell_length_b	16.109301
_cell_length_c	15.186229
_cell_angle_alpha	89.994833
_cell_angle_beta	90.002739
_cell_angle_gamma	83.041008
loop_
_atom_site_label
_atom_site_type_symbol
_atom_site_fract_x
_atom_site_fract_y
_atom_site_fract_z
O1	O	0.641357	0.098711	-0.073106
O2	O	1.141357	0.598711	0.426894
O3	O	0.500623	0.113799	-0.073136
O4	O	1.000623	0.613799	0.426864
O5	O	0.574856	-0.014825	-0.073111
O6	O	1.074856	0.485175	0.426889
O7	O	0.567124	0.227335	-0.073131
O8	O	1.067124	0.727335	0.426869
O9	O	0.574851	-0.014827	0.073346
O10	O	1.074851	0.485173	0.573346
O11	O	0.500618	0.113798	0.073322
O12	O	1.000618	0.613798	0.573322
O13	O	0.641352	0.098709	0.073351
O14	O	1.141352	0.598709	0.573351
Zn15	Zn	0.570984	0.106253	0.096590
Zn16	Zn	1.070984	0.606253	0.596590
Zn17	Zn	0.570991	0.106255	-0.096374
Zn18	Zn	1.070991	0.606255	0.403626
O19	O	0.567119	0.227333	0.073327
O20	O	1.067119	0.727333	0.573327
C21	C	0.574540	-0.045797	0.000118
C22	C	1.074540	0.454203	0.500118
C23	C	0.573601	-0.138080	0.000119
C24	C	1.073601	0.361920	0.500119
C25	C	0.482612	0.113489	0.000089
C26	C	0.982612	0.613489	0.500089
C27	C	0.428951	0.112556	0.000078
C28	C	0.928951	0.612556	0.500078
C29	C	0.615466	-0.360885	0.000114
C30	C	1.115466	0.139115	0.500114
C31	C	0.614580	-0.447594	0.000107
C32	C	1.114580	0.052406	0.500107
C33	C	0.526505	-0.426600	0.000091
C34	C	1.026505	0.073400	0.500091
C35	C	0.527392	-0.339892	0.000093
C36	C	1.027392	0.160108	0.500093
C37	C	0.571874	-0.307038	0.000108
C38	C	1.071874	0.192962	0.500108
C39	C	0.570101	-0.480454	0.000100
C40	C	1.070101	0.019546	0.500100
C41	C	0.569140	-0.574468	0.000092
C42	C	1.069140	-0.074468	0.500092
C43	C	0.572835	-0.213018	0.000115
C44	C	1.072835	0.286982	0.500115
C45	C	0.096206	0.106680	0.079947
C46	C	0.596206	0.606680	0.579947
C47	C	-0.105467	0.103134	0.079957
C48	C	0.394533	0.603134	0.579957
O49	O	-0.131544	0.102639	0.147852
O50	O	0.368456	0.602639	0.647852
N51	N	-0.130681	0.102695	0.000123
N52	N	0.369319	0.602695	0.500123
C53	C	-0.105474	0.103137	-0.079719
C54	C	0.394526	0.603137	0.420281
O55	O	-0.131546	0.102673	-0.147622
O56	O	0.368454	0.602673	0.352378
C57	C	0.096199	0.106676	-0.079728
C58	C	0.596199	0.606676	0.420272
C59	C	0.121410	0.107124	0.000111
C60	C	0.621410	0.607124	0.500111
C61	C	0.121416	0.107127	0.159779
C62	C	0.621416	0.607127	0.659779
C63	C	0.171831	0.108018	0.159776
C64	C	0.671831	0.608018	0.659776
C65	C	0.197035	0.108462	0.079940
C66	C	0.697035	0.608462	0.579940
C67	C	0.171825	0.108015	0.000107
C68	C	0.671825	0.608015	0.500107
C69	C	0.121406	0.107112	-0.159569
C70	C	0.621406	0.607112	0.340431
C71	C	0.171828	0.107995	-0.159565
C72	C	0.671828	0.607995	0.340435
C73	C	0.197038	0.108443	-0.079726
C74	C	0.697038	0.608443	0.420274
C75	C	0.247443	0.109350	-0.079732
C76	C	0.747443	0.609350	0.420268
N77	N	0.272657	0.109790	0.000102
N78	N	0.772657	0.609790	0.500102
C79	C	0.247453	0.109346	0.079938
C80	C	0.747453	0.609346	0.579938
C81	C	-0.211355	0.101280	-0.079708
C82	C	0.288645	0.601280	0.420292
C83	C	-0.261773	0.100396	-0.079706
C84	C	0.238227	0.600396	0.420294
C85	C	-0.261763	0.100393	0.079970
C86	C	0.238237	0.600393	0.579970
C87	C	-0.211344	0.101282	0.079967
C88	C	0.288656	0.601282	0.579967
C89	C	-0.186141	0.101719	0.000125
C90	C	0.313859	0.601719	0.500125
C91	C	0.353328	0.111218	0.079925
C92	C	0.853328	0.611218	0.579925
C93	C	0.403747	0.112112	0.079914
C94	C	0.903747	0.612112	0.579914
C95	C	0.403733	0.112111	-0.079761
C96	C	0.903733	0.612111	0.420239
C97	C	0.353318	0.111221	-0.079751
C98	C	0.853318	0.611221	0.420249
C99	C	0.328117	0.110772	0.000099
C100	C	0.828117	0.610772	0.500099
O101	O	0.273552	0.109836	-0.147592
O102	O	0.773552	0.609836	0.352408
O103	O	0.273536	0.109791	0.147831
O104	O	0.773536	0.609791	0.647831
C105	C	0.045791	0.105789	0.079950
C106	C	0.545791	0.605789	0.579950
C107	C	0.020580	0.105342	0.000118
C108	C	0.520580	0.605342	0.500118
C109	C	0.045784	0.105786	-0.079718
C110	C	0.545784	0.605786	0.420282
C111	C	-0.029838	0.104459	0.000120
C112	C	0.470162	0.604459	0.500120
C113	C	-0.055042	0.104015	0.079956
C114	C	0.444958	0.604015	0.579956
C115	C	-0.029828	0.104454	0.159789
C116	C	0.470172	0.604454	0.659789
C117	C	0.020587	0.105345	0.159786
C118	C	0.520587	0.605345	0.659786
C119	C	0.020570	0.105347	-0.159552
C120	C	0.520570	0.605347	0.340448
C121	C	-0.029845	0.104457	-0.159542
C122	C	0.470155	0.604457	0.340458
C123	C	-0.055049	0.104013	-0.079706
C124	C	0.444951	0.604013	0.420294
C125	C	0.659363	0.099019	0.000124
C126	C	1.159363	0.599019	0.500124
C127	C	0.713023	0.099952	0.000130
C128	C	1.213023	0.599952	0.500130
C129	C	0.567434	0.258305	0.000096
C130	C	1.067434	0.758305	0.500096
C131	C	0.568373	0.350589	0.000089
C132	C	1.068373	0.850589	0.500089
N133	N	0.570983	0.106251	0.228282
N134	N	1.070983	0.606251	0.728282
N135	N	0.570995	0.106251	-0.228067
N136	N	1.070995	0.606251	0.271933
C137	C	0.603865	0.049315	0.454016
C138	C	1.103865	0.549315	0.954016
C139	C	0.603866	0.049313	0.546206
C140	C	1.103866	0.549313	1.046206
C141	C	0.538110	0.163190	0.546193
C142	C	1.038110	0.663190	1.046193
C143	C	0.538107	0.163187	0.454005
C144	C	1.038107	0.663187	0.954005
C145	C	0.570987	0.106250	0.407919
C146	C	1.070987	0.606250	0.907919
C147	C	0.570992	0.106251	0.592297
C148	C	1.070992	0.606251	1.092297
C149	C	0.570993	0.106249	0.692253
C150	C	1.070993	0.606249	1.192253
C151	C	0.570985	0.106251	0.307957
C152	C	1.070985	0.606251	0.807957
H153	H	0.651686	-0.334138	0.000125
H154	H	1.151686	0.165862	0.500125
H155	H	0.630637	0.002953	0.416495
H156	H	1.130637	0.502953	0.916495
H157	H	-0.050359	0.104097	0.224795
H158	H	0.449641	0.604097	0.724795
H159	H	0.630638	0.002950	0.583736
H160	H	1.130638	0.502950	1.083736
C161	C	0.093687	0.106601	-0.247394
C162	C	0.593687	0.606601	0.252606
H163	H	0.115926	0.106978	-0.294933
H164	H	0.615926	0.606978	0.205067
H165	H	0.070318	0.154750	-0.250740
H166	H	0.570318	0.654750	0.249260
H167	H	0.077722	0.057741	-0.250698
H168	H	0.577722	0.557741	0.249302
H169	H	-0.050368	0.104099	-0.224562
H170	H	0.449632	0.604099	0.275438
C171	C	0.501934	0.225798	0.596886
C172	C	1.001934	0.725798	1.096886
H173	H	0.482345	0.259694	0.556227
H174	H	0.982345	0.759694	1.056227
H175	H	0.519302	0.260206	0.632857
H176	H	1.019302	0.760206	1.132857
H177	H	0.481823	0.196107	0.632839
H178	H	0.981823	0.696107	1.132839
C179	C	-0.289509	0.100110	0.167787
C180	C	0.210491	0.600110	0.667787
H181	H	-0.323151	0.099578	0.156346
H182	H	0.176849	0.599578	0.656346
H183	H	-0.284904	0.148816	0.200453
H184	H	0.215096	0.648816	0.700453
H185	H	-0.277600	0.051807	0.200731
H186	H	0.222400	0.551807	0.700731
C187	C	0.662532	-0.506823	0.000118
C188	C	1.162532	-0.006823	0.500118
H189	H	0.689149	-0.474834	0.000134
H190	H	1.189149	0.025166	0.500134
H191	H	0.664020	-0.541079	-0.050955
H192	H	1.164020	-0.041079	0.449045
H193	H	0.664014	-0.541088	0.051197
H194	H	1.164014	-0.041088	0.551197
H195	H	0.511331	0.209551	0.416470
H196	H	1.011331	0.709551	0.916470
C197	C	0.479437	-0.280656	0.000089
C198	C	0.979437	0.219344	0.500089
H199	H	0.452819	-0.312640	0.000092
H200	H	0.952819	0.187360	0.500092
H201	H	0.477954	-0.246390	-0.050983
H202	H	0.977954	0.253610	0.449017
H203	H	0.477954	-0.246402	0.051169
H204	H	0.977954	0.253598	0.551169
C205	C	0.477579	-0.462744	0.000086
C206	C	0.977579	0.037256	0.500086
H207	H	0.483293	-0.522096	0.000096
H208	H	0.983293	-0.022096	0.500096
H209	H	0.459629	-0.444218	-0.050987
H210	H	0.959629	0.055782	0.449013
H211	H	0.459632	-0.444223	0.051165
H212	H	0.959632	0.055777	0.551165
H213	H	0.332815	0.110859	0.144946
H214	H	0.832815	0.610859	0.644946
C215	C	0.431477	0.112594	0.167740
C216	C	0.931477	0.612594	0.667740
H217	H	0.409244	0.112191	0.215286
H218	H	0.909244	0.612191	0.715286
H219	H	0.447449	0.161440	0.171063
H220	H	0.947449	0.661440	0.671063
H221	H	0.454841	0.064431	0.171058
H222	H	0.954841	0.564431	0.671058
C223	C	0.093699	0.106646	0.247606
C224	C	0.593699	0.606646	0.747606
H225	H	0.115941	0.107045	0.295143
H226	H	0.615941	0.607045	0.795143
H227	H	0.077724	0.057803	0.250947
H228	H	0.577724	0.557803	0.750947
H229	H	0.070338	0.154812	0.250922
H230	H	0.570338	0.654812	0.750922
C231	C	0.199560	0.108499	0.247597
C232	C	0.699560	0.608499	0.747597
H233	H	0.233198	0.109096	0.236173
H234	H	0.733198	0.609096	0.736173
H235	H	0.194991	0.059851	0.280399
H236	H	0.694991	0.559851	0.780399
H237	H	0.187599	0.156860	0.280396
H238	H	0.687599	0.656860	0.780396
C239	C	-0.183615	0.101753	0.167789
C240	C	0.316385	0.601753	0.667789
H241	H	-0.205851	0.101354	0.215332
H242	H	0.294149	0.601354	0.715332
H243	H	-0.167638	0.150593	0.171117
H244	H	0.332362	0.650593	0.671117
H245	H	-0.160256	0.053584	0.171105
H246	H	0.339744	0.553584	0.671105
H247	H	-0.282296	0.100045	-0.144719
H248	H	0.217704	0.600045	0.355281
H249	H	0.041086	0.105706	-0.224565
H250	H	0.541086	0.605706	0.275435
H251	H	0.192346	0.108351	-0.224583
H252	H	0.692346	0.608351	0.275417
C253	C	0.325583	0.110756	-0.167571
C254	C	0.825583	0.610756	0.332429
H255	H	0.347817	0.111151	-0.215118
H256	H	0.847817	0.611151	0.284882
H257	H	0.302218	0.158912	-0.170883
H258	H	0.802218	0.658912	0.329117
H259	H	0.309613	0.061903	-0.170898
H260	H	0.809613	0.561903	0.329102
C261	C	0.431465	0.112592	-0.167574
C262	C	0.931465	0.612592	0.332426
H263	H	0.465102	0.113176	-0.156134
H264	H	0.965102	0.613176	0.343866
H265	H	0.419508	0.160943	-0.200393
H266	H	0.919508	0.660943	0.299607
H267	H	0.426899	0.063935	-0.200363
H268	H	0.926899	0.563935	0.299637
C269	C	-0.183637	0.101771	-0.167540
C270	C	0.316363	0.601771	0.332460
H271	H	-0.205880	0.101391	-0.215078
H272	H	0.294120	0.601391	0.284922
H273	H	-0.160273	0.053616	-0.170868
H274	H	0.339727	0.553616	0.329132
H275	H	-0.167668	0.150625	-0.170864
H276	H	0.332332	0.650625	0.329136
H277	H	0.041109	0.105710	0.224799
H278	H	0.541109	0.605710	0.724799
