data_functionalizedCrystal
_audit_creation_method	'MofGen! by Chris Wilmer'
_symmetry_space_group_name_H-M	'P1'
_symmetry_Int_Tables_number	1
_symmetry_cell_setting	triclinic
loop_
_symmetry_equiv_pos_as_xyz
  x,y,z
_cell_length_a	14.971486
_cell_length_b	12.996460
_cell_length_c	14.971494
_cell_angle_alpha	90.004427
_cell_angle_beta	83.615843
_cell_angle_gamma	90.000625
loop_
_atom_site_label
_atom_site_type_symbol
_atom_site_fract_x
_atom_site_fract_y
_atom_site_fract_z
O1	O	1.186949	0.085444	0.116564
O2	O	1.686949	0.585444	0.616564
O3	O	0.926550	0.085472	0.130523
O4	O	1.426550	0.585472	0.630523
O5	O	1.063725	0.085455	-0.006656
O6	O	1.563725	0.585455	0.493344
O7	O	1.049774	0.085461	0.253743
O8	O	1.549774	0.585461	0.753743
O9	O	1.063711	-0.085679	-0.006664
O10	O	1.563711	0.414321	0.493336
O11	O	0.926535	-0.085662	0.130515
O12	O	1.426535	0.414338	0.630515
O13	O	1.186935	-0.085689	0.116556
O14	O	1.686935	0.414311	0.616556
Cu15	Cu	1.056734	-0.101301	0.123535
Cu16	Cu	1.556734	0.398699	0.623535
Cu17	Cu	1.056751	0.101084	0.123544
Cu18	Cu	1.556751	0.601084	0.623544
O19	O	1.049760	-0.085672	0.253735
O20	O	1.549760	0.414328	0.753735
C21	C	0.893218	-0.000091	0.129895
C22	C	1.393218	0.499909	0.629895
C23	C	0.793921	-0.000081	0.128024
C24	C	1.293921	0.499919	0.628024
N25	N	1.056729	-0.243648	0.123528
N26	N	1.556729	0.256352	0.623528
C27	C	0.736698	-0.000080	0.208613
C28	C	1.236698	0.499920	0.708613
C29	C	0.643398	-0.000096	0.206850
C30	C	1.143398	0.499904	0.706850
C31	C	0.607323	-0.000104	0.124497
C32	C	1.107323	0.499896	0.624497
C33	C	0.664554	-0.000108	0.043902
C34	C	1.164554	0.499892	0.543902
C35	C	0.757851	-0.000100	0.045666
C36	C	1.257851	0.499900	0.545666
C37	C	0.470091	-0.000122	0.040231
C38	C	0.970091	0.499878	0.540231
C39	C	0.376787	-0.000128	0.038466
C40	C	0.876787	0.499872	0.538466
C41	C	0.355638	-0.000118	0.201415
C42	C	0.855638	0.499882	0.701415
C43	C	0.448936	-0.000110	0.203179
C44	C	0.948936	0.499890	0.703179
C45	C	0.506160	-0.000111	0.122583
C46	C	1.006160	0.499889	0.622583
C47	C	1.056750	-0.663463	0.123545
C48	C	1.556750	-0.163463	0.623545
C49	C	1.056741	-0.546658	0.123543
C50	C	1.556741	-0.046658	0.623543
C51	C	1.056740	-0.453559	0.123537
C52	C	1.556740	0.046441	0.623537
C53	C	1.056730	-0.336747	0.123534
C54	C	1.556730	0.163253	0.623534
C55	C	1.220267	-0.000124	0.117184
C56	C	1.720267	0.499876	0.617184
C57	C	1.319564	-0.000128	0.119055
C58	C	1.819564	0.499872	0.619055
C59	C	1.063093	-0.000110	-0.039985
C60	C	1.563093	0.499890	0.460015
C61	C	1.061219	-0.000105	-0.139281
C62	C	1.561219	0.499895	0.360719
N63	N	1.056763	0.243431	0.123544
N64	N	1.556763	0.743431	0.623544
C65	C	1.060349	0.093181	-0.185922
C66	C	1.560349	0.593181	0.314078
C67	C	1.058582	0.093183	-0.279221
C68	C	1.558582	0.593183	0.220779
C69	C	1.057693	-0.000103	-0.325879
C70	C	1.557693	0.499897	0.174121
C71	C	1.058561	-0.093397	-0.279231
C72	C	1.558561	0.406603	0.220769
C73	C	1.060320	-0.093397	-0.185933
C74	C	1.560320	0.406603	0.314067
C75	C	1.054895	-0.093389	-0.473694
C76	C	1.554895	0.406611	0.026306
C77	C	1.053136	-0.093390	-0.566999
C78	C	1.553136	0.406610	-0.066999
C79	C	1.053156	0.093190	-0.566982
C80	C	1.553156	0.593190	-0.066982
C81	C	1.054916	0.093190	-0.473684
C82	C	1.554916	0.593190	0.026316
C83	C	1.055786	-0.000104	-0.427043
C84	C	1.555786	0.499896	0.072957
C85	C	1.050392	-0.000105	0.287064
C86	C	1.550392	0.499895	0.787064
C87	C	1.052266	-0.000103	0.386360
C88	C	1.552266	0.499897	0.886360
H89	H	0.766062	-0.000073	0.275674
H90	H	1.266062	0.499927	0.775674
H91	H	1.052447	0.169154	-0.604961
H92	H	1.552447	0.669154	-0.104961
C93	C	0.979950	0.201405	-0.358853
C94	C	1.479950	0.701405	0.141147
C95	C	1.055807	0.195757	-0.422425
C96	C	1.555807	0.695757	0.077575
H97	H	0.980477	0.264733	-0.327215
H98	H	1.480477	0.764733	0.172785
H99	H	0.927180	0.197448	-0.388521
H100	H	1.427180	0.697448	0.111479
H101	H	0.980758	0.145872	-0.317699
H102	H	1.480758	0.645872	0.182301
H103	H	1.054996	0.251287	-0.463583
H104	H	1.554996	0.751287	0.036417
H105	H	1.108591	0.199725	-0.392756
H106	H	1.608591	0.699725	0.107244
C107	C	1.053268	-0.277817	-0.557646
C108	C	1.553268	0.222183	-0.057646
C109	C	1.052146	-0.195930	-0.618286
C110	C	1.552146	0.304070	-0.118286
H111	H	1.052650	-0.341121	-0.589310
H112	H	1.552650	0.158879	-0.089310
H113	H	1.106071	-0.273957	-0.528022
H114	H	1.606071	0.226043	-0.028022
H115	H	1.001832	-0.273917	-0.514490
H116	H	1.501832	0.226083	-0.014490
H117	H	1.103586	-0.199826	-0.661439
H118	H	1.603586	0.300174	-0.161439
H119	H	0.999337	-0.199792	-0.647925
H120	H	1.499337	0.300208	-0.147925
H121	H	1.055583	-0.169359	-0.435720
H122	H	1.555583	0.330641	0.064280
H123	H	1.057877	0.169146	-0.317192
H124	H	1.557877	0.669146	0.182808
H125	H	1.061017	-0.169360	-0.147958
H126	H	1.561017	0.330640	0.352042
H127	H	0.516681	-0.000125	-0.025399
H128	H	1.016681	0.499875	0.474601
C129	C	0.875047	0.087877	-0.046874
C130	C	1.375047	0.587877	0.453126
C131	C	0.820758	-0.000097	-0.042918
C132	C	1.320758	0.499903	0.457082
H133	H	0.913886	0.087871	-0.101561
H134	H	1.413886	0.587871	0.398439
H135	H	0.838209	0.147542	-0.044180
H136	H	1.338209	0.647542	0.455820
H137	H	0.909877	0.087871	0.002431
H138	H	1.409877	0.587871	0.502431
H139	H	0.785924	-0.000087	-0.092219
H140	H	1.285924	0.499913	0.407781
H141	H	0.857601	-0.059777	-0.045621
H142	H	1.357601	0.440223	0.454379
C143	C	0.694837	-0.000118	-0.116988
C144	C	1.194837	0.499882	0.383012
C145	C	0.624904	-0.000116	-0.046624
C146	C	1.124904	0.499884	0.453376
H147	H	0.670358	-0.000127	-0.172875
H148	H	1.170358	0.499873	0.327125
H149	H	0.730782	0.059557	-0.112907
H150	H	1.230782	0.559557	0.387093
H151	H	0.730788	-0.059800	-0.112907
H152	H	1.230788	0.440200	0.387093
H153	H	0.588956	0.059569	-0.050701
H154	H	1.088956	0.559569	0.449299
H155	H	0.588943	-0.059798	-0.050706
H156	H	1.088943	0.440202	0.449294
C157	C	0.631865	-0.000071	0.368091
C158	C	1.131865	0.499929	0.868091
C159	C	0.580499	-0.000090	0.295436
C160	C	1.080499	0.499910	0.795436
H161	H	0.593031	-0.000063	0.422782
H162	H	1.093031	0.499937	0.922782
H163	H	0.668698	-0.059741	0.365391
H164	H	1.168698	0.440259	0.865391
H165	H	0.668692	0.059616	0.365382
H166	H	1.168692	0.559616	0.865382
H167	H	0.543676	-0.059782	0.298142
H168	H	1.043676	0.440218	0.798142
H169	H	0.543651	0.059586	0.298138
H170	H	1.043651	0.559586	0.798138
C171	C	0.203232	-0.000134	0.271073
C172	C	0.703232	0.499866	0.771073
C173	C	0.292741	-0.000118	0.290008
C174	C	0.792741	0.499882	0.790008
H175	H	0.164401	-0.000135	0.325766
H176	H	0.664401	0.499865	0.825766
H177	H	0.192288	0.059533	0.237312
H178	H	0.692288	0.559533	0.737312
H179	H	0.192300	-0.059823	0.237312
H180	H	0.692300	0.440177	0.737312
H181	H	0.303674	0.059576	0.323764
H182	H	0.803674	0.559576	0.823764
H183	H	0.303689	-0.059791	0.323784
H184	H	0.803689	0.440209	0.823784
H185	H	1.057831	-0.169352	-0.317226
H186	H	1.557831	0.330648	0.182774
H187	H	0.478304	-0.000093	0.270238
H188	H	0.978304	0.499907	0.770238
H189	H	0.347418	-0.000136	-0.028593
H190	H	0.847418	0.499864	0.471407
H191	H	1.061078	0.169146	-0.147941
H192	H	1.561078	0.669146	0.352059
