data_functionalizedCrystal
_audit_creation_method	'MofGen! by Chris Wilmer'
_symmetry_space_group_name_H-M	'P1'
_symmetry_Int_Tables_number	1
_symmetry_cell_setting	triclinic
loop_
_symmetry_equiv_pos_as_xyz
  x,y,z
_cell_length_a	12.759395
_cell_length_b	12.594516
_cell_length_c	12.759387
_cell_angle_alpha	90.028490
_cell_angle_beta	90.020509
_cell_angle_gamma	90.017589
loop_
_atom_site_label
_atom_site_type_symbol
_atom_site_fract_x
_atom_site_fract_y
_atom_site_fract_z
Zn1	Zn	1.606259	-0.423642	0.594022
Zn2	Zn	1.606145	-0.601660	0.418349
Zn3	Zn	1.430557	-0.423700	0.418359
Zn4	Zn	1.430545	-0.601584	0.593989
O5	O	1.518377	-0.512647	0.506180
O6	O	1.753265	-0.447264	0.570729
O7	O	1.582811	-0.578109	0.271330
O8	O	1.453917	-0.274747	0.441679
O9	O	1.753181	-0.578053	0.441663
O10	O	1.583004	-0.274704	0.570738
O11	O	1.453807	-0.447363	0.271336
O12	O	1.283534	-0.447290	0.441646
O13	O	1.453897	-0.577924	0.741014
O14	O	1.283526	-0.577980	0.570681
O15	O	1.582993	-0.447191	0.741039
O16	O	1.582799	-0.750595	0.441631
O17	O	1.453786	-0.750540	0.570672
C18	C	1.245409	-0.512634	0.506162
C19	C	1.128632	-0.512654	0.506179
C20	C	1.128662	-0.648962	0.640325
C21	C	1.073816	-0.717124	0.707401
C22	C	0.964094	-0.717137	0.707414
C23	C	0.909216	-0.648978	0.640346
C24	C	0.964062	-0.580816	0.573270
C25	C	1.073786	-0.580812	0.573262
C26	C	0.964033	-0.444504	0.439130
C27	C	1.073754	-0.444495	0.439111
C28	C	0.909155	-0.376345	0.372062
C29	C	0.964001	-0.308186	0.304979
C30	C	1.073729	-0.308177	0.304968
C31	C	1.128600	-0.376332	0.372034
C32	C	1.518308	-0.789188	0.506169
C33	C	1.518374	-0.907493	0.506200
C34	C	1.448198	-0.976755	0.576336
C35	C	1.422596	-1.047624	0.480469
C36	C	1.544072	-1.047422	0.602083
C37	C	1.492722	-0.976805	0.410282
C38	C	1.614242	-0.976596	0.531961
C39	C	1.588677	-1.047434	0.436028
C40	C	1.792410	-0.512660	0.506198
C41	C	1.909187	-0.512666	0.506206
C42	C	1.518456	-0.512542	0.780213
C43	C	1.518490	-0.512498	0.896990
C44	C	1.518474	-0.235026	0.506213
C45	C	1.518516	-0.116720	0.506227
C46	C	1.518358	-0.512674	0.233212
C47	C	1.518528	-0.512418	0.116436
C48	C	1.652927	-0.376375	0.897035
C49	C	1.720160	-0.308297	0.951919
C50	C	1.720185	-0.308258	1.061641
C51	C	1.652968	-0.376302	1.116481
C52	C	1.585735	-0.444380	1.061598
C53	C	1.585719	-0.444413	0.951874
C54	C	1.451295	-0.580496	1.061553
C55	C	1.451273	-0.580542	0.951831
C56	C	1.384078	-0.648540	1.116393
C57	C	1.316848	-0.716624	1.061510
C58	C	1.316826	-0.716661	0.951781
C59	C	1.384040	-0.648619	0.896947
H60	H	0.919439	-0.772635	0.762038
C61	C	1.367889	-0.934817	0.656341
H62	H	1.299855	-0.959142	0.637871
H63	H	1.385425	-0.960034	0.724272
H64	H	1.368831	-0.859394	0.656218
H65	H	1.341588	-1.078847	0.458703
H66	H	0.819813	-0.376356	0.372082
H67	H	1.565749	-1.078442	0.683160
H68	H	1.470951	-0.945913	0.329184
C69	C	1.652992	-0.376253	1.237172
H70	H	1.702661	-0.325965	1.262004
H71	H	1.585206	-0.357832	1.261984
H72	H	1.671143	-0.444936	1.261986
C73	C	1.242922	-0.791464	1.121834
H74	H	1.252568	-0.781691	1.195040
H75	H	1.172334	-0.775890	1.103842
H76	H	1.258275	-0.862991	1.103850
H77	H	1.648084	-1.078273	0.376659
C78	C	1.723669	-0.934453	0.561407
H79	H	1.741781	-0.958599	0.629574
H80	H	1.773719	-0.959731	0.512275
H81	H	1.723015	-0.859032	0.560557
H82	H	1.218003	-0.648966	0.640314
H83	H	0.919310	-0.252692	0.250383
C84	C	1.384106	-0.648500	1.237084
H85	H	1.433781	-0.598219	1.261918
H86	H	1.316323	-0.630076	1.261902
H87	H	1.402254	-0.717187	1.261890
C88	C	1.134183	-0.792094	0.781170
H89	H	1.207384	-0.782334	0.771553
H90	H	1.116236	-0.776612	0.851789
H91	H	1.116177	-0.863594	0.765663
H92	H	1.652922	-0.376409	0.807694
H93	H	1.774884	-0.252895	0.907255
C94	C	0.788526	-0.648988	0.640365
H95	H	0.763722	-0.699346	0.689917
H96	H	0.763728	-0.580327	0.658652
H97	H	0.763669	-0.667319	0.572535
C98	C	1.794141	-0.233378	1.122015
H99	H	1.834174	-0.192863	1.073644
H100	H	1.753983	-0.186985	1.164823
H101	H	1.839910	-0.274099	1.164813
C102	C	1.242887	-0.791567	0.891418
H103	H	1.202874	-0.832091	0.939796
H104	H	1.197115	-0.750880	0.848601
H105	H	1.283070	-0.837966	0.848628
C106	C	1.384013	-0.648658	0.776257
H107	H	1.334349	-0.698950	0.751421
H108	H	1.365875	-0.579976	0.751447
H109	H	1.451802	-0.667091	0.751443
C110	C	1.134051	-0.233194	0.231186
H111	H	1.085650	-0.192611	0.191246
H112	H	1.176885	-0.186869	0.271452
H113	H	1.176821	-0.273849	0.185324
H114	H	1.217941	-0.376334	0.372029
