data_functionalizedCrystal
_audit_creation_method	'MofGen! by Chris Wilmer'
_symmetry_space_group_name_H-M	'P1'
_symmetry_Int_Tables_number	1
_symmetry_cell_setting	triclinic
loop_
_symmetry_equiv_pos_as_xyz
  x,y,z
_cell_length_a	14.044220
_cell_length_b	10.654550
_cell_length_c	9.130313
_cell_angle_alpha	90.004369
_cell_angle_beta	89.996931
_cell_angle_gamma	91.163096
loop_
_atom_site_label
_atom_site_type_symbol
_atom_site_fract_x
_atom_site_fract_y
_atom_site_fract_z
O1	O	1.259697	-0.302986	-0.121795
O2	O	0.983656	-0.292053	-0.121799
O3	O	1.128023	-0.115418	-0.121788
O4	O	1.115330	-0.479621	-0.121806
O5	O	1.128013	-0.115411	0.121811
O6	O	0.983646	-0.292046	0.121800
O7	O	1.259687	-0.302979	0.121804
Cu8	Cu	1.121666	-0.297512	0.144044
Cu9	Cu	1.121678	-0.297520	-0.144040
O10	O	1.115320	-0.479614	0.121792
C11	C	0.948305	-0.287263	0.000000
C12	C	0.842986	-0.272988	-0.000001
C13	C	1.127086	-0.068523	0.000011
C14	C	1.124298	0.071201	0.000009
C15	C	1.295038	-0.307769	0.000001
C16	C	1.400358	-0.322044	-0.000007
C17	C	1.593191	-0.348143	-0.000007
C18	C	1.650158	-0.246895	-0.000001
C19	C	1.757457	-0.261416	-0.000001
C20	C	1.485882	-0.333623	-0.000007
C21	C	1.116257	-0.526509	-0.000009
C22	C	1.119045	-0.666233	-0.000017
N23	N	1.121664	-0.297507	0.346667
C24	C	1.209299	0.142144	0.000009
C25	C	1.206673	0.273429	-0.000009
C26	C	1.034038	0.262814	-0.000022
C27	C	1.036665	0.131532	-0.000014
N28	N	1.121686	-0.297516	-0.346662
C29	C	1.185612	-0.219331	0.423324
C30	C	1.185621	-0.219332	0.576660
C31	C	1.057732	-0.375695	0.576670
C32	C	1.057719	-0.375687	0.423336
H33	H	1.625001	-0.445722	-0.000013
H34	H	1.280656	0.093027	0.000025
H35	H	1.237692	-0.155673	0.639070
N36	N	0.944519	0.324424	-0.000003
N37	N	0.868631	0.261061	0.000008
H38	H	0.805405	0.304570	0.000031
N39	N	1.610274	-0.124460	-0.000027
N40	N	1.663774	-0.029260	-0.000039
H41	H	1.635603	0.057208	-0.000064
N42	N	1.293509	0.345877	-0.000019
N43	N	1.371742	0.291989	-0.000007
H44	H	1.433074	0.343154	-0.000018
N45	N	0.949824	0.059074	-0.000030
N46	N	0.871587	0.112953	-0.000043
H47	H	0.810258	0.061781	-0.000061
H48	H	1.237679	-0.155670	0.360903
N49	N	0.992422	-0.455542	0.655012
N50	N	0.992442	-0.455541	0.791916
H51	H	0.946317	-0.511935	0.847245
N52	N	0.992381	-0.455545	0.345046
N53	N	0.935297	-0.525346	0.413513
H54	H	0.889150	-0.581740	0.358222
