data_functionalizedCrystal
_audit_creation_method	'MofGen! by Chris Wilmer'
_symmetry_space_group_name_H-M	'P1'
_symmetry_Int_Tables_number	1
_symmetry_cell_setting	triclinic
loop_
_symmetry_equiv_pos_as_xyz
  x,y,z
_cell_length_a	10.654550
_cell_length_b	16.992694
_cell_length_c	9.130313
_cell_angle_alpha	90.002155
_cell_angle_beta	89.998405
_cell_angle_gamma	87.576576
loop_
_atom_site_label
_atom_site_type_symbol
_atom_site_fract_x
_atom_site_fract_y
_atom_site_fract_z
O1	O	0.266431	1.041839	-0.121600
O2	O	0.263508	0.813538	-0.121644
O3	O	0.082684	0.932938	-0.121622
O4	O	0.447255	0.922439	-0.121622
O5	O	0.082678	0.932929	0.121977
O6	O	0.263502	0.813530	0.121955
O7	O	0.266425	1.041831	0.121999
Cu8	Cu	0.264963	0.927679	0.144219
Cu9	Cu	0.264970	0.927689	-0.143864
O10	O	0.447249	0.922431	0.121977
C11	C	0.259745	0.784301	0.000150
C12	C	0.248526	0.697196	0.000133
C13	C	0.035816	0.932163	0.000174
C14	C	-0.103826	0.929856	0.000163
C15	C	-0.300645	0.926602	-0.132612
C16	C	-0.169437	0.928777	-0.132621
C17	C	-0.169431	0.928769	0.132964
C18	C	-0.300638	0.926600	0.132971
C19	C	0.356776	0.647544	0.000134
C20	C	0.346227	0.565700	0.000155
C21	C	0.227426	0.533509	0.000163
C22	C	0.119167	0.583167	0.000166
C23	C	0.129718	0.665010	0.000157
C24	C	0.183699	0.289674	0.000202
C25	C	0.173157	0.207825	0.000208
C26	C	0.400218	0.190363	0.000199
C27	C	0.410758	0.272208	0.000180
C28	C	0.302499	0.321859	0.000191
N29	N	0.216640	0.449852	0.000179
N30	N	0.313286	0.405515	0.000186
C31	C	0.494117	0.923206	0.000178
C32	C	0.633759	0.925512	0.000179
C33	C	0.270188	1.071068	0.000202
C34	C	0.281408	1.158173	0.000209
N35	N	0.264957	0.927678	0.346842
N36	N	0.264966	0.927697	-0.346487
C37	C	0.184926	0.980567	0.423503
C38	C	0.184927	0.980574	0.576840
C39	C	0.345001	0.874803	0.576841
C40	C	0.344993	0.874792	0.423507
H41	H	-0.354055	0.925716	-0.240740
H42	H	-0.354048	0.925714	0.241112
H43	H	-0.116002	0.929653	0.241079
H44	H	0.119754	1.023629	0.361087
H45	H	0.453517	0.673747	0.000126
H46	H	0.434377	0.525276	0.000154
H47	H	-0.116034	0.929666	-0.240752
H48	H	0.041568	0.705436	0.000155
H49	H	0.507498	0.298411	0.000156
H50	H	0.119756	1.023639	0.639254
H51	H	0.095546	0.330090	0.000212
H52	H	0.410165	0.831720	0.361085
H53	H	0.488356	0.149929	0.000193
H54	H	0.076410	0.181619	0.000213
H55	H	0.022437	0.556951	0.000194
H56	H	0.410167	0.831745	0.639277
