data_functionalizedCrystal
_audit_creation_method	'MofGen! by Chris Wilmer'
_symmetry_space_group_name_H-M	'P1'
_symmetry_Int_Tables_number	1
_symmetry_cell_setting	triclinic
loop_
_symmetry_equiv_pos_as_xyz
  x,y,z
_cell_length_a	11.792241
_cell_length_b	12.503572
_cell_length_c	11.792241
_cell_angle_alpha	86.452757
_cell_angle_beta	84.193416
_cell_angle_gamma	93.538276
loop_
_atom_site_label
_atom_site_type_symbol
_atom_site_fract_x
_atom_site_fract_y
_atom_site_fract_z
O1	O	1.513406	0.089216	0.149050
O2	O	2.013406	0.589216	0.649050
O3	O	1.183067	0.089241	0.165081
O4	O	1.683067	0.589241	0.665081
O5	O	1.356252	0.089221	-0.008105
O6	O	1.856252	0.589221	0.491895
O7	O	1.340220	0.089237	0.322235
O8	O	1.840220	0.589237	0.822235
O9	O	1.343228	-0.089420	0.004941
O10	O	1.843228	0.410580	0.504941
O11	O	1.170042	-0.089399	0.178127
O12	O	1.670042	0.410601	0.678127
O13	O	1.500381	-0.089424	0.162096
O14	O	2.000381	0.410576	0.662096
Cu15	Cu	1.334023	-0.105723	0.171303
Cu16	Cu	1.834023	0.394277	0.671303
Cu17	Cu	1.349425	0.105540	0.155874
Cu18	Cu	1.849425	0.605540	0.655874
O19	O	1.327196	-0.089403	0.335281
O20	O	1.827196	0.410597	0.835281
C21	C	1.134264	-0.000076	0.170596
C22	C	1.634264	0.499924	0.670596
C23	C	1.008251	-0.000066	0.167581
C24	C	1.508251	0.499934	0.667581
N25	N	1.323197	-0.254314	0.182154
N26	N	1.823197	0.245686	0.682154
C27	C	0.777536	-0.000097	0.162041
C28	C	1.277536	0.499903	0.662041
C29	C	0.905923	-0.000080	0.165119
C30	C	1.405923	0.499920	0.665119
C31	C	1.307273	-0.473427	0.198126
C32	C	1.807273	0.026573	0.698126
C33	C	1.376180	-0.526763	0.129046
C34	C	1.876180	-0.026763	0.629046
C35	C	1.367320	-0.648685	0.137933
C36	C	1.867320	-0.148685	0.637933
C37	C	1.316132	-0.351494	0.189240
C38	C	1.816132	0.148506	0.689240
C39	C	1.549185	-0.000105	0.156580
C40	C	2.049185	0.499895	0.656580
C41	C	1.675198	-0.000107	0.159594
C42	C	2.175198	0.499893	0.659594
C43	C	1.348733	-0.000099	-0.043873
C44	C	1.848733	0.499901	0.456127
C45	C	1.345718	-0.000098	-0.169886
C46	C	1.845718	0.499902	0.330114
N47	N	1.360260	0.254131	0.145014
N48	N	1.860260	0.754131	0.645014
C49	C	1.340177	-0.000079	-0.400600
C50	C	1.840177	0.499921	0.099400
C51	C	1.343256	-0.000089	-0.272214
C52	C	1.843256	0.499911	0.227786
C53	C	1.334715	-0.000081	0.371049
C54	C	1.834715	0.499919	0.871049
C55	C	1.337730	-0.000076	0.497062
C56	C	1.837730	0.499924	0.997062
H57	H	1.241630	-0.519327	0.263938
H58	H	1.741630	-0.019327	0.763938
H59	H	1.441829	-0.480857	0.063231
H60	H	1.941829	0.019143	0.563231
