data_functionalizedCrystal
_audit_creation_method	'MofGen! by Chris Wilmer'
_symmetry_space_group_name_H-M	'P1'
_symmetry_Int_Tables_number	1
_symmetry_cell_setting	triclinic
loop_
_symmetry_equiv_pos_as_xyz
  x,y,z
_cell_length_a	9.065218
_cell_length_b	10.540539
_cell_length_c	8.140239
_cell_angle_alpha	89.998610
_cell_angle_beta	89.997198
_cell_angle_gamma	84.770688
loop_
_atom_site_label
_atom_site_type_symbol
_atom_site_fract_x
_atom_site_fract_y
_atom_site_fract_z
O1	O	1.959468	0.186143	-0.136609
O2	O	1.530107	0.201412	-0.136611
O3	O	1.754583	0.009107	-0.136608
O4	O	1.734992	0.378448	-0.136612
O5	O	1.754571	0.009105	0.136619
O6	O	1.530095	0.201409	0.136616
O7	O	1.959456	0.186141	0.136618
Zn8	Zn	1.744773	0.193775	0.179998
Zn9	Zn	1.744790	0.193778	-0.179991
O10	O	1.734980	0.378446	0.136615
C11	C	1.475122	0.199943	0.000003
C12	C	1.311301	0.195556	0.000002
C13	C	1.753108	-0.038202	0.000003
C14	C	1.748712	-0.179167	-0.000006
C15	C	1.580278	-0.363216	-0.000620
C16	C	1.584734	-0.216582	-0.000005
C17	C	1.827619	-0.240534	0.156020
C18	C	1.822022	-0.387099	0.156152
C19	C	1.825372	-0.387602	-0.154558
C20	C	1.826882	-0.240615	-0.156621
C21	C	2.014441	0.187610	0.000001
C22	C	2.178262	0.191997	-0.000009
C23	C	1.736455	0.425755	0.000001
C24	C	1.740851	0.566719	-0.000001
N25	N	1.744773	0.193772	0.425681
N26	N	1.744802	0.193771	-0.425673
H27	H	1.522646	-0.174207	-0.111851
H28	H	1.522200	-0.175058	0.112027
C29	C	1.981333	-0.451317	0.165743
C30	C	2.041699	-0.541338	0.027507
C31	C	2.201006	-0.605547	0.037109
C32	C	2.299949	-0.579734	0.184948
C33	C	2.239584	-0.489709	0.323195
C34	C	2.080277	-0.425501	0.313592
H35	H	1.968454	-0.560450	-0.081942
H36	H	2.245691	-0.672189	-0.065231
H37	H	2.417878	-0.627265	0.192056
H38	H	2.312829	-0.470598	0.432643
H39	H	2.035592	-0.358858	0.415932
H40	H	1.948040	-0.217735	0.161822
H41	H	1.515508	-0.392055	-0.112509
C42	C	1.753556	-0.183276	0.312885
C43	C	1.844747	-0.112864	0.437271
C44	C	1.770675	-0.055608	0.594131
C45	C	1.605411	-0.068764	0.626603
C46	C	1.514210	-0.139178	0.502213
C47	C	1.588283	-0.196434	0.345354
H48	H	1.967094	-0.103123	0.413236
H49	H	1.838188	-0.003483	0.686212
H50	H	1.550578	-0.026379	0.742720
H51	H	1.391863	-0.148919	0.526248
H52	H	1.520769	-0.248560	0.253272
H53	H	1.763696	-0.415515	0.272784
C54	C	1.753686	-0.430480	-0.314325
C55	C	1.844964	-0.517662	-0.435993
C56	C	1.773261	-0.560537	-0.595750
C57	C	1.610279	-0.516231	-0.633839
C58	C	1.518992	-0.429044	-0.512168
C59	C	1.590695	-0.386169	-0.352411
H60	H	1.965621	-0.550464	-0.407800
H61	H	1.840838	-0.625079	-0.685818
H62	H	1.557200	-0.547970	-0.752100
H63	H	1.398335	-0.396242	-0.540361
H64	H	1.523117	-0.321627	-0.262343
C65	C	1.988392	-0.207297	-0.169366
C66	C	2.052414	-0.123339	-0.037190
C67	C	2.213929	-0.090020	-0.049924
C68	C	2.311422	-0.140658	-0.194834
C69	C	2.247401	-0.224622	-0.327021
C70	C	2.085886	-0.257941	-0.314287
H71	H	1.980243	-0.085849	0.070090
H72	H	2.261321	-0.027864	0.047930
H73	H	2.430985	-0.115993	-0.204260
H74	H	2.319572	-0.262112	-0.434301
H75	H	2.038494	-0.320096	-0.412141
H76	H	1.769147	-0.199969	-0.272045
H77	H	1.943812	-0.434390	-0.155607
H78	H	1.515761	-0.393663	0.110642
