data_functionalizedCrystal
_audit_creation_method	'MofGen! by Chris Wilmer'
_symmetry_space_group_name_H-M	'P1'
_symmetry_Int_Tables_number	1
_symmetry_cell_setting	triclinic
loop_
_symmetry_equiv_pos_as_xyz
  x,y,z
_cell_length_a	19.288864
_cell_length_b	19.288865
_cell_length_c	17.766277
_cell_angle_alpha	90.011603
_cell_angle_beta	90.023209
_cell_angle_gamma	83.136245
loop_
_atom_site_label
_atom_site_type_symbol
_atom_site_fract_x
_atom_site_fract_y
_atom_site_fract_z
O1	O	-0.921353	-0.086649	-0.062844
O2	O	-0.588020	0.246685	0.270489
O3	O	-0.254686	0.580018	0.603823
O4	O	-0.719092	-0.098337	-0.062794
O5	O	-0.385759	0.234996	0.270539
O6	O	-0.052426	0.568329	0.603873
O7	O	-0.826067	0.008637	-0.062806
O8	O	-0.492734	0.341971	0.270528
O9	O	-0.159400	0.675304	0.603861
O10	O	-0.814378	-0.193623	-0.062832
O11	O	-0.481045	0.139710	0.270501
O12	O	-0.147712	0.473043	0.603834
O13	O	-0.826048	0.008643	0.062383
O14	O	-0.492715	0.341976	0.395716
O15	O	-0.159382	0.675309	0.729050
O16	O	-0.719074	-0.098332	0.062395
O17	O	-0.385740	0.235001	0.395728
O18	O	-0.052407	0.568335	0.729061
O19	O	-0.921334	-0.086643	0.062344
O20	O	-0.588001	0.246690	0.395678
O21	O	-0.254668	0.580023	0.729011
Cu22	Cu	-0.820202	-0.092487	0.073800
Cu23	Cu	-0.486869	0.240846	0.407134
Cu24	Cu	-0.153536	0.574179	0.740467
Cu25	Cu	-0.820224	-0.092494	-0.074250
Cu26	Cu	-0.486891	0.240840	0.259084
Cu27	Cu	-0.153558	0.574173	0.592417
O28	O	-0.814360	-0.193618	0.062356
O29	O	-0.481026	0.139715	0.395689
O30	O	-0.147693	0.473049	0.729023
C31	C	-0.693207	-0.097959	-0.000193
C32	C	-0.359873	0.235375	0.333140
C33	C	-0.026540	0.568708	0.666474
C34	C	-0.616103	-0.096830	-0.000173
C35	C	-0.282770	0.236504	0.333160
C36	C	0.050564	0.569837	0.666494
C37	C	-0.825682	0.034516	-0.000209
C38	C	-0.492348	0.367850	0.333124
C39	C	-0.159015	0.701183	0.666458
C40	C	-0.824553	0.111620	-0.000202
C41	C	-0.491219	0.444953	0.333131
C42	C	-0.157886	0.778287	0.666465
C43	C	-0.947220	-0.087022	-0.000258
C44	C	-0.613887	0.246311	0.333075
C45	C	-0.280554	0.579645	0.666408
C46	C	-1.024324	-0.088151	-0.000283
C47	C	-0.690990	0.245182	0.333050
C48	C	-0.357657	0.578516	0.666384
C49	C	-0.814745	-0.219497	-0.000242
C50	C	-0.481412	0.113836	0.333091
C51	C	-0.148078	0.447169	0.666424
C52	C	-0.815874	-0.296601	-0.000254
C53	C	-0.482541	0.036733	0.333079
C54	C	-0.149207	0.370066	0.666413
C55	C	-0.571407	-0.159598	-0.000193
C56	C	-0.238073	0.173736	0.333140
C57	C	0.095260	0.507069	0.666473
C58	C	-0.498960	-0.158537	-0.000201
C59	C	-0.165626	0.174796	0.333132
C60	C	0.167707	0.508130	0.666465
C61	C	-0.471212	-0.094705	-0.000205
C62	C	-0.137879	0.238629	0.333129
C63	C	0.195455	0.571962	0.666462
C64	C	-0.515918	-0.031929	-0.000180
C65	C	-0.182585	0.301405	0.333153
C66	C	0.150748	0.634738	0.666487
C67	C	-0.588364	-0.032991	-0.000164
C68	C	-0.255030	0.300342	0.333169
C69	C	0.078303	0.633676	0.666502
C70	C	-0.362957	-0.044527	-0.044082
C71	C	-0.029623	0.288806	0.289251
C72	C	0.303710	0.622139	0.622584
C73	C	-0.290512	-0.043468	-0.044103
C74	C	0.042821	0.289866	0.289231
C75	C	0.376154	0.623199	0.622564
C76	C	-0.247767	-0.091425	-0.000250
C77	C	0.085567	0.241908	0.333084
C78	C	0.418900	0.575242	0.666417
C79	C	-0.277473	-0.140454	0.043614
C80	C	0.055861	0.192879	0.376947
C81	C	0.389194	0.526212	0.710281
C82	C	-0.349918	-0.141517	0.043630
C83	C	-0.016585	0.191817	0.376963
C84	C	0.316749	0.525150	0.710296
C85	C	-0.392658	-0.093546	-0.000221
C86	C	-0.059325	0.239788	0.333112
C87	C	0.274009	0.573121	0.666446
C88	C	-0.124514	-0.153047	-0.000278
C89	C	0.208819	0.180286	0.333056
C90	C	0.542152	0.513619	0.666389
C91	C	-0.052066	-0.151984	-0.000281
C92	C	0.281267	0.181349	0.333052
C93	C	0.614600	0.514683	0.666386
C94	C	-0.069026	-0.025374	-0.000267
C95	C	0.264307	0.307960	0.333066
C96	C	0.597640	0.641293	0.666399
C97	C	-0.141473	-0.026439	-0.000256
C98	C	0.191860	0.306894	0.333077
C99	C	0.525194	0.640228	0.666410
C100	C	-0.169212	-0.090278	-0.000265
C101	C	0.164121	0.243056	0.333068
C102	C	0.497454	0.576389	0.666402
N103	N	-0.820192	-0.092482	0.177931
N104	N	-0.486858	0.240851	0.511264
N105	N	-0.153525	0.574184	0.844597
C106	C	-0.887321	0.156316	-0.000214
C107	C	-0.553987	0.489650	0.333119
C108	C	-0.220654	0.822983	0.666453
C109	C	-0.886260	0.228763	-0.000226
C110	C	-0.552927	0.562097	0.333108
C111	C	-0.219593	0.895430	0.666441
C112	C	-0.822428	0.256511	-0.000210
C113	C	-0.489094	0.589844	0.333123
C114	C	-0.155761	0.923178	0.666456
C115	C	-0.759652	0.211805	-0.000203
C116	C	-0.426318	0.545138	0.333131
C117	C	-0.092985	0.878471	0.666464
C118	C	-0.760714	0.139359	-0.000198
C119	C	-0.427381	0.472693	0.333135
C120	C	-0.094047	0.806026	0.666468
C121	C	-0.772242	0.364800	0.043653
C122	C	-0.438908	0.698133	0.376986
C123	C	-0.105575	1.031467	0.710320
C124	C	-0.771182	0.437245	0.043654
C125	C	-0.437848	0.770578	0.376987
C126	C	-0.104515	1.103911	0.710320
C127	C	-0.819148	0.479956	-0.000226
C128	C	-0.485815	0.813290	0.333107
C129	C	-0.152481	1.146623	0.666440
C130	C	-0.868186	0.450216	-0.044097
C131	C	-0.534853	0.783550	0.289236
C132	C	-0.201519	1.116883	0.622570
C133	C	-0.869249	0.377771	-0.044093
C134	C	-0.535915	0.711104	0.289240
C135	C	-0.202582	1.044438	0.622574
C136	C	-0.821269	0.335065	-0.000215
C137	C	-0.487935	0.668398	0.333118
C138	C	-0.154602	1.001732	0.666452
C139	C	-0.880770	0.603209	-0.000252
C140	C	-0.547437	0.936542	0.333081
C141	C	-0.214104	1.269875	0.666415
C142	C	-0.879707	0.675657	-0.000268
C143	C	-0.546374	1.008990	0.333065
C144	C	-0.213040	1.342323	0.666398
C145	C	-0.753097	0.658697	-0.000238
C146	C	-0.419763	0.992030	0.333096
C147	C	-0.086430	1.325363	0.666429
C148	C	-0.754162	0.586250	-0.000229
C149	C	-0.420829	0.919583	0.333105
C150	C	-0.087495	1.252917	0.666438
C151	C	-0.818001	0.558511	-0.000232
C152	C	-0.484667	0.891844	0.333101
C153	C	-0.151334	1.225177	0.666434
N154	N	-0.820241	-0.092493	-0.178380
N155	N	-0.486907	0.240840	0.154953
N156	N	-0.153574	0.574174	0.488287
C157	C	-0.867575	-0.045137	0.217312
C158	C	-0.534242	0.288196	0.550646
C159	C	-0.200909	0.621530	0.883979
C160	C	-0.867579	-0.045134	0.296114
C161	C	-0.534246	0.288200	0.629447
C162	C	-0.200913	0.621533	0.962781
C163	C	-0.820206	-0.092488	0.335531
C164	C	-0.486873	0.240846	0.668864
C165	C	-0.153540	0.574179	1.002198
C166	C	-0.772814	-0.139837	0.296140
C167	C	-0.439481	0.193497	0.629473
C168	C	-0.106147	0.526830	0.962807
C169	C	-0.772807	-0.139834	0.217340
C170	C	-0.439473	0.193499	0.550673
C171	C	-0.106140	0.526833	0.884006
C172	C	-0.810908	-0.155775	0.460362
C173	C	-0.477574	0.177558	0.793695
C174	C	-0.144241	0.510891	1.127029
C175	C	-0.810920	-0.155779	0.539161
C176	C	-0.477586	0.177554	0.872494
C177	C	-0.144253	0.510888	1.205828
C178	C	-0.820225	-0.092496	0.578577
C179	C	-0.486892	0.240837	0.911911
C180	C	-0.153558	0.574171	1.245244
C181	C	-0.829533	-0.029207	0.539185
C182	C	-0.496199	0.304127	0.872519
C183	C	-0.162866	0.637460	1.205852
C184	C	-0.829525	-0.029204	0.460385
C185	C	-0.496192	0.304129	0.793718
C186	C	-0.162859	0.637463	1.127052
C187	C	-0.820209	-0.092496	0.420977
C188	C	-0.486875	0.240838	0.754310
C189	C	-0.153542	0.574171	1.087643
C190	C	-0.867616	-0.045143	0.703405
C191	C	-0.534282	0.288190	1.036738
C192	C	-0.200949	0.621523	1.370072
C193	C	-0.867615	-0.045139	0.782208
C194	C	-0.534281	0.288194	1.115542
C195	C	-0.200948	0.621527	1.448875
C196	C	-0.772853	-0.139848	0.782233
C197	C	-0.439519	0.193485	1.115566
C198	C	-0.106186	0.526818	1.448899
C199	C	-0.772850	-0.139846	0.703431
C200	C	-0.439517	0.193487	1.036764
C201	C	-0.106183	0.526820	1.370098
C202	C	-0.820235	-0.092495	0.664022
C203	C	-0.486902	0.240839	0.997355
C204	C	-0.153569	0.574172	1.330689
H205	H	-0.593987	-0.211580	-0.000202
H206	H	-0.260654	0.121753	0.333132
H207	H	0.072680	0.455087	0.666465
H208	H	-0.462561	-0.209652	-0.000216
H209	H	-0.129228	0.123682	0.333118
H210	H	0.204106	0.457015	0.666451
H211	H	-0.177866	0.024674	-0.000244
H212	H	0.155467	0.358007	0.333089
H213	H	0.488801	0.691340	0.666423
O214	O	-0.381957	-0.194392	0.090941
O215	O	-0.048623	0.138942	0.424275
O216	O	0.284710	0.472275	0.757608
H217	H	-0.439512	-0.187074	0.083578
H218	H	-0.106179	0.146260	0.416912
H219	H	0.227154	0.479593	0.750245
H220	H	-0.015674	-0.203099	-0.000293
H221	H	0.317659	0.130234	0.333040
H222	H	0.650992	0.463567	0.666373
H223	H	-0.703049	0.549857	-0.000215
H224	H	-0.369716	0.883190	0.333119
H225	H	-0.036383	1.216524	0.666452
H226	H	-0.242670	-0.179505	0.079324
H227	H	0.090663	0.153828	0.412657
H228	H	0.423996	0.487161	0.745991
H229	H	-0.734278	-0.178402	0.814325
H230	H	-0.400945	0.154931	1.147659
H231	H	-0.067611	0.488265	1.480992
O232	O	-0.839499	0.039015	0.417825
O233	O	-0.506166	0.372348	0.751158
O234	O	-0.172833	0.705682	1.084491
H235	H	-0.890773	0.068114	0.432857
H236	H	-0.557439	0.401447	0.766191
H237	H	-0.224106	0.734781	1.099524
O238	O	-0.154442	-0.221897	-0.000272
O239	O	0.178891	0.111437	0.333062
O240	O	0.512224	0.444770	0.666395
H241	H	-0.111187	-0.265367	-0.000273
H242	H	0.222146	0.067967	0.333061
H243	H	0.555479	0.401300	0.666394
H244	H	-0.803318	-0.207311	0.428276
H245	H	-0.469985	0.126022	0.761609
H246	H	-0.136651	0.459355	1.094942
O247	O	-0.949623	0.573287	-0.000267
O248	O	-0.616290	0.906620	0.333067
O249	O	-0.282956	1.239954	0.666400
H250	H	-0.939817	0.515401	-0.000251
H251	H	-0.606484	0.848735	0.333082
H252	H	-0.273151	1.182068	0.666415
H253	H	-0.906166	-0.006578	0.328185
H254	H	-0.572833	0.326755	0.661518
H255	H	-0.239499	0.660089	0.994851
O256	O	-0.409060	0.007198	-0.091388
O257	O	-0.075726	0.340531	0.241945
O258	O	0.257607	0.673864	0.575279
H259	H	-0.376233	0.041459	-0.121901
H260	H	-0.042900	0.374792	0.211432
H261	H	0.290433	0.708125	0.544766
O262	O	-0.839574	0.039061	0.581676
O263	O	-0.506241	0.372395	0.915009
O264	O	-0.172907	0.705728	1.248343
H265	H	-0.793198	0.043412	0.617596
H266	H	-0.459864	0.376746	0.950930
H267	H	-0.126531	0.710079	1.284263
O268	O	-0.918711	0.005933	0.660890
O269	O	-0.585378	0.339267	0.994224
O270	O	-0.252045	0.672600	1.327557
H271	H	-0.951654	0.038866	0.701518
H272	H	-0.618320	0.372200	1.034851
H273	H	-0.284987	0.705533	1.368184
O274	O	-0.922132	0.345696	-0.091414
O275	O	-0.588798	0.679029	0.241919
O276	O	-0.255465	1.012362	0.575253
H277	H	-0.914812	0.288146	-0.084034
H278	H	-0.581478	0.621479	0.249300
H279	H	-0.248145	0.954812	0.582633
H280	H	-0.731249	0.461453	0.079371
H281	H	-0.397916	0.794786	0.412705
H282	H	-0.064583	1.128119	0.746038
O283	O	-0.039111	0.043477	-0.000271
O284	O	0.294222	0.376810	0.333062
O285	O	0.627555	0.710144	0.666396
H286	H	0.018774	0.033672	-0.000289
H287	H	0.352108	0.367006	0.333044
H288	H	0.685441	0.700339	0.666378
H289	H	-0.266331	-0.003548	-0.079822
H290	H	0.067002	0.329785	0.253511
H291	H	0.400336	0.663119	0.586845
O292	O	-0.485997	0.036921	-0.000184
O293	O	-0.152664	0.370255	0.333150
O294	O	0.180669	0.703588	0.666483
H295	H	-0.428112	0.027116	-0.000205
H296	H	-0.094778	0.360449	0.333128
H297	H	0.238555	0.693783	0.666461
O298	O	-0.919924	0.496271	-0.091435
O299	O	-0.586590	0.829604	0.241898
O300	O	-0.253257	1.162938	0.575231
H301	H	-0.910943	0.551643	-0.084079
H302	H	-0.577609	0.884976	0.249254
H303	H	-0.244276	1.218309	0.582588
H304	H	-0.803345	-0.207313	0.571228
H305	H	-0.470012	0.126020	0.904561
H306	H	-0.136679	0.459354	1.237895
H307	H	-0.906198	-0.006581	0.814274
H308	H	-0.572865	0.326752	1.147607
H309	H	-0.239531	0.660085	1.480940
O310	O	-0.636579	0.034711	-0.000146
O311	O	-0.303246	0.368044	0.333187
O312	O	0.030087	0.701377	0.666520
H313	H	-0.605117	0.079278	-0.000152
H314	H	-0.271784	0.412611	0.333182
H315	H	0.061549	0.745944	0.666515
H316	H	-0.939303	0.133736	-0.000220
H317	H	-0.605970	0.467069	0.333114
H318	H	-0.272636	0.800403	0.666447
H319	H	-0.937375	0.265162	-0.000238
H320	H	-0.604041	0.598495	0.333095
H321	H	-0.270708	0.931829	0.666428
H322	H	-0.930822	0.712049	-0.000282
H323	H	-0.597489	1.045382	0.333051
H324	H	-0.264156	1.378715	0.666385
O325	O	-0.721751	-0.190920	0.660947
O326	O	-0.388418	0.142414	0.994280
O327	O	-0.055085	0.475747	1.327613
H328	H	-0.688814	-0.223853	0.701592
H329	H	-0.355480	0.109481	1.034925
H330	H	-0.022147	0.442814	1.368259
H331	H	-0.906158	-0.006579	0.185228
H332	H	-0.572824	0.326754	0.518561
H333	H	-0.239491	0.660088	0.851894
H334	H	-0.734241	-0.178392	0.328237
H335	H	-0.400908	0.154941	0.661571
H336	H	-0.067574	0.488275	0.994904
O337	O	-0.684246	0.688612	-0.000217
O338	O	-0.350912	1.021945	0.333116
O339	O	-0.017579	1.355278	0.666449
H340	H	-0.694051	0.746497	-0.000217
H341	H	-0.360717	1.079831	0.333116
H342	H	-0.027384	1.413164	0.666449
O343	O	-0.720507	0.318734	0.090987
O344	O	-0.387173	0.652067	0.424321
O345	O	-0.053840	0.985400	0.757654
H346	H	-0.686239	0.351584	0.121502
H347	H	-0.352906	0.684917	0.454835
H348	H	-0.019573	1.018250	0.788168
O349	O	-0.721704	-0.190906	0.174856
O350	O	-0.388370	0.142427	0.508189
O351	O	-0.055037	0.475761	0.841522
H352	H	-0.688763	-0.223838	0.215500
H353	H	-0.355430	0.109495	0.548833
H354	H	-0.022097	0.442829	0.882167
H355	H	-0.707679	0.234401	-0.000192
H356	H	-0.374346	0.567735	0.333142
H357	H	-0.041012	0.901068	0.666475
H358	H	-0.709599	0.102967	-0.000188
H359	H	-0.376266	0.436300	0.333145
H360	H	-0.042933	0.769633	0.666478
