data_functionalizedCrystal
_audit_creation_method	'MofGen! by Chris Wilmer'
_symmetry_space_group_name_H-M	'P1'
_symmetry_Int_Tables_number	1
_symmetry_cell_setting	triclinic
loop_
_symmetry_equiv_pos_as_xyz
  x,y,z
_cell_length_a	19.805405
_cell_length_b	11.169417
_cell_length_c	19.805398
_cell_angle_alpha	89.986604
_cell_angle_beta	90.027637
_cell_angle_gamma	89.975367
loop_
_atom_site_label
_atom_site_type_symbol
_atom_site_fract_x
_atom_site_fract_y
_atom_site_fract_z
Zn1	Zn	-0.269522	-1.834731	0.382667
Zn2	Zn	-0.382707	-1.834592	0.269475
Zn3	Zn	-0.269534	-1.634045	0.269496
Zn4	Zn	-0.382671	-1.633968	0.382627
O5	O	-0.326109	-1.734334	0.326066
O6	O	-0.284547	-2.002662	0.367660
O7	O	-0.367715	-1.807964	0.174761
O8	O	-0.174816	-1.660757	0.284534
O9	O	-0.367703	-2.002560	0.284498
O10	O	-0.174807	-1.808199	0.367680
O11	O	-0.284567	-1.660623	0.174777
O12	O	-0.284532	-1.466085	0.284496
O13	O	-0.367641	-1.660624	0.477349
O14	O	-0.367653	-1.466028	0.367612
O15	O	-0.284511	-1.808124	0.477378
O16	O	-0.477419	-1.807889	0.284460
O17	O	-0.477392	-1.660491	0.367592
C18	C	-0.326090	-1.422509	0.326052
C19	C	-0.326099	-1.289109	0.326062
C20	C	-0.501965	-1.734199	0.326034
C21	C	-0.577197	-1.734251	0.326042
C22	C	-0.612532	-1.811076	0.282801
C23	C	-0.683221	-1.811127	0.282816
C24	C	-0.718572	-1.734346	0.326069
C25	C	-0.683232	-1.657518	0.369316
C26	C	-0.612545	-1.657474	0.369304
C27	C	-0.968305	-1.657695	0.369366
C28	C	-1.038997	-1.657742	0.369373
C29	C	-1.038981	-1.811348	0.282878
C30	C	-0.968294	-1.811304	0.282866
C31	C	-0.932959	-1.734481	0.326114
C32	C	-0.856311	-1.734428	0.326099
C33	C	-0.795219	-1.734392	0.326082
C34	C	-0.149566	-1.734502	0.326114
C35	C	-0.074334	-1.734574	0.326134
C36	C	-0.326071	-1.734381	0.502609
C37	C	-0.326055	-1.734401	0.577841
C38	C	-0.326121	-1.047376	0.326077
C39	C	-0.326109	-1.180776	0.326069
C40	C	-0.326097	-1.734356	0.150210
C41	C	-0.325922	-1.734569	0.074979
C42	C	-0.282649	-1.811349	1.039649
C43	C	-0.282670	-1.811330	0.968960
C44	C	-0.325961	-1.734524	0.933603
C45	C	-0.369239	-1.657741	0.968938
C46	C	-0.369221	-1.657766	1.039625
C47	C	-0.369312	-1.657636	0.683865
C48	C	-0.369325	-1.657614	0.613172
C49	C	-0.282761	-1.811200	0.613200
C50	C	-0.282744	-1.811226	0.683887
C51	C	-0.326024	-1.734447	0.719216
C52	C	-0.326001	-1.734470	0.795864
C53	C	-0.325980	-1.734494	0.856956
H54	H	-0.583753	-1.873594	0.247576
H55	H	-0.404490	-1.595209	0.940145
H56	H	-0.404552	-1.595117	0.712621
O57	O	-0.415889	-1.574947	1.077737
H58	H	-0.445990	-1.521524	1.041276
H59	H	-0.247435	-1.873855	0.940198
O60	O	-0.721335	-1.893980	0.236173
H61	H	-0.684878	-1.947349	0.206087
H62	H	-0.939513	-1.873821	0.247643
H63	H	-0.247489	-1.873765	0.712671
O64	O	-0.236086	-1.894023	0.575091
H65	H	-0.205976	-1.947423	0.611554
H66	H	-0.404577	-1.595061	0.584387
H67	H	-1.067759	-1.873906	0.247665
H68	H	-1.067778	-1.595219	0.404600
H69	H	-0.712021	-1.595007	0.404536
O70	O	-0.930198	-1.574803	0.415989
H71	H	-0.966658	-1.521402	0.446054
H72	H	-0.583775	-1.594917	0.404516
H73	H	-0.247393	-1.873885	1.068432
