data_functionalizedCrystal
_audit_creation_method	'MofGen! by Chris Wilmer'
_symmetry_space_group_name_H-M	'P1'
_symmetry_Int_Tables_number	1
_symmetry_cell_setting	triclinic
loop_
_symmetry_equiv_pos_as_xyz
  x,y,z
_cell_length_a	13.033291
_cell_length_b	11.169416
_cell_length_c	11.169409
_cell_angle_alpha	90.030874
_cell_angle_beta	82.788658
_cell_angle_gamma	82.819239
loop_
_atom_site_label
_atom_site_type_symbol
_atom_site_fract_x
_atom_site_fract_y
_atom_site_fract_z
Zn1	Zn	1.597832	0.244857	-0.912092
Zn2	Zn	1.597736	0.445611	-0.711400
Zn3	Zn	1.423056	0.270397	-0.685881
Zn4	Zn	1.423063	0.470966	-0.886514
O5	O	1.510422	0.357958	-0.798972
O6	O	1.744065	0.250187	-0.906853
O7	O	1.574521	0.422446	-0.540058
O8	O	1.446278	0.099054	-0.715913
O9	O	1.743995	0.397681	-0.759406
O10	O	1.574686	0.080289	-0.882109
O11	O	1.446185	0.293717	-0.521310
O12	O	1.276811	0.318302	-0.691112
O13	O	1.446289	0.440894	-1.057863
O14	O	1.276816	0.465659	-0.838516
O15	O	1.574692	0.274773	-1.076655
O16	O	1.574528	0.616930	-0.734604
O17	O	1.446196	0.635558	-0.863261
C18	C	1.238894	0.397505	-0.759270
C19	C	1.122733	0.414452	-0.742314
C20	C	0.950924	0.366648	-0.790306
C21	C	1.070983	0.349134	-0.807830
C22	C	1.510380	0.669788	-0.798956
C23	C	1.510458	0.803177	-0.799004
C24	C	1.510502	0.357813	-1.112026
C25	C	1.510536	0.357751	-1.245431
C26	C	1.783010	0.318257	-0.838829
C27	C	1.899171	0.301339	-0.855814
C28	C	1.510492	0.044905	-0.799017
C29	C	1.510522	-0.088499	-0.799037
C30	C	1.510402	0.358007	-0.487144
C31	C	1.510570	0.357701	-0.353769
H32	H	1.078164	0.483336	-0.673252
F33	F	0.892667	0.456673	-0.700036
F34	F	1.129236	0.259092	-0.898094
H35	H	0.943746	0.232455	-0.924865
