data_functionalizedCrystal
_audit_creation_method	'MofGen! by Chris Wilmer'
_symmetry_space_group_name_H-M	'P1'
_symmetry_Int_Tables_number	1
_symmetry_cell_setting	triclinic
loop_
_symmetry_equiv_pos_as_xyz
  x,y,z
_cell_length_a	23.096457
_cell_length_b	17.053046
_cell_length_c	17.052862
_cell_angle_alpha	78.839413
_cell_angle_beta	89.997784
_cell_angle_gamma	67.550063
loop_
_atom_site_label
_atom_site_type_symbol
_atom_site_fract_x
_atom_site_fract_y
_atom_site_fract_z
Zr1	Zr	0.667928	0.733158	0.047369
O2	O	0.603502	0.847971	-0.041940
O3	O	0.674023	0.597853	0.055817
O4	O	0.704601	0.703607	-0.069245
O5	O	0.564336	0.772673	0.203306
O6	O	0.799882	0.703608	-0.069249
O7	O	0.572924	0.742216	0.083121
O8	O	0.745184	0.514433	0.154463
O9	O	0.619034	0.961848	-0.020405
O10	O	0.764227	0.661096	0.082288
O11	O	0.686710	0.683825	0.171984
O12	O	0.722712	0.808337	0.024740
O13	O	0.645196	0.831066	0.114436
Zr14	Zr	0.806193	0.781734	0.239044
Zr15	Zr	0.819890	0.733159	0.047363
Zr16	Zr	0.654230	0.781733	0.239050
Zr17	Zr	0.692700	0.914779	0.081714
Zr18	Zr	0.781420	0.600113	0.204699
O19	O	0.800097	0.917040	0.230597
O20	O	0.819573	0.847972	-0.041949
O21	O	0.584026	0.917038	0.230606
O22	O	0.870618	0.666922	0.328353
O23	O	0.890094	0.597855	0.055807
O24	O	0.654548	0.666920	0.328362
O25	O	0.909784	0.742219	0.083107
O26	O	0.769519	0.811286	0.355658
O27	O	0.674238	0.811285	0.355662
O28	O	0.901196	0.772676	0.203292
O29	O	0.739824	0.961849	-0.020410
O30	O	0.734296	0.553043	0.306824
O31	O	0.855086	0.553044	0.306819
O32	O	0.865973	0.514434	0.154458
O33	O	0.608147	1.000459	0.131955
O34	O	0.728936	1.000460	0.131950
O35	O	0.751408	0.706555	0.261673
O36	O	0.828925	0.683826	0.171978
O37	O	0.787410	0.831067	0.114430
O38	O	0.709893	0.853796	0.204125
C39	C	0.706074	0.530266	0.100246
C40	C	0.695557	0.453163	0.085666
C41	C	0.822712	0.051984	0.261944
C42	C	0.832604	0.124418	0.275642
C43	C	0.798343	0.206608	0.228150
C44	C	0.754189	0.216356	0.166956
C45	C	0.744300	0.143913	0.153252
C46	C	0.719931	0.298537	0.119458
C47	C	0.675777	0.308285	0.058264
C48	C	0.665890	0.235848	0.044563
C49	C	0.700150	0.153659	0.092055
C50	C	0.729820	0.370980	0.133162
C51	C	0.651408	0.462909	0.024470
C52	C	0.641516	0.390474	0.010771
C53	C	0.546979	0.757445	0.143215
C54	C	0.482467	0.757444	0.143217
C55	C	0.473832	0.680586	0.173249
C56	C	0.413216	0.680586	0.173252
C57	C	0.361237	0.757444	0.143208
C58	C	0.369876	0.834313	0.113177
C59	C	0.430491	0.834313	0.113182
N60	N	0.252894	0.804175	0.079496
N61	N	0.195314	0.804169	0.079493
C62	C	0.178607	0.757449	0.143194
N63	N	0.221659	0.710719	0.206895
N64	N	0.279245	0.710721	0.206897
C65	C	0.295508	0.757452	0.143200
C66	C	0.104247	0.680585	0.173232
C67	C	0.043629	0.680589	0.173239
C68	C	0.000289	0.834317	0.113156
C69	C	0.060906	0.834312	0.113157
C70	C	0.112883	0.757443	0.143193
C71	C	0.927141	0.757448	0.143199
C72	C	0.991653	0.757448	0.143196
C73	C	0.754193	0.696686	-0.096557
C74	C	0.760008	0.676065	-0.177931
C75	C	0.768046	0.984627	0.186167
C76	C	0.778563	1.061730	0.200747
C77	C	0.689708	0.925377	-0.527470
C78	C	0.684241	0.944755	-0.451016
C79	C	0.703182	0.877584	-0.382742
C80	C	0.727591	0.791032	-0.390927
C81	C	0.733054	0.771653	-0.467388
C82	C	0.746529	0.723860	-0.322660
C83	C	0.770938	0.637308	-0.330845
C84	C	0.776400	0.617933	-0.407299
C85	C	0.757459	0.685103	-0.475574
C86	C	0.741066	0.743239	-0.246199
C87	C	0.784412	0.589515	-0.186117
C88	C	0.789879	0.570138	-0.262570
C89	C	0.719927	0.818206	0.382970
C90	C	0.714112	0.838827	0.464344
C91	C	0.896155	0.530267	0.100238
C92	C	0.950151	0.453165	0.085655
C93	C	0.688941	0.591025	0.340010
C94	C	0.672610	0.534544	0.406803
C95	C	0.879022	0.591027	0.340002
C96	C	0.927203	0.534546	0.406793
C97	C	0.595098	0.923865	-0.053589
C98	C	0.546917	0.980347	-0.120379
C99	C	0.577965	0.984625	0.186175
C100	C	0.523969	1.061728	0.200758
C101	C	0.785179	0.923867	-0.053597
C102	C	0.801510	0.980349	-0.120390
C103	C	0.941737	0.405090	0.031982
C104	C	0.992468	0.332649	0.018263
C105	C	1.051612	0.308282	0.058224
C106	C	1.060025	0.356364	0.111900
C107	C	1.009296	0.428807	0.125613
C108	C	0.698711	0.519886	0.484995
C109	C	0.683365	0.466828	0.547764
C110	C	0.641919	0.428423	0.532338
C111	C	0.615815	0.443085	0.454138
C112	C	0.631158	0.496148	0.391372
C113	C	0.990298	0.496158	0.391338
C114	C	1.035577	0.443096	0.454089
C115	C	1.017758	0.428418	0.532294
C116	C	0.954657	0.466814	0.547748
C117	C	0.909380	0.519879	0.484998
C118	C	0.483823	1.018744	-0.104923
C119	C	0.438548	1.071828	-0.167670
C120	C	0.456367	1.086509	-0.245874
C121	C	0.519467	1.048109	-0.261329
C122	C	0.564742	0.995031	-0.198582
C123	C	0.532385	1.109808	0.254425
C124	C	0.481658	1.182263	0.268126
C125	C	0.422515	1.206633	0.228164
C126	C	0.414100	1.158548	0.174490
C127	C	0.464828	1.086098	0.160786
C128	C	0.842958	1.018738	-0.104940
C129	C	0.858315	1.071801	-0.167694
C130	C	0.832220	1.086478	-0.245896
C131	C	0.790771	1.048082	-0.261346
C132	C	0.775418	0.995015	-0.198594
H133	H	0.868556	0.116475	0.325465
H134	H	0.769528	1.060041	-0.325027
O135	O	0.730709	0.953614	-0.215256
H136	H	0.684612	1.005031	-0.240877
O137	O	0.370493	1.113223	-0.150984
H138	H	0.354323	1.184881	-0.168437
O139	O	1.106323	0.230145	0.043424
H140	H	1.148868	0.221276	0.080221
H141	H	0.940157	0.454855	0.611430
O142	O	0.571133	0.401633	0.437499
H143	H	0.564866	0.362258	0.494283
H144	H	0.674285	0.980058	-0.583063
H145	H	0.893585	0.424925	-0.000570
O146	O	0.407533	1.143769	-0.313548
H147	H	0.360667	1.167998	-0.289654
O148	O	0.070227	0.917205	0.080752
H149	H	0.023901	0.970649	0.059853
O150	O	0.859667	-0.036657	0.313160
H151	H	0.826786	-0.062988	0.344532
O152	O	0.538683	1.063940	-0.345680
H153	H	0.496594	1.107291	-0.386710
H154	H	0.761910	0.669331	-0.537831
H155	H	0.327550	0.896891	0.088715
O156	O	0.632792	0.953639	-0.215277
H157	H	0.661753	0.975811	-0.180068
H158	H	0.580538	1.089975	0.286975
H159	H	0.664367	1.015225	-0.444358
H160	H	0.721190	0.813711	-0.239543
O161	O	0.614457	0.551551	-0.026762
H162	H	0.582102	0.546158	-0.071626
H163	H	0.692097	0.094673	0.080908
O164	O	0.711535	0.451014	0.632097
H165	H	0.673319	0.474328	0.671812
O166	O	1.123816	0.330073	0.155005
H167	H	1.157670	0.271614	0.136455
O168	O	0.848779	1.143720	-0.313575
H169	H	0.805397	1.199503	-0.341463
O170	O	0.464591	1.002919	-0.020580
H171	H	0.506666	0.959553	0.020464
H172	H	0.858005	0.551129	0.497592
H173	H	0.365939	1.178401	0.141956
O174	O	0.802751	0.524583	-0.416134
H175	H	0.815021	0.481130	-0.355816
H176	H	0.985605	0.293508	-0.025443
H177	H	0.605566	0.398399	-0.039054
H178	H	0.765770	0.363034	0.182987
O179	O	0.804842	0.517063	-0.112482
H180	H	0.822722	0.453623	-0.131018
H181	H	0.488521	1.221404	0.311833
H182	H	0.629941	0.243790	-0.005271
H183	H	0.381214	1.265628	0.239330
H184	H	0.864210	1.006799	-0.041268
H185	H	0.457966	1.046952	0.117088
O186	O	0.529892	0.597683	0.205647
H187	H	0.513700	0.544240	0.226536
H188	H	0.406184	0.617997	0.197708
H189	H	1.016155	0.467943	0.169323
O190	O	0.625384	0.371174	0.600036
H191	H	0.650508	0.367428	0.656995
H192	H	0.806399	0.265585	0.239307
O193	O	0.743414	0.561305	0.501643
H194	H	0.723805	0.603728	0.545001
H195	H	0.609903	0.508072	0.327706
O196	O	0.816206	0.476792	-0.271416
H197	H	0.864802	0.443664	-0.242349
O198	O	0.439809	0.917210	0.080780
H199	H	0.393484	0.970656	0.059884
H200	H	1.004818	0.508098	0.327664
O201	O	1.103631	0.401678	0.437411
H202	H	1.108407	0.420788	0.372485
O203	O	1.066594	0.371168	0.599969
H204	H	1.102401	0.398957	0.605167
O205	O	0.160311	0.597686	0.205638
H206	H	0.144120	0.544243	0.226535
O207	O	0.034312	0.597687	0.205624
H208	H	0.080640	0.544238	0.226500
H209	H	0.892064	1.103060	-0.155098
O210	O	-0.055765	0.917217	0.080745
H211	H	-0.099366	0.904305	0.085782
H212	H	0.698729	0.893367	-0.320491
