data_functionalizedCrystal
_audit_creation_method	'MofGen! by Chris Wilmer'
_symmetry_space_group_name_H-M	'P1'
_symmetry_Int_Tables_number	1
_symmetry_cell_setting	triclinic
loop_
_symmetry_equiv_pos_as_xyz
  x,y,z
_cell_length_a	6.817900
_cell_length_b	17.253917
_cell_length_c	11.168136
_cell_angle_alpha	97.542561
_cell_angle_beta	108.508683
_cell_angle_gamma	102.659311
loop_
_atom_site_label
_atom_site_type_symbol
_atom_site_fract_x
_atom_site_fract_y
_atom_site_fract_z
V1	V	-4.086985	-0.111307	-0.405685
O2	O	-4.070564	0.005336	-0.385630
O3	O	-4.040772	-0.220690	-0.414771
O4	O	-4.063627	-0.109600	-0.577207
O5	O	-4.047551	-0.106523	-0.222070
V6	V	-4.567085	-0.097354	-0.382282
O7	O	-4.355753	-0.141912	-0.457021
O8	O	-4.748515	-0.066748	-0.330947
O9	O	-4.390092	0.012030	-0.373196
O10	O	-4.700903	-0.213997	-0.402337
O11	O	-4.723916	-0.102138	-0.565898
O12	O	-4.367237	-0.099061	-0.210760
C13	C	-3.885494	-0.247355	-0.411432
C14	C	-3.929163	-0.336778	-0.420004
C15	C	-3.892259	-0.367298	-0.307161
C16	C	-3.933311	-0.451320	-0.315220
C17	C	-4.011252	-0.504822	-0.436123
C18	C	-4.048164	-0.474297	-0.548976
C19	C	-4.007127	-0.390276	-0.540916
C20	C	-4.140156	-0.757342	-0.472761
C21	C	-4.181186	-0.841368	-0.480812
C22	C	-4.066333	-0.818385	-0.247055
C23	C	-4.025288	-0.734364	-0.239006
C24	C	-4.062214	-0.703846	-0.351858
N25	N	-4.053209	-0.590707	-0.444364
N26	N	-4.020272	-0.617963	-0.343617
C27	C	-3.914647	-0.105648	-0.618633
C28	C	-3.976847	-0.104976	-0.758931
C29	C	-4.178632	-0.108492	-0.828002
C30	C	-4.242923	-0.107798	-0.973007
C31	C	-4.208711	0.038691	-0.376533
C32	C	-4.144282	0.128112	-0.367968
C33	C	-4.179558	-0.103016	-0.169328
C34	C	-4.096596	-0.103683	-0.029028
H35	H	-4.037201	-0.365430	-0.632806
H36	H	-3.851685	-0.101447	-0.807147
C37	C	-4.133898	-0.533143	-0.681970
H38	H	-4.150016	-0.502931	-0.748022
H39	H	-4.035137	-0.563777	-0.685661
H40	H	-4.269463	-0.569017	-0.694285
H41	H	-4.303787	-0.112010	-0.779782
H42	H	-4.036278	-0.843242	-0.155177
C43	C	-4.266947	-0.900223	-0.613810
H44	H	-4.286077	-0.954632	-0.602441
H45	H	-4.400979	-0.893796	-0.664818
H46	H	-4.166658	-0.888556	-0.656207
C47	C	-4.476455	-0.111870	-1.053204
H48	H	-4.559921	-0.114549	-0.999248
H49	H	-4.478231	-0.064665	-1.088311
H50	H	-4.535307	-0.158924	-1.121522
C51	C	-3.806550	-0.308454	-0.174166
H52	H	-3.790479	-0.338668	-0.108117
H53	H	-3.670997	-0.272574	-0.161836
H54	H	-3.905344	-0.277826	-0.170490
C55	C	-3.892695	-0.484888	-0.191091
H56	H	-3.840370	-0.440991	-0.117930
H57	H	-4.023466	-0.519806	-0.193677
H58	H	-3.789147	-0.514567	-0.185072
H59	H	-3.961836	-0.690807	-0.140554
C60	C	-3.863065	-0.099620	-0.948843
H61	H	-3.779607	-0.096955	-1.002803
H62	H	-3.804198	-0.052577	-0.880516
H63	H	-3.861318	-0.146836	-0.913753
H64	H	-4.170200	-0.732505	-0.564653
