data_functionalizedCrystal
_audit_creation_method	'MofGen! by Chris Wilmer'
_symmetry_space_group_name_H-M	'P1'
_symmetry_Int_Tables_number	1
_symmetry_cell_setting	triclinic
loop_
_symmetry_equiv_pos_as_xyz
  x,y,z
_cell_length_a	16.109301
_cell_length_b	19.288864
_cell_length_c	15.186229
_cell_angle_alpha	90.017808
_cell_angle_beta	89.995711
_cell_angle_gamma	96.701085
loop_
_atom_site_label
_atom_site_type_symbol
_atom_site_fract_x
_atom_site_fract_y
_atom_site_fract_z
O1	O	0.103714	-0.921595	-0.073511
O2	O	0.117705	-0.719368	-0.073451
O3	O	-0.010340	-0.826037	-0.073477
O4	O	0.231760	-0.814927	-0.073485
O5	O	-0.010343	-0.826029	0.072980
O6	O	0.117702	-0.719360	0.073006
O7	O	0.103711	-0.921587	0.072946
Zn8	Zn	0.110706	-0.820472	0.096230
Zn9	Zn	0.110710	-0.820483	-0.096734
O10	O	0.231757	-0.814918	0.072972
C11	C	0.117254	-0.693487	-0.000214
C12	C	0.115902	-0.616380	-0.000191
N13	N	0.110703	-0.820470	0.227922
C14	C	-0.041315	-0.825583	-0.000248
C15	C	-0.133606	-0.824234	-0.000249
C16	C	-0.442805	-0.883118	-0.000282
C17	C	-0.356090	-0.884392	-0.000277
C18	C	-0.335783	-0.757833	-0.000228
C19	C	-0.422498	-0.756559	-0.000226
C20	C	-0.476007	-0.819204	-0.000258
C21	C	-0.302577	-0.821752	-0.000255
C22	C	-0.208555	-0.823133	-0.000250
C23	C	-0.570034	-0.817823	-0.000261
C24	C	0.262732	-0.815373	-0.000258
C25	C	0.355022	-0.816722	-0.000263
C26	C	0.104163	-0.947469	-0.000292
C27	C	0.105514	-1.024576	-0.000321
C28	C	0.191034	-0.571863	-0.000208
C29	C	0.189764	-0.499413	-0.000218
C30	C	0.113359	-0.471483	-0.000228
C31	C	0.038218	-0.516010	-0.000207
C32	C	0.039489	-0.588458	-0.000189
C33	C	0.053297	-0.363080	-0.051566
C34	C	0.052028	-0.290633	-0.051590
C35	C	0.109433	-0.248028	-0.000282
C36	C	0.168121	-0.277878	0.051040
C37	C	0.169393	-0.350326	0.051058
C38	C	0.111971	-0.392926	-0.000248
C39	C	0.183193	-0.124952	-0.000307
C40	C	0.181920	-0.052501	-0.000312
C41	C	0.030372	-0.069099	-0.000310
C42	C	0.031647	-0.141548	-0.000297
C43	C	0.108060	-0.169470	-0.000300
N44	N	0.110707	-0.820491	-0.228427
C45	C	0.054023	-0.867722	0.545829
C46	C	0.054024	-0.867720	0.453639
C47	C	0.167393	-0.773237	0.453673
C48	C	0.167396	-0.773242	0.545861
C49	C	0.110706	-0.820484	0.591936
C50	C	0.110704	-0.820477	0.407559
C51	C	0.110704	-0.820474	0.307603
C52	C	0.110706	-0.820488	0.691899
H53	H	-0.486371	-0.934127	-0.000308
C54	C	0.228845	-0.721840	0.595881
C55	C	0.215561	-0.653589	0.573513
C56	C	0.272143	-0.606223	0.619583
H57	H	0.284347	-0.729275	0.580801
H58	H	0.220725	-0.728565	0.657391
H59	H	0.223688	-0.646866	0.512016
H60	H	0.160070	-0.646131	0.588596
H61	H	0.264023	-0.612948	0.681094
H62	H	0.327641	-0.613665	0.604499
H63	H	0.263133	-0.559909	0.604420
H64	H	-0.292206	-0.706830	-0.000204
H65	H	-0.449530	-0.704510	-0.000203
H66	H	0.007865	-0.906190	0.583342
C67	C	-0.320204	-0.953856	-0.000352
C68	C	-0.385628	-1.008440	-0.000401
C69	C	-0.352603	-1.072443	-0.000480
H70	H	-0.286817	-0.957085	0.050707
H71	H	-0.286818	-0.957020	-0.051446
H72	H	-0.419000	-1.005278	0.050688
H73	H	-0.419021	-1.005234	-0.051455
H74	H	-0.319217	-1.075607	-0.051574
H75	H	-0.319216	-1.075665	0.050579
H76	H	-0.396988	-1.109486	-0.000521
H77	H	0.253255	-0.594592	-0.000212
H78	H	0.250947	-0.463160	-0.000228
C79	C	0.233136	-0.382607	0.106876
C80	C	0.283128	-0.329798	0.151826
C81	C	0.341848	-0.359510	0.203265
H82	H	0.267285	-0.407204	0.069983
H83	H	0.204904	-0.413982	0.148185
H84	H	0.311359	-0.298435	0.110521
H85	H	0.249003	-0.305197	0.188734
H86	H	0.313615	-0.390885	0.244575
H87	H	0.375990	-0.384105	0.166367
H88	H	0.375769	-0.323684	0.233777
C89	C	-0.007692	-0.918839	0.403546
C90	C	-0.058444	-0.881764	0.350719
C91	C	-0.115359	-0.928808	0.304588
H92	H	-0.041523	-0.946935	0.444156
H93	H	0.021964	-0.947799	0.367462
H94	H	-0.088097	-0.852816	0.386801
H95	H	-0.024635	-0.853670	0.310093
H96	H	-0.085703	-0.957768	0.268504
H97	H	-0.149184	-0.956902	0.345204
H98	H	-0.149795	-0.903660	0.268734
C99	C	0.228838	-0.721973	0.403486
C100	C	0.216689	-0.732063	0.312882
C101	C	0.273268	-0.684842	0.266626
H102	H	0.284342	-0.729456	0.418475
H103	H	0.219944	-0.675607	0.418570
H104	H	0.225589	-0.778417	0.297804
H105	H	0.161196	-0.724573	0.297868
H106	H	0.264374	-0.638477	0.281710
H107	H	0.328769	-0.692330	0.281621
H108	H	0.265027	-0.691677	0.205147
H109	H	0.245413	-0.147687	-0.000297
C110	C	0.263586	-0.004280	-0.000372
C111	C	0.330772	-0.044244	-0.000394
C112	C	0.406017	0.000154	-0.000462
H113	H	0.266363	0.024361	0.050682
H114	H	0.266283	0.024299	-0.051471
H115	H	0.328078	-0.072810	0.050699
H116	H	0.328024	-0.072884	-0.051444
H117	H	0.408713	0.028732	-0.051561
H118	H	0.408784	0.028793	0.050593
H119	H	0.451611	-0.026955	-0.000485
C120	C	-0.050016	-0.189771	-0.000335
C121	C	-0.117203	-0.149807	-0.000369
C122	C	-0.192446	-0.194205	-0.000412
H123	H	-0.052791	-0.218374	0.050731
H124	H	-0.052714	-0.218387	-0.051421
H125	H	-0.114507	-0.121202	0.050713
H126	H	-0.114456	-0.121206	-0.051431
H127	H	-0.195144	-0.222822	-0.051499
H128	H	-0.195212	-0.222806	0.050654
H129	H	-0.238041	-0.167097	-0.000443
C130	C	-0.052500	-0.038650	-0.000368
C131	C	-0.037535	0.034327	-0.000409
C132	C	-0.113858	0.062403	-0.000472
H133	H	-0.083492	-0.053836	0.050693
H134	H	-0.083429	-0.053913	-0.051460
H135	H	-0.006619	0.049584	0.050678
H136	H	-0.006556	0.049532	-0.051466
H137	H	-0.144787	0.047139	-0.051564
H138	H	-0.144844	0.047212	0.050590
H139	H	-0.103715	0.111920	-0.000508
H140	H	0.214865	-0.243190	0.092821
C141	C	-0.011651	-0.258315	-0.107456
C142	C	-0.000417	-0.274795	-0.196131
C143	C	-0.059071	-0.245046	-0.247619
H144	H	-0.004251	-0.209062	-0.100240
H145	H	-0.066465	-0.276222	-0.089454
H146	H	0.054385	-0.256884	-0.214127
H147	H	-0.007824	-0.324042	-0.203374
H148	H	-0.113886	-0.262953	-0.229618
H149	H	-0.051667	-0.195795	-0.240396
H150	H	-0.051462	-0.256229	-0.307789
H151	H	0.006549	-0.397764	-0.093354
C152	C	-0.044798	-0.485784	-0.000359
C153	C	-0.090210	-0.508461	-0.075690
C154	C	-0.166695	-0.480640	-0.075851
H155	H	-0.034914	-0.436263	-0.000421
H156	H	-0.075769	-0.501064	0.050692
H157	H	-0.059246	-0.493177	-0.126728
H158	H	-0.100116	-0.557979	-0.075645
H159	H	-0.197666	-0.495920	-0.024800
H160	H	-0.156802	-0.431120	-0.075910
H161	H	-0.197519	-0.496027	-0.126957
C162	C	-0.042023	-0.636877	-0.000316
C163	C	-0.045707	-0.678993	-0.075647
C164	C	-0.120779	-0.723613	-0.075791
H165	H	-0.087780	-0.609957	-0.000367
H166	H	-0.044684	-0.665508	0.050735
H167	H	-0.043054	-0.650366	-0.126685
H168	H	0.000032	-0.705928	-0.075612
H169	H	-0.123440	-0.752243	-0.024740
H170	H	-0.166530	-0.696687	-0.075839
H171	H	-0.123285	-0.752198	-0.126897
