data_functionalizedCrystal
_audit_creation_method	'MofGen! by Chris Wilmer'
_symmetry_space_group_name_H-M	'P1'
_symmetry_Int_Tables_number	1
_symmetry_cell_setting	triclinic
loop_
_symmetry_equiv_pos_as_xyz
  x,y,z
_cell_length_a	18.050590
_cell_length_b	18.050589
_cell_length_c	18.050583
_cell_angle_alpha	90.031709
_cell_angle_beta	89.999666
_cell_angle_gamma	89.976137
loop_
_atom_site_label
_atom_site_type_symbol
_atom_site_fract_x
_atom_site_fract_y
_atom_site_fract_z
Zn1	Zn	1.135267	0.295821	-0.419625
Zn2	Zn	1.385267	0.545821	-0.169625
Zn3	Zn	1.635267	0.795821	0.080375
Zn4	Zn	1.885267	1.045821	0.330375
Zn5	Zn	1.135161	0.420034	-0.295445
Zn6	Zn	1.385161	0.670034	-0.045445
Zn7	Zn	1.635161	0.920034	0.204555
Zn8	Zn	1.885161	1.170034	0.454555
Zn9	Zn	1.011084	0.295839	-0.295483
Zn10	Zn	1.261084	0.545839	-0.045483
Zn11	Zn	1.511084	0.795839	0.204517
Zn12	Zn	1.761084	1.045839	0.454517
Zn13	Zn	1.011020	0.419950	-0.419628
Zn14	Zn	1.261020	0.669950	-0.169628
Zn15	Zn	1.511020	0.919950	0.080372
Zn16	Zn	1.761020	1.169950	0.330372
O17	O	1.073133	0.357911	-0.357545
O18	O	1.323133	0.607911	-0.107545
O19	O	1.573133	0.857911	0.142455
O20	O	1.823133	1.107911	0.392455
O21	O	1.239178	0.312326	-0.403135
O22	O	1.489178	0.562326	-0.153135
O23	O	1.739178	0.812326	0.096865
O24	O	1.989178	1.062326	0.346865
O25	O	1.118685	0.403602	-0.191526
O26	O	1.368685	0.653602	0.058474
O27	O	1.618685	0.903602	0.308474
O28	O	1.868685	1.153602	0.558474
O29	O	1.027628	0.191912	-0.311966
O30	O	1.277628	0.441912	-0.061966
O31	O	1.527628	0.691912	0.188034
O32	O	1.777628	0.941912	0.438034
O33	O	1.239100	0.403585	-0.311901
O34	O	1.489100	0.653585	-0.061901
O35	O	1.739100	0.903585	0.188099
O36	O	1.989100	1.153585	0.438099
O37	O	1.118865	0.191899	-0.403173
O38	O	1.368865	0.441899	-0.153173
O39	O	1.618865	0.691899	0.096827
O40	O	1.868865	0.941899	0.346827
O41	O	1.027525	0.312356	-0.191554
O42	O	1.277525	0.562356	0.058446
O43	O	1.527525	0.812356	0.308446
O44	O	1.777525	1.062356	0.558446
O45	O	0.907151	0.312275	-0.311968
O46	O	1.157151	0.562275	-0.061968
O47	O	1.407151	0.812275	0.188032
O48	O	1.657151	1.062275	0.438032
O49	O	1.027519	0.403442	-0.523552
O50	O	1.277519	0.653442	-0.273552
O51	O	1.527519	0.903442	-0.023552
O52	O	1.777519	1.153442	0.226448
O53	O	0.907104	0.403459	-0.403177
O54	O	1.157104	0.653459	-0.153177
O55	O	1.407104	0.903459	0.096823
O56	O	1.657104	1.153459	0.346823
O57	O	1.118803	0.312245	-0.523550
O58	O	1.368803	0.562245	-0.273550
O59	O	1.618803	0.812245	-0.023550
O60	O	1.868803	1.062245	0.226450
O61	O	1.118623	0.523948	-0.311903
O62	O	1.368623	0.773948	-0.061903
O63	O	1.618623	1.023948	0.188097
O64	O	1.868623	1.273948	0.438097
O65	O	1.027417	0.523886	-0.403140
O66	O	1.277417	0.773886	-0.153140
O67	O	1.527417	1.023886	0.096860
O68	O	1.777417	1.273886	0.346860
C69	C	0.880181	0.357860	-0.357577
C70	C	1.130181	0.607860	-0.107577
C71	C	1.380181	0.857860	0.142423
C72	C	1.630181	1.107860	0.392423
C73	C	0.797635	0.357857	-0.357609
C74	C	1.047635	0.607857	-0.107609
C75	C	1.297635	0.857857	0.142391
C76	C	1.547635	1.107857	0.392391
C77	C	0.598181	0.407584	-0.407090
C78	C	0.848181	0.657584	-0.157090
C79	C	1.098181	0.907584	0.092910
C80	C	1.348181	1.157584	0.342910
C81	C	0.548796	0.339865	-0.425360
C82	C	0.798796	0.589865	-0.175360
C83	C	1.048796	0.839865	0.074640
C84	C	1.298796	1.089865	0.324640
C85	C	0.646505	0.357898	-0.357572
C86	C	0.896505	0.607898	-0.107572
C87	C	1.146505	0.857898	0.142428
C88	C	1.396505	1.107898	0.392428
C89	C	0.548808	0.425656	-0.339302
C90	C	0.798808	0.675656	-0.089302
C91	C	1.048808	0.925656	0.160698
C92	C	1.298808	1.175656	0.410698
C93	C	0.500520	0.357944	-0.357539
C94	C	0.750520	0.607944	-0.107539
C95	C	1.000520	0.857944	0.142461
C96	C	1.250520	1.107944	0.392461
C97	C	0.598207	0.290143	-0.375878
C98	C	0.848207	0.540143	-0.125878
C99	C	1.098207	0.790143	0.124122
C100	C	1.348207	1.040143	0.374122
C101	C	0.598224	0.375979	-0.289788
C102	C	0.848224	0.625979	-0.039788
C103	C	1.098224	0.875979	0.210212
C104	C	1.348224	1.125979	0.460212
C105	C	0.548861	0.308213	-0.308032
C106	C	0.798861	0.558213	-0.058032
C107	C	1.048861	0.808213	0.191968
C108	C	1.298861	1.058213	0.441968
C109	C	0.730603	0.357872	-0.357594
C110	C	0.980603	0.607872	-0.107594
C111	C	1.230603	0.857872	0.142406
C112	C	1.480603	1.107872	0.392406
C113	C	0.416423	0.357962	-0.357517
C114	C	0.666423	0.607962	-0.107517
C115	C	0.916423	0.857962	0.142483
C116	C	1.166423	1.107962	0.392483
C117	C	1.073022	0.550863	-0.357534
C118	C	1.323022	0.800863	-0.107534
C119	C	1.573022	1.050863	0.142466
C120	C	1.823022	1.300863	0.392466
C121	C	1.073042	0.633409	-0.357554
C122	C	1.323042	0.883409	-0.107554
C123	C	1.573042	1.133409	0.142446
C124	C	1.823042	1.383409	0.392446
C125	C	1.023470	0.832853	-0.407151
C126	C	1.273470	1.082853	-0.157151
C127	C	1.523470	1.332853	0.092849
C128	C	1.773470	1.582853	0.342849
C129	C	1.005366	0.882300	-0.339389
C130	C	1.255366	1.132300	-0.089389
C131	C	1.505366	1.382300	0.160611
C132	C	1.755366	1.632300	0.410611
C133	C	1.073098	0.784539	-0.357564
C134	C	1.323098	1.034539	-0.107564
C135	C	1.573098	1.284539	0.142436
C136	C	1.823098	1.534539	0.392436
C137	C	1.091222	0.882174	-0.425334
C138	C	1.341222	1.132174	-0.175334
C139	C	1.591222	1.382174	0.074666
C140	C	1.841222	1.632174	0.324666
C141	C	1.073150	0.930524	-0.357580
C142	C	1.323150	1.180524	-0.107580
C143	C	1.573150	1.430524	0.142420
C144	C	1.823150	1.680524	0.392420
C145	C	1.054958	0.832899	-0.289766
C146	C	1.304958	1.082899	-0.039766
C147	C	1.554958	1.332899	0.210234
C148	C	1.804958	1.582899	0.460234
C149	C	1.140846	0.832769	-0.375757
C150	C	1.390846	1.082769	-0.125757
C151	C	1.640846	1.332769	0.124243
C152	C	1.890846	1.582769	0.374243
C153	C	1.122767	0.882193	-0.307948
C154	C	1.372767	1.132193	-0.057948
C155	C	1.622767	1.382193	0.192052
C156	C	1.872767	1.632193	0.442052
C157	C	1.073066	0.700441	-0.357556
C158	C	1.323066	0.950441	-0.107556
C159	C	1.573066	1.200441	0.142444
C160	C	1.823066	1.450441	0.392444
C161	C	1.073183	1.014621	-0.357580
C162	C	1.323183	1.264621	-0.107580
C163	C	1.573183	1.514621	0.142420
C164	C	1.823183	1.764621	0.392420
C165	C	1.266839	0.357963	-0.357514
C166	C	1.516839	0.607963	-0.107514
C167	C	1.766839	0.857963	0.142486
C168	C	2.016839	1.107963	0.392486
C169	C	1.349384	0.357984	-0.357500
C170	C	1.599384	0.607984	-0.107500
C171	C	1.849384	0.857984	0.142500
C172	C	2.099384	1.107984	0.392500
C173	C	1.073166	0.357832	-0.551251
C174	C	1.323166	0.607832	-0.301251
C175	C	1.573166	0.857832	-0.051251
C176	C	1.823166	1.107832	0.198749
C177	C	1.073180	0.357798	-0.633797
C178	C	1.323180	0.607798	-0.383797
C179	C	1.573180	0.857798	-0.133797
C180	C	1.823180	1.107798	0.116203
C181	C	1.073237	1.164205	-0.357574
C182	C	1.323237	1.414205	-0.107574
C183	C	1.573237	1.664205	0.142426
C184	C	1.823237	1.914205	0.392426
C185	C	1.073209	1.081660	-0.357589
C186	C	1.323209	1.331660	-0.107589
C187	C	1.573209	1.581660	0.142411
C188	C	1.823209	1.831660	0.392411
C189	C	1.122870	0.308181	-0.833247
C190	C	1.372870	0.558181	-0.583247
C191	C	1.622870	0.808181	-0.333247
C192	C	1.872870	1.058181	-0.083247
C193	C	1.055138	0.289992	-0.882659
C194	C	1.305138	0.539992	-0.632659
C195	C	1.555138	0.789992	-0.382659
C196	C	1.805138	1.039992	-0.132659
C197	C	1.073210	0.357785	-0.784927
C198	C	1.323210	0.607785	-0.534927
C199	C	1.573210	0.857785	-0.284927
C200	C	1.823210	1.107785	-0.034927
C201	C	1.140969	0.375927	-0.882597
C202	C	1.390969	0.625927	-0.632597
C203	C	1.640969	0.875927	-0.382597
C204	C	1.890969	1.125927	-0.132597
C205	C	1.073244	0.357772	-0.930912
C206	C	1.323244	0.607772	-0.680912
C207	C	1.573244	0.857772	-0.430912
C208	C	1.823244	1.107772	-0.180912
C209	C	1.005442	0.339561	-0.833252
C210	C	1.255442	0.589561	-0.583252
C211	C	1.505442	0.839561	-0.333252
C212	C	1.755442	1.089561	-0.083252
C213	C	1.091318	0.425528	-0.833186
C214	C	1.341318	0.675528	-0.583186
C215	C	1.591318	0.925528	-0.333186
C216	C	1.841318	1.175528	-0.083186
C217	C	1.023540	0.407365	-0.882576
C218	C	1.273540	0.657365	-0.632576
C219	C	1.523540	0.907365	-0.382576
C220	C	1.773540	1.157365	-0.132576
C221	C	1.073191	0.357791	-0.700829
C222	C	1.323191	0.607791	-0.450829
C223	C	1.573191	0.857791	-0.200829
C224	C	1.823191	1.107791	0.049171
C225	C	1.073256	0.357766	-1.015009
C226	C	1.323256	0.607766	-0.765009
C227	C	1.573256	0.857766	-0.515009
C228	C	1.823256	1.107766	-0.265009
C229	C	1.073143	0.357936	-0.164593
C230	C	1.323143	0.607936	0.085407
C231	C	1.573143	0.857936	0.335407
C232	C	1.823143	1.107936	0.585407
C233	C	1.073273	0.357761	-0.082048
C234	C	1.323273	0.607761	0.167952
C235	C	1.573273	0.857761	0.417952
C236	C	1.823273	1.107761	0.667952
H237	H	0.527342	0.266166	-0.266143
H238	H	0.777342	0.516166	-0.016143
H239	H	1.027342	0.766166	0.233857
H240	H	1.277342	1.016166	0.483857
H241	H	0.619952	0.391278	-0.232495
H242	H	0.869952	0.641278	0.017505
H243	H	1.119952	0.891278	0.267505
H244	H	1.369952	1.141278	0.517505
H245	H	1.106532	0.903819	-0.482641
H246	H	1.356532	1.153819	-0.232641
H247	H	1.606532	1.403819	0.017359
H248	H	1.856532	1.653819	0.267359
H249	H	0.527106	0.482939	-0.323865
H250	H	0.777106	0.732939	-0.073865
H251	H	1.027106	0.982939	0.176135
H252	H	1.277106	1.232939	0.426135
O253	O	1.209126	0.806824	-0.394263
O254	O	1.459126	1.056824	-0.144263
O255	O	1.709126	1.306824	0.105737
O256	O	1.959126	1.556824	0.355737
C257	C	1.228002	0.831899	-0.465773
C258	C	1.478002	1.081899	-0.215773
C259	C	1.728002	1.331899	0.034227
C260	C	1.978002	1.581899	0.284227
H261	H	1.175360	0.845791	-0.497781
H262	H	1.425360	1.095791	-0.247781
H263	H	1.675360	1.345791	0.002219
H264	H	1.925360	1.595791	0.252219
H265	H	1.259857	0.786646	-0.496250
H266	H	1.509857	1.036646	-0.246250
H267	H	1.759857	1.286646	0.003750
H268	H	2.009857	1.536646	0.253750
H269	H	1.264053	0.883536	-0.461115
H270	H	1.514053	1.133536	-0.211115
H271	H	1.764053	1.383536	0.038885
H272	H	2.014053	1.633536	0.288885
H273	H	0.981447	0.811188	-0.449026
H274	H	1.231447	1.061188	-0.199026
H275	H	1.481447	1.311188	0.050974
H276	H	1.731447	1.561188	0.300974
O277	O	0.936999	0.908224	-0.321154
O278	O	1.186999	1.158224	-0.071154
O279	O	1.436999	1.408224	0.178846
O280	O	1.686999	1.658224	0.428846
C281	C	0.884812	0.883074	-0.373552
C282	C	1.134812	1.133074	-0.123552
C283	C	1.384812	1.383074	0.126448
C284	C	1.634812	1.633074	0.376448
H285	H	0.914306	0.869157	-0.427647
H286	H	1.164306	1.119157	-0.177647
H287	H	1.414306	1.369157	0.072353
H288	H	1.664306	1.619157	0.322353
H289	H	0.841951	0.928293	-0.383940
H290	H	1.091951	1.178293	-0.133940
H291	H	1.341951	1.428293	0.116060
H292	H	1.591951	1.678293	0.366060
H293	H	0.855980	0.831438	-0.351441
H294	H	1.105980	1.081438	-0.101441
H295	H	1.355980	1.331438	0.148559
H296	H	1.605980	1.581438	0.398559
O297	O	1.036869	0.221696	-0.908721
O298	O	1.286869	0.471696	-0.658721
O299	O	1.536869	0.721696	-0.408721
O300	O	1.786869	0.971696	-0.158721
C301	C	1.036513	0.222825	-0.986821
C302	C	1.286513	0.472825	-0.736821
C303	C	1.536513	0.722825	-0.486821
C304	C	1.786513	0.972825	-0.236821
H305	H	1.027818	0.282046	-1.006944
H306	H	1.277818	0.532046	-0.756944
H307	H	1.527818	0.782046	-0.506944
H308	H	1.777818	1.032046	-0.256944
H309	H	0.989691	0.186244	-1.008214
H310	H	1.239691	0.436244	-0.758214
H311	H	1.489691	0.686244	-0.508214
H312	H	1.739691	0.936244	-0.258214
H313	H	1.091742	0.201097	-1.008460
H314	H	1.341742	0.451097	-0.758460
H315	H	1.591742	0.701097	-0.508460
H316	H	1.841742	0.951097	-0.258460
O317	O	0.623935	0.457717	-0.457052
O318	O	0.873935	0.707717	-0.207052
O319	O	1.123935	0.957717	0.042948
O320	O	1.373935	1.207717	0.292948
C321	C	0.597702	0.528905	-0.438387
C322	C	0.847702	0.778905	-0.188387
C323	C	1.097702	1.028905	0.061613
C324	C	1.347702	1.278905	0.311613
H325	H	0.545355	0.523595	-0.403464
H326	H	0.795355	0.773595	-0.153464
H327	H	1.045355	1.023595	0.096536
H328	H	1.295355	1.273595	0.346536
H329	H	0.584606	0.561004	-0.491164
H330	H	0.834606	0.811004	-0.241164
H331	H	1.084606	1.061004	0.008836
H332	H	1.334606	1.311004	0.258836
H333	H	0.641933	0.559683	-0.405443
H334	H	0.891933	0.809683	-0.155443
H335	H	1.141933	1.059683	0.094557
H336	H	1.391933	1.309683	0.344557
O337	O	1.172806	0.258009	-0.807433
O338	O	1.422806	0.508009	-0.557433
O339	O	1.672806	0.758009	-0.307433
O340	O	1.922806	1.008009	-0.057433
C341	C	1.153458	0.186655	-0.832659
C342	C	1.403458	0.436655	-0.582659
C343	C	1.653458	0.686655	-0.332659
C344	C	1.903458	0.936655	-0.082659
H345	H	1.091861	0.185237	-0.846529
H346	H	1.341861	0.435237	-0.596529
H347	H	1.591861	0.685237	-0.346529
H348	H	1.841861	0.935237	-0.096529
H349	H	1.165861	0.144296	-0.787505
H350	H	1.415861	0.394296	-0.537505
H351	H	1.665861	0.644296	-0.287505
H352	H	1.915861	0.894296	-0.037505
H353	H	1.187005	0.172732	-0.884340
H354	H	1.437005	0.422732	-0.634340
H355	H	1.687005	0.672732	-0.384340
H356	H	1.937005	0.922732	-0.134340
O357	O	1.036591	0.807066	-0.221432
O358	O	1.286591	1.057066	0.028568
O359	O	1.536591	1.307066	0.278568
O360	O	1.786591	1.557066	0.528568
C361	C	1.036772	0.728959	-0.222252
C362	C	1.286772	0.978959	0.027748
C363	C	1.536772	1.228959	0.277748
C364	C	1.786772	1.478959	0.527748
H365	H	1.028468	0.708482	-0.281425
H366	H	1.278468	0.958482	-0.031425
H367	H	1.528468	1.208482	0.218575
H368	H	1.778468	1.458482	0.468575
H369	H	0.989941	0.707452	-0.185766
H370	H	1.239941	0.957452	0.064234
H371	H	1.489941	1.207452	0.314234
H372	H	1.739941	1.457452	0.564234
H373	H	1.092053	0.707785	-0.200228
H374	H	1.342053	0.957785	0.049772
H375	H	1.592053	1.207785	0.299772
H376	H	1.842053	1.457785	0.549772
O377	O	0.624014	0.221831	-0.394503
O378	O	0.874014	0.471831	-0.144503
O379	O	1.124014	0.721831	0.105497
O380	O	1.374014	0.971831	0.355497
C381	C	0.667473	0.227116	-0.459187
C382	C	0.917473	0.477116	-0.209187
C383	C	1.167473	0.727116	0.040813
C384	C	1.417473	0.977116	0.290813
H385	H	0.651043	0.278901	-0.491370
H386	H	0.901043	0.528901	-0.241370
H387	H	1.151043	0.778901	0.008630
H388	H	1.401043	1.028901	0.258630
H389	H	0.658016	0.176071	-0.495178
H390	H	0.908016	0.426071	-0.245178
H391	H	1.158016	0.676071	0.004822
H392	H	1.408016	0.926071	0.254822
H393	H	0.728503	0.230647	-0.443321
H394	H	0.978503	0.480647	-0.193321
H395	H	1.228503	0.730647	0.056679
H396	H	1.478503	0.980647	0.306679
H397	H	1.164758	0.903721	-0.265971
H398	H	1.414758	1.153721	-0.015971
H399	H	1.664758	1.403721	0.234029
H400	H	1.914758	1.653721	0.484029
H401	H	1.198257	0.391276	-0.904276
H402	H	1.448257	0.641276	-0.654276
H403	H	1.698257	0.891276	-0.404276
H404	H	1.948257	1.141276	-0.154276
H405	H	0.948138	0.324144	-0.811667
H406	H	1.198138	0.574144	-0.561667
H407	H	1.448138	0.824144	-0.311667
H408	H	1.698138	1.074144	-0.061667
H409	H	0.527084	0.324587	-0.482669
H410	H	0.777084	0.574587	-0.232669
H411	H	1.027084	0.824587	0.017331
H412	H	1.277084	1.074587	0.267331
H413	H	0.981511	0.449308	-0.904099
H414	H	1.231511	0.699308	-0.654099
H415	H	1.481511	0.949308	-0.404099
H416	H	1.731511	1.199308	-0.154099
H417	H	1.106645	0.482806	-0.811441
H418	H	1.356645	0.732806	-0.561441
H419	H	1.606645	0.982806	-0.311441
H420	H	1.856645	1.232806	-0.061441
