data_functionalizedCrystal
_audit_creation_method	'MofGen! by Chris Wilmer'
_symmetry_space_group_name_H-M	'P1'
_symmetry_Int_Tables_number	1
_symmetry_cell_setting	triclinic
loop_
_symmetry_equiv_pos_as_xyz
  x,y,z
_cell_length_a	6.817900
_cell_length_b	7.076028
_cell_length_c	12.908942
_cell_angle_alpha	92.067932
_cell_angle_beta	100.860556
_cell_angle_gamma	117.700652
loop_
_atom_site_label
_atom_site_type_symbol
_atom_site_fract_x
_atom_site_fract_y
_atom_site_fract_z
V1	V	-4.185998	-0.663830	-0.144176
O2	O	-4.184666	-0.652414	0.008656
O3	O	-4.122783	-0.658115	-0.287539
O4	O	-4.213271	-0.953884	-0.141200
O5	O	-4.093552	-0.354597	-0.138696
V6	V	-4.661741	-0.626986	-0.125985
O7	O	-4.464324	-0.744650	-0.184079
O8	O	-4.833612	-0.546165	-0.086082
O9	O	-4.501749	-0.632700	0.017378
O10	O	-4.780470	-0.638401	-0.278818
O11	O	-4.871584	-0.936218	-0.131466
O12	O	-4.411262	-0.336931	-0.128961
C13	C	-3.961731	-0.647340	-0.322511
C14	C	-3.991836	-0.644601	-0.439707
C15	C	-4.210701	-0.266184	-0.134322
C16	C	-4.084123	-0.024612	-0.135834
C17	C	-4.417215	-0.660697	-0.670620
C18	C	-4.445511	-0.658124	-0.780736
C19	C	-4.076735	-0.636898	-0.770060
C20	C	-4.048438	-0.639471	-0.659944
C21	C	-4.218685	-0.651367	-0.610227
C22	C	-4.190379	-0.653925	-0.500108
C23	C	-3.821612	-0.632714	-0.489435
C24	C	-3.849909	-0.630142	-0.599551
C25	C	-4.326141	-0.643469	0.052345
C26	C	-4.275278	-0.646222	0.169540
H27	H	-4.328998	-0.663596	-0.459630
H28	H	-3.659950	-0.625115	-0.440251
H29	H	-3.711309	-0.620464	-0.640046
F30	F	-4.598394	-0.673346	-0.617705
F31	F	-3.895581	-0.624262	-0.822991
F32	F	-4.656814	-0.668060	-0.845008
