data_functionalizedCrystal
_audit_creation_method	'MofGen! by Chris Wilmer'
_symmetry_space_group_name_H-M	'P1'
_symmetry_Int_Tables_number	1
_symmetry_cell_setting	triclinic
loop_
_symmetry_equiv_pos_as_xyz
  x,y,z
_cell_length_a	19.288840
_cell_length_b	10.540510
_cell_length_c	18.366186
_cell_angle_alpha	89.996284
_cell_angle_beta	89.983729
_cell_angle_gamma	83.819664
loop_
_atom_site_label
_atom_site_type_symbol
_atom_site_fract_x
_atom_site_fract_y
_atom_site_fract_z
O1	O	0.922410	0.158196	-0.060668
O2	O	0.720289	0.179590	-0.060642
O3	O	0.825971	-0.015920	-0.060655
O4	O	0.816727	0.353705	-0.060654
O5	O	0.825953	-0.015930	0.060444
O6	O	0.720270	0.179580	0.060458
O7	O	0.922392	0.158186	0.060432
Zn8	Zn	0.821328	0.168882	0.079672
Zn9	Zn	0.821352	0.168894	-0.079882
O10	O	0.816709	0.353696	0.060445
C11	C	0.694398	0.178902	-0.000089
C12	C	0.617280	0.176851	-0.000079
C13	C	0.581080	0.175871	-0.066092
C14	C	0.508620	0.173931	-0.066101
C15	C	0.472365	0.172944	-0.000093
C16	C	0.508574	0.173931	0.065929
C17	C	0.581031	0.175885	0.065936
C18	C	0.362518	0.095496	0.050468
C19	C	0.290062	0.093535	0.050458
C20	C	0.248882	0.166924	-0.000112
C21	C	0.280167	0.242259	-0.050685
C22	C	0.352625	0.244212	-0.050678
C23	C	0.393797	0.170826	-0.000094
C24	C	0.134112	0.163842	-0.066140
C25	C	0.061651	0.161909	-0.066146
C26	C	0.061606	0.161897	0.065886
C27	C	0.134066	0.163842	0.065890
C28	C	0.170315	0.164809	-0.000125
C29	C	0.825273	-0.063213	-0.000107
C30	C	0.823212	-0.204117	-0.000111
C31	C	0.896630	-0.423220	0.000157
C32	C	0.898828	-0.276674	-0.000120
C33	C	0.784515	-0.248001	-0.069258
C34	C	0.782852	-0.394724	-0.069312
C35	C	0.781257	-0.394508	0.068401
C36	C	0.784843	-0.248248	0.069311
C37	C	0.948282	0.158874	-0.000123
C38	C	1.025400	0.160924	-0.000137
C39	C	0.817407	0.400989	-0.000105
C40	C	0.819468	0.541892	-0.000106
N41	N	0.821317	0.168872	0.188563
N42	N	0.821369	0.168893	-0.188773
C43	C	0.868129	0.082343	0.226658
C44	C	0.868133	0.082337	0.302885
C45	C	0.821332	0.168883	0.341016
C46	C	0.774512	0.255419	0.302912
C47	C	0.774504	0.255413	0.226686
C48	C	0.812799	0.284540	0.461777
C49	C	0.812812	0.284547	0.538002
C50	C	0.821352	0.168899	0.576123
C51	C	0.829895	0.053238	0.538010
C52	C	0.829887	0.053233	0.461784
C53	C	0.821335	0.168897	0.423670
C54	C	0.868172	0.082356	0.696873
C55	C	0.868171	0.082349	0.773102
C56	C	0.774553	0.255441	0.773127
C57	C	0.774550	0.255437	0.696899
C58	C	0.821363	0.168896	0.658777
H59	H	0.610590	0.176658	-0.119847
F60	F	0.256771	0.013381	0.104292
H61	H	0.479050	0.173131	0.119673
F62	F	0.935128	-0.478926	0.064974
F63	F	0.619559	0.176928	0.136199
H64	H	0.736434	0.325903	0.665881
H65	H	0.906255	0.011872	0.333908
F66	F	0.708932	-0.423125	-0.073409
H67	H	0.032177	0.161119	-0.119904
F68	F	0.707051	-0.421795	0.069021
H69	H	0.929107	-0.248014	0.049446
F70	F	0.803725	0.407642	0.578557
H71	H	0.809313	-0.435530	-0.121008
H72	H	0.736404	0.325883	0.333962
H73	H	0.396041	0.035730	0.091652
H74	H	0.906289	0.011879	0.804119
H75	H	0.836841	-0.040942	0.430755
H76	H	0.032087	0.161101	0.119631
F77	F	0.385918	0.324390	-0.104497
F78	F	0.934925	-0.480937	-0.064302
F79	F	0.712683	-0.182498	0.074779
F80	F	0.172594	0.164879	0.136151
H81	H	0.929298	-0.248949	-0.049780
F82	F	0.812446	-0.450765	0.136907
F83	F	0.724739	0.347541	0.813705
H84	H	0.805832	0.378721	0.430745
H85	H	0.736383	0.325877	0.195668
H86	H	0.163627	0.164642	-0.119893
H87	H	0.728848	-0.199362	-0.071822
H88	H	0.906288	0.011885	0.665832
F89	F	0.236345	0.320376	-0.104508
F90	F	0.470086	0.172888	-0.136364
H91	H	0.811404	-0.217744	-0.120724
F92	F	0.821642	-0.211673	0.136175
H93	H	0.906245	0.011873	0.195620
H94	H	0.836849	-0.040934	0.569047
