data_functionalizedCrystal
_audit_creation_method	'MofGen! by Chris Wilmer'
_symmetry_space_group_name_H-M	'P1'
_symmetry_Int_Tables_number	1
_symmetry_cell_setting	triclinic
loop_
_symmetry_equiv_pos_as_xyz
  x,y,z
_cell_length_a	12.594516
_cell_length_b	10.685972
_cell_length_c	10.686551
_cell_angle_alpha	98.409768
_cell_angle_beta	85.596700
_cell_angle_gamma	85.618924
loop_
_atom_site_label
_atom_site_type_symbol
_atom_site_fract_x
_atom_site_fract_y
_atom_site_fract_z
Zn1	Zn	-0.238621	-1.995787	-0.866763
Zn2	Zn	-0.431442	-1.979361	-0.654509
Zn3	Zn	-0.268239	-1.767213	-0.638224
Zn4	Zn	-0.431333	-1.783484	-0.850415
O5	O	-0.342409	-1.881461	-0.752478
O6	O	-0.251849	-2.171242	-0.852265
O7	O	-0.422233	-1.937535	-0.474717
O8	O	-0.115358	-1.797599	-0.668566
O9	O	-0.393514	-2.159174	-0.696322
O10	O	-0.093598	-1.965531	-0.836473
O11	O	-0.302329	-1.781671	-0.462752
O12	O	-0.302223	-1.591738	-0.652714
O13	O	-0.393329	-1.825331	-1.030215
O14	O	-0.422048	-1.603692	-0.808610
O15	O	-0.251744	-1.981309	-1.042226
O16	O	-0.580379	-1.953312	-0.680470
O17	O	-0.580299	-1.809403	-0.824401
C18	C	-0.365339	-1.551656	-0.727121
C19	C	-0.375172	-1.410566	-0.716304
C20	C	-0.618956	-1.881377	-0.752459
C21	C	-0.737254	-1.881461	-0.752502
C22	C	-0.806507	-1.803175	-0.830726
C23	C	-0.887601	-1.763354	-0.712526
C24	C	-0.866948	-1.921399	-0.870731
C25	C	-0.816799	-1.841573	-0.634236
C26	C	-0.796130	-1.999678	-0.792524
C27	C	-0.877195	-1.959895	-0.674247
C28	C	-0.064777	-1.881583	-0.752527
C29	C	0.053533	-1.881634	-0.752548
C30	C	-0.319220	-1.906967	-1.083566
C31	C	-0.309339	-1.917836	-1.224657
C32	C	-0.319383	-1.212554	-0.777928
C33	C	-0.309554	-1.353645	-0.788758
C34	C	-0.365425	-1.856128	-0.422683
C35	C	-0.374989	-1.845505	-0.281612
H36	H	-0.438876	-1.351354	-0.645987
H37	H	-0.908041	-2.026166	-0.608032
H38	H	-0.245573	-1.988086	-1.283841
N39	N	-0.767592	-1.719947	-0.913565
N40	N	-0.799200	-1.604440	-0.892997
H41	H	-0.771718	-1.545656	-0.951496
H42	H	-0.927465	-1.663461	-0.678709
H43	H	-0.794566	-1.807749	-0.534233
N44	N	-0.229621	-1.427906	-0.876945
N45	N	-0.159755	-1.498471	-0.838023
H46	H	-0.103299	-1.550925	-0.900304
H47	H	-0.756267	-2.099553	-0.826394
N48	N	-0.895016	-1.963670	-0.996139
N49	N	-0.870530	-1.903406	-1.084384
H50	H	-0.890351	-1.933249	-1.172955
H51	H	-0.438758	-1.775268	-1.222436
