data_functionalizedCrystal
_audit_creation_method	'MofGen! by Chris Wilmer'
_symmetry_space_group_name_H-M	'P1'
_symmetry_Int_Tables_number	1
_symmetry_cell_setting	triclinic
loop_
_symmetry_equiv_pos_as_xyz
  x,y,z
_cell_length_a	19.288864
_cell_length_b	10.065875
_cell_length_c	19.288865
_cell_angle_alpha	98.753461
_cell_angle_beta	96.863755
_cell_angle_gamma	98.729957
loop_
_atom_site_label
_atom_site_type_symbol
_atom_site_fract_x
_atom_site_fract_y
_atom_site_fract_z
O1	O	0.931584	0.113949	-0.076365
O2	O	1.431584	0.613949	0.423635
O3	O	0.729315	0.113858	-0.088062
O4	O	1.229315	0.613858	0.411938
O5	O	0.836292	0.113879	0.018915
O6	O	1.336292	0.613879	0.518915
O7	O	0.824607	0.113928	-0.183341
O8	O	1.324607	0.613928	0.316659
O9	O	0.815893	-0.113113	-0.001566
O10	O	1.315893	0.386887	0.498434
O11	O	0.708916	-0.113134	-0.108542
O12	O	1.208916	0.386866	0.391458
O13	O	0.911185	-0.113043	-0.096845
O14	O	1.411185	0.386957	0.403155
Zn15	Zn	0.806812	-0.149129	-0.105946
Zn16	Zn	1.306812	0.350871	0.394054
Zn17	Zn	0.833688	0.149944	-0.078962
Zn18	Zn	1.333688	0.649944	0.421038
O19	O	0.804208	-0.113064	-0.203822
O20	O	1.304208	0.386936	0.296178
C21	C	0.693238	0.000350	-0.097927
C22	C	1.193238	0.500350	0.402073
C23	C	0.616131	0.000314	-0.096801
C24	C	1.116131	0.500314	0.403199
N25	N	0.788474	-0.353238	-0.124361
N26	N	1.288474	0.146762	0.375639
C27	C	0.571438	0.000350	-0.159566
C28	C	1.071438	0.500350	0.340434
C29	C	0.498992	0.000365	-0.158504
C30	C	0.998992	0.500365	0.341496
C31	C	0.471245	0.000371	-0.094671
C32	C	0.971245	0.500371	0.405329
C33	C	0.515948	0.000327	-0.031899
C34	C	1.015948	0.500327	0.468101
C35	C	0.588390	0.000298	-0.032964
C36	C	1.088390	0.500298	0.467036
C37	C	0.370133	0.079930	-0.037314
C38	C	0.870133	0.579930	0.462686
C39	C	0.297692	0.079967	-0.036251
C40	C	0.797692	0.579967	0.463749
C41	C	0.247807	0.000453	-0.091384
C42	C	0.747807	0.500453	0.408616
C43	C	0.270372	-0.079081	-0.147591
C44	C	0.770372	0.420919	0.352409
C45	C	0.342815	-0.079110	-0.148656
C46	C	0.842815	0.420890	0.351344
C47	C	0.392694	0.000401	-0.093509
C48	C	0.892694	0.500401	0.406491
C49	C	0.124559	0.000503	-0.153002
C50	C	0.624559	0.500503	0.346998
C51	C	0.052112	0.000510	-0.151938
C52	C	0.552112	0.500510	0.348062
C53	C	0.069070	0.000485	-0.025330
C54	C	0.569070	0.500485	0.474670
C55	C	0.141515	0.000465	-0.026397
C56	C	0.641515	0.500465	0.473603
C57	C	0.169255	0.000481	-0.090234
C58	C	0.669255	0.500481	0.409766
C59	C	0.827304	-0.421009	-0.085365
C60	C	1.327304	0.078991	0.414635
C61	C	0.813196	-0.578179	-0.099543
C62	C	1.313196	-0.078179	0.400457
C63	C	0.947262	0.000468	-0.086980
C64	C	1.447262	0.500468	0.413020
C65	C	1.024370	0.000513	-0.088105
C66	C	1.524370	0.500513	0.411895
N67	N	0.852032	0.354053	-0.060541
N68	N	1.352032	0.854053	0.439459
C69	C	0.825716	0.000379	0.034551
C70	C	1.325716	0.500379	0.534551
C71	C	0.824586	0.000366	0.111653
C72	C	1.324586	0.500366	0.611653
C73	C	0.814785	0.000439	-0.219458
C74	C	1.314785	0.500439	0.280542
C75	C	0.815915	0.000461	-0.296559
C76	C	1.315915	0.500461	0.203441
C77	C	0.887355	0.000388	0.156351
C78	C	1.387355	0.500388	0.656351
C79	C	0.886297	0.000409	0.228800
C80	C	1.386297	0.500409	0.728800
C81	C	0.822462	0.000381	0.256545
C82	C	1.322462	0.500381	0.756545
C83	C	0.759685	0.000367	0.211838
C84	C	1.259685	0.500367	0.711838
C85	C	0.760746	0.000360	0.139392
C86	C	1.260746	0.500360	0.639392
C87	C	0.765135	-0.079152	0.357657
C88	C	1.265135	0.420848	0.857657
C89	C	0.764075	-0.079153	0.430101
C90	C	1.264075	0.420847	0.930101
C91	C	0.819185	0.000410	0.479993
C92	C	1.319185	0.500410	0.979993
C93	C	0.875365	0.079957	0.457433
C94	C	1.375365	0.579957	0.957433
C95	C	0.876427	0.079950	0.384986
C96	C	1.376427	0.579950	0.884986
C97	C	0.821304	0.000390	0.335100
C98	C	1.321304	0.500390	0.835100
C99	C	0.880811	0.000457	0.603250
C100	C	1.380811	0.500457	1.103250
C101	C	0.879751	0.000486	0.675701
C102	C	1.379751	0.500486	1.175701
C103	C	0.753135	0.000431	0.658735
C104	C	1.253135	0.500431	1.158735
C105	C	0.754199	0.000415	0.586288
C106	C	1.254199	0.500415	1.086288
C107	C	0.818038	0.000421	0.558549
C108	C	1.318038	0.500421	1.058549
H109	H	0.594020	0.000366	-0.211547
H110	H	1.094020	0.500366	0.288453
H111	H	0.769502	-0.636509	-0.143426
H112	H	1.269502	-0.136509	0.356574
N113	N	0.954003	0.000414	0.277014
N114	N	1.454003	0.500414	0.777014
H115	H	0.948813	-0.083733	0.299861
H116	H	1.448813	0.416267	0.799861
H117	H	0.963920	0.084616	0.314997
H118	H	1.463920	0.584616	0.814997
N119	N	0.636595	0.000270	0.034740
N120	N	1.136595	0.500270	0.534740
H121	H	0.674609	0.084407	0.044713
H122	H	1.174609	0.584407	0.544713
H123	H	0.659401	-0.083942	0.029483
H124	H	1.159401	0.416058	0.529483
H125	H	0.229756	-0.143831	-0.192486
H126	H	0.729756	0.356169	0.307514
N127	N	0.705692	-0.165000	0.303856
N128	N	1.205692	0.335000	0.803856
H129	H	0.725537	-0.232997	0.271092
H130	H	1.225537	0.267003	0.771092
H131	H	0.681784	-0.104029	0.275335
H132	H	1.181784	0.395971	0.775335
N133	N	0.909906	-0.568688	-0.002410
N134	N	1.409906	-0.068688	0.497590
H135	H	0.957004	-0.593439	-0.012364
H136	H	1.457004	-0.093439	0.487636
H137	H	0.899645	-0.593534	0.044578
H138	H	1.399645	-0.093534	0.544578
H139	H	0.744783	-0.411573	-0.168242
H140	H	1.244783	0.088427	0.331758
N141	N	0.450776	0.000425	-0.226199
N142	N	0.950776	0.500425	0.273801
H143	H	0.412758	-0.083705	-0.236176
H144	H	0.912758	0.416295	0.263824
H145	H	0.479395	0.000482	-0.266757
H146	H	0.979395	0.500482	0.233243
N147	N	0.039152	0.000475	0.043519
N148	N	0.539152	0.500475	0.543519
H149	H	-0.013523	0.000494	0.034670
H150	H	0.486477	0.500494	0.534670
H151	H	0.063096	0.084612	0.078569
H152	H	0.563096	0.584612	0.578569
N153	N	0.885178	-0.343774	-0.027232
N154	N	1.385178	0.156226	0.472768
H155	H	0.874974	-0.368604	0.019777
H156	H	1.374974	0.131396	0.519777
H157	H	0.887033	-0.242469	-0.025397
H158	H	1.387033	0.257531	0.474603
N159	N	0.423933	0.165704	0.022155
N160	N	0.923933	0.665704	0.522155
H161	H	0.473249	0.153616	0.012954
H162	H	0.973249	0.653616	0.512954
H163	H	0.415133	0.135969	0.068505
H164	H	0.915133	0.635969	0.568505
N165	N	0.956207	0.000398	0.126433
N166	N	1.456207	0.500398	0.626433
H167	H	0.995812	0.000415	0.165747
H168	H	1.495812	0.500415	0.665747
H169	H	0.966971	0.084545	0.104329
H170	H	1.466971	0.584545	0.604329
H171	H	0.922169	0.144722	0.366621
H172	H	1.422169	0.644722	0.866621
H173	H	0.920241	0.144746	0.498055
H174	H	1.420241	0.644746	0.998055
H175	H	0.707710	0.000347	0.234433
H176	H	1.207710	0.500347	0.734433
N177	N	0.949662	0.000470	0.573325
N178	N	1.449662	0.500470	1.073325
H179	H	0.989269	0.000498	0.612639
H180	H	1.489269	0.500498	1.112639
H181	H	0.960422	0.084612	0.551217
H182	H	1.460422	0.584612	1.051217
H183	H	0.718328	-0.143917	0.448464
H184	H	1.218328	0.356083	0.948464
N185	N	0.154486	0.000514	-0.221851
N186	N	0.654486	0.500514	0.278149
H187	H	0.115176	0.000527	-0.261453
H188	H	0.615176	0.500527	0.238547
H189	H	0.176597	-0.083643	-0.232641
H190	H	0.676597	0.416357	0.267359
H191	H	0.930868	0.000511	0.712095
H192	H	1.430868	0.500511	1.212095
H193	H	0.701161	0.000415	0.681325
H194	H	1.201161	0.500415	1.181325
H195	H	0.703084	0.000390	0.549892
H196	H	1.203084	0.500390	1.049892
N197	N	0.693038	0.000305	0.091175
N198	N	1.193038	0.500305	0.591175
H199	H	0.703396	0.000294	0.041071
H200	H	1.203396	0.500294	0.541071
H201	H	0.672765	0.084441	0.107712
H202	H	1.172765	0.584441	0.607712
N203	N	0.367160	-0.164894	-0.209267
N204	N	0.867160	0.335106	0.290733
H205	H	0.350686	-0.135199	-0.255277
H206	H	0.850686	0.364801	0.244723
H207	H	0.346477	-0.264096	-0.211499
H208	H	0.846477	0.235904	0.288501
N209	N	0.003893	0.000440	-0.219647
N210	N	0.503893	0.500440	0.280353
H211	H	0.032460	0.000416	-0.260249
H212	H	0.532460	0.500416	0.239751
H213	H	-0.018983	0.084566	-0.214405
H214	H	0.481017	0.584566	0.285595
H215	H	0.177906	0.000442	0.024714
H216	H	0.677906	0.500442	0.524714
H217	H	0.493353	0.000350	0.020076
H218	H	0.993353	0.500350	0.520076
N219	N	0.273356	0.165748	0.024367
N220	N	0.773356	0.665748	0.524367
H221	H	0.315948	0.216101	0.059138
H222	H	0.815948	0.716101	0.559138
H223	H	0.241790	0.104746	0.049083
H224	H	0.741790	0.604746	0.549083
