data_functionalizedCrystal
_audit_creation_method	'MofGen! by Chris Wilmer'
_symmetry_space_group_name_H-M	'P1'
_symmetry_Int_Tables_number	1
_symmetry_cell_setting	triclinic
loop_
_symmetry_equiv_pos_as_xyz
  x,y,z
_cell_length_a	21.295419
_cell_length_b	21.295417
_cell_length_c	13.897441
_cell_angle_alpha	89.964625
_cell_angle_beta	89.978117
_cell_angle_gamma	90.044503
loop_
_atom_site_label
_atom_site_type_symbol
_atom_site_fract_x
_atom_site_fract_y
_atom_site_fract_z
Zn1	Zn	0.962343	-0.250341	-0.545379
Zn2	Zn	0.962251	-0.355620	-0.384067
Zn3	Zn	0.857071	-0.250395	-0.384094
Zn4	Zn	0.857037	-0.355603	-0.545316
O5	O	0.909675	-0.302990	-0.464714
O6	O	1.050420	-0.264290	-0.523995
O7	O	0.948275	-0.341691	-0.249089
O8	O	0.871088	-0.162299	-0.405526
O9	O	1.050353	-0.341638	-0.405480
O10	O	0.948430	-0.162258	-0.524022
O11	O	0.870999	-0.264383	-0.249109
O12	O	0.768977	-0.264367	-0.405466
O13	O	0.871030	-0.341610	-0.680306
O14	O	0.768952	-0.341663	-0.523915
O15	O	0.948398	-0.264274	-0.680352
O16	O	0.948242	-0.443707	-0.405419
O17	O	0.870941	-0.443695	-0.523889
C18	C	0.746124	-0.303020	-0.464687
C19	C	0.676156	-0.303048	-0.464698
C20	C	0.643346	-0.262839	-0.526505
C21	C	0.577604	-0.262822	-0.526508
C22	C	0.544673	-0.303025	-0.464716
C23	C	0.577490	-0.343237	-0.402898
C24	C	0.643232	-0.343249	-0.402889
N25	N	0.441399	-0.358104	-0.457179
N26	N	0.378947	-0.358091	-0.457193
C27	C	0.346598	-0.302993	-0.464737
N28	N	0.379060	-0.247906	-0.472286
N29	N	0.441517	-0.247919	-0.472277
C30	C	0.473388	-0.303017	-0.464718
C31	C	0.242504	-0.262762	-0.526551
C32	C	0.176760	-0.262744	-0.526548
C33	C	0.176648	-0.343165	-0.402942
C34	C	0.242390	-0.343177	-0.402940
C35	C	0.275314	-0.302977	-0.464750
C36	C	0.909595	-0.466541	-0.464665
C37	C	0.909618	-0.536509	-0.464677
C38	C	0.949868	-0.569298	-0.526421
C39	C	0.949890	-0.635040	-0.526445
C40	C	0.909669	-0.667992	-0.464707
C41	C	0.869412	-0.635195	-0.402958
C42	C	0.869387	-0.569454	-0.402943
N43	N	0.904912	-0.771260	-0.380290
N44	N	0.904940	-0.833711	-0.380307
C45	C	0.909743	-0.866066	-0.464751
N46	N	0.914529	-0.833611	-0.549178
N47	N	0.914504	-0.771154	-0.549160
C48	C	0.909692	-0.739277	-0.464717
C49	C	0.950019	-0.970141	-0.526526
C50	C	0.950036	-1.035884	-0.526552
C51	C	0.869562	-1.036038	-0.403056
C52	C	0.869541	-0.970296	-0.403039
C53	C	0.909772	-0.937351	-0.464773
C54	C	1.073866	-0.302960	-0.464742
C55	C	1.143834	-0.302947	-0.464754
C56	C	0.909720	-0.302934	-0.716307
C57	C	0.909739	-0.302910	-0.823521
C58	C	0.909773	-0.138799	-0.464784
C59	C	0.909815	-0.068831	-0.464814
C60	C	0.909756	-0.302868	-1.019816
C61	C	0.909745	-0.302893	-0.910584
C62	C	0.909667	-0.303000	-0.214100
C63	C	0.909770	-0.302846	-0.106886
H64	H	0.149836	-0.375900	-0.352629
H65	H	0.982661	-0.661742	-0.576736
H66	H	0.982776	-0.943316	-0.576797
C67	C	0.994316	-1.071953	-0.594474
C68	C	1.043765	-1.117113	-0.552749
C69	C	1.088048	-1.153182	-0.620672
C70	C	1.082881	-1.144089	-0.730318
C71	C	1.033430	-1.098926	-0.772049
C72	C	0.989148	-1.062858	-0.704127
H73	H	1.047592	-1.123846	-0.471577
H74	H	1.124655	-1.186614	-0.589779
H75	H	1.115661	-1.170789	-0.780598
H76	H	1.029603	-1.092194	-0.853221
H77	H	0.952540	-1.029426	-0.735019
C78	C	0.679326	-0.387486	-0.334904
C79	C	0.643109	-0.431709	-0.266927
C80	C	0.679205	-0.475947	-0.198944
C81	C	0.751518	-0.475963	-0.198938
C82	C	0.787739	-0.431739	-0.266917
C83	C	0.751643	-0.387500	-0.334900
H84	H	0.589575	-0.431698	-0.266930
H85	H	0.652391	-0.508685	-0.148622
H86	H	0.778238	-0.508712	-0.148612
H87	H	0.841272	-0.431749	-0.266914
H88	H	0.778456	-0.354762	-0.385222
C89	C	0.679557	-0.218618	-0.594498
C90	C	0.724743	-0.245967	-0.670150
C91	C	0.760953	-0.201747	-0.738148
C92	C	0.751976	-0.130178	-0.730494
C93	C	0.706788	-0.102824	-0.654839
C94	C	0.670578	-0.147044	-0.586841
H95	H	0.731390	-0.298951	-0.675819
H96	H	0.794404	-0.221996	-0.794153
H97	H	0.778781	-0.097443	-0.780830
H98	H	0.700141	-0.049841	-0.649170
H99	H	0.637127	-0.126795	-0.530836
C100	C	0.994111	-0.533059	-0.594343
C101	C	1.038379	-0.569132	-0.662274
C102	C	1.082618	-0.532892	-0.730201
C103	C	1.082590	-0.460579	-0.730198
C104	C	1.038320	-0.424502	-0.662265
C105	C	0.994081	-0.460743	-0.594337
H106	H	1.038402	-0.622666	-0.662278
H107	H	1.115390	-0.559599	-0.780489
H108	H	1.115338	-0.433752	-0.780482
H109	H	1.038297	-0.370968	-0.662260
H110	H	0.961309	-0.434036	-0.544049
H111	H	0.269104	-0.375923	-0.352615
H112	H	0.269312	-0.230024	-0.576874
C113	C	0.825170	-0.671439	-0.335044
C114	C	0.825198	-0.743752	-0.335053
C115	C	0.780952	-0.779994	-0.267140
C116	C	0.736676	-0.743924	-0.199218
C117	C	0.736646	-0.671607	-0.199206
C118	C	0.780892	-0.635364	-0.267119
H119	H	0.857975	-0.770457	-0.385335
H120	H	0.780974	-0.833528	-0.267148
H121	H	0.703922	-0.770753	-0.148944
H122	H	0.703869	-0.644902	-0.148924
H123	H	0.780870	-0.581831	-0.267111
C124	C	0.825316	-1.072275	-0.335143
C125	C	0.852633	-1.117477	-0.259460
C126	C	0.808383	-1.153716	-0.191548
C127	C	0.736816	-1.144754	-0.199319
C128	C	0.709495	-1.099549	-0.275006
C129	C	0.753745	-1.063310	-0.342918
H130	H	0.905615	-1.124114	-0.253704
H131	H	0.828608	-1.187180	-0.135520
H132	H	0.704059	-1.171580	-0.149047
H133	H	0.656513	-1.092913	-0.280761
H134	H	0.733520	-1.029847	-0.398946
C135	C	0.541500	-0.218589	-0.594496
C136	C	0.496298	-0.245924	-0.670144
C137	C	0.460195	-0.201692	-0.738129
C138	C	0.469294	-0.130125	-0.730465
C139	C	0.514498	-0.102786	-0.654813
C140	C	0.550601	-0.147019	-0.586828
H141	H	0.489560	-0.298906	-0.675821
H142	H	0.426732	-0.221930	-0.794131
H143	H	0.442569	-0.097382	-0.780791
H144	H	0.521236	-0.049805	-0.649136
H145	H	0.584065	-0.126780	-0.530826
C146	C	0.825271	-0.934225	-0.335107
C147	C	0.830453	-0.943315	-0.225461
C148	C	0.786180	-0.907246	-0.157527
C149	C	0.736724	-0.862087	-0.199238
C150	C	0.731539	-0.852996	-0.308890
C151	C	0.775813	-0.889065	-0.376824
H152	H	0.867065	-0.976746	-0.194579
H153	H	0.790018	-0.913976	-0.076356
H154	H	0.703950	-0.835386	-0.148949
H155	H	0.694927	-0.819565	-0.339772
H156	H	0.771975	-0.882334	-0.457995
H157	H	0.150048	-0.229997	-0.576876
H158	H	0.550674	-0.375971	-0.352585
H159	H	0.836610	-0.542757	-0.352662
