data_functionalizedCrystal
_audit_creation_method	'MofGen! by Chris Wilmer'
_symmetry_space_group_name_H-M	'P1'
_symmetry_Int_Tables_number	1
_symmetry_cell_setting	triclinic
loop_
_symmetry_equiv_pos_as_xyz
  x,y,z
_cell_length_a	15.995350
_cell_length_b	13.930277
_cell_length_c	14.853567
_cell_angle_alpha	90.000757
_cell_angle_beta	83.563652
_cell_angle_gamma	90.003570
loop_
_atom_site_label
_atom_site_type_symbol
_atom_site_fract_x
_atom_site_fract_y
_atom_site_fract_z
O1	O	1.111124	0.079741	0.116206
O2	O	0.867365	0.079760	0.130556
O3	O	0.995756	0.079753	-0.007858
O4	O	0.982734	0.079748	0.254619
O5	O	0.995738	-0.079909	-0.007861
O6	O	0.867348	-0.079902	0.130553
O7	O	1.111106	-0.079921	0.116203
Zn8	Zn	0.989224	-0.105261	0.123377
Zn9	Zn	0.989248	0.105100	0.123381
O10	O	0.982716	-0.079914	0.254616
C11	C	0.836161	-0.000068	0.129961
C12	C	0.743209	-0.000061	0.128182
N13	N	0.989214	-0.248827	0.123374
C14	C	0.932394	-0.701093	0.184647
C15	C	1.046124	-0.701069	0.062109
C16	C	1.046114	-0.600573	0.062106
C17	C	0.989244	-0.550333	0.123375
C18	C	0.932384	-0.600588	0.184648
C19	C	1.102979	-0.550310	0.000841
C20	C	1.102972	-0.449808	0.000836
C21	C	1.046097	-0.399566	0.062102
C22	C	0.989234	-0.449828	0.123376
C23	C	0.932364	-0.399587	0.184646
C24	C	0.875496	-0.449847	0.245916
C25	C	0.875509	-0.550346	0.245913
C26	C	1.046084	-0.299067	0.062105
C27	C	0.932354	-0.299082	0.184646
C28	C	0.405454	-0.000081	0.121795
C29	C	0.452773	-0.000435	0.023220
C30	C	0.549465	-0.000069	0.024999
C31	C	0.573018	-0.000071	0.124963
C32	C	0.531998	0.091099	0.173586
C33	C	0.435359	0.091168	0.171110
C34	C	0.435002	-0.090397	0.173143
C35	C	0.531947	-0.091595	0.173119
C36	C	0.667717	-0.000063	0.126759
C37	C	0.310754	-0.000083	0.120002
C38	C	1.142311	-0.000090	0.116798
C39	C	1.235263	-0.000091	0.118576
C40	C	0.995157	-0.000075	-0.041447
C41	C	0.993389	-0.000067	-0.141528
N42	N	0.989264	0.248667	0.123377
C43	C	0.909648	-0.000078	-0.553949
C44	C	1.062178	-0.000090	-0.575436
C45	C	1.063841	-0.000084	-0.481405
C46	C	0.988406	-0.000077	-0.423641
C47	C	0.911308	-0.000076	-0.459909
C48	C	1.140937	-0.000096	-0.445129
C49	C	1.142603	-0.000091	-0.351093
C50	C	1.067167	-0.000077	-0.293327
C51	C	0.990066	-0.000075	-0.329600
C52	C	0.914631	-0.000068	-0.271837
C53	C	0.837529	-0.000058	-0.308108
C54	C	0.835872	-0.000062	-0.402144
C55	C	1.068824	-0.000074	-0.199292
C56	C	0.916291	-0.000065	-0.177796
C57	C	0.983315	-0.000083	0.288206
C58	C	0.985083	-0.000085	0.388287
H59	H	0.886040	-0.258183	0.234536
C60	C	0.824837	-0.000068	-0.593839
C61	C	0.762160	0.082846	-0.572038
C62	C	0.677348	0.082857	-0.611927
C63	C	0.655213	-0.000048	-0.673617
C64	C	0.717892	-0.082969	-0.695421
C65	C	0.802704	-0.082979	-0.655532
H66	H	0.778544	0.144223	-0.526369
H67	H	0.630949	0.144241	-0.595786
H68	H	0.592431	-0.000040	-0.703145
H69	H	0.701508	-0.144345	-0.741090
H70	H	0.849103	-0.144363	-0.671673
H71	H	1.123594	-0.000104	-0.622472
H72	H	0.417017	0.159322	0.135654
H73	H	0.829210	-0.591274	0.295798
H74	H	0.829196	-0.408930	0.295806
H75	H	0.560340	0.158951	0.139817
H76	H	0.886091	-0.742017	0.234530
H77	H	1.092430	-0.741978	0.012229
H78	H	1.092389	-0.258150	0.012223
H79	H	0.773099	-0.000055	-0.431685
C80	C	1.223909	-0.000102	-0.508671
C81	C	1.243726	-0.083006	-0.576281
C82	C	1.326700	-0.083009	-0.639831
C83	C	1.389858	-0.000107	-0.635770
C84	C	1.370043	0.082803	-0.568157
C85	C	1.287069	0.082806	-0.504608
H86	H	1.196971	-0.144381	-0.579290
H87	H	1.341367	-0.144385	-0.689882
H88	H	1.451280	-0.000109	-0.682813
H89	H	1.416798	0.144178	-0.565149
H90	H	1.272401	0.144183	-0.454556
C91	C	0.407209	-0.183757	0.129604
C92	C	0.357317	-0.179174	0.046860
C93	C	0.329525	-0.272527	0.003310
C94	C	0.351626	-0.370465	0.042503
C95	C	0.401521	-0.375052	0.125251
C96	C	0.429313	-0.281698	0.168801
H97	H	0.340955	-0.106671	0.017843
H98	H	0.292590	-0.269131	-0.057946
H99	H	0.331053	-0.439571	0.010264
H100	H	0.417883	-0.447555	0.154268
H101	H	0.466248	-0.285095	0.230057
H102	H	0.546208	0.094487	0.247028
C103	C	1.165535	-0.605568	-0.066553
C104	C	1.132752	-0.674661	-0.135528
C105	C	1.195311	-0.729922	-0.202927
C106	C	1.290654	-0.716089	-0.201350
C107	C	1.323442	-0.646993	-0.132372
C108	C	1.260883	-0.591732	-0.064973
H109	H	1.062170	-0.684904	-0.136698
H110	H	1.171039	-0.781072	-0.253989
H111	H	1.336964	-0.756996	-0.251243
H112	H	1.394024	-0.636750	-0.131202
H113	H	1.285155	-0.540582	-0.013911
H114	H	0.403195	0.095304	0.243482
H115	H	1.205384	-0.000098	-0.321569
H116	H	0.854861	-0.000055	-0.130770
H117	H	1.149275	-0.408893	-0.049054
H118	H	0.434198	-0.065817	-0.016185
C119	C	1.153627	-0.000085	-0.159394
C120	C	1.175760	0.082823	-0.097707
C121	C	1.260568	0.082812	-0.057812
C122	C	1.323244	-0.000106	-0.079603
C123	C	1.301112	-0.083020	-0.141292
C124	C	1.216304	-0.083010	-0.181188
H125	H	1.129362	0.144209	-0.081574
H126	H	1.276951	0.144191	-0.012145
H127	H	1.386024	-0.000114	-0.050069
H128	H	1.347510	-0.144407	-0.157426
H129	H	1.199921	-0.144389	-0.226855
H130	H	0.577843	-0.065423	-0.013221
C131	C	0.568982	-0.182583	0.125099
C132	C	0.664140	-0.202383	0.119497
C133	C	0.701282	-0.293304	0.071444
C134	C	0.643266	-0.364426	0.028992
C135	C	0.548103	-0.344629	0.034593
C136	C	0.510961	-0.253708	0.082647
H137	H	0.707091	-0.149732	0.150923
H138	H	0.771729	-0.307959	0.067298
H139	H	0.670761	-0.431732	-0.006580
H140	H	0.505151	-0.397280	0.003167
H141	H	0.440514	-0.239053	0.086793
C142	C	0.392210	-0.091241	0.271327
C143	C	0.330758	-0.010419	0.304789
C144	C	0.287961	-0.011253	0.402968
C145	C	0.306617	-0.092909	0.467686
C146	C	0.368072	-0.173737	0.434225
C147	C	0.410868	-0.172903	0.336046
H148	H	0.316945	0.050033	0.256880
H149	H	0.242468	0.048581	0.427737
H150	H	0.274937	-0.093527	0.540364
H151	H	0.381885	-0.234189	0.482134
H152	H	0.456362	-0.232737	0.311276
C153	C	0.754552	-0.000052	-0.244562
C154	C	0.734737	0.082855	-0.176955
C155	C	0.651763	0.082861	-0.113405
C156	C	0.588604	-0.000041	-0.117462
C157	C	0.608418	-0.082954	-0.185072
C158	C	0.691392	-0.082960	-0.248622
H159	H	0.781492	0.144230	-0.173949
H160	H	0.637096	0.144239	-0.063356
H161	H	0.527182	-0.000037	-0.070419
H162	H	0.561663	-0.144329	-0.188078
H163	H	0.706059	-0.144338	-0.298672
C164	C	0.587056	0.088383	-0.026967
C165	C	0.529081	0.158908	-0.070211
C166	C	0.566671	0.247366	-0.122175
C167	C	0.662237	0.265299	-0.130895
C168	C	0.720218	0.194772	-0.087650
C169	C	0.682628	0.106314	-0.035686
H170	H	0.458332	0.145635	-0.063757
H171	H	0.523749	0.299575	-0.154188
H172	H	0.690064	0.330782	-0.169362
H173	H	0.790967	0.208046	-0.094104
H174	H	0.725550	0.054106	-0.003673
H175	H	0.433141	0.064587	-0.016001
H176	H	0.547397	-0.097104	0.246017
