data_functionalizedCrystal
_audit_creation_method	'MofGen! by Chris Wilmer'
_symmetry_space_group_name_H-M	'P1'
_symmetry_Int_Tables_number	1
_symmetry_cell_setting	triclinic
loop_
_symmetry_equiv_pos_as_xyz
  x,y,z
_cell_length_a	12.811457
_cell_length_b	23.532357
_cell_length_c	11.892095
_cell_angle_alpha	93.858312
_cell_angle_beta	91.498327
_cell_angle_gamma	83.439233
loop_
_atom_site_label
_atom_site_type_symbol
_atom_site_fract_x
_atom_site_fract_y
_atom_site_fract_z
O1	O	1.388364	0.078564	0.048312
O2	O	1.084928	0.085706	0.017201
O3	O	1.245822	-0.000711	0.033720
O4	O	1.227470	0.164982	0.031792
O5	O	1.232407	0.006483	0.220350
O6	O	1.071513	0.092901	0.203831
O7	O	1.374949	0.085758	0.234942
Zn8	Zn	1.221101	0.090472	0.249018
Zn9	Zn	1.238776	0.080993	0.003125
O10	O	1.214056	0.172176	0.218422
C11	C	1.039407	0.088683	0.106537
C12	C	0.923757	0.086827	0.094680
C13	C	0.691813	0.091172	0.275888
C14	C	0.583149	0.089427	0.264754
C15	C	0.597765	0.081590	0.061278
C16	C	0.706428	0.083334	0.072413
C17	C	0.753448	0.088126	0.179721
C18	C	0.862113	0.089874	0.190854
C19	C	0.876728	0.082033	-0.012620
C20	C	0.768064	0.080289	-0.023754
C21	C	1.238655	-0.018335	0.126992
C22	C	1.237274	-0.081566	0.126861
C23	C	1.235925	-0.477583	0.024180
C24	C	1.234613	-0.536995	0.024039
O25	O	1.240118	-0.571053	-0.062554
N26	N	1.226650	-0.562791	0.125703
C27	C	1.219988	-0.529171	0.227513
O28	O	1.213093	-0.556567	0.313973
C29	C	1.221292	-0.469759	0.227652
C30	C	1.229266	-0.443967	0.125982
C31	C	1.243897	-0.451790	-0.077482
C32	C	1.245211	-0.392383	-0.077340
C33	C	1.238552	-0.358767	0.024463
C34	C	1.230580	-0.384559	0.126124
C35	C	1.214622	-0.436140	0.329461
C36	C	1.215927	-0.376724	0.329591
C37	C	1.223901	-0.350932	0.227921
C38	C	1.225235	-0.291536	0.228069
N39	N	1.233198	-0.265740	0.126405
C40	C	1.239856	-0.299356	0.024602
C41	C	1.217248	-0.653939	0.227213
C42	C	1.215951	-0.713349	0.227076
C43	C	1.230574	-0.721170	0.023601
C44	C	1.231879	-0.661758	0.023740
C45	C	1.225211	-0.628143	0.125549
C46	C	1.242615	-0.174595	0.024907
C47	C	1.243933	-0.115181	0.025058
C48	C	1.229303	-0.107366	0.228531
C49	C	1.227992	-0.166775	0.228382
C50	C	1.234645	-0.200387	0.126560
O51	O	1.219729	-0.257442	0.314616
O52	O	1.246736	-0.271950	-0.061845
C53	C	1.420470	0.082782	0.145603
C54	C	1.536121	0.084638	0.157452
C55	C	1.221222	0.189799	0.125148
C56	C	1.222604	0.253030	0.125272
N57	N	1.209046	0.096940	0.416834
N58	N	1.250839	0.074520	-0.164691
C59	C	1.334723	0.029476	0.666386
C60	C	1.326304	0.034002	0.783863
C61	C	1.183786	0.110514	0.769268
C62	C	1.192204	0.105988	0.651791
C63	C	1.267677	0.065469	0.600354
C64	C	1.276100	0.060946	0.482875
C65	C	1.133577	0.137455	0.468282
C66	C	1.125158	0.141981	0.585759
H67	H	0.532968	0.091911	0.343063
Br68	Br	1.203796	-0.471127	0.467450
Br69	Br	0.704247	0.073763	-0.169379
H70	H	1.221508	-0.187776	0.311170
Br71	Br	0.755629	0.097685	0.421515
H72	H	1.380899	0.004693	0.837623
Br73	Br	0.960378	0.077913	-0.143141
H74	H	1.078986	0.166764	0.414505
Br75	Br	1.242701	-0.626761	-0.114244
Br76	Br	1.256026	-0.357388	-0.215329
H77	H	1.210481	-0.349356	0.412496
Br78	Br	0.925925	0.096381	0.336485
Br79	Br	1.378529	0.005959	0.413069
H80	H	1.250429	-0.094185	-0.057737
Br81	Br	1.220270	-0.061734	0.366686
Br82	Br	1.022731	0.196967	0.655573
H83	H	1.235993	-0.748550	-0.059293
H84	H	1.211821	-0.626572	0.310124
H85	H	0.559464	0.077679	-0.026087
Br86	Br	1.251644	-0.220203	-0.113281
Br87	Br	1.081351	0.165494	0.839085
Br88	Br	1.252935	-0.497401	-0.215662
Br89	Br	1.205154	-0.748347	0.365064
H90	H	1.396182	-0.003513	0.624506
