data_functionalizedCrystal
_audit_creation_method	'MofGen! by Chris Wilmer'
_symmetry_space_group_name_H-M	'P1'
_symmetry_Int_Tables_number	1
_symmetry_cell_setting	triclinic
loop_
_symmetry_equiv_pos_as_xyz
  x,y,z
_cell_length_a	16.992694
_cell_length_b	14.853559
_cell_length_c	16.053802
_cell_angle_alpha	92.571272
_cell_angle_beta	87.249047
_cell_angle_gamma	87.149838
loop_
_atom_site_label
_atom_site_type_symbol
_atom_site_fract_x
_atom_site_fract_y
_atom_site_fract_z
O1	O	1.043893	0.187627	-0.069318
O2	O	0.815607	0.185528	-0.069343
O3	O	0.935851	0.055778	-0.069329
O4	O	0.923649	0.317377	-0.069332
O5	O	0.929233	0.062888	0.069529
O6	O	0.808988	0.192638	0.069516
O7	O	1.037275	0.194737	0.069540
Zn8	Zn	0.922081	0.194817	0.091575
Zn9	Zn	0.930801	0.185448	-0.091377
O10	O	0.917030	0.324487	0.069526
C11	C	0.783082	0.186385	0.000083
C12	C	0.696030	0.178334	0.000074
C13	C	0.931990	0.025705	0.000099
C14	C	0.930337	-0.074496	0.000094
C15	C	0.645872	0.256009	0.000074
C16	C	0.564077	0.248440	0.000085
C17	C	0.532442	0.163195	0.000091
C18	C	0.582606	0.085514	0.000094
C19	C	0.664399	0.093084	0.000088
C20	C	0.288809	0.131820	0.000114
C21	C	0.207010	0.124255	0.000117
C22	C	0.188486	0.287183	0.000110
C23	C	0.270282	0.294745	0.000099
C24	C	0.320439	0.217064	0.000106
N25	N	0.448834	0.155456	0.000100
N26	N	0.404045	0.224804	0.000103
C27	C	0.926931	-0.502042	-0.075599
C28	C	0.919715	-0.494285	0.075790
C29	C	0.921275	-0.400141	0.075791
C30	C	0.925662	-0.356944	0.000096
C31	C	0.928489	-0.407890	-0.075600
C32	C	0.918440	-0.349188	0.151485
C33	C	0.919999	-0.255038	0.151489
C34	C	0.924392	-0.211840	0.075793
C35	C	0.927220	-0.262792	0.000094
C36	C	0.931607	-0.219594	-0.075600
C37	C	0.934440	-0.270545	-0.151300
C38	C	0.932882	-0.364691	-0.151296
C39	C	0.925951	-0.117693	0.075789
C40	C	0.933164	-0.125442	-0.075602
C41	C	1.069799	0.193880	0.000113
C42	C	1.156852	0.201931	0.000117
C43	C	0.920891	0.354560	0.000097
C44	C	0.922544	0.454760	0.000096
N45	N	0.916135	0.201210	0.216434
N46	N	0.936753	0.179048	-0.216237
C47	C	0.967318	0.146023	0.260134
C48	C	0.963166	0.150505	0.347540
C49	C	0.907835	0.210178	0.391245
C50	C	0.856646	0.265367	0.347539
C51	C	0.860795	0.260880	0.260135
C52	C	0.889713	0.229750	0.652653
C53	C	0.885570	0.234235	0.740064
C54	C	0.992089	0.119371	0.740059
C55	C	0.996236	0.114894	0.652652
C56	C	0.945045	0.170079	0.608954
N57	N	0.903591	0.214762	0.480589
N58	N	0.949285	0.165490	0.519612
H59	H	0.523241	0.311692	0.000084
H60	H	1.012378	0.097435	0.224555
H61	H	0.914865	-0.384366	0.213112
O62	O	0.718498	0.009302	0.000093
H63	H	0.780688	0.028887	0.000099
O64	O	0.172890	0.032305	0.000134
H65	H	0.107588	0.040095	0.000129
O66	O	0.342903	0.048039	0.000121
H67	H	0.307161	-0.012506	0.000119
H68	H	0.917695	-0.213562	0.213129
O69	O	0.937887	-0.078854	-0.157248
H70	H	0.992720	-0.102974	-0.193543
H71	H	0.923626	-0.076212	0.137423
O72	O	1.018369	0.090986	0.394681
H73	H	1.054616	0.133762	0.434500
H74	H	0.819115	0.305818	0.224555
O75	O	1.055908	0.050524	0.605513
H76	H	1.090797	0.012894	0.650585
H77	H	0.938006	-0.235361	-0.212931
O78	O	0.134391	0.370966	0.000120
H79	H	0.072199	0.351386	0.000134
H80	H	1.033766	0.074441	0.775646
O81	O	0.935925	-0.419640	-0.232939
H82	H	0.934092	-0.492362	-0.220219
H83	H	0.296034	0.364161	0.000085
O84	O	0.929981	-0.556985	-0.157245
H85	H	0.928157	-0.629710	-0.144533
O86	O	0.825879	0.298588	0.787208
H87	H	0.790972	0.336200	0.742139
H88	H	0.811590	0.313951	0.383129
O89	O	0.834507	0.289275	0.605527
H90	H	0.843782	0.361148	0.622289
H91	H	0.671623	0.325426	0.000068
H92	H	0.916139	-0.529462	0.137417
O93	O	0.548491	-0.006433	0.000103
H94	H	0.483188	0.001350	0.000099
