data_functionalizedCrystal
_audit_creation_method	'MofGen! by Chris Wilmer'
_symmetry_space_group_name_H-M	'P1'
_symmetry_Int_Tables_number	1
_symmetry_cell_setting	triclinic
loop_
_symmetry_equiv_pos_as_xyz
  x,y,z
_cell_length_a	19.288864
_cell_length_b	15.021413
_cell_length_c	19.288865
_cell_angle_alpha	89.996202
_cell_angle_beta	96.863755
_cell_angle_gamma	90.007021
loop_
_atom_site_label
_atom_site_type_symbol
_atom_site_fract_x
_atom_site_fract_y
_atom_site_fract_z
O1	O	0.921337	0.074328	-0.086643
O2	O	0.719077	0.074268	-0.098331
O3	O	0.826051	0.074282	0.008643
O4	O	0.814363	0.074314	-0.193617
O5	O	0.826064	-0.073782	0.008637
O6	O	0.719089	-0.073796	-0.098338
O7	O	0.921350	-0.073737	-0.086649
Zn8	Zn	0.820222	-0.097275	-0.092495
Zn9	Zn	0.820205	0.097806	-0.092486
O10	O	0.814375	-0.073750	-0.193624
C11	C	0.693207	0.000228	-0.097959
C12	C	0.616103	0.000205	-0.096830
C13	C	0.571407	0.000229	-0.159598
C14	C	0.498960	0.000238	-0.158537
C15	C	0.471212	0.000242	-0.094705
C16	C	0.515918	0.000213	-0.031929
C17	C	0.588364	0.000194	-0.032991
C18	C	0.362946	0.052137	-0.044523
C19	C	0.290501	0.052161	-0.043463
C20	C	0.247766	0.000295	-0.091425
C21	C	0.277484	-0.051584	-0.140458
C22	C	0.349929	-0.051602	-0.141521
C23	C	0.392658	0.000262	-0.093546
C24	C	0.124514	0.000328	-0.153047
C25	C	0.052066	0.000333	-0.151984
C26	C	0.069026	0.000316	-0.025374
C27	C	0.141473	0.000303	-0.026439
C28	C	0.169212	0.000313	-0.090278
N29	N	0.820238	-0.230412	-0.092500
C30	C	0.869713	-0.470065	-0.043024
C31	C	0.806992	-0.529416	-0.029730
C32	C	0.820222	-0.412019	-0.092492
C33	C	0.882927	-0.529411	-0.105744
C34	C	0.820212	-0.587443	-0.092482
C35	C	0.757469	-0.470063	-0.079167
C36	C	0.833446	-0.470053	-0.155208
C37	C	0.770680	-0.529376	-0.141941
C38	C	0.820228	-0.310962	-0.092495
C39	C	0.820198	-0.688498	-0.092478
C40	C	0.947220	0.000305	-0.087022
C41	C	1.024324	0.000335	-0.088151
C42	C	0.825682	0.000247	0.034516
C43	C	0.824553	0.000239	0.111620
N44	N	0.820194	0.230944	-0.092475
C45	C	0.814745	0.000286	-0.219497
C46	C	0.815874	0.000300	-0.296601
C47	C	0.887320	0.000253	0.156316
C48	C	0.886260	0.000267	0.228763
C49	C	0.822428	0.000249	0.256511
C50	C	0.759652	0.000240	0.211805
C51	C	0.760714	0.000235	0.139359
C52	C	0.772252	-0.051630	0.364796
C53	C	0.771193	-0.051630	0.437240
C54	C	0.819148	0.000268	0.479956
C55	C	0.868175	0.052155	0.450221
C56	C	0.869238	0.052150	0.377775
C57	C	0.821269	0.000254	0.335065
C58	C	0.880770	0.000298	0.603209
C59	C	0.879707	0.000317	0.675657
C60	C	0.753097	0.000281	0.658697
C61	C	0.754162	0.000271	0.586250
C62	C	0.818000	0.000275	0.558511
H63	H	0.242690	-0.093819	-0.179513
O64	O	0.601328	0.000214	-0.228448
H65	H	0.558071	0.000219	-0.271917
O66	O	0.189685	0.000281	0.041263
H67	H	0.223117	0.060616	0.043810
H68	H	0.046435	0.000374	0.026600
O69	O	0.715175	-0.563674	-0.197343
H70	H	0.687346	-0.506559	-0.224529
H71	H	0.844660	-0.443958	-0.208233
O72	O	0.687205	-0.435681	-0.064230
H73	H	0.652285	-0.492759	-0.056831
O74	O	0.450737	0.000274	-0.226238
H75	H	0.482198	0.000284	-0.270807
H76	H	0.935960	-0.555480	-0.116958
H77	H	0.147101	0.000324	-0.205028
O78	O	0.956171	0.000283	0.126395
H79	H	0.999640	0.000308	0.169652
O80	O	0.409041	0.108079	0.007209
H81	H	0.394201	0.179193	0.000240
H82	H	0.266311	0.094408	-0.003540
O83	O	0.485997	0.000217	0.036921
H84	H	0.428112	0.000243	0.027116
O85	O	0.953961	0.000270	0.276986
H86	H	0.998530	0.000265	0.245525
H87	H	0.909156	0.094400	0.353567
O88	O	0.003852	0.000355	-0.219686
H89	H	0.035315	0.000366	-0.264252
H90	H	0.907225	0.094416	0.484999
O91	O	0.636579	0.000173	0.034711
H92	H	0.605117	0.000179	0.079278
H93	H	0.911522	-0.444022	-0.001168
O94	O	0.792163	-0.563975	0.040523
H95	H	0.833319	-0.540232	0.081495
H96	H	0.932751	0.000305	0.580622
O97	O	0.947409	0.000325	0.723871
H98	H	0.991975	0.000316	0.692408
H99	H	0.701123	0.000270	0.681288
H100	H	0.703049	0.000254	0.549857
H101	H	0.731269	-0.093875	0.461445
H102	H	0.733200	-0.093896	0.330022
H103	H	0.709599	0.000223	0.102967
O104	O	0.381988	-0.107589	-0.194376
H105	H	0.340108	-0.143671	-0.227541
O106	O	0.690801	0.000210	0.241726
H107	H	0.700607	0.000203	0.299611
