data_functionalizedCrystal
_audit_creation_method	'MofGen! by Chris Wilmer'
_symmetry_space_group_name_H-M	'P1'
_symmetry_Int_Tables_number	1
_symmetry_cell_setting	triclinic
loop_
_symmetry_equiv_pos_as_xyz
  x,y,z
_cell_length_a	19.188930
_cell_length_b	14.472310
_cell_length_c	15.995350
_cell_angle_alpha	90.001162
_cell_angle_beta	83.318578
_cell_angle_gamma	89.973109
loop_
_atom_site_label
_atom_site_type_symbol
_atom_site_fract_x
_atom_site_fract_y
_atom_site_fract_z
O1	O	0.926420	-0.077134	0.104528
O2	O	1.426420	0.422866	0.604528
O3	O	0.723145	-0.077070	0.118600
O4	O	1.223145	0.422930	0.618600
O5	O	0.830339	-0.077103	-0.010344
O6	O	1.330339	0.422897	0.489656
O7	O	0.819226	-0.077101	0.233472
O8	O	1.319226	0.422899	0.733472
O9	O	0.830312	0.076580	-0.010337
O10	O	1.330312	0.576580	0.489663
O11	O	0.723117	0.076612	0.118607
O12	O	1.223117	0.576612	0.618607
O13	O	0.926393	0.076548	0.104535
O14	O	1.426393	0.576548	0.604535
Cu15	Cu	0.824752	0.090613	0.111572
Cu16	Cu	1.324752	0.590613	0.611572
Cu17	Cu	0.824785	-0.091134	0.111563
Cu18	Cu	1.324785	0.408866	0.611563
O19	O	0.819198	0.076581	0.233479
O20	O	1.319198	0.576581	0.733479
C21	C	0.697119	-0.000221	0.118148
C22	C	1.197119	0.499779	0.618148
C23	C	0.619611	-0.000196	0.116780
C24	C	1.119611	0.499804	0.616780
N25	N	0.824735	0.218444	0.111578
N26	N	1.324735	0.718444	0.611578
N27	N	0.824808	-0.218965	0.111551
N28	N	1.324808	0.281035	0.611551
C29	C	0.574880	-0.000210	0.192440
C30	C	1.074880	0.499790	0.692440
C31	C	0.502052	-0.000220	0.191155
C32	C	1.002052	0.499780	0.691155
C33	C	0.473960	-0.000235	0.114205
C34	C	0.973960	0.499765	0.614205
C35	C	0.518701	-0.000216	0.038535
C36	C	1.018701	0.499784	0.538535
C37	C	0.591526	-0.000197	0.039823
C38	C	1.091526	0.499803	0.539823
N39	N	0.365839	-0.052577	0.055384
N40	N	0.865839	0.447423	0.555384
N41	N	0.296658	-0.052598	0.054167
N42	N	0.796658	0.447402	0.554167
C43	C	0.254541	-0.000292	0.110322
C44	C	0.754541	0.499708	0.610322
N45	N	0.284219	0.052024	0.167754
N46	N	0.784219	0.552024	0.667754
N47	N	0.353407	0.052040	0.168974
N48	N	0.853407	0.552040	0.668974
C49	C	0.394994	-0.000256	0.112801
C50	C	0.894994	0.499744	0.612801
C51	C	0.130842	-0.000315	0.184594
C52	C	0.630842	0.499685	0.684594
C53	C	0.058014	-0.000320	0.183306
C54	C	0.558014	0.499680	0.683306
C55	C	0.074664	-0.000325	0.030684
C56	C	0.574664	0.499675	0.530684
C57	C	0.147491	-0.000311	0.031974
C58	C	0.647491	0.499689	0.531974
C59	C	0.175575	-0.000311	0.108932
C60	C	0.675575	0.499689	0.608932
C61	C	0.952419	-0.000303	0.104987
C62	C	1.452419	0.499697	0.604987
C63	C	1.029927	-0.000333	0.106355
C64	C	1.529927	0.499667	0.606355
C65	C	0.829866	-0.000263	-0.041533
C66	C	1.329866	0.499737	0.458467
C67	C	0.828489	-0.000268	-0.134479
C68	C	1.328489	0.499732	0.365521
C69	C	0.824784	0.592535	0.111560
C70	C	1.324784	1.092535	0.611560
C71	C	0.767234	0.553387	0.180325
C72	C	1.267234	1.053387	0.680325
C73	C	0.767367	0.446299	0.180575
C74	C	1.267367	0.946299	0.680575
C75	C	0.824759	0.406944	0.111569
C76	C	1.324759	0.906944	0.611569
C77	C	0.897609	0.445758	0.130384
C78	C	1.397609	0.945758	0.630384
C79	C	0.897286	0.552880	0.130872
C80	C	1.397286	1.052880	0.630872
C81	C	0.810134	0.553069	0.023774
C82	C	1.310134	1.053069	0.523774
C83	C	0.808463	0.445943	0.024366
C84	C	1.308463	0.945943	0.524366
C85	C	0.824749	0.302056	0.111572
C86	C	1.324749	0.802056	0.611572
C87	C	0.824799	0.697423	0.111558
C88	C	1.324799	1.197423	0.611558
C89	C	0.823542	-0.000263	-0.472208
C90	C	1.323542	0.499737	0.027792
C91	C	0.747200	-0.000584	-0.424495
C92	C	1.247200	0.499416	0.075505
C93	C	0.748578	-0.000238	-0.327809
C94	C	1.248578	0.499762	0.172191
C95	C	0.825996	-0.000266	-0.304657
C96	C	1.325996	0.499734	0.195343
C97	C	0.863634	0.087480	-0.345868
C98	C	1.363634	0.587480	0.154132
C99	C	0.861717	0.087555	-0.442496
C100	C	1.361717	0.587555	0.057504
C101	C	0.863325	-0.087211	-0.442869
C102	C	1.363325	0.412789	0.057131
C103	C	0.863307	-0.088371	-0.345924
C104	C	1.363307	0.411629	0.154076
C105	C	0.827386	-0.000265	-0.209964
C106	C	1.327386	0.499735	0.290036
C107	C	0.822153	-0.000259	-0.566901
C108	C	1.322153	0.499741	-0.066901
C109	C	0.819671	-0.000260	0.264669
C110	C	1.319671	0.499740	0.764669
C111	C	0.821049	-0.000261	0.357614
C112	C	1.321049	0.499739	0.857614
H113	H	0.597741	-0.000212	0.255105
H114	H	1.097741	0.499788	0.755105
H115	H	0.834247	0.153166	-0.460694
H116	H	1.334247	0.653166	0.039306
Cl117	Cl	0.683749	0.405784	0.163383
Cl118	Cl	1.183749	0.905784	0.663383
Cl119	Cl	0.948248	0.093684	-0.492605
Cl120	Cl	1.448248	0.593684	0.007395
Cl121	Cl	0.445808	-0.000236	0.286278
Cl122	Cl	0.945808	0.499764	0.786278
Cl123	Cl	0.951448	0.092493	-0.324382
Cl124	Cl	1.451448	0.592493	0.175618
H125	H	0.910828	0.418916	0.193666
H126	H	1.410828	0.918916	0.693666
Cl127	Cl	0.483386	-0.000229	-0.058201
Cl128	Cl	0.983386	0.499771	0.441799
Cl129	Cl	0.702896	-0.097349	-0.283761
Cl130	Cl	1.202896	0.402651	0.216239
H131	H	0.758165	0.580154	0.005616
H132	H	1.258165	1.080154	0.505616
Cl133	Cl	0.824800	-0.189895	-0.474431
Cl134	Cl	1.324800	0.310105	0.025569
H135	H	0.716698	-0.063507	-0.442918
H136	H	1.216698	0.436493	0.057082
Cl137	Cl	0.917216	0.591437	0.229704
Cl138	Cl	1.417216	1.091437	0.729704
Cl139	Cl	0.821169	-0.188608	-0.303215
Cl140	Cl	1.321169	0.311392	0.196785
Cl141	Cl	0.203728	-0.000299	-0.063147
Cl142	Cl	0.703728	0.499701	0.436853
H143	H	0.847657	0.419157	-0.029183
H144	H	1.347657	0.919157	0.470817
H145	H	0.919764	-0.093690	-0.330769
H146	H	1.419764	0.406310	0.169231
Cl147	Cl	0.725725	0.406782	0.002307
Cl148	Cl	1.225725	0.906782	0.502307
H149	H	0.837470	0.152798	-0.317387
H150	H	1.337470	0.652798	0.182613
Cl151	Cl	0.647763	-0.000180	-0.055301
Cl152	Cl	1.147763	0.499820	0.444699
Cl153	Cl	0.950226	-0.088157	-0.492225
Cl154	Cl	1.450226	0.411843	0.007775
H155	H	0.153710	-0.000302	0.247257
H156	H	0.653710	0.499698	0.747257
H157	H	0.021594	-0.000326	0.244920
H158	H	0.521594	0.499674	0.744920
H159	H	0.941457	0.420261	0.081620
H160	H	1.441457	0.920261	0.581620
Cl161	Cl	0.874928	0.592152	-0.055229
Cl162	Cl	1.374928	1.092152	0.444771
Cl163	Cl	0.700151	0.095768	-0.454926
Cl164	Cl	1.200151	0.595768	0.045074
H165	H	0.718768	0.062787	-0.299832
H166	H	1.218768	0.562787	0.200168
H167	H	0.712908	0.579192	0.169342
H168	H	1.212908	1.079192	0.669342
Cl169	Cl	0.039355	-0.000332	-0.066054
Cl170	Cl	0.539355	0.499668	0.433946
H171	H	0.776460	0.580293	0.245109
H172	H	1.276460	1.080293	0.745109
Cl173	Cl	0.781783	0.406709	0.281171
Cl174	Cl	1.281783	0.906709	0.781171
H175	H	0.941448	0.578772	0.082747
H176	H	1.441448	1.078772	0.582747
