data_functionalizedCrystal
_audit_creation_method	'MofGen! by Chris Wilmer'
_symmetry_space_group_name_H-M	'P1'
_symmetry_Int_Tables_number	1
_symmetry_cell_setting	triclinic
loop_
_symmetry_equiv_pos_as_xyz
  x,y,z
_cell_length_a	16.793024
_cell_length_b	16.793047
_cell_length_c	33.586455
_cell_angle_alpha	113.253857
_cell_angle_beta	66.219990
_cell_angle_gamma	112.758327
loop_
_atom_site_label
_atom_site_type_symbol
_atom_site_fract_x
_atom_site_fract_y
_atom_site_fract_z
O1	O	0.005016	-0.570216	-0.583573
O2	O	-0.034529	-0.474528	-0.453458
O3	O	0.114723	-0.474535	-0.528082
O4	O	-0.144235	-0.570209	-0.508949
O5	O	0.108729	-0.346329	-0.530229
O6	O	-0.040523	-0.346322	-0.455605
O7	O	-0.000977	-0.442010	-0.585721
Zn8	Zn	-0.021701	-0.373810	-0.521004
Zn9	Zn	-0.013805	-0.542728	-0.518175
O10	O	-0.150229	-0.442003	-0.511097
C11	C	0.005100	-0.790970	-0.238461
C12	C	0.009223	-0.693065	-0.217557
C13	C	0.003804	-0.645758	-0.241627
C14	C	-0.075059	-0.538459	-0.266316
C15	C	0.049838	-0.422849	-0.250165
C16	C	-0.040584	-0.395375	-0.435637
C17	C	-0.044693	-0.353446	-0.386631
C18	C	-0.039275	-0.401741	-0.363054
C19	C	-0.040566	-0.125547	-0.300731
C20	C	-0.044689	-0.223451	-0.321635
C21	C	-0.039266	-0.270752	-0.297563
C22	C	0.039597	-0.378051	-0.272874
C23	C	-0.085304	-0.493667	-0.289026
C24	C	0.005118	-0.521142	-0.103554
C25	C	0.009231	-0.563064	-0.152559
C26	C	0.003809	-0.514775	-0.176138
C27	C	0.010758	-0.652581	-0.172822
C28	C	0.001010	-0.556371	-0.220792
C29	C	-0.008251	-0.506059	-0.245823
C30	C	-0.046224	-0.263935	-0.366370
C31	C	-0.036476	-0.360146	-0.318399
C32	C	-0.027211	-0.410451	-0.293367
C33	C	0.815184	-0.521162	-0.508596
C34	C	0.415541	-0.125553	-0.528781
C35	C	0.375032	-0.223457	-0.531493
C36	C	0.423813	-0.270761	-0.529101
C37	C	0.149318	-0.395376	-0.530584
C38	C	0.246774	-0.353455	-0.532364
C39	C	0.294574	-0.401748	-0.529976
C40	C	0.548961	-0.790984	-0.510398
C41	C	0.286104	-0.263940	-0.532530
C42	C	0.383336	-0.360149	-0.528302
C43	C	0.432207	-0.407971	-0.525810
C44	C	0.392316	-0.497392	-0.524993
C45	C	0.303554	-0.538991	-0.526667
C46	C	0.254683	-0.491169	-0.529159
C47	C	0.263666	-0.628421	-0.525851
C48	C	0.312537	-0.676243	-0.523359
C49	C	0.401299	-0.634644	-0.521685
C50	C	0.441190	-0.545223	-0.522502
C51	C	0.529952	-0.503624	-0.520828
C52	C	0.578823	-0.551446	-0.518336
C53	C	0.538939	-0.640864	-0.517520
C54	C	0.450177	-0.682463	-0.519194
C55	C	0.587810	-0.688687	-0.515028
C56	C	0.676572	-0.647088	-0.513354
C57	C	0.716463	-0.557666	-0.514172
C58	C	0.667586	-0.509847	-0.516662
C59	C	0.569840	-0.414195	-0.521644
C60	C	0.658602	-0.372596	-0.519970
C61	C	0.707476	-0.420426	-0.517480
C62	C	0.698493	-0.283174	-0.520788
C63	C	0.649622	-0.235352	-0.523280
C64	C	0.560860	-0.276951	-0.524954
C65	C	0.520969	-0.366372	-0.524136
C66	C	0.511989	-0.229129	-0.527446
C67	C	-0.040530	-0.395407	-0.935652
C68	C	0.005063	-0.791004	-0.738448
C69	C	0.009186	-0.693099	-0.717543
C70	C	0.003779	-0.645796	-0.741620
C71	C	0.005077	-0.521171	-0.603544
C72	C	0.009198	-0.563096	-0.652550
C73	C	0.003786	-0.514804	-0.676131
C74	C	-0.040516	-0.125574	-0.800747
C75	C	0.010719	-0.652613	-0.672809
C76	C	0.000994	-0.556406	-0.720789
C77	C	-0.004621	-0.508585	-0.744908
C78	C	-0.007444	-0.419162	-0.724369
C79	C	-0.004651	-0.377560	-0.679711
C80	C	0.000964	-0.425381	-0.655592
C81	C	-0.007471	-0.288129	-0.659174
C82	C	-0.013086	-0.240308	-0.683293
C83	C	-0.015878	-0.281910	-0.727951
C84	C	-0.013056	-0.371333	-0.748490
C85	C	-0.015848	-0.412935	-0.793148
C86	C	-0.021463	-0.365114	-0.817267
C87	C	-0.024282	-0.275694	-0.796731
C88	C	-0.021490	-0.234092	-0.752073
C89	C	-0.029897	-0.227873	-0.820850
C90	C	-0.032690	-0.269476	-0.865508
C91	C	-0.029867	-0.358899	-0.886047
C92	C	-0.024255	-0.406717	-0.861925
C93	C	-0.013028	-0.502367	-0.813685
C94	C	-0.015821	-0.543969	-0.858343
C95	C	-0.021433	-0.496140	-0.882464
C96	C	-0.012998	-0.633392	-0.878882
C97	C	-0.007383	-0.681213	-0.854763
C98	C	-0.004591	-0.639611	-0.810105
C99	C	-0.007414	-0.550188	-0.789566
C100	C	0.001024	-0.687432	-0.785986
O101	O	-0.000965	0.173549	-0.277957
O102	O	-0.040516	-0.085616	-0.325254
O103	O	0.108737	0.059592	-0.327284
O104	O	-0.150219	0.028341	-0.275927
O105	O	0.114753	0.055151	-0.263265
O106	O	-0.034500	-0.090057	-0.261234
O107	O	0.005051	0.169108	-0.213937
Zn108	Zn	-0.013769	0.038820	-0.227421
Zn109	Zn	-0.021696	0.044672	-0.311770
O110	O	-0.144202	0.023900	-0.211907
O111	O	-0.034458	-0.474571	0.046517
O112	O	0.005076	-0.570190	-0.083599
O113	O	-0.144170	-0.570237	-0.008972
O114	O	0.114787	-0.474523	-0.028110
O115	O	-0.150200	-0.442024	-0.011093
O116	O	-0.000954	-0.441976	-0.085720
O117	O	-0.040488	-0.346357	0.044396
Zn118	Zn	-0.021679	-0.373810	-0.020999
Zn119	Zn	-0.013734	-0.542737	-0.018204
O120	O	0.108757	-0.346309	-0.030231
C121	C	-0.850734	0.086244	-0.289716
C122	C	-0.753280	0.087165	-0.312001
C123	C	-0.705462	0.081107	-0.288506
C124	C	-0.599592	0.000085	-0.264184
C125	C	-0.481080	0.121287	-0.283645
C126	C	-0.450996	0.035117	-0.097351
C127	C	-0.410501	0.028587	-0.146852
C128	C	-0.459292	0.034683	-0.169840
C129	C	-0.184802	0.024283	-0.235878
C130	C	-0.282257	0.023363	-0.213592
C131	C	-0.330068	0.029423	-0.237088
C132	C	-0.435938	0.110445	-0.261411
C133	C	-0.554456	-0.010759	-0.241948
C134	C	-0.584541	0.075410	-0.428242
C135	C	-0.625029	0.081943	-0.378743
C136	C	-0.576244	0.075844	-0.355753
C137	C	-0.713963	0.086424	-0.357292
C138	C	-0.616708	0.075351	-0.310510
C139	C	-0.565963	0.065400	-0.286043
C140	C	-0.321573	0.024104	-0.168302
C141	C	-0.418828	0.035176	-0.215083
C142	C	-0.469568	0.045131	-0.239552
O143	O	0.585213	0.169090	-0.504004
O144	O	0.494056	-0.090076	-0.525516
O145	O	0.488081	0.055124	-0.449918
O146	O	0.591189	0.023889	-0.579602
O147	O	0.359978	0.059584	-0.452885
O148	O	0.365953	-0.085616	-0.528483
O149	O	0.457110	0.173550	-0.506971
Zn150	Zn	0.391193	0.044675	-0.518198
Zn151	Zn	0.559974	0.038798	-0.514289
O152	O	0.463086	0.028349	-0.582569
C153	C	0.815354	-0.521094	-0.008709
C154	C	0.717898	-0.563028	-0.006927
C155	C	0.670072	-0.514739	-0.009298
C156	C	0.564182	-0.463204	-0.048354
C157	C	0.445681	-0.498945	0.013847
C158	C	0.415547	-0.125494	-0.028771
C159	C	0.375059	-0.223405	-0.031498
C160	C	0.423859	-0.270708	-0.029121
C161	C	0.149365	-0.395355	-0.030599
C162	C	0.246820	-0.353421	-0.032381
C163	C	0.294640	-0.401713	-0.030008
C164	C	0.400530	-0.453248	0.009048
C165	C	0.519038	-0.417504	-0.053155
C166	C	0.549171	-0.790955	-0.010537
C167	C	0.589653	-0.693047	-0.007809
C168	C	0.540859	-0.645741	-0.010187
C169	C	0.678588	-0.652551	-0.006775
C170	C	0.581317	-0.556344	-0.010973
C171	C	0.530562	-0.506029	-0.015250
C172	C	0.286131	-0.263897	-0.032533
C173	C	0.383402	-0.360104	-0.028335
C174	C	0.434150	-0.410423	-0.024057
O175	O	-0.620614	0.089309	0.052274
O176	O	-0.529507	0.043784	-0.078544
O177	O	-0.523494	0.194833	-0.006033
O178	O	-0.626628	-0.061740	-0.020236
O179	O	-0.395386	0.185419	-0.005549
O180	O	-0.401400	0.034370	-0.078059
O181	O	-0.492507	0.079895	0.052758
Zn182	Zn	-0.426614	0.055638	-0.012574
Zn183	Zn	-0.595401	0.068041	-0.013212
O184	O	-0.498521	-0.071154	-0.019752
C185	C	-0.437537	0.048335	0.402491
C186	C	-0.397043	0.041789	0.352989
C187	C	-0.445822	0.047883	0.329994
C188	C	-0.496646	0.126653	0.277022
C189	C	-0.465894	-0.000633	0.218811
C190	C	-0.837226	0.099430	0.210091
C191	C	-0.739773	0.100339	0.187806
C192	C	-0.691967	0.094287	0.211308
C193	C	-0.571027	0.088563	0.071568
C194	C	-0.611521	0.095108	0.121070
C195	C	-0.562739	0.089011	0.144061
C196	C	-0.511915	0.010241	0.197033
C197	C	-0.542670	0.137531	0.255247
C198	C	-0.171338	0.037467	0.263967
C199	C	-0.268788	0.036555	0.286249
C200	C	-0.316597	0.042611	0.262750
C201	C	-0.308112	0.037305	0.331542
C202	C	-0.405351	0.048369	0.284750
C203	C	-0.456092	0.058317	0.260279
C204	C	-0.700452	0.099593	0.142516
C205	C	-0.603213	0.088528	0.189308
C206	C	-0.552469	0.078578	0.213776
O207	O	-0.040608	-1.085661	-0.825229
O208	O	-0.001018	-0.826491	-0.777938
O209	O	-0.150287	-0.971682	-0.775894
O210	O	0.108661	-0.940470	-0.827272
O211	O	-0.144253	-0.976123	-0.711878
O212	O	0.005016	-0.830932	-0.713922
O213	O	-0.034575	-1.090102	-0.761213
Zn214	Zn	-0.013821	-0.961222	-0.727403
Zn215	Zn	-0.021771	-0.955371	-0.811747
O216	O	0.114695	-0.944911	-0.763256
O217	O	-0.036862	-0.230384	-0.253947
C218	C	-0.113095	-0.156247	-0.177817
C219	C	-0.115936	-0.201960	-0.227192
H220	H	-0.177010	-0.133236	-0.156173
H221	H	-0.108751	-0.206109	-0.164063
H222	H	-0.051377	-0.095492	-0.176669
H223	H	-0.177648	-0.262709	-0.228380
H224	H	-0.120232	-0.152039	-0.240925
H225	H	-0.434254	-0.059305	0.203012
O226	O	-0.036588	-0.488963	-0.383247
C227	C	0.047267	-0.596536	-0.407015
C228	C	0.044330	-0.497733	-0.384127
H229	H	0.112692	-0.603656	-0.407743
H230	H	-0.012938	-0.641349	-0.387091
H231	H	0.044244	-0.617739	-0.443189
H232	H	0.047380	-0.476446	-0.347954
H233	H	0.104528	-0.452978	-0.404086
H234	H	0.682238	-0.162236	-0.523943
H235	H	0.496488	-0.236853	-0.027824
O236	O	-0.015740	-0.674113	-0.922434
C237	C	-0.015038	-0.809651	-0.984825
C238	C	-0.011947	-0.763651	-0.935497
H239	H	-0.011953	-0.882044	-0.995405
H240	H	-0.080496	-0.809444	-0.987511
H241	H	0.045118	-0.771489	-1.008088
H242	H	-0.072057	-0.801776	-0.912204
H243	H	0.053550	-0.763847	-0.932848
H244	H	-0.449229	0.177371	-0.300885
H245	H	-0.005182	-0.254109	-0.622664
O246	O	-0.476052	0.083671	0.122766
C247	C	-0.319939	0.151196	0.121444
C248	C	-0.418074	0.157335	0.145610
H249	H	-0.273034	0.210754	0.139898
H250	H	-0.314470	0.085725	0.121580
H251	H	-0.299656	0.152590	0.084937
H252	H	-0.438421	0.155978	0.182126
H253	H	-0.423490	0.222799	0.145437
O254	O	0.003642	-0.384678	-0.612031
C255	C	0.003076	-0.249097	-0.549664
C256	C	0.000019	-0.295089	-0.598997
H257	H	0.000167	-0.176652	-0.539114
H258	H	-0.057113	-0.287143	-0.526360
H259	H	0.068508	-0.249437	-0.547009
H260	H	-0.065373	-0.294761	-0.601697
H261	H	0.060252	-0.257030	-0.622279
H262	H	0.245727	-0.224039	-0.533582
H263	H	-0.015393	-0.167196	-0.666497
O264	O	-0.050616	-0.224902	-0.885685
C265	C	0.002096	-0.159672	-0.947147
C266	C	0.022502	-0.210169	-0.924350
H267	H	0.061208	-0.147729	-0.978407
H268	H	-0.061878	-0.201630	-0.957677
H269	H	-0.008128	-0.092211	-0.922212
H270	H	0.032771	-0.277631	-0.949261
H271	H	0.086456	-0.168145	-0.913811
O272	O	-0.024081	-0.146820	-0.732043
C273	C	0.051891	0.003725	-0.696235
C274	C	0.054953	-0.095070	-0.718917
H275	H	0.115773	0.045589	-0.685608
H276	H	0.047437	0.030937	-0.721237
H277	H	-0.009847	0.007773	-0.665037
H278	H	0.116685	-0.099197	-0.750112
H279	H	0.059359	-0.122239	-0.693885
O280	O	0.407592	-0.539193	0.047764
C281	C	0.282368	-0.648870	0.081183
C282	C	0.325410	-0.603376	0.042744
H283	H	0.215908	-0.700758	0.077143
H284	H	0.330376	-0.683695	0.079577
H285	H	0.268929	-0.595782	0.115309
H286	H	0.338851	-0.656407	0.008599
H287	H	0.277380	-0.568531	0.044390
O288	O	0.454259	-0.686250	-0.011792
C289	C	0.354363	-0.807127	-0.052246
C290	C	0.452475	-0.761354	-0.050479
H291	H	0.352890	-0.867846	-0.083527
H292	H	0.311314	-0.830163	-0.020454
H293	H	0.326255	-0.757209	-0.054080
H294	H	0.480664	-0.811221	-0.048660
H295	H	0.495461	-0.738301	-0.082270
H296	H	0.550886	-0.383867	-0.081621
H297	H	0.182115	-0.525189	-0.530531
H298	H	-0.503619	0.071273	-0.373665
O299	O	0.717250	-0.691678	-0.504529
C300	C	0.714020	-0.758086	-0.451879
C301	C	0.667843	-0.707645	-0.461840
H302	H	0.674104	-0.770994	-0.417361
H303	H	0.716419	-0.825050	-0.479233
H304	H	0.785769	-0.715494	-0.451657
H305	H	0.596075	-0.750162	-0.462054
H306	H	0.665515	-0.640674	-0.434484
H307	H	-0.023718	-0.530163	-0.918978
H308	H	0.191099	-0.662437	-0.527221
O309	O	-0.277309	0.043081	0.218612
C310	C	-0.231305	0.124160	0.164173
C311	C	-0.275802	0.123756	0.214177
H312	H	-0.230089	0.189371	0.160569
H313	H	-0.159196	0.119003	0.152578
H314	H	-0.271749	0.064364	0.142347
H315	H	-0.235430	0.183544	0.236038
H316	H	-0.347917	0.128869	0.225736
O317	O	-0.748604	0.103549	0.119403
C318	C	-0.830609	0.188003	0.114579
C319	C	-0.776073	0.183650	0.140791
H320	H	-0.852849	0.252750	0.131866
H321	H	-0.786673	0.186858	0.078254
H322	H	-0.892737	0.127581	0.114228
H323	H	-0.713942	0.244060	0.141178
H324	H	-0.820072	0.184752	0.177102
H325	H	-0.586315	-0.066836	-0.224702
O326	O	-0.352359	0.166089	-0.260001
C327	C	-0.198617	0.221559	-0.302861
C328	C	-0.293234	0.158515	-0.304520
H329	H	-0.150783	0.215443	-0.338850
H330	H	-0.202943	0.294047	-0.285753
H331	H	-0.172063	0.201813	-0.282744
H332	H	-0.319844	0.178180	-0.324644
H333	H	-0.288852	0.086043	-0.321611
H334	H	0.279916	-0.749353	-0.522691
H335	H	0.013390	-0.692483	-0.152899
O336	O	-0.049204	-0.216238	-0.390138
C337	C	0.023934	-0.087413	-0.419426
C338	C	0.027428	-0.141358	-0.392509
H339	H	0.085873	-0.026851	-0.421343
H340	H	0.023187	-0.132201	-0.455182
H341	H	-0.039891	-0.063219	-0.401649
H342	H	0.091245	-0.165561	-0.410246
H343	H	0.028125	-0.096536	-0.356753
H344	H	-0.669612	-0.046576	-0.265443
H345	H	0.417564	-0.755580	-0.518528
H346	H	-0.518563	-0.039000	0.162804
O347	O	0.238083	-0.216167	-0.033781
C348	C	0.237881	-0.073753	-0.035024
C349	C	0.292408	-0.127712	-0.033628
H350	H	0.281774	-0.002222	-0.034891
H351	H	0.215831	-0.107489	-0.067153
H352	H	0.175637	-0.071589	-0.004028
H353	H	0.354689	-0.129894	-0.064602
H354	H	0.314389	-0.093957	-0.001479
O355	O	0.001092	-0.427567	-0.155909
C356	C	-0.082701	-0.319961	-0.132186
C357	C	-0.079752	-0.418758	-0.155096
H358	H	-0.148049	-0.312803	-0.131530
H359	H	-0.079779	-0.298720	-0.095991
H360	H	-0.022417	-0.275202	-0.152108
H361	H	-0.140026	-0.463585	-0.135212
H362	H	-0.082630	-0.439925	-0.191295
H363	H	-0.489994	0.175891	0.311254
O364	O	0.001369	-0.686192	-0.285236
C365	C	0.077666	-0.760218	-0.361377
C366	C	0.080519	-0.714471	-0.312005
H367	H	0.141660	-0.783077	-0.383036
H368	H	0.016024	-0.821049	-0.362574
H369	H	0.073223	-0.710330	-0.375079
H370	H	0.084994	-0.764289	-0.298273
H371	H	0.142151	-0.653625	-0.310837
H372	H	-0.123560	-0.607102	-0.263443
H373	H	0.780052	-0.386407	-0.516111
O374	O	-0.744643	0.080935	-0.244324
C375	C	-0.738974	0.154519	-0.167337
C376	C	-0.694520	0.154829	-0.217355
H377	H	-0.698457	0.214245	-0.145520
H378	H	-0.811049	0.159780	-0.155722
H379	H	-0.740294	0.089254	-0.163747
H380	H	-0.693134	0.220080	-0.220983
H381	H	-0.622469	0.149520	-0.228947
H382	H	-0.005085	-0.754331	-0.871556
O383	O	-0.259894	0.033383	0.354633
C384	C	-0.178151	-0.051219	0.359544
C385	C	-0.232724	-0.046884	0.333345
H386	H	-0.156185	-0.116118	0.342349
H387	H	-0.115866	0.009044	0.359807
H388	H	-0.222063	-0.049815	0.395895
H389	H	-0.188887	-0.048316	0.296982
H390	H	-0.295017	-0.107142	0.333119
O391	O	0.785052	-0.242454	-0.519140
C392	C	0.908025	-0.106915	-0.518579
C393	C	0.809989	-0.152916	-0.520440
H394	H	0.928224	-0.034522	-0.519639
H395	H	0.913387	-0.107122	-0.485849
H396	H	0.955068	-0.145076	-0.548908
H397	H	0.762887	-0.114792	-0.490135
H398	H	0.804701	-0.152720	-0.553190
O399	O	-0.273486	0.020146	-0.145156
C400	C	-0.262718	-0.061410	-0.103263
C401	C	-0.317255	-0.057052	-0.129473
H402	H	-0.298094	-0.123809	-0.090568
H403	H	-0.191893	-0.064943	-0.126660
H404	H	-0.257823	0.001345	-0.073127
H405	H	-0.322221	-0.119791	-0.159610
H406	H	-0.388049	-0.053474	-0.106045
H407	H	-0.574318	0.196197	0.271049
O408	O	0.255244	-0.488930	-0.029260
C409	C	0.133627	-0.592609	0.009690
C410	C	0.178134	-0.493804	0.008890
H411	H	0.071286	-0.596580	0.040537
H412	H	0.112886	-0.634243	-0.022535
H413	H	0.183808	-0.620149	0.011676
H414	H	0.128001	-0.466183	0.006921
H415	H	0.198894	-0.452233	0.041115
O416	O	-0.532514	0.053191	0.351323
C417	C	-0.688631	-0.014246	0.352641
C418	C	-0.590498	-0.020380	0.328444
H419	H	-0.735536	-0.073709	0.334148
H420	H	-0.708993	-0.015733	0.389138
H421	H	-0.694000	0.051294	0.352534
H422	H	-0.585055	-0.085911	0.328516
H423	H	-0.570180	-0.018841	0.291959
O424	O	0.726642	-0.700197	-0.005461
C425	C	0.737571	-0.783979	0.035268
C426	C	0.683050	-0.730072	0.033823
H427	H	0.702359	-0.808133	0.067031
H428	H	0.742314	-0.844552	0.003903
H429	H	0.808451	-0.739099	0.035953
H430	H	0.612144	-0.774879	0.033153
H431	H	0.678382	-0.669491	0.065186
O432	O	0.317062	-0.447908	0.038071
C433	C	0.227964	-0.399785	0.115622
C434	C	0.322550	-0.405745	0.082801
H435	H	0.232366	-0.365715	0.151794
H436	H	0.201346	-0.358823	0.106147
H437	H	0.180140	-0.470472	0.113220
H438	H	0.370442	-0.335095	0.085185
H439	H	0.349094	-0.446755	0.092286
H440	H	0.702991	-0.441593	-0.009870
H441	H	0.634201	-0.467612	-0.072637
O442	O	0.551017	-0.141900	-0.528222
C443	C	0.684247	-0.016404	-0.526991
C444	C	0.640179	-0.115212	-0.526143
H445	H	0.756335	0.005210	-0.525302
H446	H	0.685460	-0.009435	-0.559662
H447	H	0.643537	0.028184	-0.496602
H448	H	0.680853	-0.159861	-0.556509
H449	H	0.638953	-0.122109	-0.493453
H450	H	0.088092	-0.309407	-0.275738
O451	O	0.118340	-0.386022	-0.231053
C452	C	0.246602	-0.260355	-0.217772
C453	C	0.169053	-0.301945	-0.239430
H454	H	0.287636	-0.192381	-0.224545
H455	H	0.217386	-0.250723	-0.179619
H456	H	0.292236	-0.307212	-0.233148
H457	H	0.123391	-0.255128	-0.224091
H458	H	0.198331	-0.311595	-0.277584
H459	H	-0.531920	0.039247	-0.151930
H460	H	-0.724884	0.094041	0.248327
H461	H	-0.142704	-0.524425	-0.305055
H462	H	0.013347	-0.692513	-0.652885
O463	O	-0.290821	0.029578	-0.281271
C464	C	-0.220791	-0.050593	-0.357318
C465	C	-0.265234	-0.050882	-0.307297
H466	H	-0.200074	-0.115629	-0.378372
H467	H	-0.270919	-0.045271	-0.370446
H468	H	-0.158416	0.009378	-0.360159
H469	H	-0.327602	-0.110846	-0.304417
H470	H	-0.215046	-0.056158	-0.294191
H471	H	0.003321	-0.760550	-0.802778
H472	H	-0.754334	0.089615	-0.376700
