data_functionalizedCrystal
_audit_creation_method	'MofGen! by Chris Wilmer'
_symmetry_space_group_name_H-M	'P1'
_symmetry_Int_Tables_number	1
_symmetry_cell_setting	triclinic
loop_
_symmetry_equiv_pos_as_xyz
  x,y,z
_cell_length_a	18.050591
_cell_length_b	15.297327
_cell_length_c	15.299448
_cell_angle_alpha	88.404991
_cell_angle_beta	80.294663
_cell_angle_gamma	80.295981
loop_
_atom_site_label
_atom_site_type_symbol
_atom_site_fract_x
_atom_site_fract_y
_atom_site_fract_z
Zn1	Zn	1.177098	0.263070	-0.555776
Zn2	Zn	1.135249	0.434910	-0.434626
Zn3	Zn	1.028408	0.288442	-0.409294
Zn4	Zn	1.035610	0.409506	-0.581038
O5	O	1.094091	0.348982	-0.495184
O6	O	1.275474	0.285879	-0.539735
O7	O	1.100549	0.436731	-0.308688
O8	O	1.062632	0.162496	-0.407551
O9	O	1.244727	0.412129	-0.450726
O10	O	1.171875	0.143855	-0.515171
O11	O	1.022053	0.329122	-0.290077
O12	O	0.925437	0.304488	-0.432047
O13	O	1.074906	0.368831	-0.700264
O14	O	0.930727	0.393433	-0.558226
O15	O	1.178858	0.261246	-0.681705
O16	O	1.107531	0.554121	-0.475222
O17	O	1.034327	0.535457	-0.582790
C18	C	0.901135	0.348958	-0.495129
C19	C	0.818588	0.348965	-0.495131
C20	C	1.067193	0.576570	-0.534515
C21	C	1.055758	0.673928	-0.551370
C22	C	1.132353	0.309374	-0.723656
C23	C	1.148658	0.292496	-0.821017
C24	C	0.616269	0.300506	-0.426637
C25	C	0.553834	0.384132	-0.418899
C26	C	0.667461	0.348985	-0.495175
C27	C	0.582812	0.265387	-0.502916
C28	C	0.521480	0.348997	-0.495215
C29	C	0.606101	0.432660	-0.487402
C30	C	0.635096	0.313855	-0.571447
C31	C	0.572681	0.397531	-0.563748
C32	C	0.751557	0.348977	-0.495150
C33	C	0.437385	0.349014	-0.495242
C34	C	1.287801	0.349007	-0.495238
C35	C	1.370349	0.349018	-0.495262
C36	C	1.121118	0.120503	-0.455718
C37	C	1.132636	0.023138	-0.438900
C38	C	1.176171	0.987082	-0.375014
C39	C	1.186914	0.895610	-0.359173
C40	C	1.154126	0.840185	-0.407221
C41	C	1.110594	0.876241	-0.471113
C42	C	1.099846	0.967722	-0.486950
C43	C	1.077800	0.820825	-0.519157
C44	C	1.034268	0.856881	-0.583049
C45	C	1.023522	0.948354	-0.598884
C46	C	1.056310	1.003779	-0.550836
C47	C	1.088548	0.729344	-0.503320
C48	C	1.012222	0.709984	-0.615256
C49	C	1.001480	0.801456	-0.631097
C50	C	1.210441	0.228550	-0.857092
C51	C	1.225756	0.212680	-0.948566
C52	C	1.179292	0.260760	-1.003975
C53	C	1.117512	0.324712	-0.967902
C54	C	1.102192	0.340578	-0.876418
C55	C	1.071043	0.372788	-1.023301
C56	C	1.009262	0.436740	-0.987228
C57	C	0.993946	0.452604	-0.895753
C58	C	1.040409	0.404524	-0.840344
C59	C	1.086363	0.356922	-1.114785
C60	C	0.978114	0.468950	-1.134111
C61	C	0.962799	0.484820	-1.042637
C62	C	1.056028	0.388373	-0.267589
C63	C	1.039896	0.405004	-0.170185
H64	H	0.518663	0.413854	-0.354415
H65	H	0.985522	0.664858	-0.654379
C66	C	1.202352	0.694651	-0.467879
C67	C	1.165931	0.739636	-0.389816
H68	H	1.209636	0.632574	-0.457132
H69	H	1.250383	0.712657	-0.486642
H70	H	1.171728	0.708204	-0.512799
H71	H	1.196557	0.726089	-0.344897
H72	H	1.117891	0.721622	-0.371040
C73	C	0.580197	0.211817	-0.299624
C74	C	0.642217	0.245244	-0.348340
H75	H	0.596217	0.177708	-0.251284
H76	H	0.561041	0.175414	-0.336806
H77	H	0.541278	0.259664	-0.277731
H78	H	0.681134	0.197397	-0.370239
H79	H	0.661385	0.281648	-0.311151
C80	C	0.722664	0.336949	-0.703280
C81	C	0.682608	0.273705	-0.658462
H82	H	0.751995	0.312154	-0.756999
H83	H	0.755548	0.354267	-0.667037
H84	H	0.687612	0.387311	-0.716212
H85	H	0.717661	0.223345	-0.645524
H86	H	0.649721	0.256374	-0.694713
H87	H	1.047568	1.078263	-0.563732
C88	C	1.261285	0.923939	-0.250133
C89	C	1.234770	0.855978	-0.288956
H90	H	1.290837	0.899469	-0.206787
H91	H	1.219138	0.965471	-0.222770
H92	H	1.291874	0.952958	-0.294513
H93	H	1.204177	0.826963	-0.244577
H94	H	1.276923	0.814431	-0.316319
H95	H	0.940275	0.508095	-1.179225
H96	H	0.943638	0.504675	-0.866385
H97	H	1.276059	0.160612	-0.977930
H98	H	1.202857	1.032217	-0.335895
H99	H	0.988065	0.977709	-0.650899
H100	H	1.123992	0.699996	-0.451299
C101	C	0.517029	0.149331	-0.437926
C102	C	0.568415	0.169940	-0.511740
H103	H	0.508147	0.090404	-0.443367
H104	H	0.470307	0.189339	-0.434802
H105	H	0.537792	0.154258	-0.385551
H106	H	0.547650	0.165020	-0.564115
H107	H	0.615147	0.129920	-0.514873
H108	H	0.966036	0.830826	-0.683118
H109	H	1.136664	0.304850	-1.144146
H110	H	0.616661	0.503396	-0.480798
H111	H	0.553582	0.438591	-0.621735
H112	H	1.191765	0.247834	-1.078456
H113	H	1.248262	0.189406	-0.811969
H114	H	1.027945	0.417444	-0.765858
C115	C	0.891256	0.558875	-0.910984
C116	C	0.894886	0.555108	-1.002977
H117	H	0.849326	0.602264	-0.886501
H118	H	0.937124	0.574304	-0.898233
H119	H	0.884842	0.502612	-0.885829
H120	H	0.901305	0.611369	-1.028133
H121	H	0.849007	0.539684	-1.015736
