data_functionalizedCrystal
_audit_creation_method	'MofGen! by Chris Wilmer'
_symmetry_space_group_name_H-M	'P1'
_symmetry_Int_Tables_number	1
_symmetry_cell_setting	triclinic
loop_
_symmetry_equiv_pos_as_xyz
  x,y,z
_cell_length_a	11.792241
_cell_length_b	11.026607
_cell_length_c	9.482900
_cell_angle_alpha	101.400185
_cell_angle_beta	80.650163
_cell_angle_gamma	96.389716
loop_
_atom_site_label
_atom_site_type_symbol
_atom_site_fract_x
_atom_site_fract_y
_atom_site_fract_z
O1	O	1.553789	0.147664	-0.120746
O2	O	1.226860	0.164824	-0.120779
O3	O	1.363228	-0.020587	-0.120760
O4	O	1.417420	0.333075	-0.120765
O5	O	1.335560	0.017226	0.121029
O6	O	1.199191	0.202637	0.121010
O7	O	1.526120	0.185478	0.121043
Cu8	Cu	1.360130	0.197510	0.143104
Cu9	Cu	1.392851	0.152792	-0.142839
O10	O	1.389752	0.370888	0.121024
C11	C	1.339397	-0.046957	0.000132
C12	C	1.309595	-0.181869	0.000124
C13	C	1.170521	0.182652	0.000111
C14	C	1.043868	0.179423	0.000098
C15	C	1.391885	-0.255132	0.000130
C16	C	1.361085	-0.394570	0.000121
C17	C	0.811973	0.173495	0.000140
C18	C	0.941015	0.176788	0.000117
C19	C	1.582459	0.167649	0.000150
C20	C	1.709114	0.170877	0.000153
C21	C	1.413584	0.397258	0.000129
C22	C	1.443387	0.532168	0.000128
N23	N	1.337123	0.228962	0.344221
N24	N	1.415864	0.121330	-0.343956
C25	C	1.386056	0.162062	0.416427
C26	C	1.366924	0.188240	0.583841
H27	H	1.485136	-0.214624	0.000148
Cl28	Cl	1.217101	-0.457094	0.000092
Cl29	Cl	1.502712	0.003231	0.560152
Cl30	Cl	1.587374	-0.405314	0.000136
Cl31	Cl	1.165617	-0.244398	0.000094
Cl32	Cl	1.250567	0.347310	0.440122
H33	H	1.442107	0.085401	0.354306
H34	H	1.310859	0.264896	0.645958
