data_functionalizedCrystal
_audit_creation_method	'MofGen! by Chris Wilmer'
_symmetry_space_group_name_H-M	'P1'
_symmetry_Int_Tables_number	1
_symmetry_cell_setting	triclinic
loop_
_symmetry_equiv_pos_as_xyz
  x,y,z
_cell_length_a	19.121102
_cell_length_b	29.839131
_cell_length_c	19.120904
_cell_angle_alpha	92.409150
_cell_angle_beta	90.088173
_cell_angle_gamma	87.595578
loop_
_atom_site_label
_atom_site_type_symbol
_atom_site_fract_x
_atom_site_fract_y
_atom_site_fract_z
Zn1	Zn	1.054749	-0.219753	-0.442036
Zn2	Zn	1.554749	0.280247	0.057964
Zn3	Zn	1.059636	-0.291816	-0.324791
Zn4	Zn	1.559636	0.208184	0.175209
Zn5	Zn	0.942520	-0.213364	-0.319821
Zn6	Zn	1.442520	0.286636	0.180179
Zn7	Zn	0.937448	-0.291514	-0.436994
Zn8	Zn	1.437448	0.208486	0.063006
O9	O	0.998588	-0.254112	-0.380911
O10	O	1.498588	0.245888	0.119089
O11	O	1.153501	-0.232113	-0.430674
O12	O	1.653501	0.267887	0.069326
O13	O	1.048269	-0.278861	-0.226027
O14	O	1.548269	0.221139	0.273973
O15	O	0.957485	-0.151347	-0.336063
O16	O	1.457485	0.348653	0.163937
O17	O	1.157092	-0.285057	-0.344535
O18	O	1.657092	0.214943	0.155465
O19	O	1.039939	-0.156042	-0.425855
O20	O	1.539939	0.343958	0.074145
O21	O	0.962224	-0.221223	-0.222376
O22	O	1.462224	0.278777	0.277624
O23	O	0.843743	-0.220930	-0.331174
O24	O	1.343743	0.279070	0.168826
O25	O	0.948840	-0.284542	-0.535767
O26	O	1.448840	0.215458	-0.035767
O27	O	0.840017	-0.278346	-0.417260
O28	O	1.340017	0.221654	0.082740
O29	O	1.035020	-0.231820	-0.539472
O30	O	1.535020	0.268180	-0.039472
O31	O	1.043351	-0.354640	-0.339645
O32	O	1.543351	0.145360	0.160355
O33	O	0.953579	-0.354418	-0.422080
O34	O	1.453579	0.145582	0.077920
C35	C	0.816443	-0.248912	-0.373131
C36	C	1.316443	0.251088	0.126869
C37	C	0.738519	-0.246699	-0.369819
C38	C	1.238519	0.253301	0.130181
C39	C	0.699992	-0.275595	-0.413013
C40	C	1.199992	0.224405	0.086987
C41	C	0.626774	-0.273510	-0.409905
C42	C	1.126774	0.226490	0.090095
C43	C	0.592086	-0.242531	-0.363599
C44	C	1.092086	0.257469	0.136401
C45	C	0.630619	-0.213632	-0.320403
C46	C	1.130619	0.286368	0.179597
C47	C	0.703835	-0.215716	-0.323515
C48	C	1.203835	0.284284	0.176485
C49	C	0.371117	-0.234741	-0.351966
C50	C	0.871117	0.265259	0.148034
C51	C	0.297896	-0.232660	-0.348855
C52	C	0.797896	0.267340	0.151145
C53	C	0.294056	-0.292537	-0.438359
C54	C	0.794056	0.207463	0.061641
C55	C	0.367274	-0.294620	-0.441464
C56	C	0.867274	0.205380	0.058536
C57	C	0.405800	-0.265720	-0.398271
C58	C	0.905800	0.234280	0.101729
C59	C	0.517246	-0.240400	-0.360419
C60	C	1.017246	0.259600	0.139581
C61	C	0.480639	-0.267849	-0.401455
C62	C	0.980639	0.232151	0.098545
C63	C	0.998463	-0.370830	-0.380870
C64	C	1.498463	0.129170	0.119130
C65	C	0.998473	-0.420765	-0.380879
C66	C	1.498473	0.079235	0.119121
C67	C	1.045411	-0.730519	-0.338056
C68	C	1.545411	-0.230519	0.161944
C69	C	1.045496	-0.918195	-0.338087
C70	C	1.545496	-0.418195	0.161913
O71	O	1.085306	-0.942551	-0.301646
O72	O	1.585306	-0.442551	0.198354
N73	N	0.998731	-0.941559	-0.380970
N74	N	1.498731	-0.441559	0.119030
C75	C	0.951945	-0.918001	-0.423851
C76	C	1.451945	-0.418001	0.076149
O77	O	0.912175	-0.942181	-0.460332
O78	O	1.412175	-0.442181	0.039668
C79	C	0.951864	-0.730326	-0.423824
C80	C	1.451864	-0.230326	0.076176
C81	C	0.998627	-0.706964	-0.380933
C82	C	1.498627	-0.206964	0.119067
C83	C	1.092171	-0.707157	-0.295169
C84	C	1.592171	-0.207157	0.204831
C85	C	1.092146	-0.660241	-0.295159
C86	C	1.592146	-0.160241	0.204841
C87	C	1.045362	-0.636686	-0.338036
C88	C	1.545362	-0.136686	0.161964
C89	C	0.998602	-0.660048	-0.380923
C90	C	1.498602	-0.160048	0.119077
C91	C	0.905081	-0.706770	-0.466708
C92	C	1.405081	-0.206770	0.033292
C93	C	0.905066	-0.659848	-0.466699
C94	C	1.405066	-0.159848	0.033301
C95	C	0.951829	-0.636486	-0.423808
C96	C	1.451829	-0.136486	0.076192
C97	C	0.951794	-0.589577	-0.423789
C98	C	1.451794	-0.089577	0.076211
N99	N	0.998559	-0.566213	-0.380906
N100	N	1.498559	-0.066213	0.119094
C101	C	1.045343	-0.589768	-0.338030
C102	C	1.545343	-0.089768	0.161970
C103	C	0.951990	-1.016534	-0.423862
C104	C	1.451990	-0.516534	0.076138
C105	C	0.952010	-1.063452	-0.423868
C106	C	1.452010	-0.563452	0.076132
C107	C	1.045562	-1.063642	-0.338104
C108	C	1.545562	-0.563642	0.161896
C109	C	1.045539	-1.016723	-0.338095
C110	C	1.545539	-0.516723	0.161905
C111	C	0.998755	-0.993169	-0.380979
C112	C	1.498755	-0.493169	0.119021
C113	C	1.045288	-0.491240	-0.338011
C114	C	1.545288	0.008760	0.161989
C115	C	1.045257	-0.444319	-0.338003
C116	C	1.545257	0.055681	0.161997
C117	C	0.951708	-0.444133	-0.423769
C118	C	1.451708	0.055867	0.076231
C119	C	0.951735	-0.491049	-0.423775
C120	C	1.451735	0.008951	0.076225
C121	C	0.998531	-0.514602	-0.380894
C122	C	1.498531	-0.014602	0.119106
O123	O	0.912011	-0.565193	-0.460217
O124	O	1.412011	-0.065193	0.039783
O125	O	1.085117	-0.565581	-0.301566
O126	O	1.585117	-0.065581	0.198434
C127	C	1.045435	-0.777435	-0.338066
C128	C	1.545435	-0.277435	0.161934
C129	C	0.998676	-0.800797	-0.380953
C130	C	1.498676	-0.300797	0.119047
C131	C	0.951891	-0.777243	-0.423830
C132	C	1.451891	-0.277243	0.076170
C133	C	0.998695	-0.847716	-0.380959
C134	C	1.498695	-0.347716	0.119041
C135	C	1.045479	-0.871270	-0.338082
C136	C	1.545479	-0.371270	0.161918
C137	C	1.092244	-0.847906	-0.295199
C138	C	1.592244	-0.347906	0.204801
C139	C	1.092220	-0.800990	-0.295189
C140	C	1.592220	-0.300990	0.204811
C141	C	0.905126	-0.800607	-0.466712
C142	C	1.405126	-0.300607	0.033288
C143	C	0.905154	-0.847523	-0.466718
C144	C	1.405154	-0.347523	0.033282
C145	C	0.951938	-0.871078	-0.423842
C146	C	1.451938	-0.371078	0.076158
C147	C	1.181445	-0.259331	-0.388721
C148	C	1.681445	0.240669	0.111279
C149	C	1.259368	-0.261556	-0.392050
C150	C	1.759368	0.238444	0.107950
C151	C	0.990819	-0.258860	-0.563768
C152	C	1.490819	0.241140	-0.063768
C153	C	0.987508	-0.260884	-0.641691
C154	C	1.487508	0.239116	-0.141691
C155	C	0.998732	-0.136939	-0.380967
C156	C	1.498732	0.363061	0.119033
C157	C	0.998794	-0.087007	-0.380991
C158	C	1.498794	0.412993	0.119009
C159	C	1.030820	-0.234387	-0.680230
C160	C	1.530820	0.265613	-0.180230
C161	C	1.027700	-0.236286	-0.753446
C162	C	1.527700	0.263714	-0.253446
C163	C	0.981272	-0.264686	-0.788123
C164	C	1.481272	0.235314	-0.288123
C165	C	0.937956	-0.291184	-0.749580
C166	C	1.437956	0.208816	-0.249580
C167	C	0.941072	-0.289282	-0.676364
C168	C	1.441072	0.210718	-0.176364
C169	C	0.969615	-0.271800	-1.009090
C170	C	1.469615	0.228200	-0.509090
C171	C	0.966503	-0.273701	-1.082311
C172	C	1.466503	0.226299	-0.582311
C173	C	1.056247	-0.218802	-1.086172
C174	C	1.556247	0.281198	-0.586172
C175	C	1.059362	-0.216905	-1.012955
C176	C	1.559362	0.283095	-0.512955
C177	C	1.016043	-0.243401	-0.974418
C178	C	1.516043	0.256599	-0.474418
C179	C	0.978084	-0.266629	-0.862963
C180	C	1.478084	0.233371	-0.362963
C181	C	1.019228	-0.241455	-0.899580
C182	C	1.519228	0.258545	-0.399580
C183	C	1.006368	-0.249350	-0.198766
C184	C	1.506368	0.250650	0.301234
C185	C	1.009815	-0.247204	-0.120849
C186	C	1.509815	0.252796	0.379151
H187	H	0.402476	-0.211211	-0.316789
H188	H	0.902476	0.288789	0.183211
C189	C	0.593087	-0.179951	-0.270104
C190	C	1.093087	0.320049	0.229896
C191	C	0.642501	-0.155084	-0.232956
C192	C	1.142501	0.344916	0.267044
C193	C	0.607954	-0.124049	-0.186619
C194	C	1.107954	0.375951	0.313381
H195	H	0.565802	-0.195447	-0.238232
H196	H	1.065802	0.304553	0.261768
H197	H	0.563424	-0.160266	-0.295750
H198	H	1.063424	0.339734	0.204250
H199	H	0.672152	-0.174767	-0.207312
H200	H	1.172152	0.325233	0.292688
H201	H	0.669787	-0.139578	-0.264810
H202	H	1.169787	0.360422	0.235190
H203	H	0.578291	-0.104363	-0.212264
H204	H	1.078291	0.395637	0.287736
H205	H	0.580671	-0.139549	-0.154751
H206	H	1.080671	0.360451	0.345249
H207	H	0.641476	-0.107170	-0.161413
H208	H	1.141476	0.392830	0.338587
H209	H	1.057027	-0.218330	-0.871343
H210	H	1.557027	0.281670	-0.371343
H211	H	0.905796	-0.310854	-0.644987
H212	H	1.405796	0.189146	-0.144987
C213	C	1.103152	-0.189974	-1.128045
C214	C	1.603152	0.310026	-0.628045
C215	C	1.061702	-0.161131	-1.168379
C216	C	1.561702	0.338869	-0.668379
C217	C	1.104887	-0.134561	-1.206954
C218	C	1.604887	0.365439	-0.706954
H219	H	1.132475	-0.208720	-1.157964
H220	H	1.632475	0.291280	-0.657964
H221	H	1.131235	-0.172761	-1.096928
H222	H	1.631235	0.327239	-0.596928
H223	H	1.033632	-0.178342	-1.199493
H224	H	1.533632	0.321658	-0.699493
H225	H	1.032381	-0.142375	-1.138478
H226	H	1.532381	0.357625	-0.638478
H227	H	1.132969	-0.117349	-1.175836
H228	H	1.632969	0.382651	-0.675836
H229	H	1.134207	-0.153311	-1.236868
H230	H	1.634207	0.346689	-0.736868
H231	H	1.076769	-0.114985	-1.234320
H232	H	1.576769	0.385015	-0.734320
C233	C	0.916201	-0.304591	-1.120008
C234	C	1.416201	0.195409	-0.620008
C235	C	0.954069	-0.335618	-1.163712
C236	C	1.454069	0.164382	-0.663712
C237	C	0.907758	-0.364081	-1.198444
C238	C	1.407758	0.135919	-0.698444
H239	H	0.884453	-0.287324	-1.147328
H240	H	1.384453	0.212676	-0.647328
H241	H	0.890855	-0.320126	-1.086597
H242	H	1.390855	0.179874	-0.586597
H243	H	0.979404	-0.320084	-1.197119
H244	H	1.479404	0.179916	-0.697119
H245	H	0.985815	-0.352895	-1.136409
H246	H	1.485815	0.147105	-0.636409
H247	H	0.882412	-0.379617	-1.165033
H248	H	1.382412	0.120383	-0.665033
H249	H	0.876013	-0.346811	-1.225761
H250	H	1.376013	0.153189	-0.725761
H251	H	0.933445	-0.385139	-1.228096
H252	H	1.433445	0.114861	-0.728096
H253	H	0.913614	-0.424947	-0.458676
H254	H	1.413614	0.075053	0.041324
H255	H	1.130227	-0.641222	-0.260236
H256	H	1.630227	-0.141222	0.239764
C257	C	0.737738	-0.309160	-0.463336
C258	C	1.237738	0.190840	0.036664
C259	C	0.777909	-0.286134	-0.510119
C260	C	1.277909	0.213866	-0.010119
C261	C	0.812695	-0.317039	-0.556482
C262	C	1.312695	0.182961	-0.056482
H263	H	0.704381	-0.326084	-0.488686
H264	H	1.204381	0.173916	0.011314
H265	H	0.767455	-0.328817	-0.437697
H266	H	1.267455	0.171183	0.062303
H267	H	0.748194	-0.266484	-0.535755
H268	H	1.248194	0.233516	-0.035755
H269	H	0.811278	-0.269211	-0.484788
H270	H	1.311278	0.230789	0.015212
H271	H	0.842412	-0.336696	-0.530844
H272	H	1.342412	0.163304	-0.030844
H273	H	0.779333	-0.333961	-0.581828
H274	H	1.279333	0.166039	-0.081828
H275	H	0.839960	-0.301420	-0.588226
H276	H	1.339960	0.198580	-0.088226
H277	H	1.062971	-0.214710	-0.784821
H278	H	1.562971	0.285290	-0.284821
H279	H	1.130272	-0.726330	-0.260254
H280	H	1.630272	-0.226330	0.239746
H281	H	0.900150	-0.314306	-0.777819
H282	H	1.400150	0.185694	-0.277819
C283	C	1.096391	-0.991443	-0.291507
C284	C	1.596391	-0.491443	0.208493
C285	C	1.137372	-1.022120	-0.253973
C286	C	1.637372	-0.522120	0.246027
C287	C	1.184234	-0.998852	-0.211055
C288	C	1.684234	-0.498852	0.288945
H289	H	1.070972	-0.971605	-0.259733
H290	H	1.570972	-0.471605	0.240267
H291	H	1.125809	-0.974693	-0.319635
H292	H	1.625809	-0.474693	0.180365
H293	H	1.107958	-1.038863	-0.225847
H294	H	1.607958	-0.538863	0.274153
H295	H	1.162806	-1.041959	-0.285729
H296	H	1.662806	-0.541959	0.214271
H297	H	1.213652	-0.982102	-0.239183
H298	H	1.713652	-0.482102	0.260817
H299	H	1.158809	-0.979015	-0.179285
H300	H	1.658809	-0.479015	0.320715
H301	H	1.212050	-1.019663	-0.185588
H302	H	1.712050	-0.519663	0.314412
H303	H	1.097171	-0.193780	-0.984727
H304	H	1.597171	0.306220	-0.484727
H305	H	1.130336	-0.867092	-0.260286
H306	H	1.630336	-0.367092	0.239714
C307	C	0.927795	-0.297523	-0.900659
C308	C	1.427795	0.202477	-0.400659
C309	C	0.965670	-0.328545	-0.944366
C310	C	1.465670	0.171455	-0.444366
C311	C	0.919367	-0.357013	-0.979099
C312	C	1.419367	0.142987	-0.479099
H313	H	0.896040	-0.280259	-0.927977
H314	H	1.396040	0.219741	-0.427977
H315	H	0.902455	-0.313063	-0.867248
H316	H	1.402455	0.186937	-0.367248
H317	H	0.990998	-0.313007	-0.977773
H318	H	1.490998	0.186993	-0.477773
H319	H	0.997422	-0.345819	-0.917066
H320	H	1.497422	0.154181	-0.417066
H321	H	0.894027	-0.372553	-0.945688
H322	H	1.394027	0.127447	-0.445688
H323	H	0.887615	-0.339745	-1.006413
H324	H	1.387615	0.160255	-0.506413
H325	H	0.945058	-0.378067	-1.008753
H326	H	1.445058	0.121933	-0.508753
H327	H	0.934351	-0.293382	-0.977722
H328	H	1.434351	0.206618	-0.477722
C329	C	0.585070	-0.304942	-0.456825
C330	C	1.085070	0.195058	0.043175
C331	C	0.631120	-0.332529	-0.498023
C332	C	1.131120	0.167471	0.001977
C333	C	0.592728	-0.361497	-0.541246
C334	C	1.092728	0.138503	-0.041246
H335	H	0.555224	-0.287827	-0.486274
H336	H	1.055224	0.212173	0.013726
H337	H	0.557642	-0.323000	-0.428743
H338	H	1.057642	0.177000	0.071257
H339	H	0.658536	-0.314473	-0.526102
H340	H	1.158536	0.185527	-0.026102
H341	H	0.660966	-0.349654	-0.468592
H342	H	1.160966	0.150346	0.031408
H343	H	0.565300	-0.379555	-0.513165
H344	H	1.065300	0.120445	-0.013165
H345	H	0.562884	-0.344379	-0.570691
H346	H	1.062884	0.155621	-0.070691
H347	H	0.623968	-0.380222	-0.569200
H348	H	1.123968	0.119778	-0.069200
H349	H	0.395512	-0.319847	-0.479171
H350	H	0.895512	0.180153	0.020829
H351	H	0.269654	-0.207429	-0.311151
H352	H	0.769654	0.292571	0.188849
C353	C	0.252102	-0.323856	-0.485226
C354	C	0.752102	0.176144	0.014774
C355	C	0.180557	-0.315396	-0.472606
C356	C	0.680557	0.184604	0.027394
C357	C	0.141887	-0.344234	-0.515777
C358	C	0.641887	0.155766	-0.015777
H359	H	0.264420	-0.354120	-0.475431
H360	H	0.764420	0.145880	0.024569
H361	H	0.262076	-0.318887	-0.532872
H362	H	0.762076	0.181113	-0.032872
H363	H	0.170587	-0.320368	-0.424970
H364	H	0.670587	0.179632	0.075030
H365	H	0.168217	-0.285137	-0.482404
H366	H	0.668217	0.214863	0.017596
H367	H	0.151862	-0.339265	-0.563423
H368	H	0.651862	0.160735	-0.063423
H369	H	0.154212	-0.374496	-0.505979
H370	H	0.654212	0.125504	-0.005979
H371	H	0.093340	-0.338494	-0.507224
H372	H	0.593340	0.161506	-0.007224
H373	H	0.867030	-0.781432	-0.501629
H374	H	1.367030	-0.281432	-0.001629
H375	H	0.866970	-0.640673	-0.501623
H376	H	1.366970	-0.140673	-0.001623
H377	H	0.508885	-0.293070	-0.439160
H378	H	1.008885	0.206930	0.060840
C379	C	0.745760	-0.184419	-0.276579
C380	C	1.245760	0.315581	0.223421
C381	C	0.789685	-0.209838	-0.233372
C382	C	1.289685	0.290162	0.266628
C383	C	0.828324	-0.181022	-0.190134
C384	C	1.328324	0.318978	0.309866
H385	H	0.714702	-0.165661	-0.248489
H386	H	1.214702	0.334339	0.251511
H387	H	0.773247	-0.166391	-0.304653
H388	H	1.273247	0.333609	0.195347
H389	H	0.762201	-0.227859	-0.205301
H390	H	1.262201	0.272141	0.294699
H391	H	0.820757	-0.228595	-0.261443
H392	H	1.320757	0.271405	0.238557
H393	H	0.855810	-0.162994	-0.218207
H394	H	1.355810	0.337006	0.281793
H395	H	0.797259	-0.162265	-0.162048
H396	H	1.297259	0.337735	0.337952
H397	H	0.858135	-0.198264	-0.160817
H398	H	1.358135	0.301736	0.339183
C399	C	0.479542	-0.206836	-0.310061
C400	C	0.979542	0.293164	0.189939
C401	C	0.439390	-0.229862	-0.263261
C402	C	0.939390	0.270138	0.236739
C403	C	0.404650	-0.198957	-0.216862
C404	C	0.904650	0.301043	0.283138
H405	H	0.449815	-0.187166	-0.335650
H406	H	0.949815	0.312834	0.164350
H407	H	0.512946	-0.189927	-0.284734
H408	H	1.012946	0.310073	0.215266
H409	H	0.405990	-0.246764	-0.288586
H410	H	0.905990	0.253236	0.211414
H411	H	0.469101	-0.249531	-0.237656
H412	H	0.969101	0.250469	0.262344
H413	H	0.438054	-0.182048	-0.191535
H414	H	0.938054	0.317952	0.308465
H415	H	0.374927	-0.179288	-0.242457
H416	H	0.874927	0.320712	0.257543
H417	H	0.377408	-0.214576	-0.185099
H418	H	0.877408	0.285424	0.314901
H419	H	1.083395	-0.510411	-0.303095
H420	H	1.583395	-0.010411	0.196905
C421	C	1.095998	-0.419009	-0.291319
C422	C	1.595998	0.080991	0.208681
C423	C	1.083754	-0.428226	-0.221298
C424	C	1.583754	0.071774	0.278702
C425	C	1.130487	-0.404925	-0.178277
C426	C	1.630487	0.095075	0.321723
H427	H	1.089334	-0.387684	-0.297356
H428	H	1.589334	0.112316	0.202644
H429	H	1.142672	-0.428283	-0.303591
H430	H	1.642672	0.071717	0.196409
H431	H	1.037091	-0.418949	-0.209030
H432	H	1.537091	0.081051	0.290970
H433	H	1.090423	-0.459547	-0.215239
H434	H	1.590423	0.040453	0.284761
H435	H	1.177162	-0.414199	-0.190548
H436	H	1.677162	0.085801	0.309452
H437	H	1.123820	-0.373601	-0.184320
H438	H	1.623820	0.126399	0.315680
H439	H	1.122191	-0.411178	-0.130763
H440	H	1.622191	0.088822	0.369237
C441	C	0.901314	-1.088794	-0.470551
C442	C	1.401314	-0.588794	0.029449
C443	C	0.913586	-1.079596	-0.540575
C444	C	1.413586	-0.579596	-0.040575
C445	C	0.866907	-1.102937	-0.583605
C446	C	1.366907	-0.602937	-0.083605
H447	H	0.854624	-1.079548	-0.458333
H448	H	1.354624	-0.579548	0.041667
H449	H	0.908025	-1.120118	-0.464467
H450	H	1.408025	-0.620118	0.035533
H451	H	0.906870	-1.048280	-0.546656
H452	H	1.406870	-0.548280	-0.046656
H453	H	0.960267	-1.088845	-0.552815
H454	H	1.460267	-0.588845	-0.052815
H455	H	0.873618	-1.134260	-0.577521
H456	H	1.373618	-0.634260	-0.077521
H457	H	0.820220	-1.093688	-0.571380
H458	H	1.320220	-0.593688	-0.071380
H459	H	0.875232	-1.096702	-0.631121
H460	H	1.375232	-0.596702	-0.131121
C461	C	0.901300	-0.990947	-0.470513
C462	C	1.401300	-0.490947	0.029487
C463	C	0.939026	-0.966283	-0.517190
C464	C	1.439026	-0.466283	-0.017190
C465	C	0.892351	-0.942715	-0.560179
C466	C	1.392351	-0.442715	-0.060179
H467	H	0.871889	-0.971069	-0.442446
H468	H	1.371889	-0.471069	0.057554
H469	H	0.873465	-1.011574	-0.496089
H470	H	1.373465	-0.511574	0.003911
H471	H	0.966848	-0.945659	-0.491617
H472	H	1.466848	-0.445659	0.008383
H473	H	0.968435	-0.986151	-0.545272
H474	H	1.468435	-0.486151	-0.045272
H475	H	0.864516	-0.963341	-0.585755
H476	H	1.364516	-0.463341	-0.085755
H477	H	0.862942	-0.922839	-0.532107
H478	H	1.362942	-0.422839	-0.032107
H479	H	0.917941	-0.925981	-0.591859
H480	H	1.417941	-0.425981	-0.091859
C481	C	0.854281	-0.732046	-0.513356
C482	C	1.354281	-0.232046	-0.013356
C483	C	0.813328	-0.701368	-0.550915
C484	C	1.313328	-0.201368	-0.050915
C485	C	0.766528	-0.724635	-0.593904
C486	C	1.266528	-0.224635	-0.093904
H487	H	0.824833	-0.748811	-0.485297
H488	H	1.324833	-0.248811	0.014703
H489	H	0.879767	-0.751871	-0.545110
H490	H	1.379767	-0.251871	-0.045110
H491	H	0.787843	-0.681551	-0.519165
H492	H	1.287843	-0.181551	-0.019165
H493	H	0.842757	-0.684601	-0.578987
H494	H	1.342757	-0.184601	-0.078987
H495	H	0.792014	-0.744460	-0.625659
H496	H	1.292014	-0.244460	-0.125659
H497	H	0.737084	-0.741400	-0.565840
H498	H	1.237084	-0.241400	-0.065840
H499	H	0.738740	-0.703824	-0.619398
H500	H	1.238740	-0.203824	-0.119398
H501	H	1.083656	-1.082829	-0.303192
H502	H	1.583656	-0.582829	0.196808
C503	C	0.900933	-0.516337	-0.470415
C504	C	1.400933	-0.016337	0.029585
C505	C	0.859967	-0.485664	-0.507973
C506	C	1.359967	0.014336	-0.007973
C507	C	0.813173	-0.508939	-0.550959
C508	C	1.313173	-0.008939	-0.050959
H509	H	0.871493	-0.533106	-0.442354
H510	H	1.371493	-0.033106	0.057646
H511	H	0.926424	-0.536159	-0.502170
H512	H	1.426424	-0.036159	-0.002170
H513	H	0.834478	-0.465850	-0.476222
H514	H	1.334478	0.034150	0.023778
H515	H	0.889388	-0.468894	-0.536048
H516	H	1.389388	0.031106	-0.036048
H517	H	0.838664	-0.528761	-0.582714
H518	H	1.338664	-0.028761	-0.082714
H519	H	0.783738	-0.525708	-0.522892
H520	H	1.283738	-0.025708	-0.022892
H521	H	0.785376	-0.488132	-0.576452
H522	H	1.285376	0.011868	-0.076452
C523	C	1.143074	-0.775712	-0.248602
C524	C	1.643074	-0.275712	0.251398
C525	C	1.184057	-0.806391	-0.211073
C526	C	1.684057	-0.306391	0.288927
C527	C	1.230921	-0.783125	-0.168155
C528	C	1.730921	-0.283125	0.331845
H529	H	1.117657	-0.755875	-0.216824
H530	H	1.617657	-0.255875	0.283176
H531	H	1.172491	-0.758961	-0.276729
H532	H	1.672491	-0.258961	0.223271
H533	H	1.154644	-0.823135	-0.182948
H534	H	1.654644	-0.323135	0.317052
H535	H	1.209489	-0.826229	-0.242833
H536	H	1.709489	-0.326229	0.257167
H537	H	1.260338	-0.766374	-0.196283
H538	H	1.760338	-0.266374	0.303717
H539	H	1.205499	-0.763289	-0.136382
H540	H	1.705499	-0.263289	0.363618
H541	H	1.258739	-0.803938	-0.142692
H542	H	1.758739	-0.303938	0.357308
H543	H	0.867068	-0.866540	-0.501645
H544	H	1.367068	-0.366540	-0.001645
C545	C	1.081250	-0.203507	-0.642711
C546	C	1.581250	0.296493	-0.142711
C547	C	1.118498	-0.180699	-0.692136
C548	C	1.618498	0.319301	-0.192136
C549	C	1.164953	-0.152242	-0.657602
C550	C	1.664953	0.347758	-0.157602
H551	H	1.113054	-0.220772	-0.615448
H552	H	1.613054	0.279228	-0.115448
H553	H	1.055686	-0.182402	-0.613029
H554	H	1.555686	0.317598	-0.113029
H555	H	1.144060	-0.201801	-0.721807
H556	H	1.644060	0.298199	-0.221807
H557	H	1.086713	-0.163425	-0.719401
H558	H	1.586713	0.336575	-0.219401
H559	H	1.139390	-0.131138	-0.627919
H560	H	1.639390	0.368862	-0.127919
H561	H	1.196752	-0.169511	-0.630340
H562	H	1.696752	0.330489	-0.130340
H563	H	1.190227	-0.136761	-0.691131
H564	H	1.690227	0.363239	-0.191131
