data_functionalizedCrystal
_audit_creation_method	'MofGen! by Chris Wilmer'
_symmetry_space_group_name_H-M	'P1'
_symmetry_Int_Tables_number	1
_symmetry_cell_setting	triclinic
loop_
_symmetry_equiv_pos_as_xyz
  x,y,z
_cell_length_a	14.971475
_cell_length_b	14.971486
_cell_length_c	13.448316
_cell_angle_alpha	90.006811
_cell_angle_beta	90.005879
_cell_angle_gamma	83.611904
loop_
_atom_site_label
_atom_site_type_symbol
_atom_site_fract_x
_atom_site_fract_y
_atom_site_fract_z
O1	O	-1.186953	-0.116518	-0.082672
O2	O	-0.686953	0.383482	0.417328
O3	O	-0.926552	-0.130487	-0.082679
O4	O	-0.426552	0.369513	0.417321
O5	O	-1.063732	0.006697	-0.082668
O6	O	-0.563732	0.506697	0.417332
O7	O	-1.049773	-0.253703	-0.082683
O8	O	-0.549773	0.246297	0.417317
O9	O	-1.063715	0.006706	0.082716
O10	O	-0.563715	0.506706	0.582716
O11	O	-0.926535	-0.130479	0.082705
O12	O	-0.426535	0.369521	0.582705
O13	O	-1.186936	-0.116510	0.082712
O14	O	-0.686936	0.383490	0.582712
Cu15	Cu	-1.056734	-0.123494	0.097809
Cu16	Cu	-0.556734	0.376506	0.597809
Cu17	Cu	-1.056754	-0.123504	-0.097776
Cu18	Cu	-0.556754	0.376496	0.402224
O19	O	-1.049756	-0.253695	0.082701
O20	O	-0.549756	0.246305	0.582701
C21	C	-0.893218	-0.129860	0.000013
C22	C	-0.393218	0.370140	0.500013
C23	C	-0.793921	-0.127993	0.000010
C24	C	-0.293921	0.372007	0.500010
C25	C	-0.747267	-0.127109	0.090162
C26	C	-0.247267	0.372891	0.590162
C27	C	-0.653968	-0.125341	0.090162
C28	C	-0.153968	0.374659	0.590162
C29	C	-0.607324	-0.124463	0.000010
C30	C	-0.107324	0.375537	0.500010
C31	C	-0.653985	-0.125344	-0.090148
C32	C	-0.153985	0.374656	0.409852
C33	C	-0.747283	-0.127106	-0.090148
C34	C	-0.247283	0.372894	0.409852
C35	C	-0.459523	-0.121674	-0.090143
C36	C	0.040477	0.378326	0.409857
C37	C	-0.366218	-0.119914	-0.090144
C38	C	0.133782	0.380086	0.409856
C39	C	-0.366207	-0.119909	0.090167
C40	C	0.133793	0.380091	0.590167
C41	C	-0.459505	-0.121671	0.090168
C42	C	0.040495	0.378329	0.590168
C43	C	-0.506160	-0.122554	0.000009
C44	C	-0.006160	0.377446	0.500009
C45	C	-1.063099	0.040026	0.000024
C46	C	-0.563099	0.540026	0.500024
C47	C	-1.061228	0.139323	0.000023
C48	C	-0.561228	0.639323	0.500023
C49	C	-0.220269	-0.117144	0.000017
C50	C	0.279731	0.382856	0.500017
C51	C	-0.319564	-0.119030	0.000008
C52	C	0.180436	0.380970	0.500008
C53	C	-1.050389	-0.287024	0.000007
C54	C	-0.550389	0.212976	0.500007
C55	C	-1.052260	-0.386321	0.000002
C56	C	-0.552260	0.113679	0.500002
N57	N	-1.056726	-0.123486	0.235374
N58	N	-0.556726	0.376514	0.735374
C59	C	-1.141818	0.196552	0.000025
C60	C	-0.641818	0.696552	0.500025
C61	C	-1.140055	0.289851	0.000015
C62	C	-0.640055	0.789851	0.500015
C63	C	-1.057701	0.325920	0.000010
C64	C	-0.557701	0.825920	0.500010
C65	C	-0.977106	0.268685	0.000004
C66	C	-0.477106	0.768685	0.500004
C67	C	-0.978870	0.175387	0.000007
C68	C	-0.478870	0.675387	0.500007
C69	C	-0.973434	0.463147	0.000000
C70	C	-0.473434	0.963147	0.500000
C71	C	-0.971670	0.556451	-0.000001
C72	C	-0.471670	1.056451	0.499999
C73	C	-1.134620	0.577611	0.000009
C74	C	-0.634620	1.077611	0.500009
C75	C	-1.136384	0.484314	0.000012
C76	C	-0.636384	0.984314	0.500012
C77	C	-1.055788	0.427084	0.000008
C78	C	-0.555788	0.927084	0.500008
N79	N	-1.056769	-0.123504	-0.235340
N80	N	-0.556769	0.376496	0.264660
C81	C	-1.117488	-0.062766	0.287419
C82	C	-0.617488	0.437234	0.787419
C83	C	-1.117494	-0.062765	0.391522
C84	C	-0.617494	0.437235	0.891522
C85	C	-1.056741	-0.123490	0.443578
C86	C	-0.556741	0.376510	0.943578
C87	C	-0.995972	-0.184213	0.391526
C88	C	-0.495972	0.315787	0.891526
C89	C	-0.995963	-0.184209	0.287425
C90	C	-0.495963	0.315791	0.787425
C91	C	-0.995997	-0.184219	0.608506
C92	C	-0.495997	0.315781	1.108506
C93	C	-0.996007	-0.184225	0.712615
C94	C	-0.496007	0.315775	1.212615
C95	C	-1.117528	-0.062775	0.712603
C96	C	-0.617528	0.437225	1.212603
C97	C	-1.117519	-0.062771	0.608502
C98	C	-0.617519	0.437229	1.108502
C99	C	-1.056751	-0.123496	0.556457
C100	C	-0.556751	0.376504	1.056457
H101	H	-0.785268	-0.127828	-0.163558
H102	H	-0.285268	0.372172	0.336442
H103	H	-0.946483	-0.233652	0.245050
H104	H	-0.446483	0.266348	0.745050
H105	H	-0.946501	-0.233653	0.433916
H106	H	-0.446501	0.266347	0.933916
H107	H	-1.166970	-0.013321	0.433897
H108	H	-0.666970	0.486679	0.933897
Cl109	Cl	-0.873574	0.314029	-0.000015
Cl110	Cl	-0.373574	0.814029	0.499985
H111	H	-0.328243	-0.119199	-0.163553
H112	H	0.171757	0.380801	0.336447
Cl113	Cl	-0.595351	-0.124207	-0.203483
Cl114	Cl	-0.095351	0.375793	0.296517
Cl115	Cl	-0.805895	-0.128219	0.203503
Cl116	Cl	-0.305895	0.371781	0.703503
Cl117	Cl	-0.595319	-0.124246	0.203501
Cl118	Cl	-0.095319	0.375754	0.703501
Cl119	Cl	-1.245355	0.151218	0.000043
Cl120	Cl	-0.745355	0.651218	0.500043
H121	H	-0.497479	-0.122391	0.163578
H122	H	0.002521	0.377609	0.663578
Cl123	Cl	-0.868138	0.601794	-0.000007
Cl124	Cl	-0.368138	1.101794	0.499993
Cl125	Cl	-1.193873	0.013575	0.221988
Cl126	Cl	-0.693873	0.513575	0.721988
Cl127	Cl	-1.241373	0.361792	0.000022
Cl128	Cl	-0.741373	0.861792	0.500022
H129	H	-1.166993	-0.013329	0.566118
H130	H	-0.666993	0.486671	1.066118
Cl131	Cl	-1.239916	0.438971	0.000014
Cl132	Cl	-0.739916	0.938971	0.500014
H133	H	-0.328217	-0.119190	0.163578
H134	H	0.171783	0.380810	0.663578
H135	H	-0.907804	0.416552	-0.000005
H136	H	-0.407804	0.916552	0.499995
H137	H	-1.200244	0.624212	0.000009
H138	H	-0.700244	1.124212	0.500009
Cl139	Cl	-0.877552	0.103442	-0.000000
Cl140	Cl	-0.377552	0.603442	0.500000
Cl141	Cl	-1.193921	0.013562	0.778035
Cl142	Cl	-0.693921	0.513562	1.278035
Cl143	Cl	-0.919626	-0.260566	0.778049
Cl144	Cl	-0.419626	0.239434	1.278049
H145	H	-0.497506	-0.122393	-0.163560
H146	H	0.002494	0.377607	0.336440
Cl147	Cl	-0.919598	-0.260559	0.543082
Cl148	Cl	-0.419598	0.239441	1.043082
