data_functionalizedCrystal
_audit_creation_method	'MofGen! by Chris Wilmer'
_symmetry_space_group_name_H-M	'P1'
_symmetry_Int_Tables_number	1
_symmetry_cell_setting	triclinic
loop_
_symmetry_equiv_pos_as_xyz
  x,y,z
_cell_length_a	19.077236
_cell_length_b	17.637651
_cell_length_c	19.076919
_cell_angle_alpha	99.433464
_cell_angle_beta	90.112677
_cell_angle_gamma	102.996166
loop_
_atom_site_label
_atom_site_type_symbol
_atom_site_fract_x
_atom_site_fract_y
_atom_site_fract_z
Zn1	Zn	1.008868	-0.286804	0.386873
Zn2	Zn	0.991689	-0.413421	0.245673
Zn3	Zn	0.896155	-0.286390	0.264730
Zn4	Zn	0.867692	-0.423962	0.356438
O5	O	0.941101	-0.352644	0.313429
O6	O	1.105653	-0.299362	0.372904
O7	O	0.983739	-0.391985	0.150728
O8	O	0.930208	-0.175881	0.301646
O9	O	1.093032	-0.392387	0.269164
O10	O	1.013018	-0.176185	0.391383
O11	O	0.913550	-0.298656	0.164730
O12	O	0.793315	-0.308877	0.272135
O13	O	0.881697	-0.410352	0.457949
O14	O	0.772404	-0.409950	0.339512
O15	O	0.985418	-0.309583	0.480309
O16	O	0.956139	-0.525383	0.239653
O17	O	0.865039	-0.533127	0.321033
C18	C	0.757173	-0.360513	0.304589
C19	C	0.678484	-0.363899	0.300820
C20	C	0.648070	-0.317140	0.353114
C21	C	0.574134	-0.320318	0.349568
C22	C	0.530612	-0.370259	0.293730
C23	C	0.561031	-0.417020	0.241431
C24	C	0.634966	-0.413837	0.244975
C25	C	0.308786	-0.384957	0.277330
C26	C	0.234846	-0.388138	0.273791
C27	C	0.247954	-0.291434	0.381928
C28	C	0.321890	-0.288260	0.385469
C29	C	0.352303	-0.335018	0.333168
N30	N	0.455037	-0.373510	0.290105
N31	N	0.427877	-0.331762	0.336791
C32	C	0.905655	-0.557923	0.274989
C33	C	0.890554	-0.645741	0.258570
C34	C	1.056267	-0.935079	0.438399
C35	C	1.042056	-1.017597	0.422959
C36	C	0.955891	-1.017381	0.329432
C37	C	0.970097	-0.934861	0.344862
C38	C	1.020286	-0.893716	0.399348
C39	C	0.934116	-0.893498	0.305811
C40	C	0.948318	-0.810985	0.321243
C41	C	0.998503	-0.769835	0.375727
C42	C	1.034488	-0.811203	0.414780
C43	C	0.883924	-0.934644	0.251329
C44	C	0.847942	-0.893281	0.212277
C45	C	0.862148	-0.810767	0.227706
C46	C	0.912333	-0.769617	0.282190
C47	C	0.826163	-0.769398	0.188653
C48	C	0.840366	-0.686885	0.204085
C49	C	0.926536	-0.687104	0.297622
C50	C	1.125747	-0.344745	0.322303
C51	C	1.204432	-0.341379	0.326085
C52	C	0.932299	-0.361189	0.495109
C53	C	0.928548	-0.364831	0.572530
C54	C	0.976704	-0.146563	0.352035
C55	C	0.991876	-0.058744	0.368487
C56	C	0.949919	-0.344073	0.132468
C57	C	0.953846	-0.340203	0.055095
C58	C	0.980785	-0.314079	0.620545
C59	C	0.977253	-0.317498	0.693291
C60	C	0.921485	-0.371673	0.718019
C61	C	0.869243	-0.422427	0.669999
C62	C	0.872773	-0.419004	0.597255
C63	C	0.905134	-0.387534	0.934331
C64	C	0.901609	-0.390955	1.007080
C65	C	1.009618	-0.286024	1.030368
C66	C	1.013146	-0.282609	0.957621
C67	C	0.960902	-0.333360	0.909607
N68	N	0.917874	-0.375171	0.792377
N69	N	0.964510	-0.329858	0.835252
H70	H	0.223184	-0.253366	0.424507
H71	H	0.549375	-0.282243	0.392152
H72	H	1.071350	-1.051273	0.454773
C73	C	0.369763	-0.233319	0.446890
C74	C	0.336310	-0.181881	0.504412
C75	C	0.384183	-0.126941	0.565834
C76	C	0.465510	-0.123441	0.569734
C77	C	0.498967	-0.174881	0.512210
C78	C	0.451094	-0.229821	0.450788
H79	H	0.276104	-0.184470	0.501526
H80	H	0.359416	-0.088862	0.608417
H81	H	0.500948	-0.082771	0.615202
H82	H	0.559173	-0.172292	0.515095
H83	H	0.475861	-0.267900	0.408205
H84	H	1.052152	-0.244705	1.069468
H85	H	0.807077	-0.926793	0.167917
H86	H	0.199411	-0.428810	0.228320
C87	C	0.840257	-0.450561	1.034268
C88	C	0.788161	-0.421073	1.088019
C89	C	0.726814	-0.480682	1.115201
C90	C	0.717564	-0.569780	1.088631
C91	C	0.769662	-0.599272	1.034877
C92	C	0.831009	-0.539663	1.007695
H93	H	0.795007	-0.355114	1.107691
H94	H	0.688248	-0.458849	1.154993
H95	H	0.672151	-0.613906	1.108752
H96	H	0.762815	-0.665231	1.015205
H97	H	0.869575	-0.561496	0.967903
H98	H	0.915026	-1.050892	0.285072
C99	C	0.981750	-0.641832	0.357550
C100	C	1.060564	-0.649401	0.353681
C101	C	1.115776	-0.604127	0.413604
C102	C	1.092175	-0.551285	0.477395
C103	C	1.013358	-0.543715	0.481266
C104	C	0.958146	-0.588988	0.421343
H105	H	1.078038	-0.688520	0.306457
H106	H	1.174122	-0.609732	0.410739
H107	H	1.133047	-0.517771	0.521754
H108	H	0.995884	-0.504596	0.528490
H109	H	0.899800	-0.583383	0.424209
H110	H	1.075362	-0.777701	0.459142
C111	C	1.034716	-0.261675	0.746110
C112	C	1.012334	-0.203306	0.806263
C113	C	1.069798	-0.147481	0.859084
C114	C	1.149645	-0.150024	0.851752
C115	C	1.172030	-0.208395	0.791597
C116	C	1.114566	-0.264221	0.738775
H117	H	0.953223	-0.201421	0.811693
H118	H	1.053226	-0.104270	0.903616
H119	H	1.192183	-0.108699	0.890854
H120	H	1.231141	-0.210280	0.786167
H121	H	1.131138	-0.307431	0.694244
H122	H	1.097141	-0.901577	0.482762
H123	H	0.333539	-0.423031	0.234743
H124	H	1.010066	-0.702647	0.388290
H125	H	0.785295	-0.802911	0.144296
C126	C	0.868328	-1.025410	0.234389
C127	C	0.929456	-1.066964	0.211327
C128	C	0.913874	-1.157730	0.194406
C129	C	0.837164	-1.206941	0.200548
C130	C	0.776031	-1.165387	0.223611
C131	C	0.791612	-1.074622	0.240532
H132	H	0.986246	-1.030535	0.206780
H133	H	0.959129	-1.188491	0.177334
H134	H	0.825630	-1.274131	0.188022
H135	H	0.719241	-1.201817	0.228158
H136	H	0.746357	-1.043861	0.257604
C137	C	0.847657	-0.443366	0.881536
C138	C	0.767814	-0.440821	0.888902
C139	C	0.710328	-0.496658	0.836110
C140	C	0.732686	-0.555038	0.775951
C141	C	0.812533	-0.557585	0.768582
C142	C	0.870019	-0.501749	0.821374
H143	H	0.751260	-0.397603	0.933438
H144	H	0.651220	-0.494772	0.841565
H145	H	0.690132	-0.596372	0.736871
H146	H	0.829087	-0.600804	0.724046
H147	H	0.929127	-0.503634	0.815918
C148	C	1.042131	-0.254484	0.593347
C149	C	1.051384	-0.165383	0.619898
C150	C	1.112730	-0.105785	0.592702
C151	C	1.164823	-0.135288	0.538956
C152	C	1.155572	-0.224394	0.512402
C153	C	1.094226	-0.283992	0.539598
H154	H	1.012820	-0.143539	0.659687
H155	H	1.119578	-0.039823	0.612360
H156	H	1.210235	-0.091170	0.518825
H157	H	1.194136	-0.246238	0.472613
H158	H	1.087378	-0.349954	0.519940
H159	H	0.811065	-0.653208	0.172285
H160	H	0.525590	-0.457679	0.195964
H161	H	0.659728	-0.451913	0.202391
C162	C	0.815317	-0.474836	0.544432
C163	C	0.768080	-0.440626	0.498160
C164	C	0.710622	-0.496458	0.445336
C165	C	0.700401	-0.586501	0.438785
C166	C	0.747639	-0.620716	0.485059
C167	C	0.805097	-0.564884	0.537882
H168	H	0.775645	-0.373967	0.503008
H169	H	0.675654	-0.471130	0.411081
H170	H	0.657867	-0.627831	0.399682
H171	H	0.740074	-0.687375	0.480211
H172	H	0.840066	-0.590212	0.572137
C173	C	0.695941	-0.262203	0.414538
C174	C	0.662484	-0.210766	0.472058
C175	C	0.710354	-0.155825	0.533482
C176	C	0.791680	-0.152322	0.537386
C177	C	0.825142	-0.203761	0.479865
C178	C	0.777272	-0.258702	0.418441
H179	H	0.602278	-0.213358	0.469169
H180	H	0.685583	-0.117747	0.576063
H181	H	0.827116	-0.111652	0.582856
H182	H	0.885348	-0.201169	0.482753
H183	H	0.802043	-0.296780	0.375859
H184	H	1.058560	-0.238496	0.937493
H185	H	0.823833	-0.466535	0.690139
