data_functionalizedCrystal
_audit_creation_method	'MofGen! by Chris Wilmer'
_symmetry_space_group_name_H-M	'P1'
_symmetry_Int_Tables_number	1
_symmetry_cell_setting	triclinic
loop_
_symmetry_equiv_pos_as_xyz
  x,y,z
_cell_length_a	12.759401
_cell_length_b	12.645330
_cell_length_c	12.759393
_cell_angle_alpha	89.969902
_cell_angle_beta	89.981504
_cell_angle_gamma	90.017969
loop_
_atom_site_label
_atom_site_type_symbol
_atom_site_fract_x
_atom_site_fract_y
_atom_site_fract_z
Zn1	Zn	1.606233	-0.421968	-0.593994
Zn2	Zn	2.106233	0.078032	-0.093994
Zn3	Zn	1.606118	-0.599273	-0.418318
Zn4	Zn	2.106118	-0.099273	0.081682
Zn5	Zn	1.430535	-0.422024	-0.418333
Zn6	Zn	1.930535	0.077976	0.081667
Zn7	Zn	1.430515	-0.599191	-0.593960
Zn8	Zn	1.930515	-0.099191	-0.093960
O9	O	1.518350	-0.510614	-0.506151
O10	O	2.018350	-0.010614	-0.006151
O11	O	1.753239	-0.445499	-0.570698
O12	O	2.253239	0.054501	-0.070698
O13	O	1.582788	-0.575818	-0.271299
O14	O	2.082788	-0.075818	0.228701
O15	O	1.453899	-0.273670	-0.441655
O16	O	1.953899	0.226330	0.058345
O17	O	1.753155	-0.575763	-0.441630
O18	O	2.253155	-0.075763	0.058370
O19	O	1.582983	-0.273629	-0.570712
O20	O	2.082983	0.226371	-0.070712
O21	O	1.453787	-0.445594	-0.271310
O22	O	1.953787	0.054406	0.228690
O23	O	1.283511	-0.445515	-0.441622
O24	O	1.783511	0.054485	0.058378
O25	O	1.453863	-0.575625	-0.740985
O26	O	1.953863	-0.075625	-0.240985
O27	O	1.283496	-0.575679	-0.570654
O28	O	1.783496	-0.075679	-0.070654
O29	O	1.582963	-0.445420	-0.741010
O30	O	2.082963	0.054580	-0.241010
O31	O	1.582768	-0.747609	-0.441597
O32	O	2.082768	-0.247609	0.058403
O33	O	1.453752	-0.747549	-0.570640
O34	O	1.953752	-0.247549	-0.070640
C35	C	1.245383	-0.510595	-0.506137
C36	C	1.745383	-0.010595	-0.006137
C37	C	1.128606	-0.510613	-0.506155
C38	C	1.628606	-0.010613	-0.006155
C39	C	1.518274	-0.786044	-0.506136
C40	C	2.018274	-0.286044	-0.006136
C41	C	1.518337	-0.903874	-0.506165
C42	C	2.018337	-0.403874	-0.006165
C43	C	0.964033	-0.578508	-0.573244
C44	C	1.464033	-0.078508	-0.073244
C45	C	1.073757	-0.578496	-0.573233
C46	C	1.573757	-0.078496	-0.073233
C47	C	1.073726	-0.442744	-0.439077
C48	C	1.573726	0.057256	0.060923
C49	C	0.964004	-0.442762	-0.439083
C50	C	1.464004	0.057238	0.060917
C51	C	1.437508	-1.071444	-0.587596
C52	C	1.937508	-0.571444	-0.087596
C53	C	1.437095	-0.948885	-0.587335
C54	C	1.937095	-0.448885	-0.087335
C55	C	1.488364	-0.948478	-0.395444
C56	C	1.988364	-0.448478	0.104556
C57	C	1.487870	-1.071077	-0.395938
C58	C	1.987870	-0.571077	0.104062
C59	C	1.629634	-1.070960	-0.534558
C60	C	2.129634	-0.570960	-0.034558
C61	C	1.628952	-0.948353	-0.536979
C62	C	2.128952	-0.448353	-0.036979
C63	C	1.792384	-0.510634	-0.506166
C64	C	2.292384	-0.010634	-0.006166
C65	C	1.909160	-0.510642	-0.506173
C66	C	2.409160	-0.010642	-0.006173
C67	C	1.518424	-0.510507	-0.780185
C68	C	2.018424	-0.010507	-0.280185
C69	C	1.518455	-0.510461	-0.896961
C70	C	2.018455	-0.010461	-0.396961
C71	C	1.518456	-0.234109	-0.506189
C72	C	2.018456	0.265891	-0.006189
C73	C	1.518501	-0.116279	-0.506205
C74	C	2.018501	0.383721	-0.006205
C75	C	1.451309	-0.442642	-0.951828
C76	C	1.951309	0.057358	-0.451828
C77	C	1.451333	-0.442609	-1.061553
C78	C	1.951333	0.057391	-0.561553
C79	C	1.585659	-0.578219	-1.061533
C80	C	2.085659	-0.078219	-0.561533
C81	C	1.585629	-0.578256	-0.951811
C82	C	2.085629	-0.078256	-0.451811
C83	C	1.518338	-0.510644	-0.233184
C84	C	2.018338	-0.010644	0.266816
C85	C	1.518510	-0.510392	-0.116408
C86	C	2.018510	-0.010392	0.383592
H87	H	0.919382	-0.633781	-0.627872
H88	H	1.419382	-0.133781	-0.127872
H89	H	1.640350	-0.633414	-1.106205
H90	H	2.140350	-0.133414	-0.606205
H91	H	1.406631	-1.099771	-0.371919
H92	H	1.906631	-0.599771	0.128081
F93	F	1.563023	-0.910376	-0.314010
F94	F	2.063023	-0.410376	0.185990
F95	F	1.461789	-1.109880	-0.695261
F96	F	1.961789	-0.609880	-0.195261
F97	F	1.379855	-0.370437	-1.119941
F98	F	1.879855	0.129563	-0.619941
H99	H	1.640310	-0.633487	-0.907137
H100	H	2.140310	-0.133487	-0.407137
F101	F	0.905601	-0.370529	-0.367690
F102	F	1.405601	0.129471	0.132310
F103	F	1.132104	-0.370501	-0.367683
F104	F	1.632104	0.129499	0.132317
F105	F	1.132152	-0.650731	-0.644617
F106	F	1.632152	-0.150731	-0.144617
H107	H	1.355634	-1.102347	-0.569053
H108	H	1.855634	-0.602347	-0.069053
F109	F	1.461603	-0.909458	-0.694645
F110	F	1.961603	-0.409458	-0.194645
H111	H	1.544302	-1.100739	-0.333227
H112	H	2.044302	-0.600739	0.166773
F113	F	1.329405	-0.910671	-0.562788
F114	F	1.829405	-0.410671	-0.062788
H115	H	1.407972	-0.917870	-0.370990
H116	H	1.907972	-0.417870	0.129010
H117	H	1.651555	-0.919195	-0.618464
H118	H	2.151555	-0.419195	-0.118464
F119	F	1.665373	-1.111264	-0.638294
F120	F	2.165373	-0.611264	-0.138294
H121	H	1.692473	-0.917707	-0.482014
H122	H	2.192473	-0.417707	0.017986
F123	F	1.708509	-1.108873	-0.457087
F124	F	2.208509	-0.608873	0.042913
F125	F	1.379814	-0.370492	-0.893457
F126	F	1.879814	0.129508	-0.393457
