data_functionalizedCrystal
_audit_creation_method	'MofGen! by Chris Wilmer'
_symmetry_space_group_name_H-M	'P1'
_symmetry_Int_Tables_number	1
_symmetry_cell_setting	triclinic
loop_
_symmetry_equiv_pos_as_xyz
  x,y,z
_cell_length_a	15.297475
_cell_length_b	21.395361
_cell_length_c	21.395355
_cell_angle_alpha	89.978489
_cell_angle_beta	99.687451
_cell_angle_gamma	99.667694
loop_
_atom_site_label
_atom_site_type_symbol
_atom_site_fract_x
_atom_site_fract_y
_atom_site_fract_z
Zn1	Zn	1.379208	0.415565	0.519713
Zn2	Zn	1.379067	0.520308	0.414914
Zn3	Zn	1.228329	0.397400	0.396849
Zn4	Zn	1.228285	0.502138	0.501564
O5	O	1.303722	0.458853	0.458260
O6	O	1.505435	0.444666	0.520967
O7	O	1.359031	0.504006	0.324835
O8	O	1.248421	0.312141	0.413183
O9	O	1.505332	0.521620	0.443971
O10	O	1.359271	0.325487	0.503451
O11	O	1.248285	0.413706	0.311563
O12	O	1.102077	0.396087	0.395584
O13	O	1.248345	0.490652	0.591655
O14	O	1.102045	0.473038	0.472518
O15	O	1.359228	0.427047	0.604989
O16	O	1.358988	0.605566	0.426373
O17	O	1.248209	0.592217	0.490034
C18	C	1.069327	0.430620	0.430122
C19	C	0.969051	0.418557	0.418099
C20	C	1.303603	0.621626	0.458211
C21	C	1.303635	0.691271	0.458221
C22	C	1.303797	0.458849	0.621692
C23	C	1.303829	0.458847	0.691338
C24	C	0.686423	0.545073	0.544191
C25	C	0.780637	0.556412	0.555485
C26	C	0.827745	0.521949	0.521140
C27	C	0.780630	0.476146	0.475498
C28	C	0.686407	0.464810	0.464199
C29	C	0.827729	0.441685	0.441148
C30	C	0.780614	0.395882	0.395506
C31	C	0.686401	0.384548	0.384209
C32	C	0.639293	0.419011	0.418555
C33	C	0.921952	0.453021	0.452447
C34	C	0.921936	0.372758	0.372455
C35	C	0.827723	0.361420	0.361161
C36	C	1.539033	0.487196	0.486509
C37	C	1.639309	0.499274	0.498546
C38	C	1.303866	0.295447	0.458326
C39	C	1.303928	0.225813	0.458354
C40	C	1.361369	0.730920	0.425119
C41	C	1.361411	0.796361	0.425138
C42	C	1.303703	0.822147	0.458250
C43	C	1.245965	0.782490	0.491359
C44	C	1.245931	0.717051	0.491344
C45	C	1.222472	0.916083	0.453415
C46	C	1.222504	0.981519	0.453425
C47	C	1.303808	1.023981	0.458300
C48	C	1.385081	1.000998	0.463151
C49	C	1.385047	0.935559	0.463136
C50	C	1.303733	0.893103	0.458270
C51	C	1.361592	1.134589	0.425217
C52	C	1.361635	1.200031	0.425241
C53	C	1.246181	1.186157	0.491458
C54	C	1.246146	1.120717	0.491438
C55	C	1.303850	1.094937	0.458315
C56	C	1.303700	0.458817	0.295470
C57	C	1.303842	0.458663	0.225846
C58	C	1.361563	0.425726	0.730994
C59	C	1.361562	0.425699	0.796430
C60	C	1.303836	0.458806	0.822207
C61	C	1.246091	0.491928	0.782541
C62	C	1.246087	0.491949	0.717106
C63	C	1.296671	0.514358	0.925010
C64	C	1.296681	0.514339	0.990444
C65	C	1.303842	0.458740	1.024028
C66	C	1.311011	0.403161	0.992173
C67	C	1.311008	0.403181	0.926738
C68	C	1.303833	0.458786	0.893159
C69	C	1.361577	0.425587	1.134638
C70	C	1.361570	0.425558	1.200074
C71	C	1.246104	0.491793	1.186184
C72	C	1.246106	0.491815	1.120749
C73	C	1.303848	0.458714	1.094980
H74	H	0.960304	0.490314	0.489609
H75	H	1.199198	1.207152	0.518421
Br76	Br	0.985861	0.325989	0.325835
Br77	Br	1.495341	0.904369	0.469725
H78	H	1.290599	0.559593	0.897642
Br79	Br	0.955609	0.537337	0.536469
Br80	Br	1.439693	0.695937	0.380176
H81	H	0.648059	0.573132	0.572146
Br82	Br	1.167750	0.536769	1.066925
H83	H	1.156326	1.000227	0.449469
H84	H	1.199130	1.088432	0.518390
Br85	Br	0.844573	0.618572	0.617422
H86	H	1.408428	0.828650	0.398184
H87	H	0.562576	0.409780	0.409363
H88	H	1.156260	0.881515	0.449447
Br89	Br	1.495429	1.058616	0.469757
Br90	Br	1.167748	0.536714	1.221158
H91	H	0.648042	0.347259	0.347038
Br92	Br	1.439899	1.099597	0.380263
Br93	Br	1.439923	0.380800	0.696025
H94	H	1.316844	0.357887	1.019516
H95	H	1.199087	0.518881	0.803532
H96	H	1.290849	0.559596	1.016376
Br97	Br	1.167726	0.536901	0.663282
Br98	Br	1.439898	0.380728	0.850258
H99	H	0.789348	0.324126	0.323998
Br100	Br	1.440005	1.253844	0.380321
Br101	Br	1.167653	0.817484	0.536303
H102	H	1.198916	0.684767	0.518300
Br103	Br	1.320733	0.327756	0.883506
Br104	Br	1.439936	0.380662	1.099662
Br105	Br	1.439944	0.380615	1.253898
