data_functionalizedCrystal
_audit_creation_method	'MofGen! by Chris Wilmer'
_symmetry_space_group_name_H-M	'P1'
_symmetry_Int_Tables_number	1
_symmetry_cell_setting	triclinic
loop_
_symmetry_equiv_pos_as_xyz
  x,y,z
_cell_length_a	19.188925
_cell_length_b	19.188930
_cell_length_c	18.266242
_cell_angle_alpha	89.977180
_cell_angle_beta	89.995215
_cell_angle_gamma	83.143665
loop_
_atom_site_label
_atom_site_type_symbol
_atom_site_fract_x
_atom_site_fract_y
_atom_site_fract_z
O1	O	0.087168	0.926148	-0.061116
O2	O	0.587168	1.426148	0.438884
O3	O	0.098902	0.722836	-0.061065
O4	O	0.598902	1.222836	0.438935
O5	O	-0.008621	0.830361	-0.061088
O6	O	0.491379	1.330361	0.438912
O7	O	0.194691	0.818623	-0.061093
O8	O	0.694691	1.318623	0.438907
O9	O	-0.008624	0.830343	0.060674
O10	O	0.491376	1.330343	0.560674
O11	O	0.098899	0.722818	0.060697
O12	O	0.598899	1.222818	0.560697
O13	O	0.087165	0.926129	0.060646
O14	O	0.587165	1.426129	0.560646
Zn15	Zn	0.093031	0.824471	0.080004
Zn16	Zn	0.593031	1.324471	0.580004
Zn17	Zn	0.093035	0.824495	-0.080423
Zn18	Zn	0.593035	1.324495	0.419577
O19	O	0.194688	0.818604	0.060669
O20	O	0.694688	1.318604	0.560669
C21	C	0.098520	0.696816	-0.000178
C22	C	0.598520	1.196816	0.499822
C23	C	0.097380	0.619311	-0.000159
C24	C	0.597380	1.119311	0.499841
C25	C	-0.034634	0.829972	-0.000207
C26	C	0.465366	1.329972	0.499793
C27	C	-0.112138	0.828833	-0.000209
C28	C	0.387862	1.328833	0.499791
C29	C	-0.673909	0.884297	-0.000241
C30	C	-0.173909	1.384297	0.499759
C31	C	-0.601085	0.885374	-0.000234
C32	C	-0.101085	1.385374	0.499766
C33	C	-0.556151	0.822282	-0.000219
C34	C	-0.056151	1.322282	0.499781
C35	C	-0.584045	0.758108	-0.000191
C36	C	-0.084045	1.258108	0.499809
C37	C	-0.656867	0.757033	-0.000190
C38	C	-0.156867	1.257033	0.499810
N39	N	-0.435469	0.776612	-0.041652
N40	N	0.064531	1.276612	0.458348
N41	N	-0.366292	0.777637	-0.041655
N42	N	0.133708	1.277637	0.458345
C43	C	-0.336742	0.825516	-0.000220
C44	C	0.163258	1.325516	0.499780
N45	N	-0.378984	0.872341	0.041208
N46	N	0.121016	1.372341	0.541208
N47	N	-0.448167	0.871318	0.041207
N48	N	0.051833	1.371318	0.541207
C49	C	-0.477187	0.823440	-0.000220
C50	C	0.022813	1.323440	0.499780
C51	C	-0.229893	0.890852	-0.000236
C52	C	0.270107	1.390852	0.499764
C53	C	-0.157068	0.891926	-0.000225
C54	C	0.342932	1.391926	0.499775
C55	C	-0.140029	0.764659	-0.000189
C56	C	0.359971	1.264659	0.499811
C57	C	-0.212852	0.763587	-0.000193
C58	C	0.287148	1.263587	0.499807
C59	C	-0.257780	0.826685	-0.000220
C60	C	0.242220	1.326685	0.499780
C61	C	0.160471	0.574386	-0.000172
C62	C	0.660471	1.074386	0.499828
C63	C	0.159399	0.501563	-0.000180
C64	C	0.659399	1.001563	0.499820
C65	C	0.095233	0.473667	-0.000189
C66	C	0.595233	0.973667	0.499811
C67	C	0.032134	0.518602	-0.000172
C68	C	0.532134	1.018602	0.499828
C69	C	0.033207	0.591424	-0.000157
C70	C	0.533207	1.091424	0.499843
N71	N	0.046187	0.365694	-0.041659
N72	N	0.546187	0.865694	0.458341
N73	N	0.045171	0.296516	-0.041675
N74	N	0.545171	0.796516	0.458325
C75	C	0.091995	0.254259	-0.000234
C76	C	0.591995	0.754259	0.499766
N77	N	0.139883	0.283792	0.041214
N78	N	0.639883	0.783792	0.541214
N79	N	0.140900	0.352977	0.041227
N80	N	0.640900	0.852977	0.541227
C81	C	0.094062	0.394705	-0.000206
C82	C	0.594062	0.894705	0.499794
C83	C	0.153928	0.130369	-0.000255
C84	C	0.653928	0.630369	0.499745
C85	C	0.152854	0.057544	-0.000258
C86	C	0.652854	0.557544	0.499742
C87	C	0.025586	0.074586	-0.000258
C88	C	0.525586	0.574586	0.499742
C89	C	0.026663	0.147409	-0.000247
C90	C	0.526663	0.647409	0.499753
C91	C	0.090835	0.175296	-0.000249
C92	C	0.590835	0.675296	0.499751
C93	C	0.220700	0.818993	-0.000213
C94	C	0.720700	1.318993	0.499787
C95	C	0.298205	0.820132	-0.000217
C96	C	0.798205	1.320132	0.499783
C97	C	0.087546	0.952150	-0.000243
C98	C	0.587546	1.452150	0.499757
C99	C	0.088687	1.029654	-0.000267
C100	C	0.588687	1.529654	0.499733
N101	N	0.093028	0.824459	0.189491
N102	N	0.593028	1.324459	0.689491
N103	N	0.093033	0.824512	-0.189910
N104	N	0.593033	1.324512	0.310090
C105	C	0.135274	0.866668	0.227781
C106	C	0.635274	1.366668	0.727781
C107	C	0.135272	0.866679	0.304426
C108	C	0.635272	1.366679	0.804426
C109	C	0.093032	0.824470	0.342778
C110	C	0.593032	1.324470	0.842778
C111	C	0.050778	0.782259	0.304478
C112	C	0.550778	1.282259	0.804478
C113	C	0.050776	0.782253	0.227834
C114	C	0.550776	1.282253	0.727834
N115	N	0.091312	0.763322	0.463145
N116	N	0.591312	1.263322	0.963145
N117	N	0.091318	0.763328	0.535953
N118	N	0.591318	1.263328	1.035953
C119	C	0.093035	0.824483	0.573700
C120	C	0.593035	1.324483	1.073700
N121	N	0.094759	0.885632	0.535888
N122	N	0.594759	1.385632	1.035888
N123	N	0.094757	0.885625	0.463073
N124	N	0.594757	1.385625	0.963073
C125	C	0.093030	0.824471	0.425885
C126	C	0.593030	1.324471	0.925885
C127	C	0.135281	0.866708	0.695098
C128	C	0.635281	1.366708	1.195098
C129	C	0.135274	0.866721	0.771744
C130	C	0.635274	1.366721	1.271744
C131	C	0.050784	0.782294	0.771794
C132	C	0.550784	1.282294	1.271794
C133	C	0.050787	0.782287	0.695149
C134	C	0.550787	1.282287	1.195149
C135	C	0.093039	0.824493	0.656806
C136	C	0.593039	1.324493	1.156806
H137	H	-0.578376	0.937626	-0.000253
H138	H	-0.078376	1.437626	0.499747
H139	H	-0.679571	0.704781	-0.000169
H140	H	-0.179571	1.204781	0.499831
H141	H	-0.024713	0.183988	-0.000241
H142	H	0.475287	0.683988	0.499759
C143	C	0.228960	0.202348	0.062356
C144	C	0.728960	0.702348	0.562356
C145	C	0.224464	0.161029	-0.000244
C146	C	0.724464	0.661029	0.499756
H147	H	0.272505	0.221277	0.062360
H148	H	0.772505	0.721277	0.562360
H149	H	0.225894	0.174270	0.104803
H150	H	0.725894	0.674270	0.604803
H151	H	0.191535	0.239528	0.062350
H152	H	0.691535	0.739528	0.562350
H153	H	0.261887	0.123846	-0.000236
H154	H	0.761887	0.623846	0.499764
H155	H	0.227538	0.189108	-0.042703
H156	H	0.727538	0.689108	0.457297
C157	C	0.218631	0.678446	-0.000185
C158	C	0.718631	1.178446	0.499815
C159	C	0.231008	0.605040	-0.000190
C160	C	0.731008	1.105040	0.499810
H161	H	0.262178	0.697370	-0.000206
H162	H	0.762178	1.197370	0.499794
H163	H	0.192681	0.693858	0.042284
H164	H	0.692681	1.193858	0.542284
H165	H	0.192647	0.693894	-0.042638
H166	H	0.692647	1.193894	0.457362
H167	H	0.256987	0.589592	0.042267
H168	H	0.756987	1.089592	0.542267
H169	H	0.256969	0.589622	-0.042663
H170	H	0.756969	1.089622	0.457337
C171	C	0.218785	0.950122	0.235436
C172	C	0.718785	1.450122	0.735436
C173	C	0.181708	0.913069	0.185635
C174	C	0.681708	1.413069	0.685635
H175	H	0.247446	0.978773	0.209414
H176	H	0.747446	1.478773	0.709414
H177	H	0.247476	0.917904	0.265337
H178	H	0.747476	1.417904	0.765337
H179	H	0.186575	0.978830	0.265324
H180	H	0.686575	1.478830	0.765324
H181	H	0.213918	0.884358	0.155751
H182	H	0.713918	1.384358	0.655751
H183	H	0.153014	0.945291	0.155721
H184	H	0.653014	1.445291	0.655721
H185	H	-0.266475	0.942231	-0.000257
H186	H	0.233525	1.442231	0.499743
H187	H	0.169684	0.901075	0.663876
H188	H	0.669684	1.401075	1.163876
H189	H	0.210777	0.464977	-0.000189
H190	H	0.710777	0.964977	0.499811
C191	C	-0.026019	0.414536	-0.000209
C192	C	0.473981	0.914536	0.499791
C193	C	-0.038400	0.487943	-0.000187
C194	C	0.461600	0.987943	0.499813
H195	H	-0.069566	0.395611	-0.000220
H196	H	0.430434	0.895611	0.499780
H197	H	-0.000057	0.399080	0.042247
H198	H	0.499943	0.899080	0.542247
H199	H	-0.000048	0.399135	-0.042676
H200	H	0.499952	0.899135	0.457324
H201	H	-0.064367	0.503344	0.042283
H202	H	0.435633	1.003344	0.542283
H203	H	-0.064373	0.503405	-0.042647
H204	H	0.435627	1.003405	0.457353
C205	C	0.225484	-0.034266	0.062313
C206	C	0.725484	0.465734	0.562313
C207	C	0.222209	0.008158	-0.000273
C208	C	0.722209	0.508158	0.499727
H209	H	0.268304	-0.064753	0.062303
H210	H	0.768304	0.435247	0.562303
H211	H	0.187119	-0.061296	0.062308
H212	H	0.687119	0.438704	0.562308
H213	H	0.223262	-0.005519	0.104774
H214	H	0.723262	0.494481	0.604774
H215	H	0.224425	-0.020590	-0.042735
H216	H	0.724425	0.479410	0.457265
H217	H	0.260584	0.035190	-0.000275
H218	H	0.760584	0.535190	0.499725
C219	C	0.013313	0.744730	0.421989
C220	C	0.513313	1.244730	0.921989
C221	C	0.004350	0.735857	0.346629
C222	C	0.504350	1.235857	0.846629
H223	H	-0.015350	0.716081	0.448009
H224	H	0.484650	1.216081	0.948009
H225	H	0.000245	0.792532	0.434554
H226	H	0.500245	1.292532	0.934554
H227	H	0.061124	0.731584	0.434514
H228	H	0.561124	1.231584	0.934514
H229	H	-0.043461	0.749009	0.334104
H230	H	0.456539	1.249009	0.834104
H231	H	0.017413	0.688046	0.334059
H232	H	0.517413	1.188046	0.834059
C233	C	0.139417	0.960568	0.390579
C234	C	0.639417	1.460568	0.890579
C235	C	0.181714	0.913075	0.346527
C236	C	0.681714	1.413075	0.846527
H237	H	0.168090	0.989212	0.416565
H238	H	0.668090	1.489212	0.916565
H239	H	0.114262	0.935431	0.424380
H240	H	0.614262	1.435431	0.924380
H241	H	0.107220	0.989280	0.360663
H242	H	0.607220	1.489280	0.860663
H243	H	0.213908	0.884360	0.376444
H244	H	0.713908	1.384360	0.876444
H245	H	0.206881	0.938214	0.312723
H246	H	0.706881	1.438214	0.812723
H247	H	-0.134365	0.944179	-0.000240
H248	H	0.365635	1.444179	0.499760
H249	H	0.016374	0.747881	0.196659
H250	H	0.516374	1.247881	0.696659
H251	H	0.169673	0.901097	0.802919
H252	H	0.669673	1.401097	1.302919
H253	H	-0.018171	0.628003	-0.000147
H254	H	0.481829	1.128003	0.499853
H255	H	-0.026659	0.051874	-0.000311
H256	H	0.473341	0.551874	0.499689
C257	C	-0.032717	0.698831	0.702900
C258	C	0.467283	1.198831	1.202900
C259	C	0.004357	0.735881	0.653055
C260	C	0.504357	1.235881	1.153055
H261	H	-0.061380	0.670179	0.676912
H262	H	0.438620	1.170179	1.176912
H263	H	-0.061407	0.731052	0.732778
H264	H	0.438593	1.231052	1.232778
H265	H	-0.000506	0.670127	0.732807
H266	H	0.499494	1.170127	1.232807
H267	H	-0.027854	0.764590	0.623152
H268	H	0.472146	1.264590	1.123152
H269	H	0.033049	0.703656	0.623165
H270	H	0.533049	1.203656	1.123165
H271	H	0.016391	0.747927	0.803019
H272	H	0.516391	1.247927	1.303019
H273	H	-0.547455	0.706738	-0.000176
H274	H	-0.047455	1.206738	0.499824
C275	C	-0.710839	0.992452	-0.062864
C276	C	-0.210839	1.492452	0.437136
C277	C	-0.723289	0.953657	-0.000261
C278	C	-0.223289	1.453657	0.499739
H279	H	-0.741322	1.035274	-0.062871
H280	H	-0.241322	1.535274	0.437129
H281	H	-0.719279	0.966138	-0.105309
H282	H	-0.219279	1.466138	0.394691
H283	H	-0.663474	1.002265	-0.062861
H284	H	-0.163474	1.502265	0.437139
H285	H	-0.770653	0.943840	-0.000266
H286	H	-0.270653	1.443840	0.499734
H287	H	-0.714854	0.979977	0.042195
H288	H	-0.214854	1.479977	0.542195
H289	H	-0.103444	0.713288	-0.000170
H290	H	0.396556	1.213288	0.499830
H291	H	-0.235557	0.711337	-0.000179
H292	H	0.264443	1.211337	0.499821
