data_functionalizedCrystal
_audit_creation_method	'MofGen! by Chris Wilmer'
_symmetry_space_group_name_H-M	'P1'
_symmetry_Int_Tables_number	1
_symmetry_cell_setting	triclinic
loop_
_symmetry_equiv_pos_as_xyz
  x,y,z
_cell_length_a	17.639617
_cell_length_b	16.625546
_cell_length_c	17.640968
_cell_angle_alpha	101.233484
_cell_angle_beta	109.666032
_cell_angle_gamma	101.207188
loop_
_atom_site_label
_atom_site_type_symbol
_atom_site_fract_x
_atom_site_fract_y
_atom_site_fract_z
Zn1	Zn	1.354388	0.106653	0.721252
Zn2	Zn	1.326416	-0.062382	0.583397
Zn3	Zn	1.188676	0.038319	0.555518
Zn4	Zn	1.216505	-0.062304	0.693279
O5	O	1.271496	0.005071	0.638361
O6	O	1.466027	0.112795	0.726339
O7	O	1.284791	-0.077655	0.464352
O8	O	1.210718	0.160236	0.577542
O9	O	1.445475	-0.011395	0.625057
O10	O	1.332466	0.210441	0.699306
O11	O	1.183594	-0.003670	0.443869
O12	O	1.077019	-0.003594	0.550418
O13	O	1.258149	-0.011261	0.812336
O14	O	1.097465	-0.077521	0.651631
O15	O	1.359451	0.112871	0.832888
O16	O	1.311776	-0.175225	0.597933
O17	O	1.231025	-0.175167	0.678664
C18	C	1.057333	-0.047965	0.594964
C19	C	0.965717	-0.070668	0.576419
C20	C	0.717949	0.177616	0.779456
C21	C	0.631859	0.156258	0.762013
C22	C	0.610450	0.027073	0.656396
C23	C	0.696541	0.048418	0.673834
C24	C	0.750284	0.123691	0.735364
C25	C	0.728876	-0.005507	0.629741
C26	C	0.814959	0.015838	0.647175
C27	C	0.868707	0.091109	0.708700
C28	C	0.836367	0.145036	0.752797
C29	C	0.675131	-0.080777	0.568208
C30	C	0.707466	-0.134702	0.524115
C31	C	0.793551	-0.113360	0.541552
C32	C	0.847299	-0.038089	0.603078
C33	C	0.825891	-0.167287	0.497455
C34	C	0.911974	-0.145941	0.514888
C35	C	0.933382	-0.016743	0.620511
C36	C	1.271411	-0.204447	0.638311
C37	C	1.271456	-0.294055	0.638332
C38	C	1.271617	-0.622174	0.638447
C39	C	1.271570	-0.530881	0.638417
C40	C	1.271536	-0.458117	0.638389
C41	C	1.271490	-0.366819	0.638360
C42	C	1.486496	0.058314	0.681928
C43	C	1.578116	0.081003	0.700494
C44	C	1.315024	0.058437	0.853356
C45	C	1.333573	0.081178	0.944974
C46	C	1.271608	0.215418	0.638434
C47	C	1.271655	0.305056	0.638466
C48	C	1.228185	-0.048016	0.424212
C49	C	1.209796	-0.070491	0.332627
C50	C	1.130898	-0.167173	1.192801
C51	C	1.148345	-0.145790	1.278894
C52	C	1.253821	-0.016542	1.300282
C53	C	1.236380	-0.037913	1.214189
C54	C	1.174918	-0.113229	1.160455
C55	C	1.280401	0.016031	1.181842
C56	C	1.262964	-0.005340	1.095757
C57	C	1.201507	-0.080655	1.042018
C58	C	1.157482	-0.134601	1.074370
C59	C	1.341867	0.091344	1.235578
C60	C	1.385888	0.145288	1.203232
C61	C	1.368447	0.123920	1.117144
C62	C	1.306990	0.048605	1.063406
C63	C	1.412472	0.177866	1.084793
C64	C	1.395035	0.156494	0.998708
C65	C	1.289553	0.027234	0.977321
H66	H	0.605536	0.200179	0.797919
H67	H	0.977144	0.044549	0.670618
F68	F	0.960324	0.113832	0.727249
H69	H	0.566681	-0.034212	0.606296
H70	H	0.880129	0.206329	0.802904
F71	F	1.441889	0.213905	0.964281
F72	F	1.182953	-0.103403	0.950399
F73	F	0.583512	-0.103490	0.549650
H74	H	0.761711	0.238908	0.829563
H75	H	1.112493	-0.189723	1.305225
F76	F	1.092060	-0.214757	1.017176
H77	H	0.663696	-0.195987	0.474015
H78	H	0.782120	-0.228569	0.447352
H79	H	0.938301	-0.189852	0.478984
F80	F	1.065476	-0.247329	1.135607
H81	H	1.303866	0.044779	1.344043
F82	F	1.477890	0.258014	1.141992
F83	F	1.224131	-0.052922	0.920127
F84	F	1.360426	0.114086	1.327199
H85	H	1.435932	0.206609	1.246993
