data_functionalizedCrystal
_audit_creation_method	'MofGen! by Chris Wilmer'
_symmetry_space_group_name_H-M	'P1'
_symmetry_Int_Tables_number	1
_symmetry_cell_setting	triclinic
loop_
_symmetry_equiv_pos_as_xyz
  x,y,z
_cell_length_a	10.654550
_cell_length_b	10.654550
_cell_length_c	9.130313
_cell_angle_alpha	89.995631
_cell_angle_beta	89.999724
_cell_angle_gamma	84.484931
loop_
_atom_site_label
_atom_site_type_symbol
_atom_site_fract_x
_atom_site_fract_y
_atom_site_fract_z
O1	O	1.667839	0.176399	-0.121690
O2	O	1.302361	0.193205	-0.121716
O3	O	1.493503	0.002063	-0.121693
O4	O	1.476697	0.367541	-0.121713
O5	O	1.493490	0.002057	0.121906
O6	O	1.302348	0.193199	0.121882
O7	O	1.667826	0.176393	0.121909
Cu8	Cu	1.485086	0.184796	0.144138
Cu9	Cu	1.485101	0.184802	-0.143946
O10	O	1.476684	0.367535	0.121886
C11	C	1.255556	0.191968	0.000080
C12	C	1.116113	0.188276	0.000070
C13	C	1.492263	-0.044738	0.000105
C14	C	1.488571	-0.184181	0.000103
C15	C	1.036628	0.300818	0.000068
C16	C	0.905607	0.297341	0.000093
C17	C	0.933570	0.068772	0.000117
C18	C	1.064588	0.072250	0.000101
C19	C	1.601112	-0.263667	0.000111
C20	C	1.597636	-0.394688	0.000092
C21	C	1.369066	-0.366725	0.000065
C22	C	1.372544	-0.235706	0.000073
C23	C	1.714631	0.177630	0.000110
C24	C	1.854074	0.181322	0.000110
C25	C	1.477925	0.414336	0.000084
C26	C	1.481616	0.553779	0.000077
N27	N	1.485084	0.184790	0.346761
N28	N	1.485113	0.184798	-0.346568
C29	C	1.569751	0.100188	0.423423
C30	C	1.569763	0.100189	0.576760
C31	C	1.400437	0.269404	0.576759
C32	C	1.400420	0.269396	0.423425
H33	H	0.840894	0.388984	0.000095
O34	O	1.726250	-0.208090	0.000130
H35	H	1.733299	-0.149048	-0.099147
H36	H	1.274601	-0.408693	0.000043
H37	H	0.891602	-0.025693	0.000151
H38	H	1.638687	0.031295	0.361007
H39	H	1.078574	0.395294	0.000053
O40	O	1.150335	-0.049139	0.000107
H41	H	1.092498	-0.130404	0.000111
H42	H	1.331468	0.338290	0.361002
H43	H	1.689279	-0.459401	0.000096
O44	O	1.251155	-0.149960	0.000081
H45	H	1.169891	-0.207797	0.000086
O46	O	1.661097	0.008956	0.659451
H47	H	1.719971	-0.049862	0.580376
O48	O	1.309138	0.360670	0.659444
H49	H	1.323383	0.346475	0.778947
