data_functionalizedCrystal
_audit_creation_method	'MofGen! by Chris Wilmer'
_symmetry_space_group_name_H-M	'P1'
_symmetry_Int_Tables_number	1
_symmetry_cell_setting	triclinic
loop_
_symmetry_equiv_pos_as_xyz
  x,y,z
_cell_length_a	15.995292
_cell_length_b	19.188924
_cell_length_c	17.666332
_cell_angle_alpha	90.008552
_cell_angle_beta	90.010525
_cell_angle_gamma	83.305290
loop_
_atom_site_label
_atom_site_type_symbol
_atom_site_fract_x
_atom_site_fract_y
_atom_site_fract_z
O1	O	1.110690	0.089804	0.062972
O2	O	0.866867	0.100960	0.062970
O3	O	0.995818	-0.006257	0.062962
O4	O	0.981739	0.197022	0.062980
O5	O	0.995795	-0.006263	-0.062935
O6	O	0.866844	0.100954	-0.062927
O7	O	1.110667	0.089799	-0.062924
Cu8	Cu	0.988754	0.095376	-0.074421
Cu9	Cu	0.988781	0.095383	0.074466
O10	O	0.981717	0.197016	-0.062917
C11	C	0.835662	0.100503	0.000021
C12	C	0.742714	0.099142	0.000020
C13	C	0.404994	0.094138	0.000028
C14	C	0.428020	0.171524	0.000316
C15	C	0.524691	0.172995	0.000029
C16	C	0.572541	0.096621	0.000024
C17	C	0.543569	0.057928	-0.071870
C18	C	0.446782	0.056996	-0.071927
C19	C	0.446958	0.055423	0.071241
C20	C	0.543440	0.058291	0.072188
C21	C	0.667232	0.098020	0.000020
C22	C	0.310303	0.092736	0.000027
C23	C	0.995351	-0.032272	0.000013
C24	C	0.993986	-0.109780	0.000011
C25	C	0.993361	-0.146177	0.068638
C26	C	0.992066	-0.219003	0.068643
C27	C	0.991412	-0.255431	0.000019
C28	C	0.992033	-0.219024	-0.068617
C29	C	0.993320	-0.146199	-0.068621
N30	N	1.037032	-0.374988	-0.051057
N31	N	1.035812	-0.444169	-0.051048
C32	C	0.987534	-0.474849	0.000026
N33	N	0.940533	-0.433735	0.051103
N34	N	0.941758	-0.364548	0.051097
C35	C	0.990017	-0.334397	0.000015
C36	C	0.985503	-0.590212	0.068663
C37	C	0.984203	-0.663039	0.068666
C38	C	0.984179	-0.663059	-0.068596
C39	C	0.985471	-0.590233	-0.068597
C40	C	0.986137	-0.553814	0.000035
C41	C	1.141873	0.090255	0.000026
C42	C	1.234821	0.091617	0.000032
C43	C	0.982183	0.223031	0.000034
C44	C	0.983549	0.300539	0.000041
N45	N	0.988741	0.095371	-0.179141
C46	C	1.045859	0.047918	-0.218754
C47	C	1.045864	0.047915	-0.298001
C48	C	0.988759	0.095376	-0.337633
C49	C	0.931630	0.142832	-0.298010
C50	C	0.931622	0.142830	-0.218764
N51	N	0.977872	0.157158	-0.462046
N52	N	0.977886	0.157158	-0.537326
C53	C	0.988781	0.095386	-0.576397
N54	N	0.999679	0.033611	-0.537343
N55	N	0.999670	0.033612	-0.462055
C56	C	0.988762	0.095384	-0.423562
C57	C	1.045907	0.047926	-0.701939
C58	C	1.045906	0.047922	-0.781188
C59	C	0.931677	0.142845	-0.781195
C60	C	0.931674	0.142843	-0.701948
C61	C	0.988793	0.095384	-0.662324
N62	N	0.988800	0.095382	0.179186
H63	H	0.543614	0.203294	0.051567
H64	H	0.418551	0.079614	0.125732
O65	O	0.583058	-0.008209	0.077235
C66	C	0.638255	-0.021584	0.015354
H67	H	0.616765	0.015354	-0.033199
H68	H	0.704687	-0.012682	0.033184
C69	C	0.664234	-0.143486	0.048893
C70	C	0.637836	-0.098122	-0.010743
H71	H	0.663979	-0.190699	0.032797
H72	H	0.627049	-0.134476	0.090585
H73	H	0.719592	-0.136059	0.063745
H74	H	0.582475	-0.105543	-0.025588
H75	H	0.675011	-0.107136	-0.052438
O76	O	1.101301	0.001746	-0.663452
C77	C	1.087995	-0.067391	-0.682809
H78	H	1.020973	-0.067780	-0.704625
H79	H	1.134506	-0.087898	-0.728778
C80	C	1.183485	-0.114207	-0.585593
C81	C	1.101165	-0.114685	-0.612381
H82	H	1.191612	-0.143381	-0.542151
H83	H	1.192452	-0.067628	-0.572553
H84	H	1.222234	-0.131294	-0.623907
H85	H	1.062417	-0.097589	-0.574071
H86	H	1.092191	-0.161262	-0.625413
O87	O	1.101389	0.001913	-0.336572
C88	C	1.152918	0.039328	-0.382374
H89	H	1.119361	0.093952	-0.394243
H90	H	1.214775	0.044096	-0.351814
C91	C	1.212192	-0.067117	-0.443075
C92	C	1.170973	-0.000030	-0.457658
H93	H	1.223333	-0.091396	-0.489512
H94	H	1.177478	-0.092325	-0.412215
H95	H	1.263735	-0.063135	-0.417606
H96	H	1.119427	-0.004013	-0.483117
H97	H	1.205679	0.025177	-0.488524
H98	H	0.563519	0.084793	-0.125370
O99	O	1.101427	0.001919	-0.819756
C100	C	1.152951	0.039333	-0.865563
H101	H	1.119393	0.093956	-0.877431
H102	H	1.214812	0.044101	-0.835009
C103	C	1.212219	-0.067113	-0.926266
C104	C	1.170999	-0.000026	-0.940848
H105	H	1.223355	-0.091393	-0.972704
H106	H	1.177509	-0.092321	-0.895402
H107	H	1.263765	-0.063131	-0.900802
H108	H	1.119450	-0.004010	-0.966302
H109	H	1.205701	0.025180	-0.971717
O110	O	0.876168	0.188853	-0.819766
C111	C	0.824644	0.151444	-0.865610
H112	H	0.858199	0.096820	-0.877485
H113	H	0.762780	0.146679	-0.835083
C114	C	0.765392	0.257897	-0.926296
C115	C	0.806608	0.190808	-0.940887
H116	H	0.754262	0.282179	-0.972729
H117	H	0.800102	0.283101	-0.895408
H118	H	0.713843	0.253916	-0.900855
H119	H	0.858160	0.194790	-0.966318
H120	H	0.771906	0.165606	-0.971780
H121	H	0.983690	-0.692672	0.124552
O122	O	1.101108	0.001598	-0.180297
C123	C	1.056216	-0.041486	-0.134660
H124	H	0.990704	-0.013528	-0.122687
H125	H	1.050453	-0.092942	-0.165416
C126	C	1.183920	-0.091142	-0.074142
C127	C	1.103460	-0.056802	-0.059431
H128	H	1.213063	-0.100593	-0.027738
H129	H	1.214166	-0.062118	-0.104890
H130	H	1.179107	-0.134018	-0.099774
H131	H	1.108274	-0.013923	-0.033809
H132	H	1.073216	-0.085819	-0.028677
O133	O	0.581866	-0.009103	-0.075207
C134	C	0.629281	-0.018475	-0.142467
H135	H	0.603163	0.022163	-0.186051
H136	H	0.697825	-0.011766	-0.130033
C137	C	0.655839	-0.142582	-0.120330
C138	C	0.623757	-0.092673	-0.173863
H139	H	0.652436	-0.188351	-0.139696
H140	H	0.623898	-0.136268	-0.075014
H141	H	0.712957	-0.136982	-0.109973
H142	H	0.566638	-0.098267	-0.184213
H143	H	0.655688	-0.098990	-0.219182
H144	H	0.986041	-0.560558	0.124547
H145	H	0.399923	0.201355	0.051875
H146	H	0.561915	0.086463	0.125375
O147	O	0.393248	0.206799	-0.060905
C148	C	0.348148	0.161854	-0.103979
H149	H	0.373491	0.104965	-0.091750
H150	H	0.278613	0.171035	-0.088254
C151	C	0.327454	0.247080	-0.203814
C152	C	0.358586	0.177207	-0.188799
H153	H	0.333889	0.256552	-0.256134
H154	H	0.357836	0.277362	-0.174793
H155	H	0.269511	0.254722	-0.190704
H156	H	0.416530	0.169569	-0.201899
H157	H	0.328214	0.146925	-0.217824
H158	H	0.983641	-0.692717	-0.124472
O159	O	0.991306	-0.254395	0.135284
C160	C	0.918070	-0.288611	0.139370
H161	H	0.867776	-0.261121	0.100433
H162	H	0.933481	-0.345592	0.120914
C163	C	0.946963	-0.319914	0.269185
C164	C	0.885189	-0.286146	0.221367
H165	H	0.926682	-0.318396	0.319765
H166	H	0.996305	-0.296864	0.266432
H167	H	0.959800	-0.367395	0.253796
H168	H	0.872360	-0.238664	0.236750
H169	H	0.835844	-0.309188	0.224124
O170	O	0.991251	-0.254358	-0.135299
C171	C	0.919065	-0.228636	-0.177057
H172	H	0.868752	-0.203075	-0.136901
H173	H	0.936193	-0.188160	-0.219850
C174	C	0.946837	-0.321138	-0.268428
C175	C	0.885038	-0.289749	-0.219107
H176	H	0.925849	-0.358834	-0.294369
H177	H	0.995472	-0.338466	-0.240297
H178	H	0.961104	-0.287402	-0.304082
H179	H	0.870780	-0.323483	-0.183448
H180	H	0.836400	-0.272428	-0.247233
H181	H	0.885133	0.181475	-0.330282
O182	O	0.430480	-0.012521	0.071959
C183	C	0.386271	-0.025420	0.138584
H184	H	0.399110	0.014419	0.183748
H185	H	0.315914	-0.020462	0.126027
C186	C	0.399907	-0.148956	0.111845
C187	C	0.415682	-0.100028	0.167319
H188	H	0.418046	-0.194978	0.129569
H189	H	0.429689	-0.140265	0.066957
H190	H	0.341276	-0.144815	0.101386
H191	H	0.474313	-0.104163	0.177770
H192	H	0.385910	-0.108720	0.212210
H193	H	0.993825	-0.116564	-0.124506
H194	H	0.985987	-0.560599	-0.124480
O195	O	0.876107	0.188998	-0.180397
C196	C	0.825686	0.230875	-0.232366
H197	H	0.860012	0.231676	-0.288848
H198	H	0.763573	0.208184	-0.240810
C199	C	0.765982	0.305207	-0.132055
C200	C	0.808146	0.306196	-0.201426
H201	H	0.755159	0.351668	-0.112969
H202	H	0.799949	0.276992	-0.097042
H203	H	0.714226	0.286295	-0.139101
H204	H	0.859905	0.325100	-0.194377
H205	H	0.774187	0.334416	-0.236437
H206	H	0.885166	0.181486	-0.669693
H207	H	0.542972	0.203476	-0.051590
H208	H	0.419856	0.083789	-0.125666
H209	H	0.432440	0.000256	-0.075196
H210	H	0.993901	-0.116529	0.124523
