data_functionalizedCrystal
_audit_creation_method	'MofGen! by Chris Wilmer'
_symmetry_space_group_name_H-M	'P1'
_symmetry_Int_Tables_number	1
_symmetry_cell_setting	triclinic
loop_
_symmetry_equiv_pos_as_xyz
  x,y,z
_cell_length_a	14.519731
_cell_length_b	14.519709
_cell_length_c	16.053802
_cell_angle_alpha	92.569364
_cell_angle_beta	87.413705
_cell_angle_gamma	83.684499
loop_
_atom_site_label
_atom_site_type_symbol
_atom_site_fract_x
_atom_site_fract_y
_atom_site_fract_z
O1	O	1.227740	0.117108	-0.069433
O2	O	1.727740	0.617108	0.430567
O3	O	0.959266	0.131324	-0.069434
O4	O	1.459266	0.631324	0.430566
O5	O	1.100620	-0.010021	-0.069426
O6	O	1.600620	0.489979	0.430574
O7	O	1.086385	0.258454	-0.069441
O8	O	1.586385	0.758454	0.430559
O9	O	1.092840	-0.002273	0.069432
O10	O	1.592840	0.497727	0.569432
O11	O	0.951485	0.139072	0.069424
O12	O	1.451485	0.639072	0.569424
O13	O	1.219959	0.124856	0.069426
O14	O	1.719959	0.624856	0.569426
Zn15	Zn	1.084487	0.133194	0.091472
Zn16	Zn	1.584487	0.633194	0.591472
Zn17	Zn	1.094738	0.122986	-0.091480
Zn18	Zn	1.594738	0.622986	0.408520
O19	O	1.078604	0.266202	0.069417
O20	O	1.578604	0.766202	0.569417
C21	C	0.921016	0.134532	-0.000005
C22	C	1.421016	0.634532	0.499995
C23	C	0.818636	0.132536	-0.000006
C24	C	1.318636	0.632536	0.499994
C25	C	1.096067	-0.040507	0.000003
C26	C	1.596067	0.459493	0.500003
C27	C	1.094078	-0.142888	0.000004
C28	C	1.594078	0.357112	0.500004
C29	C	0.735492	0.130914	-0.000009
C30	C	1.235492	0.630914	0.499991
C31	C	0.631183	0.128887	-0.000009
C32	C	1.131183	0.628887	0.499991
C33	C	0.548044	0.127279	-0.000009
C34	C	1.048044	0.627279	0.499991
C35	C	0.443729	0.125253	-0.000011
C36	C	0.943729	0.625253	0.499989
C37	C	1.086760	-0.517786	-0.000018
C38	C	1.586760	-0.017786	0.499982
C39	C	1.088793	-0.413477	-0.000012
C40	C	1.588793	0.086523	0.499988
C41	C	1.090419	-0.330340	-0.000006
C42	C	1.590419	0.169660	0.499994
C43	C	1.092452	-0.226025	-0.000002
C44	C	1.592452	0.273975	0.499998
C45	C	1.258209	0.121648	-0.000005
C46	C	1.758209	0.621648	0.499995
C47	C	1.360590	0.123644	-0.000010
C48	C	1.860590	0.623644	0.499990
C49	C	1.083158	0.296688	-0.000014
C50	C	1.583158	0.796688	0.499986
C51	C	1.085147	0.399069	-0.000020
C52	C	1.585147	0.899069	0.499980
N53	N	1.077497	0.140161	0.216332
N54	N	1.577497	0.640161	0.716332
N55	N	1.101735	0.116013	-0.216340
N56	N	1.601735	0.616013	0.283660
C57	C	1.137666	0.080040	0.260029
C58	C	1.637666	0.580040	0.760029
C59	C	1.132785	0.084921	0.347436
C60	C	1.632785	0.584921	0.847436
C61	C	1.067740	0.149929	0.391143
C62	C	1.567740	0.649929	0.891143
C63	C	1.007565	0.210053	0.347439
C64	C	1.507565	0.710053	0.847439
C65	C	1.012442	0.205166	0.260034
C66	C	1.512442	0.705166	0.760034
C67	C	1.046437	0.171250	0.652551
C68	C	1.546437	0.671250	1.152551
C69	C	1.041566	0.176134	0.739962
C70	C	1.541566	0.676134	1.239962
C71	C	1.166786	0.051000	0.739952
C72	C	1.666786	0.551000	1.239952
C73	C	1.171661	0.046123	0.652546
C74	C	1.671661	0.546123	1.152546
C75	C	1.111483	0.106243	0.608850
C76	C	1.611483	0.606243	1.108850
N77	N	1.062751	0.154923	0.480486
N78	N	1.562751	0.654923	0.980486
N79	N	1.116467	0.101245	0.519508
N80	N	1.616467	0.601245	1.019508
H81	H	1.190637	0.027107	0.224448
H82	H	1.690637	0.527107	0.724448
O83	O	0.947532	0.270011	0.212911
O84	O	1.447532	0.770011	0.712911
H85	H	0.904866	0.228850	0.173119
H86	H	1.404866	0.728850	0.673119
O87	O	1.197701	0.020087	0.394559
O88	O	1.697701	0.520087	0.894559
H89	H	1.186793	-0.052776	0.377791
H90	H	1.686793	0.447224	0.877791
O91	O	1.241809	-0.024001	0.605403
O92	O	1.741809	0.475999	1.105403
H93	H	1.282823	-0.064995	0.650474
H94	H	1.782823	0.435005	1.150474
O95	O	1.231684	-0.013850	0.787079
O96	O	1.731684	0.486150	1.287079
H97	H	1.217363	0.000460	0.855200
H98	H	1.717363	0.500460	1.355200
O99	O	0.971396	0.246242	0.787109
O100	O	1.471396	0.746242	1.287109
H101	H	0.930360	0.287219	0.742042
H102	H	1.430360	0.787219	1.242042
H103	H	0.997439	0.220204	0.616981
H104	H	1.497439	0.720204	1.116981
O105	O	0.937409	0.280176	0.394575
O106	O	1.437409	0.780176	0.894575
H107	H	0.944133	0.273483	0.462695
H108	H	1.444133	0.773483	0.962695
