data_functionalizedCrystal
_audit_creation_method	'MofGen! by Chris Wilmer'
_symmetry_space_group_name_H-M	'P1'
_symmetry_Int_Tables_number	1
_symmetry_cell_setting	triclinic
loop_
_symmetry_equiv_pos_as_xyz
  x,y,z
_cell_length_a	11.792254
_cell_length_b	10.268362
_cell_length_c	15.538191
_cell_angle_alpha	89.997753
_cell_angle_beta	114.264654
_cell_angle_gamma	90.004525
loop_
_atom_site_label
_atom_site_type_symbol
_atom_site_fract_x
_atom_site_fract_y
_atom_site_fract_z
O1	O	1.452842	0.108286	-0.128898
O2	O	1.116939	0.108287	-0.142164
O3	O	1.350276	0.108292	0.001262
O4	O	1.219504	0.108280	-0.272324
O5	O	1.350264	-0.108309	0.001268
O6	O	1.116926	-0.108314	-0.142158
O7	O	1.452829	-0.108315	-0.128892
Cu8	Cu	1.284876	-0.128092	-0.135524
Cu9	Cu	1.284891	0.128064	-0.135531
O10	O	1.219491	-0.108320	-0.272318
C11	C	1.074992	-0.000013	-0.141325
C12	C	0.950028	-0.000012	-0.138824
C13	C	0.848544	-0.000006	-0.136792
C14	C	0.721223	-0.000005	-0.134250
N15	N	1.284874	-0.308258	-0.135519
C16	C	1.284886	-0.573928	-0.135529
C17	C	1.284875	-0.426090	-0.135526
C18	C	1.494775	-0.000012	-0.129731
C19	C	1.619739	-0.000005	-0.132232
C20	C	1.363952	-0.000004	0.036290
C21	C	1.404707	0.000009	0.140654
N22	N	1.284905	0.308229	-0.135530
C23	C	1.205815	-0.000021	-0.307346
C24	C	1.165060	-0.000026	-0.411710
C25	C	0.999818	-0.000017	0.430528
C26	C	1.038142	-0.000020	0.528597
C27	C	1.253705	-0.000021	0.549930
C28	C	1.215399	-0.000011	0.451862
C29	C	1.088454	-0.000011	0.392168
C30	C	1.304036	-0.000005	0.413501
C31	C	1.265732	-0.000002	0.315441
C32	C	1.138793	-0.000006	0.255741
C33	C	1.050151	-0.000008	0.294107
C34	C	1.430981	-0.000015	0.473197
C35	C	1.519617	-0.000008	0.434837
C36	C	1.481314	0.000004	0.336775
C37	C	1.354374	-0.000000	0.277075
C38	C	1.569956	0.000006	0.298409
C39	C	1.531653	0.000009	0.200348
C40	C	1.316071	0.000003	0.179015
H41	H	1.212699	0.000012	0.130408
N42	N	1.097461	-0.000003	0.149974
H43	H	1.130546	-0.080295	0.130536
H44	H	1.130560	0.080346	0.130612
H45	H	0.946779	0.000001	0.245501
N46	N	1.706869	-0.000019	0.362796
H47	H	1.717684	-0.000032	0.430738
H48	H	1.747260	0.080277	0.350324
H49	H	0.896446	-0.000007	0.381921
H50	H	1.603829	0.000012	0.169115
H51	H	0.965954	-0.000044	0.559824
N52	N	1.390620	-0.000034	0.614316
H53	H	1.401437	-0.000041	0.682258
H54	H	1.431000	0.080265	0.601837
N55	N	1.472290	-0.000017	0.578962
H56	H	1.523850	0.080272	0.606772
H57	H	1.523772	-0.080369	0.606691
H58	H	1.622976	-0.000014	0.483453
