data_functionalizedCrystal
_audit_creation_method	'MofGen! by Chris Wilmer'
_symmetry_space_group_name_H-M	'P1'
_symmetry_Int_Tables_number	1
_symmetry_cell_setting	triclinic
loop_
_symmetry_equiv_pos_as_xyz
  x,y,z
_cell_length_a	19.805407
_cell_length_b	12.827892
_cell_length_c	19.805399
_cell_angle_alpha	89.975874
_cell_angle_beta	89.983114
_cell_angle_gamma	90.015392
loop_
_atom_site_label
_atom_site_type_symbol
_atom_site_fract_x
_atom_site_fract_y
_atom_site_fract_z
Zn1	Zn	1.034770	-0.416043	-0.382743
Zn2	Zn	1.034711	-0.590802	-0.269564
Zn3	Zn	0.921590	-0.416076	-0.269567
Zn4	Zn	0.921569	-0.590742	-0.382711
O5	O	0.978160	-0.503416	-0.326146
O6	O	1.129478	-0.439236	-0.367741
O7	O	1.019690	-0.567663	-0.174848
O8	O	0.936636	-0.269835	-0.284595
O9	O	1.129436	-0.567631	-0.284589
O10	O	1.019789	-0.269811	-0.367744
O11	O	0.936579	-0.439293	-0.174850
O12	O	0.826870	-0.439235	-0.284564
O13	O	0.936602	-0.567529	-0.477431
O14	O	0.826856	-0.567561	-0.367690
O15	O	1.019769	-0.439178	-0.477455
O16	O	1.019670	-0.737030	-0.284558
O17	O	0.936545	-0.736986	-0.367687
C18	C	0.802304	-0.503396	-0.326124
C19	C	0.727072	-0.503412	-0.326131
C20	C	0.691738	-0.570333	-0.369345
C21	C	0.621049	-0.570335	-0.369354
C22	C	0.585696	-0.503421	-0.326146
C23	C	0.621035	-0.436493	-0.282930
C24	C	0.691723	-0.436487	-0.282925
C25	C	0.335962	-0.436516	-0.282953
C26	C	0.265270	-0.436530	-0.282960
C27	C	0.265289	-0.570364	-0.369382
C28	C	0.335976	-0.570358	-0.369376
C29	C	0.371309	-0.503427	-0.326164
C30	C	0.447957	-0.503424	-0.326155
C31	C	0.509049	-0.503428	-0.326151
C32	C	0.978118	-0.774926	-0.326134
C33	C	0.978161	-0.891079	-0.326151
C34	C	1.019290	-0.942768	-0.367333
C35	C	1.019336	-1.062818	-0.367352
C36	C	1.154703	-0.503437	-0.326168
C37	C	1.229935	-0.503446	-0.326178
C38	C	0.978190	-0.503343	-0.502689
C39	C	0.978202	-0.503312	-0.577921
C40	C	0.978221	-0.230846	-0.326173
C41	C	0.978247	-0.114693	-0.326185
C42	C	0.934939	-0.436463	-0.613266
C43	C	0.934948	-0.436443	-0.683954
C44	C	0.978225	-0.503267	-0.719297
C45	C	1.021490	-0.570124	-0.683947
C46	C	1.021477	-0.570148	-0.613260
C47	C	1.021544	-0.570026	-0.969020
C48	C	1.021555	-0.569994	-1.039712
C49	C	0.935015	-0.436321	-1.039715
C50	C	0.935002	-0.436345	-0.969028
C51	C	0.978264	-0.503205	-0.933684
C52	C	0.978253	-0.503228	-0.857036
C53	C	0.978240	-0.503240	-0.795944
C54	C	0.978169	-0.503413	-0.150290
C55	C	0.978288	-0.503149	-0.075058
H56	H	0.720491	-0.381988	-0.247739
N57	N	1.065893	-0.883669	-0.414015
H58	H	1.093347	-0.934657	-0.441499
H59	H	1.038278	-0.838387	-0.445279
N60	N	0.374101	-0.642530	-0.415983
H61	H	0.403446	-0.600119	-0.447393
H62	H	0.403373	-0.690889	-0.388375
H63	H	0.720517	-0.624826	-0.404527
H64	H	1.056723	-0.624538	-0.712728
N65	N	0.888335	-0.364258	-0.930908
H66	H	0.860929	-0.321903	-0.964026
H67	H	0.856996	-0.406795	-0.901568
N68	N	1.065985	-1.121688	-0.414053
H69	H	1.059407	-1.199103	-0.407446
H70	H	1.055424	-1.102631	-0.462392
H71	H	0.236513	-0.624859	-0.404571
H72	H	0.943036	-1.070248	-0.290923
N73	N	0.931568	-0.950178	-0.279460
H74	H	0.904115	-0.899190	-0.251973
H75	H	0.900270	-0.995478	-0.307014
N76	N	0.582938	-0.642528	-0.415953
H77	H	0.616060	-0.684926	-0.443317
H78	H	0.553597	-0.690826	-0.388338
H79	H	0.236488	-0.382034	-0.247775
N80	N	1.068230	-0.642086	-1.077827
H81	H	1.040712	-0.690490	-1.107147
H82	H	1.099607	-0.599544	-1.107124
H83	H	0.592245	-0.382006	-0.247753
N84	N	0.888339	-0.364223	-1.077835
H85	H	0.894907	-0.374352	-1.127978
H86	H	0.839998	-0.380500	-1.065463
N87	N	0.374066	-0.364313	-0.236358
H88	H	0.340942	-0.321924	-0.208990
H89	H	0.403385	-0.406764	-0.204980
N90	N	1.068203	-0.642132	-0.930902
H91	H	1.095622	-0.684457	-0.964018
H92	H	1.099530	-0.599610	-0.901581
H93	H	0.899702	-0.382041	-0.584495
N94	N	0.888284	-0.364346	-0.722077
H95	H	0.860870	-0.322013	-0.688962
H96	H	0.915852	-0.315981	-0.751417
H97	H	1.056711	-0.624576	-0.584483
