data_functionalizedCrystal
_audit_creation_method	'MofGen! by Chris Wilmer'
_symmetry_space_group_name_H-M	'P1'
_symmetry_Int_Tables_number	1
_symmetry_cell_setting	triclinic
loop_
_symmetry_equiv_pos_as_xyz
  x,y,z
_cell_length_a	16.959455
_cell_length_b	16.959454
_cell_length_c	13.033454
_cell_angle_alpha	82.785136
_cell_angle_beta	97.161280
_cell_angle_gamma	90.017022
loop_
_atom_site_label
_atom_site_type_symbol
_atom_site_fract_x
_atom_site_fract_y
_atom_site_fract_z
Zn1	Zn	1.151681	-0.257926	-0.590876
Zn2	Zn	1.168372	-0.406917	-0.416136
Zn3	Zn	1.036277	-0.274749	-0.416146
Zn4	Zn	1.019478	-0.390063	-0.590834
O5	O	1.093952	-0.332414	-0.503498
O6	O	1.264504	-0.277703	-0.567710
O7	O	1.164865	-0.403478	-0.269901
O8	O	1.051631	-0.161904	-0.439346
O9	O	1.276767	-0.387166	-0.439329
O10	O	1.136417	-0.149545	-0.567720
O11	O	1.067815	-0.306375	-0.269908
O12	O	0.923439	-0.290032	-0.439306
O13	O	1.022999	-0.358441	-0.737076
O14	O	0.911097	-0.374754	-0.567648
O15	O	1.120128	-0.261361	-0.737107
O16	O	1.148576	-0.515294	-0.439288
O17	O	1.039184	-0.502912	-0.567638
C18	C	0.888588	-0.332390	-0.503474
C19	C	0.800730	-0.332397	-0.503489
C20	C	0.435642	-0.288245	-0.436810
C21	C	0.422859	-0.376642	-0.570246
C22	C	0.505405	-0.376632	-0.570240
C23	C	0.553074	-0.332428	-0.503516
C24	C	0.518197	-0.288234	-0.436799
C25	C	0.540290	-0.420830	-0.636948
C26	C	0.622841	-0.420822	-0.636944
C27	C	0.670511	-0.376613	-0.570225
C28	C	0.635629	-0.332417	-0.503506
C29	C	0.683298	-0.288213	-0.436782
C30	C	0.648416	-0.244013	-0.370068
C31	C	0.565867	-0.244025	-0.370080
C32	C	0.753061	-0.376600	-0.570212
C33	C	0.765852	-0.288203	-0.436772
C34	C	1.093887	-0.537782	-0.503480
C35	C	1.093929	-0.625636	-0.503508
C36	C	1.037065	-0.990695	-0.570323
C37	C	1.151048	-1.003519	-0.436780
C38	C	1.151021	-0.920974	-0.436770
C39	C	1.094015	-0.873286	-0.503537
C40	C	1.037036	-0.908143	-0.570313
C41	C	1.207995	-0.886111	-0.369988
C42	C	1.207970	-0.803562	-0.369975
C43	C	1.150967	-0.755872	-0.436747
C44	C	1.093985	-0.790733	-0.503527
C45	C	1.036979	-0.743045	-0.570294
C46	C	0.980000	-0.777905	-0.637079
C47	C	0.980032	-0.860453	-0.637086
C48	C	1.150935	-0.673324	-0.436741
C49	C	1.036949	-0.660493	-0.570284
C50	C	1.300118	-0.332438	-0.503523
C51	C	1.387973	-0.332449	-0.503533
C52	C	1.067827	-0.306145	-0.776070
C53	C	1.056695	-0.294950	-0.892223
C54	C	1.094036	-0.126242	-0.503539
C55	C	1.094072	-0.038383	-0.503556
C56	C	1.099750	-0.338004	-0.944005
C57	C	1.088245	-0.326435	-1.064055
C58	C	1.120020	-0.358524	-0.231987
C59	C	1.131306	-0.369496	-0.115834
H60	H	0.804659	-0.252201	-0.382443
C61	C	0.989371	-0.227507	-1.053341
C62	C	1.026981	-0.265106	-1.124174
H63	H	0.951554	-0.189643	-1.090458
H64	H	0.963173	-0.266016	-1.010762
H65	H	1.027881	-0.201352	-1.010775
H66	H	0.988471	-0.291266	-1.166735
H67	H	1.053179	-0.226591	-1.166770
H68	H	1.254401	-0.924945	-0.315623
H69	H	1.176691	-0.414921	-1.071294
H70	H	1.254365	-0.775184	-0.315596
H71	H	0.651234	-0.456812	-0.691268
C72	C	0.445000	-0.204786	-0.310859
C73	C	0.527523	-0.195439	-0.296758
H74	H	0.421328	-0.174792	-0.265590
H75	H	0.424760	-0.186539	-0.381095
H76	H	0.432947	-0.259365	-0.295435
H77	H	0.539576	-0.140860	-0.312188
H78	H	0.547770	-0.213682	-0.226505
H79	H	0.407238	-0.252255	-0.382495
H80	H	1.011320	-0.249522	-0.936769
H81	H	0.990677	-1.019081	-0.624701
H82	H	1.145131	-0.383426	-0.899459
C83	C	0.780641	-0.204756	-0.310810
C84	C	0.700820	-0.195424	-0.296727
H85	H	0.812992	-0.174756	-0.265537
H86	H	0.795624	-0.259326	-0.295390
H87	H	0.787440	-0.186502	-0.381052
H88	H	0.694019	-0.213684	-0.226485
H89	H	0.685832	-0.140842	-0.312139
C90	C	0.316571	-0.374243	-0.710790
C91	C	0.370459	-0.425225	-0.643587
H92	H	0.284223	-0.404237	-0.756074
H93	H	0.283992	-0.347934	-0.671052
H94	H	0.344956	-0.335990	-0.750833
H95	H	0.342074	-0.463475	-0.603538
H96	H	0.403042	-0.451548	-0.683330
C97	C	0.434005	-0.418423	-0.777495
C98	C	0.487886	-0.469411	-0.710288
H99	H	0.401652	-0.448414	-0.822778
H100	H	0.401430	-0.392107	-0.737760
H101	H	0.462396	-0.380176	-0.817539
H102	H	0.459495	-0.507654	-0.670238
H103	H	0.520465	-0.495740	-0.750028
C104	C	0.732130	-0.463981	-0.702105
C105	C	0.791403	-0.425178	-0.643540
H106	H	0.755801	-0.493967	-0.747382
H107	H	0.704297	-0.498561	-0.656507
H108	H	0.696100	-0.425728	-0.742156
H109	H	0.827429	-0.463432	-0.603483
H110	H	0.819248	-0.390595	-0.689144
C111	C	1.263595	-0.694296	-0.304729
C112	C	1.213557	-0.635006	-0.363335
H113	H	1.302260	-0.670639	-0.259413
H114	H	1.233023	-0.730376	-0.264725
H115	H	1.289448	-0.722075	-0.350306
H116	H	1.187699	-0.607231	-0.317758
H117	H	1.244133	-0.598912	-0.403341
C118	C	0.955436	-0.671500	-0.777612
C119	C	0.917341	-0.725480	-0.710470
H120	H	0.916753	-0.639136	-0.822922
H121	H	0.989358	-0.638935	-0.737831
H122	H	0.986023	-0.699822	-0.817631
H123	H	0.886759	-0.697157	-0.670445
H124	H	0.883406	-0.758048	-0.750255
C125	C	1.012376	-0.554098	-0.710831
C126	C	0.974286	-0.608076	-0.643680
H127	H	0.973689	-0.521742	-0.756145
H128	H	1.046293	-0.521525	-0.671056
H129	H	1.042967	-0.582421	-0.750844
H130	H	0.943700	-0.579752	-0.603661
H131	H	0.940355	-0.640652	-0.683459
H132	H	0.933642	-0.888843	-0.691458
H133	H	1.197456	-1.042352	-0.382415
