data_functionalizedCrystal
_audit_creation_method	'MofGen! by Chris Wilmer'
_symmetry_space_group_name_H-M	'P1'
_symmetry_Int_Tables_number	1
_symmetry_cell_setting	triclinic
loop_
_symmetry_equiv_pos_as_xyz
  x,y,z
_cell_length_a	9.065218
_cell_length_b	15.944551
_cell_length_c	7.540329
_cell_angle_alpha	89.995457
_cell_angle_beta	89.996962
_cell_angle_gamma	84.257312
loop_
_atom_site_label
_atom_site_type_symbol
_atom_site_fract_x
_atom_site_fract_y
_atom_site_fract_z
O1	O	1.957520	0.123161	-0.147492
O2	O	1.527999	0.133263	-0.147494
O3	O	1.754488	0.006026	-0.147477
O4	O	1.731030	0.250398	-0.147509
O5	O	1.754475	0.006024	0.147488
O6	O	1.527985	0.133261	0.147471
O7	O	1.957506	0.123159	0.147473
Cu8	Cu	1.742744	0.128210	0.174405
Cu9	Cu	1.742760	0.128212	-0.174426
O10	O	1.731016	0.250396	0.147456
C11	C	1.473028	0.132291	-0.000012
C12	C	1.309253	0.129388	-0.000013
C13	C	1.753508	-0.025276	0.000006
C14	C	1.750588	-0.118544	0.000007
C15	C	1.603221	-0.334518	-0.000019
C16	C	1.671647	-0.395017	0.145418
C17	C	1.745306	-0.289310	-0.000007
C18	C	1.671693	-0.394999	-0.145395
C19	C	1.740194	-0.454262	-0.000028
C20	C	1.813771	-0.348582	0.145549
C21	C	1.813798	-0.348557	-0.145394
C22	C	1.882327	-0.409038	0.000078
C23	C	1.748247	-0.194286	0.000007
C24	C	1.737264	-0.549285	-0.000029
C25	C	2.012477	0.124131	-0.000013
C26	C	2.176252	0.127034	-0.000024
C27	C	1.731997	0.281698	-0.000031
C28	C	1.734917	0.374966	-0.000043
N29	N	1.742744	0.128208	0.419753
N30	N	1.742773	0.128207	-0.419774
H31	H	1.611544	-0.415582	0.268371
C32	C	2.040189	-0.359902	-0.312890
C33	C	1.894865	-0.320758	-0.311381
H34	H	2.090221	-0.342741	-0.415381
H35	H	2.090780	-0.344171	-0.209666
H36	H	2.038119	-0.419345	-0.314677
H37	H	1.896935	-0.261315	-0.309580
H38	H	1.844261	-0.336484	-0.414632
C39	C	2.040524	-0.359588	0.312304
C40	C	1.894823	-0.320989	0.311721
H41	H	2.090558	-0.342546	0.414887
H42	H	2.039191	-0.419076	0.313284
H43	H	2.090644	-0.343306	0.209147
H44	H	1.844700	-0.337276	0.414872
H45	H	1.896149	-0.261488	0.310757
C46	C	2.037708	-0.540151	-0.001356
C47	C	2.041681	-0.452590	0.000118
H48	H	2.136088	-0.567033	-0.001354
H49	H	1.986915	-0.556773	0.100990
H50	H	1.987446	-0.556031	-0.104726
H51	H	2.091934	-0.436709	0.103495
H52	H	2.092495	-0.435961	-0.102238
C53	C	1.343114	-0.351751	0.001855
C54	C	1.444014	-0.290755	0.000173
H55	H	1.244831	-0.324732	0.001991
H56	H	1.357668	-0.386315	-0.100490
H57	H	1.358403	-0.385565	0.105224
H58	H	1.428733	-0.256946	-0.103204
H59	H	1.429453	-0.256178	0.102528
C60	C	1.542052	-0.351766	-0.412969
C61	C	1.590556	-0.422729	-0.311384
H62	H	1.491964	-0.368885	-0.515442
H63	H	1.476324	-0.314609	-0.344472
H64	H	1.624983	-0.323684	-0.447911
H65	H	1.507625	-0.450808	-0.276430
H66	H	1.656289	-0.459900	-0.379894
