data_functionalizedCrystal
_audit_creation_method	'MofGen! by Chris Wilmer'
_symmetry_space_group_name_H-M	'P1'
_symmetry_Int_Tables_number	1
_symmetry_cell_setting	triclinic
loop_
_symmetry_equiv_pos_as_xyz
  x,y,z
_cell_length_a	21.295420
_cell_length_b	25.639240
_cell_length_c	21.295411
_cell_angle_alpha	90.021594
_cell_angle_beta	89.975408
_cell_angle_gamma	89.961055
loop_
_atom_site_label
_atom_site_type_symbol
_atom_site_fract_x
_atom_site_fract_y
_atom_site_fract_z
Zn1	Zn	0.962300	0.208269	-0.355912
Zn2	Zn	0.962179	0.295689	-0.250638
Zn3	Zn	0.857023	0.208263	-0.250657
Zn4	Zn	0.856969	0.295669	-0.355869
O5	O	0.909618	0.251973	-0.303269
O6	O	1.050373	0.219877	-0.341957
O7	O	0.948202	0.284098	-0.162551
O8	O	0.871061	0.135099	-0.264645
O9	O	1.050284	0.284104	-0.264612
O10	O	0.948408	0.135103	-0.341976
O11	O	0.870944	0.219866	-0.162565
O12	O	0.768927	0.219847	-0.264604
O13	O	0.870970	0.284069	-0.443964
O14	O	0.768887	0.284063	-0.341903
O15	O	0.948356	0.219857	-0.443996
O16	O	0.948150	0.368852	-0.264571
O17	O	0.870852	0.368837	-0.341884
C18	C	0.746066	0.251953	-0.303251
C19	C	0.676098	0.251957	-0.303259
C20	C	0.176686	0.218608	-0.343617
C21	C	0.242428	0.218605	-0.343617
C22	C	0.275259	0.251989	-0.303284
C23	C	0.242341	0.285388	-0.262959
C24	C	0.176600	0.285395	-0.262964
N25	N	0.378448	0.255922	-0.248164
N26	N	0.440899	0.255913	-0.248160
C27	C	0.473333	0.251971	-0.303265
N28	N	0.440957	0.248030	-0.358375
N29	N	0.378500	0.248036	-0.358378
C30	C	0.346544	0.251985	-0.303273
C31	C	0.577529	0.218572	-0.343591
C32	C	0.643272	0.218572	-0.343592
C33	C	0.643184	0.285353	-0.262927
C34	C	0.577441	0.285356	-0.262932
C35	C	0.544618	0.251963	-0.303263
C36	C	0.909499	0.387815	-0.303234
C37	C	0.909506	0.445929	-0.303240
C38	C	0.949919	0.806287	-0.263057
C39	C	0.949939	0.860892	-0.263063
O40	O	0.984216	0.889124	-0.228877
N41	N	0.909669	0.888212	-0.303283
C42	C	0.869381	0.860925	-0.343505
O43	O	0.835131	0.889176	-0.377716
C44	C	0.869366	0.806321	-0.343501
C45	C	0.909634	0.779004	-0.303274
C46	C	0.990185	0.778970	-0.222833
C47	C	0.990164	0.724370	-0.222826
C48	C	0.949879	0.697086	-0.263043
C49	C	0.909614	0.724404	-0.303267
C50	C	0.829082	0.779035	-0.383726
C51	C	0.829070	0.724428	-0.383719
C52	C	0.869338	0.697111	-0.343492
C53	C	0.869308	0.642520	-0.343477
N54	N	0.909578	0.615200	-0.303257
C55	C	0.949863	0.642483	-0.263040
C56	C	0.869418	0.975595	-0.343509
C57	C	0.869430	1.030197	-0.343510
C58	C	0.949988	1.030161	-0.263069
C59	C	0.949973	0.975558	-0.263065
C60	C	0.909688	0.948275	-0.303289
C61	C	0.949817	0.527818	-0.263028
C62	C	0.949792	0.473213	-0.263023
C63	C	0.869236	0.473254	-0.343467
C64	C	0.869259	0.527855	-0.343470
C65	C	0.909555	0.555135	-0.303248
O66	O	0.835050	0.614252	-0.377647
O67	O	0.984114	0.614225	-0.228840
C68	C	1.073808	0.251993	-0.303287
C69	C	1.143776	0.252002	-0.303295
C70	C	0.909670	0.251962	-0.467459
C71	C	0.909692	0.251957	-0.537427
C72	C	0.909730	1.115600	-0.303307
C73	C	0.909718	1.057486	-0.303295
C74	C	0.949985	0.218520	-0.570312
C75	C	0.949985	0.218497	-0.636054
C76	C	0.909697	0.251921	-0.668910
C77	C	0.869396	0.285360	-0.636018
C78	C	0.869394	0.285378	-0.570277
N79	N	0.904828	0.297659	-0.772125
N80	N	0.904834	0.297640	-0.834577
C81	C	0.909701	0.251868	-0.866985
N82	N	0.914574	0.206114	-0.834582
N83	N	0.914571	0.206133	-0.772125
C84	C	0.909695	0.251905	-0.740195
C85	C	0.949996	0.218404	-0.971155
C86	C	0.949990	0.218380	-1.036898
C87	C	0.869405	0.285247	-1.036861
C88	C	0.869407	0.285266	-0.971118
C89	C	0.909706	0.251845	-0.938269
C90	C	0.909602	0.251946	-0.139717
C91	C	0.909702	0.251803	-0.069750
H92	H	0.669914	0.312539	-0.230092
C93	C	0.278452	0.322108	-0.218591
H94	H	0.322319	0.317318	-0.224358
H95	H	0.267661	0.357250	-0.227727
H96	H	0.267659	0.314404	-0.176312
H97	H	1.022994	0.801179	-0.190083
H98	H	0.550646	0.312546	-0.230095
C99	C	0.994321	0.181605	-1.073074
H100	H	0.988549	0.186377	-1.116932
H101	H	1.036605	0.189274	-1.062314
H102	H	0.985151	0.146472	-1.062300
C103	C	0.824930	0.443238	-0.387710
H104	H	0.800948	0.467324	-0.411668
H105	H	0.849000	0.421909	-0.415151
H106	H	0.797504	0.421966	-0.363604
H107	H	0.550802	0.191381	-0.376430
H108	H	0.982799	0.191305	-0.543570
H109	H	0.670066	0.191380	-0.376432
H110	H	0.982583	0.450973	-0.230263
H111	H	0.269228	0.191409	-0.376452
H112	H	0.982631	0.550024	-0.230278
C113	C	0.825089	0.322051	-0.934944
H114	H	0.801097	0.341957	-0.963926
H115	H	0.797681	0.302055	-0.909288
H116	H	0.849149	0.344845	-0.909308
H117	H	1.022956	0.702131	-0.190071
C118	C	0.140580	0.181884	-0.387985
H119	H	0.096713	0.186668	-0.382213
H120	H	0.151374	0.189585	-0.430262
H121	H	0.151372	0.146741	-0.378844
C122	C	0.994272	0.945514	-0.218820
H123	H	1.018267	0.969588	-0.194874
H124	H	0.970204	0.924239	-0.191368
H125	H	1.021687	0.924186	-0.242928
C126	C	0.994300	1.060180	-0.218828
H127	H	0.988542	1.096611	-0.224598
H128	H	0.985105	1.051255	-0.176524
H129	H	1.036593	1.051199	-0.228080
C130	C	0.140398	0.322126	-0.218604
H131	H	0.169364	0.342007	-0.194579
H132	H	0.114746	0.344936	-0.242634
H133	H	0.114756	0.302090	-0.191218
C134	C	0.825131	1.060240	-0.387756
H135	H	0.801141	1.036166	-0.411708
H136	H	0.797721	1.081574	-0.363658
H137	H	0.849208	1.081509	-0.415214
H138	H	0.836608	0.953384	-0.376262
C139	C	0.994315	0.181640	-0.935015
H140	H	0.988549	0.186445	-0.891151
H141	H	0.985138	0.146506	-0.945784
H142	H	1.036605	0.189297	-0.945808
H143	H	0.796288	0.801267	-0.416480
H144	H	0.796266	0.702217	-0.416476
H145	H	0.836579	0.312606	-0.543503
C146	C	0.825094	0.322016	-1.072995
H147	H	0.830869	0.317220	-1.116858
H148	H	0.782805	0.314367	-1.062206
H149	H	0.834280	0.357151	-1.062221
H150	H	0.836471	0.550097	-0.376228
H151	H	0.982795	0.191266	-0.662834
C152	C	0.825084	0.322127	-0.672157
H153	H	0.830862	0.317332	-0.716020
H154	H	0.782796	0.314475	-0.661369
H155	H	0.834267	0.357262	-0.661382
