data_functionalizedCrystal
_audit_creation_method	'MofGen! by Chris Wilmer'
_symmetry_space_group_name_H-M	'P1'
_symmetry_Int_Tables_number	1
_symmetry_cell_setting	triclinic
loop_
_symmetry_equiv_pos_as_xyz
  x,y,z
_cell_length_a	10.654550
_cell_length_b	10.654550
_cell_length_c	9.730223
_cell_angle_alpha	89.996763
_cell_angle_beta	89.999957
_cell_angle_gamma	84.484917
loop_
_atom_site_label
_atom_site_type_symbol
_atom_site_fract_x
_atom_site_fract_y
_atom_site_fract_z
O1	O	1.667839	0.176399	-0.114183
O2	O	1.302361	0.193205	-0.114208
O3	O	1.493503	0.002062	-0.114190
O4	O	1.476697	0.367541	-0.114202
O5	O	1.493490	0.002057	0.114390
O6	O	1.302348	0.193199	0.114372
O7	O	1.667827	0.176393	0.114396
Zn8	Zn	1.485085	0.184796	0.150676
Zn9	Zn	1.485102	0.184802	-0.150488
O10	O	1.476684	0.367536	0.114378
C11	C	1.255556	0.191968	0.000078
C12	C	1.116113	0.188276	0.000069
C13	C	1.036627	0.300818	0.000069
C14	C	0.905607	0.297341	0.000093
C15	C	0.933570	0.068772	0.000111
C16	C	1.064588	0.072250	0.000097
C17	C	1.492263	-0.044738	0.000098
C18	C	1.488571	-0.184181	0.000093
C19	C	1.601112	-0.263667	0.000105
C20	C	1.597636	-0.394688	0.000095
C21	C	1.369066	-0.366725	0.000067
C22	C	1.372544	-0.235706	0.000067
C23	C	1.733075	-0.279813	0.000127
C24	C	1.729599	-0.410834	0.000117
C25	C	1.714631	0.177630	0.000107
C26	C	1.854074	0.181322	0.000107
C27	C	1.477924	0.414336	0.000087
C28	C	1.481616	0.553779	0.000083
N29	N	1.485083	0.184790	0.356212
N30	N	1.485114	0.184798	-0.356024
C31	C	1.569750	0.100188	0.428146
C32	C	1.569763	0.100189	0.572029
C33	C	1.400438	0.269404	0.572032
C34	C	1.400420	0.269396	0.428151
H35	H	0.891602	-0.025693	0.000142
C36	C	0.818178	0.421137	0.000084
H37	H	0.867633	0.490731	0.000055
H38	H	0.766492	0.424540	0.079800
H39	H	0.766481	0.424525	-0.079632
C40	C	1.307327	0.362474	0.651169
H41	H	1.319472	0.350373	0.747162
H42	H	1.223389	0.348058	0.627608
H43	H	1.321699	0.446424	0.627571
H44	H	1.784696	-0.250452	-0.095523
C45	C	1.307285	0.362466	0.349018
H46	H	1.256877	0.412868	0.412467
H47	H	1.254613	0.316795	0.292904
H48	H	1.352916	0.415168	0.292879
H49	H	1.129309	-0.019401	0.000100
C50	C	1.248749	-0.148276	0.000045
H51	H	1.179154	-0.197730	0.000043
H52	H	1.245365	-0.096579	-0.079665
H53	H	1.245344	-0.096591	0.079767
C54	C	1.241448	-0.423407	0.000050
H55	H	1.255493	-0.512821	0.000058
H56	H	1.195065	-0.396184	-0.079663
H57	H	1.195058	-0.396197	0.079769
H58	H	1.775092	-0.244188	0.098826
H59	H	1.638687	0.031295	0.369577
C60	C	1.662901	0.007132	0.651151
H61	H	1.713323	-0.043248	0.587695
H62	H	1.617286	-0.045573	0.707292
H63	H	1.715577	0.052812	0.707264
H64	H	1.769485	-0.456474	-0.098575
C65	C	1.796740	-0.467258	0.129350
H66	H	1.826701	-0.401552	0.182513
H67	H	1.865785	-0.525251	0.102795
H68	H	1.739136	-0.509765	0.182486
H69	H	1.078574	0.395294	0.000057
