data_functionalizedCrystal
_audit_creation_method	'MofGen! by Chris Wilmer'
_symmetry_space_group_name_H-M	'P1'
_symmetry_Int_Tables_number	1
_symmetry_cell_setting	triclinic
loop_
_symmetry_equiv_pos_as_xyz
  x,y,z
_cell_length_a	18.215407
_cell_length_b	16.625545
_cell_length_c	18.215399
_cell_angle_alpha	89.973113
_cell_angle_beta	89.980167
_cell_angle_gamma	90.026006
loop_
_atom_site_label
_atom_site_type_symbol
_atom_site_fract_x
_atom_site_fract_y
_atom_site_fract_z
Zn1	Zn	1.125069	-0.321000	-0.416121
Zn2	Zn	1.458402	0.012333	-0.082788
Zn3	Zn	1.791735	0.345666	0.250545
Zn4	Zn	1.124975	-0.455841	-0.293057
Zn5	Zn	1.458309	-0.122507	0.040276
Zn6	Zn	1.791642	0.210826	0.373609
Zn7	Zn	1.002001	-0.321027	-0.293069
Zn8	Zn	1.335334	0.012307	0.040265
Zn9	Zn	1.668668	0.345640	0.373598
Zn10	Zn	1.001966	-0.455796	-0.416082
Zn11	Zn	1.335299	-0.122462	-0.082749
Zn12	Zn	1.668632	0.210871	0.250584
O13	O	1.063503	-0.388416	-0.354582
O14	O	1.396836	-0.055082	-0.021249
O15	O	1.730169	0.278251	0.312084
O16	O	1.228040	-0.338895	-0.399808
O17	O	1.561374	-0.005562	-0.066475
O18	O	1.894707	0.327772	0.266858
O19	O	1.108639	-0.437987	-0.190074
O20	O	1.441972	-0.104654	0.143259
O21	O	1.775305	0.228680	0.476592
O22	O	1.018380	-0.208191	-0.309413
O23	O	1.351713	0.125143	0.023920
O24	O	1.685047	0.458476	0.357254
O25	O	1.227972	-0.437961	-0.309394
O26	O	1.561305	-0.104628	0.023940
O27	O	1.894639	0.228705	0.357273
O28	O	1.108797	-0.208171	-0.399819
O29	O	1.442131	0.125162	-0.066486
O30	O	1.775464	0.458495	0.266847
O31	O	1.018290	-0.338940	-0.190083
O32	O	1.351623	-0.005606	0.143250
O33	O	1.684957	0.327727	0.476584
O34	O	0.899012	-0.338896	-0.309375
O35	O	1.232345	-0.005563	0.023958
O36	O	1.565679	0.327770	0.357292
O37	O	1.018319	-0.437885	-0.519072
O38	O	1.351653	-0.104552	-0.185738
O39	O	1.684986	0.228782	0.147595
O40	O	0.898986	-0.437910	-0.399753
O41	O	1.232319	-0.104577	-0.066419
O42	O	1.565653	0.228756	0.266914
O43	O	1.108763	-0.338851	-0.519100
O44	O	1.442096	-0.005518	-0.185767
O45	O	1.775429	0.327815	0.147566
O46	O	1.108604	-0.568667	-0.309356
O47	O	1.441937	-0.235334	0.023978
O48	O	1.775271	0.098000	0.357311
O49	O	1.018229	-0.568634	-0.399742
O50	O	1.351563	-0.235301	-0.066408
O51	O	1.684896	0.098033	0.266925
C52	C	0.872296	-0.388402	-0.354561
C53	C	1.205630	-0.055069	-0.021228
C54	C	1.538963	0.278265	0.312105
C55	C	0.790497	-0.388415	-0.354570
C56	C	1.123831	-0.055082	-0.021236
C57	C	1.457164	0.278251	0.312097
C58	C	0.602309	-0.440053	-0.401570
C59	C	0.935643	-0.106720	-0.068237
C60	C	1.268976	0.226613	0.265096
C61	C	0.525450	-0.440056	-0.401579
C62	C	0.858784	-0.106722	-0.068246
C63	C	1.192117	0.226611	0.265087
C64	C	0.525448	-0.336793	-0.307611
C65	C	0.858781	-0.003460	0.025723
C66	C	1.192115	0.329874	0.359056
C67	C	0.602305	-0.336787	-0.307606
C68	C	0.935639	-0.003454	0.025728
C69	C	1.268972	0.329880	0.359061
C70	C	0.640734	-0.388422	-0.354584
C71	C	0.974067	-0.055088	-0.021251
C72	C	1.307401	0.278245	0.312082
C73	C	0.487018	-0.388430	-0.354598
C74	C	0.820351	-0.055097	-0.021265
C75	C	1.153685	0.278236	0.312068
C76	C	0.403684	-0.388433	-0.354608
C77	C	0.737018	-0.055099	-0.021275
C78	C	1.070351	0.278234	0.312059
C79	C	0.724073	-0.388418	-0.354576
C80	C	1.057406	-0.055085	-0.021243
C81	C	1.390740	0.278248	0.312091
C82	C	1.063423	-0.597907	-0.354559
C83	C	1.396756	-0.264573	-0.021226
C84	C	1.730089	0.068760	0.312107
C85	C	1.063456	-0.687528	-0.354574
C86	C	1.396789	-0.354194	-0.021241
C87	C	1.730122	-0.020861	0.312093
C88	C	1.063484	-0.760310	-0.354589
C89	C	1.396818	-0.426977	-0.021255
C90	C	1.730151	-0.093643	0.312078
C91	C	1.063527	-0.851619	-0.354605
C92	C	1.396861	-0.518285	-0.021271
C93	C	1.730194	-0.184952	0.312062
C94	C	1.063565	-0.924395	-0.354614
C95	C	1.396899	-0.591062	-0.021281
C96	C	1.730232	-0.257728	0.312053
C97	C	1.063608	-1.015709	-0.354629
C98	C	1.396941	-0.682376	-0.021296
C99	C	1.730274	-0.349043	0.312037
C100	C	1.255456	-0.388430	-0.354604
C101	C	1.588789	-0.055097	-0.021271
C102	C	1.922122	0.278236	0.312063
C103	C	1.337254	-0.388436	-0.354613
C104	C	1.670588	-0.055103	-0.021280
C105	C	2.003921	0.278230	0.312053
C106	C	1.063547	-0.388360	-0.546535
C107	C	1.396881	-0.055027	-0.213202
C108	C	1.730214	0.278306	0.120131
C109	C	1.063567	-0.388336	-0.628334
C110	C	1.396900	-0.055003	-0.295001
C111	C	1.730233	0.278330	0.038332
C112	C	1.063603	-0.178107	-0.354622
C113	C	1.396936	0.155226	-0.021288
C114	C	1.730270	0.488560	0.312045
C115	C	1.063646	-0.088486	-0.354639
C116	C	1.396979	0.244848	-0.021305
C117	C	1.730312	0.578181	0.312028
C118	C	1.110677	-0.336721	-0.816544
C119	C	1.444011	-0.003388	-0.483211
C120	C	1.777344	0.329945	-0.149878
C121	C	1.110686	-0.336698	-0.893403
C122	C	1.444019	-0.003365	-0.560070
C123	C	1.777353	0.329969	-0.226737
C124	C	1.016508	-0.439827	-0.893362
C125	C	1.349841	-0.106493	-0.560029
C126	C	1.683175	0.226840	-0.226695
C127	C	1.016496	-0.439846	-0.816505
C128	C	1.349829	-0.106512	-0.483171
C129	C	1.683163	0.226821	-0.149838
C130	C	1.063585	-0.388294	-0.778098
C131	C	1.396918	-0.054961	-0.444765
C132	C	1.730252	0.278373	-0.111431
C133	C	1.063606	-0.388252	-0.931814
C134	C	1.396939	-0.054918	-0.598481
C135	C	1.730272	0.278415	-0.265147
C136	C	1.063615	-0.388227	-1.015148
C137	C	1.396948	-0.054893	-0.681814
C138	C	1.730281	0.278440	-0.348481
C139	C	1.063575	-0.388318	-0.694759
C140	C	1.396908	-0.054985	-0.361426
C141	C	1.730242	0.278349	-0.028092
C142	C	1.063500	-0.388413	-0.163376
C143	C	1.396834	-0.055080	0.169957
C144	C	1.730167	0.278254	0.503291
C145	C	1.063624	-0.388210	-0.081578
C146	C	1.396957	-0.054876	0.251756
C147	C	1.730291	0.278457	0.585089
H148	H	0.633595	-0.482096	-0.439825
H149	H	0.966929	-0.148762	-0.106492
H150	H	1.300262	0.184571	0.226842
H151	H	0.978171	-0.481800	-0.924642
H152	H	1.311505	-0.148467	-0.591309
H153	H	1.644838	0.184867	-0.257976
Br154	Br	0.952573	-0.509835	-0.764322
Br155	Br	1.285907	-0.176502	-0.430989
Br156	Br	1.619240	0.156832	-0.097655
H157	H	0.494168	-0.482098	-0.439841
H158	H	0.827502	-0.148765	-0.106508
H159	H	1.160835	0.184568	0.226826
Br160	Br	0.473291	-0.266721	-0.243857
Br161	Br	0.806624	0.066613	0.089477
Br162	Br	1.139957	0.399946	0.422810
Br163	Br	0.654458	-0.266702	-0.243842
Br164	Br	0.987792	0.066631	0.089492
Br165	Br	1.321125	0.399964	0.422825
H166	H	1.149018	-0.294743	-0.785276
H167	H	1.482351	0.038591	-0.451943
H168	H	1.815685	0.371924	-0.118609
Br169	Br	1.174606	-0.266709	-0.945578
Br170	Br	1.507939	0.066624	-0.612245
Br171	Br	1.841272	0.399957	-0.278912
