data_functionalizedCrystal
_audit_creation_method	'MofGen! by Chris Wilmer'
_symmetry_space_group_name_H-M	'P1'
_symmetry_Int_Tables_number	1
_symmetry_cell_setting	triclinic
loop_
_symmetry_equiv_pos_as_xyz
  x,y,z
_cell_length_a	19.851628
_cell_length_b	14.560438
_cell_length_c	14.560438
_cell_angle_alpha	59.999712
_cell_angle_beta	90.002970
_cell_angle_gamma	60.011440
loop_
_atom_site_label
_atom_site_type_symbol
_atom_site_fract_x
_atom_site_fract_y
_atom_site_fract_z
Zr1	Zr	-0.088266	1.005161	0.884812
O2	O	-0.195803	1.196731	0.738176
O3	O	-0.055315	0.813580	0.929759
O4	O	-0.195819	1.005143	0.929772
O5	O	0.055550	1.005186	0.738158
O6	O	-0.195816	1.005140	1.080913
O7	O	-0.055299	1.005169	0.738162
O8	O	0.055522	0.662470	1.080889
O9	O	-0.195787	1.347856	0.738182
O10	O	-0.041241	0.892382	1.061729
O11	O	0.041481	0.892397	0.948931
O12	O	-0.123945	1.117937	0.948947
O13	O	-0.041222	1.117952	0.836149
Zr14	Zr	0.088531	1.005184	1.125857
Zr15	Zr	-0.088260	1.005156	1.125865
Zr16	Zr	0.088525	1.005189	0.884805
Zr17	Zr	-0.088240	1.246188	0.884822
Zr18	Zr	0.088505	0.764157	1.125848
O19	O	0.055579	1.196765	1.080911
O20	O	-0.195795	1.196725	1.080921
O21	O	0.055571	1.196771	0.738165
O22	O	0.196068	0.813614	1.272494
O23	O	-0.055306	0.813574	1.272504
O24	O	0.196060	0.813621	0.929749
O25	O	-0.055286	1.005159	1.272512
O26	O	0.196084	1.005203	1.080897
O27	O	0.196080	1.005205	0.929756
O28	O	0.055563	1.005176	1.272508
O29	O	-0.195782	1.347853	0.929786
O30	O	0.196047	0.662492	1.080884
O31	O	0.196052	0.662489	1.272488
O32	O	0.055526	0.662466	1.272494
O33	O	-0.055262	1.347879	0.738176
O34	O	-0.055257	1.347875	0.929780
O35	O	0.124209	0.892408	1.061723
O36	O	0.041487	0.892393	1.174521
O37	O	-0.041217	1.117948	1.061738
O38	O	0.041506	1.117963	0.948940
C39	C	0.000100	0.703684	1.005323
C40	C	0.000089	0.601361	1.005319
C41	C	-0.060949	0.636480	0.922063
C42	C	-0.060908	0.540291	0.922081
C43	C	0.061217	0.373866	1.088615
C44	C	0.061171	0.470054	1.088601
C45	C	-0.131455	0.732563	0.825913
C46	C	-0.131414	0.636374	0.825931
C47	C	-0.221006	1.005137	1.005344
C48	C	-0.296059	1.005125	1.005347
C49	C	-0.432331	0.882172	1.066837
C50	C	-0.499780	0.943648	0.960782
C51	C	-0.433490	1.005159	1.005336
C52	C	-0.499776	0.943674	1.111370
C53	C	-0.566239	1.005182	1.005334
C54	C	-0.499951	1.066636	0.899218
C55	C	-0.499936	1.066644	1.049883
C56	C	-0.567398	1.128211	0.943764
C57	C	-0.357015	1.005142	1.005338
C58	C	-0.642716	1.005209	1.005321
C59	C	0.221271	1.005208	1.005326
C60	C	0.296323	1.005220	1.005323
C61	C	0.000125	1.005178	0.703815
C62	C	0.000123	1.005180	0.601482
C63	C	0.000165	1.306661	1.005347
C64	C	0.000176	1.408984	1.005351
C65	C	-0.060944	1.005172	0.553401
C66	C	-0.060932	1.005160	0.457255
C67	C	0.061214	1.005169	0.457277
C68	C	0.061206	1.005172	0.553426
C69	C	-0.131466	1.005173	0.553385
C70	C	-0.131455	1.005161	0.457239
C71	C	0.000140	1.005167	1.306855
C72	C	0.000142	1.005165	1.409188
C73	C	0.000107	0.703678	1.306843
C74	C	0.000099	0.601354	1.409172
C75	C	0.221238	0.703719	1.005314
C76	C	0.296280	0.601409	1.005306
C77	C	0.221246	0.703713	1.306833
C78	C	0.296290	0.601401	1.409159
C79	C	-0.220981	1.306632	0.703836
C80	C	-0.296025	1.408944	0.601510
C81	C	0.000157	1.306667	0.703827
C82	C	0.000166	1.408992	0.601498
C83	C	-0.220974	1.306626	1.005356
C84	C	-0.296015	1.408937	1.005363
C85	C	0.374711	0.553368	1.064179
C86	C	0.445227	0.457250	1.064168
C87	C	0.437310	0.409168	1.005290
C88	C	0.358871	0.457217	0.946411
C89	C	0.288357	0.553340	0.946416
C90	C	0.288351	0.553346	1.516102
C91	C	0.358856	0.457226	1.612257
C92	C	0.437299	0.409156	1.601467
C93	C	0.445236	0.457221	1.494513
C94	C	0.374732	0.553346	1.398360
C95	C	-0.288086	1.457011	0.494567
C96	C	-0.358591	1.553161	0.398412
C97	C	-0.437034	1.601236	0.409202
C98	C	-0.444971	1.553165	0.516157
C99	C	-0.374467	1.457023	0.612309
C100	C	-0.288072	1.456989	1.064252
C101	C	-0.358575	1.553108	1.064281
C102	C	-0.437020	1.601179	1.005413
C103	C	-0.444961	1.553117	0.946523
C104	C	-0.374459	1.456994	0.946501
C105	C	-0.043086	0.553272	1.398373
C106	C	-0.043097	0.457135	1.494526
C107	C	0.043268	0.457166	1.612272
C108	C	0.043274	0.553308	1.516121
C109	C	-0.092945	0.553249	1.330394
C110	C	-0.092956	0.457112	1.426546
H111	H	0.110868	0.441449	1.156405
Br112	Br	0.144110	0.195663	1.201636
Br113	Br	-0.224927	1.160611	0.525368
Br114	Br	0.348064	0.392013	1.757395
H115	H	-0.119141	0.911894	0.474052
Br116	Br	0.101858	0.391958	1.757419
H117	H	-0.158966	0.643243	1.278200
H118	H	-0.494420	1.679449	1.005440
Br119	Br	-0.046739	0.307083	1.426546
H120	H	-0.191670	1.095547	0.385940
Br121	Br	-0.038107	0.493045	1.245525
Br122	Br	0.385477	0.618596	1.144100
Br123	Br	-0.335953	0.708851	1.153384
H124	H	-0.380941	1.417888	0.699385
Br125	Br	0.532976	0.278699	1.731973
Br126	Br	-0.224872	0.636292	0.853930
H127	H	0.509088	0.418139	1.112119
H128	H	-0.508840	1.592272	0.898594
H129	H	-0.352112	1.592284	0.311335
Br130	Br	-0.498750	1.153211	1.112732
Br131	Br	0.551701	0.391970	1.479888
H132	H	-0.156799	0.493235	1.435276
Br133	Br	-0.500880	0.857001	1.260827
Br134	Br	-0.231850	0.837517	0.839710
Br135	Br	0.385521	0.618546	1.253227
H136	H	-0.224205	1.417864	1.112189
H137	H	-0.224220	1.417873	0.485760
H138	H	-0.125321	0.647191	0.743819
Br139	Br	-0.110923	0.832032	0.698463
Br140	Br	-0.500918	0.857022	0.897965
Br141	Br	-0.498958	1.153213	0.749686
Br142	Br	0.101868	0.618581	1.530781
H143	H	-0.625128	1.232287	0.891682
H144	H	0.494734	0.330898	1.005295
Br145	Br	-0.385254	1.391802	0.866562
H146	H	-0.494436	1.679520	0.330899
Br147	Br	0.144111	1.005152	0.392056
Br148	Br	0.144095	1.005149	0.618697
Br149	Br	0.181918	0.618521	0.866513
Br150	Br	0.348142	0.391948	0.866511
H151	H	0.224485	0.592470	1.524909
Br152	Br	-0.551436	1.618421	0.530781
H153	H	-0.125394	0.914775	0.624675
Br154	Br	-0.347778	1.618319	1.144205
