data_functionalizedCrystal
_audit_creation_method	'MofGen! by Chris Wilmer'
_symmetry_space_group_name_H-M	'P1'
_symmetry_Int_Tables_number	1
_symmetry_cell_setting	triclinic
loop_
_symmetry_equiv_pos_as_xyz
  x,y,z
_cell_length_a	10.723022
_cell_length_b	10.723023
_cell_length_c	16.776229
_cell_angle_alpha	89.999631
_cell_angle_beta	90.006866
_cell_angle_gamma	84.467387
loop_
_atom_site_label
_atom_site_type_symbol
_atom_site_fract_x
_atom_site_fract_y
_atom_site_fract_z
O1	O	1.657195	0.175010	0.066281
O2	O	1.294042	0.191765	0.066284
O3	O	1.483996	0.001811	0.066279
O4	O	1.467241	0.364964	0.066286
O5	O	1.483968	0.001821	-0.066297
O6	O	1.294014	0.191775	-0.066293
O7	O	1.657167	0.175020	-0.066295
Zn8	Zn	1.475586	0.183399	-0.087343
Zn9	Zn	1.475623	0.183386	0.087332
O10	O	1.467213	0.364974	-0.066291
C11	C	1.247529	0.190551	-0.000004
C12	C	1.108974	0.186904	-0.000003
C13	C	0.890796	0.289421	0.000000
C14	C	1.033998	0.293192	-0.000001
C15	C	1.482763	-0.044683	-0.000008
C16	C	1.479115	-0.183238	-0.000006
C17	C	1.477504	-0.245008	0.068674
C18	C	1.473734	-0.388212	0.068678
C19	C	1.703681	0.176234	-0.000006
C20	C	1.842235	0.179881	-0.000001
C21	C	1.468446	0.411469	-0.000002
C22	C	1.472094	0.550023	0.000001
N23	N	1.475570	0.183407	-0.206555
C24	C	1.559771	0.099287	-0.751721
C25	C	1.559765	0.099296	-0.668269
C26	C	1.475630	0.183381	-0.626554
C27	C	1.391504	0.267470	-0.668295
C28	C	1.391517	0.267467	-0.751746
C29	C	1.391450	0.267488	-0.331748
C30	C	1.391441	0.267483	-0.248292
C31	C	1.559698	0.099318	-0.248271
C32	C	1.559711	0.099314	-0.331722
C33	C	1.475590	0.183408	-0.373456
C34	C	1.475600	0.183399	-0.463944
C35	C	1.475613	0.183384	-0.536067
N36	N	1.475649	0.183368	0.206543
H37	H	1.067171	0.093113	0.000016
C38	C	1.298978	0.359955	-0.797658
C39	C	1.203140	0.310325	-0.855044
C40	C	1.110603	0.402821	-0.900954
C41	C	1.113904	0.544948	-0.889478
C42	C	1.209745	0.594586	-0.832090
C43	C	1.302282	0.502089	-0.786179
H44	H	1.200694	0.205107	-0.863541
H45	H	1.039655	0.366075	-0.943437
H46	H	1.045402	0.613419	-0.923464
H47	H	1.212192	0.699803	-0.823592
H48	H	1.373230	0.538835	-0.743697
C49	C	1.477209	-0.255003	-0.079441
C50	C	1.369492	-0.223983	-0.139077
C51	C	1.367586	-0.295744	-0.218515
C52	C	1.473398	-0.398527	-0.238317
C53	C	1.581123	-0.429552	-0.178679
C54	C	1.583029	-0.357790	-0.099241
H55	H	1.291156	-0.147893	-0.124420
H56	H	1.287840	-0.272777	-0.262663
H57	H	1.471987	-0.451649	-0.297122
H58	H	1.659459	-0.505642	-0.193336
H59	H	1.662775	-0.380758	-0.055093
C60	C	0.929280	0.056952	-0.000004
C61	C	1.022613	0.028199	-0.068849
C62	C	1.109655	-0.094735	-0.068852
C63	C	1.103363	-0.188915	-0.000010
C64	C	1.010026	-0.160164	0.068840
C65	C	0.922984	-0.037231	0.068843
H66	H	1.027274	0.097919	-0.119814
H67	H	1.178749	-0.116018	-0.119819
H68	H	1.167797	-0.279918	-0.000012
H69	H	1.005365	-0.229885	0.119805
H70	H	0.853890	-0.015948	0.119810
C71	C	1.298913	0.359976	-0.377653
C72	C	1.298926	0.359981	-0.469446
C73	C	1.206383	0.452470	-0.515357
C74	C	1.113828	0.544955	-0.469475
C75	C	1.113811	0.544954	-0.377677
C76	C	1.206354	0.452465	-0.331766
H77	H	1.367444	0.291514	-0.503414
H78	H	1.206396	0.452470	-0.583311
H79	H	1.045322	0.613421	-0.503461
H80	H	1.045293	0.613420	-0.343709
H81	H	1.206341	0.452465	-0.263812
C82	C	1.479410	-0.173240	0.148108
C83	C	1.589944	-0.096943	0.167906
C84	C	1.591850	-0.025177	0.247342
C85	C	1.483222	-0.029709	0.306981
C86	C	1.372680	-0.106009	0.287185
C87	C	1.370774	-0.177774	0.207748
H88	H	1.670365	-0.093586	0.123756
H89	H	1.673682	0.031305	0.261997
H90	H	1.484633	0.023417	0.365785
H91	H	1.292259	-0.109365	0.331334
H92	H	1.288942	-0.234257	0.193094
C93	C	1.471862	-0.459964	0.148118
C94	C	1.580516	-0.455424	0.207753
C95	C	1.578644	-0.527179	0.287196
C96	C	1.468118	-0.603473	0.307003
C97	C	1.359456	-0.608016	0.247366
C98	C	1.361328	-0.536261	0.167923
H99	H	1.662341	-0.398944	0.193092
H100	H	1.659083	-0.523816	0.331343
H101	H	1.466732	-0.656590	0.365811
H102	H	1.277631	-0.664496	0.262027
H103	H	1.280889	-0.539624	0.123776
C104	C	1.652323	0.006791	-0.797604
C105	C	1.744875	-0.085675	-0.751691
C106	C	1.837433	-0.178171	-0.797570
C107	C	1.837440	-0.178201	-0.889363
C108	C	1.744884	-0.085731	-0.935281
C109	C	1.652325	0.006765	-0.889401
H110	H	1.744874	-0.085656	-0.683736
H111	H	1.905949	-0.246624	-0.763578
H112	H	1.905957	-0.246672	-0.923326
H113	H	1.744885	-0.085750	-1.003236
H114	H	1.583810	0.075217	-0.923394
C115	C	1.652293	0.006803	-0.622356
C116	C	1.648982	-0.135324	-0.633822
C117	C	1.741514	-0.227819	-0.587907
C118	C	1.837358	-0.178186	-0.530527
C119	C	1.840672	-0.036051	-0.519058
C120	C	1.748140	0.056443	-0.564973
H121	H	1.578030	-0.172072	-0.676301
H122	H	1.739060	-0.333037	-0.596398
H123	H	1.905856	-0.246656	-0.496538
H124	H	1.911625	0.000696	-0.476579
H125	H	1.750594	0.161661	-0.556482
H126	H	0.826353	0.380409	0.000007
H127	H	1.075810	0.386980	-0.000004
H128	H	1.473486	-0.396865	-0.058801
H129	H	1.628218	0.030841	-0.365684
H130	H	1.628198	0.030848	-0.214283
H131	H	1.322926	0.335959	-0.214329
H132	H	1.323003	0.335940	-0.634326
