data_functionalizedCrystal
_audit_creation_method	'MofGen! by Chris Wilmer'
_symmetry_space_group_name_H-M	'P1'
_symmetry_Int_Tables_number	1
_symmetry_cell_setting	triclinic
loop_
_symmetry_equiv_pos_as_xyz
  x,y,z
_cell_length_a	16.109301
_cell_length_b	17.019294
_cell_length_c	15.186229
_cell_angle_alpha	86.117288
_cell_angle_beta	89.999006
_cell_angle_gamma	83.427995
loop_
_atom_site_label
_atom_site_type_symbol
_atom_site_fract_x
_atom_site_fract_y
_atom_site_fract_z
O1	O	1.103039	0.101396	-0.080867
O2	O	1.603039	0.601396	0.419133
O3	O	0.860966	0.114014	-0.081837
O4	O	1.360966	0.614014	0.418163
O5	O	0.988756	-0.007130	-0.072640
O6	O	1.488756	0.492870	0.427360
O7	O	0.975249	0.222539	-0.090064
O8	O	1.475249	0.722539	0.409936
O9	O	0.988747	-0.007131	0.073818
O10	O	1.488747	0.492869	0.573818
O11	O	0.860957	0.114012	0.064621
O12	O	1.360957	0.614012	0.564621
O13	O	1.103031	0.101394	0.065590
O14	O	1.603031	0.601394	0.565590
Zn15	Zn	0.981993	0.107703	0.088359
Zn16	Zn	1.481993	0.607703	0.588359
Zn17	Zn	0.982004	0.107705	-0.104605
Zn18	Zn	1.482004	0.607705	0.395395
O19	O	0.975241	0.222537	0.056393
O20	O	1.475241	0.722537	0.556393
C21	C	0.829987	0.113502	-0.008571
C22	C	1.329987	0.613502	0.491429
C23	C	0.737693	0.111969	-0.008459
C24	C	1.237693	0.611969	0.491541
C25	C	0.428635	0.178844	-0.013517
C26	C	0.928635	0.678844	0.486483
C27	C	0.515354	0.180291	-0.013632
C28	C	1.015354	0.680291	0.486368
C29	C	0.535356	0.036558	-0.002739
C30	C	1.035356	0.536558	0.497261
C31	C	0.448639	0.035112	-0.002631
C32	C	0.948639	0.535112	0.497369
C33	C	0.395280	0.106257	-0.008015
C34	C	0.895280	0.606257	0.491985
C35	C	0.568716	0.109151	-0.008239
C36	C	1.068716	0.609151	0.491761
C37	C	0.662741	0.110719	-0.008363
C38	C	1.162741	0.610719	0.491637
C39	C	0.301249	0.104689	-0.007893
C40	C	0.801249	0.604689	0.492107
C41	C	0.988239	-0.036520	0.002817
C42	C	1.488239	0.463480	0.502817
C43	C	0.986703	-0.124090	0.009455
C44	C	1.486703	0.375910	0.509455
C45	C	0.985988	-0.165225	-0.067260
C46	C	1.485988	0.334775	0.432740
C47	C	0.984539	-0.247505	-0.061021
C48	C	1.484539	0.252495	0.438979
C49	C	0.983811	-0.288650	0.021935
C50	C	1.483811	0.211350	0.521935
C51	C	0.984524	-0.247509	0.098655
C52	C	1.484524	0.252491	0.598655
C53	C	0.985967	-0.165229	0.092415
C54	C	1.485967	0.334771	0.592415
C55	C	0.979449	-0.537082	0.044771
C56	C	1.479449	-0.037082	0.544771
C57	C	0.978009	-0.619368	0.051006
C58	C	1.478009	-0.119368	0.551006
C59	C	0.978022	-0.619358	-0.108671
C60	C	1.478022	-0.119358	0.391329
C61	C	0.979470	-0.537077	-0.114904
C62	C	1.479470	-0.037077	0.385096
C63	C	0.980178	-0.495943	-0.038183
C64	C	1.480178	0.004057	0.461817
C65	C	0.982333	-0.372754	0.028315
C66	C	1.482333	0.127246	0.528315
C67	C	0.981651	-0.411839	-0.044564
C68	C	1.481651	0.088161	0.455436
C69	C	1.134009	0.101906	-0.007678
C70	C	1.634009	0.601906	0.492322
C71	C	1.226303	0.103438	-0.007795
C72	C	1.726303	0.603438	0.492205
C73	C	0.975757	0.251927	-0.019065
C74	C	1.475757	0.751927	0.480935
C75	C	0.977294	0.339497	-0.025709
C76	C	1.477294	0.839497	0.474291
N77	N	0.981991	0.107701	0.220052
N78	N	1.481991	0.607701	0.720052
N79	N	0.982012	0.107701	-0.236298
N80	N	1.482012	0.607701	0.263702
C81	C	1.038596	0.054076	0.449845
C82	C	1.538596	0.554076	0.949845
C83	C	1.038598	0.054075	0.542035
C84	C	1.538598	0.554075	1.042035
C85	C	0.925401	0.161328	0.533902
C86	C	1.425401	0.661328	1.033902
C87	C	0.925396	0.161325	0.441714
C88	C	1.425396	0.661325	0.941714
C89	C	0.981997	0.107700	0.399688
C90	C	1.481997	0.607700	0.899688
C91	C	0.982006	0.107701	0.584066
C92	C	1.482006	0.607701	1.084066
C93	C	0.982008	0.107699	0.684022
C94	C	1.482008	0.607699	1.184022
C95	C	0.981994	0.107701	0.299726
C96	C	1.481994	0.607701	0.799726
H97	H	0.542506	0.239398	-0.018113
H98	H	1.042506	0.739398	0.481887
H99	H	0.977412	-0.652865	0.118562
H100	H	1.477412	-0.152865	0.618562
H101	H	0.578811	-0.021365	0.001647
H102	H	1.078811	0.478635	0.501647
H103	H	0.385192	0.236775	-0.017902
H104	H	0.885192	0.736775	0.482098
H105	H	0.879302	0.204993	0.400873
H106	H	1.379302	0.704993	0.900873
H107	H	1.084685	0.010408	0.582871
H108	H	1.584685	0.510408	1.082871
H109	H	0.421482	-0.024000	0.001847
H110	H	0.921482	0.476000	0.501847
H111	H	0.986585	-0.131731	-0.134812
H112	H	1.486585	0.368269	0.365188
H113	H	0.983960	-0.280994	-0.123490
H114	H	1.483960	0.219006	0.376510
H115	H	0.980064	-0.503583	-0.182455
H116	H	1.480064	-0.003583	0.317545
H117	H	0.980042	-0.503602	0.107243
H118	H	1.480042	-0.003602	0.607243
H119	H	0.977444	-0.652859	-0.171132
H120	H	1.477444	-0.152859	0.328868
H121	H	0.983926	-0.281015	0.166200
H122	H	1.483926	0.218985	0.666200
H123	H	0.986537	-0.131736	0.154884
H124	H	1.486537	0.368264	0.654884
H125	H	0.982237	-0.378335	-0.112106
H126	H	1.482237	0.121665	0.387894
H127	H	0.981743	-0.406264	0.095857
H128	H	1.481743	0.093736	0.595857
H129	H	0.879319	0.204989	0.568129
H130	H	1.379319	0.704989	1.068129
H131	H	1.084683	0.010411	0.415630
H132	H	1.584683	0.510411	0.915630
