data_functionalizedCrystal
_audit_creation_method	'MofGen! by Chris Wilmer'
_symmetry_space_group_name_H-M	'P1'
_symmetry_Int_Tables_number	1
_symmetry_cell_setting	triclinic
loop_
_symmetry_equiv_pos_as_xyz
  x,y,z
_cell_length_a	10.489741
_cell_length_b	15.995292
_cell_length_c	14.472310
_cell_angle_alpha	89.985801
_cell_angle_beta	89.999301
_cell_angle_gamma	84.003895
loop_
_atom_site_label
_atom_site_type_symbol
_atom_site_fract_x
_atom_site_fract_y
_atom_site_fract_z
O1	O	0.164046	1.112016	-0.076865
O2	O	0.184426	0.868357	-0.076862
O3	O	-0.011441	0.995731	-0.076858
O4	O	0.359913	0.984642	-0.076869
O5	O	-0.011430	0.995698	0.076824
O6	O	0.184437	0.868324	0.076820
O7	O	0.164057	1.111983	0.076817
Cu8	Cu	0.174248	0.990150	0.090851
Cu9	Cu	0.174235	0.990190	-0.090896
O10	O	0.359924	0.984609	0.076813
C11	C	0.183602	0.837140	-0.000020
C12	C	0.181115	0.744172	-0.000019
C13	C	0.171973	0.406378	-0.000029
C14	C	0.313345	0.430543	-0.000376
C15	C	0.316032	0.527235	-0.000026
C16	C	0.176510	0.573962	-0.000024
C17	C	0.105837	0.544415	0.087735
C18	C	0.104135	0.447614	0.087804
C19	C	0.101235	0.447779	-0.086961
C20	C	0.106474	0.544303	-0.088117
C21	C	0.179066	0.668673	-0.000019
C22	C	0.169413	0.311667	-0.000028
C23	C	-0.058955	0.994877	-0.000018
C24	C	-0.200549	0.992371	-0.000019
C25	C	-0.267529	0.911327	-0.000025
C26	C	-0.360194	0.949595	0.075748
C27	C	-0.360180	0.949647	-0.075771
C28	C	-0.291349	1.030673	0.075816
C29	C	-0.291325	1.030713	-0.075771
C30	C	-0.383963	1.069040	0.000020
C31	C	0.407438	0.985463	-0.000030
C32	C	0.549032	0.987969	-0.000034
C33	C	0.164881	1.143200	-0.000027
C34	C	0.167368	1.236168	-0.000035
N35	N	0.174257	0.990129	0.218682
N36	N	0.174216	0.990217	-0.218727
C37	C	0.174230	0.990188	0.592773
C38	C	0.278683	0.921800	0.553605
C39	C	0.279064	0.921962	0.446517
C40	C	0.174243	0.990158	0.407182
C41	C	0.203283	1.077700	0.446017
C42	C	0.204026	1.077317	0.553138
C43	C	0.040426	0.971812	0.553306
C44	C	0.041319	0.969814	0.446179
C45	C	0.174248	0.990147	0.302294
C46	C	0.174227	0.990206	0.697661
H47	H	0.004637	0.576660	-0.093416
H48	H	0.371373	0.546609	-0.062937
H49	H	0.367831	0.402889	-0.063313
H50	H	0.299751	1.094135	0.419176
C51	C	0.099307	0.850827	0.648277
C52	C	0.002743	0.887429	0.589809
H53	H	0.076055	0.798727	0.670806
H54	H	0.109871	0.887399	0.698767
H55	H	0.177480	0.841519	0.614903
H56	H	-0.075428	0.896743	0.623185
H57	H	-0.007836	0.850849	0.539312
C58	C	-0.117715	0.502013	0.096351
C59	C	-0.035788	0.427119	0.093195
H60	H	-0.204093	0.489361	0.099688
H61	H	-0.106288	0.534012	0.042242
H62	H	-0.098335	0.533452	0.149274
H63	H	-0.055161	0.395683	0.040267
H64	H	-0.047221	0.395107	0.147309
H65	H	-0.390710	0.915290	0.139809
H66	H	0.153089	0.421078	0.153405
H67	H	-0.002824	0.433158	-0.087553
C68	C	0.256120	0.834114	0.314313
C69	C	0.255788	0.834141	0.411066
H70	H	0.241764	0.779891	0.292433
H71	H	0.336690	0.848042	0.292580
H72	H	0.190113	0.874382	0.292312
H73	H	0.321802	0.793877	0.433068
H74	H	0.175208	0.820202	0.432808
H75	H	0.371724	0.545961	0.062987
H76	H	-0.261002	1.064921	0.139947
H77	H	0.130945	1.129839	0.579045
C78	C	-0.293022	0.876493	-0.215179
C79	C	-0.401345	0.903364	-0.162254
H80	H	-0.318435	0.847921	-0.268569
H81	H	-0.235825	0.839524	-0.179489
H82	H	-0.251355	0.923814	-0.233385
H83	H	-0.443007	0.856042	-0.144042
H84	H	-0.458563	0.940335	-0.197950
H85	H	0.377417	0.933460	0.580511
C86	C	0.493371	0.947386	0.487655
C87	C	0.413100	0.937926	0.411898
H88	H	0.576118	0.957251	0.466281
H89	H	0.499753	0.897657	0.523975
H90	H	0.458687	0.993678	0.524078
H91	H	0.447779	0.891630	0.375479
H92	H	0.406722	0.987661	0.375563
H93	H	0.301607	1.093388	0.578111
H94	H	0.129227	1.129839	0.420535
C95	C	-0.072512	1.028620	0.313450
C96	C	-0.068527	1.032610	0.410044
H97	H	-0.140319	1.067399	0.291145
H98	H	-0.086507	0.973362	0.294889
H99	H	0.006583	1.042408	0.288807
H100	H	-0.147619	1.018816	0.434688
H101	H	-0.054542	1.087880	0.428614
C102	C	-0.107135	0.865277	0.447030
C103	C	0.011553	0.882877	0.411918
H104	H	-0.125503	0.811603	0.425877
H105	H	-0.172127	0.906892	0.426394
H106	H	-0.104258	0.865385	0.512635
H107	H	0.008673	0.882774	0.346312
H108	H	0.076561	0.841250	0.432549
H109	H	-0.216925	0.844693	0.000052
H110	H	0.367538	0.401838	0.062203
C111	C	0.168906	0.659594	0.177224
C112	C	0.172105	0.571867	0.175901
H113	H	0.209830	0.676539	0.231650
H114	H	0.082378	0.683982	0.176445
H115	H	0.212361	0.677754	0.124479
H116	H	0.128641	0.553708	0.228643
H117	H	0.258648	0.547470	0.176689
C118	C	-0.155799	1.000598	0.638333
C119	C	-0.064515	1.039116	0.587502
H120	H	-0.220581	1.042151	0.659442
H121	H	-0.115515	0.972066	0.689844
H122	H	-0.193226	0.961464	0.600177
H123	H	-0.027082	1.078246	0.625659
H124	H	-0.104805	1.067662	0.535983
H125	H	0.003167	0.575663	0.090999
C126	C	-0.417269	1.201275	0.079476
C127	C	-0.451989	1.159070	0.000074
H128	H	-0.459275	1.256852	0.079513
H129	H	-0.327109	1.203349	0.079980
H130	H	-0.441897	1.172251	0.132787
H131	H	-0.427353	1.188091	-0.053238
H132	H	-0.542169	1.157000	-0.000438
H133	H	0.145418	0.419732	-0.153477
C134	C	-0.163898	1.022925	-0.213910
C135	C	-0.250066	1.076985	-0.162252
H136	H	-0.138419	1.051490	-0.267302
H137	H	-0.204179	0.975041	-0.232097
H138	H	-0.090647	1.005592	-0.177367
H139	H	-0.323321	1.094313	-0.198793
H140	H	-0.209786	1.124884	-0.144066
H141	H	0.157931	0.563197	-0.153040
H142	H	0.261670	0.856546	0.579395
