data_functionalizedCrystal
_audit_creation_method	'MofGen! by Chris Wilmer'
_symmetry_space_group_name_H-M	'P1'
_symmetry_Int_Tables_number	1
_symmetry_cell_setting	triclinic
loop_
_symmetry_equiv_pos_as_xyz
  x,y,z
_cell_length_a	18.100771
_cell_length_b	16.120530
_cell_length_c	16.120297
_cell_angle_alpha	90.128140
_cell_angle_beta	86.830971
_cell_angle_gamma	92.578108
loop_
_atom_site_label
_atom_site_type_symbol
_atom_site_fract_x
_atom_site_fract_y
_atom_site_fract_z
Zn1	Zn	0.375213	1.245212	-0.536747
Zn2	Zn	0.625213	1.495212	-0.286747
Zn3	Zn	0.875213	1.745212	-0.036747
Zn4	Zn	1.125213	1.995212	0.213253
Zn5	Zn	0.493113	1.251462	-0.398375
Zn6	Zn	0.743113	1.501462	-0.148375
Zn7	Zn	0.993113	1.751462	0.101625
Zn8	Zn	1.243113	2.001462	0.351625
Zn9	Zn	0.362698	1.113276	-0.390592
Zn10	Zn	0.612698	1.363276	-0.140592
Zn11	Zn	0.862698	1.613276	0.109408
Zn12	Zn	1.112698	1.863276	0.359408
Zn13	Zn	0.492431	1.105422	-0.530340
Zn14	Zn	0.742431	1.355422	-0.280340
Zn15	Zn	0.992431	1.605422	-0.030340
Zn16	Zn	1.242431	1.855422	0.219660
O17	O	0.430864	1.178843	-0.464013
O18	O	0.680864	1.428843	-0.214013
O19	O	0.930864	1.678843	0.035987
O20	O	1.180864	1.928843	0.285987
O21	O	0.396376	1.362374	-0.524330
O22	O	0.646376	1.612374	-0.274330
O23	O	0.896376	1.862374	-0.024330
O24	O	1.146376	2.112374	0.225670
O25	O	0.470861	1.239034	-0.280948
O26	O	0.720861	1.489034	-0.030948
O27	O	0.970861	1.739034	0.219052
O28	O	1.220861	1.989034	0.469052
O29	O	0.260724	1.131449	-0.409404
O30	O	0.510724	1.381449	-0.159404
O31	O	0.760724	1.631449	0.090596
O32	O	1.010724	1.881449	0.340596
O33	O	0.482996	1.366966	-0.422668
O34	O	0.732996	1.616966	-0.172668
O35	O	0.982996	1.866966	0.077332
O36	O	1.232996	2.116966	0.327332
O37	O	0.269918	1.228381	-0.516783
O38	O	0.519918	1.478381	-0.266783
O39	O	0.769918	1.728381	-0.016783
O40	O	1.019918	1.978381	0.233217
O41	O	0.375046	1.137510	-0.275230
O42	O	0.625046	1.387510	-0.025230
O43	O	0.875046	1.637510	0.224770
O44	O	1.125046	1.887510	0.474770
O45	O	0.374385	0.995901	-0.403192
O46	O	0.624385	1.245901	-0.153192
O47	O	0.874385	1.495901	0.096808
O48	O	1.124385	1.745901	0.346808
O49	O	0.481834	1.118063	-0.647584
O50	O	0.731834	1.368063	-0.397584
O51	O	0.981834	1.618063	-0.147584
O52	O	1.231834	1.868063	0.102416
O53	O	0.469699	0.990131	-0.505864
O54	O	0.719699	1.240131	-0.255864
O55	O	0.969699	1.490131	-0.005864
O56	O	1.219699	1.740131	0.244136
O57	O	0.395715	1.220766	-0.652291
O58	O	0.645715	1.470766	-0.402291
O59	O	0.895715	1.720766	-0.152291
O60	O	1.145715	1.970766	0.097709
O61	O	0.596657	1.231418	-0.416456
O62	O	0.846657	1.481418	-0.166456
O63	O	1.096657	1.731418	0.083544
O64	O	1.346657	1.981418	0.333544
O65	O	0.596156	1.124124	-0.513411
O66	O	0.846156	1.374124	-0.263411
O67	O	1.096156	1.624124	-0.013411
O68	O	1.346156	1.874124	0.236589
C69	C	0.420610	0.962852	-0.452988
C70	C	0.670610	1.212852	-0.202988
C71	C	0.920610	1.462852	0.047012
C72	C	1.170610	1.712852	0.297012
C73	C	0.416242	0.870449	-0.448292
C74	C	0.666242	1.120449	-0.198292
C75	C	0.916242	1.370449	0.051708
C76	C	1.166242	1.620449	0.301708
C77	C	0.237698	1.180094	-0.462940
C78	C	0.487698	1.430094	-0.212940
C79	C	0.737698	1.680094	0.037060
C80	C	0.987698	1.930094	0.287060
C81	C	0.155382	1.180627	-0.462482
C82	C	0.405382	1.430627	-0.212482
C83	C	0.655382	1.680627	0.037518
C84	C	0.905382	1.930627	0.287518
C85	C	0.408251	0.701267	-0.439724
C86	C	0.658251	0.951267	-0.189724
C87	C	0.908251	1.201267	0.060276
C88	C	1.158251	1.451267	0.310276
C89	C	0.453534	0.657256	-0.488364
C90	C	0.703534	0.907256	-0.238364
C91	C	0.953534	1.157256	0.011636
C92	C	1.203534	1.407256	0.261636
C93	C	0.449088	0.563118	-0.483597
C94	C	0.699088	0.813118	-0.233597
C95	C	0.949088	1.063118	0.016403
C96	C	1.199088	1.313118	0.266403
C97	C	0.412696	0.795414	-0.444490
C98	C	0.662696	1.045414	-0.194490
C99	C	0.912696	1.295414	0.055510
C100	C	1.162696	1.545414	0.305510
C101	C	-0.143696	1.178328	-0.464555
C102	C	0.106304	1.428328	-0.214555
C103	C	0.356304	1.678328	0.035445
C104	C	0.606304	1.928328	0.285445
C105	C	-0.106584	1.239324	-0.532103
C106	C	0.143416	1.489324	-0.282103
C107	C	0.393416	1.739324	-0.032103
C108	C	0.643416	1.989324	0.217897
C109	C	-0.020970	1.240244	-0.531334
C110	C	0.229030	1.490244	-0.281334
C111	C	0.479030	1.740244	-0.031334
C112	C	0.729030	1.990244	0.218666
C113	C	0.004680	1.179468	-0.463527
C114	C	0.254680	1.429468	-0.213527
C115	C	0.504680	1.679468	0.036473
C116	C	0.754680	1.929468	0.286473
C117	C	-0.030169	1.207463	-0.377315
C118	C	0.219831	1.457463	-0.127315
C119	C	0.469831	1.707463	0.122685
C120	C	0.719831	1.957463	0.372685
C121	C	-0.115773	1.207251	-0.378305
C122	C	0.134227	1.457251	-0.128305
C123	C	0.384227	1.707251	0.121695
C124	C	0.634227	1.957251	0.371695
C125	C	-0.114187	1.089461	-0.482223
C126	C	0.135813	1.339461	-0.232223
C127	C	0.385813	1.589461	0.017777
C128	C	0.635813	1.839461	0.267777
C129	C	-0.028421	1.090485	-0.483589
C130	C	0.221579	1.340485	-0.233589
C131	C	0.471579	1.590485	0.016411
C132	C	0.721579	1.840485	0.266411
C133	C	0.088536	1.180112	-0.462941
C134	C	0.338536	1.430112	-0.212941
C135	C	0.588536	1.680112	0.037059
C136	C	0.838536	1.930112	0.287059
C137	C	-0.227552	1.177687	-0.465135
C138	C	0.022448	1.427687	-0.215135
C139	C	0.272448	1.677687	0.034865
C140	C	0.522448	1.927687	0.284865
C141	C	0.623280	1.177619	-0.465102
C142	C	0.873280	1.427619	-0.215102
C143	C	1.123280	1.677619	0.034898
C144	C	1.373280	1.927619	0.284898
C145	C	0.705601	1.177170	-0.465599
C146	C	0.955601	1.427170	-0.215599
C147	C	1.205601	1.677170	0.034401
C148	C	1.455601	1.927170	0.284401
C149	C	0.440094	1.167841	-0.680961
C150	C	0.690094	1.417841	-0.430961
C151	C	0.940094	1.667841	-0.180961
C152	C	1.190094	1.917841	0.069039
C153	C	0.444028	1.163153	-0.773412
C154	C	0.694028	1.413153	-0.523412
C155	C	0.944028	1.663153	-0.273412
C156	C	1.194028	1.913153	-0.023412
C157	C	0.441158	1.395678	-0.475082
C158	C	0.691158	1.645678	-0.225082
C159	C	0.941158	1.895678	0.024918
C160	C	1.191158	2.145678	0.274918
C161	C	0.445545	1.488080	-0.479799
C162	C	0.695545	1.738080	-0.229799
C163	C	0.945545	1.988080	0.020201
C164	C	1.195545	2.238080	0.270201
C165	C	0.451191	1.154562	-0.942678
C166	C	0.701191	1.404562	-0.692678
C167	C	0.951191	1.654562	-0.442678
C168	C	1.201191	1.904562	-0.192678
C169	C	0.410323	1.203289	-0.986208
C170	C	0.660323	1.453289	-0.736208
C171	C	0.910323	1.703289	-0.486208
C172	C	1.160323	1.953289	-0.236208
C173	C	0.414308	1.198509	-1.080393
C174	C	0.664308	1.448509	-0.830393
C175	C	0.914308	1.698509	-0.580393
C176	C	1.164308	1.948509	-0.330393
C177	C	0.447206	1.159341	-0.848484
C178	C	0.697206	1.409341	-0.598484
C179	C	0.947206	1.659341	-0.348484
C180	C	1.197206	1.909341	-0.098484
C181	C	0.421618	1.189850	-0.247912
C182	C	0.671618	1.439850	0.002088
C183	C	0.921618	1.689850	0.252088
C184	C	1.171618	1.939850	0.502088
C185	C	0.417484	1.194701	-0.155469
C186	C	0.667484	1.444701	0.094531
C187	C	0.917484	1.694701	0.344531
C188	C	1.167484	1.944701	0.594531
H189	H	0.495642	0.690279	-0.533587
H190	H	0.745642	0.940279	-0.283587
H191	H	0.995642	1.190279	-0.033587
H192	H	1.245642	1.440279	0.216413
H193	H	0.489171	1.109261	-0.976144
H194	H	0.739171	1.359261	-0.726144
H195	H	0.989171	1.609261	-0.476144
H196	H	1.239171	1.859261	-0.226144
H197	H	-0.005349	1.069431	-0.547030
H198	H	0.244651	1.319431	-0.297030
H199	H	0.494651	1.569431	-0.047030
H200	H	0.744651	1.819431	0.202970
H201	H	-0.134383	1.272368	-0.362760
H202	H	0.115617	1.522368	-0.112760
H203	H	0.365617	1.772368	0.137240
H204	H	0.615617	2.022368	0.387240
H205	H	0.366146	0.668247	-0.394505
H206	H	0.616146	0.918247	-0.144505
H207	H	0.866146	1.168247	0.105495
H208	H	1.116146	1.418247	0.355495
F209	F	0.360690	1.262521	-0.942466
F210	F	0.610690	1.512521	-0.692466
F211	F	0.860690	1.762521	-0.442466
F212	F	1.110690	2.012521	-0.192466
F213	F	0.010286	1.216732	-0.615108
F214	F	0.260286	1.466732	-0.365108
F215	F	0.510286	1.716732	-0.115108
F216	F	0.760286	1.966732	0.134892
H217	H	-0.124264	1.221139	-0.596687
H218	H	0.125736	1.471139	-0.346687
H219	H	0.375736	1.721139	-0.096687
H220	H	0.625736	1.971139	0.153313
H221	H	-0.126490	1.304712	-0.520929
H222	H	0.123510	1.554712	-0.270929
H223	H	0.373510	1.804712	-0.020929
H224	H	0.623510	2.054712	0.229071
H225	H	0.001135	1.306334	-0.519707
H226	H	0.251135	1.556334	-0.269707
H227	H	0.501135	1.806334	-0.019707
H228	H	0.751135	2.056334	0.230293
F229	F	-0.148460	1.152046	-0.310559
F230	F	0.101540	1.402046	-0.060559
F231	F	0.351540	1.652046	0.189441
F232	F	0.601540	1.902046	0.439441
H233	H	-0.133261	1.064459	-0.544074
H234	H	0.116739	1.314459	-0.294074
H235	H	0.366739	1.564459	-0.044074
H236	H	0.616739	1.814459	0.205926
H237	H	-0.007399	1.272211	-0.361114
H238	H	0.242601	1.522211	-0.111114
H239	H	0.492601	1.772211	0.138886
H240	H	0.742601	2.022211	0.388886
F241	F	-0.009160	1.151873	-0.309602
F242	F	0.240840	1.401873	-0.059602
F243	F	0.490840	1.651873	0.190398
F244	F	0.740840	1.901873	0.440398
H245	H	-0.011189	1.042599	-0.437324
H246	H	0.238811	1.292599	-0.187324
H247	H	0.488811	1.542599	0.062676
H248	H	0.738811	1.792599	0.312676
H249	H	-0.138702	1.043983	-0.432953
H250	H	0.111298	1.293983	-0.182953
H251	H	0.361298	1.543983	0.067047
H252	H	0.611298	1.793983	0.317047
