data_functionalizedCrystal
_audit_creation_method	'MofGen! by Chris Wilmer'
_symmetry_space_group_name_H-M	'P1'
_symmetry_Int_Tables_number	1
_symmetry_cell_setting	triclinic
loop_
_symmetry_equiv_pos_as_xyz
  x,y,z
_cell_length_a	19.188930
_cell_length_b	11.792254
_cell_length_c	10.268362
_cell_angle_alpha	89.994545
_cell_angle_beta	89.981535
_cell_angle_gamma	83.671689
loop_
_atom_site_label
_atom_site_type_symbol
_atom_site_fract_x
_atom_site_fract_y
_atom_site_fract_z
O1	O	0.926951	0.141694	-0.108720
O2	O	1.426951	0.641694	0.391280
O3	O	0.723749	0.160768	-0.108631
O4	O	1.223749	0.660768	0.391369
O5	O	0.830277	-0.014013	-0.108668
O6	O	1.330277	0.485987	0.391332
O7	O	0.820423	0.316474	-0.108682
O8	O	1.320423	0.816474	0.391318
O9	O	0.830267	-0.014020	0.107932
O10	O	1.330267	0.485980	0.607932
O11	O	0.723739	0.160761	0.107970
O12	O	1.223739	0.660761	0.607970
O13	O	0.926942	0.141687	0.107881
O14	O	1.426942	0.641687	0.607881
Cu15	Cu	0.825340	0.151223	0.127703
Cu16	Cu	1.325340	0.651223	0.627703
Cu17	Cu	0.825351	0.151231	-0.128453
Cu18	Cu	1.325351	0.651231	0.371547
O19	O	0.820414	0.316467	0.107918
O20	O	1.320414	0.816467	0.607918
C21	C	0.697729	0.160147	-0.000319
C22	C	1.197729	0.660147	0.499681
C23	C	0.620214	0.158292	-0.000285
C24	C	1.120214	0.658292	0.499715
C25	C	0.829651	-0.056298	-0.000368
C26	C	1.329651	0.443702	0.499632
C27	C	0.827793	-0.182283	-0.000368
C28	C	1.327793	0.317717	0.499632
C29	C	0.826284	-0.284597	-0.000372
C30	C	1.326284	0.215403	0.499628
C31	C	0.824396	-0.412955	-0.000384
C32	C	1.324396	0.087045	0.499616
C33	C	0.575874	0.260848	-0.000309
C34	C	1.075874	0.760848	0.499691
C35	C	0.503040	0.259106	-0.000324
C36	C	1.003040	0.759106	0.499676
C37	C	0.474550	0.154803	-0.000339
C38	C	0.974550	0.654803	0.499661
C39	C	0.518900	0.052234	-0.000307
C40	C	1.018900	0.552234	0.499693
C41	C	0.591732	0.053979	-0.000280
C42	C	1.091732	0.553979	0.499720
N43	N	0.366119	0.075078	-0.074107
N44	N	0.866119	0.575078	0.425893
N45	N	0.296931	0.073428	-0.074136
N46	N	0.796931	0.573428	0.425864
C47	C	0.255112	0.149539	-0.000419
C48	C	0.755112	0.649539	0.499581
N49	N	0.285092	0.227381	0.073312
N50	N	0.785092	0.727381	0.573312
N51	N	0.354286	0.229035	0.073335
N52	N	0.854286	0.729035	0.573335
C53	C	0.395577	0.152899	-0.000368
C54	C	0.895577	0.652899	0.499632
C55	C	0.131796	0.250213	-0.000457
C56	C	0.631796	0.750213	0.499543
C57	C	0.058962	0.248466	-0.000463
C58	C	0.558962	0.748466	0.499537
C59	C	0.074823	0.041591	-0.000460
C60	C	0.574823	0.541591	0.499540
C61	C	0.147656	0.043340	-0.000440
C62	C	0.647656	0.543340	0.499560
C63	C	0.176138	0.147654	-0.000445
C64	C	0.676138	0.647654	0.499555
C65	C	0.952961	0.142308	-0.000434
C66	C	1.452961	0.642308	0.499566
C67	C	1.030476	0.144162	-0.000477
C68	C	1.530476	0.644162	0.499523
C69	C	0.821039	0.358752	-0.000385
C70	C	1.321039	0.858752	0.499615
C71	C	0.822897	0.484737	-0.000393
C72	C	1.322897	0.984737	0.499607
N73	N	0.825337	0.151216	0.307869
N74	N	1.325337	0.651216	0.807869
N75	N	0.825359	0.151229	-0.308618
N76	N	1.325359	0.651229	0.191382
C77	C	0.825347	0.151229	0.573539
C78	C	1.325347	0.651229	1.073539
C79	C	0.825339	0.151225	0.425701
C80	C	1.325339	0.651225	0.925701
H81	H	0.466932	0.342621	-0.000340
H82	H	0.966932	0.842621	0.499660
C83	C	0.163136	0.364950	-0.000456
C84	C	0.663136	0.864950	0.499544
C85	C	0.211004	0.394592	0.112024
C86	C	0.711004	0.894592	0.612024
C87	C	0.242343	0.509327	0.112021
C88	C	0.742343	1.009327	0.612021
C89	C	0.225815	0.594421	-0.000460
C90	C	0.725815	1.094421	0.499540
C91	C	0.177945	0.564781	-0.112948
C92	C	0.677945	1.064781	0.387052
C93	C	0.146606	0.450045	-0.112946
C94	C	0.646606	0.950045	0.387054
H95	H	0.223241	0.331598	0.195297
H96	H	0.723241	0.831598	0.695297
H97	H	0.277779	0.531268	0.195293
H98	H	0.777779	1.031268	0.695293
H99	H	0.249014	0.679355	-0.000462
H100	H	0.749014	1.179355	0.499538
H101	H	0.165708	0.627775	-0.196222
H102	H	0.665708	1.127775	0.303778
H103	H	0.111169	0.428105	-0.196217
H104	H	0.611169	0.928105	0.303783
C105	C	0.487565	-0.062502	-0.000328
C106	C	0.987565	0.437498	0.499672
C107	C	0.407453	-0.064427	-0.000367
C108	C	0.907453	0.435573	0.499633
C109	C	0.376118	-0.179167	-0.000381
C110	C	0.876118	0.320833	0.499619
C111	C	0.424896	-0.291982	-0.000355
C112	C	0.924896	0.208018	0.499645
C113	C	0.505013	-0.290061	-0.000316
C114	C	1.005013	0.209939	0.499684
C115	C	0.536347	-0.175321	-0.000302
C116	C	1.036347	0.324679	0.499698
H117	H	0.371340	0.019089	-0.000386
H118	H	0.871340	0.519089	0.499614
H119	H	0.316810	-0.180588	-0.000410
H120	H	0.816810	0.319412	0.499590
H121	H	0.401700	-0.376919	-0.000365
H122	H	0.901700	0.123081	0.499635
H123	H	0.541125	-0.373577	-0.000297
H124	H	1.041125	0.126423	0.499703
H125	H	0.595655	-0.173900	-0.000273
H126	H	1.095655	0.326100	0.499727
H127	H	0.627835	-0.029537	-0.000260
H128	H	1.127835	0.470463	0.499740
C129	C	0.010182	0.361284	-0.000490
C130	C	0.510182	0.861284	0.499510
C131	C	-0.042097	0.388537	0.111969
C132	C	0.457903	0.888537	0.611969
C133	C	-0.090879	0.501355	0.111942
C134	C	0.409121	1.001355	0.611942
C135	C	-0.087381	0.586921	-0.000544
C136	C	0.412619	1.086921	0.499456
C137	C	-0.035100	0.559670	-0.113011
C138	C	0.464900	1.059670	0.386989
C139	C	0.013682	0.446851	-0.112984
C140	C	0.513682	0.946851	0.387016
H141	H	-0.044688	0.325194	0.195246
H142	H	0.455312	0.825194	0.695246
H143	H	-0.129580	0.521528	0.195198
H144	H	0.370420	1.021528	0.695198
H145	H	-0.123492	0.670435	-0.000564
H146	H	0.376508	1.170435	0.499436
H147	H	-0.032509	0.623012	-0.196287
H148	H	0.467491	1.123012	0.303713
H149	H	0.052384	0.426679	-0.196240
H150	H	0.552384	0.926679	0.303760
H151	H	0.051627	-0.043335	-0.000553
H152	H	0.551627	0.456665	0.499447
H153	H	0.599059	0.345788	-0.000316
H154	H	1.099059	0.845788	0.499684
H155	H	0.183759	-0.040172	-0.000427
H156	H	0.683759	0.459828	0.499573
