data_functionalizedCrystal
_audit_creation_method	'MofGen! by Chris Wilmer'
_symmetry_space_group_name_H-M	'P1'
_symmetry_Int_Tables_number	1
_symmetry_cell_setting	triclinic
loop_
_symmetry_equiv_pos_as_xyz
  x,y,z
_cell_length_a	13.897448
_cell_length_b	13.897449
_cell_length_c	10.685986
_cell_angle_alpha	94.349164
_cell_angle_beta	85.588833
_cell_angle_gamma	90.018972
loop_
_atom_site_label
_atom_site_type_symbol
_atom_site_fract_x
_atom_site_fract_y
_atom_site_fract_z
Zn1	Zn	-0.342062	1.432917	-0.713457
Zn2	Zn	-0.515773	1.445169	-0.502449
Zn3	Zn	-0.354496	1.283963	-0.502471
Zn4	Zn	-0.503324	1.271592	-0.713397
O5	O	-0.428914	1.358410	-0.607944
O6	O	-0.365112	1.569523	-0.685482
O7	O	-0.504792	1.434090	-0.325872
O8	O	-0.217863	1.303772	-0.530494
O9	O	-0.492736	1.578525	-0.530456
O10	O	-0.208728	1.413208	-0.685504
O11	O	-0.386303	1.315653	-0.325888
O12	O	-0.374232	1.147341	-0.530435
O13	O	-0.471519	1.282687	-0.889985
O14	O	-0.483576	1.138252	-0.685401
O15	O	-0.353041	1.401212	-0.890029
O16	O	-0.649105	1.422094	-0.530397
O17	O	-0.639959	1.294567	-0.685380
C18	C	-0.428903	1.107798	-0.607915
C19	C	-0.428919	1.000583	-0.607932
C20	C	-0.679530	1.358342	-0.607907
C21	C	-0.786743	1.358399	-0.607934
C22	C	-0.428921	0.804286	-0.607965
C23	C	-0.428917	0.913519	-0.607944
C24	C	-0.983033	1.358495	-0.608013
C25	C	-0.873803	1.358439	-0.607973
C26	C	-0.177317	1.358504	-0.608008
C27	C	-0.070102	1.358543	-0.608035
C28	C	-0.409505	1.339203	-0.937073
C29	C	-0.401234	1.331017	-1.077328
C30	C	-0.428926	1.610002	-0.607973
C31	C	-0.428931	1.717215	-0.607986
C32	C	-0.448178	1.377599	-0.280095
C33	C	-0.456177	1.385971	-0.139840
H34	H	-0.347867	1.277712	-1.131108
H35	H	-0.509539	1.439288	-1.086054
