data_functionalizedCrystal
_audit_creation_method	'MofGen! by Chris Wilmer'
_symmetry_space_group_name_H-M	'P1'
_symmetry_Int_Tables_number	1
_symmetry_cell_setting	triclinic
loop_
_symmetry_equiv_pos_as_xyz
  x,y,z
_cell_length_a	18.215407
_cell_length_b	17.637651
_cell_length_c	18.215399
_cell_angle_alpha	101.243683
_cell_angle_beta	90.016899
_cell_angle_gamma	101.216814
loop_
_atom_site_label
_atom_site_type_symbol
_atom_site_fract_x
_atom_site_fract_y
_atom_site_fract_z
Zn1	Zn	1.065871	-0.314821	0.356746
Zn2	Zn	1.399205	0.018513	0.690080
Zn3	Zn	1.732538	0.351846	1.023413
Zn4	Zn	1.040917	-0.447038	0.208770
Zn5	Zn	1.374250	-0.113705	0.542104
Zn6	Zn	1.707584	0.219628	0.875437
Zn7	Zn	0.942800	-0.314840	0.233696
Zn8	Zn	1.276134	0.018494	0.567030
Zn9	Zn	1.609467	0.351827	0.900363
Zn10	Zn	0.917917	-0.446988	0.331811
Zn11	Zn	1.251250	-0.113654	0.665144
Zn12	Zn	1.584583	0.219679	0.998478
O13	O	0.991876	-0.380922	0.282756
O14	O	1.325210	-0.047588	0.616089
O15	O	1.658543	0.285745	0.949423
O16	O	1.165543	-0.332373	0.337121
O17	O	1.498876	0.000960	0.670454
O18	O	1.832210	0.334294	1.003787
O19	O	1.027872	-0.429531	0.109087
O20	O	1.361205	-0.096198	0.442420
O21	O	1.694539	0.237135	0.775754
O22	O	0.979984	-0.204199	0.270886
O23	O	1.313317	0.129134	0.604220
O24	O	1.646650	0.462468	0.937553
O25	O	1.147209	-0.429513	0.228403
O26	O	1.480542	-0.096180	0.561737
O27	O	1.813876	0.237154	0.895070
O28	O	1.070403	-0.204185	0.361291
O29	O	1.403737	0.129148	0.694624
O30	O	1.737070	0.462482	1.027957
O31	O	0.955786	-0.332405	0.127400
O32	O	1.289120	0.000928	0.460733
O33	O	1.622453	0.334261	0.794067
O34	O	0.836518	-0.332356	0.246708
O35	O	1.169851	0.000977	0.580041
O36	O	1.503185	0.334311	0.913374
O37	O	0.937573	-0.429426	0.438109
O38	O	1.270906	-0.096093	0.771442
O39	O	1.604239	0.237241	1.104775
O40	O	0.818236	-0.429445	0.318792
O41	O	1.151569	-0.096111	0.652125
O42	O	1.484902	0.237222	0.985459
O43	O	1.046275	-0.332324	0.456428
O44	O	1.379608	0.001010	0.789762
O45	O	1.712941	0.334343	1.123095
O46	O	1.003743	-0.557670	0.204225
O47	O	1.337077	-0.224336	0.537558
O48	O	1.670410	0.108997	0.870891
O49	O	0.913375	-0.557632	0.294622
O50	O	1.246709	-0.224299	0.627956
O51	O	1.580042	0.109034	0.961289
C52	C	0.800675	-0.380897	0.282749
C53	C	1.134008	-0.047564	0.616083
C54	C	1.467341	0.285769	0.949416
C55	C	0.718874	-0.380906	0.282760
C56	C	1.052208	-0.047573	0.616094
C57	C	1.385541	0.285761	0.949427
C58	C	0.444298	-0.431559	0.320210
C59	C	0.777631	-0.098225	0.653543
C60	C	1.110964	0.235108	0.986877
C61	C	0.521158	-0.431552	0.320208
C62	C	0.854491	-0.098219	0.653541
C63	C	1.187825	0.235115	0.986874
C64	C	0.540193	-0.330302	0.245311
C65	C	0.873526	0.003031	0.578645
C66	C	1.206860	0.336364	0.911978
C67	C	0.463333	-0.330314	0.245310
C68	C	0.796667	0.003020	0.578643
C69	C	1.130000	0.336353	0.911976
C70	C	0.415388	-0.380941	0.282763
C71	C	0.748721	-0.047607	0.616097
C72	C	1.082055	0.285726	0.949430
C73	C	0.569108	-0.380923	0.282763
C74	C	0.902441	-0.047589	0.616096
C75	C	1.235774	0.285744	0.949430
C76	C	0.652443	-0.380915	0.282760
C77	C	0.985776	-0.047581	0.616093
C78	C	1.319109	0.285752	0.949427
C79	C	0.332047	-0.380950	0.282765
C80	C	0.665381	-0.047616	0.616099
C81	C	0.998714	0.285717	0.949432
C82	C	0.953171	-0.586338	0.244029
C83	C	1.286504	-0.253005	0.577362
C84	C	1.619838	0.080328	0.910696
C85	C	0.936680	-0.674216	0.227486
C86	C	1.270013	-0.340883	0.560819
C87	C	1.603347	-0.007550	0.894153
C88	C	1.117635	-0.962906	0.408663
C89	C	1.450968	-0.629573	0.741996
C90	C	1.784301	-0.296239	1.075330
C91	C	1.102115	-1.045481	0.393106
C92	C	1.435449	-0.712148	0.726439
C93	C	1.768782	-0.378814	1.059772
C94	C	1.008024	-1.045603	0.298877
C95	C	1.341357	-0.712269	0.632210
C96	C	1.674691	-0.378936	0.965543
C97	C	1.023538	-0.963026	0.314424
C98	C	1.356871	-0.629693	0.647757
C99	C	1.690205	-0.296359	0.981090
C100	C	1.078343	-0.921684	0.369318
C101	C	1.411677	-0.588351	0.702652
C102	C	1.745010	-0.255018	1.035985
C103	C	0.984247	-0.921804	0.275079
C104	C	1.317580	-0.588471	0.608412
C105	C	1.650913	-0.255138	0.941746
C106	C	0.999757	-0.839235	0.290628
C107	C	1.333090	-0.505902	0.623961
C108	C	1.666423	-0.172568	0.957294
C109	C	1.054558	-0.797887	0.345521
C110	C	1.387891	-0.464554	0.678855
C111	C	1.721225	-0.131221	1.012188
C112	C	1.093853	-0.839115	0.384867
C113	C	1.427187	-0.505782	0.718200
C114	C	1.760520	-0.172448	1.051534
C115	C	0.929438	-0.963148	0.220188
C116	C	1.262771	-0.629814	0.553522
C117	C	1.596104	-0.296481	0.886855
C118	C	0.890146	-0.921926	0.180844
C119	C	1.223480	-0.588593	0.514177
C120	C	1.556813	-0.255259	0.847510
C121	C	0.905660	-0.839355	0.196388
C122	C	1.238993	-0.506022	0.529722
C123	C	1.572327	-0.172689	0.863055
C124	C	0.960461	-0.798008	0.251282
C125	C	1.293795	-0.464674	0.584615
C126	C	1.627128	-0.131341	0.917949
C127	C	0.866365	-0.798128	0.157043
C128	C	1.199698	-0.464794	0.490376
C129	C	1.533031	-0.131461	0.823709
C130	C	0.881875	-0.715558	0.172591
C131	C	1.215208	-0.382225	0.505925
C132	C	1.548541	-0.048892	0.839258
C133	C	0.975971	-0.715438	0.266831
C134	C	1.309305	-0.382105	0.600164
C135	C	1.642638	-0.048772	0.933497
C136	C	1.183825	-0.380946	0.282763
C137	C	1.517158	-0.047613	0.616096
C138	C	1.850491	0.285720	0.949430
C139	C	1.265621	-0.380957	0.282766
C140	C	1.598955	-0.047624	0.616099
C141	C	1.932288	0.285710	0.949433
C142	C	0.991931	-0.380867	0.474719
C143	C	1.325265	-0.047534	0.808053
C144	C	1.658598	0.285800	1.141386
C145	C	0.991955	-0.380844	0.556523
C146	C	1.325288	-0.047510	0.889856
C147	C	1.658622	0.285823	1.223189
C148	C	1.030753	-0.174703	0.321650
C149	C	1.364086	0.158631	0.654984
C150	C	1.697420	0.491964	0.988317
C151	C	1.047320	-0.086824	0.338225
C152	C	1.380653	0.246509	0.671558
C153	C	1.713986	0.579842	1.004892
C154	C	0.991875	-0.380919	0.091550
C155	C	1.325208	-0.047585	0.424884
C156	C	1.658541	0.285748	0.758217
C157	C	0.992036	-0.380719	0.009789
C158	C	1.325369	-0.047386	0.343123
C159	C	1.658702	0.285947	0.676456
C160	C	1.048582	-0.330235	0.754266
C161	C	1.381915	0.003098	1.087599
C162	C	1.715248	0.336431	1.420932
C163	C	1.048595	-0.330212	0.831129
C164	C	1.381928	0.003121	1.164462
C165	C	1.715262	0.336454	1.497796
C166	C	0.935403	-0.431330	0.812040
C167	C	1.268736	-0.097997	1.145374
C168	C	1.602070	0.235337	1.478707
C169	C	0.935388	-0.431349	0.735179
C170	C	1.268721	-0.098015	1.068513
C171	C	1.602054	0.235318	1.401846
C172	C	0.991981	-0.380802	0.706294
C173	C	1.325314	-0.047469	1.039627
C174	C	1.658648	0.285864	1.372961
C175	C	0.992010	-0.380761	0.860018
C176	C	1.325343	-0.047427	1.193351
C177	C	1.658676	0.285906	1.526685
C178	C	0.992023	-0.380736	0.943356
C179	C	1.325357	-0.047403	1.276690
C180	C	1.658690	0.285930	1.610023
C181	C	0.991967	-0.380826	0.622951
C182	C	1.325300	-0.047492	0.956284
C183	C	1.658633	0.285841	1.289617
H184	H	1.020605	-0.681776	0.311526
H185	H	1.353938	-0.348443	0.644859
H186	H	1.687272	-0.015109	0.978193
Cl187	Cl	0.384026	-0.495207	0.367291
Cl188	Cl	0.717359	-0.161873	0.700624
Cl189	Cl	1.050692	0.171460	1.033958
Cl190	Cl	1.151522	-1.097300	0.442570
Cl191	Cl	1.484855	-0.763967	0.775903
Cl192	Cl	1.818188	-0.430634	1.109236
H193	H	0.544692	-0.472771	0.350700
H194	H	0.878025	-0.139438	0.684033
H195	H	1.211358	0.193896	1.017366
H196	H	0.963400	-1.079275	0.254183
H197	H	1.296733	-0.745941	0.587517
H198	H	1.630066	-0.412608	0.920850
H199	H	0.579239	-0.289082	0.214819
H200	H	0.912572	0.044251	0.548153
H201	H	1.245906	0.377584	0.881486
Cl202	Cl	1.162762	-0.787136	0.453870
Cl203	Cl	1.496095	-0.453803	0.787203
Cl204	Cl	1.829429	-0.120469	1.120536
H205	H	0.889328	-0.472485	0.835568
H206	H	1.222662	-0.139151	1.168902
H207	H	1.555995	0.194182	1.502235
Cl208	Cl	0.426986	-0.266677	0.198227
Cl209	Cl	0.760320	0.066656	0.531560
Cl210	Cl	1.093653	0.399990	0.864893
H211	H	1.067186	-0.730654	0.358180
H212	H	1.400519	-0.397321	0.691513
H213	H	1.733852	-0.063987	1.024846
H214	H	0.889291	-0.472526	0.696119
H215	H	1.222625	-0.139192	1.029452
H216	H	1.555958	0.194141	1.362786
H217	H	0.916804	-1.030381	0.207538
H218	H	1.250138	-0.697048	0.540871
H219	H	1.583471	-0.363714	0.874204
Cl220	Cl	1.186543	-0.910927	0.477666
Cl221	Cl	1.519877	-0.577594	0.810999
Cl222	Cl	1.853210	-0.244260	1.144332
H223	H	0.845522	-0.955598	0.136150
H224	H	1.178855	-0.622265	0.469484
H225	H	1.512189	-0.288931	0.802817
H226	H	0.821737	-0.831801	0.112353
H227	H	1.155070	-0.498467	0.445686
H228	H	1.488404	-0.165134	0.779019
H229	H	0.849879	-0.681995	0.140553
H230	H	1.183212	-0.348662	0.473887
H231	H	1.516545	-0.015329	0.807220
H232	H	1.094684	-0.289034	0.870185
H233	H	1.428017	0.044299	1.203519
H234	H	1.761351	0.377633	1.536852
Cl235	Cl	1.119725	-0.266688	0.717956
Cl236	Cl	1.453058	0.066645	1.051289
Cl237	Cl	1.786392	0.399978	1.384622
