data_functionalizedCrystal
_audit_creation_method	'MofGen! by Chris Wilmer'
_symmetry_space_group_name_H-M	'P1'
_symmetry_Int_Tables_number	1
_symmetry_cell_setting	triclinic
loop_
_symmetry_equiv_pos_as_xyz
  x,y,z
_cell_length_a	14.853558
_cell_length_b	14.853576
_cell_length_c	13.930277
_cell_angle_alpha	89.996507
_cell_angle_beta	89.993309
_cell_angle_gamma	83.634809
loop_
_atom_site_label
_atom_site_type_symbol
_atom_site_fract_x
_atom_site_fract_y
_atom_site_fract_z
O1	O	1.196377	0.117663	-0.079817
O2	O	1.696377	0.617663	0.420183
O3	O	0.933917	0.131693	-0.079821
O4	O	1.433917	0.631693	0.420179
O5	O	1.072154	-0.006551	-0.079815
O6	O	1.572154	0.493449	0.420185
O7	O	1.058140	0.255908	-0.079823
O8	O	1.558140	0.755908	0.420177
O9	O	1.072135	-0.006554	0.079847
O10	O	1.572135	0.493446	0.579847
O11	O	0.933898	0.131690	0.079841
O12	O	1.433898	0.631690	0.579841
O13	O	1.196358	0.117660	0.079845
O14	O	1.696358	0.617660	0.579845
Zn15	Zn	1.065125	0.124675	0.105193
Zn16	Zn	1.565125	0.624675	0.605193
Zn17	Zn	1.065150	0.124679	-0.105169
Zn18	Zn	1.565150	0.624679	0.394831
O19	O	1.058121	0.255905	0.079839
O20	O	1.558121	0.755905	0.579839
C21	C	0.900319	0.131058	0.000009
C22	C	1.400319	0.631058	0.500009
C23	C	0.800234	0.129157	0.000008
C24	C	1.300234	0.629157	0.500008
C25	C	1.071508	-0.040141	0.000015
C26	C	1.571508	0.459859	0.500015
C27	C	1.069601	-0.140225	0.000012
C28	C	1.569601	0.359775	0.500012
C29	C	0.753225	0.128267	-0.087028
C30	C	1.253225	0.628267	0.412972
C31	C	0.753202	0.128253	0.087042
C32	C	1.253202	0.628253	0.587042
C33	C	0.659168	0.126463	0.087044
C34	C	1.159168	0.626463	0.587044
C35	C	0.612159	0.125573	0.000008
C36	C	1.112159	0.625573	0.500008
C37	C	0.659183	0.126474	-0.087029
C38	C	1.159183	0.626474	0.412971
C39	C	0.612139	0.125553	0.174079
C40	C	1.112139	0.625553	0.674079
C41	C	0.518099	0.123761	0.174084
C42	C	1.018099	0.623761	0.674084
C43	C	0.471087	0.122878	0.087048
C44	C	0.971087	0.622878	0.587048
C45	C	0.518116	0.123780	0.000007
C46	C	1.018116	0.623780	0.500007
C47	C	0.471107	0.122890	-0.087028
C48	C	0.971107	0.622890	0.412972
C49	C	0.518134	0.123799	-0.174070
C50	C	1.018134	0.623799	0.325930
C51	C	0.612170	0.125591	-0.174065
C52	C	1.112170	0.625591	0.325935
C53	C	0.377050	0.121086	0.087043
C54	C	0.877050	0.621086	0.587043
C55	C	0.377065	0.121097	-0.087029
C56	C	0.877065	0.621097	0.412971
C57	C	1.229956	0.118296	0.000013
C58	C	1.729956	0.618296	0.500013
C59	C	1.330041	0.120196	0.000008
C60	C	1.830041	0.620196	0.500008
C61	C	1.068714	-0.187238	-0.087025
C62	C	1.568714	0.312762	0.412975
C63	C	1.068703	-0.187254	0.087045
C64	C	1.568703	0.312746	0.587045
C65	C	1.066917	-0.281288	0.087045
C66	C	1.566917	0.218712	0.587045
C67	C	1.066030	-0.328302	0.000009
C68	C	1.566030	0.171698	0.500009
C69	C	1.066930	-0.281281	-0.087027
C70	C	1.566930	0.218719	0.412973
C71	C	1.066026	-0.328317	0.174080
C72	C	1.566026	0.171683	0.674080
C73	C	1.064240	-0.422357	0.174083
C74	C	1.564240	0.077643	0.674083
C75	C	1.063346	-0.469372	0.087046
C76	C	1.563346	0.030628	0.587046
C77	C	1.064245	-0.422345	0.000006
C78	C	1.564245	0.077655	0.500006
C79	C	1.063358	-0.469358	-0.087030
C80	C	1.563358	0.030642	0.412970
C81	C	1.064251	-0.422332	-0.174070
C82	C	1.564251	0.077668	0.325930
C83	C	1.066036	-0.328295	-0.174064
C84	C	1.566036	0.171705	0.325936
C85	C	1.061561	-0.563409	0.087040
C86	C	1.561561	-0.063409	0.587040
C87	C	1.061574	-0.563401	-0.087032
C88	C	1.561574	-0.063401	0.412968
C89	C	1.058767	0.289495	0.000007
C90	C	1.558767	0.789495	0.500007
C91	C	1.060674	0.389578	0.000004
C92	C	1.560674	0.889578	0.500004
N93	N	1.065114	0.124672	0.248759
N94	N	1.565114	0.624672	0.748759
N95	N	1.065168	0.124675	-0.248735
N96	N	1.565168	0.624675	0.251265
C97	C	1.003937	0.185869	0.701025
C98	C	1.503937	0.685869	1.201025
C99	C	1.126389	0.063481	0.701000
C100	C	1.626389	0.563481	1.201000
C101	C	1.126378	0.063478	0.600504
C102	C	1.626378	0.563478	1.100504
C103	C	1.065146	0.124673	0.550265
C104	C	1.565146	0.624673	1.050265
C105	C	1.003926	0.185870	0.600520
C106	C	1.503926	0.685870	1.100520
C107	C	1.187604	0.002288	0.550241
C108	C	1.687604	0.502288	1.050241
C109	C	1.187596	0.002283	0.449739
C110	C	1.687596	0.502283	0.949739
C111	C	1.126360	0.063474	0.399497
C112	C	1.626360	0.563474	0.899497
C113	C	1.065136	0.124674	0.449759
C114	C	1.565136	0.624674	0.949759
C115	C	1.003904	0.185868	0.399520
C116	C	1.503904	0.685868	0.899520
C117	C	0.942675	0.247064	0.449780
C118	C	1.442675	0.747064	0.949780
C119	C	0.942689	0.247061	0.550279
C120	C	1.442689	0.747061	1.050279
C121	C	1.126346	0.063477	0.298999
C122	C	1.626346	0.563477	0.798999
C123	C	1.003893	0.185869	0.299015
C124	C	1.503893	0.685869	0.799015
H125	H	0.338795	0.120378	-0.157905
H126	H	0.838795	0.620378	0.342095
F127	F	0.803236	0.129198	0.179665
F128	F	1.303236	0.629198	0.679665
H129	H	0.650422	0.126269	0.244938
H130	H	1.150422	0.626269	0.744938
H131	H	1.066766	-0.289999	-0.244928
H132	H	1.566766	0.210001	0.255072
F133	F	1.063286	-0.472397	0.266718
F134	F	1.563286	0.027603	0.766718
H135	H	1.060837	-0.601693	0.157907
H136	H	1.560837	-0.101693	0.657907
H137	H	1.060845	-0.601672	-0.157908
H138	H	1.560845	-0.101672	0.342092
F139	F	0.938717	0.250998	0.245553
F140	F	1.438717	0.750998	0.745553
H141	H	1.237451	-0.047546	0.408823
H142	H	1.737451	0.452454	0.908823
H143	H	0.338764	0.120355	0.157911
H144	H	0.838764	0.620355	0.657911
H145	H	0.650468	0.126329	-0.244929
H146	H	1.150468	0.626329	0.255071
H147	H	1.237461	-0.047530	0.591149
H148	H	1.737461	0.452470	1.091149
H149	H	1.176201	0.013657	0.258081
H150	H	1.676201	0.513657	0.758081
H151	H	0.954082	0.235692	0.741950
H152	H	1.454082	0.735692	1.241950
F153	F	0.468057	0.122804	0.266720
F154	F	0.968057	0.622804	0.766720
F155	F	1.063317	-0.472379	-0.266697
F156	F	1.563317	0.027621	0.233303
H157	H	1.069437	-0.148945	-0.157891
H158	H	1.569437	0.351055	0.342109
F159	F	1.069654	-0.137218	0.179669
F160	F	1.569654	0.362782	0.679669
H161	H	0.892824	0.296893	0.408863
H162	H	1.392824	0.796893	0.908863
F163	F	1.066976	-0.278279	0.266703
F164	F	1.566976	0.221721	0.766703
H165	H	0.892840	0.296885	0.591207
H166	H	1.392840	0.796885	1.091207
F167	F	1.191558	-0.001638	0.754468
F168	F	1.691558	0.498362	1.254468
H169	H	0.479847	0.123069	-0.244934
H170	H	0.979847	0.623069	0.255066
H171	H	0.791518	0.129011	-0.157895
H172	H	1.291518	0.629011	0.342105
