data_functionalizedCrystal
_audit_creation_method	'MofGen! by Chris Wilmer'
_symmetry_space_group_name_H-M	'P1'
_symmetry_Int_Tables_number	1
_symmetry_cell_setting	triclinic
loop_
_symmetry_equiv_pos_as_xyz
  x,y,z
_cell_length_a	19.077105
_cell_length_b	12.759400
_cell_length_c	12.759393
_cell_angle_alpha	89.969229
_cell_angle_beta	87.680744
_cell_angle_gamma	87.711168
loop_
_atom_site_label
_atom_site_type_symbol
_atom_site_fract_x
_atom_site_fract_y
_atom_site_fract_z
Zn1	Zn	1.076058	-0.482843	-0.658529
Zn2	Zn	1.075987	-0.658555	-0.482845
Zn3	Zn	0.958355	-0.475825	-0.475808
Zn4	Zn	0.958347	-0.651410	-0.651430
O5	O	1.017187	-0.567158	-0.567153
O6	O	1.174540	-0.512078	-0.641140
O7	O	1.060356	-0.634369	-0.334889
O8	O	0.974001	-0.329737	-0.500072
O9	O	1.174488	-0.641173	-0.512066
O10	O	1.060477	-0.334893	-0.634317
O11	O	0.973932	-0.500118	-0.329719
O12	O	0.859862	-0.493190	-0.493188
O13	O	0.973989	-0.628996	-0.799394
O14	O	0.859857	-0.622192	-0.622217
O15	O	1.060470	-0.505150	-0.804610
O16	O	1.060349	-0.804626	-0.505182
O17	O	0.973920	-0.799377	-0.629040
C18	C	0.834321	-0.556155	-0.556169
C19	C	0.756091	-0.551473	-0.551495
C20	C	0.719354	-0.616539	-0.616372
C21	C	0.645848	-0.612126	-0.611986
C22	C	0.609080	-0.542651	-0.542716
C23	C	0.645823	-0.477578	-0.477837
C24	C	0.719327	-0.481987	-0.482229
C25	C	0.389244	-0.522248	-0.522392
C26	C	0.315734	-0.517847	-0.518002
C27	C	0.315764	-0.652394	-0.652153
C28	C	0.389270	-0.656800	-0.656535
C29	C	0.426006	-0.591724	-0.591659
N30	N	0.533946	-0.538141	-0.538229
N31	N	0.501139	-0.596229	-0.596153
C32	C	1.017145	-0.840123	-0.567128
C33	C	1.017192	-0.956902	-0.567157
C34	C	1.062245	-1.014466	-0.502741
C35	C	1.062288	-1.124192	-0.502776
C36	C	0.972218	-1.118782	-0.631645
C37	C	0.972179	-1.009058	-0.631615
C38	C	1.107257	-0.962310	-0.438283
C39	C	1.152314	-1.019874	-0.373861
C40	C	1.152357	-1.129601	-0.373896
C41	C	1.107344	-1.181764	-0.438353
C42	C	1.200766	-0.578205	-0.578180
C43	C	1.278997	-0.582913	-0.582879
C44	C	1.017237	-0.567059	-0.841189
C45	C	1.017258	-0.567017	-0.957967
C46	C	1.017248	-0.293129	-0.567201
C47	C	1.017274	-0.176353	-0.567222
C48	C	0.972287	-0.497064	-1.119863
C49	C	0.972271	-0.497100	-1.010138
C50	C	1.062269	-0.636894	-1.015527
C51	C	1.062288	-0.636852	-1.125251
C52	C	0.927292	-0.427150	-1.172028
C53	C	0.882281	-0.357270	-1.114476
C54	C	0.882266	-0.357306	-1.004751
C55	C	0.927260	-0.427222	-0.952578
C56	C	1.017177	-0.567184	-0.294185
C57	C	1.017293	-0.566938	-0.177416
H58	H	0.285846	-0.705374	-0.704972
Br59	Br	0.911132	-1.189575	-0.719115
Br60	Br	0.595993	-0.700431	-0.700040
Br61	Br	0.265835	-0.423565	-0.423976
Br62	Br	1.123328	-0.731774	-0.944722
Br63	Br	0.927245	-0.427259	-0.803664
Br64	Br	0.439090	-0.433923	-0.434352
Br65	Br	0.911038	-0.930929	-0.719043
Br66	Br	0.439164	-0.751096	-0.750541
H67	H	0.927298	-0.427113	-1.261372
Br68	Br	0.821230	-0.262377	-1.185278
H69	H	0.749284	-0.673116	-0.672776
Br70	Br	0.595925	-0.383280	-0.383837
Br71	Br	0.769186	-0.393674	-0.394185
H72	H	1.107225	-0.872966	-0.438244
H73	H	1.188967	-0.977397	-0.321388
Br74	Br	1.213512	-1.207721	-0.286481
H75	H	1.107388	-1.271111	-0.438385
H76	H	0.845621	-0.300400	-0.957895
Br77	Br	1.123376	-0.731673	-1.203365
