data_functionalizedCrystal
_audit_creation_method	'MofGen! by Chris Wilmer'
_symmetry_space_group_name_H-M	'P1'
_symmetry_Int_Tables_number	1
_symmetry_cell_setting	triclinic
loop_
_symmetry_equiv_pos_as_xyz
  x,y,z
_cell_length_a	15.944551
_cell_length_b	15.944551
_cell_length_c	15.021413
_cell_angle_alpha	90.009487
_cell_angle_beta	89.990850
_cell_angle_gamma	96.501262
loop_
_atom_site_label
_atom_site_type_symbol
_atom_site_fract_x
_atom_site_fract_y
_atom_site_fract_z
O1	O	1.114524	-0.108337	-0.074120
O2	O	1.447858	0.224997	0.259213
O3	O	1.781191	0.558330	0.592546
O4	O	0.869975	-0.121693	-0.074103
O5	O	1.203308	0.211640	0.259230
O6	O	1.536641	0.544974	0.592563
O7	O	0.998927	0.007260	-0.074104
O8	O	1.332261	0.340593	0.259229
O9	O	1.665594	0.673927	0.592562
O10	O	0.985571	-0.237290	-0.074119
O11	O	1.318905	0.096044	0.259214
O12	O	1.652238	0.429377	0.592547
O13	O	0.998916	0.007273	0.073960
O14	O	1.332250	0.340607	0.407293
O15	O	1.665583	0.673940	0.740626
O16	O	0.869963	-0.121680	0.073961
O17	O	1.203297	0.211654	0.407294
O18	O	1.536630	0.544987	0.740627
O19	O	1.114513	-0.108323	0.073944
O20	O	1.447846	0.225010	0.407277
O21	O	1.781180	0.558343	0.740610
Zn22	Zn	0.992236	-0.114999	0.097461
Zn23	Zn	1.325570	0.218334	0.430794
Zn24	Zn	1.658903	0.551667	0.764127
Zn25	Zn	0.992251	-0.115017	-0.097620
Zn26	Zn	1.325584	0.218316	0.235713
Zn27	Zn	1.658918	0.551650	0.569046
O28	O	0.985560	-0.237276	0.073945
O29	O	1.318893	0.096057	0.407278
O30	O	1.652227	0.429390	0.740611
C31	C	0.838675	-0.121132	-0.000069
C32	C	1.172008	0.212202	0.333264
C33	C	1.505342	0.545535	0.666598
C34	C	0.745429	-0.119470	-0.000062
C35	C	1.078762	0.213864	0.333271
C36	C	1.412096	0.547197	0.666604
C37	C	1.145813	-0.108885	-0.000093
C38	C	1.479146	0.224449	0.333241
C39	C	1.812479	0.557782	0.666574
C40	C	1.239059	-0.110547	-0.000105
C41	C	1.572392	0.222787	0.333228
C42	C	1.905725	0.556120	0.666562
C43	C	0.998367	0.038561	-0.000072
C44	C	1.331701	0.371894	0.333261
C45	C	1.665034	0.705227	0.666595
C46	C	0.996705	0.131807	-0.000071
C47	C	1.330038	0.465140	0.333262
C48	C	1.663372	0.798473	0.666595
C49	C	1.453915	-0.194451	-0.000090
C50	C	1.787249	0.138882	0.333243
C51	C	2.120582	0.472215	0.666577
C52	C	1.514941	-0.155495	-0.073090
C53	C	1.848274	0.177838	0.260243
C54	C	2.181608	0.511171	0.593577
C55	C	1.409784	-0.113554	-0.000092
C56	C	1.743118	0.219779	0.333241
C57	C	2.076451	0.553113	0.666574
C58	C	1.514908	-0.155463	0.072890
C59	C	1.848241	0.177870	0.406223
C60	C	2.181574	0.511203	0.739556
C61	C	1.574697	-0.116465	-0.000076
C62	C	1.908031	0.216868	0.333257
C63	C	2.241364	0.550202	0.666591
C64	C	1.469582	-0.074576	-0.073153
C65	C	1.802915	0.258757	0.260180
C66	C	2.136249	0.592091	0.593514
C67	C	1.469542	-0.074555	0.072892
C68	C	1.802876	0.258778	0.406226
C69	C	2.136209	0.592111	0.739559
C70	C	1.530550	-0.035541	-0.000126
C71	C	1.863884	0.297793	0.333208
C72	C	2.197217	0.631126	0.666541
C73	C	1.314782	-0.111880	-0.000102
C74	C	1.648116	0.221454	0.333231
C75	C	1.981449	0.554787	0.666564
C76	C	1.669698	-0.118133	-0.000072
C77	C	2.003032	0.215200	0.333261
C78	C	2.336365	0.548534	0.666594
C79	C	0.986120	-0.268577	-0.000090
C80	C	1.319453	0.064756	0.333244
C81	C	1.652787	0.398090	0.666577
C82	C	0.987782	-0.361823	-0.000096
C83	C	1.321116	-0.028490	0.333237
C84	C	1.654449	0.304844	0.666571
N85	N	0.992232	-0.114987	0.230598
N86	N	1.325566	0.218346	0.563932
N87	N	1.658899	0.551680	0.897265
C88	C	0.912801	0.346663	-0.000078
C89	C	1.246134	0.679997	0.333255
C90	C	1.579467	1.013330	0.666589
C91	C	0.951758	0.407687	0.072924
C92	C	1.285091	0.741020	0.406257
C93	C	1.618424	1.074354	0.739591
C94	C	0.993698	0.302533	-0.000078
C95	C	1.327031	0.635866	0.333255
C96	C	1.660365	0.969199	0.666589
C97	C	0.951788	0.407658	-0.073056
C98	C	1.285121	0.740991	0.260278
C99	C	1.618454	1.074324	0.593611
C100	C	0.990787	0.467445	-0.000088
C101	C	1.324120	0.800779	0.333245
C102	C	1.657454	1.134112	0.666578
C103	C	1.032677	0.362328	0.072984
C104	C	1.366010	0.695661	0.406317
C105	C	1.699344	1.028995	0.739651
C106	C	1.032696	0.362292	-0.073061
C107	C	1.366029	0.695626	0.260272
C108	C	1.699362	1.028959	0.593605
C109	C	1.071711	0.423298	-0.000041
C110	C	1.405045	0.756632	0.333292
C111	C	1.738378	1.089965	0.666625
C112	C	0.995372	0.207530	-0.000071
C113	C	1.328706	0.540864	0.333262
C114	C	1.662039	0.874197	0.666595
C115	C	0.989119	0.562446	-0.000089
C116	C	1.322452	0.895780	0.333245
C117	C	1.655785	1.229113	0.666578
C118	C	1.051414	-0.054886	0.529589
C119	C	1.384747	0.278448	0.862922
C120	C	1.718081	0.611781	1.196256
C121	C	1.068401	-0.130556	0.470216
C122	C	1.401734	0.202777	0.803549
C123	C	1.735068	0.536111	1.136883
C124	C	0.992253	-0.115013	0.587635
C125	C	1.325586	0.218321	0.920968
C126	C	1.658919	0.551654	1.254302
C127	C	0.975295	-0.039332	0.470266
C128	C	1.308629	0.294002	0.803600
C129	C	1.641962	0.627335	1.136933
C130	C	0.992245	-0.114996	0.412211
C131	C	1.325578	0.218337	0.745544
C132	C	1.658912	0.551671	1.078878
C133	C	1.009278	-0.190721	0.529569
C134	C	1.342611	0.142612	0.862902
C135	C	1.675944	0.475946	1.196235
C136	C	0.916139	-0.099447	0.529624
C137	C	1.249472	0.233886	0.862957
C138	C	1.582805	0.567220	1.196291
C139	C	0.933094	-0.175172	0.470278
C140	C	1.266427	0.158161	0.803611
C141	C	1.599760	0.491494	1.136945
C142	C	0.992259	-0.115021	0.688692
C143	C	1.325593	0.218312	1.022026
C144	C	1.658926	0.551646	1.355359
C145	C	0.992238	-0.114996	0.311156
C146	C	1.325571	0.218337	0.644489
C147	C	1.658905	0.551670	0.977823
N148	N	0.992263	-0.115023	0.769242
N149	N	1.325596	0.218311	1.102575
N150	N	1.658929	0.551644	1.435909
H151	H	1.420609	-0.261600	-0.000167
H152	H	1.753943	0.071733	0.333167
H153	H	2.087276	0.405066	0.666500
H154	H	0.851794	-0.086258	0.555738
H155	H	1.185127	0.247075	0.889071
H156	H	1.518461	0.580408	1.222405
H157	H	1.138919	0.456457	-0.000005
H158	H	1.472252	0.789790	0.333328
H159	H	1.805585	1.123124	0.666662
H160	H	1.534988	-0.189688	0.134605
H161	H	1.868321	0.143645	0.467939
H162	H	2.201655	0.476978	0.801272
N163	N	1.572167	0.048762	-0.000171
N164	N	1.905500	0.382095	0.333162
N165	N	2.238833	0.715428	0.666496
N166	N	1.650989	0.061173	0.000418
N167	N	1.984322	0.394506	0.333752
N168	N	2.317656	0.727840	0.667085
H169	H	1.680383	0.120711	0.000384
H170	H	2.013716	0.454044	0.333717
H171	H	2.347049	0.787377	0.667051
N172	N	1.114208	0.008820	0.562287
N173	N	1.447542	0.342153	0.895620
N174	N	1.780875	0.675486	1.228953
N175	N	1.093137	0.067226	0.609911
N176	N	1.426470	0.400559	0.943244
N177	N	1.759804	0.733892	1.276578
H178	H	1.137486	0.112214	0.633008
H179	H	1.470819	0.445548	0.966341
H180	H	1.804152	0.778881	1.299674
H181	H	1.066887	0.342156	-0.134786
H182	H	1.400221	0.675490	0.198547
H183	H	1.733554	1.008823	0.531880
H184	H	0.960956	0.024664	0.444216
H185	H	1.294289	0.357997	0.777549
H186	H	1.627622	0.691330	1.110882
H187	H	1.535060	-0.189719	-0.134808
H188	H	1.868393	0.143615	0.198525
H189	H	2.201726	0.476948	0.531858
N190	N	0.828562	0.304886	0.000021
N191	N	1.161896	0.638220	0.333355
N192	N	1.495229	0.971553	0.666688
N193	N	0.779598	0.316749	0.062613
N194	N	1.112932	0.650082	0.395947
N195	N	1.446265	0.983416	0.729280
H196	H	0.720106	0.287244	0.062687
H197	H	1.053439	0.620577	0.396021
H198	H	1.386772	0.953910	0.729354
H199	H	0.917537	0.427801	0.134646
H200	H	1.250870	0.761134	0.467979
H201	H	1.584203	1.094468	0.801313
H202	H	1.132766	-0.143721	0.444122
H203	H	1.466099	0.189613	0.777455
H204	H	1.799432	0.522946	1.110788
H205	H	0.917566	0.427729	-0.134777
H206	H	1.250899	0.761062	0.198556
H207	H	1.584232	1.094396	0.531889
H208	H	1.449598	-0.040396	-0.134940
H209	H	1.782931	0.292937	0.198393
H210	H	2.116265	0.626271	0.531726
N211	N	1.027349	-0.271020	0.562117
N212	N	1.360683	0.062313	0.895450
N213	N	1.694016	0.395647	1.228784
N214	N	1.030293	-0.283978	0.644064
N215	N	1.363627	0.049355	0.977397
N216	N	1.696960	0.382688	1.310730
H217	H	1.043055	-0.340688	0.667054
H218	H	1.376389	-0.007355	1.000387
H219	H	1.709722	0.325978	1.333721
N220	N	1.444285	-0.031665	0.150330
N221	N	1.777619	0.301668	0.483663
N222	N	2.110952	0.635002	0.816997
N223	N	1.458553	-0.059231	0.226076
N224	N	1.791886	0.274103	0.559410
N225	N	2.125219	0.607436	0.892743
H226	H	1.440714	-0.028945	0.280774
H227	H	1.774047	0.304388	0.614108
H228	H	2.107381	0.637722	0.947441
H229	H	0.883057	-0.226068	0.444400
H230	H	1.216390	0.107266	0.777733
H231	H	1.549724	0.440599	1.111067
H232	H	1.066860	0.342343	0.134769
H233	H	1.400193	0.675676	0.468102
H234	H	1.733526	1.009010	0.801436
