data_functionalizedCrystal
_audit_creation_method	'MofGen! by Chris Wilmer'
_symmetry_space_group_name_H-M	'P1'
_symmetry_Int_Tables_number	1
_symmetry_cell_setting	triclinic
loop_
_symmetry_equiv_pos_as_xyz
  x,y,z
_cell_length_a	14.519709
_cell_length_b	11.792241
_cell_length_c	10.868271
_cell_angle_alpha	89.999850
_cell_angle_beta	89.998701
_cell_angle_gamma	96.063220
loop_
_atom_site_label
_atom_site_type_symbol
_atom_site_fract_x
_atom_site_fract_y
_atom_site_fract_z
O1	O	-1.224412	0.148781	-0.102148
O2	O	-0.974412	0.398781	0.147852
O3	O	-0.724412	0.648781	0.397852
O4	O	-0.474412	0.898781	0.647852
O5	O	-0.955999	0.166302	-0.102184
O6	O	-0.705999	0.416302	0.147816
O7	O	-0.455999	0.666302	0.397816
O8	O	-0.205999	0.916302	0.647816
O9	O	-1.096719	-0.007665	-0.102172
O10	O	-0.846719	0.242335	0.147828
O11	O	-0.596719	0.492335	0.397828
O12	O	-0.346719	0.742335	0.647828
O13	O	-1.083692	0.322748	-0.102159
O14	O	-0.833692	0.572748	0.147841
O15	O	-0.583692	0.822748	0.397841
O16	O	-0.333692	1.072748	0.647841
O17	O	-1.096707	-0.007672	0.102472
O18	O	-0.846707	0.242328	0.352472
O19	O	-0.596707	0.492328	0.602472
O20	O	-0.346707	0.742328	0.852472
O21	O	-0.955987	0.166295	0.102461
O22	O	-0.705987	0.416295	0.352461
O23	O	-0.455987	0.666295	0.602461
O24	O	-0.205987	0.916295	0.852461
O25	O	-1.224400	0.148774	0.102497
O26	O	-0.974400	0.398774	0.352497
O27	O	-0.724400	0.648774	0.602497
O28	O	-0.474400	0.898774	0.852497
Zn29	Zn	-1.090192	0.157533	0.134970
Zn30	Zn	-0.840192	0.407533	0.384970
Zn31	Zn	-0.590192	0.657533	0.634970
Zn32	Zn	-0.340192	0.907533	0.884970
Zn33	Zn	-1.090207	0.157542	-0.134658
Zn34	Zn	-0.840207	0.407542	0.115342
Zn35	Zn	-0.590207	0.657542	0.365342
Zn36	Zn	-0.340207	0.907542	0.615342
O37	O	-1.083680	0.322741	0.102485
O38	O	-0.833680	0.572741	0.352485
O39	O	-0.583680	0.822741	0.602485
O40	O	-0.333680	1.072741	0.852485
C41	C	-0.921630	0.165482	0.000134
C42	C	-0.671630	0.415482	0.250134
C43	C	-0.421630	0.665482	0.500134
C44	C	-0.171630	0.915482	0.750134
C45	C	-0.819240	0.163035	0.000119
C46	C	-0.569240	0.413035	0.250119
C47	C	-0.319240	0.663035	0.500119
C48	C	-0.069240	0.913035	0.750119
N49	N	-1.090188	0.157527	0.318985
N50	N	-0.840188	0.407527	0.568985
N51	N	-0.590188	0.657527	0.818985
N52	N	-0.340188	0.907527	1.068985
C53	C	-1.258769	0.149594	0.000176
C54	C	-1.008769	0.399594	0.250176
C55	C	-0.758769	0.649594	0.500176
C56	C	-0.508769	0.899594	0.750176
C57	C	-1.361159	0.152041	0.000183
C58	C	-1.111159	0.402041	0.250183
C59	C	-0.861159	0.652041	0.500183
C60	C	-0.611159	0.902041	0.750183
C61	C	-0.444311	0.154027	0.000175
C62	C	-0.194311	0.404027	0.250175
C63	C	0.055689	0.654027	0.500175
C64	C	0.305689	0.904027	0.750175
C65	C	-0.548628	0.156528	0.000159
C66	C	-0.298628	0.406528	0.250159
C67	C	-0.048628	0.656528	0.500159
C68	C	0.201372	0.906528	0.750159
C69	C	-0.631772	0.158531	0.000146
C70	C	-0.381772	0.408531	0.250146
C71	C	-0.131772	0.658531	0.500146
C72	C	0.118228	0.908531	0.750146
C73	C	-0.736096	0.161033	0.000132
C74	C	-0.486096	0.411033	0.250132
C75	C	-0.236096	0.661033	0.500132
C76	C	0.013904	0.911033	0.750132
C77	C	-1.095895	-0.049955	0.000145
C78	C	-0.845895	0.200045	0.250145
C79	C	-0.595895	0.450045	0.500145
C80	C	-0.345895	0.700045	0.750145
C81	C	-1.093446	-0.175955	0.000131
C82	C	-0.843446	0.074045	0.250131
C83	C	-0.593446	0.324045	0.500131
C84	C	-0.343446	0.574045	0.750131
C85	C	-1.084504	0.365031	0.000165
C86	C	-0.834504	0.615031	0.250165
C87	C	-0.584504	0.865031	0.500165
C88	C	-0.334504	1.115031	0.750165
C89	C	-1.086953	0.491031	0.000170
C90	C	-0.836953	0.741031	0.250170
C91	C	-0.586953	0.991031	0.500170
C92	C	-0.336953	1.241031	0.750170
C93	C	-1.091457	0.721718	0.000140
C94	C	-0.841457	0.971718	0.250140
C95	C	-0.591457	1.221718	0.500140
C96	C	-0.341457	1.471718	0.750140
C97	C	-1.088955	0.593347	0.000157
C98	C	-0.838955	0.843347	0.250157
C99	C	-0.588955	1.093347	0.500157
C100	C	-0.338955	1.343347	0.750157
N101	N	-1.090218	0.157540	-0.318672
N102	N	-0.840218	0.407540	-0.068672
N103	N	-0.590218	0.657540	0.181328
N104	N	-0.340218	0.907540	0.431328
C105	C	-1.090202	0.157540	0.569991
C106	C	-0.840202	0.407540	0.819991
C107	C	-0.590202	0.657540	1.069991
C108	C	-0.340202	0.907540	1.319991
C109	C	-1.090191	0.157536	0.430313
C110	C	-0.840191	0.407536	0.680313
C111	C	-0.590191	0.657536	0.930313
C112	C	-0.340191	0.907536	1.180313
