data_functionalizedCrystal
_audit_creation_method	'MofGen! by Chris Wilmer'
_symmetry_space_group_name_H-M	'P1'
_symmetry_Int_Tables_number	1
_symmetry_cell_setting	triclinic
loop_
_symmetry_equiv_pos_as_xyz
  x,y,z
_cell_length_a	17.699083
_cell_length_b	26.210047
_cell_length_c	17.699083
_cell_angle_alpha	89.996398
_cell_angle_beta	83.283015
_cell_angle_gamma	90.002990
loop_
_atom_site_label
_atom_site_type_symbol
_atom_site_fract_x
_atom_site_fract_y
_atom_site_fract_z
O1	O	1.004082	0.042358	0.095700
O2	O	1.504082	0.542358	0.595700
O3	O	0.783704	0.042375	0.108153
O4	O	1.283704	0.542375	0.608153
O5	O	0.900119	0.042362	-0.008263
O6	O	1.400119	0.542362	0.491737
O7	O	0.887667	0.042372	0.212116
O8	O	1.387667	0.542372	0.712116
O9	O	0.900097	-0.042496	-0.008244
O10	O	1.400097	0.457504	0.491756
O11	O	0.783681	-0.042483	0.108171
O12	O	1.283681	0.457517	0.608171
O13	O	1.004060	-0.042500	0.095719
O14	O	1.504060	0.457500	0.595719
Cu15	Cu	0.893868	-0.050239	0.101946
Cu16	Cu	1.393868	0.449761	0.601946
Cu17	Cu	0.893895	0.050115	0.101925
Cu18	Cu	1.393895	0.550115	0.601925
O19	O	0.887644	-0.042486	0.212134
O20	O	1.387644	0.457514	0.712134
C21	C	0.755495	-0.000052	0.107716
C22	C	1.255495	0.499948	0.607716
C23	C	0.671477	-0.000045	0.106377
C24	C	1.171477	0.499955	0.606377
N25	N	0.893855	-0.120823	0.101961
N26	N	1.393855	0.379177	0.601961
C27	C	0.622856	-0.000042	0.174711
C28	C	1.122856	0.499958	0.674711
C29	C	0.543913	-0.000049	0.173448
C30	C	1.043913	0.499951	0.673448
C31	C	0.513592	-0.000055	0.103852
C32	C	1.013592	0.499945	0.603852
C33	C	0.562219	-0.000059	0.035513
C34	C	1.062219	0.499941	0.535513
C35	C	0.641161	-0.000056	0.036776
C36	C	1.141161	0.499944	0.536776
C37	C	0.243856	-0.000072	0.030418
C38	C	0.743856	0.499928	0.530418
C39	C	0.164908	-0.000074	0.029160
C40	C	0.664908	0.499926	0.529160
C41	C	0.146608	-0.000065	0.167090
C42	C	0.646608	0.499935	0.667090
C43	C	0.225550	-0.000062	0.168353
C44	C	0.725550	0.499938	0.668353
C45	C	0.274170	-0.000069	0.100015
C46	C	0.774170	0.499931	0.600015
C47	C	0.359769	-0.000063	0.101384
C48	C	0.859769	0.499937	0.601384
C49	C	0.427995	-0.000058	0.102481
C50	C	0.927995	0.499942	0.602481
C51	C	0.945438	-0.473343	0.050388
C52	C	1.445438	0.026657	0.550388
C53	C	0.945455	-0.687002	0.050377
C54	C	1.445455	-0.187002	0.550377
O55	O	0.989284	-0.714629	0.006531
O56	O	1.489284	-0.214629	0.506531
N57	N	0.893899	-0.713717	0.101908
N58	N	1.393899	-0.213717	0.601908
C59	C	0.842332	-0.687015	0.153442
C60	C	1.342332	-0.187015	0.653442
O61	O	0.798475	-0.714640	0.197267
O62	O	1.298475	-0.214640	0.697267
C63	C	0.842312	-0.473357	0.153449
C64	C	1.342312	0.026643	0.653449
C65	C	0.893877	-0.446644	0.101919
C66	C	1.393877	0.053356	0.601919
C67	C	0.996998	-0.446631	-0.001138
C68	C	1.496998	0.053369	0.498862
C69	C	0.996996	-0.393219	-0.001132
C70	C	1.496996	0.106781	0.498868
C71	C	0.945434	-0.366520	0.050400
C72	C	1.445434	0.133480	0.550400
C73	C	0.893875	-0.393233	0.101925
C74	C	1.393875	0.106767	0.601925
C75	C	0.790742	-0.446655	0.204978
C76	C	1.290742	0.053345	0.704978
C77	C	0.790740	-0.393238	0.204974
C78	C	1.290740	0.106762	0.704974
C79	C	0.842305	-0.366525	0.153445
C80	C	1.342305	0.133475	0.653445
C81	C	0.842311	-0.313123	0.153463
C82	C	1.342311	0.186877	0.653463
N83	N	0.893867	-0.286407	0.101932
N84	N	1.393867	0.213593	0.601932
C85	C	0.945429	-0.313106	0.050400
C86	C	1.445429	0.186894	0.550400
C87	C	0.842347	-0.799188	0.153436
C88	C	1.342347	-0.299188	0.653436
C89	C	0.842352	-0.852602	0.153436
C90	C	1.342352	-0.352602	0.653436
C91	C	0.945475	-0.852586	0.050370
C92	C	1.445475	-0.352586	0.550370
C93	C	0.945472	-0.799171	0.050374
C94	C	1.445472	-0.299171	0.550374
C95	C	0.893903	-0.772473	0.101905
C96	C	1.393903	-0.272473	0.601905
C97	C	0.945421	-0.200938	0.050417
C98	C	1.445421	0.299062	0.550417
C99	C	0.945417	-0.147522	0.050429
C100	C	1.445417	0.352478	0.550429
C101	C	0.842292	-0.147543	0.153493
C102	C	1.342292	0.352457	0.653493
C103	C	0.842299	-0.200955	0.153483
C104	C	1.342299	0.299045	0.653483
C105	C	0.893866	-0.227651	0.101939
C106	C	1.393866	0.272349	0.601939
O107	O	0.798499	-0.285463	0.197280
O108	O	1.298499	0.214537	0.697280
O109	O	0.989268	-0.285471	0.006571
O110	O	1.489268	0.214529	0.506571
C111	C	0.945440	-0.526755	0.050382
C112	C	1.445440	-0.026755	0.550382
C113	C	0.893880	-0.553467	0.101908
C114	C	1.393880	-0.053467	0.601908
C115	C	0.842319	-0.526769	0.153439
C116	C	1.342319	-0.026769	0.653439
C117	C	0.893886	-0.606881	0.101907
C118	C	1.393886	-0.106881	0.601907
C119	C	0.945448	-0.633580	0.050375
C120	C	1.445448	-0.133580	0.550375
C121	C	0.997004	-0.606865	-0.001156
C122	C	1.497004	-0.106865	0.498844
C123	C	0.997002	-0.553454	-0.001150
C124	C	1.497002	-0.053454	0.498850
C125	C	0.790763	-0.553484	0.204970
C126	C	1.290763	-0.053484	0.704970
C127	C	0.790769	-0.606895	0.204961
C128	C	1.290769	-0.106895	0.704961
C129	C	0.842331	-0.633594	0.153429
C130	C	1.342331	-0.133594	0.653429
C131	C	1.032268	-0.000072	0.096156
C132	C	1.532268	0.499928	0.596156
C133	C	1.116286	-0.000074	0.097494
C134	C	1.616286	0.499926	0.597494
C135	C	0.899662	-0.000067	-0.036451
C136	C	1.399662	0.499933	0.463549
C137	C	0.898323	-0.000067	-0.120469
C138	C	1.398323	0.499933	0.379531
N139	N	0.893914	0.120699	0.101904
N140	N	1.393914	0.620699	0.601904
C141	C	0.966656	-0.000073	-0.169090
C142	C	1.466656	0.499927	0.330910
C143	C	0.965394	-0.000069	-0.248033
C144	C	1.465394	0.499931	0.251967
C145	C	0.895798	-0.000062	-0.278354
C146	C	1.395798	0.499938	0.221646
C147	C	0.827459	-0.000054	-0.229727
C148	C	1.327459	0.499946	0.270273
C149	C	0.828722	-0.000055	-0.150785
C150	C	1.328722	0.499945	0.349215
C151	C	0.822364	-0.000050	-0.548090
C152	C	1.322364	0.499950	-0.048090
C153	C	0.821106	-0.000050	-0.627038
C154	C	1.321106	0.499950	-0.127038
C155	C	0.959036	-0.000063	-0.645338
C156	C	1.459036	0.499937	-0.145338
C157	C	0.960299	-0.000064	-0.566396
C158	C	1.460299	0.499936	-0.066396
C159	C	0.891961	-0.000054	-0.517776
C160	C	1.391961	0.499946	-0.017776
C161	C	0.893330	-0.000058	-0.432177
C162	C	1.393330	0.499942	0.067823
C163	C	0.894427	-0.000061	-0.363951
C164	C	1.394427	0.499939	0.136049
C165	C	0.888102	-0.000056	0.240322
C166	C	1.388102	0.499944	0.740322
C167	C	0.889440	-0.000053	0.324340
C168	C	1.389440	0.499947	0.824340
H169	H	0.647537	-0.000037	0.231384
H170	H	1.147537	0.499963	0.731384
C171	C	0.753558	-0.000048	-0.097298
C172	C	1.253558	0.499952	0.402702
H173	H	0.764277	-0.000044	-0.045941
H174	H	1.264277	0.499956	0.454059
H175	H	0.725002	-0.029637	-0.106469
H176	H	1.225002	0.470363	0.393531
H177	H	0.725026	0.029551	-0.106481
H178	H	1.225026	0.529551	0.393519
H179	H	1.038986	-0.468364	-0.043104
H180	H	1.538986	0.031636	0.456896
H181	H	0.140225	-0.000079	-0.027517
H182	H	0.640225	0.499921	0.472483
H183	H	0.748753	-0.468397	0.246938
H184	H	1.248753	0.031603	0.746938
H185	H	0.764429	-0.000046	-0.651721
H186	H	1.264429	0.499954	-0.151721
C187	C	1.036854	-0.000069	-0.533047
C188	C	1.536854	0.499931	-0.033047
H189	H	1.077372	-0.000067	-0.573311
H190	H	1.577372	0.499933	-0.073311
H191	H	1.040209	-0.029661	-0.502627
H192	H	1.540209	0.470339	-0.002627
H193	H	1.040217	0.029527	-0.502638
H194	H	1.540217	0.529527	-0.002638
H195	H	0.504328	-0.000046	0.229092
H196	H	1.004328	0.499954	0.729092
C197	C	1.053709	-0.363842	-0.057823
C198	C	1.553709	0.136158	0.442177
H199	H	1.084408	-0.387399	-0.088516
H200	H	1.584408	0.112601	0.411484
H201	H	1.085167	-0.343002	-0.030646
H202	H	1.585167	0.156998	0.469354
H203	H	1.026536	-0.343009	-0.089300
H204	H	1.526536	0.156991	0.410700
H205	H	0.250232	-0.000055	0.225025
H206	H	0.750232	0.499945	0.725025
H207	H	0.987460	-0.777424	0.008415
H208	H	1.487460	-0.277424	0.508415
C209	C	0.734016	-0.363873	0.261663
C210	C	1.234016	0.136127	0.761663
H211	H	0.703315	-0.387435	0.292352
H212	H	1.203315	0.112565	0.792352
H213	H	0.702561	-0.343034	0.234481
H214	H	1.202561	0.156966	0.734481
H215	H	0.761183	-0.343039	0.293144
H216	H	1.261183	0.156961	0.793144
C217	C	0.785551	-0.230340	0.210135
C218	C	1.285551	0.269660	0.710135
H219	H	0.754831	-0.206787	0.240814
H220	H	1.254831	0.293213	0.740814
H221	H	0.812679	-0.251194	0.241618
H222	H	1.312679	0.248806	0.741618
H223	H	0.754108	-0.251159	0.182904
H224	H	1.254108	0.248841	0.682904
H225	H	1.014680	-0.000069	-0.684934
H226	H	1.514680	0.499931	-0.184934
H227	H	1.021038	-0.000075	-0.287617
H228	H	1.521038	0.499925	0.212383
H229	H	0.770792	-0.000045	-0.254420
H230	H	1.270792	0.499955	0.245580
C231	C	0.093124	-0.000064	0.242262
C232	C	0.593124	0.499936	0.742262
H233	H	0.041766	-0.000072	0.231546
H234	H	0.541766	0.499928	0.731546
H235	H	0.102301	0.029531	0.270798
H236	H	0.602301	0.529531	0.770798
H237	H	0.102304	-0.029657	0.270811
H238	H	0.602304	0.470343	0.770811
C239	C	0.297328	-0.000077	-0.044751
C240	C	0.797328	0.499923	0.455249
H241	H	0.267962	-0.000075	-0.086379
H242	H	0.767962	0.499925	0.413621
H243	H	0.328502	-0.029668	-0.047122
H244	H	0.828502	0.470332	0.452878
H245	H	0.328505	0.029519	-0.047134
H246	H	0.828505	0.529519	0.452866
H247	H	0.537526	-0.000072	-0.021154
H248	H	1.037526	0.499928	0.478846
C249	C	0.785573	-0.118168	0.210167
C250	C	1.285573	0.381832	0.710167
H251	H	0.792955	-0.082531	0.202779
H252	H	1.292955	0.417469	0.702779
H253	H	0.793685	-0.126920	0.260675
H254	H	1.293685	0.373080	0.760675
H255	H	0.735079	-0.126924	0.201997
H256	H	1.235079	0.373076	0.701997
C257	C	0.694644	-0.000055	-0.038390
C258	C	1.194644	0.499945	0.461610
H259	H	0.665282	-0.000053	-0.080021
H260	H	1.165282	0.499947	0.419979
H261	H	0.725821	-0.029644	-0.040761
H262	H	1.225821	0.470356	0.459239
H263	H	0.725818	0.029543	-0.040768
H264	H	1.225818	0.529543	0.459232
H265	H	0.766718	-0.000042	-0.508512
H266	H	1.266718	0.499958	-0.008512
H267	H	0.800351	-0.777454	0.195401
H268	H	1.300351	-0.277454	0.695401
H269	H	0.987411	-0.222668	0.008444
H270	H	1.487411	0.277332	0.508444
C271	C	1.002137	-0.118141	-0.006258
C272	C	1.502137	0.381859	0.493742
H273	H	1.032838	-0.141695	-0.036954
H274	H	1.532838	0.358305	0.463046
H275	H	1.033591	-0.097304	0.020927
H276	H	1.533591	0.402696	0.520927
H277	H	0.974966	-0.097304	-0.037732
H278	H	1.474966	0.402696	0.462268
H279	H	1.038991	-0.531708	-0.043110
H280	H	1.538991	-0.031708	0.456890
H281	H	0.800372	-0.874348	0.195404
H282	H	1.300372	-0.374348	0.695404
C283	C	1.002186	-0.881961	-0.006320
C284	C	1.502186	-0.381961	0.493680
H285	H	0.994794	-0.917597	0.001060
H286	H	1.494794	-0.417597	0.501060
H287	H	1.052684	-0.873208	0.001824
H288	H	1.552684	-0.373208	0.501824
H289	H	0.994047	-0.873206	-0.056824
H290	H	1.494047	-0.373206	0.443176
H291	H	1.038990	-0.628612	-0.043112
H292	H	1.538990	-0.128612	0.456888
H293	H	0.748774	-0.531750	0.246932
H294	H	1.248774	-0.031750	0.746932
C295	C	0.734041	-0.636273	0.261643
C296	C	1.234041	-0.136273	0.761643
H297	H	0.703329	-0.612718	0.292326
H298	H	1.203329	-0.112718	0.792326
H299	H	0.761194	-0.657115	0.293120
H300	H	1.261194	-0.157115	0.793120
H301	H	0.702586	-0.657105	0.234443
H302	H	1.202586	-0.157105	0.734443
H303	H	1.023330	-0.000082	-0.144409
H304	H	1.523330	0.499918	0.355591
