data_functionalizedCrystal
_audit_creation_method	'MofGen! by Chris Wilmer'
_symmetry_space_group_name_H-M	'P1'
_symmetry_Int_Tables_number	1
_symmetry_cell_setting	triclinic
loop_
_symmetry_equiv_pos_as_xyz
  x,y,z
_cell_length_a	8.497374
_cell_length_b	12.759399
_cell_length_c	12.759401
_cell_angle_alpha	89.984234
_cell_angle_beta	90.000368
_cell_angle_gamma	89.995106
loop_
_atom_site_label
_atom_site_type_symbol
_atom_site_fract_x
_atom_site_fract_y
_atom_site_fract_z
Zn1	Zn	0.891938	0.418444	1.606061
Zn2	Zn	0.628157	0.594091	1.606008
Zn3	Zn	0.628172	0.418427	1.430418
Zn4	Zn	0.891895	0.594082	1.430349
O5	O	0.760040	0.506261	1.518209
O6	O	0.856959	0.441755	1.753075
O7	O	0.407397	0.570785	1.582723
O8	O	0.663185	0.271408	1.453769
O9	O	0.663160	0.570802	1.753036
O10	O	0.856973	0.271421	1.582813
O11	O	0.407407	0.441725	1.453718
O12	O	0.663143	0.441717	1.283388
O13	O	1.112663	0.570787	1.453650
O14	O	0.856899	0.570770	1.283337
O15	O	1.112695	0.441746	1.582745
O16	O	0.663118	0.741110	1.582655
O17	O	0.856885	0.741104	1.453599
C18	C	0.760019	0.506241	1.245242
C19	C	0.760047	0.506258	1.128465
C20	C	0.860769	0.573564	1.073604
C21	C	0.860786	0.573577	0.963880
C22	C	0.659346	0.438977	0.963888
C23	C	0.659338	0.438959	1.073610
C24	C	0.977065	0.651278	1.073598
C25	C	0.977082	0.651291	0.963874
C26	C	0.760030	0.779228	1.518142
C27	C	0.760078	0.896005	1.518210
C28	C	1.171521	0.506262	1.518201
C29	C	1.350165	0.506274	1.518203
C30	C	0.760063	0.506281	1.792242
C31	C	0.760072	0.506290	1.909019
C32	C	0.659300	0.950835	1.585483
C33	C	0.659357	1.060559	1.585546
C34	C	0.860976	1.060613	1.451053
C35	C	0.860925	0.950891	1.450996
C36	C	0.542892	0.950805	1.663128
C37	C	0.542949	1.060529	1.663191
C38	C	0.760106	1.232228	1.518300
C39	C	0.760187	1.115451	1.518329
H40	H	0.577353	0.384183	0.919211
H41	H	1.093229	0.622279	0.929852
H42	H	0.933098	0.728518	1.107620
Cl43	Cl	0.926194	0.776860	0.917873
Cl44	Cl	0.987749	1.129619	1.366562
Cl45	Cl	0.593547	0.904712	1.788701
Cl46	Cl	0.363640	0.898336	1.618176
Cl47	Cl	0.610701	1.112965	1.782515
H48	H	0.577331	0.384145	1.118274
Cl49	Cl	1.165781	0.617829	1.119589
H50	H	0.420753	1.090358	1.641479
Cl51	Cl	0.987648	0.881964	1.366437
