data_functionalizedCrystal
_audit_creation_method	'MofGen! by Chris Wilmer'
_symmetry_space_group_name_H-M	'P1'
_symmetry_Int_Tables_number	1
_symmetry_cell_setting	triclinic
loop_
_symmetry_equiv_pos_as_xyz
  x,y,z
_cell_length_a	11.792241
_cell_length_b	10.868271
_cell_length_c	11.792241
_cell_angle_alpha	89.998441
_cell_angle_beta	84.193416
_cell_angle_gamma	90.000490
loop_
_atom_site_label
_atom_site_type_symbol
_atom_site_fract_x
_atom_site_fract_y
_atom_site_fract_z
O1	O	-1.506909	0.102185	-0.155562
O2	O	-1.256909	0.352185	0.094438
O3	O	-1.006909	0.602185	0.344438
O4	O	-0.756909	0.852185	0.594438
O5	O	-1.176568	0.102218	-0.171595
O6	O	-0.926568	0.352218	0.078405
O7	O	-0.676568	0.602218	0.328405
O8	O	-0.426568	0.852218	0.578405
O9	O	-1.349755	0.102192	0.001592
O10	O	-1.099755	0.352192	0.251592
O11	O	-0.849755	0.602192	0.501592
O12	O	-0.599755	0.852192	0.751592
O13	O	-1.333722	0.102211	-0.328749
O14	O	-1.083722	0.352211	-0.078749
O15	O	-0.833722	0.602211	0.171251
O16	O	-0.583722	0.852211	0.421251
O17	O	-1.349739	-0.102453	0.001586
O18	O	-1.099739	0.147547	0.251586
O19	O	-0.849739	0.397547	0.501586
O20	O	-0.599739	0.647547	0.751586
O21	O	-1.176552	-0.102427	-0.171601
O22	O	-0.926552	0.147573	0.078399
O23	O	-0.676552	0.397573	0.328399
O24	O	-0.426552	0.647573	0.578399
O25	O	-1.506893	-0.102460	-0.155568
O26	O	-1.256893	0.147540	0.094432
O27	O	-1.006893	0.397540	0.344432
O28	O	-0.756893	0.647540	0.594432
Zn29	Zn	-1.341720	-0.134935	-0.163585
Zn30	Zn	-1.091720	0.115065	0.086415
Zn31	Zn	-0.841720	0.365065	0.336415
Zn32	Zn	-0.591720	0.615065	0.586415
Zn33	Zn	-1.341741	0.134693	-0.163578
Zn34	Zn	-1.091741	0.384693	0.086422
Zn35	Zn	-0.841741	0.634693	0.336422
Zn36	Zn	-0.591741	0.884693	0.586422
O37	O	-1.333706	-0.102434	-0.328755
O38	O	-1.083706	0.147566	-0.078755
O39	O	-0.833706	0.397566	0.171245
O40	O	-0.583706	0.647566	0.421245
C41	C	-1.134269	-0.000101	-0.170591
C42	C	-0.884269	0.249899	0.079409
C43	C	-0.634269	0.499899	0.329409
C44	C	-0.384269	0.749899	0.579409
C45	C	-1.008255	-0.000088	-0.167576
C46	C	-0.758255	0.249912	0.082424
C47	C	-0.508255	0.499912	0.332424
C48	C	-0.258255	0.749912	0.582424
N49	N	-1.341714	-0.318949	-0.163590
N50	N	-1.091714	-0.068949	0.086410
N51	N	-0.841714	0.181051	0.336410
N52	N	-0.591714	0.431051	0.586410
C53	C	-0.777543	-0.000121	-0.162034
C54	C	-0.527543	0.249879	0.087966
C55	C	-0.277543	0.499879	0.337966
C56	C	-0.027543	0.749879	0.587966
C57	C	-0.905928	-0.000103	-0.165113
C58	C	-0.655928	0.249897	0.084887
C59	C	-0.405928	0.499897	0.334887
C60	C	-0.155928	0.749897	0.584887
C61	C	-1.348740	-0.000130	0.043880
C62	C	-1.098740	0.249870	0.293880
C63	C	-0.848740	0.499870	0.543880
C64	C	-0.598740	0.749870	0.793880
C65	C	-1.345726	-0.000129	0.169894
C66	C	-1.095726	0.249871	0.419894
C67	C	-0.845726	0.499871	0.669894
C68	C	-0.595726	0.749871	0.919894
C69	C	-0.549192	-0.000136	-0.156572
C70	C	-0.299192	0.249864	0.093428
C71	C	-0.049192	0.499864	0.343428
C72	C	0.200808	0.749864	0.593428
C73	C	-0.675206	-0.000131	-0.159587
C74	C	-0.425206	0.249869	0.090413
C75	C	-0.175206	0.499869	0.340413
C76	C	0.074794	0.749869	0.590413
C77	C	-1.341723	-0.430287	-0.163590
C78	C	-1.091723	-0.180287	0.086410
C79	C	-0.841723	0.069713	0.336410
C80	C	-0.591723	0.319713	0.586410
C81	C	-1.341738	-0.569964	-0.163579
C82	C	-1.091738	-0.319964	0.086421
C83	C	-0.841738	-0.069964	0.336421
C84	C	-0.591738	0.180036	0.586421
N85	N	-1.341756	0.318707	-0.163565
N86	N	-1.091756	0.568707	0.086435
N87	N	-0.841756	0.818707	0.336435
N88	N	-0.591756	1.068707	0.586435
C89	C	-1.334721	-0.000109	-0.371043
C90	C	-1.084721	0.249891	-0.121043
C91	C	-0.834721	0.499891	0.128957
C92	C	-0.584721	0.749891	0.378957
C93	C	-1.337736	-0.000103	-0.497057
C94	C	-1.087736	0.249897	-0.247057
C95	C	-0.837736	0.499897	0.002943
C96	C	-0.587736	0.749897	0.252943
C97	C	-1.340183	-0.000107	0.400606
C98	C	-1.090183	0.249893	0.650606
C99	C	-0.840183	0.499893	0.900606
C100	C	-0.590183	0.749893	1.150606
C101	C	-1.343262	-0.000119	0.272221
C102	C	-1.093262	0.249881	0.522221
C103	C	-0.843262	0.499881	0.772221
C104	C	-0.593262	0.749881	1.022221
