data_functionalizedCrystal
_audit_creation_method	'MofGen! by Chris Wilmer'
_symmetry_space_group_name_H-M	'P1'
_symmetry_Int_Tables_number	1
_symmetry_cell_setting	triclinic
loop_
_symmetry_equiv_pos_as_xyz
  x,y,z
_cell_length_a	12.759401
_cell_length_b	14.909028
_cell_length_c	12.759393
_cell_angle_alpha	86.671287
_cell_angle_beta	89.981774
_cell_angle_gamma	86.718558
loop_
_atom_site_label
_atom_site_type_symbol
_atom_site_fract_x
_atom_site_fract_y
_atom_site_fract_z
Zn1	Zn	1.630353	-0.359120	-0.569890
Zn2	Zn	1.640383	-0.510006	-0.384074
Zn3	Zn	1.454662	-0.359165	-0.394223
Zn4	Zn	1.464770	-0.509933	-0.559717
O5	O	1.547542	-0.434556	-0.476976
O6	O	1.778705	-0.379147	-0.545251
O7	O	1.615714	-0.490046	-0.238396
O8	O	1.469541	-0.232916	-0.426030
O9	O	1.786074	-0.490003	-0.408733
O10	O	1.598620	-0.232883	-0.555092
O11	O	1.479266	-0.379224	-0.245852
O12	O	1.308981	-0.379153	-0.416165
O13	O	1.486767	-0.489878	-0.708091
O14	O	1.316407	-0.489922	-0.537753
O15	O	1.608420	-0.379076	-0.715565
O16	O	1.625515	-0.636240	-0.398868
O17	O	1.496493	-0.636186	-0.527912
C18	C	1.274573	-0.434535	-0.476957
C19	C	1.157797	-0.434548	-0.476973
C20	C	1.099033	-0.376795	-0.413791
C21	C	0.989310	-0.376816	-0.413803
C22	C	0.997127	-0.492347	-0.540188
C23	C	1.106847	-0.492329	-0.540169
C24	C	1.094519	-0.310092	-0.340827
C25	C	0.984796	-0.310113	-0.340839
C26	C	1.563217	-0.668947	-0.461208
C27	C	1.570019	-0.769220	-0.454498
C28	C	1.646825	-0.910548	-0.377916
C29	C	1.640439	-0.816332	-0.384217
C30	C	1.505979	-0.816329	-0.518480
C31	C	1.512364	-0.910545	-0.512179
C32	C	1.582791	-0.957651	-0.441896
C33	C	1.589181	-1.051868	-0.435601
C34	C	1.454716	-1.051863	-0.569858
C35	C	1.448330	-0.957648	-0.576159
C36	C	1.821577	-0.434578	-0.476995
C37	C	1.938354	-0.434587	-0.477003
C38	C	1.547602	-0.434464	-0.751015
C39	C	1.547628	-0.434425	-0.867795
C40	C	1.531834	-0.199251	-0.492828
C41	C	1.525140	-0.098978	-0.499583
C42	C	1.484346	-0.492072	-1.028495
C43	C	1.484307	-0.492098	-0.918769
C44	C	1.610983	-0.376714	-0.926553
C45	C	1.611016	-0.376684	-1.036277
C46	C	1.411213	-0.558691	-1.024000
C47	C	1.411175	-0.558717	-0.914274
C48	C	1.547538	-0.434583	-0.204007
C49	C	1.547699	-0.434368	-0.087245
H50	H	0.952402	-0.335064	-0.261819
Cl51	Cl	1.359802	-0.898420	-0.664512
Cl52	Cl	1.452008	-0.666603	-0.861011
H53	H	1.444802	-0.625053	-1.053556
Cl54	Cl	0.931594	-0.202284	-0.381955
H55	H	1.332194	-0.533699	-0.881931
H56	H	1.704178	-0.948902	-0.320698
Cl57	Cl	1.690679	-0.304153	-1.110131
H58	H	1.692580	-0.777984	-0.332117
Cl59	Cl	1.690570	-0.304195	-0.862472
H60	H	1.328602	-0.539966	-1.055038
H61	H	1.154690	-0.539366	-0.591607
Cl62	Cl	1.374217	-1.111084	-0.650300
Cl63	Cl	1.142366	-0.338844	-0.213203
Cl64	Cl	0.933068	-0.564985	-0.619626
Cl65	Cl	1.417453	-0.757095	-0.606831
Cl66	Cl	1.140223	-0.207664	-0.392911
Cl67	Cl	1.677718	-1.111086	-0.347249
