data_functionalizedCrystal
_audit_creation_method	'MofGen! by Chris Wilmer'
_symmetry_space_group_name_H-M	'P1'
_symmetry_Int_Tables_number	1
_symmetry_cell_setting	triclinic
loop_
_symmetry_equiv_pos_as_xyz
  x,y,z
_cell_length_a	12.759400
_cell_length_b	21.295420
_cell_length_c	12.759393
_cell_angle_alpha	89.977283
_cell_angle_beta	90.031564
_cell_angle_gamma	89.987900
loop_
_atom_site_label
_atom_site_type_symbol
_atom_site_fract_x
_atom_site_fract_y
_atom_site_fract_z
Zn1	Zn	-0.418277	-0.962407	0.594100
Zn2	Zn	-0.593996	-0.962344	0.418420
Zn3	Zn	-0.418323	-0.857135	0.418426
Zn4	Zn	-0.593906	-0.857129	0.594048
O5	O	-0.506125	-0.909754	0.506248
O6	O	-0.441604	-1.050488	0.570814
O7	O	-0.570749	-0.948364	0.271399
O8	O	-0.271296	-0.871129	0.441754
O9	O	-0.570704	-1.050441	0.441743
O10	O	-0.271262	-0.948472	0.570820
O11	O	-0.441684	-0.871068	0.271404
O12	O	-0.441597	-0.769045	0.441704
O13	O	-0.570552	-0.871118	0.741076
O14	O	-0.570597	-0.769040	0.570733
O15	O	-0.441518	-0.948465	0.741114
O16	O	-0.741005	-0.948357	0.441693
O17	O	-0.740939	-0.871056	0.570727
C18	C	-0.506093	-0.746202	0.506214
C19	C	-0.506105	-0.676234	0.506224
C20	C	-0.573402	-0.176790	0.573350
C21	C	-0.573404	-0.242532	0.573340
C22	C	-0.506134	-0.275394	0.506265
C23	C	-0.438876	-0.242509	0.439175
C24	C	-0.438884	-0.176767	0.439179
N25	N	-0.414148	-0.378620	0.498357
N26	N	-0.414144	-0.441072	0.498359
C27	C	-0.506109	-0.473469	0.506248
N28	N	-0.598081	-0.441056	0.514154
N29	N	-0.598084	-0.378599	0.514157
C30	C	-0.506119	-0.346680	0.506253
C31	C	-0.573370	-0.577633	0.573318
C32	C	-0.573374	-0.643376	0.573301
C33	C	-0.438837	-0.643351	0.439142
C34	C	-0.438842	-0.577609	0.439153
C35	C	-0.506108	-0.544753	0.506247
C36	C	-0.779093	-0.909716	0.506227
C37	C	-0.895869	-0.909758	0.506252
C38	C	-0.950731	-0.950053	0.439139
C39	C	-1.060455	-0.950092	0.439171
C40	C	-1.060447	-0.869534	0.573434
C41	C	-0.950725	-0.869499	0.573406
C42	C	-0.950736	-0.996560	0.361620
C43	C	-1.060460	-0.996599	0.361653
C44	C	-0.232092	-0.909808	0.506293
C45	C	-0.115316	-0.909832	0.506313
C46	C	-0.506019	-0.909798	0.780282
C47	C	-0.505974	-0.909816	0.897059
C48	C	-0.506153	-0.073944	0.506277
C49	C	-0.506149	-0.143912	0.506273
C50	C	-0.506155	-0.909746	0.233281
C51	C	-0.505904	-0.909849	0.116505
C52	C	-0.438780	-0.950097	0.951942
C53	C	-0.438742	-0.950112	1.061666
C54	C	-0.573102	-0.869564	1.061614
C55	C	-0.573134	-0.869547	0.951892
C56	C	-0.361211	-0.996602	0.951973
C57	C	-0.361173	-0.996617	1.061697
H58	H	-0.384068	-0.670107	0.384524
C59	C	-0.961742	-0.789877	0.706119
C60	C	-0.890420	-0.825206	0.647180
H61	H	-0.924510	-0.762528	0.751659
H62	H	-1.004466	-0.817306	0.746357
H63	H	-1.004609	-0.765827	0.660308
H64	H	-0.847558	-0.849259	0.692990
H65	H	-0.847678	-0.797774	0.606939
C66	C	-0.379168	-0.476822	0.379545
C67	C	-0.364940	-0.541464	0.365394
H68	H	-0.333557	-0.454509	0.333990
H69	H	-0.363839	-0.466061	0.450142
H70	H	-0.449757	-0.466055	0.364082
H71	H	-0.294353	-0.552232	0.380866
H72	H	-0.380262	-0.552229	0.294781
C73	C	-0.714709	-0.717294	0.587672
C74	C	-0.647303	-0.679519	0.647039
H75	H	-0.760353	-0.739605	0.633197
H76	H	-0.674651	-0.746269	0.547725
H77	H	-0.754851	-0.691624	0.541842
H78	H	-0.607156	-0.705190	0.692863
H79	H	-0.687365	-0.650541	0.687004
H80	H	-1.105123	-0.836758	0.628108
H81	H	-0.628142	-0.550880	0.627949
H82	H	-0.384115	-0.149998	0.384557
H83	H	-0.920882	-1.045298	0.383478
C84	C	-0.986701	-0.957579	0.188700
C85	C	-0.904896	-0.973011	0.257230
H86	H	-0.958398	-0.943044	0.124253
H87	H	-1.028608	-0.925529	0.219067
H88	H	-1.028566	-0.993704	0.176292
H89	H	-0.863035	-0.936885	0.269644
H90	H	-0.862972	-1.005064	0.226857
C91	C	-0.379118	-0.343275	0.379614
C92	C	-0.364928	-0.278628	0.365448
H93	H	-0.333461	-0.365572	0.334097
H94	H	-0.449681	-0.354037	0.364118
H95	H	-0.363817	-0.354060	0.450234
H96	H	-0.380236	-0.267842	0.294830
H97	H	-0.294349	-0.267862	0.380937
C98	C	-0.751030	-0.838818	0.918058
C99	C	-0.646983	-0.825260	0.891566
H100	H	-0.796619	-0.811476	0.880811
H101	H	-0.760614	-0.833068	0.991244
H102	H	-0.766424	-0.881105	0.900067
H103	H	-0.631587	-0.782974	0.909565
H104	H	-0.637395	-0.831005	0.818364
C105	C	-0.398640	-1.055935	0.796423
C106	C	-0.400587	-1.059102	0.906021
H107	H	-0.422959	-1.094518	0.768056
H108	H	-0.328958	-1.048440	0.773458
H109	H	-0.442701	-1.022705	0.773428
H110	H	-0.356519	-1.092329	0.929017
H111	H	-0.470280	-1.066604	0.928995
H112	H	-1.094409	-1.042917	0.390870
C113	C	-0.632715	-0.833827	1.229788
C114	C	-0.646930	-0.825306	1.121890
H115	H	-0.678301	-0.806507	1.266996
H116	H	-0.562125	-0.824629	1.247779
H117	H	-0.648094	-0.876124	1.247765
H118	H	-0.631543	-0.783010	1.103912
H119	H	-0.717536	-0.834500	1.103892
H120	H	-0.279846	-0.983559	0.922216
H121	H	-1.090322	-0.983575	0.280270
H122	H	-0.283863	-0.979174	1.095743
C123	C	-0.481574	-1.058498	1.162887
C124	C	-0.390591	-1.062429	1.101927
H125	H	-0.499725	-1.099125	1.187730
H126	H	-0.537270	-1.042293	1.121511
H127	H	-0.469422	-1.031417	1.220773
H128	H	-0.402745	-1.089506	1.044037
H129	H	-0.334882	-1.078642	1.143305
H130	H	-0.628169	-0.269307	0.627966
C131	C	-0.706396	-0.183423	0.705947
C132	C	-0.647358	-0.140676	0.647080
H133	H	-0.752061	-0.161126	0.751455
H134	H	-0.660664	-0.209073	0.746216
H135	H	-0.746517	-0.209055	0.660089
H136	H	-0.607231	-0.115047	0.692937
H137	H	-0.693095	-0.115015	0.606807
