data_functionalizedCrystal
_audit_creation_method	'MofGen! by Chris Wilmer'
_symmetry_space_group_name_H-M	'P1'
_symmetry_Int_Tables_number	1
_symmetry_cell_setting	triclinic
loop_
_symmetry_equiv_pos_as_xyz
  x,y,z
_cell_length_a	10.540539
_cell_length_b	16.098538
_cell_length_c	10.540535
_cell_angle_alpha	87.245491
_cell_angle_beta	84.524567
_cell_angle_gamma	92.764117
loop_
_atom_site_label
_atom_site_type_symbol
_atom_site_fract_x
_atom_site_fract_y
_atom_site_fract_z
O1	O	1.691513	0.069209	0.173283
O2	O	1.322101	0.069218	0.190138
O3	O	1.515238	0.069216	-0.002997
O4	O	1.498376	0.069210	0.366418
O5	O	1.503956	-0.069296	0.008241
O6	O	1.310818	-0.069295	0.201375
O7	O	1.680231	-0.069304	0.184520
Zn8	Zn	1.493733	-0.091291	0.194732
Zn9	Zn	1.508598	0.091205	0.179926
O10	O	1.487093	-0.069302	0.377655
C11	C	1.269157	-0.000037	0.194493
C12	C	1.128209	-0.000033	0.190710
N13	N	1.483597	-0.215840	0.204836
C14	C	0.944758	-0.000354	0.045819
C15	C	1.091403	-0.000033	0.049627
C16	C	1.072978	0.079060	0.252189
C17	C	0.926438	0.079118	0.247369
C18	C	0.913119	-0.078397	0.263018
C19	C	1.060017	-0.079434	0.264402
C20	C	1.565603	-0.259426	0.122891
C21	C	1.558524	-0.346615	0.129972
C22	C	1.469445	-0.390217	0.219003
C23	C	1.387431	-0.346625	0.300951
C24	C	1.394504	-0.259437	0.293864
C25	C	1.443803	-0.653466	0.244673
C26	C	1.436739	-0.740660	0.251757
C27	C	1.607831	-0.740644	0.080775
C28	C	1.614902	-0.653455	0.073701
C29	C	1.532883	-0.609871	0.155644
C30	C	1.462210	-0.479338	0.226245
C31	C	1.540113	-0.520751	0.148395
C32	C	1.733175	-0.000047	0.180166
C33	C	1.874123	-0.000046	0.183947
C34	C	1.508334	-0.000037	-0.044681
C35	C	1.504555	-0.000029	-0.185630
N36	N	1.518744	0.215754	0.169813
C37	C	1.493998	-0.000047	0.419339
C38	C	1.497777	-0.000049	0.560288
C39	C	1.638791	-0.000049	0.596958
C40	C	1.642795	0.000276	0.743533
C41	C	1.439838	0.078909	0.763217
C42	C	1.436842	0.078965	0.616447
C43	C	1.421960	-0.078555	0.629344
C44	C	1.428398	-0.079582	0.775774
H45	H	1.129399	-0.056731	0.000804
O46	O	0.863260	0.083881	0.381373
H47	H	0.897838	0.141970	0.422544
H48	H	1.096214	-0.137947	0.219549
H49	H	1.095569	0.082002	0.355558
H50	H	0.903045	0.138243	0.192392
O51	O	1.711001	-0.606434	-0.022313
H52	H	1.702157	-0.538484	-0.013458
O53	O	1.510774	0.157122	0.797561
H54	H	1.546886	0.194306	0.708953
H55	H	1.083852	-0.084211	0.367649
H56	H	1.638146	-0.223932	0.050398
O57	O	0.864881	-0.157810	0.208968
H58	H	0.799754	-0.193856	0.282947
O59	O	1.636171	-0.473718	0.052363
H60	H	1.733925	-0.490429	0.070838
O61	O	1.135718	0.157040	0.183387
H62	H	1.206236	0.139664	0.105402
O63	O	1.152846	0.075204	-0.027726
H64	H	1.077812	0.111505	-0.067991
O65	O	1.646995	-0.393629	0.041613
H66	H	1.710144	-0.348662	-0.021468
O67	O	1.473788	-0.157843	0.579549
H68	H	1.508090	-0.195449	0.659183
O69	O	1.490656	-0.156948	0.819948
H70	H	1.575483	-0.138826	0.869194
H71	H	0.865847	-0.078933	0.364966
H72	H	1.327108	-0.084582	0.825209
O73	O	0.900779	-0.075489	-0.021920
H74	H	0.796515	-0.074214	-0.029136
H75	H	1.674606	-0.776138	0.014059
O76	O	1.340641	-0.787693	0.347773
H77	H	1.284784	-0.742739	0.403552
H78	H	1.377022	-0.617987	0.311398
O79	O	1.306058	-0.212413	0.382236
H80	H	1.321764	-0.229123	0.482721
O81	O	1.300281	0.083420	0.585559
H82	H	1.290922	0.140384	0.524270
H83	H	1.318147	-0.079318	0.607219
O84	O	1.291362	-0.393653	0.396987
H85	H	1.235522	-0.348694	0.452774
H86	H	1.389682	-0.514845	0.298739
O87	O	1.710421	-0.074650	0.788487
H88	H	1.740555	-0.111443	0.705490
H89	H	1.688329	-0.056653	0.559587
O90	O	1.715432	0.074819	0.533328
H91	H	1.671670	0.132556	0.565286
O92	O	0.910829	0.074355	-0.033780
H93	H	0.843881	0.111707	0.024611
O94	O	1.722256	0.075678	0.775125
H95	H	1.757961	0.112057	0.685651
O96	O	1.507550	0.157276	0.557168
H97	H	1.460519	0.212566	0.594517
H98	H	1.338294	0.081625	0.810352
