data_functionalizedCrystal
_audit_creation_method	'MofGen! by Chris Wilmer'
_symmetry_space_group_name_H-M	'P1'
_symmetry_Int_Tables_number	1
_symmetry_cell_setting	triclinic
loop_
_symmetry_equiv_pos_as_xyz
  x,y,z
_cell_length_a	10.654550
_cell_length_b	14.519709
_cell_length_c	9.130313
_cell_angle_alpha	89.997798
_cell_angle_beta	89.996220
_cell_angle_gamma	84.082524
loop_
_atom_site_label
_atom_site_type_symbol
_atom_site_fract_x
_atom_site_fract_y
_atom_site_fract_z
O1	O	1.666589	0.129528	-0.121923
O2	O	1.300991	0.141869	-0.121900
O3	O	1.493483	0.001510	-0.121899
O4	O	1.474097	0.269887	-0.121924
O5	O	1.493481	0.001514	0.121700
O6	O	1.300989	0.141873	0.121699
O7	O	1.666586	0.129532	0.121676
Cu8	Cu	1.483787	0.135703	0.143930
Cu9	Cu	1.483790	0.135698	-0.144154
O10	O	1.474094	0.269891	0.121675
C11	C	1.254201	0.140965	-0.000098
C12	C	1.114784	0.138254	-0.000088
C13	C	1.034504	0.220895	-0.000117
C14	C	0.903507	0.218342	-0.000143
C15	C	0.933085	0.050500	-0.000116
C16	C	1.064078	0.053054	-0.000080
C17	C	1.085209	0.306095	-0.000126
C18	C	1.004928	0.388743	-0.000157
C19	C	0.873931	0.386190	-0.000182
C20	C	0.823217	0.300989	-0.000176
C21	C	1.492579	-0.032852	-0.000099
C22	C	1.489871	-0.135247	-0.000098
C23	C	1.479904	-0.510195	-0.000136
C24	C	1.482672	-0.405873	-0.000125
C25	C	1.484887	-0.322725	-0.000116
C26	C	1.487656	-0.218396	-0.000108
C27	C	1.713377	0.130436	-0.000130
C28	C	1.852794	0.133147	-0.000149
C29	C	1.474999	0.304253	-0.000128
C30	C	1.477707	0.406648	-0.000139
N31	N	1.483795	0.135705	0.346552
N32	N	1.483793	0.135688	-0.346777
C33	C	1.569052	0.073576	0.423205
C34	C	1.569048	0.073565	0.576542
C35	C	1.398527	0.197821	0.576560
C36	C	1.398525	0.197827	0.423226
C37	C	1.654321	0.011454	0.346531
C38	C	1.739586	-0.050679	0.423184
C39	C	1.739583	-0.050691	0.576520
C40	C	1.654315	0.011432	0.653205
H41	H	0.716549	0.298917	-0.000174
C42	C	0.786704	0.475887	0.000089
C43	C	0.710628	0.479346	0.125414
C44	C	0.630273	0.561968	0.125713
H45	H	0.734891	0.478460	-0.084773
H46	H	0.835623	0.527018	0.000167
H47	H	0.661714	0.428229	0.125322
H48	H	0.762407	0.476788	0.210296
H49	H	0.679192	0.613099	0.125791
H50	H	0.578469	0.564535	0.040846
H51	H	0.578654	0.564331	0.210751
H52	H	1.654311	0.011412	0.778062
C53	C	1.306111	0.265432	0.340066
C54	C	1.326689	0.356200	0.377328
C55	C	1.241588	0.418500	0.300734
H56	H	1.222223	0.254967	0.365134
H57	H	1.318330	0.256596	0.237752
H58	H	1.314460	0.365032	0.479619
H59	H	1.410559	0.366694	0.352256
H60	H	1.253807	0.409664	0.198420
H61	H	1.157706	0.408027	0.325808
H62	H	1.255546	0.480093	0.325995
C63	C	1.059809	0.481308	-0.000386
C64	C	1.019020	0.531321	-0.125706
C65	C	1.069533	0.616603	-0.125957
H66	H	1.149318	0.471128	-0.000445
H67	H	1.032211	0.515423	0.084510
H68	H	1.046626	0.497214	-0.210580
H69	H	0.929518	0.541526	-0.125675
H70	H	1.041935	0.650718	-0.041061
H71	H	1.159041	0.606414	-0.126011
H72	H	1.041856	0.650551	-0.210977
C73	C	0.877783	-0.041906	-0.000200
C74	C	0.745881	-0.026454	-0.000279
C75	C	0.694896	-0.111557	-0.000383
H76	H	0.905162	-0.076041	0.084734
H77	H	0.905279	-0.075978	-0.085174
H78	H	0.718396	0.007603	0.084686
H79	H	0.718467	0.007667	-0.085206
H80	H	0.722392	-0.145629	-0.085357
H81	H	0.722284	-0.145686	0.084552
H82	H	0.605397	-0.101085	-0.000450
C83	C	1.151040	-0.036771	-0.000137
C84	C	1.078601	-0.111932	-0.000193
C85	C	1.158667	-0.194694	-0.000262
H86	H	1.202764	-0.039394	0.084801
H87	H	1.202757	-0.039311	-0.085107
H88	H	1.026906	-0.109394	0.084769
H89	H	1.026879	-0.109340	-0.085124
H90	H	1.210384	-0.197234	-0.085232
H91	H	1.210387	-0.197307	0.084677
H92	H	1.109529	-0.245700	-0.000314
H93	H	1.329106	0.248400	0.639006
C94	C	1.832010	-0.118294	0.340045
C95	C	1.811401	-0.209052	0.377345
C96	C	1.896508	-0.271374	0.300791
H97	H	1.915896	-0.107837	0.365121
H98	H	1.819818	-0.109472	0.237725
H99	H	1.823604	-0.217870	0.479642
H100	H	1.727533	-0.219539	0.352266
H101	H	1.884315	-0.262552	0.198472
H102	H	1.980387	-0.260907	0.325873
H103	H	1.882528	-0.332959	0.326079
H104	H	1.654334	0.011460	0.221677
H105	H	1.191871	0.308183	-0.000112
H106	H	1.809000	-0.101288	0.638929
