data_functionalizedCrystal
_audit_creation_method	'MofGen! by Chris Wilmer'
_symmetry_space_group_name_H-M	'P1'
_symmetry_Int_Tables_number	1
_symmetry_cell_setting	triclinic
loop_
_symmetry_equiv_pos_as_xyz
  x,y,z
_cell_length_a	10.723023
_cell_length_b	11.792241
_cell_length_c	9.798715
_cell_angle_alpha	89.996704
_cell_angle_beta	89.996770
_cell_angle_gamma	84.330482
loop_
_atom_site_label
_atom_site_type_symbol
_atom_site_fract_x
_atom_site_fract_y
_atom_site_fract_z
O1	O	1.656767	0.159188	-0.113478
O2	O	1.293574	0.174427	-0.113484
O3	O	1.483984	0.001656	-0.113471
O4	O	1.466357	0.331959	-0.113490
O5	O	1.483970	0.001656	0.113511
O6	O	1.293560	0.174426	0.113499
O7	O	1.656752	0.159187	0.113504
Zn8	Zn	1.475154	0.166807	0.149540
Zn9	Zn	1.475173	0.166807	-0.149519
O10	O	1.466342	0.331958	0.113492
C11	C	1.247070	0.173318	0.000007
C12	C	1.108525	0.170000	0.000005
C13	C	1.482870	-0.040638	0.000020
C14	C	1.479555	-0.166658	0.000018
C15	C	0.903577	0.165093	-0.117578
C16	C	1.046771	0.168522	-0.117579
C17	C	1.473461	-0.397384	-0.000005
C18	C	1.476847	-0.268991	0.000008
C19	C	1.703256	0.160296	0.000011
C20	C	1.841802	0.163614	0.000004
C21	C	1.467457	0.374252	-0.000002
C22	C	1.470771	0.500273	-0.000009
N23	N	1.475150	0.166806	0.353640
N24	N	1.475186	0.166800	-0.353619
C25	C	1.555099	0.093944	0.421422
C26	C	1.555119	0.093940	0.578584
H27	H	0.850456	0.163814	-0.218245
H28	H	1.406713	0.229178	0.411959
F29	F	1.644325	0.012209	0.345199
F30	F	0.911231	0.165268	0.131587
F31	F	1.644594	0.012409	0.654770
H32	H	1.099896	0.169801	-0.218246
F33	F	1.039097	0.168346	0.131594
H34	H	1.406739	0.229187	0.588100
