data_functionalizedCrystal
_audit_creation_method	'MofGen! by Chris Wilmer'
_symmetry_space_group_name_H-M	'P1'
_symmetry_Int_Tables_number	1
_symmetry_cell_setting	triclinic
loop_
_symmetry_equiv_pos_as_xyz
  x,y,z
_cell_length_a	11.792254
_cell_length_b	16.974897
_cell_length_c	16.053802
_cell_angle_alpha	83.774775
_cell_angle_beta	87.412233
_cell_angle_gamma	96.200685
loop_
_atom_site_label
_atom_site_type_symbol
_atom_site_fract_x
_atom_site_fract_y
_atom_site_fract_z
O1	O	-0.135041	1.056478	-0.140730
O2	O	0.364959	1.556478	0.359270
O3	O	-0.154521	0.825610	-0.125148
O4	O	0.345479	1.325610	0.374852
O5	O	0.020472	0.946642	-0.133321
O6	O	0.520472	1.446642	0.366679
O7	O	-0.310035	0.935447	-0.132557
O8	O	0.189965	1.435447	0.367443
O9	O	0.010880	0.939980	0.005988
O10	O	0.510880	1.439980	0.505988
O11	O	-0.164114	0.818948	0.014161
O12	O	0.335886	1.318948	0.514161
O13	O	-0.144634	1.049816	-0.001421
O14	O	0.355366	1.549816	0.498579
Zn15	Zn	-0.155897	0.933324	0.028488
Zn16	Zn	0.344103	1.433324	0.528488
Zn17	Zn	-0.143258	0.942102	-0.155057
Zn18	Zn	0.356742	1.442102	0.344943
O19	O	-0.319627	0.928785	0.006751
O20	O	0.180373	1.428785	0.506751
C21	C	-0.158752	0.792723	-0.053499
C22	C	0.341248	1.292723	0.446501
C23	C	-0.157053	0.704654	-0.047555
C24	C	0.342947	1.204654	0.452445
C25	C	-0.151029	0.666903	-0.120694
C26	C	0.348971	1.166903	0.379306
C27	C	-0.149451	0.584152	-0.115097
C28	C	0.350549	1.084152	0.384903
C29	C	-0.153889	0.539153	-0.036360
C30	C	0.346111	1.039153	0.463640
C31	C	-0.159917	0.576909	0.036784
C32	C	0.340083	1.076909	0.536784
C33	C	-0.161503	0.659659	0.031186
C34	C	0.338497	1.159659	0.531186
C35	C	-0.149715	0.291278	-0.011475
C36	C	0.350285	0.791278	0.488525
C37	C	-0.148126	0.208523	-0.005883
C38	C	0.351874	0.708523	0.494117
C39	C	-0.137662	0.215772	-0.157764
C40	C	0.362338	0.715772	0.342236
C41	C	-0.139241	0.298523	-0.163355
C42	C	0.360759	0.798523	0.336645
C43	C	-0.145275	0.336272	-0.090211
C44	C	0.354725	0.836272	0.409789
N45	N	-0.152273	0.454567	-0.030637
N46	N	0.347727	0.954567	0.469363
N47	N	-0.146899	0.420855	-0.095935
N48	N	0.353101	0.920855	0.404065
C49	C	-0.357111	0.932821	-0.062950
C50	C	0.142889	1.432821	0.437050
C51	C	-0.483093	0.934931	-0.063089
C52	C	0.016907	1.434931	0.436911
C53	C	-0.585403	0.936647	-0.063210
C54	C	-0.085403	1.436647	0.436790
C55	C	-0.713757	0.938792	-0.063364
C56	C	-0.213757	1.438792	0.436636
C57	C	0.057956	0.942606	-0.063622
C58	C	0.557956	1.442606	0.436378
C59	C	0.183938	0.940495	-0.063487
C60	C	0.683938	1.440495	0.436513
C61	C	-0.140403	1.082704	-0.073072
C62	C	0.359597	1.582704	0.426928
C63	C	-0.142102	1.170772	-0.079022
C64	C	0.357898	1.670772	0.420978
N65	N	-0.164522	0.927340	0.153752
N66	N	0.335478	1.427340	0.653752
N67	N	-0.134624	0.948093	-0.280322
N68	N	0.365376	1.448093	0.219678
C69	C	-0.090088	0.978858	0.193968
C70	C	0.409912	1.478858	0.693968
C71	C	-0.096132	0.974679	0.281656
C72	C	0.403868	1.474679	0.781656
C73	C	-0.176616	0.918985	0.329128
C74	C	0.323384	1.418985	0.829128
C75	C	-0.251053	0.867462	0.288908
C76	C	0.248947	1.367462	0.788908
C77	C	-0.245003	0.871637	0.201220
C78	C	0.254997	1.371637	0.701220
C79	C	-0.203011	0.900745	0.591770
C80	C	0.296989	1.400745	1.091770
C81	C	-0.209058	0.896575	0.679463
C82	C	0.290942	1.396575	1.179463
C83	C	-0.054135	1.003792	0.672206
C84	C	0.445865	1.503792	1.172206
C85	C	-0.048096	1.007966	0.584517
C86	C	0.451904	1.507966	1.084517
C87	C	-0.122529	0.956439	0.544304
C88	C	0.377471	1.456439	1.044304
N89	N	-0.182798	0.914714	0.418761
N90	N	0.317202	1.414714	0.918761
N91	N	-0.116341	0.960707	0.454673
N92	N	0.383659	1.460707	0.954673
H93	H	-0.144546	0.553419	-0.174654
H94	H	0.355454	1.053419	0.325346
H95	H	0.006466	1.045741	0.704955
H96	H	0.506466	1.545741	1.204955
H97	H	-0.135619	0.335157	-0.227471
H98	H	0.364381	0.835157	0.272529
C99	C	-0.131035	0.174241	-0.238217
C100	C	0.368965	0.674241	0.261783
N101	N	-0.126048	0.142959	-0.298818
N102	N	0.373952	0.642959	0.201182
H103	H	-0.151772	0.171884	0.058237
H104	H	0.348228	0.671884	0.558237
H105	H	-0.163538	0.540264	0.100893
H106	H	0.336462	1.040264	0.600893
H107	H	0.017440	1.053316	0.545867
H108	H	0.517440	1.553316	1.045867
C109	C	-0.156340	0.332792	0.068986
C110	C	0.343660	0.832792	0.568986
N111	N	-0.161326	0.364063	0.129594
N112	N	0.338674	0.864063	0.629594
H113	H	-0.274603	0.851220	0.718111
H114	H	0.225397	1.351220	1.218111
C115	C	-0.285037	0.844167	0.547540
C116	C	0.214963	1.344167	1.047540
N117	N	-0.346876	0.801588	0.514221
N118	N	0.153124	1.301588	1.014221
C119	C	-0.146144	0.716395	-0.207311
C120	C	0.353856	1.216395	0.292689
N121	N	-0.142469	0.753670	-0.272554
N122	N	0.357531	1.253670	0.227446
H123	H	-0.166414	0.690394	0.090744
H124	H	0.333586	1.190394	0.590744
C125	C	-0.001548	1.040126	0.141756
C126	C	0.498452	1.540126	0.641756
N127	N	0.065147	1.086272	0.102433
N128	N	0.565147	1.586272	0.602433
C129	C	-0.339576	0.806190	0.341131
C130	C	0.160424	1.306190	0.841131
N131	N	-0.406253	0.760039	0.380464
N132	N	0.093747	1.260039	0.880464
H133	H	-0.035521	1.016629	0.314399
H134	H	0.464479	1.516629	0.814399
C135	C	-0.326895	0.814969	0.156984
C136	C	0.173105	1.314969	0.656984
N137	N	-0.388580	0.772286	0.123667
N138	N	0.111420	1.272286	0.623667
