data_functionalizedCrystal
_audit_creation_method	'MofGen! by Chris Wilmer'
_symmetry_space_group_name_H-M	'P1'
_symmetry_Int_Tables_number	1
_symmetry_cell_setting	triclinic
loop_
_symmetry_equiv_pos_as_xyz
  x,y,z
_cell_length_a	17.077404
_cell_length_b	19.120786
_cell_length_c	17.077396
_cell_angle_alpha	92.471235
_cell_angle_beta	90.019501
_cell_angle_gamma	92.465349
loop_
_atom_site_label
_atom_site_type_symbol
_atom_site_fract_x
_atom_site_fract_y
_atom_site_fract_z
Zn1	Zn	1.186709	-0.279626	0.430494
Zn2	Zn	1.686709	0.220374	0.930494
Zn3	Zn	1.181010	-0.397090	0.293620
Zn4	Zn	1.681010	0.102910	0.793620
Zn5	Zn	1.055439	-0.279651	0.299241
Zn6	Zn	1.555439	0.220349	0.799241
Zn7	Zn	1.049804	-0.397049	0.424846
Zn8	Zn	1.549804	0.102951	0.924846
O9	O	1.118240	-0.338354	0.362050
O10	O	1.618240	0.161646	0.862050
O11	O	1.295799	-0.295215	0.412349
O12	O	1.795799	0.204785	0.912349
O13	O	1.164326	-0.381539	0.184518
O14	O	1.664326	0.118461	0.684518
O15	O	1.077596	-0.181357	0.321368
O16	O	1.577596	0.318643	0.821368
O17	O	1.291612	-0.381516	0.311789
O18	O	1.791612	0.118484	0.811789
O19	O	1.174039	-0.181339	0.417799
O20	O	1.674039	0.318661	0.917799
O21	O	1.072070	-0.295257	0.188647
O22	O	1.572070	0.204743	0.688647
O23	O	0.944845	-0.295217	0.315891
O24	O	1.444845	0.204783	0.815891
O25	O	1.067992	-0.381445	0.535444
O26	O	1.567992	0.118555	1.035444
O27	O	0.940705	-0.381468	0.408173
O28	O	1.440705	0.118532	0.908173
O29	O	1.168575	-0.295175	0.539593
O30	O	1.668575	0.204825	1.039593
O31	O	1.158861	-0.495375	0.306312
O32	O	1.658861	0.004625	0.806312
O33	O	1.062465	-0.495345	0.402723
O34	O	1.562465	0.004655	0.902723
C35	C	0.914293	-0.338341	0.362029
C36	C	1.414293	0.161659	0.862029
C37	C	0.827043	-0.338353	0.362038
C38	C	1.327043	0.161647	0.862038
C39	C	1.109455	-0.520845	0.353312
C40	C	1.609455	-0.020845	0.853312
C41	C	1.105768	-0.598916	0.349600
C42	C	1.605768	-0.098916	0.849600
C43	C	0.783914	-0.383332	0.410005
C44	C	1.283914	0.116668	0.910005
C45	C	0.701934	-0.383333	0.410018
C46	C	1.201934	0.116667	0.910018
C47	C	0.663083	-0.338359	0.362058
C48	C	1.163083	0.161641	0.862058
C49	C	0.706218	-0.293375	0.314089
C50	C	1.206218	0.206625	0.814089
C51	C	0.788197	-0.293370	0.314081
C52	C	1.288197	0.206630	0.814081
C53	C	0.535347	-0.293389	0.314107
C54	C	1.035347	0.206611	0.814107
C55	C	0.453362	-0.293394	0.314114
C56	C	0.953362	0.206606	0.814114
C57	C	0.449084	-0.383352	0.410044
C58	C	0.949084	0.116648	0.910044
C59	C	0.531063	-0.383347	0.410036
C60	C	1.031063	0.116653	0.910036
C61	C	0.574192	-0.338364	0.362066
C62	C	1.074192	0.161636	0.862066
C63	C	1.154211	-0.635524	0.398103
C64	C	1.654211	-0.135524	0.898103
C65	C	1.150744	-0.708880	0.394617
C66	C	1.650744	-0.208880	0.894617
C67	C	1.098837	-0.745626	0.342622
C68	C	1.598837	-0.245626	0.842622
C69	C	1.050388	-0.709013	0.294117
C70	C	1.550388	-0.209013	0.794117
C71	C	1.053852	-0.635659	0.297608
C72	C	1.553852	-0.135659	0.797608
C73	C	1.085865	-0.967112	0.329571
C74	C	1.585865	-0.467112	0.829571
C75	C	1.082406	-1.040471	0.326082
C76	C	1.582406	-0.540471	0.826082
C77	C	1.182761	-1.040333	0.426584
C78	C	1.682761	-0.540333	0.926584
C79	C	1.186224	-0.966977	0.430067
C80	C	1.686224	-0.466977	0.930067
C81	C	1.137772	-0.930371	0.381564
C82	C	1.637772	-0.430371	0.881564
C83	C	1.095293	-0.820607	0.339055
C84	C	1.595293	-0.320607	0.839055
C85	C	1.141313	-0.855391	0.385136
C86	C	1.641313	-0.355391	0.885136
C87	C	1.322984	-0.338367	0.362072
C88	C	1.822984	0.161633	0.862072
C89	C	1.410234	-0.338373	0.362081
C90	C	1.910234	0.161627	0.862081
C91	C	1.118290	-0.338302	0.566797
C92	C	1.618290	0.161698	1.066797
C93	C	1.118312	-0.338280	0.654048
C94	C	1.618312	0.161720	1.154048
C95	C	1.127082	-0.155150	0.370840
C96	C	1.627082	0.344850	0.870840
C97	C	1.130849	-0.077079	0.374586
C98	C	1.630849	0.422921	0.874586
C99	C	1.118238	-0.338355	0.158102
C100	C	1.618238	0.161645	0.658102
C101	C	1.118379	-0.338179	0.070861
C102	C	1.618379	0.161821	0.570861
C103	C	1.170687	-0.293356	0.697200
C104	C	1.670687	0.206644	1.197200
C105	C	1.170698	-0.293333	0.779182
C106	C	1.670698	0.206667	1.279182
C107	C	1.118336	-0.338238	0.818010
C108	C	1.618336	0.161762	1.318010
C109	C	1.065955	-0.383164	0.774852
C110	C	1.565955	0.116836	1.274852
C111	C	1.065941	-0.383183	0.692872
C112	C	1.565941	0.116817	1.192872
C113	C	1.065988	-0.383122	0.945724
C114	C	1.565988	0.116878	1.445724
C115	C	1.066003	-0.383103	1.027709
C116	C	1.566003	0.116897	1.527709
C117	C	1.170745	-0.293271	1.032034
C118	C	1.670745	0.206729	1.532034
C119	C	1.170732	-0.293290	0.950054
C120	C	1.670732	0.206710	1.450054
C121	C	1.118351	-0.338218	0.906902
C122	C	1.618351	0.161782	1.406902
H123	H	0.815540	-0.419958	0.449057
H124	H	1.315540	0.080042	0.949057
F125	F	1.034292	-0.928162	0.277956
F126	F	1.534292	-0.428162	0.777956
H127	H	1.213349	-0.256752	0.814313
H128	H	1.713349	0.243248	1.314313
H129	H	1.023323	-0.419695	0.910592
H130	H	1.523323	0.080305	1.410592
F131	F	0.995138	-0.748123	0.238787
F132	F	1.495138	-0.248123	0.738787
H133	H	1.023364	-0.419668	1.059320
H134	H	1.523364	0.080332	1.559320
H135	H	1.196483	-0.605610	0.440439
H136	H	1.696483	-0.105610	0.940439
F137	F	1.002291	-0.596698	0.245985
F138	F	1.502291	-0.096698	0.745985
H139	H	1.023284	-0.419758	0.657738
H140	H	1.523284	0.080242	1.157738
F141	F	0.656037	-0.431206	0.461072
F142	F	1.156037	0.068794	0.961072
H143	H	0.570461	-0.256752	0.275052
H144	H	1.070461	0.243248	0.775052
F145	F	0.572409	-0.431218	0.461075
F146	F	1.072409	0.068782	0.961075
H147	H	1.183572	-0.825470	0.427472
H148	H	1.683572	-0.325470	0.927472
F149	F	0.664868	-0.245505	0.263052
F150	F	1.164868	0.254495	0.763052
H151	H	1.213373	-0.256729	0.918443
H152	H	1.713373	0.243271	1.418443
H153	H	1.053033	-0.850534	0.296719
H154	H	1.553033	-0.350534	0.796719
F155	F	0.403183	-0.431219	0.461107
F156	F	0.903183	0.068781	0.961107
F157	F	1.226494	-0.245456	1.077961
F158	F	1.726494	0.254544	1.577961
F159	F	0.412016	-0.245530	0.263067
F160	F	0.912016	0.254470	0.763067
F161	F	0.834097	-0.245496	0.263029
F162	F	1.334097	0.254504	0.763029
F163	F	1.202296	-0.747837	0.446249
F164	F	1.702296	-0.247837	0.946249
H165	H	1.213329	-0.256791	0.665593
H166	H	1.713329	0.243209	1.165593
H167	H	1.228491	-0.937060	0.472405
H168	H	1.728491	-0.437060	0.972405
F169	F	1.234321	-1.079298	0.478202
F170	F	1.734321	-0.579298	0.978202
F171	F	1.010224	-0.430953	0.816177
F172	F	1.510224	0.069047	1.316177
H173	H	1.040133	-1.070388	0.283742
H174	H	1.540133	-0.570388	0.783742
