data_functionalizedCrystal
_audit_creation_method	'MofGen! by Chris Wilmer'
_symmetry_space_group_name_H-M	'P1'
_symmetry_Int_Tables_number	1
_symmetry_cell_setting	triclinic
loop_
_symmetry_equiv_pos_as_xyz
  x,y,z
_cell_length_a	12.503572
_cell_length_b	11.026607
_cell_length_c	11.026607
_cell_angle_alpha	108.586017
_cell_angle_beta	94.298318
_cell_angle_gamma	85.706536
loop_
_atom_site_label
_atom_site_type_symbol
_atom_site_fract_x
_atom_site_fract_y
_atom_site_fract_z
O1	O	0.089318	-1.732471	-0.527857
O2	O	0.089320	-1.365891	-0.467093
O3	O	0.089315	-1.518799	-0.314185
O4	O	0.089323	-1.579563	-0.680765
O5	O	-0.089326	-1.507305	-0.325709
O6	O	-0.089322	-1.354397	-0.478617
O7	O	-0.089323	-1.720977	-0.539381
Cu8	Cu	-0.105634	-1.536638	-0.510051
Cu9	Cu	0.105630	-1.550231	-0.496423
O10	O	-0.089319	-1.568069	-0.692289
C11	C	-0.000001	-1.312485	-0.461645
C12	C	-0.000000	-1.170471	-0.428228
C13	C	-0.000004	-1.501842	-0.272288
C14	C	-0.000000	-1.468426	-0.130273
N15	N	-0.254226	-1.527086	-0.519638
C16	C	-0.473341	-1.513037	-0.533751
C17	C	-0.526670	-1.573836	-0.472718
C18	C	-0.648593	-1.566019	-0.480571
C19	C	-0.351407	-1.520853	-0.525900
N20	N	0.254222	-1.559790	-0.486828
C21	C	-0.000001	-1.774384	-0.544829
C22	C	0.000006	-1.916398	-0.578245
C23	C	0.000003	-1.116822	-0.520498
C24	C	0.000003	-0.970043	-0.485962
C25	C	0.000003	-1.585026	-0.734186
C26	C	0.000006	-1.618443	-0.876200
C27	C	0.000001	-1.560695	-0.076624
C28	C	0.000005	-1.526160	0.070155
H29	H	-0.480759	-1.631759	-0.414570
Br30	Br	-0.000016	-1.065923	-0.253944
H31	H	-0.000006	-1.665258	-0.139358
Br32	Br	-0.000012	-0.865499	-0.311671
Br33	Br	-0.000011	-1.020936	-0.752539
H34	H	-0.000001	-1.179554	-0.625061
H35	H	-0.519246	-1.455120	-0.591898
H36	H	0.000086	-1.723019	0.061078
Br37	Br	0.000021	-1.351869	0.174699
Br38	Br	0.000016	-1.294142	-0.025726
