data_functionalizedCrystal
_audit_creation_method	'MofGen! by Chris Wilmer'
_symmetry_space_group_name_H-M	'P1'
_symmetry_Int_Tables_number	1
_symmetry_cell_setting	triclinic
loop_
_symmetry_equiv_pos_as_xyz
  x,y,z
_cell_length_a	25.639239
_cell_length_b	25.639242
_cell_length_c	25.639234
_cell_angle_alpha	90.030783
_cell_angle_beta	89.975095
_cell_angle_gamma	89.966288
loop_
_atom_site_label
_atom_site_type_symbol
_atom_site_fract_x
_atom_site_fract_y
_atom_site_fract_z
Zn1	Zn	-0.208252	-0.799262	-0.295762
Zn2	Zn	-0.295680	-0.799175	-0.208327
Zn3	Zn	-0.208253	-0.711828	-0.208324
Zn4	Zn	-0.295651	-0.711784	-0.295714
O5	O	-0.251959	-0.755512	-0.252032
O6	O	-0.219861	-0.872416	-0.284185
O7	O	-0.284096	-0.787570	-0.135161
O8	O	-0.135088	-0.723481	-0.219942
O9	O	-0.284095	-0.872351	-0.219946
O10	O	-0.135087	-0.787719	-0.284182
O11	O	-0.219863	-0.723396	-0.135159
O12	O	-0.219835	-0.638656	-0.219896
O13	O	-0.284044	-0.723406	-0.368886
O14	O	-0.284045	-0.638624	-0.284101
O15	O	-0.219833	-0.787676	-0.368921
O16	O	-0.368841	-0.787527	-0.219900
O17	O	-0.368820	-0.723321	-0.284103
C18	C	-0.251937	-0.619669	-0.251993
C19	C	-0.251940	-0.561555	-0.251989
C20	C	-0.387801	-0.755424	-0.252008
C21	C	-0.445916	-0.755434	-0.252015
C22	C	-0.285444	-0.201184	-0.285418
C23	C	-0.285447	-0.146580	-0.285425
O24	O	-0.313910	-0.118337	-0.313824
N25	N	-0.251968	-0.119273	-0.252050
C26	C	-0.218480	-0.146573	-0.218670
O27	O	-0.190003	-0.118332	-0.190283
C28	C	-0.218475	-0.201176	-0.218666
C29	C	-0.251960	-0.228481	-0.252039
C30	C	-0.318927	-0.228489	-0.318789
C31	C	-0.318924	-0.283089	-0.318781
C32	C	-0.285440	-0.310385	-0.285402
C33	C	-0.251958	-0.283081	-0.252032
C34	C	-0.184984	-0.228475	-0.185289
C35	C	-0.184982	-0.283082	-0.185288
C36	C	-0.218467	-0.310387	-0.218662
C37	C	-0.218471	-0.364978	-0.218645
N38	N	-0.251951	-0.392285	-0.252020
C39	C	-0.285435	-0.364989	-0.285399
C40	C	-0.218492	-0.031902	-0.218681
C41	C	-0.218499	0.022700	-0.218682
C42	C	-0.285466	0.022689	-0.285438
C43	C	-0.285461	-0.031914	-0.285434
C44	C	-0.251971	-0.059209	-0.252056
C45	C	-0.285428	-0.479654	-0.285380
C46	C	-0.285425	-0.534259	-0.285367
C47	C	-0.218456	-0.534244	-0.218614
C48	C	-0.218461	-0.479643	-0.218624
C49	C	-0.251949	-0.452349	-0.252011
O50	O	-0.190021	-0.393256	-0.190262
O51	O	-0.313902	-0.393236	-0.313786
C52	C	-0.806277	-0.789031	-0.218658
C53	C	-0.860882	-0.789051	-0.218665
O54	O	-0.889117	-0.817526	-0.190277
N55	N	-0.888198	-0.755604	-0.252066
C56	C	-0.860907	-0.722138	-0.285467
O57	O	-0.889156	-0.693690	-0.313878
C58	C	-0.806304	-0.722120	-0.285462
C59	C	-0.778990	-0.755566	-0.252055
C60	C	-0.778964	-0.822475	-0.185254
C61	C	-0.724363	-0.822454	-0.185246
C62	C	-0.697076	-0.788989	-0.218643
C63	C	-0.724390	-0.755545	-0.252047
C64	C	-0.779014	-0.688657	-0.318865
C65	C	-0.724407	-0.688643	-0.318857
C66	C	-0.697094	-0.722089	-0.285450
C67	C	-0.642502	-0.722059	-0.285436
N68	N	-0.615186	-0.755507	-0.252035
C69	C	-0.642473	-0.788972	-0.218638
C70	C	-0.975578	-0.722177	-0.285475
C71	C	-1.030180	-0.722191	-0.285477
C72	C	-1.030151	-0.789106	-0.218676
C73	C	-0.975547	-0.789089	-0.218671
C74	C	-0.948261	-0.755625	-0.252073
C75	C	-0.527808	-0.788925	-0.218625
C76	C	-0.473202	-0.788899	-0.218618
C77	C	-0.473237	-0.721987	-0.285421
C78	C	-0.527837	-0.722010	-0.285426
C79	C	-0.555121	-0.755483	-0.252026
O80	O	-0.614232	-0.693601	-0.313811
O81	O	-0.614218	-0.817419	-0.190236
C82	C	-0.115586	-0.755614	-0.252067
C83	C	-0.057472	-0.755658	-0.252082
C84	C	-0.251935	-0.755546	-0.388405
C85	C	-0.251925	-0.755560	-0.446519
C86	C	-0.251979	0.108115	-0.252065
C87	C	-0.251982	0.050001	-0.252063
C88	C	-0.218417	-0.722160	-0.806887
C89	C	-0.218407	-0.722163	-0.861491
O90	O	-0.189975	-0.693738	-0.889732
N91	N	-0.251843	-0.755578	-0.888802
C92	C	-0.285294	-0.788989	-0.861505
O93	O	-0.313733	-0.817411	-0.889749
C94	C	-0.285306	-0.788983	-0.806902
C95	C	-0.251864	-0.755569	-0.779594
C96	C	-0.184978	-0.688749	-0.779579
C97	C	-0.184987	-0.688747	-0.724978
C98	C	-0.218435	-0.722156	-0.697686
C99	C	-0.251873	-0.755567	-0.724993
C100	C	-0.318759	-0.822390	-0.779606
C101	C	-0.318768	-0.822381	-0.724999
C102	C	-0.285326	-0.788968	-0.697691
C103	C	-0.285329	-0.788974	-0.643100
N104	N	-0.251894	-0.755559	-0.615789
C105	C	-0.218446	-0.722150	-0.643082
C106	C	-0.285267	-0.788998	-0.976176
C107	C	-0.285253	-0.789006	-1.030778
C108	C	-0.218367	-0.722180	-1.030760
C109	C	-0.218379	-0.722174	-0.976157
C110	C	-0.251832	-0.755583	-0.948865
C111	C	-0.218467	-0.722149	-0.528417
C112	C	-0.218478	-0.722151	-0.473812
C113	C	-0.285365	-0.788976	-0.473834
C114	C	-0.285353	-0.788975	-0.528435
C115	C	-0.251902	-0.755558	-0.555725
O116	O	-0.313748	-0.817383	-0.614825
O117	O	-0.190017	-0.693728	-0.614832
C118	C	-0.251945	-0.755508	-0.116189
C119	C	-0.251808	-0.755595	-0.058076
H120	H	-0.312695	-0.556488	-0.312544
O121	O	-1.056658	-0.821564	-0.186178
C122	C	-1.043377	-0.810197	-0.134041
H123	H	-1.028392	-0.768431	-0.131326
H124	H	-1.011683	-0.838243	-0.120390
C125	C	-1.110327	-0.867610	-0.102530
C126	C	-1.091927	-0.816311	-0.099195
H127	H	-1.140273	-0.871383	-0.081034
H128	H	-1.119274	-0.875270	-0.137655
H129	H	-1.083911	-0.890976	-0.091155
H130	H	-1.118339	-0.792946	-0.110575
H131	H	-1.082985	-0.808647	-0.064070
O132	O	-0.152579	-0.656257	-0.698399
C133	C	-0.182348	-0.622452	-0.666805
H134	H	-0.221972	-0.640864	-0.658615
H135	H	-0.188089	-0.583708	-0.687837
C136	C	-0.104917	-0.590374	-0.625003
C137	C	-0.153583	-0.612991	-0.614941
H138	H	-0.087173	-0.584536	-0.593012
H139	H	-0.084861	-0.613148	-0.646290
H140	H	-0.109709	-0.558090	-0.642531
H141	H	-0.148791	-0.645277	-0.597420
H142	H	-0.173638	-0.590222	-0.593650
H143	H	-0.157741	-0.661540	-0.801795
H144	H	-0.312696	-0.457438	-0.312568
H145	H	-0.191196	-0.556478	-0.191436
O146	O	-0.185947	-0.058334	-0.186200
C147	C	-0.156394	-0.022518	-0.156755
H148	H	-0.177813	0.016416	-0.154917
H149	H	-0.116710	-0.016742	-0.175971
C150	C	-0.122475	-0.091609	-0.103376
C151	C	-0.148785	-0.043791	-0.101114
H152	H	-0.117779	-0.104731	-0.069054
H153	H	-0.142384	-0.115739	-0.123214
H154	H	-0.089409	-0.086789	-0.119392
H155	H	-0.181853	-0.048612	-0.085105
H156	H	-0.128881	-0.019662	-0.081271
H157	H	-0.702193	-0.661393	-0.346059
H158	H	-0.312479	-0.816221	-1.053007
O159	O	-0.351465	-0.309528	-0.351253
C160	C	-0.381024	-0.273718	-0.380703
H161	H	-0.359610	-0.234809	-0.382548
H162	H	-0.420708	-0.267877	-0.361487
C163	C	-0.414935	-0.342839	-0.434070
C164	C	-0.388631	-0.295051	-0.436341
H165	H	-0.419629	-0.355999	-0.468390
H166	H	-0.395022	-0.366966	-0.414228
H167	H	-0.448002	-0.337965	-0.418055
H168	H	-0.355562	-0.299927	-0.452350
H169	H	-0.408538	-0.270926	-0.456187
O170	O	-1.056628	-0.689681	-0.317974
C171	C	-1.020828	-0.660132	-0.347437
H172	H	-0.981885	-0.681535	-0.349262
H173	H	-1.015069	-0.620432	-0.328245
C174	C	-1.089939	-0.626283	-0.400837
C175	C	-1.042110	-0.652573	-0.403083
H176	H	-1.103067	-0.621618	-0.435162
H177	H	-1.114059	-0.646189	-0.380987
H178	H	-1.085133	-0.593203	-0.384842
H179	H	-1.046918	-0.685655	-0.419072
H180	H	-1.017991	-0.632672	-0.422937
O181	O	-0.446780	-0.689511	-0.317937
C182	C	-0.460071	-0.700930	-0.370060
H183	H	-0.499702	-0.721034	-0.371170
H184	H	-0.429309	-0.727801	-0.387688
C185	C	-0.413936	-0.625257	-0.400324
C186	C	-0.462613	-0.649945	-0.401687
H187	H	-0.415502	-0.593808	-0.419835
H188	H	-0.404980	-0.617564	-0.365208
H189	H	-0.388306	-0.647655	-0.415013
H190	H	-0.488241	-0.627550	-0.386993
H191	H	-0.471574	-0.657633	-0.436802
O192	O	-0.805457	-0.656152	-0.351368
C193	C	-0.769653	-0.626610	-0.380832
H194	H	-0.730711	-0.648016	-0.382652
H195	H	-0.763892	-0.586908	-0.361645
C196	C	-0.838758	-0.592763	-0.434242
C197	C	-0.790931	-0.619057	-0.436481
H198	H	-0.851884	-0.588102	-0.468568
H199	H	-0.862881	-0.612665	-0.414390
H200	H	-0.833951	-0.559681	-0.418250
H201	H	-0.795740	-0.652140	-0.452466
H202	H	-0.766809	-0.599160	-0.456336
H203	H	-0.550077	-0.694777	-0.312630
O204	O	-0.317688	-0.821484	-0.949609
C205	C	-0.287934	-0.855284	-0.918057
H206	H	-0.248311	-0.836872	-0.909871
H207	H	-0.282187	-0.894034	-0.939123
C208	C	-0.365382	-0.887346	-0.876245
C209	C	-0.316719	-0.864730	-0.866187
H210	H	-0.383139	-0.893175	-0.844250
H211	H	-0.385429	-0.864576	-0.897503
H212	H	-0.360587	-0.919635	-0.893801
H213	H	-0.321516	-0.832439	-0.848637
H214	H	-0.296674	-0.887495	-0.844925
H215	H	-0.346194	-0.206270	-0.345973
H216	H	-0.312727	-0.054142	-0.312610
H217	H	-0.191148	-0.694966	-0.953927
O218	O	-0.185956	-0.689662	-1.057299
C219	C	-0.215720	-0.655886	-1.088867
H220	H	-0.256900	-0.652632	-1.072396
H221	H	-0.217517	-0.672053	-1.130257
C222	C	-0.139599	-0.605545	-1.109919
C223	C	-0.190176	-0.601545	-1.089686
H224	H	-0.123841	-0.572025	-1.110427
H225	H	-0.119545	-0.628302	-1.088653
H226	H	-0.141104	-0.619020	-1.144409
H227	H	-0.188670	-0.588077	-1.055195
H228	H	-0.210229	-0.578784	-1.110947
O229	O	-0.351222	-0.854922	-0.806062
C230	C	-0.339799	-0.907038	-0.792747
H231	H	-0.319697	-0.908127	-0.753112
H232	H	-0.312926	-0.924681	-0.823496
C233	C	-0.415468	-0.937327	-0.838885
C234	C	-0.390782	-0.938665	-0.790203
H235	H	-0.446916	-0.956837	-0.837318
H236	H	-0.423163	-0.902216	-0.847858
H237	H	-0.393068	-0.952029	-0.864504
H238	H	-0.413179	-0.923957	-0.764586
H239	H	-0.383093	-0.973774	-0.781225
H240	H	-0.157718	-0.206253	-0.158111
H241	H	-0.191243	-0.694942	-0.451580
O242	O	-0.351319	-0.854761	-0.698464
C243	C	-0.385080	-0.824966	-0.666846
H244	H	-0.388297	-0.783785	-0.683280
H245	H	-0.368922	-0.823178	-0.625466
C246	C	-0.435487	-0.901045	-0.645825
C247	C	-0.439442	-0.850467	-0.666011
H248	H	-0.469020	-0.916776	-0.645307
H249	H	-0.412741	-0.921119	-0.667124
H250	H	-0.422020	-0.899548	-0.611343
H251	H	-0.452903	-0.851966	-0.700494
H252	H	-0.462192	-0.830394	-0.644716
O253	O	-0.317916	0.049233	-0.317922
C254	C	-0.288192	0.080789	-0.351736
H255	H	-0.247018	0.064306	-0.355036
H256	H	-0.286368	0.122180	-0.335575
C257	C	-0.364377	0.101858	-0.401990
C258	C	-0.313808	0.081611	-0.406048
H259	H	-0.380178	0.102368	-0.435492
H260	H	-0.384403	0.080600	-0.379209
H261	H	-0.362850	0.136349	-0.388521
H262	H	-0.315336	0.047119	-0.419511
H263	H	-0.293782	0.102864	-0.428833
O264	O	-0.185903	-0.453064	-0.186280
C265	C	-0.152165	-0.421539	-0.216123
H266	H	-0.170668	-0.413370	-0.255709
H267	H	-0.113435	-0.442620	-0.221945
C268	C	-0.119911	-0.379693	-0.138764
C269	C	-0.142639	-0.369656	-0.187383
H270	H	-0.114032	-0.347690	-0.121035
H271	H	-0.142639	-0.400933	-0.118658
H272	H	-0.087638	-0.397262	-0.143623
H273	H	-0.174914	-0.352093	-0.182523
H274	H	-0.119916	-0.348412	-0.207487
H275	H	-0.157707	-0.305303	-0.158110
O276	O	-0.446752	-0.821440	-0.186149
C277	C	-0.482549	-0.850972	-0.156667
H278	H	-0.521457	-0.852784	-0.178092
H279	H	-0.488399	-0.831850	-0.116938
C280	C	-0.413404	-0.904391	-0.122874
C281	C	-0.461191	-0.906619	-0.149191
H282	H	-0.400229	-0.938716	-0.118260
H283	H	-0.389286	-0.884494	-0.142735
H284	H	-0.418286	-0.888454	-0.089770
H285	H	-0.456308	-0.922550	-0.182297
H286	H	-0.485308	-0.926521	-0.129335
O287	O	-0.554369	-0.821370	-0.186161
C288	C	-0.585996	-0.791641	-0.152351
H289	H	-0.594207	-0.752009	-0.170743
H290	H	-0.564983	-0.785914	-0.113594
C291	C	-0.627755	-0.869116	-0.120341
C292	C	-0.637843	-0.820441	-0.142932
H293	H	-0.659736	-0.886881	-0.114529
H294	H	-0.606446	-0.889145	-0.143117
H295	H	-0.610242	-0.864337	-0.088046
H296	H	-0.655349	-0.825220	-0.175230
H297	H	-0.659156	-0.800412	-0.120161
H298	H	-0.312578	-0.816189	-0.550670
H299	H	-0.191237	0.044927	-0.191501
H300	H	-0.702128	-0.849690	-0.158045
H301	H	-0.801175	-0.849729	-0.158058
H302	H	-0.191228	-0.694937	-0.550630
H303	H	-0.953312	-0.816324	-0.191469
H304	H	-0.953364	-0.694922	-0.312673
H305	H	-0.312596	-0.816178	-0.451603
