data_functionalizedCrystal
_audit_creation_method	'MofGen! by Chris Wilmer'
_symmetry_space_group_name_H-M	'P1'
_symmetry_Int_Tables_number	1
_symmetry_cell_setting	triclinic
loop_
_symmetry_equiv_pos_as_xyz
  x,y,z
_cell_length_a	10.540539
_cell_length_b	11.295483
_cell_length_c	12.837942
_cell_angle_alpha	94.530417
_cell_angle_beta	89.677216
_cell_angle_gamma	85.855350
loop_
_atom_site_label
_atom_site_type_symbol
_atom_site_fract_x
_atom_site_fract_y
_atom_site_fract_z
O1	O	1.709660	-0.098967	0.139298
O2	O	1.341761	-0.098982	0.153073
O3	O	1.517552	-0.098968	-0.004777
O4	O	1.533869	-0.098982	0.297148
O5	O	1.502110	0.099082	0.009066
O6	O	1.326319	0.099067	0.166916
O7	O	1.694217	0.099082	0.153141
Cu8	Cu	1.508858	0.117158	0.161292
Cu9	Cu	1.527121	-0.117058	0.144922
O10	O	1.518426	0.099068	0.310991
C11	C	1.286624	0.000041	0.158962
C12	C	1.145337	0.000035	0.155870
N13	N	1.496022	0.281894	0.172806
N14	N	1.539966	-0.281794	0.133400
C15	C	0.948860	0.000503	0.037460
C16	C	1.095859	0.000044	0.040561
C17	C	1.098579	-0.113059	0.203457
C18	C	0.951609	-0.113141	0.199516
C19	C	0.933817	0.112078	0.217604
C20	C	1.080800	0.113561	0.218769
C21	C	1.749355	0.000056	0.147252
C22	C	1.890643	0.000054	0.150343
C23	C	1.504319	0.000056	-0.036517
C24	C	1.487881	0.000054	-0.151716
C25	C	1.632358	0.531194	0.050460
C26	C	1.622668	0.655857	0.059168
C27	C	1.466945	0.655884	0.198926
C28	C	1.476636	0.531222	0.190217
C29	C	1.559346	0.468881	0.115983
C30	C	1.569042	0.344216	0.107280
C31	C	1.413314	0.344245	0.247032
C32	C	1.403623	0.468908	0.255741
C33	C	1.685501	0.000036	-0.391213
C34	C	1.670062	0.000034	-0.499453
C35	C	1.441566	0.000037	-0.476440
C36	C	1.457005	0.000040	-0.368199
C37	C	1.578976	0.000041	-0.325590
C38	C	1.594414	0.000052	-0.217347
C39	C	1.365919	0.000047	-0.194336
C40	C	1.350480	0.000045	-0.302577
C41	C	1.531659	0.000041	0.342731
C42	C	1.548098	0.000036	0.457929
H43	H	1.127354	0.081116	0.002565
H44	H	0.908946	0.081610	-0.002425
C45	C	1.307406	0.000047	-0.523329
N46	N	1.206355	0.000063	-0.558647
C47	C	1.125305	0.122796	0.332983
N48	N	1.158836	0.129748	0.419010
H49	H	1.139105	-0.081163	-0.009086
H50	H	0.919958	-0.080147	-0.013538
C51	C	0.882292	0.113109	0.330191
N52	N	0.843476	0.113878	0.414987
H53	H	1.130564	-0.117270	0.287843
C54	C	1.819668	0.000045	-0.344339
N55	N	1.920726	0.000049	-0.309036
H56	H	0.891486	0.197803	0.186278
C57	C	1.375937	0.724481	0.280552
N58	N	1.307380	0.776149	0.342027
C59	C	1.660021	0.275643	0.025619
N60	N	1.728545	0.223997	-0.035894
C61	C	1.159247	-0.226762	0.143428
N62	N	1.204938	-0.312402	0.098208
H63	H	1.251174	0.000039	-0.337285
C64	C	1.702983	0.724397	-0.012916
N65	N	1.763478	0.776022	-0.067215
H66	H	1.336278	0.519680	0.316178
H67	H	0.925484	-0.197676	0.152594
H68	H	1.279178	0.000060	-0.140893
C69	C	0.899653	-0.120106	0.311059
N70	N	0.860526	-0.125365	0.395071
C71	C	1.121255	0.226592	0.171872
N72	N	1.151723	0.311726	0.136540
H73	H	1.353866	0.293496	0.300388
C74	C	1.723345	0.462617	-0.031193
N75	N	1.791877	0.410966	-0.092697
H76	H	1.693729	0.000058	-0.182656
C77	C	1.787248	0.000037	-0.571634
N78	N	1.875517	0.000041	-0.626002
