data_functionalizedCrystal
_audit_creation_method	'MofGen! by Chris Wilmer'
_symmetry_space_group_name_H-M	'P1'
_symmetry_Int_Tables_number	1
_symmetry_cell_setting	triclinic
loop_
_symmetry_equiv_pos_as_xyz
  x,y,z
_cell_length_a	17.038275
_cell_length_b	17.666332
_cell_length_c	17.038272
_cell_angle_alpha	90.006380
_cell_angle_beta	88.889085
_cell_angle_gamma	89.990175
loop_
_atom_site_label
_atom_site_type_symbol
_atom_site_fract_x
_atom_site_fract_y
_atom_site_fract_z
O1	O	-1.048760	0.062965	0.170527
O2	O	-0.548760	0.562965	0.670527
O3	O	-0.820948	0.062963	0.167821
O4	O	-0.320948	0.562963	0.667821
O5	O	-0.933500	0.062958	0.055268
O6	O	-0.433500	0.562958	0.555268
O7	O	-0.936208	0.062970	0.283080
O8	O	-0.436208	0.562970	0.783080
O9	O	-0.933478	-0.062939	0.055260
O10	O	-0.433478	0.437061	0.555260
O11	O	-0.820927	-0.062934	0.167814
O12	O	-0.320927	0.437066	0.667814
O13	O	-1.048738	-0.062932	0.170519
O14	O	-0.548738	0.437068	0.670519
Cu15	Cu	-0.934830	-0.074428	0.169166
Cu16	Cu	-0.434830	0.425572	0.669166
Cu17	Cu	-0.934856	0.074459	0.169175
Cu18	Cu	-0.434856	0.574459	0.669175
O19	O	-0.936186	-0.062927	0.283072
O20	O	-0.436186	0.437073	0.783072
C21	C	-0.791645	0.000014	0.165355
C22	C	-0.291645	0.500014	0.665355
C23	C	-0.704361	0.000014	0.158008
C24	C	-0.204361	0.500014	0.658008
N25	N	-0.934818	-0.179148	0.169159
N26	N	-0.434818	0.320852	0.669159
C27	C	-0.210935	0.000010	0.112871
C28	C	0.289065	0.500010	0.612871
C29	C	-0.292947	0.000006	0.119781
C30	C	0.207053	0.500006	0.619781
C31	C	-0.329347	0.000014	0.194154
C32	C	0.170653	0.500014	0.694154
C33	C	-0.283730	0.000017	0.261622
C34	C	0.216270	0.500017	0.761622
C35	C	-0.201720	0.000015	0.254712
C36	C	0.298280	0.500015	0.754712
C37	C	-0.576734	0.000015	0.218566
C38	C	-0.076734	0.500015	0.718566
C39	C	-0.658751	0.000019	0.225471
C40	C	-0.158751	0.500019	0.725471
C41	C	-0.667962	0.000007	0.083629
C42	C	-0.167962	0.500007	0.583629
C43	C	-0.585949	0.000009	0.076725
C44	C	-0.085949	0.500009	0.576725
C45	C	-0.540340	0.000009	0.144193
C46	C	-0.040340	0.500009	0.644193
C47	C	-0.413176	0.000013	0.201218
C48	C	0.086824	0.500013	0.701218
C49	C	-0.456513	0.000005	0.137128
C50	C	0.043487	0.500005	0.637128
C51	C	-0.984675	-0.218760	0.119348
C52	C	-0.484675	0.281240	0.619348
C53	C	-0.984679	-0.298007	0.119344
C54	C	-0.484679	0.201993	0.619344
C55	C	-0.934835	-0.337640	0.169166
C56	C	-0.434835	0.162360	0.669166
C57	C	-0.884968	-0.298018	0.218981
C58	C	-0.384968	0.201982	0.718981
C59	C	-0.884960	-0.218772	0.218977
C60	C	-0.384960	0.281228	0.718977
N61	N	-0.929461	-0.462055	0.237990
N62	N	-0.429461	0.037945	0.737990
N63	N	-0.929473	-0.537335	0.237992
N64	N	-0.429473	-0.037335	0.737992
C65	C	-0.934857	-0.576404	0.169178
C66	C	-0.434857	-0.076404	0.669178
N67	N	-0.940242	-0.537348	0.100363
N68	N	-0.440242	-0.037348	0.600363
N69	N	-0.940233	-0.462061	0.100362
N70	N	-0.440233	0.037939	0.600362
C71	C	-0.934838	-0.423569	0.169175
C72	C	-0.434838	0.076431	0.669175
C73	C	-0.984721	-0.701945	0.119359
C74	C	-0.484721	-0.201945	0.619359
C75	C	-0.984720	-0.781194	0.119354
C76	C	-0.484720	-0.281194	0.619354
C77	C	-0.885013	-0.781204	0.218998
C78	C	-0.385013	-0.281204	0.718998
C79	C	-0.885010	-0.701956	0.218996
C80	C	-0.385010	-0.201956	0.718996
C81	C	-0.934868	-0.662332	0.169177
C82	C	-0.434868	-0.162332	0.669177
C83	C	-0.078041	0.000016	0.172986
C84	C	0.421959	0.500016	0.672986
C85	C	-0.165325	0.000016	0.180334
C86	C	0.334675	0.500016	0.680334
C87	C	-0.931026	0.000010	0.025972
C88	C	-0.431026	0.500010	0.525972
C89	C	-0.923678	0.000010	-0.061312
C90	C	-0.423678	0.500010	0.438688
N91	N	-0.934874	0.179179	0.169176
N92	N	-0.434874	0.679179	0.669176
C93	C	-0.991142	0.000009	-0.106922
C94	C	-0.491142	0.500009	0.393078
C95	C	-0.984233	0.000017	-0.188934
C96	C	-0.484233	0.500017	0.311066
C97	C	-0.909860	0.000019	-0.225334
C98	C	-0.409860	0.500019	0.274666
C99	C	-0.842391	0.000021	-0.179718
C100	C	-0.342391	0.500021	0.320282
C101	C	-0.849301	0.000019	-0.097708
C102	C	-0.349301	0.500019	0.402292
C103	C	-0.885449	0.000029	-0.472722
C104	C	-0.385449	0.500029	0.027278
C105	C	-0.878544	0.000028	-0.554738
C106	C	-0.378544	0.500028	-0.054738
C107	C	-1.020387	0.000025	-0.563948
C108	C	-0.520387	0.500025	-0.063948
C109	C	-1.027290	0.000019	-0.481936
C110	C	-0.527290	0.500019	0.018064
C111	C	-0.959821	0.000025	-0.436327
C112	C	-0.459821	0.500025	0.063673
C113	C	-0.902796	0.000023	-0.309163
C114	C	-0.402796	0.500023	0.190837
C115	C	-0.966886	0.000026	-0.352499
C116	C	-0.466886	0.500026	0.147501
C117	C	-0.938660	0.000023	0.312369
C118	C	-0.438660	0.500023	0.812369
C119	C	-0.946008	0.000028	0.399652
C120	C	-0.446008	0.500028	0.899652
H121	H	-0.181305	0.000008	0.052308
H122	H	0.318695	0.500008	0.552308
H123	H	-0.842241	0.000023	-0.338809
H124	H	-0.342241	0.500023	0.161191
H125	H	-0.330080	-0.000002	0.064844
H126	H	0.169920	0.499998	0.564844
Br127	Br	-0.536555	0.000032	-0.024214
Br128	Br	-0.036555	0.500032	0.475786
H129	H	-0.844383	-0.330291	0.259545
H130	H	-0.344383	0.169709	0.759545
H131	H	-0.705105	0.000006	0.028700
H132	H	-0.205105	0.500006	0.528700
Br133	Br	-0.757739	0.000026	-0.035807
Br134	Br	-0.257739	0.500026	0.464193
H135	H	-1.039169	0.000015	-0.226066
H136	H	-0.539169	0.500015	0.273934
Br137	Br	-0.708150	0.000031	0.326413
Br138	Br	-0.208150	0.500031	0.826413
Br139	Br	-0.793883	0.000042	-0.410834
Br140	Br	-0.293883	0.500042	0.089166
H141	H	-1.075316	0.000021	-0.601091
H142	H	-0.575316	0.500021	-0.101091
Br143	Br	-1.092082	-0.000004	-0.057530
Br144	Br	-0.592082	0.499996	0.442470
Br145	Br	-0.777603	0.000023	-0.604138
Br146	Br	-0.277603	0.500023	-0.104138
H147	H	-0.781834	0.000028	-0.209361
H148	H	-0.281834	0.500028	0.290639
H149	H	-0.539609	0.000018	0.273504
H150	H	-0.039609	0.500018	0.773504
Br151	Br	-0.139819	0.000015	0.346273
Br152	Br	0.360181	0.500015	0.846273
H153	H	-0.313374	0.000019	0.322179
H154	H	0.186626	0.500019	0.822179
H155	H	-1.025280	-0.330265	0.078780
H156	H	-0.525280	0.169735	0.578780
Br157	Br	-0.407112	-0.000012	0.036196
Br158	Br	0.092888	0.499988	0.536196
H159	H	-0.442822	0.000021	0.261774
H160	H	0.057178	0.500021	0.761774
Br161	Br	-1.067818	0.000030	-0.303098
Br162	Br	-0.567818	0.500030	0.196902
Br163	Br	-1.128229	0.000040	-0.432541
Br164	Br	-0.628229	0.500040	0.067459
Br165	Br	-1.052381	-0.834958	0.051741
Br166	Br	-0.552381	-0.334958	0.551741
H167	H	-1.025271	-0.186500	0.078781
H168	H	-0.525271	0.313500	0.578781
Br169	Br	-0.817291	-0.165008	0.286582
Br170	Br	-0.317291	0.334992	0.786582
H171	H	-1.025316	-0.669682	0.078792
H172	H	-0.525316	-0.169682	0.578792
H173	H	-0.844425	-0.813472	0.259560
H174	H	-0.344425	-0.313472	0.759560
H175	H	-0.844415	-0.669702	0.259560
H176	H	-0.344415	-0.169702	0.759560
