data_functionalizedCrystal
_audit_creation_method	'MofGen! by Chris Wilmer'
_symmetry_space_group_name_H-M	'P1'
_symmetry_Int_Tables_number	1
_symmetry_cell_setting	triclinic
loop_
_symmetry_equiv_pos_as_xyz
  x,y,z
_cell_length_a	14.853559
_cell_length_b	14.853567
_cell_length_c	13.330367
_cell_angle_alpha	90.004582
_cell_angle_beta	90.002448
_cell_angle_gamma	83.633192
loop_
_atom_site_label
_atom_site_type_symbol
_atom_site_fract_x
_atom_site_fract_y
_atom_site_fract_z
O1	O	0.117704	1.196365	0.083349
O2	O	0.617704	1.696365	0.583349
O3	O	0.131725	0.933905	0.083366
O4	O	0.631725	1.433905	0.583366
O5	O	-0.006515	1.072150	0.083356
O6	O	0.493485	1.572150	0.583356
O7	O	0.255945	1.058121	0.083359
O8	O	0.755945	1.558121	0.583359
O9	O	-0.006519	1.072130	-0.083491
O10	O	0.493481	1.572130	0.416509
O11	O	0.131722	0.933885	-0.083481
O12	O	0.631722	1.433885	0.416519
O13	O	0.117701	1.196345	-0.083498
O14	O	0.617701	1.696345	0.416502
Cu15	Cu	0.124711	1.065113	-0.098724
Cu16	Cu	0.624711	1.565113	0.401276
Cu17	Cu	0.124715	1.065137	0.098592
Cu18	Cu	0.624715	1.565137	0.598592
O19	O	0.255942	1.058100	-0.083488
O20	O	0.755942	1.558100	0.416512
C21	C	0.131089	0.900307	-0.000055
C22	C	0.631089	1.400307	0.499945
C23	C	0.129185	0.800223	-0.000049
C24	C	0.629185	1.300223	0.499951
C25	C	-0.040106	1.071506	-0.000066
C26	C	0.459894	1.571506	0.499934
C27	C	-0.140190	1.069605	-0.000060
C28	C	0.359810	1.569605	0.499940
C29	C	0.039019	0.387692	-0.000072
C30	C	0.539019	0.887692	0.499928
C31	C	0.203252	0.366406	-0.000070
C32	C	0.703252	0.866406	0.499930
C33	C	0.205042	0.460440	-0.000066
C34	C	0.705042	0.960440	0.499934
C35	C	0.123819	0.518104	-0.000065
C36	C	0.623819	1.018104	0.499935
C37	C	0.040806	0.481735	-0.000066
C38	C	0.540806	0.981735	0.499934
C39	C	0.288054	0.496816	-0.000055
C40	C	0.788054	0.996816	0.499945
C41	C	0.289847	0.590855	-0.000050
C42	C	0.789847	1.090855	0.499950
C43	C	0.208623	0.648521	-0.000056
C44	C	0.708623	1.148521	0.499944
C45	C	0.125607	0.612147	-0.000058
C46	C	0.625607	1.112147	0.499942
C47	C	0.044384	0.669811	-0.000057
C48	C	0.544384	1.169811	0.499943
C49	C	-0.038633	0.633438	-0.000067
C50	C	0.461367	1.133438	0.499933
C51	C	-0.040418	0.539401	-0.000072
C52	C	0.459582	1.039401	0.499928
C53	C	0.210408	0.742559	-0.000051
C54	C	0.710408	1.242559	0.499949
C55	C	0.046172	0.763854	-0.000050
C56	C	0.546172	1.263854	0.499950
C57	C	-0.563363	1.061552	0.090889
C58	C	-0.063363	1.561552	0.590889
C59	C	-0.563361	1.061530	-0.091014
C60	C	-0.063361	1.561530	0.408986
C61	C	-0.469328	1.063323	-0.091015
C62	C	0.030672	1.563323	0.408985
C63	C	-0.422308	1.064230	-0.000062
C64	C	0.077692	1.564230	0.499938
C65	C	-0.469321	1.063343	0.090891
C66	C	0.030679	1.563343	0.590891
C67	C	-0.422307	1.064201	-0.181967
C68	C	0.077693	1.564201	0.318033
C69	C	-0.328268	1.065994	-0.181971
C70	C	0.171732	1.565994	0.318029
C71	C	-0.281247	1.066907	-0.091018
C72	C	0.218753	1.566907	0.408982
C73	C	-0.328266	1.066021	-0.000061
C74	C	0.171734	1.566021	0.499939
C75	C	-0.281245	1.066927	0.090892
C76	C	0.218755	1.566927	0.590892
C77	C	-0.328264	1.066047	0.181850
C78	C	0.171736	1.566047	0.681850
C79	C	-0.422300	1.064256	0.181845
C80	C	0.077700	1.564256	0.681845
C81	C	-0.187210	1.068698	-0.091012
C82	C	0.312790	1.568698	0.408988
C83	C	-0.187203	1.068718	0.090894
C84	C	0.312797	1.568718	0.590894
C85	C	0.289532	1.058745	-0.000064
C86	C	0.789532	1.558745	0.499936
C87	C	0.389616	1.060646	-0.000063
C88	C	0.889616	1.560646	0.499937
C89	C	0.118338	1.229944	-0.000074
C90	C	0.618338	1.729944	0.499926
C91	C	0.120242	1.330027	-0.000074
C92	C	0.620242	1.830027	0.499926
N93	N	0.124708	1.065103	-0.237505
N94	N	0.624708	1.565103	0.262495
C95	C	0.185904	1.003920	-0.710124
C96	C	0.685904	1.503920	-0.210124
C97	C	0.063519	1.126379	-0.710101
C98	C	0.563519	1.626379	-0.210101
C99	C	0.063516	1.126369	-0.605082
C100	C	0.563516	1.626369	-0.105082
C101	C	0.124709	1.065134	-0.552580
C102	C	0.624709	1.565134	-0.052580
C103	C	0.185905	1.003909	-0.605096
C104	C	0.685905	1.503909	-0.105096
C105	C	0.002328	1.187598	-0.552559
C106	C	0.502328	1.687598	-0.052559
C107	C	0.002323	1.187591	-0.447534
C108	C	0.502323	1.687591	0.052466
C109	C	0.063513	1.126351	-0.395029
C110	C	0.563513	1.626351	0.104971
C111	C	0.124710	1.065124	-0.447552
C112	C	0.624710	1.565124	0.052448
C113	C	0.185903	1.003889	-0.395050
C114	C	0.685903	1.503889	0.104950
C115	C	0.247097	0.942656	-0.447570
C116	C	0.747097	1.442656	0.052430
C117	C	0.247094	0.942670	-0.552592
C118	C	0.747094	1.442670	-0.052592
C119	C	0.063515	1.126338	-0.290008
C120	C	0.563515	1.626338	0.209992
C121	C	0.185904	1.003879	-0.290021
C122	C	0.685904	1.503879	0.209979
N123	N	0.124711	1.065154	0.237374
N124	N	0.624711	1.565154	0.737374
H125	H	-0.019971	0.810799	-0.000053
H126	H	0.480029	1.310799	0.499947
H127	H	0.013696	1.176197	-0.247250
H128	H	0.513696	1.676197	0.252750
H129	H	0.269380	0.319450	-0.000063
H130	H	0.769380	0.819450	0.499937
Cl131	Cl	0.390155	0.424321	-0.000040
Cl132	Cl	0.890155	0.924321	0.499960
H133	H	-0.601650	1.060786	-0.165063
H134	H	-0.101650	1.560786	0.334937
H135	H	0.296925	0.892802	-0.404811
H136	H	0.796925	1.392802	0.095189
H137	H	0.357445	0.620461	-0.000042
H138	H	0.857445	1.120461	0.499958
Cl139	Cl	-0.140737	0.705941	-0.000057
Cl140	Cl	0.359263	1.205941	0.499943
Cl141	Cl	-0.622470	1.060456	0.205231
Cl142	Cl	-0.122470	1.560456	0.705231
H143	H	-0.108006	0.509777	-0.000103
H144	H	0.391994	1.009777	0.499897
Cl145	Cl	-0.065340	0.341969	-0.000090
Cl146	Cl	0.434660	0.841969	0.499910
Cl147	Cl	-0.481419	1.063041	-0.296299
Cl148	Cl	0.018581	1.563041	0.203701
Cl149	Cl	-0.269142	1.067190	0.296186
Cl150	Cl	0.230858	1.567190	0.796186
Cl151	Cl	-0.074607	1.264563	-0.381515
Cl152	Cl	0.425393	1.764563	0.118485
Cl153	Cl	-0.269167	1.067096	-0.296316
Cl154	Cl	0.230833	1.567096	0.203684
Cl155	Cl	0.314763	0.788281	-0.000031
Cl156	Cl	0.814763	1.288281	0.499969
Cl157	Cl	-0.128100	1.069864	0.205241
Cl158	Cl	0.371900	1.569864	0.705241
H159	H	-0.460590	1.063539	0.255898
H160	H	0.039410	1.563539	0.755898
H161	H	0.235732	0.954011	-0.247280
H162	H	0.735732	1.454011	0.252720
Cl163	Cl	0.324021	0.865701	-0.618619
Cl164	Cl	0.824021	1.365701	-0.118619
Cl165	Cl	-0.128106	1.069802	-0.205350
Cl166	Cl	0.371894	1.569802	0.294650
Cl167	Cl	-0.074592	1.264582	-0.618559
Cl168	Cl	0.425408	1.764582	-0.118559
Cl169	Cl	-0.013401	1.203362	-0.776101
Cl170	Cl	0.486599	1.703362	-0.276101
Cl171	Cl	0.262827	0.926941	-0.776144
Cl172	Cl	0.762827	1.426941	-0.276144
