data_functionalizedCrystal
_audit_creation_method	'MofGen! by Chris Wilmer'
_symmetry_space_group_name_H-M	'P1'
_symmetry_Int_Tables_number	1
_symmetry_cell_setting	triclinic
loop_
_symmetry_equiv_pos_as_xyz
  x,y,z
_cell_length_a	13.897449
_cell_length_b	12.827892
_cell_length_c	13.897449
_cell_angle_alpha	90.007969
_cell_angle_beta	90.005980
_cell_angle_gamma	90.016671
loop_
_atom_site_label
_atom_site_type_symbol
_atom_site_fract_x
_atom_site_fract_y
_atom_site_fract_z
Zn1	Zn	1.474578	-0.416174	0.545396
Zn2	Zn	1.974578	0.083826	1.045396
Zn3	Zn	1.474520	-0.590884	0.384104
Zn4	Zn	1.974520	-0.090884	0.884104
Zn5	Zn	1.313308	-0.416161	0.384115
Zn6	Zn	1.813308	0.083839	0.884115
Zn7	Zn	1.313255	-0.590877	0.545357
Zn8	Zn	1.813255	-0.090877	1.045357
O9	O	1.393915	-0.503524	0.464743
O10	O	1.893915	-0.003524	0.964743
O11	O	1.609551	-0.439357	0.524013
O12	O	2.109551	0.060643	1.024013
O13	O	1.453133	-0.567704	0.249124
O14	O	1.953133	-0.067704	0.749124
O15	O	1.334748	-0.269927	0.405530
O16	O	1.834748	0.230073	0.905530
O17	O	1.609509	-0.567716	0.405512
O18	O	2.109509	-0.067716	0.905512
O19	O	1.453231	-0.269936	0.524023
O20	O	1.953231	0.230064	1.024023
O21	O	1.334691	-0.439336	0.249132
O22	O	1.834691	0.060664	0.749132
O23	O	1.178320	-0.439330	0.405492
O24	O	1.678320	0.060670	0.905492
O25	O	1.334657	-0.567705	0.680344
O26	O	1.834657	-0.067705	1.180344
O27	O	1.178280	-0.567693	0.523955
O28	O	1.678280	-0.067693	1.023955
O29	O	1.453180	-0.439351	0.680373
O30	O	1.953180	0.060649	1.180373
O31	O	1.453081	-0.737119	0.405474
O32	O	1.953081	-0.237119	0.905474
O33	O	1.334600	-0.737114	0.523945
O34	O	1.834600	-0.237114	1.023945
C35	C	1.143301	-0.503510	0.464721
C36	C	1.643301	-0.003510	0.964721
C37	C	1.036087	-0.503529	0.464734
C38	C	1.536087	-0.003529	0.964734
C39	C	1.393855	-0.775034	0.464725
C40	C	1.893855	-0.275034	0.964725
C41	C	1.393917	-0.891187	0.464750
C42	C	1.893917	-0.391187	0.964750
C43	C	1.335435	-1.063095	0.406112
C44	C	1.835435	-0.563095	0.906112
C45	C	1.335370	-0.943045	0.406085
C46	C	1.835370	-0.443045	0.906085
C47	C	0.839792	-0.503533	0.464760
C48	C	1.339792	-0.003533	0.964760
C49	C	0.949024	-0.503528	0.464743
C50	C	1.449024	-0.003528	0.964743
C51	C	1.645508	-0.503539	0.464766
C52	C	2.145508	-0.003539	0.964766
C53	C	1.752722	-0.503545	0.464775
C54	C	2.252722	-0.003545	0.964775
C55	C	1.393919	-0.503528	0.716336
C56	C	1.893919	-0.003528	1.216336
C57	C	1.393920	-0.503530	0.823550
C58	C	1.893920	-0.003530	1.323550
C59	C	1.394002	-0.230954	0.464782
C60	C	1.894002	0.269046	0.964782
C61	C	1.394039	-0.114801	0.464799
C62	C	1.894039	0.385199	0.964799
C63	C	1.393896	-0.503535	1.019845
C64	C	1.893896	-0.003535	1.519845
C65	C	1.393906	-0.503535	0.910612
C66	C	1.893906	-0.003535	1.410612
C67	C	1.393902	-0.503541	1.214129
C68	C	1.893902	-0.003541	1.714129
C69	C	1.393895	-0.503533	1.106915
C70	C	1.893895	-0.003533	1.606915
H71	H	1.285308	-1.107704	0.355891
H72	H	1.785308	-0.607704	0.855891
H73	H	1.285200	-0.898580	0.355837
H74	H	1.785200	-0.398580	0.855837
H75	H	1.444096	-0.935647	0.514993
H76	H	1.944096	-0.435647	1.014993
O77	O	1.453704	-1.061477	0.524766
O78	O	1.953704	-0.561477	1.024766
C79	C	1.466399	-0.938101	0.654918
C80	C	1.966399	-0.438101	1.154918
C81	C	1.398719	-0.998404	0.587048
C82	C	1.898719	-0.498404	1.087048
H83	H	1.421970	-0.887109	0.705303
H84	H	1.921970	-0.387109	1.205303
H85	H	1.516784	-0.886898	0.610678
H86	H	2.016784	-0.386898	1.110678
H87	H	1.510556	-0.995722	0.699065
H88	H	2.010556	-0.495722	1.199065
H89	H	1.354499	-0.940859	0.542887
H90	H	1.854499	-0.440859	1.042887
H91	H	1.348397	-1.049623	0.631344
H92	H	1.848397	-0.549623	1.131344
