data_functionalizedCrystal
_audit_creation_method	'MofGen! by Chris Wilmer'
_symmetry_space_group_name_H-M	'P1'
_symmetry_Int_Tables_number	1
_symmetry_cell_setting	triclinic
loop_
_symmetry_equiv_pos_as_xyz
  x,y,z
_cell_length_a	14.971486
_cell_length_b	14.971486
_cell_length_c	14.048226
_cell_angle_alpha	89.993360
_cell_angle_beta	89.998499
_cell_angle_gamma	83.614129
loop_
_atom_site_label
_atom_site_type_symbol
_atom_site_fract_x
_atom_site_fract_y
_atom_site_fract_z
O1	O	1.186947	0.116565	-0.079052
O2	O	1.686947	0.616565	0.420948
O3	O	0.926547	0.130523	-0.079078
O4	O	1.426547	0.630523	0.420922
O5	O	1.063726	-0.006656	-0.079057
O6	O	1.563726	0.493344	0.420943
O7	O	1.049768	0.253744	-0.079072
O8	O	1.549768	0.753744	0.420928
O9	O	1.063710	-0.006664	0.079264
O10	O	1.563710	0.493336	0.579264
O11	O	0.926530	0.130515	0.079244
O12	O	1.426530	0.630515	0.579244
O13	O	1.186930	0.116556	0.079270
O14	O	1.686930	0.616556	0.579270
Zn15	Zn	1.056728	0.123535	0.104394
Zn16	Zn	1.556728	0.623535	0.604394
Zn17	Zn	1.056750	0.123545	-0.104202
Zn18	Zn	1.556750	0.623545	0.395798
O19	O	1.049751	0.253736	0.079249
O20	O	1.549751	0.753736	0.579249
C21	C	0.893214	0.129895	0.000080
C22	C	1.393214	0.629895	0.500080
C23	C	0.793917	0.128024	0.000070
C24	C	1.293917	0.628024	0.500070
C25	C	0.736692	0.208614	0.000067
C26	C	1.236692	0.708614	0.500067
C27	C	0.643392	0.206850	0.000081
C28	C	1.143392	0.706850	0.500081
C29	C	0.607320	0.124497	0.000092
C30	C	1.107320	0.624497	0.500092
C31	C	0.664552	0.043902	0.000098
C32	C	1.164552	0.543902	0.500098
C33	C	0.757850	0.045666	0.000090
C34	C	1.257850	0.545666	0.500090
C35	C	0.470090	0.040231	0.000111
C36	C	0.970090	0.540231	0.500111
C37	C	0.376786	0.038466	0.000117
C38	C	0.876786	0.538466	0.500117
C39	C	0.355632	0.201415	0.000102
C40	C	0.855632	0.701415	0.500102
C41	C	0.448930	0.203179	0.000094
C42	C	0.948930	0.703179	0.500094
C43	C	0.506156	0.122584	0.000099
C44	C	1.006156	0.622584	0.500099
C45	C	1.063094	-0.039985	0.000103
C46	C	1.563094	0.460015	0.500103
C47	C	1.061223	-0.139282	0.000102
C48	C	1.561223	0.360718	0.500102
C49	C	1.141812	-0.196507	0.000111
C50	C	1.641812	0.303493	0.500111
C51	C	1.140049	-0.289807	0.000101
C52	C	1.640049	0.210193	0.500101
C53	C	1.057696	-0.325879	0.000089
C54	C	1.557696	0.174121	0.500089
C55	C	0.977101	-0.268646	0.000078
C56	C	1.477101	0.231354	0.500078
C57	C	0.978865	-0.175349	0.000081
C58	C	1.478865	0.324651	0.500081
C59	C	0.973430	-0.463109	0.000074
C60	C	1.473430	0.036891	0.500074
C61	C	0.971665	-0.556413	0.000073
C62	C	1.471665	-0.056413	0.500073
C63	C	1.134614	-0.577567	0.000094
C64	C	1.634614	-0.077567	0.500094
C65	C	1.136378	-0.484269	0.000097
C66	C	1.636378	0.015731	0.500097
C67	C	1.055782	-0.427043	0.000088
C68	C	1.555782	0.072957	0.500088
C69	C	1.220263	0.117185	0.000110
C70	C	1.720263	0.617185	0.500110
C71	C	1.319561	0.119056	0.000114
C72	C	1.819561	0.619056	0.500114
C73	C	1.050384	0.287065	0.000087
C74	C	1.550384	0.787065	0.500087
C75	C	1.052254	0.386362	0.000082
C76	C	1.552254	0.886362	0.500082
N77	N	1.056719	0.123527	0.246754
N78	N	1.556719	0.623527	0.746754
N79	N	1.056765	0.123546	-0.246562
N80	N	1.556765	0.623546	0.253438
C81	C	1.117482	0.062809	0.296581
C82	C	1.617482	0.562809	0.796581
C83	C	1.117488	0.062808	0.396239
C84	C	1.617488	0.562808	0.896239
C85	C	1.056735	0.123531	0.446068
C86	C	1.556735	0.623531	0.946068
C87	C	0.995966	0.184252	0.396234
C88	C	1.495966	0.684252	0.896234
C89	C	0.995957	0.184247	0.296578
C90	C	1.495957	0.684247	0.796578
C91	C	0.995992	0.184258	0.603948
C92	C	1.495992	0.684258	1.103948
C93	C	0.996003	0.184264	0.703611
C94	C	1.496003	0.684264	1.203611
C95	C	1.117523	0.062819	0.703609
C96	C	1.617523	0.562819	1.203609
C97	C	1.117514	0.062815	0.603953
C98	C	1.617514	0.562815	1.103953
C99	C	1.056746	0.123537	0.554126
C100	C	1.556746	0.623537	1.054126
H101	H	0.635175	-0.023152	0.000120
H102	H	1.135175	0.476848	0.500120
C103	C	0.769394	-0.115578	0.000090
C104	C	1.269394	0.384422	0.500090
C105	C	0.820756	-0.042920	0.000085
C106	C	1.320756	0.457080	0.500085
H107	H	0.808231	-0.170268	0.000083
H108	H	1.308231	0.329732	0.500083
H109	H	0.732571	-0.112882	0.055300
H110	H	1.232571	0.387118	0.555300
H111	H	0.732559	-0.112866	-0.055121
H112	H	1.232559	0.387134	0.444879
H113	H	0.857587	-0.045628	0.055300
H114	H	1.357587	0.454372	0.555300
H115	H	0.857595	-0.045618	-0.055130
H116	H	1.357595	0.454382	0.444870
C117	C	0.880599	-0.361292	-0.081320
C118	C	1.380599	0.138708	0.418680
C119	C	0.886577	-0.308298	0.000065
C120	C	1.386577	0.191702	0.500065
H121	H	0.824715	-0.385774	-0.081320
H122	H	1.324715	0.114226	0.418680
H123	H	0.884674	-0.325329	-0.136519
H124	H	1.384674	0.174671	0.363481
H125	H	0.928349	-0.408723	-0.081304
H126	H	1.428349	0.091277	0.418696
H127	H	0.838831	-0.260863	0.000046
H128	H	1.338831	0.239137	0.500046
H129	H	0.882493	-0.344263	0.055279
H130	H	1.382493	0.155737	0.555279
H131	H	1.166987	0.013375	0.563383
H132	H	1.666987	0.513375	1.063383
H133	H	0.309033	0.267039	0.000103
H134	H	0.809033	0.767039	0.500103
H135	H	0.907800	-0.416517	0.000064
H136	H	1.407800	0.083483	0.500064
C137	C	1.302702	-0.226798	0.000115
C138	C	1.802702	0.273202	0.500115
C139	C	1.232339	-0.156862	0.000117
C140	C	1.732339	0.343138	0.500117
H141	H	1.358589	-0.202322	0.000110
H142	H	1.858589	0.297678	0.500110
H143	H	1.298623	-0.262750	0.055322
H144	H	1.798623	0.237250	0.555322
H145	H	1.298618	-0.262742	-0.055099
H146	H	1.798618	0.237258	0.444901
H147	H	1.236419	-0.120921	0.055335
H148	H	1.736419	0.379079	0.555335
H149	H	1.236420	-0.120894	-0.055096
H150	H	1.736420	0.379106	0.444904
H151	H	1.205673	-0.336396	0.000110
H152	H	1.705673	0.163604	0.500110
H153	H	0.946496	0.233690	0.436810
H154	H	1.446496	0.733690	0.936810
H155	H	0.946531	0.233710	0.744176
H156	H	1.446531	0.733710	1.244176
H157	H	0.347419	-0.028593	0.000127
H158	H	0.847419	0.471407	0.500127
C159	C	0.909217	-0.022934	0.000069
C160	C	1.409217	0.477066	0.500069
C161	C	0.890279	-0.112442	0.000071
C162	C	1.390279	0.387558	0.500071
H163	H	0.854525	0.015900	0.000054
H164	H	1.354525	0.515900	0.500054
H165	H	0.942967	-0.012000	0.055281
H166	H	1.442967	0.488000	0.555281
H167	H	0.942991	-0.011997	-0.055139
H168	H	1.442991	0.488003	0.444861
H169	H	0.856510	-0.123381	0.055284
H170	H	1.356510	0.376619	0.555284
H171	H	0.856515	-0.123380	-0.055147
H172	H	1.356515	0.376620	0.444853
H173	H	0.946506	0.233702	0.563382
H174	H	1.446506	0.733702	1.063382
H175	H	0.946477	0.233689	0.256010
H176	H	1.446477	0.733689	0.756010
H177	H	1.200238	-0.624165	0.000099
H178	H	1.700238	-0.124165	0.500099
C179	C	1.237592	-0.057239	0.306600
C180	C	1.737592	0.442761	0.806600
C181	C	1.184262	-0.003942	0.241815
C182	C	1.684262	0.496058	0.741815
H183	H	1.278815	-0.098454	0.272789
H184	H	1.778815	0.401546	0.772789
H185	H	1.269806	-0.019952	0.345455
H186	H	1.769806	0.480048	0.845455
H187	H	1.200321	-0.089469	0.345483
H188	H	1.700321	0.410531	0.845483
H189	H	1.221533	0.028293	0.202936
H190	H	1.721533	0.528293	0.702936
H191	H	1.152046	-0.041235	0.202943
H192	H	1.652046	0.458765	0.702943
C193	C	0.896619	-0.690042	0.000067
C194	C	1.396619	-0.190042	0.500067
C195	C	0.881143	-0.596067	0.000058
C196	C	1.381143	-0.096067	0.500058
H197	H	0.840733	-0.714521	0.000064
H198	H	1.340733	-0.214521	0.500064
H199	H	0.929810	-0.709667	-0.055133
H200	H	1.429810	-0.209667	0.444867
H201	H	0.929799	-0.709670	0.055287
H202	H	1.429799	-0.209670	0.555287
H203	H	0.847969	-0.576439	-0.055167
H204	H	1.347969	-0.076439	0.444833
H205	H	0.847937	-0.576434	0.055263
H206	H	1.347937	-0.076434	0.555263
H207	H	1.167002	0.013377	0.744184
H208	H	1.667002	0.513377	1.244184
H209	H	0.766054	0.275675	0.000057
H210	H	1.266054	0.775675	0.500057
H211	H	1.203437	-0.454903	0.000114
H212	H	1.703437	0.045097	0.500114
H213	H	1.166964	0.013367	0.436808
H214	H	1.666964	0.513367	0.936808
C215	C	0.631854	0.368093	0.000052
C216	C	1.131854	0.868093	0.500052
C217	C	0.580490	0.295437	0.000073
C218	C	1.080490	0.795437	0.500073
H219	H	0.593019	0.422784	0.000043
H220	H	1.093019	0.922784	0.500043
H221	H	0.668686	0.365392	0.055255
H222	H	1.168686	0.865392	0.555255
H223	H	0.668682	0.365383	-0.055166
H224	H	1.168682	0.865383	0.444834
H225	H	0.543667	0.298143	0.055295
H226	H	1.043667	0.798143	0.555295
H227	H	0.543642	0.298139	-0.055135
H228	H	1.043642	0.798139	0.444865
H229	H	0.478296	0.270239	0.000077
H230	H	0.978296	0.770239	0.500077
H231	H	0.516682	-0.025399	0.000116
H232	H	1.016682	0.474601	0.500116
