data_functionalizedCrystal
_audit_creation_method	'MofGen! by Chris Wilmer'
_symmetry_space_group_name_H-M	'P1'
_symmetry_Int_Tables_number	1
_symmetry_cell_setting	triclinic
loop_
_symmetry_equiv_pos_as_xyz
  x,y,z
_cell_length_a	15.297475
_cell_length_b	21.295417
_cell_length_c	15.296720
_cell_angle_alpha	99.639335
_cell_angle_beta	91.617114
_cell_angle_gamma	80.331503
loop_
_atom_site_label
_atom_site_type_symbol
_atom_site_fract_x
_atom_site_fract_y
_atom_site_fract_z
Zn1	Zn	1.253322	-0.489899	-0.726527
Zn2	Zn	1.753322	0.010101	-0.226527
Zn3	Zn	1.278570	-0.580539	-0.580029
Zn4	Zn	1.778570	-0.080539	-0.080029
Zn5	Zn	1.132206	-0.454537	-0.554773
Zn6	Zn	1.632206	0.045463	-0.054773
Zn7	Zn	1.106797	-0.574351	-0.701159
Zn8	Zn	1.606797	-0.074351	-0.201159
O9	O	1.192724	-0.524831	-0.640622
O10	O	1.692724	-0.024831	-0.140622
O11	O	1.379247	-0.519311	-0.728280
O12	O	1.879247	-0.019311	-0.228280
O13	O	1.280354	-0.551615	-0.454106
O14	O	1.780354	-0.051615	0.045894
O15	O	1.148339	-0.371152	-0.577603
O16	O	1.648339	0.128848	-0.077603
O17	O	1.397796	-0.585904	-0.620649
O18	O	1.897796	-0.085904	-0.120649
O19	O	1.237323	-0.397133	-0.703790
O20	O	1.737323	0.102867	-0.203790
O21	O	1.172821	-0.459042	-0.435550
O22	O	1.672821	0.040958	0.064450
O23	O	1.006260	-0.453042	-0.553004
O24	O	1.506260	0.046958	-0.053004
O25	O	1.105034	-0.575358	-0.827097
O26	O	1.605034	-0.075358	-0.327097
O27	O	0.987593	-0.541069	-0.660554
O28	O	1.487593	-0.041069	-0.160554
O29	O	1.212686	-0.513312	-0.845734
O30	O	1.712686	-0.013312	-0.345734
O31	O	1.255717	-0.667793	-0.596050
O32	O	1.755717	-0.167793	-0.096050
O33	O	1.129516	-0.663248	-0.685044
O34	O	1.629516	-0.163248	-0.185044
C35	C	0.965144	-0.492547	-0.601286
C36	C	1.465144	0.007453	-0.101286
C37	C	0.867781	-0.478753	-0.584479
C38	C	1.367781	0.021247	-0.084479
C39	C	1.192620	-0.688363	-0.640558
C40	C	1.692620	-0.188363	-0.140558
C41	C	1.192651	-0.758337	-0.640574
C42	C	1.692651	-0.258337	-0.140574
C43	C	0.554611	-0.623425	-0.760748
C44	C	1.054611	-0.123425	-0.260748
C45	C	0.646089	-0.636390	-0.776537
C46	C	1.146089	-0.136390	-0.276537
C47	C	0.701516	-0.596982	-0.728524
C48	C	1.201516	-0.096982	-0.228524
C49	C	0.665457	-0.544607	-0.664719
C50	C	1.165457	-0.044607	-0.164719
C51	C	0.573971	-0.531644	-0.648924
C52	C	1.073971	-0.031644	-0.148924
C53	C	0.720876	-0.505200	-0.616700
C54	C	1.220876	-0.005200	-0.116700
C55	C	0.684816	-0.452825	-0.552895
C56	C	1.184816	0.047175	-0.052895
C57	C	0.593339	-0.439865	-0.537103
C58	C	1.093339	0.060135	-0.037103
C59	C	0.537912	-0.479273	-0.585116
C60	C	1.037912	0.020727	-0.085116
C61	C	0.812362	-0.518163	-0.632495
C62	C	1.312362	-0.018163	-0.132495
C63	C	0.831721	-0.426382	-0.520671
C64	C	1.331721	0.073618	-0.020671
C65	C	0.740243	-0.413417	-0.504882
C66	C	1.240243	0.086583	-0.004882
C67	C	1.238945	-0.804673	-0.706314
C68	C	1.738945	-0.304673	-0.206314
C69	C	1.238973	-0.870423	-0.706341
C70	C	1.738973	-0.370423	-0.206341
C71	C	1.192717	-0.889832	-0.640614
C72	C	1.692717	-0.389832	-0.140614
C73	C	1.146412	-0.843485	-0.574868
C74	C	1.646412	-0.343485	-0.074868
C75	C	1.146379	-0.777737	-0.574848
C76	C	1.646379	-0.277737	-0.074848
N77	N	1.199377	-0.984508	-0.562817
N78	N	1.699377	-0.484508	-0.062817
N79	N	1.199413	-1.046967	-0.562840
N80	N	1.699413	-0.546967	-0.062840
C81	C	1.192812	-1.087925	-0.640671
C82	C	1.692812	-0.587925	-0.140671
N83	N	1.186191	-1.064068	-0.718484
N84	N	1.686191	-0.564068	-0.218484
N85	N	1.186159	-1.001604	-0.718462
N86	N	1.686159	-0.501604	-0.218462
C87	C	1.192747	-0.961123	-0.640629
C88	C	1.692747	-0.461123	-0.140629
C89	C	1.239139	-1.205555	-0.706446
C90	C	1.739139	-0.705555	-0.206446
C91	C	1.239159	-1.271305	-0.706473
C92	C	1.739159	-0.771305	-0.206473
C93	C	1.146605	-1.244366	-0.574993
C94	C	1.646605	-0.744366	-0.074993
C95	C	1.146578	-1.178618	-0.574973
C96	C	1.646578	-0.678618	-0.074973
C97	C	1.192850	-1.159217	-0.640699
C98	C	1.692850	-0.659217	-0.140699
C99	C	1.421192	-0.557242	-0.680112
C100	C	1.921192	-0.057242	-0.180112
C101	C	1.518552	-0.571054	-0.696940
C102	C	2.018552	-0.071054	-0.196940
C103	C	1.153209	-0.547589	-0.869086
C104	C	1.653209	-0.047589	-0.369086
C105	C	1.136371	-0.557287	-0.966444
C106	C	1.636371	-0.057287	-0.466444
C107	C	1.192849	-0.360667	-0.640709
C108	C	1.692849	0.139333	-0.140709
C109	C	1.192902	-0.290710	-0.640746
C110	C	1.692902	0.209290	-0.140746
C111	C	1.313105	-0.455413	-1.279696
C112	C	1.813105	0.044587	-0.779696
C113	C	1.328932	-0.446303	-1.188224
C114	C	1.828932	0.053697	-0.688224
C115	C	1.280793	-0.474048	-1.132775
C116	C	1.780793	0.025952	-0.632775
C117	C	1.216825	-0.510905	-1.168805
C118	C	1.716825	-0.010905	-0.668805
C119	C	1.201002	-0.520020	-1.260287
C120	C	1.701002	-0.020020	-0.760287
C121	C	1.168689	-0.538655	-1.113366
C122	C	1.668689	-0.038655	-0.613366
C123	C	1.104721	-0.575512	-1.149396
C124	C	1.604721	-0.075512	-0.649396
C125	C	1.088901	-0.584625	-1.240869
C126	C	1.588901	-0.084625	-0.740869
C127	C	1.137040	-0.556880	-1.296318
C128	C	1.637040	-0.056880	-0.796318
C129	C	1.184512	-0.529540	-1.021884
C130	C	1.684512	-0.029540	-0.521884
C131	C	1.072409	-0.594147	-1.002475
C132	C	1.572409	-0.094147	-0.502475
C133	C	1.056583	-0.603257	-1.093947
C134	C	1.556583	-0.103257	-0.593947
C135	C	1.232135	-0.502124	-0.413055
C136	C	1.732135	-0.002124	0.086945
C137	C	1.249143	-0.492273	-0.315727
C138	C	1.749143	0.007727	0.184273
H139	H	0.841712	-0.560807	-0.684446
H140	H	1.341712	-0.060807	-0.184446
H141	H	1.276857	-1.309033	-0.760011
H142	H	1.776857	-0.809033	-0.260011
H143	H	0.509476	-0.655509	-0.799828
H144	H	1.009476	-0.155509	-0.299828
H145	H	0.675443	-0.679034	-0.828485
H146	H	1.175443	-0.179034	-0.328485
H147	H	1.108748	-0.859292	-0.521354
H148	H	1.608748	-0.359292	-0.021354
H149	H	1.293682	-0.466628	-1.058295
H150	H	1.793682	0.033372	-0.558295
H151	H	1.108936	-1.260168	-0.521481
H152	H	1.608936	-0.760168	-0.021481
C153	C	0.986226	-0.643802	-1.133584
C154	C	1.486226	-0.143802	-0.633584
H155	H	0.959815	-0.659019	-1.087464
H156	H	1.459815	-0.159019	-0.587464
H157	H	1.013539	-0.679532	-1.175047
H158	H	1.513539	-0.179532	-0.675047
H159	H	0.941906	-0.617859	-1.162683
H160	H	1.441906	-0.117859	-0.662683
C161	C	0.437287	-0.465022	-0.567735
C162	C	0.937287	0.034978	-0.067735
H163	H	0.409446	-0.495997	-0.605464
H164	H	0.909446	0.004003	-0.105464
H165	H	0.413967	-0.423007	-0.579410
H166	H	0.913967	0.076993	-0.079410
H167	H	0.426369	-0.467285	-0.507604
H168	H	0.926369	0.032715	-0.007604
C169	C	0.553675	-0.382257	-0.466917
C170	C	1.053675	0.117743	0.033083
H171	H	0.599784	-0.360639	-0.440589
H172	H	1.099784	0.139361	0.059411
H173	H	0.524578	-0.397424	-0.422525
H174	H	1.024578	0.102576	0.077475
H175	H	0.512203	-0.353157	-0.494344
H176	H	1.012203	0.146843	0.005656
C177	C	1.254866	-0.488998	-0.982255
C178	C	1.754866	0.011002	-0.482255
H179	H	1.257403	-0.487545	-0.919835
H180	H	1.757403	0.012455	-0.419835
H181	H	1.239489	-0.446385	-0.995058
H182	H	1.739489	0.053615	-0.495058
H183	H	1.311121	-0.508059	-1.007416
H184	H	1.811121	-0.008059	-0.507416
C185	C	1.366047	-0.424896	-1.340688
C186	C	1.866047	0.075104	-0.840688
H187	H	1.347457	-0.435601	-1.400326
H188	H	1.847457	0.064399	-0.900326
H189	H	1.427487	-0.440961	-1.335867
H190	H	1.927487	0.059039	-0.835867
H191	H	1.355846	-0.379292	-1.323506
H192	H	1.855846	0.120708	-0.823506
H193	H	0.776001	-0.607540	-0.741383
H194	H	1.276001	-0.107540	-0.241383
C195	C	1.289909	-0.921402	-0.778651
C196	C	1.789909	-0.421402	-0.278651
H197	H	1.317467	-0.900431	-0.817787
H198	H	1.817467	-0.400431	-0.317787
H199	H	1.249797	-0.946109	-0.811003
H200	H	1.749797	-0.446109	-0.311003
H201	H	1.333905	-0.949110	-0.751766
H202	H	1.833905	-0.449110	-0.251766
C203	C	0.700576	-0.355810	-0.434697
C204	C	1.200576	0.144190	0.065303
H205	H	0.746681	-0.334191	-0.408366
H206	H	1.246681	0.165809	0.091634
H207	H	0.671476	-0.370978	-0.390308
H208	H	1.171476	0.129022	0.109692
H209	H	0.659105	-0.326712	-0.462128
H210	H	1.159105	0.173288	0.037872
H211	H	1.033212	-0.616741	-0.957328
H212	H	1.533212	-0.116741	-0.457328
C213	C	1.399287	-0.405762	-1.148595
C214	C	1.899287	0.094238	-0.648595
H215	H	1.425686	-0.390539	-1.194717
H216	H	1.925686	0.109461	-0.694717
H217	H	1.443605	-0.431698	-1.119494
H218	H	1.943605	0.068302	-0.619494
H219	H	1.371970	-0.370026	-1.107134
H220	H	1.871970	0.129974	-0.607134
H221	H	0.876851	-0.394293	-0.481574
H222	H	1.376851	0.105707	0.018426
C223	C	1.018542	-0.625169	-1.280502
C224	C	1.518542	-0.125169	-0.780502
H225	H	0.992132	-0.640383	-1.234379
H226	H	1.492132	-0.140383	-0.734379
H227	H	1.045852	-0.660901	-1.321964
H228	H	1.545852	-0.160901	-0.821964
H229	H	0.974222	-0.599227	-1.309601
H230	H	1.474222	-0.099227	-0.809601
C231	C	1.095459	-0.726765	-0.502526
C232	C	1.595459	-0.226765	-0.002526
H233	H	1.067916	-0.747738	-0.463381
H234	H	1.567916	-0.247738	0.036619
H235	H	1.051467	-0.699046	-0.529390
H236	H	1.551467	-0.199046	-0.029390
H237	H	1.135590	-0.702068	-0.470175
H238	H	1.635590	-0.202068	0.029825
C239	C	1.289842	-0.783335	-0.778610
C240	C	1.789842	-0.283335	-0.278610
H241	H	1.317414	-0.820353	-0.817769
H242	H	1.817414	-0.320353	-0.317769
H243	H	1.333808	-0.759754	-0.751724
H244	H	1.833808	-0.259754	-0.251724
H245	H	1.249694	-0.756741	-0.810951
H246	H	1.749694	-0.256741	-0.310951
H247	H	1.276813	-1.189759	-0.759966
H248	H	1.776813	-0.689759	-0.259966
C249	C	1.119633	-0.566905	-1.396939
C250	C	1.619633	-0.066905	-0.896939
H251	H	1.074643	-0.592829	-1.410458
H252	H	1.574643	-0.092829	-0.910458
H253	H	1.172570	-0.587868	-1.427397
H254	H	1.672570	-0.087868	-0.927397
H255	H	1.100931	-0.526198	-1.415034
H256	H	1.600931	-0.026198	-0.915034
C257	C	1.095665	-1.127646	-0.502649
C258	C	1.595665	-0.627646	-0.002649
H259	H	1.068126	-1.148620	-0.463502
H260	H	1.568126	-0.648620	0.036498
H261	H	1.051671	-1.099928	-0.529511
H262	H	1.551671	-0.599928	-0.029511
H263	H	1.135796	-1.102948	-0.470300
H264	H	1.635796	-0.602948	0.029700
