data_functionalizedCrystal
_audit_creation_method	'MofGen! by Chris Wilmer'
_symmetry_space_group_name_H-M	'P1'
_symmetry_Int_Tables_number	1
_symmetry_cell_setting	triclinic
loop_
_symmetry_equiv_pos_as_xyz
  x,y,z
_cell_length_a	17.640112
_cell_length_b	12.759399
_cell_length_c	12.759393
_cell_angle_alpha	89.969730
_cell_angle_beta	78.825572
_cell_angle_gamma	78.760271
loop_
_atom_site_label
_atom_site_type_symbol
_atom_site_fract_x
_atom_site_fract_y
_atom_site_fract_z
Zn1	Zn	1.208350	0.093199	0.269865
Zn2	Zn	1.208269	0.268935	0.094206
Zn3	Zn	1.076176	0.128801	0.129657
Zn4	Zn	1.076167	0.304391	0.305280
O5	O	1.142241	0.198832	0.199752
O6	O	1.318940	0.086773	0.216905
O7	O	1.190715	0.250407	-0.048104
O8	O	1.093747	-0.022953	0.148271
O9	O	1.318880	0.215885	0.087849
O10	O	1.190855	-0.049109	0.251281
O11	O	1.093667	0.147451	-0.022058
O12	O	0.965574	0.181832	0.182612
O13	O	1.093733	0.276316	0.447595
O14	O	0.965568	0.310837	0.311642
O15	O	1.190847	0.121154	0.421576
O16	O	1.190708	0.420669	0.122190
O17	O	1.093653	0.446719	0.277266
C18	C	1.142192	0.471812	0.199741
C19	C	1.142244	0.588575	0.199752
C20	C	0.936894	0.254046	0.254818
C21	C	0.849045	0.277692	0.278400
C22	C	1.142298	0.198718	0.473770
C23	C	1.142322	0.198670	0.590540
C24	C	0.560029	0.019176	0.020609
C25	C	0.477482	0.041416	0.042783
C26	C	0.477530	0.175935	0.176909
C27	C	0.560079	0.153702	0.154751
C28	C	0.601322	0.075322	0.076599
C29	C	0.601372	0.209848	0.210741
C30	C	0.683913	0.187621	0.188580
C31	C	0.725162	0.109247	0.110429
C32	C	0.683863	0.053095	0.054438
C33	C	0.560127	0.288233	0.288887
C34	C	0.601420	0.344379	0.344877
C35	C	0.683963	0.322147	0.322722
C36	C	0.725211	0.243773	0.244571
C37	C	0.725261	0.378299	0.378713
C38	C	0.807802	0.356072	0.356552
C39	C	0.807753	0.221546	0.222410
C40	C	1.348389	0.143403	0.144472
C41	C	1.436238	0.119782	0.120915
C42	C	1.142311	-0.075221	0.199780
C43	C	1.142341	-0.192005	0.199792
C44	C	1.192837	0.629822	0.119065
C45	C	1.192888	0.739533	0.119087
C46	C	1.091745	0.766740	0.280487
C47	C	1.091698	0.657031	0.280469
C48	C	1.142229	0.198856	-0.073212
C49	C	1.142357	0.198568	-0.190023
C50	C	1.192876	0.252196	0.741570
C51	C	1.192857	0.252250	0.631851
C52	C	1.091798	0.145041	0.658957
C53	C	1.091814	0.144993	0.768675
H54	H	0.841335	0.157705	0.158787
H55	H	0.717446	-0.010745	-0.009185
H56	H	0.691669	0.442123	0.442336
H57	H	0.443865	-0.004318	-0.002809
C58	C	0.469329	0.312681	0.313263
N59	N	0.400939	0.331093	0.331623
H60	H	1.050648	0.101420	0.625314
C61	C	0.556043	0.430593	0.430843
N62	N	0.521866	0.495527	0.495598
H63	H	1.233995	0.295920	0.576157
C64	C	0.853227	0.417831	0.418148
N65	N	0.887441	0.464351	0.464543
C66	C	1.036239	0.085990	0.843927
N67	N	0.994382	0.041552	0.900607
C68	C	1.036055	0.611652	0.369253
N69	N	0.994152	0.577471	0.436129
H70	H	0.792372	0.091153	0.092385
H71	H	1.234031	0.295821	0.775195
C72	C	1.248443	0.554523	0.030279
N73	N	1.290329	0.497810	-0.036595
H74	H	0.443939	0.239754	0.240538
C75	C	0.605401	-0.067050	-0.065358
N76	N	0.639575	-0.131991	-0.130108
C77	C	1.248542	0.784899	0.030321
N78	N	1.290463	0.819069	-0.036542
C79	C	1.036139	0.842054	0.369261
N80	N	0.994252	0.898780	0.436124
