data_functionalizedCrystal
_audit_creation_method	'MofGen! by Chris Wilmer'
_symmetry_space_group_name_H-M	'P1'
_symmetry_Int_Tables_number	1
_symmetry_cell_setting	triclinic
loop_
_symmetry_equiv_pos_as_xyz
  x,y,z
_cell_length_a	10.489716
_cell_length_b	9.565339
_cell_length_c	10.654551
_cell_angle_alpha	89.999089
_cell_angle_beta	84.507282
_cell_angle_gamma	89.996907
loop_
_atom_site_label
_atom_site_type_symbol
_atom_site_fract_x
_atom_site_fract_y
_atom_site_fract_z
O1	O	1.693974	0.116243	0.177039
O2	O	1.322767	0.116248	0.193704
O3	O	1.516904	0.116242	0.002636
O4	O	1.499837	0.116248	0.368108
O5	O	1.516913	-0.116278	0.002641
O6	O	1.322775	-0.116273	0.193709
O7	O	1.693983	-0.116277	0.177045
Zn8	Zn	1.508380	-0.153193	0.185378
Zn9	Zn	1.508369	0.153163	0.185371
O10	O	1.499845	-0.116272	0.368113
C11	C	1.275239	-0.000012	0.192455
C12	C	1.133610	-0.000010	0.188709
C13	C	1.035880	-0.000005	0.305877
C14	C	0.958568	-0.114657	0.243966
C15	C	0.958566	0.114590	0.243932
C16	C	1.058164	-0.114757	0.126846
C17	C	1.058167	0.114593	0.126830
C18	C	0.980904	-0.000087	0.064832
N19	N	1.508398	-0.362272	0.185383
C20	C	1.598209	-0.453440	0.097026
C21	C	1.482724	-0.546609	0.071599
C22	C	1.623836	-0.546658	0.210727
C23	C	1.392854	-0.453389	0.159900
C24	C	1.534043	-0.453430	0.299077
C25	C	1.418475	-0.546557	0.273698
C26	C	1.741510	-0.000015	0.178294
C27	C	1.883139	-0.000008	0.182040
C28	C	1.515655	-0.000016	-0.044160
C29	C	1.511905	-0.000009	-0.183604
N30	N	1.508362	0.362242	0.185356
C31	C	1.510140	0.126739	-0.249112
C32	C	1.506605	0.126740	-0.380134
C33	C	1.506606	-0.126766	-0.380129
C34	C	1.510131	-0.126766	-0.249109
C35	C	1.501094	-0.000011	0.414909
C36	C	1.504845	-0.000008	0.554353
H37	H	1.060501	-0.000110	0.407797
Br38	Br	1.130395	-0.276474	0.044457
H39	H	1.511561	-0.229986	-0.195770
H40	H	0.915066	-0.211583	0.293430
Br41	Br	0.940252	-0.000196	-0.105159
H42	H	1.101683	0.211524	0.077403
Br43	Br	0.886042	0.276121	0.326404
H44	H	1.505165	-0.229967	-0.433480
Br45	Br	1.291730	-0.614277	0.398230
H46	H	1.674086	-0.412553	0.022266
H47	H	1.461008	-0.587540	-0.024560
H48	H	1.295191	-0.412593	0.138343
Br49	Br	1.570297	-0.385149	0.459301
H50	H	1.721476	-0.587627	0.232175
H51	H	1.511580	0.229952	-0.195782
H52	H	1.505166	0.229951	-0.433464
