data_functionalizedCrystal
_audit_creation_method	'MofGen! by Chris Wilmer'
_symmetry_space_group_name_H-M	'P1'
_symmetry_Int_Tables_number	1
_symmetry_cell_setting	triclinic
loop_
_symmetry_equiv_pos_as_xyz
  x,y,z
_cell_length_a	16.109301
_cell_length_b	14.421503
_cell_length_c	15.944551
_cell_angle_alpha	90.003340
_cell_angle_beta	96.519891
_cell_angle_gamma	90.004909
loop_
_atom_site_label
_atom_site_type_symbol
_atom_site_fract_x
_atom_site_fract_y
_atom_site_fract_z
O1	O	1.103172	0.077055	-0.107956
O2	O	1.603172	0.577055	0.392044
O3	O	0.861114	0.077070	-0.121392
O4	O	1.361114	0.577070	0.378608
O5	O	0.988753	0.077054	0.007603
O6	O	1.488753	0.577054	0.507603
O7	O	0.975533	0.077071	-0.236951
O8	O	1.475533	0.577071	0.263049
O9	O	0.988732	-0.077170	0.007584
O10	O	1.488732	0.422830	0.507584
O11	O	0.861093	-0.077153	-0.121411
O12	O	1.361093	0.422847	0.378589
O13	O	1.103151	-0.077168	-0.107975
O14	O	1.603151	0.422832	0.392025
Cu15	Cu	0.982120	-0.091243	-0.114695
Cu16	Cu	1.482120	0.408757	0.385305
Cu17	Cu	0.982145	0.091144	-0.114672
Cu18	Cu	1.482145	0.591144	0.385328
O19	O	0.975512	-0.077152	-0.236970
O20	O	1.475512	0.422848	0.263030
C21	C	0.830129	-0.000040	-0.120857
C22	C	1.330129	0.499960	0.379143
C23	C	0.737833	-0.000034	-0.119226
C24	C	1.237833	0.499966	0.380774
N25	N	0.982108	-0.219524	-0.114710
N26	N	1.482108	0.280476	0.385290
C27	C	0.515584	-0.000040	-0.191975
C28	C	1.015584	0.499960	0.308025
C29	C	0.428863	-0.000046	-0.190435
C30	C	0.928863	0.499954	0.309565
C31	C	0.448688	-0.000053	-0.037387
C32	C	0.948688	0.499947	0.462613
C33	C	0.535407	-0.000054	-0.038927
C34	C	1.035407	0.499946	0.461073
C35	C	0.568853	-0.000042	-0.116224
C36	C	1.068853	0.499958	0.383776
C37	C	0.395412	-0.000048	-0.113143
C38	C	0.895412	0.499952	0.386857
C39	C	0.301386	-0.000054	-0.111473
C40	C	0.801386	0.499946	0.388527
C41	C	0.662885	-0.000038	-0.117894
C42	C	1.162885	0.499962	0.382106
C43	C	0.923078	-0.469170	-0.174331
C44	C	1.423078	0.030830	0.325669
C45	C	0.998204	-0.530976	-0.190613
C46	C	1.498204	-0.030976	0.309387
C47	C	0.982129	-0.408685	-0.114690
C48	C	1.482129	0.091315	0.385310
C49	C	0.907021	-0.530973	-0.098427
C50	C	1.407021	-0.030973	0.401573
C51	C	0.982142	-0.591407	-0.114673
C52	C	1.482142	-0.091407	0.385327
C53	C	1.057293	-0.469131	-0.131010
C54	C	1.557293	0.030869	0.368990
C55	C	0.966061	-0.469122	-0.038792
C56	C	1.466061	0.030878	0.461208
C57	C	1.041242	-0.530900	-0.055042
C58	C	1.541242	-0.030900	0.444958
C59	C	0.982120	-0.303424	-0.114702
C60	C	1.482120	0.196576	0.385298
C61	C	0.982159	-0.696666	-0.114660
C62	C	1.482159	-0.196666	0.385340
C63	C	1.134136	-0.000056	-0.108510
C64	C	1.634136	0.499944	0.391490
C65	C	1.226432	-0.000056	-0.110141
C66	C	1.726432	0.499944	0.389859
C67	C	0.988194	-0.000058	0.038887
C68	C	1.488194	0.499942	0.538887
C69	C	0.986548	-0.000059	0.132133
C70	C	1.486548	0.499941	0.632133
N71	N	0.982163	0.219426	-0.114650
N72	N	1.482163	0.719426	0.385350
C73	C	0.976071	-0.000038	-0.268254
C74	C	1.476071	0.499962	0.231746
C75	C	0.977717	-0.000032	-0.361500
C76	C	1.477717	0.499968	0.138500
C77	C	0.903499	-0.000041	0.346962
C78	C	1.403499	0.499959	0.846962
C79	C	0.942054	-0.076084	0.407983
C80	C	1.442054	0.423916	0.907983
C81	C	0.983572	-0.000051	0.302858
C82	C	1.483572	0.499949	0.802858
C83	C	0.942094	0.075968	0.407985
C84	C	1.442094	0.575968	0.907985
C85	C	0.980691	-0.000040	0.467769
C86	C	1.480691	0.499960	0.967769
C87	C	1.022149	-0.076158	0.362650
C88	C	1.522149	0.423842	0.862650
C89	C	1.022177	0.075963	0.362646
C90	C	1.522177	0.575963	0.862646
C91	C	1.060790	-0.000100	0.423649
C92	C	1.560790	0.499900	0.923649
C93	C	0.985229	-0.000058	0.207856
C94	C	1.485229	0.499942	0.707856
C95	C	0.979039	-0.000040	0.562770
C96	C	1.479039	0.499960	1.062770
H97	H	0.385495	-0.000046	-0.252119
H98	H	0.885495	0.499954	0.247881
C99	C	0.525384	0.079241	-0.322897
C100	C	1.025384	0.579241	0.177103
C101	C	0.552345	-0.000037	-0.276939
C102	C	1.052345	0.499963	0.223061
H103	H	0.548073	0.079236	-0.375354
H104	H	1.048073	0.579236	0.124646
H105	H	0.543679	0.133012	-0.291706
H106	H	1.043679	0.633012	0.208294
H107	H	0.466112	0.079230	-0.332810
H108	H	0.966112	0.579230	0.167190
H109	H	0.611617	-0.000023	-0.267020
H110	H	1.111617	0.499977	0.232980
H111	H	0.534055	-0.053822	-0.308136
H112	H	1.034055	0.446178	0.191864
C113	C	0.803862	-0.535079	-0.000987
C114	C	1.303862	-0.035079	0.499013
C115	C	0.821273	-0.567645	-0.079856
C116	C	1.321273	-0.067645	0.420144
H117	H	0.750926	-0.557723	0.010474
H118	H	1.250926	-0.057723	0.510474
H119	H	0.803088	-0.469225	-0.001380
H120	H	1.303088	0.030775	0.498620
H121	H	0.845761	-0.556220	0.041434
H122	H	1.345761	-0.056220	0.541434
H123	H	0.779378	-0.546499	-0.122278
H124	H	1.279378	-0.046499	0.377722
H125	H	0.822041	-0.633514	-0.079470
H126	H	1.322041	-0.133514	0.420530
C127	C	1.071100	-0.620712	0.071584
C128	C	1.571100	-0.120712	0.571584
C129	C	1.108730	-0.567267	0.013062
C130	C	1.608730	-0.067267	0.513062
H131	H	1.112766	-0.643158	0.113628
H132	H	1.612766	-0.143158	0.613628
H133	H	1.042670	-0.671603	0.043505
H134	H	1.542670	-0.171603	0.543505
H135	H	1.032352	-0.583614	0.097317
H136	H	1.532352	-0.083614	0.597317
H137	H	1.147473	-0.604367	-0.012675
H138	H	1.647473	-0.104367	0.487325
H139	H	1.137173	-0.516370	0.041145
H140	H	1.637173	-0.016370	0.541145
C141	C	1.069569	0.161349	0.247887
C142	C	1.569569	0.661349	0.747887
C143	C	1.067871	0.162745	0.335486
C144	C	1.567871	0.662745	0.835486
H145	H	1.097779	0.214928	0.231119
H146	H	1.597779	0.714928	0.731119
H147	H	1.014011	0.160812	0.220580
H148	H	1.514011	0.660812	0.720580
H149	H	1.098083	0.107365	0.232555
H150	H	1.598083	0.607365	0.732555
H151	H	1.039352	0.216726	0.350817
H152	H	1.539352	0.716726	0.850817
H153	H	1.123440	0.163291	0.362802
H154	H	1.623440	0.663291	0.862802
C155	C	0.893391	-0.377804	-0.300036
C156	C	1.393391	0.122196	0.199964
C157	C	0.855736	-0.432564	-0.242466
C158	C	1.355736	0.067436	0.257534
H159	H	0.851818	-0.355200	-0.342096
H160	H	1.351818	0.144800	0.157904
H161	H	0.932650	-0.414053	-0.325872
H162	H	1.432650	0.085947	0.174128
H163	H	0.921230	-0.327012	-0.271182
H164	H	1.421230	0.172988	0.228818
H165	H	0.827901	-0.483361	-0.271319
H166	H	1.327901	0.016639	0.228681
H167	H	0.816461	-0.396314	-0.216628
H168	H	1.316461	0.103686	0.283372
C169	C	1.160003	-0.464673	-0.228900
C170	C	1.660003	0.035327	0.271100
C171	C	1.143071	-0.432655	-0.149696
C172	C	1.643071	0.067345	0.350304
H173	H	1.212961	-0.442166	-0.240439
H174	H	1.712961	0.057834	0.259561
H175	H	1.118041	-0.443029	-0.271008
H176	H	1.618041	0.056971	0.228992
H177	H	1.160505	-0.530541	-0.228963
H178	H	1.660505	-0.030541	0.271037
H179	H	1.142563	-0.366788	-0.149635
H180	H	1.642563	0.133212	0.350365
H181	H	1.185045	-0.454295	-0.107576
H182	H	1.685045	0.045705	0.392424
H183	H	0.908178	-0.140369	0.428072
H184	H	1.408178	0.359631	0.928072
H185	H	0.421446	-0.000068	0.025546
H186	H	0.921446	0.499932	0.525546
H187	H	0.837035	-0.000112	0.313632
H188	H	1.337035	0.499888	0.813632
C189	C	1.017120	-0.664751	-0.276062
C190	C	1.517120	-0.164751	0.223938
C191	C	1.016565	-0.567667	-0.277247
C192	C	1.516565	-0.067667	0.222753
H193	H	1.028455	-0.687399	-0.329546
H194	H	1.528455	-0.187399	0.170454
H195	H	0.964170	-0.686824	-0.264106
H196	H	1.464170	-0.186824	0.235894
H197	H	1.059125	-0.685870	-0.233738
H198	H	1.559125	-0.185870	0.266262
H199	H	0.974556	-0.546548	-0.319567
H200	H	1.474556	-0.046548	0.180433
H201	H	1.069522	-0.545585	-0.289213
H202	H	1.569522	-0.045585	0.210787
C203	C	1.068904	-0.162285	0.247991
C204	C	1.568904	0.337715	0.747991
C205	C	1.067814	-0.163046	0.335675
C206	C	1.567814	0.336954	0.835675
H207	H	1.097089	-0.215930	0.231338
H208	H	1.597089	0.284070	0.731338
H209	H	1.097164	-0.108363	0.232118
H210	H	1.597164	0.391637	0.732118
H211	H	1.013193	-0.162061	0.221051
H212	H	1.513193	0.337939	0.721051
H213	H	1.123525	-0.163263	0.362616
H214	H	1.623525	0.336737	0.862616
H215	H	1.039555	-0.216983	0.351556
H216	H	1.539555	0.283017	0.851556
H217	H	0.578781	-0.000058	0.022762
H218	H	1.078781	0.499942	0.522762
H219	H	0.952435	-0.441932	0.025366
H220	H	1.452435	0.058068	0.525366
H221	H	1.127313	-0.000147	0.456830
H222	H	1.627313	0.499853	0.956830
H223	H	0.908225	0.140261	0.428059
H224	H	1.408225	0.640261	0.928059
