data_functionalizedCrystal
_audit_creation_method	'MofGen! by Chris Wilmer'
_symmetry_space_group_name_H-M	'P1'
_symmetry_Int_Tables_number	1
_symmetry_cell_setting	triclinic
loop_
_symmetry_equiv_pos_as_xyz
  x,y,z
_cell_length_a	16.992694
_cell_length_b	23.532407
_cell_length_c	15.455313
_cell_angle_alpha	92.643560
_cell_angle_beta	87.142206
_cell_angle_gamma	86.758451
loop_
_atom_site_label
_atom_site_type_symbol
_atom_site_fract_x
_atom_site_fract_y
_atom_site_fract_z
O1	O	1.042902	0.118384	-0.072037
O2	O	0.814628	0.117059	-0.072062
O3	O	0.935648	0.035132	-0.072033
O4	O	0.921882	0.200311	-0.072066
O5	O	0.928727	0.039796	0.072228
O6	O	0.807707	0.121723	0.072198
O7	O	1.035981	0.123049	0.072224
Cu8	Cu	0.921212	0.122812	0.085383
Cu9	Cu	0.929397	0.117296	-0.085222
O10	O	0.914962	0.204976	0.072194
C11	C	0.781968	0.117688	0.000065
C12	C	0.694964	0.112604	0.000056
C13	C	0.644342	0.161650	0.000047
C14	C	0.562592	0.156871	0.000060
C15	C	0.531466	0.103045	0.000076
C16	C	0.582095	0.053995	0.000088
C17	C	0.663843	0.058775	0.000081
C18	C	0.288022	0.083234	0.000103
C19	C	0.206267	0.078457	0.000107
C20	C	0.186770	0.181334	0.000081
C21	C	0.268521	0.186109	0.000069
C22	C	0.319142	0.137059	0.000085
N23	N	0.447905	0.098158	0.000086
N24	N	0.402701	0.141946	0.000081
C25	C	0.931837	0.016231	0.000100
C26	C	0.930782	-0.047038	0.000106
C27	C	0.995791	-0.442917	0.000066
C28	C	0.994812	-0.502366	0.000059
O29	O	1.055075	-0.536121	0.000034
N30	N	0.922865	-0.528562	0.000052
C31	C	0.851893	-0.495307	0.000042
O32	O	0.790607	-0.523048	0.000035
C33	C	0.852873	-0.435859	0.000043
C34	C	0.924824	-0.409666	0.000059
C35	C	1.067736	-0.416723	0.000081
C36	C	1.068714	-0.357278	0.000089
C37	C	0.997748	-0.324027	0.000083
C38	C	0.925803	-0.350221	0.000067
C39	C	0.781902	-0.402605	0.000027
C40	C	0.782889	-0.343154	0.000027
C41	C	0.854839	-0.316960	0.000043
C42	C	0.855814	-0.257525	0.000069
N43	N	0.927761	-0.231328	0.000076
C44	C	0.998728	-0.264579	0.000083
C45	C	0.849841	-0.620151	0.000040
C46	C	0.848860	-0.679598	0.000046
C47	C	0.991779	-0.686653	0.000061
C48	C	0.992759	-0.627205	0.000061
C49	C	0.921788	-0.593955	0.000047
C50	C	1.000777	-0.139740	0.000101
C51	C	1.001749	-0.080289	0.000113
C52	C	0.858831	-0.073240	0.000093
C53	C	0.857858	-0.132685	0.000086
C54	C	0.928838	-0.165934	0.000087
O55	O	0.795583	-0.223733	0.000090
O56	O	1.060004	-0.236831	0.000079
C57	C	1.068641	0.122420	0.000095
C58	C	1.155645	0.127504	0.000098
C59	C	0.918772	0.223877	0.000060
C60	C	0.919827	0.287146	0.000048
N61	N	0.915462	0.126692	0.205377
N62	N	0.935153	0.113412	-0.205216
C63	C	0.966893	0.091901	0.250784
C64	C	0.962551	0.094840	0.341591
C65	C	0.906782	0.132574	0.386989
C66	C	0.855345	0.167366	0.341576
C67	C	0.859684	0.164424	0.250771
C68	C	0.888055	0.145261	0.658566
C69	C	0.883722	0.148203	0.749378
C70	C	0.990928	0.075676	0.749386
C71	C	0.995265	0.072738	0.658579
C72	C	0.943825	0.107529	0.613174
N73	N	0.902344	0.135581	0.479808
N74	N	0.948260	0.104518	0.520356
H75	H	0.145546	0.221267	0.000069
H76	H	0.790269	-0.700919	0.000047
O77	O	0.513461	0.204527	-0.000106
C78	C	0.531093	0.234573	-0.074822
H79	H	0.561763	0.204098	-0.127036
H80	H	0.474110	0.253953	-0.099901
H81	H	0.571662	0.269964	-0.057947
O82	O	0.789852	-0.040997	-0.000034
C83	C	0.749742	-0.055771	-0.074771
H84	H	0.770537	-0.100743	-0.099674
H85	H	0.683529	-0.054027	-0.057987
H86	H	0.762724	-0.024492	-0.127086
O87	O	1.012603	0.061029	0.385564
C88	C	1.062750	0.027089	0.326022
H89	H	1.066534	0.048372	0.261283
H90	H	1.124161	0.022140	0.352249
H91	H	1.038109	-0.016690	0.316389
H92	H	0.723313	-0.423922	0.000009
H93	H	0.180928	0.034624	0.000119
H94	H	1.049564	-0.713737	0.000063
O95	O	1.071575	-0.054753	0.000162
C96	C	1.057230	0.004847	0.000146
H97	H	0.994643	0.016882	0.027454
H98	H	1.101233	0.026533	0.042034
H99	H	1.064214	0.019321	-0.069061
O100	O	1.049460	0.036032	0.614616
C101	C	1.093938	0.005964	0.674166
H102	H	1.058718	0.005941	0.738901
H103	H	1.107507	-0.039801	0.647943
H104	H	1.151556	0.027437	0.683807
O105	O	0.829467	0.184867	0.793345
C106	C	0.785004	0.214951	0.733799
H107	H	0.787399	0.189474	0.669076
H108	H	0.721089	0.221600	0.760045
H109	H	0.810569	0.258103	0.724126
O110	O	0.809837	0.198246	0.206565
C111	C	0.854044	0.233604	0.154034
H112	H	0.916204	0.213308	0.140430
H113	H	0.824309	0.239037	0.090181
H114	H	0.857365	0.277059	0.189011
H115	H	0.792043	-0.593082	0.000036
O116	O	0.838209	0.179090	0.614377
C117	C	0.882420	0.214449	0.561853
H118	H	0.944575	0.194145	0.548238
H119	H	0.852681	0.219893	0.498005
H120	H	0.885754	0.257898	0.596841
H121	H	1.125529	-0.443790	0.000084
H122	H	0.293858	0.229939	0.000046
O123	O	1.062722	-0.601856	0.000030
C124	C	1.125142	-0.643958	0.000060
H125	H	1.104797	-0.686180	-0.027249
H126	H	1.177414	-0.630607	-0.041820
H127	H	1.143691	-0.649133	0.069272
O128	O	0.713973	-0.310835	-0.000138
C129	C	0.713856	-0.278633	-0.074837
H130	H	0.756620	-0.300230	-0.127053
H131	H	0.651870	-0.275647	-0.099927
H132	H	0.732980	-0.233981	-0.057937
H133	H	0.809932	0.198088	0.378545
O134	O	0.551830	0.001716	-0.000050
C135	C	0.508686	-0.006537	-0.074750
H136	H	0.530287	0.022403	-0.126979
H137	H	0.517581	-0.052896	-0.099818
H138	H	0.443303	0.004207	-0.057858
O139	O	0.674619	0.213920	-0.000125
C140	C	0.724908	0.217343	-0.074833
H141	H	0.708304	0.185023	-0.127045
H142	H	0.718407	0.262079	-0.099923
H143	H	0.788676	0.207695	-0.057945
O144	O	1.069796	-0.171947	0.000144
C145	C	1.133499	-0.136070	0.000138
H146	H	1.111926	-0.091781	0.027449
H147	H	1.181186	-0.154359	0.042028
H148	H	1.158897	-0.133059	-0.069066
H149	H	1.032806	0.047350	0.786363
O150	O	1.138637	-0.331871	-0.000057
C151	C	1.185452	-0.350971	-0.074758
H152	H	1.145869	-0.366925	-0.126981
H153	H	1.219724	-0.314291	-0.099835
H154	H	1.228620	-0.387140	-0.057865
O155	O	0.337078	0.035530	0.000077
C156	C	0.292071	-0.013000	0.000112
H157	H	0.232248	-0.002209	-0.027203
H158	H	0.324512	-0.048951	-0.041761
H159	H	0.283060	-0.027084	0.069325
O160	O	0.713129	0.011191	0.000125
C161	C	0.791957	0.026950	0.000096
H162	H	0.793435	0.072692	0.027396
H163	H	0.827250	-0.002728	0.041984
H164	H	0.818929	0.023629	-0.069114
O165	O	1.020949	0.055191	0.206612
C166	C	0.981729	0.016432	0.154150
H167	H	0.920886	0.035869	0.140526
H168	H	1.017564	0.006822	0.090303
H169	H	0.975021	-0.024737	0.189198
H170	H	0.799269	-0.154012	0.000097
