data_functionalizedCrystal
_audit_creation_method	'MofGen! by Chris Wilmer'
_symmetry_space_group_name_H-M	'P1'
_symmetry_Int_Tables_number	1
_symmetry_cell_setting	triclinic
loop_
_symmetry_equiv_pos_as_xyz
  x,y,z
_cell_length_a	35.277628
_cell_length_b	35.288095
_cell_length_c	35.277682
_cell_angle_alpha	59.997929
_cell_angle_beta	89.998958
_cell_angle_gamma	60.000166
loop_
_atom_site_label
_atom_site_type_symbol
_atom_site_fract_x
_atom_site_fract_y
_atom_site_fract_z
O1	O	-0.323087	-0.271234	0.011271
O2	O	-0.267964	-0.193634	-0.011228
O3	O	-0.267962	-0.271233	0.066395
O4	O	-0.323089	-0.193635	-0.066351
O5	O	-0.204915	-0.334261	0.066394
O6	O	-0.204918	-0.256661	-0.011228
O7	O	-0.260040	-0.334261	0.011271
Cu8	Cu	-0.226722	-0.301216	0.000022
Cu9	Cu	-0.301282	-0.226679	0.000022
O10	O	-0.260043	-0.256662	-0.066351
C11	C	-0.163481	-0.071298	-0.023519
C12	C	-0.186872	-0.024531	-0.020298
C13	C	-0.117860	-0.093995	-0.023838
C14	C	-0.163483	-0.139918	-0.023524
C15	C	-0.186875	-0.166518	-0.020308
C16	C	-0.117862	-0.162510	-0.023843
C17	C	-0.094838	-0.139921	-0.023519
C18	C	-0.044836	-0.166525	-0.020298
C19	C	-0.186401	-0.093991	-0.023843
C20	C	-0.004439	-0.188019	-0.017694
C21	C	-0.205769	0.013252	-0.017695
C22	C	-0.205774	-0.188010	-0.017709
C23	C	0.046241	-0.214983	-0.014429
C24	C	-0.229477	0.060653	-0.014430
C25	C	-0.229483	-0.214971	-0.014450
C26	C	-0.500364	-0.466062	0.034181
C27	C	-0.477341	-0.511990	0.034503
C28	C	-0.431722	-0.466060	0.034178
C29	C	-0.408804	-0.511988	0.034500
C30	C	-0.431721	-0.534685	0.034181
C31	C	-0.477342	-0.443470	0.034500
C32	C	-0.665895	-0.342485	0.021756
C33	C	-0.712772	-0.317221	0.018243
C34	C	-0.736287	-0.338907	0.016481
C35	C	-0.787116	-0.311512	0.012664
C36	C	-0.712921	-0.385861	0.018236
C37	C	-0.666047	-0.411125	0.021755
C38	C	-0.642533	-0.389434	0.023515
C39	C	-0.389805	-0.687746	0.021758
C40	C	-0.368199	-0.731097	0.018245
C41	C	-0.322995	-0.752841	0.016478
C42	C	-0.299567	-0.799839	0.012662
C43	C	-0.299393	-0.731235	0.018230
C44	C	-0.320995	-0.687892	0.021751
C45	C	-0.366205	-0.666148	0.023512
C46	C	-0.389808	-0.342477	0.021744
C47	C	-0.368205	-0.317208	0.018222
C48	C	-0.322998	-0.338892	0.016457
C49	C	-0.299573	-0.311495	0.012637
C50	C	-0.299398	-0.385842	0.018210
C51	C	-0.321003	-0.411107	0.021730
C52	C	-0.366208	-0.389423	0.023501
C53	C	-0.591706	-0.416830	0.027326
C54	C	-0.551191	-0.438667	0.030366
C55	C	-0.408299	-0.438663	0.030360
C56	C	-0.389629	-0.416824	0.027317
C57	C	-0.408298	-0.581682	0.030365
C58	C	-0.389627	-0.619146	0.027325
C59	C	-0.432024	-0.061845	-0.438511
C60	C	-0.477645	-0.015917	-0.461431
C61	C	-0.432025	-0.061844	-0.369869
C62	C	-0.477645	-0.015916	-0.392892
C63	C	-0.500668	0.006779	-0.438513
C64	C	-0.409106	-0.084435	-0.392891
C65	C	-0.320834	-0.185425	-0.480424
C66	C	-0.299076	-0.210690	-0.502029
C67	C	-0.322531	-0.189005	-0.547237
C68	C	-0.298945	-0.216401	-0.570661
C69	C	-0.367745	-0.142051	-0.570839
C70	C	-0.389497	-0.116787	-0.549237
C71	C	-0.366040	-0.138476	-0.504027
C72	C	-0.666200	0.159838	-0.549704
C73	C	-0.713077	0.203188	-0.571462
C74	C	-0.736595	0.224934	-0.548009
C75	C	-0.787423	0.271931	-0.571594
C76	C	-0.713230	0.203329	-0.502796
C77	C	-0.666353	0.159987	-0.481041
C78	C	-0.642841	0.138241	-0.504500
C79	C	-0.320836	-0.185423	-0.204335
C80	C	-0.299080	-0.210691	-0.157455
C81	C	-0.322536	-0.189006	-0.133940
C82	C	-0.298950	-0.216402	-0.083110
C83	C	-0.367748	-0.142056	-0.157305
C84	C	-0.389502	-0.116792	-0.204182
C85	C	-0.366040	-0.138478	-0.227695
C86	C	-0.389632	-0.111079	-0.480604
C87	C	-0.408436	-0.089241	-0.461934
C88	C	-0.408437	-0.089240	-0.319041
C89	C	-0.389634	-0.111078	-0.278525
C90	C	-0.551496	0.053776	-0.462102
C91	C	-0.592011	0.091239	-0.480906
O92	O	0.196122	-0.334274	0.011291
O93	O	0.063378	-0.256674	-0.011208
O94	O	0.140994	-0.334276	0.066414
O95	O	0.118506	-0.256671	-0.066331
O96	O	0.140996	-0.271251	0.066419
O97	O	0.063380	-0.193649	-0.011203
O98	O	0.196124	-0.271249	0.011296
Cu99	Cu	0.129752	-0.226694	0.000047
Cu100	Cu	0.129750	-0.301228	0.000041
O101	O	0.118508	-0.193647	-0.066327
O102	O	-0.260036	0.184774	0.011294
O103	O	-0.204910	0.074561	-0.011204
O104	O	-0.204913	0.074554	0.066418
O105	O	-0.260033	0.184781	-0.066328
O106	O	-0.267961	0.074557	0.066413
O107	O	-0.267958	0.074564	-0.011209
O108	O	-0.323083	0.184777	0.011289
Cu109	Cu	-0.301278	0.129670	0.000040
Cu110	Cu	-0.226716	0.129668	0.000045
O111	O	-0.323081	0.184784	-0.066333
O112	O	-0.936929	0.397535	-0.602582
O113	O	-0.804185	0.287317	-0.547454
O114	O	-0.881802	0.287315	-0.547452
O115	O	-0.859312	0.397537	-0.602584
O116	O	-0.881801	0.287314	-0.610498
O117	O	-0.804183	0.287316	-0.610500
O118	O	-0.936927	0.397533	-0.665628
Cu119	Cu	-0.870555	0.342425	-0.643820
Cu120	Cu	-0.870557	0.342426	-0.569261
O121	O	-0.859310	0.397536	-0.665629
O122	O	-0.267961	-0.271234	-0.665316
O123	O	-0.323086	-0.193638	-0.610192
O124	O	-0.323085	-0.271236	-0.610189
O125	O	-0.267962	-0.193636	-0.665319
O126	O	-0.260038	-0.334264	-0.547142
O127	O	-0.260039	-0.256666	-0.547145
O128	O	-0.204914	-0.334262	-0.602269
Cu129	Cu	-0.226720	-0.301219	-0.568950
Cu130	Cu	-0.301280	-0.226681	-0.643511
O131	O	-0.204915	-0.256664	-0.602272
C132	C	-0.094840	-0.456607	0.293255
C133	C	-0.044837	-0.503376	0.316647
C134	C	-0.117862	-0.433912	0.316174
C135	C	-0.163483	-0.387984	0.224612
C136	C	-0.186875	-0.361381	0.174609
C137	C	-0.186401	-0.365393	0.247634
C138	C	-0.163483	-0.387984	0.293255
C139	C	-0.186874	-0.361382	0.316646
C140	C	-0.117862	-0.433912	0.247635
C141	C	-0.205772	-0.339889	0.335543
C142	C	-0.004440	-0.541160	0.335545
C143	C	-0.205773	-0.339888	0.134212
C144	C	-0.229480	-0.312925	0.359250
C145	C	0.046239	-0.588562	0.359254
C146	C	-0.229481	-0.312924	0.083532
C147	C	0.153295	-0.388013	0.293279
C148	C	0.150076	-0.361413	0.316673
C149	C	0.153614	-0.433940	0.316196
C150	C	0.153297	-0.388008	0.224634
C151	C	0.150079	-0.361403	0.174632
C152	C	0.153616	-0.433935	0.247655
C153	C	0.153293	-0.456633	0.293275
C154	C	0.150072	-0.503401	0.316665
C155	C	0.153617	-0.365420	0.247659
C156	C	0.147469	-0.541185	0.335561
C157	C	0.147474	-0.339922	0.335572
C158	C	0.147479	-0.339908	0.134234
C159	C	0.144204	-0.588587	0.359267
C160	C	0.144211	-0.312962	0.359282
C161	C	0.144218	-0.312942	0.083555
C162	C	-0.163482	-0.139963	0.293267
C163	C	-0.186875	-0.166567	0.316654
C164	C	-0.117861	-0.162559	0.316187
C165	C	-0.163482	-0.071333	0.224628
C166	C	-0.186873	-0.024557	0.174627
C167	C	-0.117860	-0.094033	0.247653
C168	C	-0.094838	-0.139967	0.293272
C169	C	-0.044835	-0.166574	0.316665
C170	C	-0.186401	-0.094030	0.247648
C171	C	-0.004438	-0.188070	0.335563
C172	C	-0.205773	-0.188061	0.335549
C173	C	-0.205771	0.013233	0.134231
C174	C	0.046242	-0.215038	0.359273
C175	C	-0.229482	-0.215026	0.359253
C176	C	-0.229479	0.060643	0.083553
C177	C	0.095627	0.006487	-0.438489
C178	C	0.095306	-0.016206	-0.461409
C179	C	0.095623	-0.062137	-0.369847
C180	C	0.095303	-0.084726	-0.392871
C181	C	0.095625	-0.062133	-0.438492
C182	C	0.095305	-0.016210	-0.392868
C183	C	0.108059	0.159543	-0.480399
C184	C	0.111575	0.202893	-0.502003
C185	C	0.113340	0.224640	-0.547210
C186	C	0.117161	0.271637	-0.570634
C187	C	0.111587	0.203038	-0.570814
C188	C	0.108065	0.159695	-0.549212
C189	C	0.106302	0.137948	-0.504002
C190	C	0.108054	-0.116452	-0.549685
C191	C	0.111568	-0.141562	-0.571444
C192	C	0.113332	-0.188519	-0.547992
C193	C	0.117148	-0.215753	-0.571578
C194	C	0.111577	-0.210363	-0.502779
C195	C	0.108055	-0.185249	-0.481023
C196	C	0.106297	-0.138292	-0.504481
C197	C	0.108046	-0.116473	-0.204312
C198	C	0.111564	-0.141591	-0.157432
C199	C	0.113326	-0.188548	-0.133918
C200	C	0.117142	-0.215786	-0.083088
C201	C	0.111574	-0.210388	-0.157283
C202	C	0.108058	-0.185270	-0.204161
C203	C	0.106290	-0.138308	-0.227673
C204	C	0.102487	0.090947	-0.480580
C205	C	0.099445	0.053484	-0.461911
C206	C	0.099438	-0.089371	-0.319019
C207	C	0.102477	-0.111078	-0.278503
C208	C	0.099442	-0.089362	-0.462081
C209	C	0.102482	-0.111066	-0.480886
O210	O	0.118477	-0.256700	0.452885
O211	O	0.140984	-0.334299	0.397762
O212	O	0.063360	-0.256699	0.397752
O213	O	0.196101	-0.334300	0.452895
O214	O	0.063367	-0.193672	0.334708
O215	O	0.140992	-0.271271	0.334718
O216	O	0.118484	-0.193673	0.389842
Cu217	Cu	0.129739	-0.226717	0.356523
Cu218	Cu	0.129730	-0.301254	0.431080
O219	O	0.196108	-0.271272	0.389852
C220	C	-0.500364	0.533998	-0.438484
C221	C	-0.477341	0.556591	-0.461399
C222	C	-0.431721	0.465364	-0.369840
C223	C	-0.408802	0.488061	-0.392859
C224	C	-0.431720	0.533995	-0.438478
C225	C	-0.477342	0.488064	-0.392865
C226	C	-0.665898	0.588334	-0.480407
C227	C	-0.712776	0.613450	-0.502014
C228	C	-0.736291	0.660414	-0.547220
C229	C	-0.787122	0.687654	-0.570647
C230	C	-0.712926	0.682257	-0.570819
C231	C	-0.666050	0.657138	-0.549214
C232	C	-0.642536	0.610174	-0.504006
C233	C	-0.389802	0.657585	-0.549654
C234	C	-0.368196	0.682850	-0.571408
C235	C	-0.322990	0.661164	-0.547952
C236	C	-0.299561	0.688558	-0.571532
C237	C	-0.299388	0.614205	-0.502740
C238	C	-0.320990	0.588935	-0.480990
C239	C	-0.366202	0.610633	-0.504452
C240	C	-0.389804	0.312282	-0.204314
C241	C	-0.368201	0.268929	-0.157436
C242	C	-0.322993	0.247179	-0.133918
C243	C	-0.299567	0.200174	-0.083089
C244	C	-0.299392	0.268786	-0.157278
C245	C	-0.320998	0.312139	-0.204154
C246	C	-0.366204	0.333881	-0.227670
C247	C	-0.591708	0.582942	-0.480581
C248	C	-0.551193	0.561234	-0.461909
C249	C	-0.408297	0.418359	-0.319013
C250	C	-0.389626	0.380890	-0.278499
C251	C	-0.408296	0.561393	-0.462062
C252	C	-0.389624	0.583232	-0.480862
H253	H	-0.371321	-0.530978	0.035012
H254	H	-0.495832	0.469078	-0.374381
O255	O	-0.231138	-0.071342	-0.024523
C256	C	-0.259352	-0.055972	-0.064734
H257	H	-0.237102	-0.080666	-0.077704
H258	H	-0.287260	-0.063200	-0.056171
H259	H	-0.276510	-0.011622	-0.092844
H260	H	-0.495827	-0.530983	0.035020
O261	O	-0.499453	-0.399391	0.035130
C262	C	-0.544748	-0.384212	0.035322
H263	H	-0.546171	-0.420285	0.049577
H264	H	-0.554416	-0.369056	0.058155
H265	H	-0.570283	-0.351020	-0.001611
H266	H	0.154122	-0.452930	0.353678
H267	H	-0.387425	-0.278978	0.016792
H268	H	0.154133	-0.328462	0.229178
O269	O	-0.095741	-0.206696	0.360883
C270	C	-0.055736	-0.249000	0.363419
H271	H	-0.044223	-0.231889	0.332613
H272	H	-0.026708	-0.273263	0.397104
H273	H	-0.063927	-0.276056	0.362591
H274	H	-0.099376	-0.075038	0.229168
O275	O	-0.255142	-0.256259	-0.134728
C276	C	-0.225846	-0.247698	-0.118196
H277	H	-0.247512	-0.213281	-0.114630
H278	H	-0.199314	-0.285659	-0.082887
H279	H	-0.207024	-0.237232	-0.143700
O280	O	-0.231137	-0.321343	0.225645
C281	C	-0.259366	-0.333317	0.250470
H282	H	-0.237129	-0.368518	0.288148
H283	H	-0.287277	-0.296845	0.249118
H284	H	-0.276519	-0.344269	0.234218
H285	H	-0.099377	-0.452909	0.353658
H286	H	-0.301778	0.329728	-0.223172
H287	H	-0.731792	-0.278991	0.016812
O288	O	-0.231125	-0.071417	0.225668
C289	C	-0.246503	-0.101328	0.255776
H290	H	-0.224668	-0.124587	0.293284
H291	H	-0.284494	-0.073009	0.250291
H292	H	-0.242782	-0.130575	0.248101
O293	O	0.094651	-0.128791	-0.370768
C294	C	0.094449	-0.143967	-0.325475
H295	H	0.080213	-0.107898	-0.324049
H296	H	0.071594	-0.159094	-0.315822
H297	H	0.131375	-0.177179	-0.299930
O298	O	-0.095741	-0.456628	0.225646
C299	C	-0.050440	-0.502090	0.255751
H300	H	-0.049019	-0.517788	0.293261
H301	H	-0.040750	-0.534572	0.250239
H302	H	-0.024921	-0.490672	0.248096
H303	H	-0.732070	-0.403516	0.016804
H304	H	-0.496128	0.003076	-0.374407
H305	H	0.154138	-0.452930	0.229170
H306	H	-0.426314	-0.078564	-0.223203
O307	O	-0.297985	-0.206568	-0.227103
C308	C	-0.253412	-0.253414	-0.196434
H309	H	-0.253330	-0.270592	-0.159133
H310	H	-0.243896	-0.284248	-0.204116
H311	H	-0.226966	-0.243286	-0.201254
H312	H	0.094791	0.002793	-0.498893
O313	O	-0.433732	-0.321324	0.023430
C314	C	-0.449928	-0.274472	0.021133
H315	H	-0.429799	-0.257305	0.004045
H316	H	-0.488448	-0.243633	-0.000210
H317	H	-0.444634	-0.284589	0.057707
H318	H	-0.646754	-0.324820	0.023190
O319	O	0.094664	0.006530	-0.370890
C320	C	0.094469	0.052006	-0.401001
H321	H	0.080226	0.067673	-0.438508
H322	H	0.071625	0.084502	-0.395516
H323	H	0.131399	0.040618	-0.393327
H324	H	-0.099380	-0.199466	-0.024359
H325	H	0.113001	-0.123813	-0.138408
O326	O	0.106357	-0.070874	-0.227077
C327	C	0.108649	-0.056978	-0.196406
H328	H	0.125740	-0.094187	-0.159105
H329	H	0.129988	-0.039800	-0.204081
H330	H	0.072075	-0.025712	-0.201231
H331	H	-0.301729	-0.203089	-0.443614
H332	H	0.106623	0.141841	-0.443588
H333	H	-0.262264	-0.248919	-0.482808
O334	O	-0.390489	-0.120954	-0.134468
C335	C	-0.365298	-0.108303	-0.117907
H336	H	-0.342123	-0.102539	-0.139460
H337	H	-0.390499	-0.069770	-0.120860
H338	H	-0.342905	-0.142369	-0.080009
H339	H	-0.386837	-0.124397	-0.607648
H340	H	0.106619	-0.078217	-0.568789
O341	O	-0.095746	-0.071393	-0.024471
C342	C	-0.050457	-0.101301	-0.024674
H343	H	-0.049043	-0.124541	-0.038931
H344	H	-0.040791	-0.072981	-0.047512
H345	H	-0.024914	-0.130563	0.012255
H346	H	0.113004	0.220477	-0.482781
O347	O	-0.433728	0.333358	-0.227081
C348	C	-0.449924	0.304988	-0.196415
H349	H	-0.429796	0.284776	-0.159113
H350	H	-0.488445	0.333994	-0.204088
H351	H	-0.444630	0.273253	-0.201246
H352	H	0.113022	0.220750	-0.607622
O353	O	-0.255459	-0.752449	0.016576
C354	C	-0.226242	-0.806835	0.054435
H355	H	-0.247989	-0.823038	0.067211
H356	H	-0.199787	-0.830755	0.042988
H357	H	-0.207325	-0.810691	0.083718
O358	O	0.113363	-0.256051	-0.134440
C359	C	0.152385	-0.296060	-0.135288
H360	H	0.179297	-0.286662	-0.140831
H361	H	0.168084	-0.336645	-0.100878
H362	H	0.141329	-0.297227	-0.164840
H363	H	0.106637	0.142110	-0.568432
H364	H	-0.732075	0.720493	-0.607626
O365	O	0.113299	-0.120293	-0.615351
C366	C	0.110983	-0.073460	-0.631390
H367	H	0.123048	-0.074859	-0.600457
H368	H	0.134366	-0.070807	-0.653458
H369	H	0.073664	-0.036846	-0.653224
H370	H	-0.387419	-0.748683	0.016816
H371	H	0.113006	-0.248593	-0.483685
H372	H	0.106623	-0.203035	-0.444212
H373	H	-0.426615	-0.670047	0.023195
H374	H	-0.647026	-0.449354	0.023185
H375	H	-0.301775	-0.670305	0.023178
O376	O	-0.364078	0.465320	-0.370747
C377	C	-0.348702	0.419841	-0.325454
H378	H	-0.370534	0.404172	-0.324035
H379	H	-0.310710	0.387348	-0.315790
H380	H	-0.352428	0.431226	-0.299914
H381	H	-0.301784	-0.449335	0.023157
O382	O	-0.255452	-0.406946	0.016581
C383	C	-0.226240	-0.419595	0.054428
H384	H	-0.242032	-0.425354	0.083366
H385	H	-0.190649	-0.458129	0.067777
H386	H	-0.222418	-0.385530	0.042746
H387	H	0.106630	-0.203055	-0.223182
H388	H	-0.496124	0.003081	-0.498917
H389	H	-0.495826	0.593550	-0.498882
H390	H	-0.387422	0.251343	-0.138417
O391	O	-0.643122	0.542703	-0.436501
C392	C	-0.673797	0.528816	-0.420304
H393	H	-0.703373	0.547591	-0.451152
H394	H	-0.654276	0.483364	-0.398224
H395	H	-0.688546	0.544263	-0.398438
H396	H	-0.731797	0.595663	-0.482796
H397	H	-0.647028	0.674924	-0.568431
O398	O	-0.433710	0.678713	-0.572519
C399	C	-0.449910	0.725580	-0.617081
H400	H	-0.419064	0.724312	-0.627880
H401	H	-0.471995	0.728148	-0.643029
H402	H	-0.471770	0.762177	-0.616369
H403	H	-0.387416	0.721084	-0.608218
H404	H	-0.647059	0.142138	-0.568809
O405	O	-0.255505	0.593206	-0.479943
C406	C	-0.255605	0.630984	-0.475814
H407	H	-0.291884	0.660468	-0.478491
H408	H	-0.229851	0.609377	-0.440772
H409	H	-0.245160	0.653654	-0.504837
O410	O	-0.298077	0.543377	-0.437045
C411	C	-0.286516	0.553882	-0.406811
H412	H	-0.310950	0.598532	-0.422631
H413	H	-0.290042	0.530163	-0.372012
H414	H	-0.249209	0.541443	-0.401342
O415	O	-0.364382	-0.128510	-0.370912
C416	C	-0.349005	-0.143688	-0.401023
H417	H	-0.370839	-0.107616	-0.438530
H418	H	-0.311013	-0.158835	-0.395536
H419	H	-0.352727	-0.176887	-0.393351
O420	O	-0.433421	-0.071194	-0.572222
C421	C	-0.449455	-0.057461	-0.616760
H422	H	-0.429245	-0.094749	-0.616717
H423	H	-0.487971	-0.040294	-0.626363
H424	H	-0.444115	-0.026237	-0.643215
O425	O	-0.255500	0.247661	-0.134371
C426	C	-0.255602	0.251897	-0.096686
H427	H	-0.287121	0.255232	-0.086204
H428	H	-0.222550	0.214791	-0.066069
H429	H	-0.257217	0.289091	-0.107311
O430	O	-0.735710	0.224088	-0.615370
C431	C	-0.704902	0.195607	-0.631410
H432	H	-0.675368	0.154017	-0.600478
H433	H	-0.724316	0.191642	-0.653480
H434	H	-0.690111	0.218130	-0.653242
H435	H	-0.647332	0.142401	-0.444230
O436	O	-0.736102	0.224543	-0.480081
C437	C	-0.752646	0.278929	-0.505267
H438	H	-0.756081	0.295133	-0.543223
H439	H	-0.788018	0.302848	-0.502736
H440	H	-0.727219	0.282784	-0.490209
