data_functionalizedCrystal
_audit_creation_method	'MofGen! by Chris Wilmer'
_symmetry_space_group_name_H-M	'P1'
_symmetry_Int_Tables_number	1
_symmetry_cell_setting	triclinic
loop_
_symmetry_equiv_pos_as_xyz
  x,y,z
_cell_length_a	27.732048
_cell_length_b	27.731996
_cell_length_c	26.210047
_cell_angle_alpha	89.998501
_cell_angle_beta	89.996535
_cell_angle_gamma	82.632022
loop_
_atom_site_label
_atom_site_type_symbol
_atom_site_fract_x
_atom_site_fract_y
_atom_site_fract_z
O1	O	0.640920	0.057512	-0.042370
O2	O	1.140920	0.557512	0.457630
O3	O	0.500125	0.066257	-0.042386
O4	O	1.000125	0.566257	0.457614
O5	O	0.574909	-0.008514	-0.042366
O6	O	1.074909	0.491486	0.457634
O7	O	0.566137	0.132283	-0.042389
O8	O	1.066137	0.632283	0.457611
O9	O	0.574894	-0.008503	0.042492
O10	O	1.074894	0.491497	0.542492
O11	O	0.500111	0.066269	0.042472
O12	O	1.000111	0.566269	0.542472
O13	O	0.640906	0.057523	0.042488
O14	O	1.140906	0.557523	0.542488
Cu15	Cu	0.570507	0.061897	0.050228
Cu16	Cu	1.070507	0.561897	0.550228
Cu17	Cu	0.570524	0.061883	-0.050126
Cu18	Cu	1.070524	0.561883	0.449874
O19	O	0.566122	0.132295	0.042469
O20	O	1.066122	0.632295	0.542469
C21	C	0.482111	0.066079	0.000041
C22	C	0.982111	0.566079	0.500041
C23	C	0.428456	0.065527	0.000035
C24	C	0.928456	0.565527	0.500035
C25	C	0.089634	0.106232	0.000051
C26	C	0.589634	0.606232	0.500051
C27	C	-0.112026	0.104180	0.000056
C28	C	0.387974	0.604180	0.500056
O29	O	-0.143288	0.141402	0.000072
O30	O	0.356712	0.641402	0.500072
N31	N	-0.131141	0.059844	0.000062
N32	N	0.368859	0.559844	0.500062
C33	C	-0.099838	0.016017	0.000070
C34	C	0.400162	0.516017	0.500070
O35	O	-0.120724	-0.021740	0.000081
O36	O	0.379276	0.478260	0.500081
C37	C	0.101820	0.018069	0.000069
C38	C	0.601820	0.518069	0.500069
C39	C	0.120933	0.062408	0.000058
C40	C	0.620933	0.562408	0.500058
C41	C	0.108747	0.150567	0.000040
C42	C	0.608747	0.650567	0.500040
C43	C	0.159159	0.151079	0.000036
C44	C	0.659159	0.651079	0.500036
C45	C	0.190457	0.107256	0.000043
C46	C	0.690457	0.607256	0.500043
C47	C	0.171344	0.062920	0.000054
C48	C	0.671344	0.562920	0.500054
C49	C	0.133122	-0.025757	0.000081
C50	C	0.633122	0.474243	0.500081
C51	C	0.183539	-0.025240	0.000082
C52	C	0.683539	0.474760	0.500082
C53	C	0.202652	0.019099	0.000071
C54	C	0.702652	0.519099	0.500071
C55	C	0.253055	0.019609	0.000057
C56	C	0.753055	0.519609	0.500057
N57	N	0.272171	0.063946	0.000050
N58	N	0.772171	0.563946	0.500050
C59	C	0.240872	0.107769	0.000043
C60	C	0.740872	0.607769	0.500043
C61	C	-0.205712	0.014943	0.000070
C62	C	0.294288	0.514943	0.500070
C63	C	-0.256126	0.014430	0.000069
C64	C	0.243874	0.514430	0.500069
C65	C	-0.268310	0.102594	0.000056
C66	C	0.231690	0.602594	0.500056
C67	C	-0.217895	0.103106	0.000052
C68	C	0.282105	0.603106	0.500052
C69	C	-0.186597	0.059280	0.000064
C70	C	0.313403	0.559280	0.500064
C71	C	0.346741	0.108842	0.000034
C72	C	0.846741	0.608842	0.500034
C73	C	0.397158	0.109350	0.000028
C74	C	0.897158	0.609350	0.500028
C75	C	0.409337	0.021187	0.000045
C76	C	0.909337	0.521187	0.500045
C77	C	0.358925	0.020678	0.000048
C78	C	0.858925	0.520678	0.500048
C79	C	0.327627	0.064510	0.000045
C80	C	0.827627	0.564510	0.500045
O81	O	0.284346	-0.017592	0.000046
O82	O	0.784346	0.482408	0.500046
O83	O	0.261767	0.145521	0.000044
O84	O	0.761767	0.645521	0.500044
C85	C	0.039222	0.105719	0.000055
C86	C	0.539222	0.605719	0.500055
C87	C	0.020109	0.061384	0.000066
C88	C	0.520109	0.561384	0.500066
C89	C	0.051408	0.017560	0.000073
C90	C	0.551408	0.517560	0.500073
C91	C	-0.030305	0.060871	0.000065
C92	C	0.469695	0.560871	0.500065
C93	C	-0.061604	0.104694	0.000058
C94	C	0.438396	0.604694	0.500058
C95	C	-0.042489	0.149030	0.000052
C96	C	0.457511	0.649030	0.500052
C97	C	0.007923	0.149543	0.000048
C98	C	0.507923	0.649543	0.500048
C99	C	0.032292	-0.026776	0.000079
C100	C	0.532292	0.473224	0.500079
C101	C	-0.018120	-0.027285	0.000082
C102	C	0.481880	0.472715	0.500082
C103	C	-0.049419	0.016539	0.000075
C104	C	0.450581	0.516539	0.500075
C105	C	0.574721	-0.026516	0.000064
C106	C	1.074721	0.473484	0.500064
C107	C	0.574179	-0.080172	0.000069
C108	C	1.074179	0.419828	0.500069
C109	C	0.570772	-0.412895	-0.046212
C110	C	1.070772	0.087105	0.453788
C111	C	0.568711	-0.614553	-0.046221
C112	C	1.068711	-0.114553	0.453779
O113	O	0.568430	-0.640629	-0.085561
O114	O	1.068430	-0.140629	0.414439
N115	N	0.568447	-0.639764	0.000034
N116	N	1.068447	-0.139764	0.500034
C117	C	0.568695	-0.614556	0.046296
C118	C	1.068695	-0.114556	0.546296
O119	O	0.568418	-0.640626	0.085639
O120	O	1.068418	-0.140626	0.585639
C121	C	0.570753	-0.412899	0.046304
C122	C	1.070753	0.087101	0.546304
C123	C	0.571021	-0.387691	0.000046
C124	C	1.071021	0.112309	0.500046
C125	C	0.571040	-0.387687	-0.092467
C126	C	1.071040	0.112313	0.407533
C127	C	0.571558	-0.337276	-0.092464
C128	C	1.071558	0.162724	0.407536
C129	C	0.571807	-0.312072	-0.046206
C130	C	1.071807	0.187928	0.453794
C131	C	0.571539	-0.337280	0.000048
C132	C	1.071539	0.162720	0.500048
C133	C	0.570997	-0.387692	0.092565
C134	C	1.070997	0.112308	0.592565
C135	C	0.571511	-0.337274	0.092563
C136	C	1.071511	0.162726	0.592563
C137	C	0.571779	-0.312066	0.046304
C138	C	1.071779	0.187934	0.546304
C139	C	0.572307	-0.261665	0.046309
C140	C	1.072307	0.238335	0.546309
N141	N	0.572571	-0.236454	0.000053
N142	N	1.072571	0.263546	0.500053
C143	C	0.572321	-0.261658	-0.046204
C144	C	1.072321	0.238342	0.453796
C145	C	0.567616	-0.720430	0.046288
C146	C	1.067616	-0.220430	0.546288
C147	C	0.567102	-0.770844	0.046286
C148	C	1.067102	-0.270844	0.546286
C149	C	0.567117	-0.770837	-0.046231
C150	C	1.067117	-0.270837	0.453769
C151	C	0.567634	-0.720422	-0.046229
C152	C	1.067634	-0.220422	0.453771
C153	C	0.567880	-0.695219	0.000032
C154	C	1.067880	-0.195219	0.500032
C155	C	0.573409	-0.155791	-0.046195
C156	C	1.073409	0.344209	0.453805
C157	C	0.573929	-0.105376	-0.046188
C158	C	1.073929	0.394624	0.453812
C159	C	0.573912	-0.105387	0.046329
C160	C	1.073912	0.394613	0.546329
C161	C	0.573394	-0.155798	0.046322
C162	C	1.073394	0.344202	0.546322
C163	C	0.573141	-0.180999	0.000056
C164	C	1.073141	0.319001	0.500056
O165	O	0.572582	-0.235557	0.085628
O166	O	1.072582	0.264443	0.585628
O167	O	0.572587	-0.235578	-0.085542
O168	O	1.072587	0.264422	0.414458
C169	C	0.570254	-0.463306	-0.046215
C170	C	1.070254	0.036694	0.453785
C171	C	0.569986	-0.488513	0.000040
C172	C	1.069986	0.011487	0.500040
C173	C	0.570235	-0.463310	0.046298
C174	C	1.070235	0.036690	0.546298
C175	C	0.569472	-0.538928	0.000038
C176	C	1.069472	-0.038928	0.500038
C177	C	0.569222	-0.564131	-0.046220
C178	C	1.069222	-0.064131	0.453780
C179	C	0.569486	-0.538921	-0.092475
C180	C	1.069486	-0.038921	0.407525
C181	C	0.570004	-0.488509	-0.092472
C182	C	1.070004	0.011491	0.407528
C183	C	0.569971	-0.488521	0.092554
C184	C	1.069971	0.011479	0.592554
C185	C	0.569454	-0.538932	0.092547
C186	C	1.069454	-0.038932	0.592547
C187	C	0.569204	-0.564135	0.046289
C188	C	1.069204	-0.064135	0.546289
C189	C	0.658920	0.057701	0.000060
C190	C	1.158920	0.557701	0.500060
C191	C	0.712575	0.058254	0.000062
C192	C	1.212575	0.558254	0.500062
C193	C	0.566310	0.150296	0.000037
C194	C	1.066310	0.650296	0.500037
C195	C	0.566853	0.203952	0.000028
C196	C	1.066853	0.703952	0.500028
N197	N	0.570499	0.061906	0.120812
N198	N	1.070499	0.561906	0.620812
N199	N	0.570536	0.061870	-0.120710
N200	N	1.070536	0.561870	0.379290
C201	C	0.603635	0.028782	0.473335
C202	C	1.103635	0.528782	0.973335
C203	C	0.603646	0.028775	0.686994
C204	C	1.103646	0.528775	1.186994
O205	O	0.631801	0.000614	0.714623
O206	O	1.131801	0.500614	1.214623
N207	N	0.570527	0.061873	0.713706
N208	N	1.070527	0.561873	1.213706
C209	C	0.537401	0.094972	0.687001
C210	C	1.037401	0.594972	1.187001
O211	O	0.509228	0.123120	0.714624
O212	O	1.009228	0.623120	1.214624
C213	C	0.537388	0.094976	0.473343
C214	C	1.037388	0.594976	0.973343
C215	C	0.570512	0.061880	0.446633
C216	C	1.070512	0.561880	0.946633
C217	C	0.636756	-0.004312	0.446625
C218	C	1.136756	0.495688	0.946625
C219	C	0.636755	-0.004308	0.393214
C220	C	1.136755	0.495692	0.893214
C221	C	0.603632	0.028790	0.366512
C222	C	1.103632	0.528790	0.866512
C223	C	0.570511	0.061884	0.393222
C224	C	1.070511	0.561884	0.893222
C225	C	0.504260	0.128073	0.446639
C226	C	1.004260	0.628073	0.946639
C227	C	0.504259	0.128070	0.393221
C228	C	1.004259	0.628070	0.893221
C229	C	0.537384	0.094974	0.366511
C230	C	1.037384	0.594974	0.866511
C231	C	0.537388	0.094985	0.313109
C232	C	1.037388	0.594985	0.813109
N233	N	0.570506	0.061888	0.286396
N234	N	1.070506	0.561888	0.786396
C235	C	0.603629	0.028790	0.313098
C236	C	1.103629	0.528790	0.813098
C237	C	0.537410	0.094968	0.799174
C238	C	1.037410	0.594968	1.299174
C239	C	0.537414	0.094968	0.852588
C240	C	1.037414	0.594968	1.352588
C241	C	0.603658	0.028770	0.852577
C242	C	1.103658	0.528770	1.352577
C243	C	0.603657	0.028773	0.799162
C244	C	1.103657	0.528773	1.299162
C245	C	0.570529	0.061871	0.772462
C246	C	1.070529	0.561871	1.272462
C247	C	0.603624	0.028801	0.200930
C248	C	1.103624	0.528801	0.700930
C249	C	0.603621	0.028809	0.147514
C250	C	1.103621	0.528809	0.647514
C251	C	0.537375	0.095004	0.147529
C252	C	1.037375	0.595004	0.647529
C253	C	0.537380	0.094998	0.200941
C254	C	1.037380	0.594998	0.700941
C255	C	0.570506	0.061892	0.227640
C256	C	1.070506	0.561892	0.727640
O257	O	0.509244	0.123128	0.285447
O258	O	1.009244	0.623128	0.785447
O259	O	0.631790	0.000639	0.285466
O260	O	1.131790	0.500639	0.785466
C261	C	0.603636	0.028778	0.526746
C262	C	1.103636	0.528778	1.026746
C263	C	0.570515	0.061872	0.553456
C264	C	1.070515	0.561872	1.053456
C265	C	0.537393	0.094970	0.526755
C266	C	1.037393	0.594970	1.026755
C267	C	0.570519	0.061872	0.606870
C268	C	1.070519	0.561872	1.106870
C269	C	0.603641	0.028774	0.633572
C270	C	1.103641	0.528774	1.133572
C271	C	0.636760	-0.004323	0.606860
C272	C	1.136760	0.495677	1.106860
C273	C	0.636758	-0.004320	0.553448
C274	C	1.136758	0.495680	1.053448
C275	C	0.504274	0.128068	0.553467
C276	C	1.004274	0.628068	1.053467
C277	C	0.504278	0.128061	0.606879
C278	C	1.004278	0.628061	1.106879
C279	C	0.537401	0.094964	0.633580
C280	C	1.037401	0.594964	1.133580
H281	H	-0.180232	-0.020747	0.000079
H282	H	0.319768	0.479253	0.500079
Br283	Br	0.304273	0.168327	0.000030
Br284	Br	0.804273	0.668327	0.500030
Br285	Br	0.681715	-0.049238	0.517207
Br286	Br	1.181715	0.450762	1.017207
H287	H	0.117570	-0.061863	0.000091
H288	H	0.617570	0.438137	0.500091
H289	H	0.567818	-0.699914	0.083961
H290	H	1.067818	-0.199914	0.583961
H291	H	0.510412	0.121953	0.222688
H292	H	1.010412	0.621953	0.722688
Br293	Br	0.570631	-0.421889	0.155349
Br294	Br	1.070631	0.078111	0.655349
H295	H	0.569239	-0.559452	0.130219
H296	H	1.069239	-0.059452	0.630219
Br297	Br	0.648612	-0.016145	0.762919
Br298	Br	1.148612	0.483855	1.262919
H299	H	0.566891	-0.791365	0.083954
H300	H	1.066891	-0.291365	0.583954
Br301	Br	0.571843	-0.303072	0.155350
Br302	Br	1.071843	0.196928	0.655350
H303	H	0.570176	-0.468005	0.130223
H304	H	1.070176	0.031995	0.630223
H305	H	0.510446	0.121923	0.874332
H306	H	1.010446	0.621923	1.374332
Br307	Br	0.573041	-0.190011	0.109102
Br308	Br	1.073041	0.309989	0.609102
Br309	Br	0.648610	-0.016148	0.888826
Br310	Br	1.148610	0.483852	1.388826
Br311	Br	0.226013	-0.084723	0.000100
Br312	Br	0.726013	0.415277	0.500100
Br313	Br	0.492426	0.139923	0.111283
Br314	Br	0.992426	0.639923	0.611283
Br315	Br	0.681714	-0.049239	0.643108
Br316	Br	1.181714	0.450761	1.143108
H317	H	0.477305	0.155017	0.628622
H318	H	0.977305	0.655017	1.128622
H319	H	0.477301	0.155019	0.531731
H320	H	0.977301	0.655019	1.031731
Br321	Br	0.185089	0.211257	0.000022
Br322	Br	0.685089	0.711257	0.500022
H323	H	0.412716	0.145458	0.000019
H324	H	0.912716	0.645458	0.500019
Br325	Br	0.570701	-0.421882	-0.155254
Br326	Br	1.070701	0.078118	0.344746
H327	H	0.663728	-0.031267	0.468361
H328	H	1.163728	0.468733	0.968361
Br329	Br	0.648581	-0.016130	0.237156
Br330	Br	1.148581	0.483870	0.737156
Br331	Br	0.459304	0.172991	0.482877
Br332	Br	0.959304	0.672991	0.982877
H333	H	0.510433	0.121921	0.777438
H334	H	1.010433	0.621921	1.277438
H335	H	0.343363	-0.015426	0.000050
H336	H	0.843363	0.484574	0.500050
H337	H	0.574117	-0.084857	0.083990
H338	H	1.074117	0.415143	0.583990
H339	H	0.570223	-0.467990	-0.130141
H340	H	1.070223	0.032010	0.369859
H341	H	0.569285	-0.559450	-0.130140
H342	H	1.069285	-0.059450	0.369860
Br343	Br	0.459296	0.172989	0.356988
Br344	Br	0.959296	0.672989	0.856988
Br345	Br	0.648580	-0.016109	0.111267
Br346	Br	1.148580	0.483891	0.611267
H347	H	0.083267	0.186255	0.000036
H348	H	0.583267	0.686255	0.500036
Br349	Br	0.451823	-0.038285	0.000055
Br350	Br	0.951823	0.461715	0.500055
H351	H	-0.202337	0.139211	0.000046
H352	H	0.297663	0.639211	0.500046
Br353	Br	0.574297	-0.071169	-0.108972
Br354	Br	1.074297	0.428831	0.391028
Br355	Br	0.681708	-0.049229	0.356971
Br356	Br	1.181708	0.450771	0.856971
Br357	Br	-0.282058	-0.045747	0.000070
Br358	Br	0.217942	0.454253	0.500070
Br359	Br	-0.310797	0.162068	0.000047
Br360	Br	0.189203	0.662068	0.500047
Br361	Br	0.033853	0.209720	0.000031
Br362	Br	0.533853	0.709720	0.500031
H363	H	-0.067981	0.184713	0.000044
H364	H	0.432019	0.684713	0.500044
H365	H	0.057772	-0.062463	0.000086
H366	H	0.557772	0.437537	0.500086
Br367	Br	-0.044051	-0.087465	0.000089
Br368	Br	0.455949	0.412535	0.500089
H369	H	0.573201	-0.176303	-0.083869
H370	H	1.073201	0.323697	0.416131
H371	H	0.571775	-0.316756	-0.130133
H372	H	1.071775	0.183244	0.369867
H373	H	0.567852	-0.699901	-0.083897
H374	H	1.067852	-0.199901	0.416103
H375	H	0.566914	-0.791366	-0.083896
H376	H	1.066914	-0.291366	0.416104
