data_functionalizedCrystal
_audit_creation_method	'MofGen! by Chris Wilmer'
_symmetry_space_group_name_H-M	'P1'
_symmetry_Int_Tables_number	1
_symmetry_cell_setting	triclinic
loop_
_symmetry_equiv_pos_as_xyz
  x,y,z
_cell_length_a	6.817900
_cell_length_b	14.858329
_cell_length_c	16.255661
_cell_angle_alpha	95.053856
_cell_angle_beta	103.488922
_cell_angle_gamma	104.519616
loop_
_atom_site_label
_atom_site_type_symbol
_atom_site_fract_x
_atom_site_fract_y
_atom_site_fract_z
V1	V	-4.031897	-0.129422	-0.264114
O2	O	-4.013972	0.005446	-0.258838
O3	O	-3.988515	-0.255879	-0.262546
O4	O	-3.983393	-0.127771	-0.379194
O5	O	-4.019130	-0.123549	-0.141383
V6	V	-4.514888	-0.113250	-0.249405
O7	O	-4.294322	-0.164897	-0.296378
O8	O	-4.702661	-0.077776	-0.217140
O9	O	-4.335064	0.013206	-0.250973
O10	O	-4.650210	-0.248119	-0.254681
O11	O	-4.645052	-0.119124	-0.372136
O12	O	-4.340186	-0.114902	-0.134325
C13	C	-3.834740	-0.286696	-0.258441
C14	C	-3.880557	-0.390078	-0.257927
C15	C	-3.917759	-0.474035	-0.257501
C16	C	-3.964450	-0.579363	-0.256971
C17	C	-4.001679	-0.663314	-0.256549
C18	C	-4.048373	-0.768649	-0.256017
C19	C	-3.828205	-0.123280	-0.407236
C20	C	-3.869864	-0.122766	-0.501316
C21	C	-3.780175	-0.116631	-0.724123
C22	C	-3.939764	-0.195814	-0.793748
C23	C	-3.946210	-0.121803	-0.673563
C24	C	-3.860876	-0.041714	-0.771574
C25	C	-4.019941	-0.120869	-0.839945
C26	C	-4.105283	-0.201057	-0.741958
C27	C	-4.026331	-0.046887	-0.719768
C28	C	-4.186057	-0.126092	-0.789373
C29	C	-3.903731	-0.122342	-0.577715
C30	C	-4.062438	-0.120337	-0.935792
C31	C	-4.152181	0.044018	-0.255075
C32	C	-4.085603	0.147400	-0.255595
C33	C	-4.158716	-0.119396	-0.106278
C34	C	-4.096295	-0.119905	-0.012197
H35	H	-3.903613	-0.258778	-0.825952
O36	O	-4.228372	-0.281425	-0.726089
C37	C	-4.441624	-0.286563	-0.760189
H38	H	-4.457857	-0.212822	-0.766673
H39	H	-4.502613	-0.332392	-0.825881
C40	C	-4.550320	-0.420453	-0.691974
C41	C	-4.570259	-0.329881	-0.699931
H42	H	-4.629672	-0.447177	-0.654807
H43	H	-4.406648	-0.416993	-0.669003
H44	H	-4.601142	-0.458631	-0.746722
H45	H	-4.519414	-0.291701	-0.645186
H46	H	-4.713926	-0.333335	-0.722892
O47	O	-4.069042	0.028333	-0.681333
C48	C	-3.939288	0.112164	-0.695931
H49	H	-3.793264	0.097936	-0.710562
H50	H	-4.029121	0.138613	-0.752611
C51	C	-4.052803	0.204705	-0.597580
C52	C	-3.873445	0.187231	-0.615542
H53	H	-4.012194	0.251011	-0.547995
H54	H	-4.140227	0.148226	-0.587747
H55	H	-4.127647	0.226741	-0.644819
H56	H	-3.798619	0.165184	-0.568309
H57	H	-3.786006	0.243707	-0.625366
O58	O	-3.737787	0.038608	-0.787519
C59	C	-3.524527	0.043264	-0.754180
H60	H	-3.509309	-0.001874	-0.701121
H61	H	-3.461008	0.016065	-0.807382
C62	C	-3.416623	0.201505	-0.782740
C63	C	-3.397931	0.146072	-0.717566
H64	H	-3.338528	0.264921	-0.760158
H65	H	-3.560300	0.198367	-0.805204
H66	H	-3.363693	0.178828	-0.827069
H67	H	-3.450884	0.168742	-0.673243
H68	H	-3.254259	0.149216	-0.695094
O69	O	-3.575132	-0.111941	-0.689982
C70	C	-3.537863	-0.111696	-0.600912
H71	H	-3.661365	-0.085538	-0.577099
H72	H	-3.547102	-0.186165	-0.586597
C73	C	-3.166151	-0.078292	-0.584371
C74	C	-3.317829	-0.046158	-0.555122
H75	H	-3.030421	-0.037869	-0.556125
H76	H	-3.191259	-0.078461	-0.644380
H77	H	-3.173877	-0.140350	-0.572440
H78	H	-3.310118	0.015894	-0.567063
H79	H	-3.292714	-0.045977	-0.495114
O80	O	-4.391366	-0.130932	-0.823073
C81	C	-4.495569	-0.135525	-0.757488
H82	H	-4.406210	-0.163794	-0.702012
H83	H	-4.502939	-0.062139	-0.734069
C84	C	-4.829903	-0.166771	-0.860555
C85	C	-4.720160	-0.201499	-0.792422
H86	H	-4.968444	-0.207463	-0.882104
H87	H	-4.759700	-0.163673	-0.904742
H88	H	-4.836022	-0.105616	-0.841030
H89	H	-4.714019	-0.262648	-0.811950
H90	H	-4.790367	-0.204609	-0.748239
