data_functionalizedCrystal
_audit_creation_method	'MofGen! by Chris Wilmer'
_symmetry_space_group_name_H-M	'P1'
_symmetry_Int_Tables_number	1
_symmetry_cell_setting	triclinic
loop_
_symmetry_equiv_pos_as_xyz
  x,y,z
_cell_length_a	15.995363
_cell_length_b	14.472310
_cell_length_c	11.026607
_cell_angle_alpha	90.003014
_cell_angle_beta	96.041706
_cell_angle_gamma	89.990121
loop_
_atom_site_label
_atom_site_type_symbol
_atom_site_fract_x
_atom_site_fract_y
_atom_site_fract_z
O1	O	-1.134576	0.076769	-0.156483
O2	O	-0.893711	0.076786	-0.175784
O3	O	-0.994181	0.076775	0.010521
O4	O	-1.034106	0.076779	-0.342788
O5	O	-0.994150	-0.076907	0.010510
O6	O	-0.893680	-0.076896	-0.175795
O7	O	-1.134545	-0.076913	-0.156494
Cu8	Cu	-1.014109	-0.090937	-0.166145
Cu9	Cu	-1.014147	0.090810	-0.166133
O10	O	-1.034075	-0.076903	-0.342799
C11	C	-0.862380	-0.000053	-0.174989
C12	C	-0.769069	-0.000047	-0.172589
C13	C	-0.430024	-0.000070	-0.163969
C14	C	-0.457459	-0.000414	-0.031284
C15	C	-0.554510	-0.000060	-0.033685
C16	C	-0.598228	-0.000059	-0.168245
C17	C	-0.567023	0.087698	-0.233682
C18	C	-0.469885	0.087764	-0.230343
C19	C	-0.469923	-0.087001	-0.233097
C20	C	-0.566864	-0.088154	-0.233071
C21	C	-0.693290	-0.000050	-0.170668
C22	C	-0.334962	-0.000073	-0.161550
N23	N	-1.014089	-0.218768	-0.166154
C24	C	-1.014145	-0.592859	-0.166128
C25	C	-0.960104	-0.553688	-0.265481
C26	C	-0.960318	-0.446600	-0.265844
C27	C	-1.014117	-0.407268	-0.166141
C28	C	-1.105650	-0.446111	-0.193802
C29	C	-1.105369	-0.553232	-0.194508
C30	C	-0.977387	-0.553388	-0.038818
C31	C	-0.975511	-0.446261	-0.039667
C32	C	-1.014106	-0.302380	-0.166145
C33	C	-1.014162	-0.697747	-0.166125
C34	C	-0.165875	-0.000074	-0.157273
C35	C	-0.259183	-0.000082	-0.159625
C36	C	-0.986800	-0.000064	0.055727
C37	C	-0.964843	-0.000059	0.190442
N38	N	-1.014172	0.218641	-0.166115
C39	C	-1.041456	-0.000061	-0.388005
C40	C	-1.063413	-0.000060	-0.522720
C41	C	-1.025470	-0.000062	0.264244
C42	C	-1.002778	-0.000057	0.403480
H43	H	-0.575172	-0.062968	0.017754
H44	H	-0.444396	0.153364	-0.182611
H45	H	-0.934069	-0.000046	0.443370
H46	H	-0.911056	-0.580452	-0.012221
H47	H	-0.429920	0.062172	0.021516
H48	H	-1.134845	-0.578208	-0.287354
H49	H	-0.430929	-0.063348	0.021752
H50	H	-1.132122	0.000005	0.437391
H51	H	-0.588560	0.153008	-0.188223
H52	H	-0.985328	-0.580597	-0.359423
H53	H	-0.896139	-0.000049	0.230338
H54	H	-1.010848	-0.419491	0.037731
H55	H	-1.016573	-0.578719	0.035117
H56	H	-0.574575	0.062957	0.018110
H57	H	-0.452320	0.091747	-0.327758
H58	H	-0.586966	-0.153076	-0.185302
H59	H	-0.892895	-0.420340	-0.249362
H60	H	-0.596049	0.090961	-0.332540
H61	H	-0.908081	-0.420874	-0.018675
H62	H	-1.094174	-0.000072	0.224348
H63	H	-0.597018	-0.093454	-0.331197
H64	H	-0.442836	-0.153519	-0.189721
H65	H	-0.892511	-0.579471	-0.249271
H66	H	-0.452907	-0.087595	-0.330925
H67	H	-0.985777	-0.420965	-0.360317
H68	H	-1.147852	-0.579142	-0.124997
H69	H	-1.147617	-0.420631	-0.123363
H70	H	-1.135337	-0.419273	-0.285589
