data_functionalizedCrystal
_audit_creation_method	'MofGen! by Chris Wilmer'
_symmetry_space_group_name_H-M	'P1'
_symmetry_Int_Tables_number	1
_symmetry_cell_setting	triclinic
loop_
_symmetry_equiv_pos_as_xyz
  x,y,z
_cell_length_a	17.038272
_cell_length_b	10.654550
_cell_length_c	9.130313
_cell_angle_alpha	90.003780
_cell_angle_beta	89.998262
_cell_angle_gamma	92.201771
loop_
_atom_site_label
_atom_site_type_symbol
_atom_site_fract_x
_atom_site_fract_y
_atom_site_fract_z
O1	O	0.109874	-1.678036	-0.121922
O2	O	0.120343	-1.313530	-0.121899
O3	O	0.001281	-1.493617	-0.121899
O4	O	0.228936	-1.497950	-0.121923
O5	O	0.001284	-1.493615	0.121700
O6	O	0.120346	-1.313528	0.121700
O7	O	0.109878	-1.678034	0.121676
Cu8	Cu	0.115112	-1.495781	0.143931
Cu9	Cu	0.115108	-1.495783	-0.144153
O10	O	0.228939	-1.497948	0.121676
C11	C	0.119576	-1.266660	-0.000097
C12	C	0.117276	-1.127003	-0.000087
C13	C	-0.027867	-1.489675	-0.000100
C14	C	-0.114726	-1.477918	-0.000099
C15	C	0.110645	-1.724905	-0.000129
C16	C	0.112944	-1.864562	-0.000148
C17	C	-0.164237	-1.585862	-0.000105
C18	C	-0.245850	-1.574808	-0.000118
C19	C	-0.277949	-1.455808	-0.000115
C20	C	-0.228431	-1.347856	-0.000114
C21	C	-0.146821	-1.358911	-0.000111
C22	C	-0.523925	-1.416750	-0.000133
C23	C	-0.605542	-1.405702	-0.000131
C24	C	-0.622955	-1.632656	-0.000137
C25	C	-0.541342	-1.643701	-0.000126
C26	C	-0.491831	-1.535749	-0.000133
C27	C	-0.361370	-1.444505	-0.000124
C28	C	-0.408412	-1.547052	-0.000134
C29	C	0.258088	-1.501889	-0.000126
C30	C	0.344947	-1.513646	-0.000136
N31	N	0.115114	-1.495788	0.346553
C32	C	0.187378	-1.054026	-0.000116
C33	C	0.185212	-0.922804	-0.000141
C34	C	0.042837	-0.937548	-0.000115
C35	C	0.045004	-1.068767	-0.000080
C36	C	0.269577	-1.045513	-0.000137
C37	C	0.267411	-0.914292	-0.000162
N38	N	0.115100	-1.495785	-0.346776
C39	C	0.062412	-1.575554	0.423205
C40	C	0.062403	-1.575550	0.576542
C41	C	0.167805	-1.416010	0.576561
C42	C	0.167810	-1.416009	0.423227
C43	C	0.001561	-1.667667	0.423195
C44	C	0.001552	-1.667663	0.576532
H45	H	-0.138109	-1.682764	-0.000098
C46	C	-0.640850	-1.274797	-0.000153
H47	H	-0.599676	-1.212087	-0.000175
H48	H	-0.672328	-1.265753	0.084791
H49	H	-0.672321	-1.265789	-0.085116
C50	C	-0.075211	-1.619339	0.640787
H51	H	-0.109391	-1.597826	0.563296
H52	H	-0.063723	-1.547267	0.699359
H53	H	-0.099884	-1.683131	0.699332
C54	C	0.300993	-0.855690	0.141876
H55	H	0.298350	-0.766883	0.137010
H56	H	0.354153	-0.877733	0.153070
H57	H	0.271182	-0.886286	0.223174
C58	C	-0.092358	-1.240173	-0.000102
H59	H	-0.123163	-1.167717	-0.000088
H60	H	-0.060158	-1.239771	-0.085049
H61	H	-0.060163	-1.239766	0.084858
H62	H	0.301726	-1.077829	0.101811
H63	H	-0.286159	-1.662708	-0.000119
H64	H	0.210708	-1.351055	0.639006
H65	H	-0.382273	-1.643941	-0.000169
H66	H	-0.483623	-1.328847	-0.000138
C67	C	0.304940	-1.096975	-0.142205
H68	H	0.319192	-1.029089	-0.205493
H69	H	0.267234	-1.151094	-0.189394
H70	H	0.350222	-1.142475	-0.119372
C71	C	0.309142	-0.861802	-0.138001
H72	H	0.327777	-0.929261	-0.194668
H73	H	0.352158	-0.807750	-0.109868
H74	H	0.273196	-0.816031	-0.194549
C75	C	0.225778	-1.328259	0.338914
H76	H	0.257163	-1.280757	0.406543
H77	H	0.197331	-1.272955	0.279100
H78	H	0.258614	-1.376937	0.279100
C79	C	-0.079656	-1.631123	0.366962
H80	H	-0.079648	-1.631128	0.262909
H81	H	-0.090823	-1.549666	0.401647
H82	H	-0.118600	-1.690043	0.401620
H83	H	-0.515213	-1.740603	-0.000128
C84	C	0.027291	-1.793237	0.358925
H85	H	0.038743	-1.849159	0.436410
H86	H	0.072845	-1.778956	0.300364
H87	H	-0.013851	-1.829077	0.300366
H88	H	-0.663275	-1.720544	-0.000135
C89	C	0.019661	-1.799714	0.632753
H90	H	0.027123	-1.854021	0.551822
H91	H	-0.022995	-1.831492	0.690546
H92	H	0.066041	-1.795091	0.690561
H93	H	-0.254573	-1.250963	-0.000121
H94	H	-0.387514	-1.347615	-0.000119
H95	H	-0.012080	-1.128180	-0.000035
H96	H	-0.016005	-0.890116	-0.000131
