data_functionalizedCrystal
_audit_creation_method	'MofGen! by Chris Wilmer'
_symmetry_space_group_name_H-M	'P1'
_symmetry_Int_Tables_number	1
_symmetry_cell_setting	triclinic
loop_
_symmetry_equiv_pos_as_xyz
  x,y,z
_cell_length_a	10.723023
_cell_length_b	9.730223
_cell_length_c	10.723024
_cell_angle_alpha	89.999810
_cell_angle_beta	84.467709
_cell_angle_gamma	89.999613
loop_
_atom_site_label
_atom_site_type_symbol
_atom_site_fract_x
_atom_site_fract_y
_atom_site_fract_z
O1	O	-1.657182	0.114292	-0.175017
O2	O	-1.157182	0.614292	0.324983
O3	O	-1.294029	0.114293	-0.191771
O4	O	-0.794029	0.614293	0.308229
O5	O	-1.483982	0.114287	-0.001818
O6	O	-0.983982	0.614287	0.498182
O7	O	-1.467229	0.114298	-0.364971
O8	O	-0.967229	0.614298	0.135029
O9	O	-1.483980	-0.114292	-0.001823
O10	O	-0.983980	0.385708	0.498177
O11	O	-1.294027	-0.114287	-0.191776
O12	O	-0.794027	0.385713	0.308224
O13	O	-1.657180	-0.114288	-0.175022
O14	O	-1.157180	0.385712	0.324978
Zn15	Zn	-1.475603	-0.150579	-0.183400
Zn16	Zn	-0.975603	0.349421	0.316600
Zn17	Zn	-1.475606	0.150585	-0.183394
Zn18	Zn	-0.975606	0.650585	0.316606
O19	O	-1.467227	-0.114282	-0.364975
O20	O	-0.967227	0.385718	0.135025
C21	C	-1.247529	0.000003	-0.190555
C22	C	-0.747529	0.500003	0.309445
C23	C	-1.108974	0.000004	-0.186908
C24	C	-0.608974	0.500004	0.313092
N25	N	-1.475610	-0.356116	-0.183403
N26	N	-0.975610	0.143884	0.316597
C27	C	-0.904008	0.118412	-0.181509
C28	C	-0.404008	0.618412	0.318491
C29	C	-1.047211	0.118415	-0.185279
C30	C	-0.547211	0.618415	0.314721
C31	C	-1.559743	-0.428044	-0.099321
C32	C	-1.059743	0.071956	0.400679
C33	C	-1.559740	-0.571927	-0.099306
C34	C	-1.059740	-0.071927	0.400694
C35	C	-1.391467	-0.571940	-0.267467
C36	C	-0.891467	-0.071940	0.232533
C37	C	-1.391465	-0.428060	-0.267475
C38	C	-0.891465	0.071940	0.232525
C39	C	-1.643888	-0.356100	-0.015249
C40	C	-1.143888	0.143900	0.484751
C41	C	-1.728029	-0.428029	0.068839
C42	C	-1.228029	0.071971	0.568839
C43	C	-1.728026	-0.571912	0.068854
C44	C	-1.228026	-0.071912	0.568854
C45	C	-1.643882	-0.643866	-0.015219
C46	C	-1.143882	-0.143866	0.484781
C47	C	-0.703680	0.000002	-0.176239
C48	C	-0.203680	0.500002	0.323761
C49	C	-0.842235	0.000001	-0.179886
C50	C	-0.342235	0.500001	0.320114
C51	C	-1.482762	-0.000001	0.044679
C52	C	-0.982762	0.499999	0.544679
C53	C	-1.479114	0.000004	0.183233
C54	C	-0.979114	0.500004	0.683233
N55	N	-1.475609	0.356121	-0.183380
N56	N	-0.975609	0.856121	0.316620
C57	C	-1.468447	0.000009	-0.411473
C58	C	-0.968447	0.500009	0.088527
C59	C	-1.472095	0.000013	-0.550027
C60	C	-0.972095	0.500013	-0.050027
C61	C	-1.585402	0.000006	0.258216
C62	C	-1.085402	0.500006	0.758216
C63	C	-1.581634	0.000011	0.401420
C64	C	-1.081634	0.500011	0.901420
H65	H	-0.850878	0.219787	-0.180101
H66	H	-0.350878	0.719787	0.319899
Cl67	Cl	-1.643873	-0.824749	-0.015183
Cl68	Cl	-1.143873	-0.324749	0.484817
H69	H	-1.100334	0.219791	-0.186683
H70	H	-0.600334	0.719791	0.313317
H71	H	-1.055858	-0.101377	-0.185518
H72	H	-0.555858	0.398623	0.314482
Cl73	Cl	-1.722125	0.000002	0.500893
Cl74	Cl	-1.222125	0.500002	1.000893
Cl75	Cl	-1.833790	-0.662335	0.174572
Cl76	Cl	-1.333790	-0.162335	0.674572
H77	H	-1.381099	0.000003	0.385548
H78	H	-0.881099	0.500003	0.885548
Cl79	Cl	-0.924256	-0.156521	-0.182039
Cl80	Cl	-0.424256	0.343479	0.317961
Cl81	Cl	-1.833793	-0.337576	0.174536
Cl82	Cl	-1.333793	0.162424	0.674536
Cl83	Cl	-1.285697	-0.662397	-0.373156
Cl84	Cl	-0.785697	-0.162397	0.126844
Cl85	Cl	-1.643902	-0.175219	-0.015269
Cl86	Cl	-1.143902	0.324781	0.484731
H87	H	-1.322955	-0.369495	-0.335942
H88	H	-0.822955	0.130505	0.164058
H89	H	-1.679188	-0.000003	0.216394
H90	H	-1.179188	0.499997	0.716394
H91	H	-1.385328	0.000013	0.225055
H92	H	-0.885328	0.500013	0.725055
