data_functionalizedCrystal
_audit_creation_method	'MofGen! by Chris Wilmer'
_symmetry_space_group_name_H-M	'P1'
_symmetry_Int_Tables_number	1
_symmetry_cell_setting	triclinic
loop_
_symmetry_equiv_pos_as_xyz
  x,y,z
_cell_length_a	10.654550
_cell_length_b	14.185328
_cell_length_c	10.654560
_cell_angle_alpha	104.657963
_cell_angle_beta	84.487095
_cell_angle_gamma	104.664386
loop_
_atom_site_label
_atom_site_type_symbol
_atom_site_fract_x
_atom_site_fract_y
_atom_site_fract_z
O1	O	1.693512	0.083501	0.202059
O2	O	1.328029	0.083484	0.218860
O3	O	1.519166	0.083491	0.027720
O4	O	1.502375	0.083494	0.393198
O5	O	1.467869	-0.083355	-0.023560
O6	O	1.276732	-0.083361	0.167580
O7	O	1.642215	-0.083345	0.150779
Cu8	Cu	1.454790	-0.098587	0.154497
Cu9	Cu	1.515454	0.098727	0.215142
O10	O	1.451078	-0.083351	0.341918
C11	C	1.255582	0.000060	0.191985
C12	C	1.116137	0.000053	0.188291
N13	N	1.412131	-0.237367	0.111842
C14	C	1.036660	0.000069	0.300837
C15	C	0.905645	0.000086	0.297366
C16	C	0.933596	0.000077	0.068795
C17	C	1.064607	0.000052	0.072265
C18	C	1.088190	0.000071	0.416864
C19	C	1.008712	0.000087	0.529419
C20	C	0.877697	0.000105	0.525948
C21	C	0.826159	0.000105	0.409921
C22	C	1.683354	-0.604959	0.383141
C23	C	1.651070	-0.709988	0.350811
C24	C	1.497420	-0.709982	0.197059
C25	C	1.529687	-0.604951	0.229380
C26	C	1.622656	-0.552448	0.322421
C27	C	1.468989	-0.552440	0.168661
C28	C	1.501259	-0.447418	0.200975
C29	C	1.594227	-0.394908	0.294008
C30	C	1.654926	-0.447427	0.354735
C31	C	1.376027	-0.604945	0.075614
C32	C	1.315329	-0.552433	0.014894
C33	C	1.347592	-0.447410	0.047214
C34	C	1.440560	-0.394900	0.140248
C35	C	1.286892	-0.394892	-0.013512
C36	C	1.319162	-0.289870	0.018802
C37	C	1.472829	-0.289878	0.172562
C38	C	1.714663	0.000082	0.177654
C39	C	1.854110	0.000095	0.181350
C40	C	1.492282	0.000070	-0.044717
C41	C	1.488587	0.000074	-0.184158
N42	N	1.558123	0.237507	0.257786
C43	C	1.455434	-0.090874	-0.408650
C44	C	1.458892	-0.090875	-0.277627
C45	C	1.514812	0.091030	-0.221715
C46	C	1.511344	0.091029	-0.352735
C47	C	1.425750	-0.181829	-0.502115
C48	C	1.399522	-0.272784	-0.464567
C49	C	1.402981	-0.272785	-0.333544
C50	C	1.432667	-0.181830	-0.240070
C51	C	1.477963	0.000072	0.414356
C52	C	1.481661	0.000074	0.553799
H53	H	1.194869	0.000061	0.419704
H54	H	1.050681	0.000078	0.623881
O55	O	0.800684	0.000161	0.635407
C56	C	0.874257	0.000129	0.738543
H57	H	0.981465	0.031700	0.717217
H58	H	0.859259	-0.079915	0.749457
C59	C	0.698388	0.026799	0.891461
C60	C	0.830062	0.065583	0.865273
H61	H	0.671124	0.067170	0.969636
H62	H	0.648818	0.026816	0.821976
H63	H	0.685907	-0.039904	0.900548
H64	H	0.842539	0.132279	0.856170
H65	H	0.879634	0.065579	0.934759
H66	H	1.381610	-0.346845	-0.302975
H67	H	1.422934	-0.181838	-0.608804
O68	O	1.543625	0.179467	-0.131081
C69	C	1.566065	0.259743	-0.192325
H70	H	1.515701	0.233081	-0.289063
H71	H	1.674874	0.287710	-0.209958
C72	C	1.573483	0.378416	0.014090
C73	C	1.511616	0.345671	-0.104721
H74	H	1.539903	0.431423	0.068129
H75	H	1.558371	0.324333	0.055352
H76	H	1.664154	0.401715	-0.000622
H77	H	1.420950	0.322361	-0.090009
H78	H	1.526713	0.399752	-0.145979
H79	H	0.719471	0.000104	0.407099
H80	H	1.435458	-0.181838	-0.133381
H81	H	1.375342	-0.346837	-0.540680
H82	H	0.891628	0.000094	-0.025664
H83	H	1.129320	0.000042	-0.019379
H84	H	1.269733	-0.247115	-0.030640
H85	H	1.620502	-0.309393	0.320315
H86	H	1.532691	0.165087	-0.383307
O87	O	1.745126	-0.396525	0.445266
C88	C	1.703525	-0.422190	0.564530
H89	H	1.631439	-0.498453	0.546010
H90	H	1.654702	-0.363102	0.628331
C91	C	1.909950	-0.333357	0.656388
C92	C	1.821420	-0.427029	0.633640
H93	H	1.982673	-0.336338	0.699022
H94	H	1.937977	-0.316062	0.576039
H95	H	1.869249	-0.284127	0.709550
H96	H	1.862118	-0.476255	0.580465
H97	H	1.793403	-0.444332	0.713982
O98	O	1.773727	-0.554104	0.473516
C99	C	1.820355	-0.622969	0.520220
H100	H	1.804242	-0.697823	0.445270
H101	H	1.766027	-0.634163	0.614875
C102	C	1.986231	-0.490020	0.636673
C103	C	1.966451	-0.581955	0.544613
H104	H	2.076348	-0.464720	0.651726
H105	H	1.954814	-0.443623	0.605213
H106	H	1.940949	-0.499361	0.715542
H107	H	2.011719	-0.572611	0.465742
H108	H	1.997879	-0.628349	0.576061
O109	O	1.709822	-0.761106	0.409843
C110	C	1.615325	-0.821861	0.476162
H111	H	1.516964	-0.837604	0.431370
H112	H	1.609352	-0.781404	0.582838
C113	C	1.773844	-0.902277	0.520026
C114	C	1.653038	-0.921620	0.465004
H115	H	1.797109	-0.963811	0.513149
H116	H	1.837511	-0.861342	0.475350
H117	H	1.768851	-0.868560	0.608917
H118	H	1.658037	-0.955324	0.376111
H119	H	1.589373	-0.962562	0.509664
H120	H	1.349763	-0.690460	0.049299
O121	O	1.225007	-0.603591	-0.075411
C122	C	1.209476	-0.707548	-0.090862
H123	H	1.241653	-0.721886	0.000211
H124	H	1.271173	-0.737386	-0.178107
C125	C	1.026182	-0.743820	-0.224767
C126	C	1.065691	-0.761431	-0.112905
H127	H	0.937491	-0.777060	-0.238371
H128	H	1.036647	-0.673783	-0.214362
H129	H	1.077607	-0.768685	-0.297459
H130	H	1.014277	-0.736555	-0.040214
H131	H	1.055214	-0.831465	-0.123299
H132	H	1.548520	-0.247128	0.248338
H133	H	1.421728	-0.752744	0.121301
H134	H	1.211206	-0.437655	-0.089275
