data_functionalizedCrystal
_audit_creation_method	'MofGen! by Chris Wilmer'
_symmetry_space_group_name_H-M	'P1'
_symmetry_Int_Tables_number	1
_symmetry_cell_setting	triclinic
loop_
_symmetry_equiv_pos_as_xyz
  x,y,z
_cell_length_a	29.839131
_cell_length_b	25.639242
_cell_length_c	25.639233
_cell_angle_alpha	90.022166
_cell_angle_beta	89.980415
_cell_angle_gamma	89.963053
loop_
_atom_site_label
_atom_site_type_symbol
_atom_site_fract_x
_atom_site_fract_y
_atom_site_fract_z
Zn1	Zn	-0.178962	-0.799215	-0.295739
Zn2	Zn	0.321038	-0.299215	0.204261
Zn3	Zn	-0.254076	-0.799134	-0.208302
Zn4	Zn	0.245924	-0.299134	0.291698
Zn5	Zn	-0.178955	-0.711791	-0.208303
Zn6	Zn	0.321045	-0.211791	0.291697
Zn7	Zn	-0.254059	-0.711732	-0.295692
Zn8	Zn	0.245941	-0.211732	0.204308
O9	O	-0.216513	-0.755468	-0.252009
O10	O	0.283487	-0.255468	0.247991
O11	O	-0.188935	-0.872370	-0.284160
O12	O	0.311065	-0.372370	0.215840
O13	O	-0.244115	-0.787539	-0.135137
O14	O	0.255885	-0.287539	0.364863
O15	O	-0.116089	-0.723447	-0.219922
O16	O	0.383911	-0.223447	0.280078
O17	O	-0.244122	-0.872310	-0.219920
O18	O	0.255878	-0.372310	0.280080
O19	O	-0.116094	-0.787677	-0.284161
O20	O	0.383906	-0.287677	0.215839
O21	O	-0.188924	-0.723369	-0.135138
O22	O	0.311076	-0.223369	0.364862
O23	O	-0.188908	-0.638618	-0.219876
O24	O	0.311092	-0.138618	0.280124
O25	O	-0.244093	-0.723346	-0.368864
O26	O	0.255907	-0.223346	0.131136
O27	O	-0.244087	-0.638575	-0.284081
O28	O	0.255913	-0.138575	0.215919
O29	O	-0.188919	-0.787619	-0.368898
O30	O	0.311081	-0.287619	0.131102
O31	O	-0.316941	-0.787482	-0.219875
O32	O	0.183059	-0.287482	0.280125
O33	O	-0.316929	-0.723268	-0.284080
O34	O	0.183071	-0.223268	0.215920
C35	C	-0.216495	-0.619626	-0.251974
C36	C	0.283505	-0.119626	0.248026
C37	C	-0.216499	-0.561512	-0.251971
C38	C	0.283501	-0.061512	0.248029
C39	C	-0.333236	-0.755374	-0.251983
C40	C	0.166764	-0.255374	0.248017
C41	C	-0.383170	-0.755381	-0.251990
C42	C	0.116830	-0.255381	0.248010
C43	C	-0.216505	-0.755485	-0.388382
C44	C	0.283495	-0.255485	0.111618
C45	C	-0.216502	-0.755492	-0.446496
C46	C	0.283498	-0.255492	0.053504
C47	C	-0.692807	-0.788965	-0.218627
C48	C	-0.192807	-0.288965	0.281373
C49	C	-0.880480	-0.789030	-0.218647
C50	C	-0.380480	-0.289030	0.281353
O51	O	-0.904740	-0.817509	-0.190260
O52	O	-0.404740	-0.317509	0.309740
N53	N	-0.903955	-0.755577	-0.252049
N54	N	-0.403955	-0.255577	0.247951
C55	C	-0.880509	-0.722108	-0.285450
C56	C	-0.380509	-0.222108	0.214550
O57	O	-0.904782	-0.693659	-0.313865
O58	O	-0.404782	-0.193659	0.186135
C59	C	-0.692837	-0.722046	-0.285432
C60	C	-0.192837	-0.222046	0.214568
C61	C	-0.669364	-0.755498	-0.252024
C62	C	-0.169364	-0.255498	0.247976
C63	C	-0.669335	-0.822415	-0.185222
C64	C	-0.169335	-0.322415	0.314778
C65	C	-0.622419	-0.822396	-0.185215
C66	C	-0.122419	-0.322396	0.314785
C67	C	-0.598976	-0.788928	-0.218613
C68	C	-0.098976	-0.288928	0.281387
C69	C	-0.622449	-0.755479	-0.252018
C70	C	-0.122449	-0.255479	0.247982
C71	C	-0.669391	-0.688580	-0.318836
C72	C	-0.169391	-0.188580	0.181164
C73	C	-0.622470	-0.688568	-0.318829
C74	C	-0.122470	-0.188568	0.181171
C75	C	-0.598998	-0.722020	-0.285422
C76	C	-0.098998	-0.222020	0.214578
C77	C	-0.552090	-0.721993	-0.285409
C78	C	-0.052090	-0.221993	0.214591
N79	N	-0.528615	-0.755446	-0.252007
N80	N	-0.028615	-0.255446	0.247993
C81	C	-0.552058	-0.788914	-0.218609
C82	C	-0.052058	-0.288914	0.281391
C83	C	-0.979039	-0.722141	-0.285457
C84	C	-0.479039	-0.222141	0.214543
C85	C	-1.025957	-0.722156	-0.285461
C86	C	-0.525957	-0.222156	0.214539
C87	C	-1.025925	-0.789079	-0.218658
C88	C	-0.525925	-0.289079	0.281342
C89	C	-0.979007	-0.789062	-0.218652
C90	C	-0.479007	-0.289062	0.281348
C91	C	-0.955565	-0.755595	-0.252055
C92	C	-0.455565	-0.255595	0.247945
C93	C	-0.453533	-0.788872	-0.218597
C94	C	0.046467	-0.288872	0.281403
C95	C	-0.406613	-0.788849	-0.218592
C96	C	0.093387	-0.288849	0.281408
C97	C	-0.406649	-0.721928	-0.285396
C98	C	0.093351	-0.221928	0.214604
C99	C	-0.453564	-0.721949	-0.285400
C100	C	0.046436	-0.221949	0.214600
C101	C	-0.477005	-0.755425	-0.251999
C102	C	0.022995	-0.255425	0.248001
O103	O	-0.527802	-0.693533	-0.313784
O104	O	-0.027802	-0.193533	0.186216
O105	O	-0.527777	-0.817366	-0.190207
O106	O	-0.027777	-0.317366	0.309793
C107	C	-0.739723	-0.788984	-0.218633
C108	C	-0.239723	-0.288984	0.281367
C109	C	-0.763195	-0.755535	-0.252038
C110	C	-0.263195	-0.255535	0.247962
C111	C	-0.739752	-0.722067	-0.285436
C112	C	-0.239752	-0.222067	0.214564
C113	C	-0.810113	-0.755549	-0.252042
C114	C	-0.310113	-0.255549	0.247958
C115	C	-0.833556	-0.789017	-0.218644
C116	C	-0.333556	-0.289017	0.281356
C117	C	-0.810081	-0.822470	-0.185242
C118	C	-0.310081	-0.322470	0.314758
C119	C	-0.763166	-0.822451	-0.185235
C120	C	-0.263166	-0.322451	0.314765
C121	C	-0.763227	-0.688614	-0.318838
C122	C	-0.263227	-0.188614	0.181162
C123	C	-0.810143	-0.688635	-0.318841
C124	C	-0.310143	-0.188635	0.181159
C125	C	-0.833585	-0.722102	-0.285443
C126	C	-0.333585	-0.222102	0.214557
C127	C	-0.099335	-0.755577	-0.252047
C128	C	0.400665	-0.255577	0.247953
C129	C	-0.049400	-0.755624	-0.252063
C130	C	0.450600	-0.255624	0.247937
C131	C	-0.216531	-0.891841	-0.252045
C132	C	0.283469	-0.391841	0.247955
C133	C	-0.216539	-0.949955	-0.252060
C134	C	0.283461	-0.449955	0.247940
C135	C	-0.245293	-0.201135	-0.285409
C136	C	0.254707	0.298865	0.214591
C137	C	-0.245295	-0.146531	-0.285417
C138	C	0.254705	0.353469	0.214583
O139	O	-0.269755	-0.118282	-0.313817
O140	O	0.230245	0.381718	0.186183
N141	N	-0.216525	-0.119229	-0.252043
N142	N	0.283475	0.380771	0.247957
C143	C	-0.187748	-0.146535	-0.218663
C144	C	0.312252	0.353465	0.281337
O145	O	-0.163276	-0.118299	-0.190277
O146	O	0.336724	0.381701	0.309723
C147	C	-0.187743	-0.201138	-0.218658
C148	C	0.312257	0.298862	0.281342
C149	C	-0.216518	-0.228437	-0.252030
C150	C	0.283482	0.271563	0.247970
C151	C	-0.274065	-0.228434	-0.318778
C152	C	0.225935	0.271566	0.181222
C153	C	-0.274063	-0.283034	-0.318769
C154	C	0.225937	0.216966	0.181231
C155	C	-0.245288	-0.310336	-0.285390
C156	C	0.254712	0.189664	0.214610
C157	C	-0.216516	-0.283037	-0.252021
C158	C	0.283484	0.216963	0.247979
C159	C	-0.158963	-0.228443	-0.185281
C160	C	0.341037	0.271557	0.314719
C161	C	-0.158961	-0.283050	-0.185279
C162	C	0.341039	0.216950	0.314721
C163	C	-0.187736	-0.310349	-0.218651
C164	C	0.312264	0.189651	0.281349
C165	C	-0.187739	-0.364940	-0.218633
C166	C	0.312261	0.135060	0.281367
N167	N	-0.216509	-0.392241	-0.252006
N168	N	0.283491	0.107759	0.247994
C169	C	-0.245283	-0.364939	-0.285385
C170	C	0.254717	0.135061	0.214615
C171	C	-0.187759	-0.031864	-0.218677
C172	C	0.312241	0.468136	0.281323
C173	C	-0.187766	0.022738	-0.218679
C174	C	0.312234	0.522738	0.281321
C175	C	-0.245313	0.022739	-0.285434
C176	C	0.254687	0.522739	0.214566
C177	C	-0.245308	-0.031865	-0.285429
C178	C	0.254692	0.468135	0.214571
C179	C	-0.216529	-0.059166	-0.252051
C180	C	0.283471	0.440834	0.247949
C181	C	-0.245277	-0.479604	-0.285363
C182	C	0.254723	0.020396	0.214637
C183	C	-0.245273	-0.534210	-0.285350
C184	C	0.254727	-0.034210	0.214650
C185	C	-0.187724	-0.534206	-0.218597
C186	C	0.312276	-0.034206	0.281403
C187	C	-0.187729	-0.479605	-0.218609
C188	C	0.312271	0.020395	0.281391
C189	C	-0.216507	-0.452306	-0.251996
C190	C	0.283493	0.047694	0.248004
O191	O	-0.163290	-0.393223	-0.190249
O192	O	0.336710	0.106777	0.309751
O193	O	-0.269746	-0.393182	-0.313771
O194	O	0.230254	0.106818	0.186229
C195	C	-0.187687	-0.789002	-0.806883
C196	C	0.312313	-0.289002	-0.306883
C197	C	-0.187675	-0.789008	-0.861488
C198	C	0.312325	-0.289008	-0.361488
O199	O	-0.163229	-0.817457	-0.889744
O200	O	0.336771	-0.317457	-0.389744
N201	N	-0.216396	-0.755550	-0.888779
N202	N	0.283604	-0.255550	-0.388779
C203	C	-0.245129	-0.722079	-0.861463
C204	C	0.254871	-0.222079	-0.361463
O205	O	-0.269558	-0.693621	-0.889691
O206	O	0.230442	-0.193621	-0.389691
C207	C	-0.245139	-0.722071	-0.806860
C208	C	0.254861	-0.222071	-0.306860
C209	C	-0.216419	-0.755535	-0.779571
C210	C	0.283581	-0.255535	-0.279571
C211	C	-0.158969	-0.822463	-0.779594
C212	C	0.341031	-0.322463	-0.279594
C213	C	-0.158982	-0.822457	-0.724994
C214	C	0.341018	-0.322457	-0.224994
C215	C	-0.187714	-0.788990	-0.697682
C216	C	0.312286	-0.288990	-0.197682
C217	C	-0.216432	-0.755529	-0.724971
C218	C	0.283568	-0.255529	-0.224971
C219	C	-0.273869	-0.688598	-0.779545
C220	C	0.226131	-0.188598	-0.279545
C221	C	-0.273876	-0.688592	-0.724938
C222	C	0.226124	-0.188592	-0.224938
C223	C	-0.245156	-0.722056	-0.697650
C224	C	0.254844	-0.222056	-0.197650
C225	C	-0.245176	-0.722056	-0.643058
C226	C	0.254824	-0.222056	-0.143058
N227	N	-0.216455	-0.755514	-0.615767
N228	N	0.283545	-0.255514	-0.115767
C229	C	-0.187723	-0.788981	-0.643079
C230	C	0.312277	-0.288981	-0.143079
C231	C	-0.245106	-0.722100	-0.976134
C232	C	0.254894	-0.222100	-0.476134
C233	C	-0.245099	-0.722110	-1.030736
C234	C	0.254901	-0.222110	-0.530736
C235	C	-0.187644	-0.789039	-1.030757
C236	C	0.312356	-0.289039	-0.530757
C237	C	-0.187653	-0.789030	-0.976153
C238	C	0.312347	-0.289030	-0.476153
C239	C	-0.216384	-0.755558	-0.948843
C240	C	0.283616	-0.255558	-0.448843
C241	C	-0.187753	-0.788967	-0.528414
C242	C	0.312247	-0.288967	-0.028414
C243	C	-0.187770	-0.788959	-0.473808
C244	C	0.312230	-0.288959	0.026192
C245	C	-0.245223	-0.722029	-0.473793
C246	C	0.254777	-0.222029	0.026207
C247	C	-0.245208	-0.722038	-0.528393
C248	C	0.254792	-0.222038	-0.028393
C249	C	-0.216470	-0.755509	-0.555702
C250	C	0.283530	-0.255509	-0.055702
O251	O	-0.269609	-0.693620	-0.614767
O252	O	0.230391	-0.193620	-0.114767
O253	O	-0.163295	-0.817430	-0.614845
O254	O	0.336705	-0.317430	-0.114845
C255	C	-0.216488	-0.755482	-0.116167
C256	C	0.283512	-0.255482	0.383833
C257	C	-0.216365	-0.755576	-0.058053
C258	C	0.283635	-0.255576	0.441947
H259	H	-0.472612	-0.816133	-0.191400
H260	H	0.027388	-0.316133	0.308600
H261	H	-0.268599	-0.694794	-0.550613
H262	H	0.231401	-0.194794	-0.050613
C263	C	-0.983794	-0.655986	-0.351482
C264	C	-0.483794	-0.155986	0.148518
C265	C	-0.953276	-0.685345	-0.322171
C266	C	-0.453276	-0.185345	0.177829
H267	H	-0.967889	-0.633266	-0.374143
H268	H	-0.467889	-0.133266	0.125857
H269	H	-1.002065	-0.678759	-0.371508
H270	H	-0.502065	-0.178759	0.128492
H271	H	-1.002120	-0.636016	-0.328671
H272	H	-0.502120	-0.136016	0.171329
H273	H	-0.934952	-0.705318	-0.344981
H274	H	-0.434952	-0.205318	0.155019
H275	H	-0.934996	-0.662569	-0.302143
H276	H	-0.434996	-0.162569	0.197857
C277	C	-0.251636	-0.093297	-0.355742
C278	C	0.248364	0.406703	0.144258
C279	C	-0.276935	-0.061870	-0.322115
C280	C	0.223065	0.438130	0.177885
H281	H	-0.271162	-0.111821	-0.378390
H282	H	0.228838	0.388179	0.121610
H283	H	-0.232094	-0.072016	-0.375781
H284	H	0.267906	0.427984	0.124219
H285	H	-0.234501	-0.117374	-0.335859
H286	H	0.265499	0.382626	0.164141
H287	H	-0.294068	-0.037791	-0.341998
H288	H	0.205932	0.462209	0.158002
H289	H	-0.296485	-0.083153	-0.302074
H290	H	0.203515	0.416847	0.197926
H291	H	-0.268709	-0.457384	-0.312552
H292	H	0.231291	0.042616	0.187448
C293	C	-0.330674	-0.622443	-0.730407
C294	C	0.169326	-0.122443	-0.230407
C295	C	-0.305467	-0.651806	-0.694919
C296	C	0.194533	-0.151806	-0.194919
H297	H	-0.350180	-0.599739	-0.711874
H298	H	0.149820	-0.099739	-0.211874
H299	H	-0.311093	-0.602460	-0.751695
H300	H	0.188907	-0.102460	-0.251695
H301	H	-0.347849	-0.645218	-0.751714
H302	H	0.152151	-0.145218	-0.251714
H303	H	-0.288289	-0.629031	-0.673615
H304	H	0.211711	-0.129031	-0.173615
H305	H	-0.325050	-0.671790	-0.673622
H306	H	0.174950	-0.171790	-0.173622
C307	C	-0.411301	-0.855005	-0.152561
C308	C	0.088699	-0.355005	0.347439
C309	C	-0.380813	-0.825624	-0.181870
C310	C	0.119187	-0.325624	0.318130
H311	H	-0.395374	-0.877709	-0.129894
H312	H	0.104626	-0.377709	0.370106
H313	H	-0.429627	-0.832245	-0.132541
H314	H	0.070373	-0.332245	0.367459
H315	H	-0.429576	-0.874993	-0.175372
H316	H	0.070424	-0.374993	0.324628
H317	H	-0.362540	-0.805633	-0.159058
H318	H	0.137460	-0.305633	0.340942
H319	H	-0.362480	-0.848386	-0.201891
H320	H	0.137520	-0.348386	0.298109
C321	C	-0.627115	-0.888554	-0.119194
C322	C	-0.127115	-0.388554	0.380806
C323	C	-0.596622	-0.859175	-0.148500
C324	C	-0.096622	-0.359175	0.351500
H325	H	-0.611190	-0.911265	-0.096531
H326	H	-0.111190	-0.411265	0.403469
H327	H	-0.645437	-0.865794	-0.099171
H328	H	-0.145437	-0.365794	0.400829
H329	H	-0.645393	-0.908535	-0.142008
H330	H	-0.145393	-0.408535	0.357992
H331	H	-0.578347	-0.839191	-0.125686
H332	H	-0.078347	-0.339191	0.374314
H333	H	-0.578293	-0.881939	-0.168525
H334	H	-0.078293	-0.381939	0.331475
H335	H	-0.164266	-0.816279	-0.953939
H336	H	0.335734	-0.316279	-0.453939
H337	H	-0.164350	-0.816220	-0.550642
H338	H	0.335650	-0.316220	-0.050642
H339	H	-0.268504	-0.694842	-0.953901
H340	H	0.231496	-0.194842	-0.453901
C341	C	-0.824567	-0.848016	-0.096739
C342	C	-0.324567	-0.348016	0.403261
C343	C	-0.835863	-0.859259	-0.148538
C344	C	-0.335863	-0.359259	0.351462
H345	H	-0.840490	-0.870726	-0.074085
H346	H	-0.340490	-0.370726	0.425915
H347	H	-0.793271	-0.852804	-0.091946
H348	H	-0.293271	-0.352804	0.408054
H349	H	-0.832286	-0.812893	-0.089054
H350	H	-0.332286	-0.312893	0.410946
H351	H	-0.828141	-0.894381	-0.156224
H352	H	-0.328141	-0.394381	0.343776
H353	H	-0.867166	-0.854475	-0.153333
H354	H	-0.367166	-0.354475	0.346667
C355	C	-0.133433	-0.144750	-0.155609
C356	C	0.366567	0.355250	0.344391
C357	C	-0.127351	-0.198445	-0.148575
C358	C	0.372649	0.301555	0.351425
H359	H	-0.113922	-0.126233	-0.132938
H360	H	0.386078	0.373767	0.367062
H361	H	-0.126885	-0.135812	-0.190741
H362	H	0.373115	0.364188	0.309259
H363	H	-0.163615	-0.135791	-0.147910
H364	H	0.336385	0.364209	0.352090
H365	H	-0.097170	-0.207406	-0.156277
H366	H	0.402830	0.292594	0.343723
H367	H	-0.133895	-0.207388	-0.113435
H368	H	0.366105	0.292612	0.386565
H369	H	-0.164382	-0.816212	-0.451592
H370	H	0.335618	-0.316212	0.048408
H371	H	-0.268490	-0.694866	-1.052950
H372	H	0.231510	-0.194866	-0.552950
C373	C	-0.280093	-0.618271	-0.840932
C374	C	0.219907	-0.118271	-0.340932
C375	C	-0.305440	-0.651818	-0.809538
C376	C	0.194560	-0.151818	-0.309538
H377	H	-0.299587	-0.595568	-0.859450
H378	H	0.200413	-0.095568	-0.359450
H379	H	-0.260525	-0.598288	-0.819629
H380	H	0.239475	-0.098288	-0.319629
H381	H	-0.262983	-0.638209	-0.865013
H382	H	0.237017	-0.138209	-0.365013
H383	H	-0.322548	-0.631880	-0.785454
H384	H	0.177452	-0.131880	-0.285454
H385	H	-0.325017	-0.671803	-0.830842
H386	H	0.174983	-0.171803	-0.330842
C387	C	-0.130846	-0.485093	-0.152624
C388	C	0.369154	0.014907	0.347376
C389	C	-0.156102	-0.449595	-0.181924
C390	C	0.343898	0.050405	0.318076
H391	H	-0.111317	-0.466568	-0.129981
H392	H	0.388683	0.033432	0.370019
H393	H	-0.150395	-0.506361	-0.132579
H394	H	0.349605	-0.006361	0.367421
H395	H	-0.113693	-0.506419	-0.175442
H396	H	0.386307	-0.006419	0.324558
H397	H	-0.173257	-0.428272	-0.159106
H398	H	0.326743	0.071728	0.340894
H399	H	-0.136551	-0.428318	-0.201970
H400	H	0.363449	0.071682	0.298030
C401	C	-0.334514	-0.167001	-0.325923
C402	C	0.165486	0.332999	0.174077
C403	C	-0.305699	-0.198428	-0.355470
C404	C	0.194301	0.301572	0.144530
H405	H	-0.354044	-0.148477	-0.348575
H406	H	0.145956	0.351523	0.151425
H407	H	-0.351662	-0.188282	-0.303105
H408	H	0.148338	0.311718	0.196895
H409	H	-0.317377	-0.142924	-0.306054
H410	H	0.182623	0.357076	0.193946
H411	H	-0.322836	-0.222507	-0.375336
H412	H	0.177164	0.277493	0.124664
H413	H	-0.288550	-0.177145	-0.378297
H414	H	0.211450	0.322855	0.121703
H415	H	-0.135522	-0.305276	-0.158101
H416	H	0.364478	0.194724	0.341899
C417	C	-0.710450	-0.681269	-0.389160
C418	C	-0.210450	-0.181269	0.110840
C419	C	-0.737464	-0.651820	-0.355550
C420	C	-0.237464	-0.151820	0.144450
H421	H	-0.694549	-0.658550	-0.411827
H422	H	-0.194549	-0.158550	0.088173
H423	H	-0.689752	-0.701180	-0.369269
H424	H	-0.189752	-0.201180	0.130731
H425	H	-0.728729	-0.704042	-0.409184
H426	H	-0.228729	-0.204042	0.090816
H427	H	-0.719184	-0.629050	-0.335523
H428	H	-0.219184	-0.129050	0.164477
H429	H	-0.758164	-0.631900	-0.375444
H430	H	-0.258164	-0.131900	0.124556
H431	H	-0.744058	-0.849691	-0.158032
H432	H	-0.244058	-0.349691	0.341968
C433	C	-0.506308	-0.714657	-0.355726
C434	C	-0.006308	-0.214657	0.144274
C435	C	-0.479371	-0.685177	-0.322117
C436	C	0.020629	-0.185177	0.177883
H437	H	-0.522239	-0.691956	-0.378394
H438	H	-0.022239	-0.191956	0.121606
H439	H	-0.487975	-0.737409	-0.375746
H440	H	0.012025	-0.237409	0.124254
H441	H	-0.526982	-0.734592	-0.335832
H442	H	-0.026982	-0.234592	0.164168
H443	H	-0.458694	-0.665245	-0.342011
H444	H	0.041306	-0.165245	0.157989
H445	H	-0.497705	-0.662416	-0.302095
H446	H	0.002295	-0.162416	0.197905
C447	C	-0.270741	-0.692303	-0.390075
C448	C	0.229259	-0.192303	0.109925
C449	C	-0.276802	-0.685241	-0.443764
C450	C	0.223198	-0.185241	0.056236
H451	H	-0.290233	-0.669586	-0.371537
H452	H	0.209767	-0.169586	0.128463
H453	H	-0.277327	-0.727420	-0.381139
H454	H	0.222673	-0.227420	0.118861
H455	H	-0.240554	-0.684682	-0.381138
H456	H	0.259446	-0.184682	0.118862
H457	H	-0.306989	-0.692865	-0.452702
H458	H	0.193011	-0.192865	0.047298
H459	H	-0.270219	-0.650115	-0.452704
H460	H	0.229781	-0.150115	0.047296
H461	H	-0.297494	-0.305256	-0.345945
H462	H	0.202506	0.194744	0.154055
H463	H	-0.164298	-0.556445	-0.191419
H464	H	0.335702	-0.056445	0.308581
H465	H	-0.688495	-0.661337	-0.346038
H466	H	-0.188495	-0.161337	0.153962
C467	C	-0.102186	-0.888606	-0.730516
C468	C	0.397814	-0.388606	-0.230516
C469	C	-0.127406	-0.859236	-0.695003
C470	C	0.372594	-0.359236	-0.195003
H471	H	-0.082689	-0.911309	-0.712002
H472	H	0.417311	-0.411309	-0.212002
H473	H	-0.121759	-0.908590	-0.751812
H474	H	0.378241	-0.408590	-0.251812
H475	H	-0.085001	-0.865835	-0.751812
H476	H	0.414999	-0.365835	-0.251812
H477	H	-0.144594	-0.882007	-0.673709
H478	H	0.355406	-0.382007	-0.173709
H479	H	-0.107831	-0.839251	-0.673698
H480	H	0.392169	-0.339251	-0.173698
C481	C	-0.098517	-0.829803	-0.840999
C482	C	0.401483	-0.329803	-0.340999
C483	C	-0.127382	-0.859254	-0.809607
C484	C	0.372618	-0.359254	-0.309607
H485	H	-0.079014	-0.852521	-0.859521
H486	H	0.420986	-0.352521	-0.359521
H487	H	-0.115616	-0.809887	-0.865072
H488	H	0.384384	-0.309887	-0.365072
H489	H	-0.081338	-0.807034	-0.819690
H490	H	0.418662	-0.307034	-0.319690
H491	H	-0.144563	-0.882021	-0.830917
H492	H	0.355437	-0.382021	-0.330917
H493	H	-0.110281	-0.879179	-0.785531
H494	H	0.389719	-0.379179	-0.285531
C495	C	-0.334737	-0.692200	-0.315047
C496	C	0.165263	-0.192200	0.184953
C497	C	-0.380874	-0.685144	-0.322109
C498	C	0.119126	-0.185144	0.177891
H499	H	-0.318825	-0.669495	-0.337717
H500	H	0.181175	-0.169495	0.162283
H501	H	-0.327071	-0.684565	-0.279913
H502	H	0.172929	-0.184565	0.220087
H503	H	-0.327025	-0.727325	-0.322732
H504	H	0.172975	-0.227325	0.177268
H505	H	-0.388587	-0.650019	-0.314421
H506	H	0.111413	-0.150019	0.185579
H507	H	-0.388543	-0.692776	-0.357251
H508	H	0.111457	-0.192776	0.142749
C509	C	-0.721999	-0.892812	-0.178072
C510	C	-0.221999	-0.392812	0.321928
C511	C	-0.695080	-0.859243	-0.148526
C512	C	-0.195080	-0.359243	0.351474
H513	H	-0.737882	-0.915560	-0.155419
H514	H	-0.237882	-0.415560	0.344581
H515	H	-0.742711	-0.872897	-0.197939
H516	H	-0.242711	-0.372897	0.302061
H517	H	-0.703656	-0.912751	-0.200891
H518	H	-0.203656	-0.412751	0.299109
H519	H	-0.713423	-0.839301	-0.125709
H520	H	-0.213423	-0.339301	0.374291
H521	H	-0.674365	-0.879160	-0.128650
H522	H	-0.174365	-0.379160	0.371350
C523	C	-0.983699	-0.855211	-0.152621
C524	C	-0.483699	-0.355211	0.347379
C525	C	-0.953208	-0.825835	-0.181932
C526	C	-0.453208	-0.325835	0.318068
H527	H	-0.967772	-0.877917	-0.129954
H528	H	-0.467772	-0.377917	0.370046
H529	H	-1.002021	-0.832448	-0.132601
H530	H	-0.502021	-0.332448	0.367399
H531	H	-1.001976	-0.875197	-0.175431
H532	H	-0.501976	-0.375197	0.324569
H533	H	-0.934933	-0.805846	-0.159123
H534	H	-0.434933	-0.305846	0.340877
H535	H	-0.934878	-0.848601	-0.201954
H536	H	-0.434878	-0.348601	0.298046
H537	H	-0.268742	0.044978	-0.312615
H538	H	0.231258	0.544978	0.187385
H539	H	-0.829250	-0.661390	-0.346045
H540	H	-0.329250	-0.161390	0.153955
C541	C	-1.078697	-0.714857	-0.355788
C542	C	-0.578697	-0.214857	0.144212
C543	C	-1.051756	-0.685382	-0.322179
C544	C	-0.551756	-0.185382	0.177821
H545	H	-1.094624	-0.692154	-0.378457
H546	H	-0.594624	-0.192154	0.121543
H547	H	-1.060368	-0.737614	-0.375806
H548	H	-0.560368	-0.237614	0.124194
H549	H	-1.099376	-0.734786	-0.335894
H550	H	-0.599376	-0.234786	0.164106
H551	H	-1.031075	-0.665455	-0.342074
H552	H	-0.531075	-0.165455	0.157926
H553	H	-1.070087	-0.662616	-0.302160
H554	H	-0.570087	-0.162616	0.197840
H555	H	-0.268707	-0.556434	-0.312526
H556	H	0.231293	-0.056434	0.187474
H557	H	-0.164324	-0.054089	-0.191493
H558	H	0.335676	0.445911	0.308507
C559	C	-1.097837	-0.818869	-0.189066
C560	C	-0.597837	-0.318869	0.310934
C561	C	-1.051700	-0.825908	-0.181985
C562	C	-0.551700	-0.325908	0.318015
H563	H	-1.113749	-0.841620	-0.166442
H564	H	-0.613749	-0.341620	0.333558
H565	H	-1.105569	-0.783765	-0.181337
H566	H	-0.605569	-0.283765	0.318663
H567	H	-1.105482	-0.826459	-0.224221
H568	H	-0.605482	-0.326459	0.275779
H569	H	-1.044054	-0.818314	-0.146831
H570	H	-0.544054	-0.318314	0.353169
H571	H	-1.043965	-0.861020	-0.189711
H572	H	-0.543965	-0.361020	0.310289
H573	H	-0.603386	-0.661316	-0.346032
H574	H	-0.103386	-0.161316	0.153968
H575	H	-0.164338	0.044960	-0.191499
H576	H	0.335662	0.544960	0.308501
H577	H	-0.164248	-0.816288	-1.053004
H578	H	0.335752	-0.316288	-0.553004
