data_functionalizedCrystal
_audit_creation_method	'MofGen! by Chris Wilmer'
_symmetry_space_group_name_H-M	'P1'
_symmetry_Int_Tables_number	1
_symmetry_cell_setting	triclinic
loop_
_symmetry_equiv_pos_as_xyz
  x,y,z
_cell_length_a	10.489741
_cell_length_b	11.792254
_cell_length_c	10.868271
_cell_angle_alpha	89.995741
_cell_angle_beta	89.995151
_cell_angle_gamma	84.368886
loop_
_atom_site_label
_atom_site_type_symbol
_atom_site_fract_x
_atom_site_fract_y
_atom_site_fract_z
O1	O	0.174909	1.507372	-0.102321
O2	O	0.192911	1.177081	-0.102323
O3	O	-0.001713	1.349742	-0.102314
O4	O	0.369533	1.334711	-0.102329
O5	O	-0.001721	1.349728	0.102330
O6	O	0.192903	1.177067	0.102322
O7	O	0.174902	1.507357	0.102324
Zn8	Zn	0.183901	1.342210	0.134815
Zn9	Zn	0.183911	1.342229	-0.134814
O10	O	0.369526	1.334696	0.102315
C11	C	0.191773	1.134780	-0.000001
C12	C	0.188379	1.008758	-0.000002
C13	C	-0.049245	1.348600	0.000007
C14	C	-0.190863	1.345203	0.000005
C15	C	0.185621	0.906414	-0.000007
C16	C	0.182173	0.778018	-0.000008
C17	C	-0.258634	1.235344	-0.000005
C18	C	-0.350935	1.287233	0.100896
C19	C	-0.350902	1.287273	-0.100868
C20	C	-0.281298	1.397138	0.100989
C21	C	-0.281256	1.397162	-0.100865
C22	C	-0.373529	1.449132	0.000060
C23	C	0.417057	1.335839	-0.000009
C24	C	0.558675	1.339235	-0.000015
C25	C	0.176040	1.549658	-0.000001
C26	C	0.179434	1.675680	-0.000008
N27	N	0.183894	1.342205	0.318829
N28	N	0.183909	1.342242	-0.318828
C29	C	0.183909	1.342223	0.569835
C30	C	0.183904	1.342209	0.430157
H31	H	-0.381793	1.240743	0.186200
O32	O	-0.198979	1.127610	-0.000114
C33	C	-0.055059	0.988901	-0.106487
C34	C	-0.122558	1.110926	-0.106537
H35	H	0.006764	0.975381	-0.192508
H36	H	-0.129899	0.925032	-0.105623
H37	H	0.008001	0.975979	-0.021231
H38	H	-0.185614	1.123958	-0.191779
H39	H	-0.047651	1.174733	-0.107337
H40	H	-0.381706	1.240782	-0.186180
O41	O	-0.244351	1.452745	-0.202504
C42	C	-0.142037	1.611841	-0.281663
C43	C	-0.183795	1.549034	-0.166443
H44	H	-0.093044	1.689690	-0.252550
H45	H	-0.229711	1.640128	-0.340056
H46	H	-0.072358	1.552142	-0.337693
H47	H	-0.253445	1.608667	-0.110318
H48	H	-0.096060	1.520729	-0.108142
H49	H	-0.250625	1.443575	0.186389
H50	H	-0.423256	1.539538	0.000117
