data_functionalizedCrystal
_audit_creation_method	'MofGen! by Chris Wilmer'
_symmetry_space_group_name_H-M	'P1'
_symmetry_Int_Tables_number	1
_symmetry_cell_setting	triclinic
loop_
_symmetry_equiv_pos_as_xyz
  x,y,z
_cell_length_a	15.995350
_cell_length_b	16.992694
_cell_length_c	16.053802
_cell_angle_alpha	92.750953
_cell_angle_beta	92.567808
_cell_angle_gamma	92.919701
loop_
_atom_site_label
_atom_site_type_symbol
_atom_site_fract_x
_atom_site_fract_y
_atom_site_fract_z
O1	O	0.174244	-1.043694	-0.069318
O2	O	0.674244	-0.543694	0.430682
O3	O	0.172295	-0.815410	-0.069342
O4	O	0.672295	-0.315410	0.430658
O5	O	0.051799	-0.935792	-0.069329
O6	O	0.551799	-0.435792	0.430671
O7	O	0.294739	-0.923312	-0.069332
O8	O	0.794739	-0.423312	0.430668
O9	O	0.058403	-0.929166	0.069530
O10	O	0.558403	-0.429166	0.569530
O11	O	0.178898	-0.808784	0.069516
O12	O	0.678898	-0.308784	0.569516
O13	O	0.180847	-1.037068	0.069540
O14	O	0.680847	-0.537068	0.569540
Zn15	Zn	0.180921	-0.921874	0.091575
Zn16	Zn	0.680921	-0.421874	0.591575
Zn17	Zn	0.172221	-0.930604	-0.091377
Zn18	Zn	0.672221	-0.430604	0.408623
O19	O	0.301343	-0.916685	0.069527
O20	O	0.801343	-0.416685	0.569527
C21	C	0.173091	-0.782884	0.000083
C22	C	0.673091	-0.282884	0.500083
C23	C	0.165614	-0.695841	0.000074
C24	C	0.665614	-0.195841	0.500074
C25	C	0.023872	-0.931963	0.000099
C26	C	0.523872	-0.431963	0.500099
C27	C	-0.069182	-0.930417	0.000094
C28	C	0.430818	-0.430417	0.500094
C29	C	0.180051	-1.069593	0.000113
C30	C	0.680051	-0.569593	0.500113
C31	C	0.187528	-1.156637	0.000117
C32	C	0.687528	-0.656637	0.500117
C33	C	-0.407302	-0.924861	0.000096
C34	C	0.092698	-0.424861	0.500096
C35	C	-0.365620	-0.839142	-0.000225
C36	C	0.134380	-0.339142	0.499775
C37	C	-0.268811	-0.840674	0.000089
C38	C	0.231189	-0.340674	0.500089
C39	C	-0.239557	-0.927617	0.000095
C40	C	0.260443	-0.427617	0.500095
C41	C	-0.274034	-0.966120	0.079392
C42	C	0.225966	-0.466120	0.579392
C43	C	-0.370810	-0.963963	0.079459
C44	C	0.129190	-0.463963	0.579459
C45	C	-0.378559	-0.973269	-0.078449
C46	C	0.121441	-0.473269	0.421551
C47	C	-0.281665	-0.973299	-0.079497
C48	C	0.218335	-0.473299	0.420503
C49	C	-0.144755	-0.929179	0.000096
C50	C	0.355245	-0.429179	0.500096
C51	C	-0.502103	-0.923302	0.000100
C52	C	-0.002103	-0.423302	0.500100
C53	C	0.329270	-0.920515	0.000097
C54	C	0.829270	-0.420515	0.500097
C55	C	0.422324	-0.922061	0.000097
C56	C	0.922324	-0.422061	0.500097
N57	N	0.186859	-0.915921	0.216434
N58	N	0.686859	-0.415921	0.716434
C59	C	0.237749	-0.645600	0.000074
C60	C	0.737749	-0.145600	0.500074
C61	C	0.230720	-0.563813	0.000085
C62	C	0.730720	-0.063813	0.500085
C63	C	0.151555	-0.532268	0.000091
C64	C	0.651555	-0.032268	0.500091
C65	C	0.079414	-0.582515	0.000094
C66	C	0.579414	-0.082515	0.500094
C67	C	0.086444	-0.664300	0.000088
C68	C	0.586444	-0.164300	0.500088
C69	C	0.122417	-0.288669	0.000114
C70	C	0.622417	0.211331	0.500114
C71	C	0.115392	-0.206878	0.000117
C72	C	0.615392	0.293122	0.500117
C73	C	0.266699	-0.188181	0.000110
C74	C	0.766699	0.311819	0.500110
C75	C	0.273722	-0.269969	0.000099
C76	C	0.773722	0.230031	0.500099
C77	C	0.201582	-0.320209	0.000106
C78	C	0.701582	0.179791	0.500106
N79	N	0.144368	-0.448669	0.000100
N80	N	0.644368	0.051331	0.500100
N81	N	0.208770	-0.403806	0.000103
N82	N	0.708770	0.096194	0.500103
N83	N	0.166277	-0.936563	-0.216236
N84	N	0.666277	-0.436563	0.283764
C85	C	0.135608	-0.967163	0.260134
C86	C	0.635608	-0.467163	0.760134
C87	C	0.139770	-0.963006	0.347541
C88	C	0.639770	-0.463006	0.847541
C89	C	0.195187	-0.907611	0.391245
C90	C	0.695187	-0.407611	0.891245
C91	C	0.246439	-0.856364	0.347539
C92	C	0.746439	-0.356364	0.847539
C93	C	0.242273	-0.860518	0.260135
C94	C	0.742273	-0.360518	0.760135
C95	C	0.213363	-0.889469	0.652653
C96	C	0.713363	-0.389469	1.152653
C97	C	0.217528	-0.885321	0.740064
C98	C	0.717528	-0.385321	1.240064
C99	C	0.110857	-0.991962	0.740059
C100	C	0.610857	-0.491962	1.240059
C101	C	0.106699	-0.996114	0.652652
C102	C	0.606699	-0.496114	1.152652
C103	C	0.157948	-0.944864	0.608954
C104	C	0.657948	-0.444864	1.108954
N105	N	0.199444	-0.903363	0.480589
N106	N	0.699444	-0.403363	0.980589
N107	N	0.153686	-0.949109	0.519612
N108	N	0.653686	-0.449109	1.019612
H109	H	-0.245316	-0.810146	-0.056756
H110	H	0.254684	-0.310146	0.443244
H111	H	0.098037	-1.004731	0.383120
H112	H	0.598037	-0.504731	0.883120
H113	H	0.262658	-0.840209	0.775644
H114	H	0.762658	-0.340209	1.275644
H115	H	-0.398675	-1.026736	0.083061
H116	H	0.101325	-0.526736	0.583061
O117	O	-0.234960	-0.797412	0.067923
O118	O	0.265040	-0.297412	0.567923
C119	C	-0.182645	-0.735032	0.041529
C120	C	0.317355	-0.235032	0.541529
H121	H	-0.202224	-0.721528	-0.025211
H122	H	0.297776	-0.221528	0.474789
H123	H	-0.188577	-0.680345	0.084398
H124	H	0.311423	-0.180345	0.584398
H125	H	-0.114832	-0.752778	0.044059
H126	H	0.385168	-0.252778	0.544059
H127	H	-0.384808	-0.802329	0.056318
H128	H	0.115192	-0.302329	0.556318
O129	O	0.038536	-0.176139	0.000239
O130	O	0.538536	0.323861	0.500239
C131	C	0.033364	-0.125981	0.072167
C132	C	0.533364	0.374019	0.572167
H133	H	0.099137	-0.104470	0.096136
H134	H	0.599137	0.395530	0.596136
H135	H	-0.004367	-0.073196	0.055997
H136	H	0.495633	0.426804	0.555997
H137	H	0.001139	-0.159716	0.122529
H138	H	0.501139	0.340284	0.622529
O139	O	0.002500	-0.551907	0.000246
O140	O	0.502500	-0.051907	0.500246
C141	C	-0.038395	-0.574174	0.072150
C142	C	0.461605	-0.074174	0.572150
H143	H	0.010193	-0.588791	0.122416
H144	H	0.510193	-0.088791	0.622416
H145	H	-0.076188	-0.523482	0.096290
H146	H	0.423812	-0.023482	0.596290
H147	H	-0.082256	-0.628252	0.055890
H148	H	0.417744	-0.128252	0.555890
H149	H	0.289461	-0.522910	0.000084
H150	H	0.789461	-0.022910	0.500084
O151	O	0.016341	-0.713082	-0.000064
O152	O	0.516341	-0.213082	0.499936
C153	C	-0.034831	-0.702194	-0.071967
C154	C	0.465169	-0.202194	0.428033
H155	H	0.005109	-0.676631	-0.122232
H156	H	0.505109	-0.176631	0.377768
H157	H	-0.065671	-0.761370	-0.096108
H158	H	0.434329	-0.261370	0.403892
H159	H	-0.085311	-0.659780	-0.055704
H160	H	0.414689	-0.159780	0.444296
H161	H	0.090486	-1.012274	0.224555
H162	H	0.590486	-0.512274	0.724555
H163	H	0.338187	-0.295647	0.000085
H164	H	0.838187	0.204353	0.500085
H165	H	-0.403833	-0.948107	-0.138552
H166	H	0.096167	-0.448107	0.361448
O167	O	0.052791	-1.049946	0.610329
O168	O	0.552791	-0.549946	1.110329
C169	C	0.008462	-1.094296	0.667644
C170	C	0.508462	-0.594296	1.167644
H171	H	0.008313	-1.059191	0.729954
H172	H	0.508313	-0.559191	1.229954
H173	H	-0.058802	-1.107461	0.642395
H174	H	0.441198	-0.607461	1.142395
H175	H	0.040026	-1.152098	0.676928
H176	H	0.540026	-0.652098	1.176928
O177	O	0.336689	-0.139265	0.000147
O178	O	0.836689	0.360735	0.500147
C179	C	0.313512	-0.060315	0.000132
C180	C	0.813512	0.439685	0.500132
H181	H	0.248786	-0.055929	0.026421
H182	H	0.748786	0.444071	0.526421
H183	H	0.361074	-0.021345	0.040449
H184	H	0.861074	0.478655	0.540449
H185	H	0.311937	-0.039831	-0.066483
H186	H	0.811937	0.460169	0.433517
H187	H	0.069131	-1.033687	0.775646
H188	H	0.569131	-0.533687	1.275646
O189	O	-0.258384	-1.049159	-0.085164
O190	O	0.241616	-0.549159	0.414836
C191	C	-0.170637	-1.049831	-0.090106
C192	C	0.329363	-0.549831	0.409894
H193	H	-0.140543	-0.991705	-0.062052
H194	H	0.359457	-0.491705	0.437948
H195	H	-0.146231	-1.100751	-0.053986
H196	H	0.353769	-0.600751	0.446014
H197	H	-0.154181	-1.057580	-0.158272
H198	H	0.345819	-0.557580	0.341728
H199	H	0.255094	-0.847741	0.617081
H200	H	0.755094	-0.347741	1.117081
H201	H	0.291558	-0.811257	0.383129
H202	H	0.791558	-0.311257	0.883129
H203	H	0.063675	-0.329565	0.000120
H204	H	0.563675	0.170435	0.500120
O205	O	0.292145	-0.810708	0.217811
O206	O	0.792145	-0.310708	0.717811
C207	C	0.341937	-0.760912	0.275127
C208	C	0.841937	-0.260912	0.775127
H209	H	0.348026	-0.790097	0.337427
H210	H	0.848026	-0.290097	0.837427
H211	H	0.406793	-0.750145	0.249864
H212	H	0.906793	-0.250145	0.749864
H213	H	0.311258	-0.702227	0.284435
H214	H	0.811258	-0.202227	0.784435
H215	H	0.302214	-0.671277	0.000068
H216	H	0.802214	-0.171277	0.500068
O217	O	-0.393571	-0.801390	-0.068038
O218	O	0.106429	-0.301390	0.431962
C219	C	-0.355070	-0.724790	-0.066455
C220	C	0.144930	-0.224790	0.433545
H221	H	-0.293849	-0.722955	-0.027052
H222	H	0.206151	-0.222955	0.472948
H223	H	-0.341518	-0.708649	-0.132809
H224	H	0.158482	-0.208649	0.367191
H225	H	-0.398710	-0.680826	-0.038227
H226	H	0.101290	-0.180826	0.461773
O227	O	-0.391846	-0.923718	0.150079
O228	O	0.108154	-0.423718	0.650079
C229	C	-0.436319	-0.857551	0.128422
C230	C	0.063681	-0.357551	0.628422
H231	H	-0.465845	-0.868079	0.062618
H232	H	0.034155	-0.368079	0.562618
H233	H	-0.487599	-0.848007	0.174374
H234	H	0.012401	-0.348007	0.674374
H235	H	-0.391477	-0.803066	0.130760
H236	H	0.108523	-0.303066	0.630760
O237	O	-0.251813	-1.042130	0.082817
O238	O	0.248187	-0.542130	0.582817
C239	C	-0.204678	-1.061691	0.013349
C240	C	0.295322	-0.561691	0.513349
H241	H	-0.175191	-1.005523	-0.011464
H242	H	0.324809	-0.505523	0.488536
H243	H	-0.153214	-1.101947	0.032970
H244	H	0.346786	-0.601947	0.532970
H245	H	-0.247513	-1.093418	-0.037631
H246	H	0.252487	-0.593418	0.462369
O247	O	-0.239131	-0.927614	0.149707
O248	O	0.260869	-0.427614	0.649707
C249	C	-0.183506	-0.865897	0.127492
C250	C	0.316494	-0.365897	0.627492
H251	H	-0.201393	-0.848146	0.061734
H252	H	0.298607	-0.348146	0.561734
H253	H	-0.187343	-0.813011	0.173354
H254	H	0.312657	-0.313011	0.673354
H255	H	-0.116805	-0.886626	0.129425
H256	H	0.383195	-0.386626	0.629425
O257	O	-0.254779	-0.939734	-0.149403
O258	O	0.245221	-0.439734	0.350597
C259	C	-0.198178	-0.875197	-0.126491
C260	C	0.301822	-0.375197	0.373509
H261	H	-0.169534	-0.882808	-0.061254
H262	H	0.330466	-0.382808	0.438746
H263	H	-0.146350	-0.872354	-0.172909
H264	H	0.353650	-0.372354	0.327091
H265	H	-0.232880	-0.818243	-0.126785
H266	H	0.267120	-0.318243	0.373215
O267	O	-0.411532	-1.048670	-0.078981
O268	O	0.088468	-0.548670	0.421019
C269	C	-0.460310	-1.057700	-0.008718
C270	C	0.039690	-0.557700	0.491282
H271	H	-0.481410	-0.997660	0.014126
H272	H	0.018590	-0.497660	0.514126
H273	H	-0.517630	-1.098664	-0.026576
H274	H	-0.017630	-0.598664	0.473424
H275	H	-0.421335	-1.084079	0.043111
H276	H	0.078665	-0.584079	0.543111
