data_functionalizedCrystal
_audit_creation_method	'MofGen! by Chris Wilmer'
_symmetry_space_group_name_H-M	'P1'
_symmetry_Int_Tables_number	1
_symmetry_cell_setting	triclinic
loop_
_symmetry_equiv_pos_as_xyz
  x,y,z
_cell_length_a	25.639242
_cell_length_b	25.639240
_cell_length_c	12.594509
_cell_angle_alpha	90.041310
_cell_angle_beta	90.021966
_cell_angle_gamma	90.025061
loop_
_atom_site_label
_atom_site_type_symbol
_atom_site_fract_x
_atom_site_fract_y
_atom_site_fract_z
Zn1	Zn	0.799286	-0.208242	0.601781
Zn2	Zn	0.799207	-0.295685	0.423762
Zn3	Zn	0.711851	-0.208253	0.423808
Zn4	Zn	0.711816	-0.295637	0.601690
O5	O	0.755540	-0.251954	0.512760
O6	O	0.872441	-0.219857	0.578186
O7	O	0.787600	-0.284111	0.274822
O8	O	0.723496	-0.135087	0.447474
O9	O	0.872382	-0.284101	0.447396
O10	O	0.787735	-0.135079	0.578230
O11	O	0.723420	-0.219876	0.274856
O12	O	0.638681	-0.219830	0.447386
O13	O	0.723438	-0.284019	0.750648
O14	O	0.638656	-0.284030	0.578075
O15	O	0.787702	-0.219811	0.750715
O16	O	0.787567	-0.368844	0.447307
O17	O	0.723361	-0.368808	0.578030
C18	C	0.619697	-0.251926	0.512726
C19	C	0.561583	-0.251927	0.512737
C20	C	0.755466	-0.387797	0.512677
C21	C	0.755482	-0.445911	0.512677
C22	C	0.310428	-0.218562	0.580987
C23	C	0.365032	-0.218557	0.580981
O24	O	0.393302	-0.190167	0.639002
N25	N	0.392309	-0.251948	0.512773
C26	C	0.364979	-0.285351	0.444574
O27	O	0.393194	-0.313752	0.386557
C28	C	0.310376	-0.285358	0.444586
C29	C	0.283102	-0.251961	0.512791
C30	C	0.283154	-0.185168	0.649187
C31	C	0.228553	-0.185173	0.649192
C32	C	0.201227	-0.218571	0.580996
C33	C	0.228501	-0.251965	0.512795
C34	C	0.283047	-0.318763	0.376393
C35	C	0.228440	-0.318767	0.376412
C36	C	0.201166	-0.285370	0.444617
C37	C	0.146574	-0.285369	0.444604
N38	N	0.119297	-0.251977	0.512812
C39	C	0.146624	-0.218579	0.581008
C40	C	0.479650	-0.285333	0.444554
C41	C	0.534252	-0.285324	0.444536
C42	C	0.534302	-0.218530	0.580945
C43	C	0.479698	-0.218538	0.580957
C44	C	0.452373	-0.251942	0.512763
C45	C	0.031959	-0.218591	0.581011
C46	C	-0.022647	-0.218597	0.581007
C47	C	-0.022691	-0.285391	0.444602
C48	C	0.031909	-0.285384	0.444602
C49	C	0.059233	-0.251982	0.512816
O50	O	0.118270	-0.313746	0.386615
O51	O	0.118402	-0.190187	0.639024
C52	C	0.789005	-0.806231	0.580968
C53	C	0.789021	-0.860836	0.580990
O54	O	0.817436	-0.889036	0.638967
N55	N	0.755612	-0.888193	0.512863
C56	C	0.722183	-0.860944	0.444719
O57	O	0.693767	-0.889228	0.386775
C58	C	0.722165	-0.806341	0.444703
C59	C	0.755579	-0.778986	0.512826
C60	C	0.822417	-0.778876	0.649086
C61	C	0.822402	-0.724276	0.649063
C62	C	0.788976	-0.697030	0.580921
C63	C	0.755564	-0.724385	0.512803
C64	C	0.688733	-0.779092	0.376565
C65	C	0.688718	-0.724485	0.376555
C66	C	0.722132	-0.697130	0.444679
C67	C	0.722124	-0.642539	0.444638
N68	N	0.755532	-0.615181	0.512764
C69	C	0.788958	-0.642427	0.580906
C70	C	0.722222	-0.975615	0.444758
C71	C	0.722242	-1.030217	0.444767
C72	C	0.789079	-1.030105	0.581040
C73	C	0.789062	-0.975501	0.581024
C74	C	0.755630	-0.948257	0.512884
C75	C	0.788925	-0.527762	0.580851
C76	C	0.788908	-0.473157	0.580819
C77	C	0.722069	-0.473273	0.444550
C78	C	0.722087	-0.527874	0.444578
C79	C	0.755517	-0.555117	0.512737
O80	O	0.693722	-0.614304	0.386693
O81	O	0.817364	-0.614136	0.638850
C82	C	0.891913	-0.251983	0.512796
C83	C	0.950027	-0.251995	0.512811
C84	C	0.755575	-0.251909	0.790381
C85	C	0.755590	-0.251889	0.908687
C86	C	0.755628	-0.115581	0.512867
C87	C	0.755666	-0.057467	0.512913
C88	C	0.755535	-0.251962	0.236219
C89	C	0.755621	-0.251834	0.117915
C90	C	0.720648	-0.286792	0.977904
C91	C	0.768352	-0.299573	1.048689
C92	C	0.707923	-0.239076	1.048701
C93	C	0.803319	-0.264695	0.977914
C94	C	0.742858	-0.204176	0.977919
C95	C	0.790595	-0.216939	1.048673
H96	H	0.054199	-0.191391	0.636557
H97	H	0.667599	-0.228262	1.079795
C98	C	0.764376	-0.113055	0.973195
C99	C	0.728279	-0.149754	0.935912
H100	H	0.755368	-0.079457	0.947263
H101	H	0.798273	-0.122093	0.948997
H102	H	0.763962	-0.112723	1.048613
H103	H	0.728696	-0.150089	0.860493
H104	H	0.694373	-0.140714	0.960104
C105	C	0.144716	-0.348444	0.315851
C106	C	0.198404	-0.355487	0.301448
H107	H	0.126175	-0.371115	0.269575
H108	H	0.135778	-0.313311	0.300405
H109	H	0.135784	-0.356139	0.387340
H110	H	0.207336	-0.347788	0.229960
H111	H	0.207346	-0.390628	0.316886
C112	C	0.681500	-0.840561	0.233395
C113	C	0.651996	-0.809154	0.301696
H114	H	0.658816	-0.859117	0.187172
H115	H	0.701405	-0.864605	0.273969
H116	H	0.704281	-0.819259	0.192708
H117	H	0.629218	-0.830456	0.342388
H118	H	0.632082	-0.785107	0.261117
C119	C	0.796313	-1.091444	0.724252
C120	C	0.825819	-1.060059	0.655955
H121	H	0.818995	-1.109934	0.770501
H122	H	0.776422	-1.115545	0.683676
H123	H	0.773518	-1.070134	0.764909
H124	H	0.848611	-1.081369	0.615291
H125	H	0.845719	-1.035955	0.696535
H126	H	0.694999	-0.953435	0.389261
C127	C	0.783230	-0.353270	1.201839
C128	C	0.782910	-0.354010	1.090671
H129	H	0.792217	-0.386877	1.227753
H130	H	0.749599	-0.343947	1.227104
H131	H	0.808097	-0.328489	1.226051
H132	H	0.758040	-0.378788	1.066459
H133	H	0.816546	-0.363339	1.065396
H134	H	-0.044851	-0.191398	0.636547
H135	H	0.206352	-0.157979	0.704736
C136	C	0.656555	-0.351603	1.021670
C137	C	0.680789	-0.326697	0.935946
H138	H	0.631952	-0.376241	0.995764
H139	H	0.639175	-0.326427	1.064207
H140	H	0.682103	-0.369039	1.063167
H141	H	0.655241	-0.309257	0.894454
H142	H	0.698169	-0.351876	0.893392
H143	H	0.695038	-1.052485	0.389283
H144	H	0.054117	-0.312574	0.389055
H145	H	0.843655	-0.275555	0.946951
C146	C	0.618368	-0.663142	0.361612
C147	C	0.651968	-0.694538	0.301651
H148	H	0.595680	-0.644657	0.315367
H149	H	0.638264	-0.639035	0.402164
H150	H	0.598366	-0.684443	0.407956
H151	H	0.671973	-0.673237	0.255312
H152	H	0.632070	-0.718648	0.261081
H153	H	0.694882	-0.550148	0.389099
H154	H	0.457495	-0.191342	0.636495
C155	C	0.829938	-0.177043	1.201533
C156	C	0.830541	-0.177055	1.090361
H157	H	0.854597	-0.152417	1.227266
H158	H	0.838714	-0.210808	1.226836
H159	H	0.796096	-0.167886	1.225889
H160	H	0.864383	-0.186216	1.066004
H161	H	0.821768	-0.143282	1.065048
C162	C	0.277704	-0.119143	0.784003
C163	C	0.313185	-0.148449	0.724151
H164	H	0.296242	-0.096468	0.830276
H165	H	0.256413	-0.141952	0.824630
H166	H	0.256399	-0.099127	0.737691
H167	H	0.334488	-0.168468	0.770463
H168	H	0.334484	-0.125637	0.683521
H169	H	0.556561	-0.191336	0.636474
H170	H	0.816270	-0.953232	0.636496
C171	C	0.528705	-0.351346	0.309707
C172	C	0.564228	-0.322032	0.369557
H173	H	0.547211	-0.374012	0.263426
H174	H	0.507409	-0.328542	0.269090
H175	H	0.507409	-0.371371	0.356020
H176	H	0.585522	-0.302004	0.323244
H177	H	0.585533	-0.344839	0.410177
C178	C	0.418227	-0.355670	0.429474
C179	C	0.449617	-0.322050	0.369577
H180	H	0.399691	-0.378340	0.383186
H181	H	0.394165	-0.335788	0.470081
H182	H	0.439538	-0.375691	0.475765
H183	H	0.428305	-0.302026	0.323291
H184	H	0.473681	-0.341935	0.328952
H185	H	-0.044950	-0.312582	0.389074
C186	C	0.277490	-0.384793	0.241587
C187	C	0.313017	-0.355478	0.301424
H188	H	0.295992	-0.407463	0.195308
H189	H	0.256194	-0.361990	0.200968
H190	H	0.256194	-0.404815	0.287908
H191	H	0.334310	-0.335453	0.255103
H192	H	0.334321	-0.378284	0.342047
H193	H	0.816142	-0.549937	0.636360
C194	C	0.854974	-0.478539	0.715530
C195	C	0.825637	-0.443089	0.655711
H196	H	0.877645	-0.459976	0.761769
H197	H	0.874992	-0.499841	0.669203
H198	H	0.832182	-0.499835	0.756201
H199	H	0.848430	-0.421795	0.615034
H200	H	0.805618	-0.421778	0.702045
C201	C	0.888464	-0.729667	0.783767
C202	C	0.859128	-0.694212	0.723956
H203	H	0.911135	-0.711108	0.830010
H204	H	0.908481	-0.750967	0.737434
H205	H	0.865670	-0.750965	0.824432
H206	H	0.881922	-0.672916	0.683284
H207	H	0.839110	-0.672903	0.770294
H208	H	0.849636	-0.801054	0.704582
C209	C	0.692369	-0.389615	0.384038
C210	C	0.685326	-0.443318	0.369656
H211	H	0.669681	-0.371122	0.337809
H212	H	0.727496	-0.380652	0.368515
H213	H	0.684700	-0.380650	0.455543
H214	H	0.692999	-0.452283	0.298153
H215	H	0.650191	-0.452284	0.385172
