data_functionalizedCrystal
_audit_creation_method	'MofGen! by Chris Wilmer'
_symmetry_space_group_name_H-M	'P1'
_symmetry_Int_Tables_number	1
_symmetry_cell_setting	triclinic
loop_
_symmetry_equiv_pos_as_xyz
  x,y,z
_cell_length_a	16.120530
_cell_length_b	16.120484
_cell_length_c	21.395355
_cell_angle_alpha	87.119279
_cell_angle_beta	92.920957
_cell_angle_gamma	90.167327
loop_
_atom_site_label
_atom_site_type_symbol
_atom_site_fract_x
_atom_site_fract_y
_atom_site_fract_z
Zn1	Zn	1.254514	-0.395720	0.417083
Zn2	Zn	1.247347	-0.534752	0.317329
Zn3	Zn	1.115443	-0.388657	0.306758
Zn4	Zn	1.108366	-0.527673	0.416510
O5	O	1.181417	-0.461700	0.364420
O6	O	1.369929	-0.420081	0.408515
O7	O	1.229812	-0.515380	0.228248
O8	O	1.139852	-0.273229	0.317208
O9	O	1.364664	-0.522228	0.335226
O10	O	1.242027	-0.278418	0.398264
O11	O	1.132903	-0.408044	0.220481
O12	O	0.998138	-0.401179	0.316652
O13	O	1.127790	-0.510162	0.504265
O14	O	0.992939	-0.503313	0.397287
O15	O	1.235164	-0.413216	0.504686
O16	O	1.222950	-0.650177	0.334670
O17	O	1.120841	-0.644976	0.407537
C18	C	0.965366	-0.450712	0.355761
C19	C	0.872937	-0.446031	0.352072
C20	C	0.703709	-0.437466	0.345342
C21	C	0.659963	-0.485996	0.383546
C22	C	0.565799	-0.481230	0.379801
C23	C	0.797882	-0.442230	0.349085
C24	C	1.170373	-0.677750	0.372203
C25	C	1.165724	-0.770181	0.375557
C26	C	1.157241	-0.939413	0.381693
C27	C	1.205743	-0.983154	0.347163
C28	C	1.201023	-1.077321	0.350577
C29	C	1.161960	-0.845238	0.378280
C30	C	1.398313	-0.472732	0.373113
C31	C	1.490740	-0.477433	0.376818
C32	C	1.181487	-0.461687	0.527845
C33	C	1.181517	-0.461681	0.597488
C34	C	1.192528	-0.244808	0.356621
C35	C	1.197262	-0.152382	0.353297
C36	C	1.181399	-0.461656	0.201630
C37	C	1.181542	-0.461436	0.131986
C38	C	1.237425	-0.411200	0.630421
C39	C	1.237425	-0.411164	0.695855
C40	C	1.181526	-0.461625	0.728354
C41	C	1.125608	-0.512110	0.695413
C42	C	1.125604	-0.512138	0.629979
C43	C	1.171133	-0.536165	0.834464
C44	C	1.171143	-0.536139	0.899896
C45	C	1.181536	-0.461537	0.930172
C46	C	1.191936	-0.386961	0.895008
C47	C	1.191931	-0.386989	0.829575
C48	C	1.181525	-0.461600	0.799306
C49	C	1.237447	-0.411012	1.034056
C50	C	1.237442	-0.410975	1.099491
C51	C	1.125629	-0.511929	1.099048
C52	C	1.125630	-0.511959	1.033614
C53	C	1.181544	-0.461502	1.001122
H54	H	0.670444	-0.392342	0.309824
Cl55	Cl	1.087661	-0.990782	0.431288
H56	H	0.693230	-0.531123	0.419067
H57	H	1.250810	-0.949881	0.315037
H58	H	1.282953	-0.370113	0.603970
H59	H	1.282950	-0.370051	0.722674
H60	H	1.200397	-0.326267	0.800947
H61	H	1.200400	-0.326214	0.919657
Cl62	Cl	1.307733	-0.347578	0.993206
H63	H	1.282968	-0.369862	1.126304
Cl64	Cl	1.055348	-0.575359	1.139898
H65	H	1.080109	-0.553072	1.006800
Cl66	Cl	1.158077	-0.629891	0.944095
Cl67	Cl	1.158091	-0.629963	0.796410
Cl68	Cl	1.055332	-0.575544	0.736268
Cl69	Cl	1.055314	-0.575607	0.588575
