data_functionalizedCrystal
_audit_creation_method	'MofGen! by Chris Wilmer'
_symmetry_space_group_name_H-M	'P1'
_symmetry_Int_Tables_number	1
_symmetry_cell_setting	triclinic
loop_
_symmetry_equiv_pos_as_xyz
  x,y,z
_cell_length_a	16.109301
_cell_length_b	10.654541
_cell_length_c	15.186229
_cell_angle_alpha	89.996481
_cell_angle_beta	89.999362
_cell_angle_gamma	83.972705
loop_
_atom_site_label
_atom_site_type_symbol
_atom_site_fract_x
_atom_site_fract_y
_atom_site_fract_z
O1	O	1.104089	0.161419	-0.073172
O2	O	0.862147	0.181508	-0.073186
O3	O	0.988682	-0.011352	-0.073174
O4	O	0.977554	0.354278	-0.073185
O5	O	0.988673	-0.011354	0.073284
O6	O	0.862138	0.181505	0.073271
O7	O	1.104081	0.161416	0.073285
Zn8	Zn	0.983108	0.171460	0.096531
Zn9	Zn	0.983119	0.171464	-0.096433
O10	O	0.977546	0.354276	0.073272
C11	C	0.831163	0.180692	0.000040
C12	C	0.738853	0.178253	0.000035
C13	C	0.517227	0.287019	0.000042
C14	C	0.430493	0.284717	0.000048
C15	C	0.449008	0.055896	0.000051
C16	C	0.535740	0.058200	0.000052
C17	C	0.569847	0.173765	0.000043
C18	C	0.396381	0.169159	0.000048
C19	C	0.302340	0.166662	0.000054
C20	C	0.663894	0.176262	0.000038
C21	C	0.987861	-0.058140	0.000054
C22	C	0.985418	-0.197550	0.000053
C23	C	1.136725	-0.227574	0.000073
C24	C	1.211227	-0.308079	0.000084
C25	C	1.208926	-0.439066	0.000081
C26	C	1.132115	-0.489549	0.000064
C27	C	1.057613	-0.409044	0.000053
C28	C	1.059922	-0.278056	0.000058
C29	C	0.906308	-0.379021	0.000026
C30	C	0.908607	-0.248034	0.000036
C31	C	0.829496	-0.429504	0.000009
C32	C	0.754992	-0.348998	0.000004
C33	C	0.757296	-0.218004	0.000008
C34	C	0.834104	-0.167529	0.000024
C35	C	1.135065	0.162231	0.000056
C36	C	1.227375	0.164671	0.000055
C37	C	0.978367	0.401064	0.000042
C38	C	0.980810	0.540474	0.000038
N39	N	0.983107	0.171457	0.228224
N40	N	0.983128	0.171457	-0.228125
C41	C	1.039156	0.086088	0.453952
C42	C	1.039158	0.086085	0.546142
C43	C	0.927072	0.256830	0.546140
C44	C	0.927066	0.256826	0.453952
C45	C	0.983113	0.171456	0.407860
C46	C	0.983121	0.171458	0.592238
C47	C	0.983124	0.171455	0.692194
C48	C	0.983110	0.171457	0.307898
H49	H	1.273765	-0.266961	0.000106
H50	H	1.084792	0.016568	0.583667
H51	H	0.835988	-0.060874	0.000032
H52	H	0.421227	-0.038193	0.000064
H53	H	0.692459	-0.390113	-0.000016
O54	O	0.550458	0.399195	0.000156
C55	C	0.600058	0.407383	0.076018
H56	H	0.621090	0.308392	0.101306
H57	H	0.657130	0.457425	0.058956
H58	H	0.562064	0.462950	0.129132
O59	O	0.827367	-0.556764	-0.000112
C60	C	0.868091	-0.608753	-0.075966
H61	H	0.913598	-0.542032	-0.101246
H62	H	0.903738	-0.703765	-0.058900
H63	H	0.819868	-0.622501	-0.129090
H64	H	0.578586	-0.034032	0.000055
O65	O	0.379497	0.394849	0.000005
C66	C	0.428203	0.497336	0.000021
H67	H	0.492742	0.465435	-0.027708
H68	H	0.396669	0.576689	-0.042501
H69	H	0.434583	0.532757	0.070282
H70	H	1.138606	-0.120919	0.000087
H71	H	0.881442	0.326339	0.583677
O72	O	0.684845	-0.139984	0.000033
C73	C	0.616564	-0.212637	-0.000009
H74	H	0.637098	-0.310412	0.027720
H75	H	0.564307	-0.164302	0.042501
H76	H	0.593073	-0.221945	-0.070278
H77	H	1.269593	-0.504614	0.000084
O78	O	1.129987	-0.616810	-0.000064
C79	C	1.170707	-0.668781	-0.075926
H80	H	1.216211	-0.602053	-0.101202
H81	H	1.206357	-0.763795	-0.058870
H82	H	1.122480	-0.682522	-0.129047
O83	O	0.872707	0.339935	0.409213
C84	C	0.886923	0.464260	0.431744
H85	H	0.953490	0.464906	0.457081
H86	H	0.877719	0.527277	0.371113
H87	H	0.841057	0.501131	0.485255
O88	O	1.093622	0.003034	0.409315
C89	C	1.143100	-0.072295	0.469770
H90	H	1.109009	-0.073721	0.535488
H91	H	1.155203	-0.172584	0.443141
H92	H	1.205095	-0.031494	0.479567
