data_functionalizedCrystal
_audit_creation_method	'MofGen! by Chris Wilmer'
_symmetry_space_group_name_H-M	'P1'
_symmetry_Int_Tables_number	1
_symmetry_cell_setting	triclinic
loop_
_symmetry_equiv_pos_as_xyz
  x,y,z
_cell_length_a	14.044209
_cell_length_b	10.723024
_cell_length_c	9.798715
_cell_angle_alpha	89.996597
_cell_angle_beta	89.993913
_cell_angle_gamma	88.827911
loop_
_atom_site_label
_atom_site_type_symbol
_atom_site_fract_x
_atom_site_fract_y
_atom_site_fract_z
O1	O	-0.133040	-1.670496	0.113492
O2	O	-0.145775	-1.308618	0.113498
O3	O	-0.001388	-1.484127	0.113476
O4	O	-0.277428	-1.494987	0.113514
O5	O	-0.001386	-1.484112	-0.113507
O6	O	-0.145774	-1.308603	-0.113484
O7	O	-0.133039	-1.670482	-0.113490
Zn8	Zn	-0.139406	-1.489540	-0.149526
Zn9	Zn	-0.139408	-1.489559	0.149533
O10	O	-0.277427	-1.494973	-0.113468
C11	C	0.033958	-1.479364	-0.000018
C12	C	0.139277	-1.465181	-0.000024
C13	C	-0.144848	-1.262018	0.000007
C14	C	-0.142075	-1.123187	0.000008
C15	C	-0.133966	-1.717081	0.000004
C16	C	-0.136739	-1.855913	0.000011
C17	C	0.332107	-1.439251	-0.000012
C18	C	0.389086	-1.539853	-0.000011
C19	C	0.496383	-1.525426	-0.000005
C20	C	0.224799	-1.453677	-0.000018
C21	C	0.687228	-1.499738	0.000017
C22	C	0.581910	-1.513929	0.000000
N23	N	-0.139405	-1.489537	-0.353625
C24	C	-0.222867	-1.056286	0.000021
C25	C	-0.220003	-0.912796	0.000022
C26	C	-0.194408	-1.567804	-0.421396
C27	C	-0.194407	-1.567824	-0.578559
N28	N	-0.139402	-1.489572	0.353633
H29	H	0.357284	-1.636818	0.000080
Cl30	Cl	0.381203	-1.289554	-0.000005
H31	H	-0.070786	-1.074233	0.000033
H32	H	-0.241495	-1.634801	-0.363065
H33	H	-0.241503	-1.634825	-0.636840
H34	H	-0.067572	-0.913419	0.000009
H35	H	-0.289166	-0.855282	0.000038
H36	H	-0.092311	-1.422547	-0.411956
H37	H	-0.294155	-1.105240	0.000023
Cl38	Cl	-0.066697	-1.386102	-0.556402
