data_functionalizedCrystal
_audit_creation_method	'MofGen! by Chris Wilmer'
_symmetry_space_group_name_H-M	'P1'
_symmetry_Int_Tables_number	1
_symmetry_cell_setting	triclinic
loop_
_symmetry_equiv_pos_as_xyz
  x,y,z
_cell_length_a	17.077404
_cell_length_b	18.050589
_cell_length_c	17.077395
_cell_angle_alpha	89.976617
_cell_angle_beta	89.984359
_cell_angle_gamma	90.028446
loop_
_atom_site_label
_atom_site_type_symbol
_atom_site_fract_x
_atom_site_fract_y
_atom_site_fract_z
Zn1	Zn	1.199996	-0.295664	-0.443864
Zn2	Zn	1.533329	0.037669	-0.110530
Zn3	Zn	1.866662	0.371002	0.222803
Zn4	Zn	1.199899	-0.419859	-0.312606
Zn5	Zn	1.533233	-0.086525	0.020727
Zn6	Zn	1.866566	0.246808	0.354060
Zn7	Zn	1.068736	-0.295688	-0.312612
Zn8	Zn	1.402070	0.037646	0.020722
Zn9	Zn	1.735403	0.370979	0.354055
Zn10	Zn	1.068683	-0.419817	-0.443830
Zn11	Zn	1.402017	-0.086484	-0.110497
Zn12	Zn	1.735350	0.246849	0.222837
O13	O	1.134329	-0.357757	-0.378228
O14	O	1.467662	-0.024424	-0.044895
O15	O	1.800995	0.308910	0.288439
O16	O	1.309830	-0.312146	-0.426464
O17	O	1.643163	0.021187	-0.093131
O18	O	1.976496	0.354520	0.240203
O19	O	1.182482	-0.403414	-0.202760
O20	O	1.515816	-0.070081	0.130573
O21	O	1.849149	0.263252	0.463907
O22	O	1.086211	-0.191760	-0.330039
O23	O	1.419544	0.141573	0.003295
O24	O	1.752877	0.474907	0.336628
O25	O	1.309759	-0.403392	-0.330030
O26	O	1.643092	-0.070058	0.003303
O27	O	1.976426	0.263275	0.336637
O28	O	1.182646	-0.191743	-0.426469
O29	O	1.515980	0.141591	-0.093136
O30	O	1.849313	0.474924	0.240198
O31	O	1.086117	-0.312186	-0.202764
O32	O	1.419451	0.021147	0.130569
O33	O	1.752784	0.354480	0.463903
O34	O	0.958882	-0.312146	-0.330006
O35	O	1.292216	0.021187	0.003327
O36	O	1.625549	0.354521	0.336661
O37	O	1.086120	-0.403321	-0.553681
O38	O	1.419453	-0.069988	-0.220348
O39	O	1.752787	0.263346	0.112985
O40	O	0.958843	-0.403344	-0.426412
O41	O	1.292177	-0.070010	-0.093078
O42	O	1.625510	0.263323	0.240255
O43	O	1.182595	-0.312106	-0.553706
O44	O	1.515928	0.021227	-0.220373
O45	O	1.849262	0.354560	0.112961
O46	O	1.182431	-0.523778	-0.329997
O47	O	1.515764	-0.190445	0.003336
O48	O	1.849097	0.142889	0.336669
O49	O	1.086027	-0.523748	-0.426407
O50	O	1.419360	-0.190414	-0.093073
O51	O	1.752693	0.142919	0.240260
C52	C	0.930381	-0.357744	-0.378206
C53	C	1.263714	-0.024410	-0.044873
C54	C	1.597047	0.308923	0.288460
C55	C	0.843131	-0.357756	-0.378216
C56	C	1.176464	-0.024422	-0.044882
C57	C	1.509798	0.308911	0.288451
C58	C	0.802141	-0.405314	-0.428333
C59	C	1.135474	-0.071981	-0.095000
C60	C	1.468808	0.261353	0.238333
C61	C	0.720161	-0.405316	-0.428346
C62	C	1.053494	-0.071982	-0.095013
C63	C	1.386827	0.261351	0.238321
C64	C	0.679172	-0.357762	-0.378236
C65	C	1.012505	-0.024429	-0.044903
C66	C	1.345838	0.308905	0.288431
C67	C	0.720167	-0.310199	-0.328116
C68	C	1.053501	0.023135	0.005217
C69	C	1.386834	0.356468	0.338551
C70	C	0.802146	-0.310194	-0.328108
C71	C	1.135480	0.023140	0.005225
C72	C	1.468813	0.356473	0.338559
C73	C	0.549297	-0.310213	-0.328135
C74	C	0.882631	0.023120	0.005198
C75	C	1.215964	0.356453	0.338532
C76	C	0.467313	-0.310219	-0.328142
C77	C	0.800646	0.023115	0.005192
C78	C	1.133979	0.356448	0.338525
C79	C	0.467312	-0.405335	-0.428373
C80	C	0.800645	-0.072002	-0.095040
C81	C	1.133978	0.261332	0.238294
C82	C	0.549291	-0.405330	-0.428365
C83	C	0.882624	-0.071997	-0.095032
C84	C	1.215957	0.261337	0.238302
C85	C	0.590281	-0.357767	-0.378244
C86	C	0.923614	-0.024434	-0.044910
C87	C	1.256947	0.308899	0.288423
C88	C	1.134234	-0.550709	-0.378215
C89	C	1.467567	-0.217376	-0.044882
C90	C	1.800901	0.115958	0.288452
C91	C	1.134265	-0.633255	-0.378236
C92	C	1.467598	-0.299922	-0.044902
C93	C	1.800932	0.033412	0.288431
C94	C	1.081892	-0.832716	-0.430645
C95	C	1.415226	-0.499383	-0.097311
C96	C	1.748559	-0.166049	0.236022
C97	C	1.062762	-0.882156	-0.359016
C98	C	1.396095	-0.548823	-0.025682
C99	C	1.729429	-0.215489	0.307651
C100	C	1.134342	-0.784385	-0.378246
C101	C	1.467676	-0.451052	-0.044912
C102	C	1.801009	-0.117719	0.288421
C103	C	1.153511	-0.882027	-0.449883
C104	C	1.486844	-0.548693	-0.116550
C105	C	1.820178	-0.215360	0.216784
C106	C	1.134415	-0.930370	-0.378262
C107	C	1.467749	-0.597037	-0.044929
C108	C	1.801082	-0.263704	0.288405
C109	C	1.115174	-0.832738	-0.306579
C110	C	1.448508	-0.499405	0.026755
C111	C	1.781841	-0.166072	0.360088
C112	C	1.205957	-0.832604	-0.397495
C113	C	1.539290	-0.499271	-0.064161
C114	C	1.872623	-0.165938	0.269172
C115	C	1.186854	-0.882022	-0.325816
C116	C	1.520187	-0.548689	0.007517
C117	C	1.853520	-0.215356	0.340851
C118	C	1.134298	-0.700287	-0.378238
C119	C	1.467632	-0.366954	-0.044904
C120	C	1.800965	-0.033620	0.288429
C121	C	1.134459	-1.014467	-0.378262
C122	C	1.467793	-0.681133	-0.044929
C123	C	1.801126	-0.347800	0.288404
C124	C	1.339073	-0.357771	-0.378250
C125	C	1.672406	-0.024438	-0.044917
C126	C	2.005740	0.308896	0.288417
C127	C	1.426323	-0.357777	-0.378260
C128	C	1.759656	-0.024444	-0.044926
C129	C	2.092989	0.308890	0.288407
C130	C	1.134362	-0.357707	-0.582972
C131	C	1.467696	-0.024373	-0.249639
C132	C	1.801029	0.308960	0.083694
C133	C	1.134377	-0.357685	-0.670222
C134	C	1.467710	-0.024352	-0.336889
C135	C	1.801043	0.308982	-0.003555
C136	C	1.134445	-0.164051	-0.378258
C137	C	1.467778	0.169282	-0.044925
C138	C	1.801112	0.502615	0.288408
C139	C	1.134495	-0.081506	-0.378271
C140	C	1.467828	0.251828	-0.044938
C141	C	1.801161	0.585161	0.288396
C142	C	1.184698	-0.310089	-1.046051
C143	C	1.518031	0.023245	-0.712718
C144	C	1.851365	0.356578	-0.379384
C145	C	1.184682	-0.310115	-0.964070
C146	C	1.518015	0.023219	-0.630737
C147	C	1.851349	0.356552	-0.297404
C148	C	1.134441	-0.357615	-0.923071
C149	C	1.467775	-0.024281	-0.589738
C150	C	1.801108	0.309052	-0.256405
C151	C	1.084219	-0.405097	-0.964057
C152	C	1.417552	-0.071764	-0.630723
C153	C	1.750886	0.261569	-0.297390
C154	C	1.084240	-0.405074	-1.046036
C155	C	1.417573	-0.071741	-0.712702
C156	C	1.750906	0.261592	-0.379369
C157	C	1.084178	-0.405140	-0.793187
C158	C	1.417512	-0.071807	-0.459853
C159	C	1.750845	0.261526	-0.126520
C160	C	1.084157	-0.405162	-0.711202
C161	C	1.417490	-0.071829	-0.377869
C162	C	1.750823	0.261504	-0.044535
C163	C	1.184621	-0.310181	-0.711221
C164	C	1.517954	0.023153	-0.377888
C165	C	1.851288	0.356486	-0.044555
C166	C	1.184641	-0.310158	-0.793200
C167	C	1.517975	0.023176	-0.459867
C168	C	1.851308	0.356509	-0.126534
C169	C	1.134418	-0.357639	-0.834180
C170	C	1.467751	-0.024306	-0.500847
C171	C	1.801084	0.309027	-0.167513
C172	C	1.134340	-0.357754	-0.174280
C173	C	1.467674	-0.024420	0.159053
C174	C	1.801007	0.308913	0.492387
C175	C	1.134478	-0.357566	-0.087031
C176	C	1.467811	-0.024233	0.246303
C177	C	1.801145	0.309101	0.579636
H178	H	0.835508	-0.444040	-0.469136
H179	H	1.168842	-0.110707	-0.135803
H180	H	1.502175	0.222627	0.197530
F181	F	0.983644	-0.910603	-0.337736
F182	F	1.316977	-0.577270	-0.004403
F183	F	1.650310	-0.243937	0.328931
F184	F	0.676541	-0.259584	-0.274790
F185	F	1.009875	0.073750	0.058543
F186	F	1.343208	0.407083	0.391877
H187	H	1.231240	-0.903536	-0.281460
H188	H	1.564574	-0.570202	0.051873
H189	H	1.897907	-0.236869	0.385207
H190	H	1.098920	-0.811177	-0.245986
H191	H	1.432254	-0.477844	0.087348
H192	H	1.765587	-0.144510	0.420681
F193	F	0.423690	-0.259610	-0.274806
F194	F	0.757024	0.073723	0.058527
F195	F	1.090357	0.407057	0.391861
H196	H	0.582669	-0.271476	-0.287328
H197	H	0.916002	0.061857	0.046006
H198	H	1.249335	0.395191	0.379339
F199	F	1.030688	-0.455720	-0.667569
F200	F	1.364022	-0.122387	-0.334236
F201	F	1.697355	0.210946	-0.000902
F202	F	0.845770	-0.259574	-0.274767
F203	F	1.179104	0.073759	0.058566
F204	F	1.512437	0.407092	0.391899
F205	F	1.030725	-0.455677	-0.836799
F206	F	1.364058	-0.122343	-0.503465
F207	F	1.697392	0.210990	-0.170132
F208	F	1.285054	-0.804135	-0.418800
F209	F	1.618387	-0.470801	-0.085467
F210	F	1.951720	-0.137468	0.247867
F211	F	1.174664	-0.910329	-0.529059
F212	F	1.507997	-0.576995	-0.195726
F213	F	1.841331	-0.243662	0.137607
F214	F	1.238165	-0.259525	-1.089678
F215	F	1.571498	0.073809	-0.756345
F216	F	1.904832	0.407142	-0.423011
F217	F	1.030790	-0.455608	-1.089649
F218	F	1.364123	-0.122274	-0.756316
F219	F	1.697456	0.211059	-0.422982
F220	F	1.238134	-0.259583	-0.920460
F221	F	1.571467	0.073750	-0.587127
F222	F	1.904801	0.407083	-0.253793
H223	H	1.225549	-0.271476	-0.826580
H224	H	1.558882	0.061858	-0.493246
H225	H	1.892215	0.395191	-0.159913
F226	F	1.023834	-0.804416	-0.488483
F227	F	1.357167	-0.471082	-0.155149
F228	F	1.690501	-0.137749	0.178184
H229	H	1.043316	-0.443776	-0.930669
H230	H	1.376649	-0.110443	-0.597335
H231	H	1.709982	0.222891	-0.264002
F232	F	0.676540	-0.455933	-0.481689
F233	F	1.009873	-0.122600	-0.148355
F234	F	1.343206	0.210733	0.184978
F235	F	0.592913	-0.455947	-0.481692
F236	F	0.926246	-0.122613	-0.148359
F237	F	1.259579	0.210720	0.184974
H238	H	0.433934	-0.444060	-0.469186
H239	H	0.767267	-0.110727	-0.135853
H240	H	1.100600	0.222607	0.197481
F241	F	1.238091	-0.259663	-0.667607
F242	F	1.571424	0.073670	-0.334273
F243	F	1.904757	0.407003	-0.000940
