data_functionalizedCrystal
_audit_creation_method	'MofGen! by Chris Wilmer'
_symmetry_space_group_name_H-M	'P1'
_symmetry_Int_Tables_number	1
_symmetry_cell_setting	triclinic
loop_
_symmetry_equiv_pos_as_xyz
  x,y,z
_cell_length_a	6.817900
_cell_length_b	12.840933
_cell_length_c	11.102294
_cell_angle_alpha	82.594392
_cell_angle_beta	70.616071
_cell_angle_gamma	88.345099
loop_
_atom_site_label
_atom_site_type_symbol
_atom_site_fract_x
_atom_site_fract_y
_atom_site_fract_z
V1	V	-3.926372	0.283510	0.178836
O2	O	-3.887439	0.320309	-0.005513
O3	O	-3.905850	0.240989	0.351639
O4	O	-3.821746	0.425673	0.177437
O5	O	-3.972125	0.134346	0.169895
V6	V	-4.413674	0.270599	0.156626
O7	O	-4.179343	0.311832	0.227556
O8	O	-4.610901	0.242277	0.107907
O9	O	-4.210990	0.313120	-0.016177
O10	O	-4.570004	0.233800	0.340975
O11	O	-4.485318	0.419763	0.165567
O12	O	-4.295094	0.128436	0.158025
C13	C	-3.759451	0.226045	0.393722
C14	C	-3.823584	0.192227	0.535000
C15	C	-3.652179	0.461628	0.171504
C16	C	-3.648026	0.579760	0.171502
C17	C	-4.128002	0.092476	0.163955
C18	C	-4.111005	-0.025656	0.163954
V19	V	-3.909322	0.769672	0.178845
O20	O	-3.944456	0.922964	0.169902
O21	O	-3.814843	0.622815	0.177447
O22	O	-3.887260	0.770780	0.351645
O23	O	-3.871537	0.773974	-0.005503
V24	V	-4.394679	0.812295	0.156642
O25	O	-4.164231	0.742784	0.227568
O26	O	-4.589174	0.861868	0.107925
O27	O	-4.266345	0.947906	0.158037
O28	O	-4.476735	0.664919	0.165587
O29	O	-4.549654	0.813909	0.340992
O30	O	-4.193927	0.799940	-0.016162
C31	C	-4.020732	0.328059	-0.058254
C32	C	-3.935836	0.361884	-0.199529
C33	C	-3.740411	0.768503	0.393719
C34	C	-3.803208	0.772550	0.534994
C35	C	-4.004708	0.785252	-0.058248
C36	C	-3.921187	0.780169	-0.199526
C37	C	-4.034799	0.180035	0.607873
C38	C	-4.095087	0.148274	0.740623
C39	C	-3.944157	0.128699	0.800494
C40	C	-3.732924	0.140896	0.727611
C41	C	-3.672639	0.172664	0.594866
C42	C	-4.013778	0.778375	0.607891
C43	C	-4.072769	0.782188	0.740631
C44	C	-3.710599	0.774346	0.727568
C45	C	-3.651610	0.770541	0.594828
C46	C	-4.222875	0.782899	0.615434
C47	C	-4.281866	0.786711	0.748175
C48	C	-4.069607	0.374079	-0.272402
C49	C	-3.989861	0.405845	-0.405150
C50	C	-3.776344	0.425422	-0.465022
C51	C	-3.642564	0.413222	-0.392140
C52	C	-3.722309	0.381450	-0.259396
H53	H	-4.157722	0.195963	0.559143
H54	H	-3.993272	0.102832	0.908585
F55	F	-4.319905	0.135294	0.818166
H56	H	-3.711438	0.451292	-0.573112
F57	F	-3.572313	0.120056	0.791349
H58	H	-3.468712	0.429166	-0.440907
F59	F	-3.579910	0.368478	-0.181851
H60	H	-3.500646	0.182582	0.535540
H61	H	-4.243470	0.358144	-0.223673
F62	F	-3.427495	0.764357	0.517248
H63	H	-4.277908	0.856599	0.567690
F64	F	-3.549273	0.772209	0.791259
H65	H	-4.279000	0.707810	0.591685
H66	H	-4.355509	0.864614	0.776601
H67	H	-4.387401	0.716485	0.801715
F68	F	-4.132273	0.418825	-0.482693
