data_functionalizedCrystal
_audit_creation_method	'MofGen! by Chris Wilmer'
_symmetry_space_group_name_H-M	'P1'
_symmetry_Int_Tables_number	1
_symmetry_cell_setting	triclinic
loop_
_symmetry_equiv_pos_as_xyz
  x,y,z
_cell_length_a	18.215407
_cell_length_b	18.215405
_cell_length_c	18.215399
_cell_angle_alpha	90.032960
_cell_angle_beta	90.014769
_cell_angle_gamma	90.020505
loop_
_atom_site_label
_atom_site_type_symbol
_atom_site_fract_x
_atom_site_fract_y
_atom_site_fract_z
Zn1	Zn	-1.125050	0.293060	-0.416062
Zn2	Zn	-1.124965	0.416137	-0.292990
Zn3	Zn	-1.001989	0.293079	-0.293014
Zn4	Zn	-1.001949	0.416080	-0.416020
O5	O	-1.063488	0.354589	-0.354521
O6	O	-1.228023	0.309402	-0.399744
O7	O	-1.108633	0.399844	-0.190009
O8	O	-1.018366	0.190092	-0.309364
O9	O	-1.227960	0.399826	-0.309324
O10	O	-1.108778	0.190079	-0.399767
O11	O	-1.018283	0.309435	-0.190026
O12	O	-0.898999	0.309380	-0.309323
O13	O	-1.018297	0.399730	-0.519010
O14	O	-0.898970	0.399748	-0.399695
O15	O	-1.108739	0.309348	-0.519041
O16	O	-1.108594	0.519114	-0.309283
O17	O	-1.018214	0.519072	-0.399672
C18	C	-0.872282	0.354560	-0.354507
C19	C	-0.790483	0.354566	-0.354519
C20	C	-0.602321	0.307573	-0.401674
C21	C	-0.525462	0.307577	-0.401675
C22	C	-0.525408	0.401594	-0.307375
C23	C	-0.602265	0.401586	-0.307370
C24	C	-0.640720	0.354577	-0.354523
C25	C	-0.487003	0.354589	-0.354530
C26	C	-0.403670	0.354593	-0.354532
C27	C	-0.724058	0.354571	-0.354521
C28	C	-1.063410	0.545795	-0.354486
C29	C	-1.063445	0.627594	-0.354496
C30	C	-0.255441	0.354611	-0.354534
C31	C	-0.337240	0.354599	-0.354535
C32	C	-1.063523	0.354530	-0.546474
C33	C	-1.063538	0.354505	-0.628273
C34	C	-1.063586	0.162636	-0.354573
C35	C	-1.063628	0.080837	-0.354595
C36	C	-1.110616	0.815785	-0.307517
C37	C	-1.110649	0.892644	-0.307534
C38	C	-1.016455	0.892641	-0.401579
C39	C	-1.016426	0.815784	-0.401565
C40	C	-1.063505	0.777358	-0.354529
C41	C	-1.063567	0.931074	-0.354562
C42	C	-1.063602	1.014407	-0.354581
C43	C	-1.063471	0.694019	-0.354510
C44	C	-1.016532	0.307397	-0.816477
C45	C	-1.016545	0.307382	-0.893336
C46	C	-1.110631	0.401526	-0.893307
C47	C	-1.110614	0.401544	-0.816450
C48	C	-1.063566	0.354475	-0.778037
C49	C	-1.063596	0.354442	-0.931753
C50	C	-1.063610	0.354427	-1.015087
C51	C	-1.063550	0.354492	-0.694698
C52	C	-1.063496	0.354595	-0.163315
C53	C	-1.063624	0.354412	-0.081517
H54	H	-0.633530	0.439862	-0.268971
H55	H	-1.149011	0.923929	-0.269253
H56	H	-0.978222	0.269071	-0.785204
H57	H	-0.633628	0.269293	-0.440066
C58	C	-0.964800	0.255607	-0.935621
H59	H	-0.971538	0.262345	-0.986896
H60	H	-0.975581	0.206161	-0.923050
H61	H	-0.915347	0.266389	-0.923011
H62	H	-0.978123	0.923936	-0.439873
C63	C	-1.162387	0.453290	-0.935564
H64	H	-1.155667	0.446532	-0.986843
H65	H	-1.151594	0.502739	-0.922953
H66	H	-1.211838	0.442521	-0.922971
C67	C	-0.483226	0.255877	-0.453544
H68	H	-0.517138	0.227885	-0.481628
H69	H	-0.453243	0.223778	-0.425455
H70	H	-0.453248	0.284077	-0.485562
C71	C	-1.162400	0.773516	-0.255782
H72	H	-1.155631	0.722238	-0.262499
H73	H	-1.211845	0.786065	-0.266597
H74	H	-1.151659	0.786161	-0.206327
C75	C	-0.964601	0.773510	-0.453280
H76	H	-0.936559	0.807402	-0.481287
H77	H	-0.992721	0.743483	-0.485364
H78	H	-0.932542	0.743574	-0.425087
C79	C	-1.162355	0.453331	-0.774163
H80	H	-1.190385	0.481353	-0.808046
H81	H	-1.134180	0.485399	-0.744168
H82	H	-1.194428	0.425184	-0.744192
H83	H	-0.494089	0.439868	-0.268985
