data_functionalizedCrystal
_audit_creation_method	'MofGen! by Chris Wilmer'
_symmetry_space_group_name_H-M	'P1'
_symmetry_Int_Tables_number	1
_symmetry_cell_setting	triclinic
loop_
_symmetry_equiv_pos_as_xyz
  x,y,z
_cell_length_a	19.188925
_cell_length_b	19.188930
_cell_length_c	11.892095
_cell_angle_alpha	93.870839
_cell_angle_beta	86.113334
_cell_angle_gamma	83.143665
loop_
_atom_site_label
_atom_site_type_symbol
_atom_site_fract_x
_atom_site_fract_y
_atom_site_fract_z
O1	O	0.930627	0.082670	-0.094040
O2	O	0.727315	0.094409	-0.094038
O3	O	0.834837	-0.013115	-0.094017
O4	O	0.823105	0.190194	-0.094061
O5	O	0.825872	-0.004164	0.093989
O6	O	0.718350	0.103360	0.093967
O7	O	0.921662	0.091622	0.093966
Zn8	Zn	0.818583	0.098912	0.123817
Zn9	Zn	0.830394	0.087118	-0.123889
O10	O	0.814140	0.199146	0.093945
C11	C	0.696821	0.098505	-0.000035
C12	C	0.619317	0.097366	-0.000034
C13	C	0.057547	0.152829	-0.000048
C14	C	0.130371	0.153905	-0.000055
C15	C	0.175304	0.090814	-0.000039
C16	C	0.147411	0.026640	-0.000046
C17	C	0.074589	0.025565	-0.000051
N18	N	0.292929	0.048185	0.063970
N19	N	0.362106	0.049211	0.063977
C20	C	0.394713	0.094049	-0.000026
N21	N	0.355527	0.137833	-0.064022
N22	N	0.286343	0.136810	-0.064024
C23	C	0.254268	0.091972	-0.000034
C24	C	0.501562	0.159385	-0.000034
C25	C	0.574388	0.160458	-0.000047
C26	C	0.591426	0.033192	-0.000027
C27	C	0.518602	0.032120	-0.000025
C28	C	0.473674	0.095218	-0.000023
C29	C	0.829974	-0.034650	-0.000011
C30	C	0.828833	-0.112154	-0.000001
C31	C	0.891924	-0.157079	0.000004
C32	C	0.890853	-0.229904	-0.000014
C33	C	0.826687	-0.257799	-0.000015
C34	C	0.763588	-0.212865	-0.000026
C35	C	0.764661	-0.140042	-0.000019
N36	N	0.774588	-0.362757	0.063968
N37	N	0.773573	-0.431936	0.063964
C38	C	0.823450	-0.477209	-0.000038
N39	N	0.874390	-0.450691	-0.064020
N40	N	0.875407	-0.381506	-0.064011
C41	C	0.825516	-0.336762	-0.000023
C42	C	0.885384	-0.601099	-0.000054
C43	C	0.884311	-0.673925	-0.000079
C44	C	0.757043	-0.656884	-0.000079
C45	C	0.758119	-0.584060	-0.000066
C46	C	0.822291	-0.556172	-0.000047
C47	C	0.952156	0.087525	-0.000040
C48	C	1.029661	0.088664	-0.000049
C49	C	0.819003	0.220681	-0.000064
C50	C	0.820144	0.298184	-0.000081
N51	N	0.810526	0.106961	0.292869
N52	N	0.838456	0.079064	-0.292942
C53	C	0.894514	0.023019	0.529534
C54	C	0.888888	0.028650	0.647874
C55	C	0.793645	0.123850	0.647894
C56	C	0.799271	0.118219	0.529553
C57	C	0.849708	0.067802	0.470377
C58	C	0.855337	0.062175	0.352034
C59	C	0.760092	0.157371	0.352055
C60	C	0.754466	0.163002	0.470396
H61	H	0.464980	0.210763	-0.000035
H62	H	0.706743	-0.547481	-0.000063
C63	C	0.910816	0.006725	0.286936
H64	H	0.907757	0.009790	0.207984
H65	H	0.902458	-0.038932	0.306338
H66	H	0.956468	0.015120	0.306317
H67	H	0.752577	0.164893	0.696090
C68	C	0.605066	0.231041	-0.000055
H69	H	0.654872	0.222645	-0.000068
H70	H	0.586507	0.260129	0.065504
H71	H	0.592756	0.253889	-0.065627
C72	C	0.196834	-0.042758	-0.000024
H73	H	0.244198	-0.032928	-0.000009
H74	H	0.191531	-0.072200	-0.065583
H75	H	0.185269	-0.065957	0.065549
C76	C	0.043909	-0.045017	-0.000049
H77	H	-0.005896	-0.036621	-0.000060
H78	H	0.056217	-0.067871	0.065512
H79	H	0.062470	-0.074102	-0.065619
C80	C	0.710803	0.206638	0.286986
H81	H	0.679965	0.237472	0.339182
H82	H	0.684011	0.179404	0.240831
H83	H	0.738032	0.233444	0.240814
C84	C	0.695260	-0.090620	-0.000022
H85	H	0.705090	-0.043255	-0.000023
H86	H	0.665809	-0.095940	0.065534
H87	H	0.672071	-0.102167	-0.065598
H88	H	0.628011	-0.018179	-0.000023
C89	C	0.487924	-0.038462	-0.000007
H90	H	0.525113	-0.075883	0.000011
H91	H	0.462997	-0.044649	-0.065567
H92	H	0.456744	-0.038403	0.065564
H93	H	0.020971	0.204209	-0.000052
H94	H	0.153080	0.206158	-0.000043
H95	H	0.944178	-0.134378	0.000015
C96	C	0.960255	-0.279330	-0.000001
H97	H	0.998626	-0.252290	0.000018
H98	H	0.965612	-0.311209	-0.065561
H99	H	0.959346	-0.304973	0.065571
H100	H	0.935586	-0.018028	0.481352
H101	H	0.925372	-0.007818	0.696037
H102	H	0.937637	-0.578392	-0.000044
C103	C	0.953714	-0.723343	-0.000071
H104	H	0.992083	-0.696301	-0.000049
H105	H	0.959074	-0.755220	-0.065636
H106	H	0.952808	-0.748991	0.065496
H107	H	0.711344	-0.235582	-0.000029
C108	C	0.686462	-0.687560	-0.000083
H109	H	0.694857	-0.737365	-0.000082
H110	H	0.663619	-0.675237	-0.065643
H111	H	0.657367	-0.669013	0.065488
H112	H	0.713399	0.204049	0.518591
