data_functionalizedCrystal
_audit_creation_method	'MofGen! by Chris Wilmer'
_symmetry_space_group_name_H-M	'P1'
_symmetry_Int_Tables_number	1
_symmetry_cell_setting	triclinic
loop_
_symmetry_equiv_pos_as_xyz
  x,y,z
_cell_length_a	17.038272
_cell_length_b	14.044220
_cell_length_c	12.503572
_cell_angle_alpha	86.156832
_cell_angle_beta	93.767800
_cell_angle_gamma	92.150217
loop_
_atom_site_label
_atom_site_type_symbol
_atom_site_fract_x
_atom_site_fract_y
_atom_site_fract_z
O1	O	-1.055991	-0.201858	-0.089189
O2	O	-0.722658	0.131475	0.244144
O3	O	-0.389325	0.464808	0.577477
O4	O	-0.828132	-0.198570	-0.089221
O5	O	-0.494799	0.134764	0.244113
O6	O	-0.161466	0.468097	0.577446
O7	O	-0.938641	-0.061954	-0.089195
O8	O	-0.605308	0.271379	0.244138
O9	O	-0.271975	0.604712	0.577472
O10	O	-0.945483	-0.338474	-0.089215
O11	O	-0.612149	-0.005141	0.244118
O12	O	-0.278816	0.328193	0.577452
O13	O	-0.930332	-0.072247	0.089445
O14	O	-0.596998	0.261086	0.422778
O15	O	-0.263665	0.594420	0.756112
O16	O	-0.819823	-0.208862	0.089419
O17	O	-0.486489	0.124471	0.422753
O18	O	-0.153156	0.457804	0.756086
O19	O	-1.047682	-0.212151	0.089451
O20	O	-0.714348	0.121182	0.422784
O21	O	-0.381015	0.454516	0.756117
Cu22	Cu	-0.932993	-0.211446	0.105746
Cu23	Cu	-0.599660	0.121887	0.439080
Cu24	Cu	-0.266327	0.455220	0.772413
Cu25	Cu	-0.942821	-0.199274	-0.105516
Cu26	Cu	-0.609487	0.134059	0.227817
Cu27	Cu	-0.276154	0.467392	0.561150
O28	O	-0.937173	-0.348766	0.089425
O29	O	-0.603840	-0.015433	0.422758
O30	O	-0.270506	0.317900	0.756091
C31	C	-0.794640	-0.200726	0.000095
C32	C	-0.461307	0.132607	0.333429
C33	C	-0.127974	0.465940	0.666762
C34	C	-0.707224	-0.191806	0.000084
C35	C	-0.373891	0.141527	0.333417
C36	C	-0.040557	0.474860	0.666750
C37	C	-0.931492	-0.031545	0.000125
C38	C	-0.598159	0.301789	0.333458
C39	C	-0.264825	0.635122	0.666792
C40	C	-0.922561	0.074401	0.000125
C41	C	-0.589227	0.407735	0.333459
C42	C	-0.255894	0.741068	0.666792
C43	C	-1.081174	-0.209994	0.000132
C44	C	-0.747841	0.123339	0.333466
C45	C	-0.414507	0.456672	0.666799
C46	C	-1.168591	-0.218914	0.000137
C47	C	-0.835257	0.114420	0.333470
C48	C	-0.501924	0.447753	0.666804
C49	C	-0.662839	-0.273694	0.000078
C50	C	-0.329505	0.059639	0.333412
C51	C	0.003828	0.392972	0.666745
C52	C	-0.580701	-0.265309	0.000094
C53	C	-0.247367	0.068024	0.333427
C54	C	0.085966	0.401357	0.666760
C55	C	-0.542950	-0.175035	0.000107
C56	C	-0.209617	0.158299	0.333440
C57	C	0.123717	0.491632	0.666773
C58	C	-0.587341	-0.093141	0.000115
C59	C	-0.254008	0.240193	0.333448
C60	C	0.079326	0.573526	0.666782
C61	C	-0.669477	-0.101527	0.000107
C62	C	-0.336144	0.231806	0.333441
C63	C	-0.002810	0.565139	0.666774
C64	C	-0.295118	-0.145406	0.000138
C65	C	0.038216	0.187927	0.333471
C66	C	0.371549	0.521260	0.666804
C67	C	-0.212976	-0.137026	0.000142
C68	C	0.120358	0.196308	0.333475
C69	C	0.453691	0.529641	0.666809
C70	C	-0.206341	-0.309195	0.000123
C71	C	0.126992	0.024138	0.333456
C72	C	0.460326	0.357471	0.666790
C73	C	-0.288479	-0.317574	0.000109
C74	C	0.044854	0.015760	0.333442
C75	C	0.378187	0.349093	0.666775
C76	C	-0.332863	-0.235680	0.000123
C77	C	0.000470	0.097653	0.333456
C78	C	0.333804	0.430987	0.666789
C79	C	-0.458992	-0.166461	0.000119
C80	C	-0.125659	0.166872	0.333452
C81	C	0.207675	0.500205	0.666786
C82	C	-0.416819	-0.244255	0.000118
C83	C	-0.083486	0.089079	0.333451
C84	C	0.249848	0.422412	0.666785
C85	C	-0.944322	-0.379176	0.000102
C86	C	-0.610989	-0.045843	0.333436
C87	C	-0.277655	0.287491	0.666769
C88	C	-0.953254	-0.485122	0.000095
C89	C	-0.619920	-0.151788	0.333429
C90	C	-0.286587	0.181545	0.666762
N91	N	-0.926087	-0.220008	0.254337
N92	N	-0.592754	0.113326	0.587670
N93	N	-0.259421	0.446659	0.921004
C94	C	-0.906233	0.268380	0.000108
C95	C	-0.572900	0.601714	0.333441
C96	C	-0.239566	0.935047	0.666774
C97	C	-0.969578	0.320905	0.000113
C98	C	-0.636245	0.654239	0.333446
C99	C	-0.302911	0.987572	0.666780
C100	C	-0.960493	0.428842	0.000103
C101	C	-0.627160	0.762175	0.333436
C102	C	-0.293826	1.095509	0.666770
C103	C	-0.915317	0.160434	0.000117
C104	C	-0.581983	0.493767	0.333451
C105	C	-0.248650	0.827101	0.666784
N106	N	-0.949733	-0.190706	-0.254107
N107	N	-0.616399	0.142627	0.079226
N108	N	-0.283066	0.475960	0.412560
C109	C	-0.915929	-0.232609	0.473450
C110	C	-0.582595	0.100724	0.806783
C111	C	-0.249262	0.434057	1.140116
C112	C	-0.959889	-0.178107	0.526787
C113	C	-0.626556	0.155226	0.860120
C114	C	-0.293222	0.488559	1.193454
C115	C	-0.954236	-0.185119	0.648709
C116	C	-0.620903	0.148214	0.982042
C117	C	-0.287570	0.481547	1.315376
C118	C	-0.921580	-0.225599	0.351517
C119	C	-0.588247	0.107735	0.684850
C120	C	-0.254913	0.441068	1.018183
H121	H	-0.693569	-0.347206	0.000067
H122	H	-0.360236	-0.013872	0.333400
H123	H	-0.026903	0.319461	0.666734
F124	F	-0.826436	0.315556	0.000091
F125	F	-0.493103	0.648890	0.333424
F126	F	-0.159769	0.982223	0.666758
H127	H	-0.874051	-0.284533	0.519347
H128	H	-0.540718	0.048800	0.852681
H129	H	-0.207384	0.382134	1.186014
F130	F	-0.533466	-0.352466	0.000084
F131	F	-0.200133	-0.019133	0.333417
F132	F	0.133200	0.314200	0.666750
F133	F	-0.328651	-0.413656	0.000089
F134	F	0.004683	-0.080322	0.333423
F135	F	0.338016	0.253011	0.666756
F136	F	-0.159099	-0.396346	0.000110
F137	F	0.174234	-0.063013	0.333444
F138	F	0.507567	0.270321	0.666777
F139	F	-0.172800	-0.040940	0.000175
F140	F	0.160534	0.292393	0.333508
F141	F	0.493867	0.625727	0.666841
F142	F	-0.716715	-0.014371	0.000117
F143	F	-0.383381	0.318963	0.333450
F144	F	-0.050048	0.652296	0.666783
F145	F	-1.049381	0.273729	0.000132
F146	F	-0.716047	0.607062	0.333466
F147	F	-0.382714	0.940396	0.666799
H148	H	-1.001770	-0.126182	0.480884
H149	H	-0.668437	0.207152	0.814217
H150	H	-0.335104	0.540485	1.147551
H151	H	-0.556597	-0.019638	0.000141
H152	H	-0.223264	0.313695	0.333474
H153	H	0.110070	0.647029	0.666808
F154	F	-0.342344	-0.058247	0.000152
F155	F	-0.009010	0.275087	0.333486
F156	F	0.324323	0.608420	0.666819
F157	F	-0.456998	-0.340329	0.000109
F158	F	-0.123664	-0.006995	0.333442
F159	F	0.209669	0.326338	0.666775
H160	H	-0.428245	-0.092961	0.000160
H161	H	-0.094911	0.240373	0.333493
H162	H	0.238422	0.573706	0.666827
