data_functionalizedCrystal
_audit_creation_method	'MofGen! by Chris Wilmer'
_symmetry_space_group_name_H-M	'P1'
_symmetry_Int_Tables_number	1
_symmetry_cell_setting	triclinic
loop_
_symmetry_equiv_pos_as_xyz
  x,y,z
_cell_length_a	29.839131
_cell_length_b	29.839135
_cell_length_c	18.050582
_cell_angle_alpha	90.018409
_cell_angle_beta	89.974523
_cell_angle_gamma	89.956753
loop_
_atom_site_label
_atom_site_type_symbol
_atom_site_fract_x
_atom_site_fract_y
_atom_site_fract_z
Zn1	Zn	-0.178860	-0.686731	-0.419967
Zn2	Zn	0.321140	-0.186731	0.080033
Zn3	Zn	-0.253982	-0.686660	-0.295770
Zn4	Zn	0.246018	-0.186660	0.204230
Zn5	Zn	-0.178869	-0.611611	-0.295783
Zn6	Zn	0.321131	-0.111611	0.204217
Zn7	Zn	-0.253966	-0.611562	-0.419911
Zn8	Zn	0.246034	-0.111562	0.080089
O9	O	-0.216419	-0.649141	-0.357858
O10	O	0.283581	-0.149141	0.142142
O11	O	-0.188828	-0.749589	-0.403510
O12	O	0.311172	-0.249589	0.096490
O13	O	-0.244029	-0.676695	-0.191847
O14	O	0.255971	-0.176695	0.308153
O15	O	-0.116001	-0.621626	-0.312285
O16	O	0.383999	-0.121626	0.187715
O17	O	-0.244020	-0.749537	-0.312263
O18	O	0.255980	-0.249537	0.187737
O19	O	-0.115994	-0.676817	-0.403522
O20	O	0.384006	-0.176817	0.096478
O21	O	-0.188844	-0.621557	-0.191857
O22	O	0.311156	-0.121557	0.308143
O23	O	-0.188828	-0.548737	-0.312231
O24	O	0.311172	-0.048737	0.187769
O25	O	-0.243992	-0.621543	-0.523843
O26	O	0.256008	-0.121543	-0.023843
O27	O	-0.244002	-0.548701	-0.403428
O28	O	0.255998	-0.048701	0.096572
O29	O	-0.188812	-0.676769	-0.523884
O30	O	0.311188	-0.176769	-0.023884
O31	O	-0.316847	-0.676648	-0.312209
O32	O	0.183153	-0.176648	0.187791
O33	O	-0.316835	-0.621474	-0.403415
O34	O	0.183165	-0.121474	0.096585
C35	C	-0.216415	-0.532418	-0.357825
C36	C	0.283585	-0.032418	0.142175
C37	C	-0.216423	-0.482484	-0.357829
C38	C	0.283577	0.017516	0.142171
C39	C	-0.187719	-0.172865	-0.405436
C40	C	0.312281	0.327135	0.094564
C41	C	-0.187719	0.014808	-0.405456
C42	C	0.312281	0.514808	0.094544
O43	O	-0.163306	0.039052	-0.445900
O44	O	0.336694	0.539052	0.054100
N45	N	-0.216411	0.038301	-0.357880
N46	N	0.283589	0.538301	0.142120
C47	C	-0.245103	0.014873	-0.310292
C48	C	0.254897	0.514873	0.189708
O49	O	-0.269504	0.039161	-0.269821
O50	O	0.230496	0.539161	0.230179
C51	C	-0.245100	-0.172799	-0.310269
C52	C	0.254900	0.327201	0.189731
C53	C	-0.216409	-0.196290	-0.357854
C54	C	0.283591	0.303710	0.142146
C55	C	-0.159030	-0.196356	-0.453016
C56	C	0.340970	0.303644	0.046984
C57	C	-0.159032	-0.243271	-0.453014
C58	C	0.340968	0.256729	0.046986
C59	C	-0.187722	-0.266696	-0.405431
C60	C	0.312278	0.233304	0.094569
C61	C	-0.216411	-0.243205	-0.357851
C62	C	0.283589	0.256795	0.142149
C63	C	-0.273789	-0.196227	-0.262678
C64	C	0.226211	0.303773	0.237322
C65	C	-0.273785	-0.243148	-0.262675
C66	C	0.226215	0.256852	0.237325
C67	C	-0.245094	-0.266638	-0.310260
C68	C	0.254906	0.233362	0.189740
C69	C	-0.245103	-0.313546	-0.310266
C70	C	0.254897	0.186454	0.189734
N71	N	-0.216411	-0.337039	-0.357842
N72	N	0.283589	0.162961	0.142158
C73	C	-0.187721	-0.313614	-0.405425
C74	C	0.312279	0.186386	0.094575
C75	C	-0.245104	0.113403	-0.310308
C76	C	0.254896	0.613403	0.189692
C77	C	-0.245105	0.160321	-0.310315
C78	C	0.254895	0.660321	0.189685
C79	C	-0.187721	0.160253	-0.405478
C80	C	0.312279	0.660253	0.094522
C81	C	-0.187722	0.113335	-0.405475
C82	C	0.312278	0.613335	0.094525
C83	C	-0.216412	0.089911	-0.357885
C84	C	0.283588	0.589911	0.142115
C85	C	-0.187727	-0.412140	-0.405416
C86	C	0.312273	0.087860	0.094584
C87	C	-0.187733	-0.459059	-0.405412
C88	C	0.312267	0.040941	0.094588
C89	C	-0.245115	-0.458987	-0.310246
C90	C	0.254885	0.041013	0.189754
C91	C	-0.245112	-0.412072	-0.310253
C92	C	0.254888	0.087928	0.189747
C93	C	-0.216414	-0.388649	-0.357841
C94	C	0.283586	0.111351	0.142159
O95	O	-0.269500	-0.337819	-0.269837
O96	O	0.230500	0.162181	0.230163
O97	O	-0.163316	-0.337910	-0.445878
O98	O	0.336684	0.162090	0.054122
C99	C	-0.187717	-0.125950	-0.405439
C100	C	0.312283	0.374050	0.094561
C101	C	-0.216406	-0.102459	-0.357859
C102	C	0.283594	0.397541	0.142141
C103	C	-0.245096	-0.125884	-0.310276
C104	C	0.254904	0.374116	0.189724
C105	C	-0.216407	-0.055541	-0.357865
C106	C	0.283593	0.444459	0.142135
C107	C	-0.187716	-0.032116	-0.405448
C108	C	0.312284	0.467884	0.094552
C109	C	-0.159024	-0.055609	-0.453024
C110	C	0.340976	0.444391	0.046976
C111	C	-0.159026	-0.102525	-0.453021
C112	C	0.340974	0.397475	0.046979
C113	C	-0.273788	-0.102391	-0.262700
C114	C	0.226212	0.397609	0.237300
C115	C	-0.273784	-0.055475	-0.262707
C116	C	0.226216	0.444525	0.237293
C117	C	-0.245094	-0.032051	-0.310290
C118	C	0.254906	0.467949	0.189710
C119	C	-0.333142	-0.649060	-0.357821
C120	C	0.166858	-0.149060	0.142179
C121	C	-0.383076	-0.649066	-0.357830
C122	C	0.116924	-0.149066	0.142170
C123	C	-0.692713	-0.677923	-0.310436
C124	C	-0.192713	-0.177923	0.189564
C125	C	-0.880386	-0.677978	-0.310465
C126	C	-0.380386	-0.177978	0.189535
O127	O	-0.904646	-0.702448	-0.270141
O128	O	-0.404646	-0.202448	0.229859
N129	N	-0.903861	-0.649234	-0.357914
N130	N	-0.403861	-0.149234	0.142086
C131	C	-0.880415	-0.620477	-0.405362
C132	C	-0.380415	-0.120477	0.094638
O133	O	-0.904689	-0.596033	-0.445726
O134	O	-0.404689	-0.096033	0.054274
C135	C	-0.692743	-0.620424	-0.405337
C136	C	-0.192743	-0.120424	0.094663
C137	C	-0.669271	-0.649166	-0.357879
C138	C	-0.169271	-0.149166	0.142121
C139	C	-0.669241	-0.706663	-0.262984
C140	C	-0.169241	-0.206663	0.237016
C141	C	-0.622325	-0.706647	-0.262974
C142	C	-0.122325	-0.206647	0.237026
C143	C	-0.598882	-0.677891	-0.310417
C144	C	-0.098882	-0.177891	0.189583
C145	C	-0.622355	-0.649150	-0.357870
C146	C	-0.122355	-0.149150	0.142130
C147	C	-0.669298	-0.591669	-0.452788
C148	C	-0.169298	-0.091669	0.047212
C149	C	-0.622377	-0.591659	-0.452779
C150	C	-0.122377	-0.091659	0.047221
C151	C	-0.598904	-0.620401	-0.405322
C152	C	-0.098904	-0.120401	0.094678
C153	C	-0.551997	-0.620378	-0.405303
C154	C	-0.051997	-0.120378	0.094697
N155	N	-0.528522	-0.649122	-0.357855
N156	N	-0.028522	-0.149122	0.142145
C157	C	-0.551965	-0.677878	-0.310412
C158	C	-0.051965	-0.177878	0.189588
C159	C	-0.978946	-0.620506	-0.405371
C160	C	-0.478946	-0.120506	0.094629
C161	C	-1.025864	-0.620518	-0.405377
C162	C	-0.525864	-0.120518	0.094623
C163	C	-1.025832	-0.678020	-0.310481
C164	C	-0.525832	-0.178020	0.189519
C165	C	-0.978913	-0.678005	-0.310472
C166	C	-0.478913	-0.178005	0.189528
C167	C	-0.955471	-0.649250	-0.357923
C168	C	-0.455471	-0.149250	0.142077
C169	C	-0.453439	-0.677842	-0.310395
C170	C	0.046561	-0.177842	0.189605
C171	C	-0.406519	-0.677823	-0.310387
C172	C	0.093481	-0.177823	0.189613
C173	C	-0.406556	-0.620322	-0.405286
C174	C	0.093444	-0.120322	0.094714
C175	C	-0.453471	-0.620340	-0.405291
C176	C	0.046529	-0.120340	0.094709
C177	C	-0.476912	-0.649104	-0.357843
C178	C	0.023088	-0.149104	0.142157
O179	O	-0.527709	-0.595924	-0.445612
O180	O	-0.027709	-0.095924	0.054388
O181	O	-0.527683	-0.702325	-0.270065
O182	O	-0.027683	-0.202325	0.229935
C183	C	-0.739629	-0.677938	-0.310446
C184	C	-0.239629	-0.177938	0.189554
C185	C	-0.763101	-0.649198	-0.357899
C186	C	-0.263101	-0.149198	0.142101
C187	C	-0.739659	-0.620442	-0.405342
C188	C	-0.239659	-0.120442	0.094658
C189	C	-0.810019	-0.649211	-0.357904
C190	C	-0.310019	-0.149211	0.142096
C191	C	-0.833462	-0.677967	-0.310461
C192	C	-0.333462	-0.177967	0.189539
C193	C	-0.809987	-0.706711	-0.263013
C194	C	-0.309987	-0.206711	0.236987
C195	C	-0.763071	-0.706695	-0.263003
C196	C	-0.263071	-0.206695	0.236997
C197	C	-0.763134	-0.591698	-0.452790
C198	C	-0.263134	-0.091698	0.047210
C199	C	-0.810049	-0.591716	-0.452795
C200	C	-0.310049	-0.091716	0.047205
C201	C	-0.833492	-0.620472	-0.405352
C202	C	-0.333492	-0.120472	0.094648
C203	C	-0.099241	-0.649235	-0.357911
C204	C	0.400759	-0.149235	0.142089
C205	C	-0.049307	-0.649275	-0.357934
C206	C	0.450693	-0.149275	0.142066
C207	C	-0.216399	-0.649159	-0.551564
C208	C	0.283601	-0.149159	-0.051564
C209	C	-0.216391	-0.649166	-0.634109
C210	C	0.283609	-0.149166	-0.134109
C211	C	-0.216422	0.233681	-0.357889
C212	C	0.283578	0.733681	0.142111
C213	C	-0.216415	0.183746	-0.357898
C214	C	0.283585	0.683746	0.142102
C215	C	-0.246357	-0.619157	-0.833538
C216	C	0.253643	-0.119157	-0.333538
C217	C	-0.257337	-0.660142	-0.882933
C218	C	0.242663	-0.160142	-0.382933
C219	C	-0.216357	-0.649188	-0.785240
C220	C	0.283643	-0.149188	-0.285240
C221	C	-0.205364	-0.608226	-0.882927
C222	C	0.294636	-0.108226	-0.382927
C223	C	-0.216324	-0.649206	-0.931225
C224	C	0.283676	-0.149206	-0.431225
C225	C	-0.227358	-0.690194	-0.833547
C226	C	0.272642	-0.190194	-0.333547
C227	C	-0.175366	-0.638252	-0.833537
C228	C	0.324634	-0.138252	-0.333537
C229	C	-0.186331	-0.679264	-0.882910
C230	C	0.313669	-0.179264	-0.382910
C231	C	-0.216376	-0.649177	-0.701141
C232	C	0.283624	-0.149177	-0.201141
C233	C	-0.216305	-0.649222	-1.015322
C234	C	0.283695	-0.149222	-0.515322
C235	C	-0.216407	-0.649149	-0.164906
C236	C	0.283593	-0.149149	0.335094
C237	C	-0.216289	-0.649229	-0.082360
C238	C	0.283711	-0.149229	0.417640
H239	H	-0.268473	0.179443	-0.271575
H240	H	0.231527	0.679443	0.228425
H241	H	-0.196080	-0.573578	-0.904618
H242	H	0.303920	-0.073578	-0.404618
H243	H	-0.959804	-0.701410	-0.271829
H244	H	-0.459804	-0.201410	0.228171
Br245	Br	-0.148795	-0.490936	-0.469998
Br246	Br	0.351205	0.009064	0.030002
Br247	Br	-0.315091	-0.675579	-0.919096
Br248	Br	0.184909	-0.175579	-0.419096
H249	H	-0.744050	-0.568281	-0.491425
H250	H	-0.244050	-0.068281	0.008575
H251	H	-0.164358	0.094212	-0.444221
H252	H	0.335642	0.594212	0.055779
Br253	Br	-1.057656	-0.717045	-0.246091
Br254	Br	-0.557656	-0.217045	0.253909
Br255	Br	-0.374731	-0.581300	-0.469672
Br256	Br	0.125269	-0.081300	0.030328
Br257	Br	-0.288695	-0.576866	-0.797404
Br258	Br	0.211305	-0.076866	-0.297404
H259	H	-0.236682	-0.724853	-0.811947
H260	H	0.263318	-0.224853	-0.311947
H261	H	-0.688323	-0.730082	-0.224350
H262	H	-0.188323	-0.230082	0.275650
H263	H	-0.743963	-0.730100	-0.224359
H264	H	-0.243963	-0.230100	0.275641
Br265	Br	-0.144022	-0.721653	-0.918818
Br266	Br	0.355978	-0.221653	-0.418818
H267	H	-0.829157	-0.568306	-0.491440
H268	H	-0.329157	-0.068306	0.008560
H269	H	-0.164357	-0.393074	-0.444164
H270	H	0.335643	0.106926	0.055836
Br271	Br	-0.120091	-0.275144	-0.517595
Br272	Br	0.379909	0.224856	-0.017595
Br273	Br	-0.120087	-0.164573	-0.517601
Br274	Br	0.379913	0.335427	-0.017601
H275	H	-0.164360	0.179334	-0.444222
H276	H	0.335640	0.679334	0.055778
Br277	Br	-0.284039	0.081620	-0.245707
Br278	Br	0.215961	0.581620	0.254293
Br279	Br	-0.312720	-0.164359	-0.198080
Br280	Br	0.187280	0.335641	0.301920
Br281	Br	-0.312724	-0.274935	-0.198085
Br282	Br	0.187276	0.225065	0.301915
Br283	Br	-0.284052	-0.490787	-0.245674
Br284	Br	0.215948	0.009213	0.254326
Br285	Br	-0.117627	-0.622796	-0.797344
Br286	Br	0.382373	-0.122796	-0.297344
H287	H	-0.387409	-0.701228	-0.271739
H288	H	0.112591	-0.201228	0.228261
H289	H	-1.044971	-0.597109	-0.444014
H290	H	-0.544971	-0.097109	0.055986
Br291	Br	-0.120090	-0.023809	-0.517604
Br292	Br	0.379910	0.476191	-0.017604
Br293	Br	-0.284064	-0.380190	-0.245699
Br294	Br	0.215936	0.119810	0.254301
Br295	Br	-0.485243	-0.716879	-0.246001
Br296	Br	0.014757	-0.216879	0.253999
Br297	Br	-0.312725	-0.023601	-0.198121
Br298	Br	0.187275	0.476399	0.301879
H299	H	-0.135663	-0.121646	-0.491769
H300	H	0.364337	0.378354	0.008231
Br301	Br	-0.590566	-0.552633	-0.517183
Br302	Br	-0.090566	-0.052633	-0.017183
Br303	Br	-0.590477	-0.745663	-0.198575
Br304	Br	-0.090477	-0.245663	0.301425
Br305	Br	-0.701142	-0.552663	-0.517206
Br306	Br	-0.201142	-0.052663	-0.017206
Br307	Br	-0.947139	-0.581476	-0.469775
Br308	Br	-0.447139	-0.081476	0.030225
H309	H	-0.829082	-0.730124	-0.224381
H310	H	-0.329082	-0.230124	0.275619
H311	H	-0.297151	-0.121459	-0.223951
H312	H	0.202849	0.378541	0.276049
Br313	Br	-0.485328	-0.581322	-0.469679
Br314	Br	0.014672	-0.081322	0.030321
