data_functionalizedCrystal
_audit_creation_method	'MofGen! by Chris Wilmer'
_symmetry_space_group_name_H-M	'P1'
_symmetry_Int_Tables_number	1
_symmetry_cell_setting	triclinic
loop_
_symmetry_equiv_pos_as_xyz
  x,y,z
_cell_length_a	10.654550
_cell_length_b	7.088929
_cell_length_c	10.654550
_cell_angle_alpha	96.283906
_cell_angle_beta	84.484931
_cell_angle_gamma	83.732640
loop_
_atom_site_label
_atom_site_type_symbol
_atom_site_fract_x
_atom_site_fract_y
_atom_site_fract_z
O1	O	1.655072	0.158846	0.189186
O2	O	1.289591	0.158881	0.205995
O3	O	1.480736	0.158851	0.014850
O4	O	1.463928	0.158877	0.380331
O5	O	1.506280	-0.159128	-0.010753
O6	O	1.315135	-0.159098	0.180392
O7	O	1.680616	-0.159133	0.163583
Cu8	Cu	1.500208	-0.188149	0.169650
Cu9	Cu	1.469999	0.187898	0.199928
O10	O	1.489472	-0.159103	0.354728
C11	C	1.255565	-0.000104	0.191960
C12	C	1.116120	-0.000091	0.188269
N13	N	1.521465	-0.452641	0.148353
C14	C	1.036635	-0.000088	0.300811
C15	C	0.905617	-0.000122	0.297331
C16	C	0.933582	-0.000152	0.068760
C17	C	1.064599	-0.000132	0.072239
C18	C	1.714642	-0.000144	0.177618
C19	C	1.854086	-0.000144	0.181310
C20	C	1.492274	-0.000138	-0.044749
C21	C	1.488582	-0.000134	-0.184192
N22	N	1.448753	0.452389	0.221215
C23	C	1.601124	-0.000144	-0.263679
C24	C	1.597645	-0.000121	-0.394698
C25	C	1.369073	-0.000085	-0.366731
C26	C	1.372552	-0.000095	-0.235714
C27	C	1.477933	-0.000110	0.414327
C28	C	1.481625	-0.000101	0.553771
H29	H	1.078580	-0.000069	0.395288
H30	H	0.840904	-0.000124	0.388974
C31	C	0.876901	-0.000173	-0.058861
H32	H	0.787486	-0.000164	-0.044815
H33	H	0.913034	-0.111059	-0.114179
H34	H	0.895200	0.110728	-0.096314
H35	H	1.695602	-0.000172	-0.221734
H36	H	1.280900	-0.000081	-0.170992
H37	H	1.689289	-0.000125	-0.459411
C38	C	1.152038	-0.000127	-0.051562
H39	H	1.102589	-0.000126	-0.121161
H40	H	1.212650	-0.111004	-0.063882
H41	H	1.194806	0.110783	-0.046023
C42	C	1.346948	-0.437307	0.323216
H43	H	1.348394	-0.303801	0.321746
H44	H	1.364042	-0.470012	0.404519
H45	H	1.265589	-0.470029	0.306296
C46	C	1.623276	-0.562953	0.046347
H47	H	1.621821	-0.696460	0.047804
H48	H	1.704629	-0.530224	0.063255
H49	H	1.606168	-0.530250	-0.034959
H50	H	1.274606	-0.000057	-0.408697
