data_functionalizedCrystal
_audit_creation_method	'MofGen! by Chris Wilmer'
_symmetry_space_group_name_H-M	'P1'
_symmetry_Int_Tables_number	1
_symmetry_cell_setting	triclinic
loop_
_symmetry_equiv_pos_as_xyz
  x,y,z
_cell_length_a	19.805407
_cell_length_b	19.805405
_cell_length_c	19.805398
_cell_angle_alpha	89.972361
_cell_angle_beta	89.988649
_cell_angle_gamma	90.024042
loop_
_atom_site_label
_atom_site_type_symbol
_atom_site_fract_x
_atom_site_fract_y
_atom_site_fract_z
Zn1	Zn	1.034691	-0.269521	-0.382692
Zn2	Zn	1.034618	-0.382711	-0.269506
Zn3	Zn	0.921518	-0.269536	-0.269520
Zn4	Zn	0.921469	-0.382668	-0.382656
O5	O	0.978074	-0.326109	-0.326094
O6	O	1.129398	-0.284547	-0.367687
O7	O	1.019605	-0.367723	-0.174791
O8	O	0.936582	-0.174817	-0.284554
O9	O	1.129344	-0.367708	-0.284529
O10	O	1.019730	-0.174806	-0.367701
O11	O	0.936512	-0.284573	-0.174802
O12	O	0.826795	-0.284531	-0.284519
O13	O	0.936498	-0.367634	-0.477378
O14	O	0.826759	-0.367649	-0.367639
O15	O	1.019682	-0.284505	-0.477404
O16	O	1.019557	-0.477422	-0.284494
O17	O	0.936427	-0.477390	-0.367625
C18	C	0.802218	-0.326088	-0.326077
C19	C	0.726986	-0.326095	-0.326086
C20	C	0.691670	-0.282870	-0.369452
C21	C	0.620982	-0.282873	-0.369455
C22	C	0.585610	-0.326106	-0.326094
C23	C	0.620931	-0.369333	-0.282724
C24	C	0.691618	-0.369325	-0.282718
C25	C	0.335858	-0.369363	-0.282744
C26	C	0.265166	-0.369369	-0.282755
C27	C	0.265222	-0.282911	-0.369481
C28	C	0.335909	-0.282904	-0.369476
C29	C	0.371223	-0.326128	-0.326103
C30	C	0.447871	-0.326123	-0.326099
C31	C	0.508963	-0.326115	-0.326100
C32	C	0.977997	-0.501965	-0.326069
C33	C	0.978026	-0.577197	-0.326081
C34	C	1.021295	-0.612477	-0.369410
C35	C	1.021320	-0.683165	-0.369422
C36	C	0.978078	-0.718572	-0.326103
C37	C	0.934804	-0.683287	-0.282772
C38	C	0.934776	-0.612600	-0.282763
C39	C	0.934912	-0.968361	-0.282807
C40	C	0.934944	-1.039053	-0.282817
C41	C	1.021456	-1.038926	-0.369466
C42	C	1.021428	-0.968238	-0.369457
C43	C	0.978152	-0.932960	-0.326129
C44	C	0.978125	-0.856311	-0.326117
C45	C	0.978107	-0.795219	-0.326111
C46	C	1.154617	-0.326130	-0.326111
C47	C	1.229849	-0.326140	-0.326118
C48	C	0.978092	-0.326063	-0.502636
C49	C	0.978100	-0.326043	-0.577868
C50	C	0.978170	-0.149566	-0.326133
C51	C	0.978211	-0.074334	-0.326150
C52	C	1.021473	-0.369232	-1.039652
C53	C	1.021455	-0.369250	-0.968963
C54	C	0.978184	-0.325967	-0.933630
C55	C	0.934924	-0.282668	-0.968990
C56	C	0.934940	-0.282653	-1.039677
C57	C	0.934859	-0.282726	-0.683916
C58	C	0.934848	-0.282742	-0.613224
C59	C	1.021374	-0.369322	-0.613203
C60	C	1.021389	-0.369308	-0.683890
C61	C	0.978127	-0.326012	-0.719243
C62	C	0.978147	-0.325993	-0.795891
C63	C	0.978167	-0.325982	-0.856983
C64	C	0.978095	-0.326105	-0.150238
C65	C	0.978218	-0.325934	-0.075006
H66	H	0.592231	-0.247676	-0.404769
C67	C	1.069073	-0.416846	-1.078513
C68	C	1.122243	-0.387518	-1.127114
C69	C	1.169842	-0.435136	-1.165972
C70	C	1.164271	-0.512082	-1.156229
C71	C	1.111098	-0.541414	-1.107626
C72	C	1.063499	-0.493796	-1.068768
H73	H	1.126370	-0.330555	-1.134328
H74	H	1.209204	-0.413423	-1.201951
H75	H	1.199507	-0.547332	-1.184995
H76	H	1.106972	-0.598378	-1.100412
H77	H	1.024137	-0.515510	-1.032789
H78	H	0.364705	-0.247702	-0.404786
H79	H	0.236368	-0.404576	-0.247443
H80	H	0.899689	-0.247429	-0.940216
H81	H	0.236460	-0.247713	-0.404795
C82	C	0.730577	-0.235312	-0.417149
C83	C	0.720876	-0.240932	-0.494086
C84	C	0.759781	-0.193372	-0.541782
C85	C	0.808386	-0.140191	-0.512543
C86	C	0.818089	-0.134568	-0.435602
C87	C	0.779184	-0.182129	-0.387906
H88	H	0.684894	-0.280302	-0.515734
H89	H	0.752598	-0.197534	-0.598739
H90	H	0.837185	-0.104983	-0.547851
H91	H	0.854071	-0.095198	-0.413954
H92	H	0.786367	-0.177967	-0.330949
H93	H	0.899718	-0.247396	-1.068461
H94	H	0.720371	-0.404523	-0.247405
H95	H	0.364602	-0.404560	-0.247428
H96	H	1.056559	-0.711887	-0.404700
C97	C	0.887181	-0.573788	-0.235100
C98	C	0.892761	-0.583545	-0.158161
C99	C	0.845162	-0.544734	-0.110499
C100	C	0.791982	-0.496166	-0.139777
C101	C	0.786400	-0.486407	-0.216721
C102	C	0.833999	-0.525218	-0.264383
H103	H	0.932130	-0.619500	-0.136484
H104	H	0.849294	-0.551958	-0.053540
H105	H	0.756746	-0.467435	-0.104495
H106	H	0.747031	-0.450452	-0.238398
H107	H	0.829866	-0.517994	-0.321341
H108	H	1.056669	-0.404515	-0.940181
C109	C	0.582025	-0.416891	-0.235027
C110	C	0.504271	-0.416906	-0.235034
C111	C	0.465367	-0.464467	-0.187338
C112	C	0.504215	-0.512014	-0.139635
C113	C	0.581973	-0.512001	-0.139627
C114	C	0.620877	-0.464439	-0.187322
H115	H	0.475510	-0.381707	-0.270348
H116	H	0.407805	-0.464477	-0.187345
H117	H	0.475416	-0.547222	-0.104328
H118	H	0.610734	-0.547200	-0.104313
H119	H	0.678439	-0.464430	-0.187316
H120	H	1.056511	-0.583653	-0.404683
C121	C	1.068992	-0.929291	-0.417113
C122	C	1.116584	-0.968098	-0.464779
C123	C	1.164145	-0.929152	-0.512439
C124	C	1.164115	-0.851399	-0.512432
C125	C	1.116521	-0.812588	-0.464763
C126	C	1.068959	-0.851534	-0.417104
H127	H	1.116608	-1.025660	-0.464786
H128	H	1.199377	-0.957883	-0.547727
H129	H	1.199322	-0.822569	-0.547713
H130	H	1.116496	-0.755026	-0.464756
H131	H	1.033727	-0.822803	-0.381816
C132	C	1.068994	-0.416913	-0.722755
C133	C	1.116578	-0.464539	-0.683867
C134	C	1.164185	-0.512144	-0.722731
C135	C	1.164208	-0.512124	-0.800484
C136	C	1.116623	-0.464496	-0.839377
C137	C	1.069016	-0.416891	-0.800513
H138	H	1.116562	-0.464556	-0.626305
H139	H	1.199410	-0.547401	-0.693940
H140	H	1.199450	-0.547364	-0.829254
H141	H	1.116639	-0.464480	-0.896939
H142	H	1.033791	-0.381634	-0.829304
C143	C	1.069055	-1.077734	-0.417134
C144	C	1.122232	-1.126308	-0.387861
C145	C	1.169831	-1.165115	-0.435527
C146	C	1.164253	-1.155348	-0.512466
C147	C	1.111074	-1.106772	-0.541743
C148	C	1.063475	-1.067965	-0.494077
H149	H	1.126363	-1.133540	-0.330903
H150	H	1.209198	-1.201074	-0.413854
H151	H	1.199489	-1.184075	-0.547751
H152	H	1.106943	-1.099540	-0.598701
H153	H	1.024108	-1.032006	-0.515750
H154	H	0.899728	-1.067879	-0.247540
C155	C	1.068955	-0.416958	-0.574311
C156	C	1.122097	-0.387649	-0.525717
C157	C	1.169677	-0.435283	-0.486827
C158	C	1.164115	-0.512224	-0.496531
C159	C	1.110971	-0.541537	-0.545127
C160	C	1.063391	-0.493904	-0.584017
H161	H	1.126216	-0.330689	-0.518532
H162	H	1.209018	-0.413583	-0.450853
H163	H	1.199337	-0.547485	-0.467742
H164	H	1.106852	-0.598498	-0.552312
H165	H	1.024050	-0.515604	-0.619991
H166	H	0.899677	-0.939642	-0.247527
C167	C	0.887236	-0.722233	-0.235119
C168	C	0.887266	-0.799986	-0.235123
C169	C	0.839698	-0.838930	-0.187468
C170	C	0.792101	-0.800120	-0.139808
C171	C	0.792069	-0.722363	-0.139802
C172	C	0.839637	-0.683419	-0.187458
H173	H	0.922502	-0.828719	-0.270405
H174	H	0.839722	-0.896491	-0.187472
H175	H	0.756889	-0.828949	-0.104531
H176	H	0.756833	-0.693630	-0.104520
H177	H	0.839613	-0.625858	-0.187453
H178	H	0.899609	-0.247494	-0.584458
C179	C	0.887282	-0.235091	-0.722799
C180	C	0.839694	-0.187474	-0.683931
C181	C	0.792118	-0.139834	-0.722817
C182	C	0.792130	-0.139809	-0.800570
C183	C	0.839720	-0.187428	-0.839442
C184	C	0.887295	-0.235068	-0.800556
H185	H	0.839684	-0.187491	-0.626370
H186	H	0.756889	-0.104583	-0.694042
H187	H	0.756911	-0.104543	-0.829356
H188	H	0.839730	-0.187411	-0.897003
H189	H	0.922524	-0.270319	-0.829332
