data_functionalizedCrystal
_audit_creation_method	'MofGen! by Chris Wilmer'
_symmetry_space_group_name_H-M	'P1'
_symmetry_Int_Tables_number	1
_symmetry_cell_setting	triclinic
loop_
_symmetry_equiv_pos_as_xyz
  x,y,z
_cell_length_a	10.654543
_cell_length_b	8.140239
_cell_length_c	10.654550
_cell_angle_alpha	90.003375
_cell_angle_beta	95.516448
_cell_angle_gamma	90.001936
loop_
_atom_site_label
_atom_site_type_symbol
_atom_site_fract_x
_atom_site_fract_y
_atom_site_fract_z
O1	O	-1.667843	0.136436	0.176357
O2	O	-1.302364	0.136478	0.193172
O3	O	-1.493506	0.136446	0.002025
O4	O	-1.476700	0.136469	0.367504
O5	O	-1.493496	-0.136781	0.002023
O6	O	-1.302353	-0.136749	0.193169
O7	O	-1.667832	-0.136791	0.176355
Zn8	Zn	-1.485091	-0.180150	0.184762
Zn9	Zn	-1.485105	0.179838	0.184765
O10	O	-1.476690	-0.136759	0.367501
C11	C	-1.255560	-0.000130	0.191938
C12	C	-1.116116	-0.000114	0.188249
C13	C	-1.036631	-0.000110	0.300793
C14	C	-0.905609	-0.000134	0.297319
C15	C	-0.933573	-0.000161	0.068749
C16	C	-1.064591	-0.000148	0.072224
N17	N	-1.485091	-0.425833	0.184759
C18	C	-0.714635	-0.000171	0.177595
C19	C	-0.854077	-0.000152	0.181301
C20	C	-1.492267	-0.000167	-0.044774
C21	C	-1.488575	-0.000164	-0.184217
N22	N	-1.485115	0.425521	0.184757
C23	C	-1.601117	-0.000176	-0.263706
C24	C	-1.597641	-0.000155	-0.394726
C25	C	-1.369070	-0.000117	-0.366758
C26	C	-1.372548	-0.000126	-0.235740
C27	C	-1.477929	-0.000142	0.414300
C28	C	-1.481621	-0.000134	0.553744
H29	H	-1.129313	-0.000157	-0.019428
H30	H	-1.274605	-0.000090	-0.408724
H31	H	-0.840896	-0.000134	0.388964
H32	H	-1.078578	-0.000094	0.395268
H33	H	-0.891604	-0.000199	-0.025715
H34	H	-1.689284	-0.000162	-0.459441
H35	H	-1.695593	-0.000203	-0.221761
H36	H	-1.280897	-0.000111	-0.171016
