data_functionalizedCrystal
_audit_creation_method	'MofGen! by Chris Wilmer'
_symmetry_space_group_name_H-M	'P1'
_symmetry_Int_Tables_number	1
_symmetry_cell_setting	triclinic
loop_
_symmetry_equiv_pos_as_xyz
  x,y,z
_cell_length_a	18.627244
_cell_length_b	18.627297
_cell_length_c	18.627245
_cell_angle_alpha	120.001884
_cell_angle_beta	90.001190
_cell_angle_gamma	60.000462
loop_
_atom_site_label
_atom_site_type_symbol
_atom_site_fract_x
_atom_site_fract_y
_atom_site_fract_z
O1	O	-0.611888	0.633229	1.125721
O2	O	-0.507491	0.486223	0.874317
O3	O	-0.507490	0.633228	1.021320
O4	O	-0.611888	0.486224	0.978719
O5	O	-0.388088	0.513828	1.021320
O6	O	-0.388089	0.366823	0.874318
O7	O	-0.492486	0.513829	1.125721
Cu8	Cu	-0.429385	0.429424	1.000020
Cu9	Cu	-0.570592	0.570628	1.000019
O10	O	-0.492486	0.366824	0.978719
C11	C	-0.386981	0.356037	0.613022
C12	C	-0.431281	0.406435	0.568723
C13	C	-0.300581	0.269034	0.569619
C14	C	-0.386984	0.356031	0.743020
C15	C	-0.431287	0.406424	0.837716
C16	C	-0.300584	0.269029	0.699420
C17	C	-0.256980	0.226039	0.613023
C18	C	-0.162282	0.137443	0.568724
C19	C	-0.430388	0.398829	0.699419
C20	C	-0.386987	0.774025	1.031015
C21	C	-0.431287	0.862625	1.024918
C22	C	-0.430391	0.731031	1.031622
C23	C	-0.256987	0.644026	1.031015
C24	C	-0.162290	0.593629	1.024918
C25	C	-0.300589	0.601229	1.031622
C26	C	-0.386987	0.644025	1.031015
C27	C	-0.431288	0.593628	1.024918
C28	C	-0.300588	0.731031	1.031622
C29	C	-0.742992	0.356028	0.969024
C30	C	-0.837688	0.406425	0.975121
C31	C	-0.699389	0.398825	0.968417
C32	C	-0.612992	0.226028	0.969024
C33	C	-0.568693	0.137428	0.975120
C34	C	-0.569587	0.269022	0.968416
C35	C	-0.612990	0.356027	0.969024
C36	C	-0.568689	0.406424	0.975121
C37	C	-0.699391	0.269022	0.968417
O38	O	0.125712	0.486225	0.978719
O39	O	-0.125686	0.633229	1.021320
O40	O	0.021311	0.486224	0.874317
O41	O	-0.021286	0.633231	1.125721
O42	O	0.021308	0.366824	0.874318
O43	O	-0.125690	0.513829	1.021320
O44	O	0.125708	0.366826	0.978720
Cu45	Cu	0.000009	0.429425	1.000020
Cu46	Cu	0.000013	0.570629	1.000019
O47	O	-0.021290	0.513831	1.125722
O48	O	0.125719	-0.104347	0.507532
O49	O	-0.125681	0.104439	0.611923
O50	O	0.021311	0.104455	0.611941
O51	O	-0.021273	-0.104362	0.507515
O52	O	0.021314	0.104459	0.492541
O53	O	-0.125678	0.104444	0.492523
O54	O	0.125723	-0.104343	0.388132
Cu55	Cu	0.000023	0.000051	0.429426
Cu56	Cu	0.000019	0.000046	0.570630
O57	O	-0.021269	-0.104358	0.388115
O58	O	-0.611892	1.104423	0.978719
O59	O	-0.507488	0.895626	1.021320
O60	O	-0.507491	0.895622	0.874318
O61	O	-0.611889	1.104428	1.125721
O62	O	-0.388091	0.895625	0.874317
O63	O	-0.388088	0.895630	1.021319
O64	O	-0.492492	1.104427	0.978719
Cu65	Cu	-0.429387	1.000029	1.000019
Cu66	Cu	-0.570592	1.000024	1.000020
O67	O	-0.492488	1.104431	1.125721
O68	O	-0.492482	0.513844	0.388130
O69	O	-0.388080	0.366839	0.492522
O70	O	-0.388089	0.513851	0.492539
O71	O	-0.492473	0.366832	0.388113
O72	O	-0.507494	0.633245	0.611939
O73	O	-0.507485	0.486233	0.611922
O74	O	-0.611887	0.633239	0.507529
Cu75	Cu	-0.570589	0.570637	0.570628
Cu76	Cu	-0.429378	0.429440	0.429424
O77	O	-0.611878	0.486226	0.507512
C78	C	-0.742987	0.774033	1.387025
C79	C	-0.837684	0.862633	1.431325
C80	C	-0.699385	0.731041	1.430431
C81	C	-0.612988	0.644030	1.257023
C82	C	-0.568688	0.593630	1.162324
C83	C	-0.569583	0.601235	1.300626
C84	C	-0.612987	0.644035	1.387026
C85	C	-0.568686	0.593641	1.431328
C86	C	-0.699386	0.731036	1.300625
C87	C	0.031000	0.226017	0.613015
C88	C	0.024901	0.137417	0.568716
C89	C	0.031609	0.269007	0.569608
C90	C	0.031003	0.356021	0.743016
C91	C	0.024908	0.406422	0.837715
C92	C	0.031612	0.398814	0.699412
C93	C	0.031004	0.356013	0.613012
C94	C	0.024910	0.406406	0.568709
C95	C	0.031608	0.269015	0.699416
C96	C	-0.030973	0.644025	1.387022
C97	C	-0.024894	0.593638	1.431326
C98	C	-0.031553	0.731015	1.430420
C99	C	-0.030967	0.644021	1.257019
C100	C	-0.024882	0.593629	1.162323
C101	C	-0.031547	0.731011	1.300615
C102	C	-0.030929	0.773999	1.387012
C103	C	-0.024804	0.862581	1.431305
C104	C	-0.031591	0.601235	1.300625
C105	C	-0.256994	0.644013	0.613012
C106	C	-0.162298	0.593616	0.568710
C107	C	-0.300596	0.601214	0.569608
C108	C	-0.386992	0.774016	0.743016
C109	C	-0.431290	0.862619	0.837715
C110	C	-0.430397	0.731020	0.699415
C111	C	-0.386994	0.644011	0.613015
C112	C	-0.431295	0.593612	0.568715
C113	C	-0.300594	0.731021	0.699413
O114	O	-0.021330	0.633221	0.507515
O115	O	0.021292	0.486221	0.611915
O116	O	-0.125716	0.633186	0.611891
O117	O	0.125678	0.486257	0.507539
O118	O	-0.125676	0.513753	0.492472
O119	O	0.021332	0.366788	0.492496
O120	O	-0.021289	0.513789	0.388096
Cu121	Cu	0.000025	0.429383	0.429392
Cu122	Cu	-0.000023	0.570626	0.570619
O123	O	0.125718	0.366824	0.388121
C124	C	-0.612995	1.356044	1.387027
C125	C	-0.568697	1.406446	1.431330
C126	C	-0.699393	1.398839	1.430430
C127	C	-0.612992	1.226037	1.257022
C128	C	-0.568691	1.137434	1.162324
C129	C	-0.699390	1.269029	1.300623
C130	C	-0.742992	1.356037	1.387024
C131	C	-0.837688	1.406432	1.431323
C132	C	-0.569590	1.269036	1.300627
H133	H	-0.501379	0.468835	0.734419
H134	H	-0.265582	0.767011	1.032589
C135	C	0.108478	0.191526	0.770944
C136	C	0.032911	0.220467	0.746693
H137	H	0.109273	0.161569	0.800139
H138	H	0.159188	0.143784	0.719868
H139	H	0.108210	0.249605	0.809282
H140	H	0.033182	0.162387	0.708349
H141	H	-0.017812	0.268213	0.797776
H142	H	0.032587	0.468829	0.734422
H143	H	0.032604	0.233005	0.498612
H144	H	-0.032580	0.531230	1.265624
C145	C	-0.178080	0.219938	0.468792
C146	C	-0.253374	0.220481	0.473778
H147	H	-0.148952	0.189964	0.409622
H148	H	-0.194519	0.287642	0.504884
H149	H	-0.139699	0.181822	0.488477
H150	H	-0.291758	0.258603	0.454100
H151	H	-0.236936	0.152765	0.437674
C152	C	-0.751070	0.573038	1.041836
C153	C	-0.746654	0.493325	0.967081
H154	H	-0.780247	0.631369	1.041002
H155	H	-0.782690	0.588215	1.093099
H156	H	-0.693264	0.553592	1.042098
H157	H	-0.804461	0.512768	0.966823
H158	H	-0.715035	0.478146	0.915805
H159	H	-0.734402	0.233045	0.967442
H160	H	-0.501384	0.767003	0.734427
H161	H	-0.032532	0.766997	1.501411
H162	H	-0.265585	0.767003	0.734414
H163	H	-0.265588	0.531200	0.498618
C164	C	-0.579402	0.808582	1.108550
C165	C	-0.526230	0.779629	1.032966
H166	H	-0.638569	0.838595	1.109387
H167	H	-0.559688	0.750510	1.108271
H168	H	-0.576021	0.856293	1.159255
H169	H	-0.529606	0.731912	0.982260
H170	H	-0.545950	0.837709	1.033237
C171	C	-0.178091	0.427001	0.958083
C172	C	-0.253344	0.506678	1.032884
H173	H	-0.148927	0.368623	0.958849
H174	H	-0.194580	0.411903	0.906850
H175	H	-0.139721	0.446438	0.957831
H176	H	-0.291717	0.487243	1.033132
H177	H	-0.236856	0.521777	1.084130
H178	H	-0.032442	0.766937	1.265579
C179	C	-0.751082	1.219943	1.178098
C180	C	-0.746653	1.220456	1.253379
H181	H	-0.780259	1.189954	1.148937
H182	H	-0.782709	1.287656	1.194560
H183	H	-0.693280	1.181855	1.139737
H184	H	-0.804456	1.258551	1.291744
H185	H	-0.715027	1.152731	1.236920
H186	H	-0.498597	0.233033	0.967436
H187	H	-0.734395	1.468850	1.501422
C188	C	-0.468840	1.290814	1.248944
C189	C	-0.473760	1.220459	1.253364
H190	H	-0.409680	1.260823	1.219769
H191	H	-0.504930	1.310435	1.217319
H192	H	-0.488559	1.348890	1.306751
H193	H	-0.454047	1.162385	1.195557
H194	H	-0.437657	1.200822	1.284988
C195	C	-0.770858	0.879435	1.579447
C196	C	-0.746618	0.779621	1.526271
H197	H	-0.800015	0.909425	1.638613
H198	H	-0.719785	0.879068	1.576070
H199	H	-0.809229	0.917510	1.559727
H200	H	-0.708243	0.741544	1.545987
H201	H	-0.797700	0.779983	1.529652
C202	C	-0.248907	0.290804	0.821953
C203	C	-0.253322	0.220448	0.746669
H204	H	-0.219732	0.260811	0.851121
H205	H	-0.217284	0.310434	0.805493
H206	H	-0.306713	0.348875	0.860308
H207	H	-0.195515	0.162379	0.708311
H208	H	-0.284943	0.200804	0.763127
H209	H	-0.734398	0.767016	1.265619
C210	C	-0.420567	0.529128	1.229147
C211	C	-0.473746	0.506736	1.253389
H212	H	-0.361402	0.470794	1.199997
H213	H	-0.440279	0.548546	1.190778
H214	H	-0.423945	0.583220	1.280229
H215	H	-0.470374	0.452649	1.202306
H216	H	-0.454028	0.487304	1.291759
