data_functionalizedCrystal
_audit_creation_method	'MofGen! by Chris Wilmer'
_symmetry_space_group_name_H-M	'P1'
_symmetry_Int_Tables_number	1
_symmetry_cell_setting	triclinic
loop_
_symmetry_equiv_pos_as_xyz
  x,y,z
_cell_length_a	10.686220
_cell_length_b	16.959453
_cell_length_c	10.686551
_cell_angle_alpha	94.408900
_cell_angle_beta	89.691918
_cell_angle_gamma	94.401879
loop_
_atom_site_label
_atom_site_type_symbol
_atom_site_fract_x
_atom_site_fract_y
_atom_site_fract_z
Zn1	Zn	1.972259	-0.192707	0.562369
Zn2	Zn	1.956009	-0.335775	0.352597
Zn3	Zn	1.746375	-0.212927	0.368684
Zn4	Zn	1.762439	-0.334173	0.578375
O5	O	1.859271	-0.268896	0.465506
O6	O	2.145647	-0.203893	0.521111
O7	O	1.914677	-0.328612	0.179185
O8	O	1.776417	-0.099629	0.394411
O9	O	2.133708	-0.309005	0.366993
O10	O	1.942373	-0.084773	0.536710
O11	O	1.760659	-0.238356	0.191004
O12	O	1.572963	-0.236803	0.409932
O13	O	1.803796	-0.306275	0.751798
O14	O	1.584765	-0.325882	0.563990
O15	O	1.957950	-0.202340	0.740038
O16	O	1.930254	-0.446179	0.382514
O17	O	1.788039	-0.445002	0.548392
C18	C	1.533348	-0.283363	0.490444
C19	C	1.393919	-0.289570	0.501143
C20	C	1.859162	-0.474269	0.465469
C21	C	1.859234	-0.562121	0.465485
C22	C	1.945798	-0.925788	0.539745
C23	C	1.773107	-0.941375	0.391427
C24	C	1.773059	-0.858833	0.391402
C25	C	1.859380	-0.809764	0.465551
C26	C	1.945750	-0.843238	0.539725
C27	C	1.686682	-0.825353	0.317239
C28	C	1.686629	-0.742806	0.317212
C29	C	1.772957	-0.693736	0.391355
C30	C	1.859331	-0.727214	0.465531
C31	C	1.945653	-0.678145	0.539680
C32	C	2.032034	-0.711622	0.613850
C33	C	2.032078	-0.794167	0.613868
C34	C	1.772913	-0.611190	0.391337
C35	C	1.945604	-0.595595	0.539660
C36	C	2.186466	-0.254372	0.440472
C37	C	2.325897	-0.248183	0.429804
C38	C	1.884478	-0.251873	0.792708
C39	C	1.895220	-0.244619	0.932142
C40	C	1.859415	-0.062717	0.465569
C41	C	1.859477	0.025143	0.465596
C42	C	1.834234	-0.285792	0.139572
C43	C	1.823735	-0.292812	0.000120
H44	H	1.374329	-0.208003	0.360542
H45	H	1.702577	-0.583937	0.330955
H46	H	2.102404	-0.821432	0.674254
C47	C	2.125805	-0.658476	0.694493
C48	C	2.201445	-0.705453	0.759478
C49	C	2.287823	-0.656520	0.833792
H50	H	2.176903	-0.626305	0.642492
H51	H	2.081983	-0.625593	0.752844
H52	H	2.245263	-0.738322	0.701135
H53	H	2.150381	-0.737623	0.811502
H54	H	2.244001	-0.623637	0.892143
H55	H	2.338913	-0.624351	0.781781
H56	H	2.339147	-0.688387	0.877902
C57	C	2.039439	-0.962280	0.620234
C58	C	2.020997	-1.045072	0.604408
C59	C	2.107224	-1.078715	0.678548
H60	H	2.122377	-0.946010	0.595567
H61	H	2.027483	-0.945219	0.705941
H62	H	2.032963	-1.062126	0.518720
H63	H	1.938075	-1.061364	0.629083
H64	H	2.095268	-1.061654	0.764255
H65	H	2.190157	-1.062439	0.653874
H66	H	2.094715	-1.134892	0.667829
H67	H	1.702824	-0.981331	0.331064
H68	H	1.345481	-0.329758	0.570401
H69	H	2.015902	-0.555647	0.600036
C70	C	1.593115	-0.878760	0.236768
C71	C	1.611679	-0.958214	0.252627
C72	C	1.525522	-1.007439	0.178496
H73	H	1.510154	-0.868170	0.261422
H74	H	1.605059	-0.868852	0.151057
H75	H	1.599725	-0.968118	0.338320
H76	H	1.694623	-0.968829	0.227965
H77	H	1.537466	-0.997532	0.092785
H78	H	1.442566	-0.996842	0.203156
H79	H	1.538113	-1.061354	0.189237
C80	C	1.592800	-0.706615	0.236543
C81	C	1.517237	-0.767256	0.171589
C82	C	1.430803	-0.733947	0.097248
H83	H	1.541655	-0.674368	0.288523
H84	H	1.636578	-0.675140	0.178174
H85	H	1.473461	-0.798718	0.229951
H86	H	1.568346	-0.799508	0.119586
H87	H	1.474581	-0.702472	0.038879
H88	H	1.379667	-0.701700	0.149238
H89	H	1.379531	-0.775086	0.053159
H90	H	1.964649	-0.197810	0.980620
C91	C	1.731361	-0.355274	0.935317
C92	C	1.796629	-0.406640	0.854618
C93	C	1.711575	-0.464184	0.794878
H94	H	1.687912	-0.384622	0.996513
H95	H	1.672849	-0.330114	0.888316
H96	H	1.855118	-0.431798	0.901617
H97	H	1.840074	-0.377315	0.793399
H98	H	1.653063	-0.439024	0.747876
H99	H	1.668131	-0.493526	0.856082
H100	H	1.755845	-0.499038	0.740108
