data_functionalizedCrystal
_audit_creation_method	'MofGen! by Chris Wilmer'
_symmetry_space_group_name_H-M	'P1'
_symmetry_Int_Tables_number	1
_symmetry_cell_setting	triclinic
loop_
_symmetry_equiv_pos_as_xyz
  x,y,z
_cell_length_a	14.519731
_cell_length_b	23.532357
_cell_length_c	13.596369
_cell_angle_alpha	89.988481
_cell_angle_beta	89.994584
_cell_angle_gamma	83.258572
loop_
_atom_site_label
_atom_site_type_symbol
_atom_site_fract_x
_atom_site_fract_y
_atom_site_fract_z
O1	O	1.222951	0.074713	-0.081806
O2	O	1.556284	0.408047	0.251527
O3	O	1.889617	0.741380	0.584861
O4	O	0.954370	0.083492	-0.081809
O5	O	1.287703	0.416826	0.251524
O6	O	1.621037	0.750159	0.584858
O7	O	1.096783	-0.003794	-0.081787
O8	O	1.430117	0.329539	0.251546
O9	O	1.763450	0.662873	0.584880
O10	O	1.080537	0.161999	-0.081828
O11	O	1.413871	0.495333	0.251506
O12	O	1.747204	0.828666	0.584839
O13	O	1.096769	-0.003799	0.081796
O14	O	1.430103	0.329535	0.415129
O15	O	1.763436	0.662868	0.748462
O16	O	0.954356	0.083488	0.081774
O17	O	1.287689	0.416821	0.415107
O18	O	1.621023	0.750154	0.748441
O19	O	1.222937	0.074709	0.081777
O20	O	1.556270	0.408042	0.415110
O21	O	1.889603	0.741375	0.748444
Zn22	Zn	1.088644	0.079097	0.107748
Zn23	Zn	1.421977	0.412431	0.441081
Zn24	Zn	1.755311	0.745764	0.774414
Zn25	Zn	1.088663	0.079104	-0.107780
Zn26	Zn	1.421996	0.412437	0.225554
Zn27	Zn	1.755329	0.745770	0.558887
O28	O	1.080523	0.161995	0.081755
O29	O	1.413857	0.495328	0.415089
O30	O	1.747190	0.828662	0.748422
C31	C	0.920009	0.083079	-0.000018
C32	C	1.253342	0.416412	0.333316
C33	C	1.586675	0.749745	0.666649
C34	C	0.817643	0.081846	-0.000018
C35	C	1.150977	0.415179	0.333316
C36	C	1.484310	0.748513	0.666649
C37	C	0.734511	0.080844	-0.000021
C38	C	1.067845	0.414178	0.333312
C39	C	1.401178	0.747511	0.666645
C40	C	0.630218	0.079593	-0.000022
C41	C	0.963551	0.412926	0.333312
C42	C	1.296884	0.746260	0.666645
C43	C	0.547091	0.078600	-0.000021
C44	C	0.880424	0.411933	0.333312
C45	C	1.213757	0.745266	0.666645
C46	C	0.442790	0.077348	-0.000023
C47	C	0.776124	0.410682	0.333310
C48	C	1.109457	0.744015	0.666644
C49	C	1.096370	-0.025015	0.000007
C50	C	1.429703	0.308319	0.333341
C51	C	1.763037	0.641652	0.666674
C52	C	1.095148	-0.088239	0.000017
C53	C	1.428482	0.245095	0.333350
C54	C	1.761815	0.578428	0.666683
C55	C	1.087486	-0.480282	-0.089206
C56	C	1.420819	-0.146949	0.244128
C57	C	1.754153	0.186384	0.577461
C58	C	1.086324	-0.539687	-0.089211
C59	C	1.419658	-0.206354	0.244122
C60	C	1.752991	0.126979	0.577455
O61	O	1.085699	-0.570404	-0.165046
O62	O	1.419032	-0.237071	0.168287
O63	O	1.752366	0.096262	0.501621
N64	N	1.085741	-0.569404	-0.000043
N65	N	1.419074	-0.236070	0.333290
N66	N	1.752408	0.097263	0.666623
C67	C	1.086309	-0.539711	0.089136
C68	C	1.419643	-0.206378	0.422469
C69	C	1.752976	0.126955	0.755803
O70	O	1.085705	-0.570442	0.164980
O71	O	1.419039	-0.237109	0.498313
O72	O	1.752372	0.096225	0.831646
C73	C	1.087464	-0.480307	0.089140
C74	C	1.420797	-0.146974	0.422474
C75	C	1.754131	0.186359	0.755807
C76	C	1.088057	-0.450595	-0.000033
C77	C	1.421390	-0.117261	0.333300
C78	C	1.754724	0.216072	0.666633
C79	C	1.088078	-0.450570	-0.178372
C80	C	1.421411	-0.117237	0.154961
C81	C	1.754744	0.216097	0.488295
C82	C	1.089241	-0.391169	-0.178366
C83	C	1.422574	-0.057836	0.154967
C84	C	1.755907	0.275497	0.488301
C85	C	1.089812	-0.361481	-0.089194
C86	C	1.423145	-0.028148	0.244140
C87	C	1.756479	0.305185	0.577473
C88	C	1.089220	-0.391194	-0.000027
C89	C	1.422553	-0.057861	0.333306
C90	C	1.755887	0.275473	0.666639
C91	C	1.088026	-0.450616	0.178319
C92	C	1.421359	-0.117282	0.511652
C93	C	1.754693	0.216051	0.844985
C94	C	1.089180	-0.391207	0.178316
C95	C	1.422513	-0.057874	0.511649
C96	C	1.755847	0.275459	0.844982
C97	C	1.089773	-0.361495	0.089142
C98	C	1.423106	-0.028161	0.422475
C99	C	1.756440	0.305172	0.755809
C100	C	1.090954	-0.302106	0.089151
C101	C	1.424288	0.031228	0.422485
C102	C	1.757621	0.364561	0.755818
N103	N	1.091538	-0.272389	-0.000017
N104	N	1.424871	0.060944	0.333317
N105	N	1.758205	0.394277	0.666650
C106	C	1.090967	-0.302077	-0.089189
C107	C	1.424300	0.031256	0.244144
C108	C	1.757633	0.364589	0.577478
C109	C	1.083883	-0.664464	0.089119
C110	C	1.417216	-0.331131	0.422453
C111	C	1.750549	0.002203	0.755786
C112	C	1.082735	-0.723868	0.089116
C113	C	1.416068	-0.390534	0.422449
C114	C	1.749401	-0.057201	0.755783
C115	C	1.082748	-0.723839	-0.089232
C116	C	1.416081	-0.390506	0.244102
C117	C	1.749415	-0.057173	0.577435
C118	C	1.083903	-0.664435	-0.089227
C119	C	1.417236	-0.331102	0.244106
C120	C	1.750569	0.002232	0.577440
C121	C	1.084466	-0.634748	-0.000048
C122	C	1.417800	-0.301414	0.333285
C123	C	1.751133	0.031919	0.666618
C124	C	1.093410	-0.177332	-0.089170
C125	C	1.426743	0.156001	0.244164
C126	C	1.760077	0.489335	0.577497
C127	C	1.094577	-0.117927	-0.089156
C128	C	1.427910	0.215407	0.244178
C129	C	1.761244	0.548740	0.577511
C130	C	1.094559	-0.117960	0.089191
C131	C	1.427892	0.215374	0.422524
C132	C	1.761225	0.548707	0.755858
C133	C	1.093397	-0.177360	0.089178
C134	C	1.426730	0.155973	0.422511
C135	C	1.760063	0.489306	0.755844
C136	C	1.092819	-0.207045	-0.000011
C137	C	1.426153	0.126288	0.333323
C138	C	1.759486	0.459622	0.666656
O139	O	1.091577	-0.271351	0.164947
O140	O	1.424910	0.061983	0.498281
O141	O	1.758243	0.395316	0.831614
O142	O	1.091559	-0.271338	-0.165020
O143	O	1.424892	0.061995	0.168313
O144	O	1.758225	0.395328	0.501647
C145	C	1.257298	0.075122	-0.000017
C146	C	1.590631	0.408456	0.333317
C147	C	1.923965	0.741789	0.666650
C148	C	1.359663	0.076355	-0.000023
C149	C	1.692997	0.409688	0.333311
C150	C	2.026330	0.743022	0.666644
C151	C	1.080937	0.183216	-0.000042
C152	C	1.414270	0.516549	0.333292
C153	C	1.747603	0.849882	0.666625
C154	C	1.082158	0.246440	-0.000057
C155	C	1.415492	0.579773	0.333276
C156	C	1.748825	0.913106	0.666609
N157	N	1.088638	0.079093	0.254840
N158	N	1.421972	0.412426	0.588173
N159	N	1.755305	0.745760	0.921506
N160	N	1.088676	0.079104	-0.254872
N161	N	1.422009	0.412437	0.078462
N162	N	1.755342	0.745770	0.411795
C163	C	1.088661	0.079104	0.656131
C164	C	1.421995	0.412437	0.989464
C165	C	1.755328	0.745771	1.322797
C166	C	1.088652	0.079103	0.544479
C167	C	1.421985	0.412436	0.877813
C168	C	1.755319	0.745770	1.211146
C169	C	1.088650	0.079099	0.455489
C170	C	1.421984	0.412432	0.788822
C171	C	1.755317	0.745766	1.122155
C172	C	1.088640	0.079097	0.343830
C173	C	1.421973	0.412430	0.677164
C174	C	1.755307	0.745764	1.010497
H175	H	1.095062	-0.093737	-0.161775
H176	H	1.428395	0.239596	0.171559
H177	H	1.761729	0.572929	0.504892
H178	H	1.084384	-0.640247	-0.161840
H179	H	1.417717	-0.306914	0.171493
H180	H	1.751051	0.026420	0.504827
H181	H	1.084344	-0.640296	0.161744
H182	H	1.417678	-0.306963	0.495077
H183	H	1.751011	0.026370	0.828410
H184	H	1.089625	-0.367038	0.250937
H185	H	1.422958	-0.033704	0.584271
H186	H	1.756292	0.299629	0.917604
H187	H	1.087545	-0.474797	0.250934
H188	H	1.420878	-0.141464	0.584267
H189	H	1.754211	0.191869	0.917600
F190	F	1.092782	-0.208985	0.184086
F191	F	1.426116	0.124348	0.517419
F192	F	1.759449	0.457682	0.850752
F193	F	1.082134	-0.755445	-0.184138
F194	F	1.415467	-0.422112	0.149196
F195	F	1.748801	-0.088779	0.482529
F196	F	1.095169	-0.086354	0.184090
F197	F	1.428502	0.246980	0.517423
F198	F	1.761835	0.580313	0.850757
H199	H	1.087609	-0.474735	-0.250991
H200	H	1.420943	-0.141402	0.082342
H201	H	1.754276	0.191932	0.415676
H202	H	1.092935	-0.201494	-0.161795
H203	H	1.426269	0.131840	0.171538
H204	H	1.759602	0.465173	0.504871
F205	F	1.082120	-0.755485	0.184027
F206	F	1.415454	-0.422151	0.517360
F207	F	1.748787	-0.088818	0.850693
F208	F	1.089866	-0.359554	-0.273278
F209	F	1.423199	-0.026221	0.060056
F210	F	1.756532	0.307113	0.393389
