data_functionalizedCrystal
_audit_creation_method	'MofGen! by Chris Wilmer'
_symmetry_space_group_name_H-M	'P1'
_symmetry_Int_Tables_number	1
_symmetry_cell_setting	triclinic
loop_
_symmetry_equiv_pos_as_xyz
  x,y,z
_cell_length_a	12.837943
_cell_length_b	12.837942
_cell_length_c	11.295483
_cell_angle_alpha	94.530417
_cell_angle_beta	85.461227
_cell_angle_gamma	94.828940
loop_
_atom_site_label
_atom_site_type_symbol
_atom_site_fract_x
_atom_site_fract_y
_atom_site_fract_z
O1	O	1.408689	0.265788	-0.099003
O2	O	1.105556	0.252345	-0.099010
O3	O	1.250401	0.107500	-0.098999
O4	O	1.263845	0.410633	-0.099013
O5	O	1.237676	0.120201	0.099051
O6	O	1.092832	0.265045	0.099040
O7	O	1.395965	0.278489	0.099047
Cu8	Cu	1.243237	0.272927	0.117127
Cu9	Cu	1.258285	0.257907	-0.117090
O10	O	1.251121	0.423333	0.099037
C11	C	1.060125	0.254153	0.000014
C12	C	0.943710	0.240609	0.000012
C13	C	0.718835	0.403439	0.000021
C14	C	0.609453	0.390717	0.000020
C15	C	0.615561	0.202446	0.000016
C16	C	0.724943	0.215167	0.000017
C17	C	0.776576	0.315667	0.000018
C18	C	0.885961	0.328387	0.000011
C19	C	0.892066	0.140117	0.000016
C20	C	0.782684	0.127396	0.000015
C21	C	1.239497	0.074781	0.000025
C22	C	1.225953	-0.041634	0.000023
C23	C	1.388784	-0.266509	0.000002
C24	C	1.376062	-0.375892	-0.000000
C25	C	1.187791	-0.369784	0.000008
C26	C	1.200512	-0.260402	0.000010
C27	C	1.301011	-0.208768	0.000009
C28	C	1.313731	-0.099383	0.000020
C29	C	1.125461	-0.093278	0.000019
C30	C	1.112740	-0.202660	0.000017
C31	C	1.441396	0.276680	0.000021
C32	C	1.557812	0.290224	0.000015
C33	C	1.262024	0.456052	0.000010
C34	C	1.275569	0.572467	0.000004
N35	N	1.232661	0.283491	0.281863
N36	N	1.268868	0.247335	-0.281825
C37	C	1.344996	0.171231	0.531161
C38	C	1.337012	0.179223	0.655824
C39	C	1.208702	0.307459	0.655854
C40	C	1.216687	0.299467	0.531191
C41	C	1.284837	0.231353	0.468849
C42	C	1.292826	0.223367	0.344183
C43	C	1.164512	0.351597	0.344216
C44	C	1.156528	0.359589	0.468879
H45	H	0.740628	0.045572	0.000028
H46	H	1.153209	0.362909	0.706630
H47	H	0.928000	0.410219	0.000014
H48	H	1.447536	-0.422901	-0.000010
H49	H	1.470613	-0.224468	0.000013
H50	H	0.939091	0.068646	0.000006
C51	C	1.087320	0.428784	0.659994
C52	C	1.081625	0.434463	0.537413
H53	H	1.041083	0.475017	0.702299
H54	H	1.067733	0.359108	0.680421
H55	H	1.157007	0.448395	0.680395
H56	H	1.011940	0.414845	0.517010
H57	H	1.101206	0.504155	0.516978
H58	H	1.105969	-0.411844	-0.000004
H59	H	1.115530	0.400555	0.293468
H60	H	0.562444	0.462191	0.000025
H61	H	0.760876	0.485269	0.000020
H62	H	1.395563	-0.057344	0.000023
C63	C	1.009641	-0.367625	0.000025
C64	C	1.002274	-0.259422	0.000026
H65	H	0.941441	-0.402662	0.000041
H66	H	1.050656	-0.391224	-0.069042
H67	H	1.041808	-0.382370	0.069087
H68	H	0.970114	-0.244676	-0.069042
H69	H	0.961244	-0.235814	0.069100
H70	H	0.573495	0.120630	0.000114
H71	H	1.053990	-0.046252	0.000034
H72	H	1.348320	0.167908	0.293425
C73	C	1.471029	0.045284	0.543647
C74	C	1.419906	0.096365	0.462626
H75	H	1.517271	-0.000940	0.501334
H76	H	1.509872	0.095717	0.592256
H77	H	1.420611	0.006416	0.592284
H78	H	1.470324	0.135239	0.413994
H79	H	1.381061	0.045925	0.413996
H80	H	1.385998	0.130265	0.706555
