data_functionalizedCrystal
_audit_creation_method	'MofGen! by Chris Wilmer'
_symmetry_space_group_name_H-M	'P1'
_symmetry_Int_Tables_number	1
_symmetry_cell_setting	triclinic
loop_
_symmetry_equiv_pos_as_xyz
  x,y,z
_cell_length_a	10.654550
_cell_length_b	23.532407
_cell_length_c	9.130313
_cell_angle_alpha	89.994125
_cell_angle_beta	89.996220
_cell_angle_gamma	83.666790
loop_
_atom_site_label
_atom_site_type_symbol
_atom_site_fract_x
_atom_site_fract_y
_atom_site_fract_z
O1	O	1.665300	0.079982	-0.121936
O2	O	1.299580	0.087603	-0.121914
O3	O	1.493468	0.000933	-0.121899
O4	O	1.471412	0.166652	-0.121952
O5	O	1.493466	0.000935	0.121700
O6	O	1.299578	0.087605	0.121684
O7	O	1.665298	0.079985	0.121662
Cu8	Cu	1.482437	0.083795	0.143916
Cu9	Cu	1.482440	0.083792	-0.144168
O10	O	1.471409	0.166655	0.121647
C11	C	1.252799	0.087044	-0.000112
C12	C	1.113408	0.085370	-0.000102
C13	C	1.032306	0.136400	-0.000140
C14	C	0.901335	0.134824	-0.000165
C15	C	0.932582	0.031183	-0.000121
C16	C	1.063550	0.032760	-0.000085
C17	C	1.014265	0.196236	-0.000172
C18	C	0.883294	0.194660	-0.000196
C19	C	1.492905	-0.020286	-0.000096
C20	C	1.491217	-0.083514	-0.000085
C21	C	1.595364	-0.481938	-0.000171
C22	C	1.593795	-0.541349	-0.000182
O23	O	1.690341	-0.577464	-0.000242
N24	N	1.478529	-0.564726	-0.000174
C25	C	1.364824	-0.528689	-0.000170
O26	O	1.266636	-0.554029	-0.000166
C27	C	1.366394	-0.469280	-0.000170
C28	C	1.481668	-0.445906	-0.000163
C29	C	1.710629	-0.458564	-0.000166
C30	C	1.712197	-0.399158	-0.000152
C31	C	1.598500	-0.363126	-0.000144
C32	C	1.483236	-0.386500	-0.000149
C33	C	1.252690	-0.433244	-0.000176
C34	C	1.254270	-0.373832	-0.000177
C35	C	1.369544	-0.350458	-0.000170
C36	C	1.371107	-0.291061	-0.000127
N37	N	1.486374	-0.267684	-0.000135
C38	C	1.600070	-0.303716	-0.000143
C39	C	1.361535	-0.653453	-0.000174
C40	C	1.359964	-0.712861	-0.000164
C41	C	1.588936	-0.725517	-0.000179
C42	C	1.590506	-0.666108	-0.000178
C43	C	1.476802	-0.630076	-0.000182
C44	C	1.603355	-0.178958	-0.000113
C45	C	1.604913	-0.119546	-0.000093
C46	C	1.375942	-0.106896	-0.000086
C47	C	1.374383	-0.166303	-0.000098
C48	C	1.488100	-0.202333	-0.000117
O49	O	1.274613	-0.254911	-0.000073
O50	O	1.698241	-0.278369	-0.000167
C51	C	1.712079	0.080543	-0.000143
C52	C	1.851469	0.082217	-0.000163
C53	C	1.471972	0.187873	-0.000159
C54	C	1.473661	0.251101	-0.000180
N55	N	1.482445	0.083797	0.346539
N56	N	1.482443	0.083786	-0.346791
C57	C	1.568320	0.045432	0.423197
C58	C	1.568317	0.045425	0.576534
C59	C	1.396559	0.122152	0.576540
C60	C	1.396557	0.122156	0.423206
C61	C	1.667487	0.001136	0.423195
C62	C	1.667483	0.001129	0.576532
H63	H	1.698787	-0.100519	-0.000084
C64	C	1.052901	0.227850	0.137543
C65	C	1.119591	0.282360	0.122061
C66	C	1.158229	0.313972	0.259772
C67	C	1.130178	0.291073	0.412965
C68	C	1.063484	0.236560	0.428453
C69	C	1.024846	0.204948	0.290742
H70	H	1.140360	0.299314	0.008653
H71	H	1.207600	0.354327	0.248306
H72	H	1.158780	0.314474	0.514907
H73	H	1.042716	0.219606	0.541862
H74	H	0.975475	0.164593	0.302209
C75	C	1.236450	-0.613820	-0.000152
C76	C	1.206036	-0.571245	0.126349
C77	C	1.080953	-0.531615	0.126369
C78	C	0.986284	-0.534562	-0.000112
C79	C	1.016695	-0.577139	-0.126623
C80	C	1.141778	-0.616768	-0.126643
H81	H	1.276118	-0.569062	0.219986
H82	H	1.058441	-0.500097	0.220021
H83	H	0.893690	-0.505226	-0.000097
H84	H	0.946613	-0.579321	-0.220260
H85	H	1.164290	-0.648287	-0.220295
C86	C	1.728443	-0.218585	-0.000123
C87	C	1.758881	-0.261159	-0.126622
C88	C	1.883968	-0.300786	-0.126620
C89	C	1.978617	-0.297839	-0.000118
C90	C	1.948182	-0.255263	0.126390
C91	C	1.823095	-0.215637	0.126388
H92	H	1.688814	-0.263343	-0.220274
H93	H	1.906498	-0.332303	-0.220271
H94	H	2.071214	-0.327173	-0.000117
H95	H	2.018249	-0.253080	0.220043
H96	H	1.800565	-0.184119	0.220039
C97	C	0.820810	0.219089	0.141866
C98	C	0.832337	0.281447	0.186100
C99	C	0.769854	0.305873	0.328162
C100	C	0.695845	0.267942	0.425990
C101	C	0.684315	0.205581	0.381759
C102	C	0.746798	0.181154	0.239697
H103	H	0.887126	0.309529	0.113679
H104	H	0.778390	0.352037	0.360904
H105	H	0.649592	0.286024	0.531153
H106	H	0.629526	0.177499	0.454180
H107	H	0.738262	0.134991	0.206955
H108	H	1.806065	-0.380133	-0.000153
H109	H	1.803219	-0.487896	-0.000178
C110	C	1.628066	-0.054756	0.640783
C111	C	1.719669	-0.092328	0.740415
C112	C	1.680261	-0.148214	0.804660
C113	C	1.549249	-0.166528	0.769273
C114	C	1.457638	-0.128955	0.669635
C115	C	1.497046	-0.073069	0.605390
H116	H	1.816659	-0.078771	0.766616
H117	H	1.748078	-0.176028	0.878419
H118	H	1.520077	-0.207899	0.816831
H119	H	1.360648	-0.142512	0.643435
H120	H	1.429228	-0.045255	0.531632
H121	H	1.129581	-0.008793	-0.000034
H122	H	1.049317	0.215288	-0.105349
H123	H	0.840848	0.217204	-0.102157
H124	H	0.891971	-0.011650	-0.000129
H125	H	1.758231	0.015006	0.375626
H126	H	1.684372	-0.647081	-0.000174
H127	H	1.647430	-0.042635	0.381590
H128	H	1.763686	0.010887	0.618139
H129	H	1.681514	-0.754865	-0.000191
C130	C	1.247588	-0.192022	-0.000098
C131	C	1.153345	-0.178648	0.126397
C132	C	1.026551	-0.204364	0.126378
C133	C	0.994000	-0.243453	-0.000136
C134	C	1.088246	-0.256829	-0.126641
C135	C	1.215040	-0.231113	-0.126622
H136	H	1.177439	-0.149710	0.220059
H137	H	0.956785	-0.194462	0.220026
H138	H	0.900140	-0.262490	-0.000150
H139	H	1.064151	-0.285767	-0.220302
H140	H	1.284806	-0.241015	-0.220270
H141	H	1.266096	-0.731887	-0.000144
H142	H	1.158822	-0.452264	-0.000190
C143	C	1.302091	0.164349	0.660877
C144	C	1.302299	0.164446	0.829538
C145	C	1.207830	0.206644	0.913870
C146	C	1.113153	0.248745	0.829542
C147	C	1.112941	0.248649	0.660871
C148	C	1.207410	0.206451	0.576539
H149	H	1.372388	0.133279	0.891971
H150	H	1.207987	0.206714	1.038732
H151	H	1.043221	0.279982	0.891970
H152	H	1.042852	0.279816	0.598438
H153	H	1.207253	0.206380	0.451677
H154	H	1.161675	-0.344497	-0.000182
H155	H	1.283373	-0.077548	-0.000074
H156	H	1.326620	0.153390	0.360792
