data_functionalizedCrystal
_audit_creation_method	'MofGen! by Chris Wilmer'
_symmetry_space_group_name_H-M	'P1'
_symmetry_Int_Tables_number	1
_symmetry_cell_setting	triclinic
loop_
_symmetry_equiv_pos_as_xyz
  x,y,z
_cell_length_a	10.540535
_cell_length_b	13.596369
_cell_length_c	14.519709
_cell_angle_alpha	89.993066
_cell_angle_beta	95.898106
_cell_angle_gamma	90.002927
loop_
_atom_site_label
_atom_site_type_symbol
_atom_site_fract_x
_atom_site_fract_y
_atom_site_fract_z
O1	O	1.684565	0.081740	-0.129949
O2	O	1.315027	0.081754	-0.142199
O3	O	1.509594	0.081738	-0.001889
O4	O	1.489998	0.081756	-0.270260
O5	O	1.509574	-0.081845	-0.001881
O6	O	1.315007	-0.081829	-0.142192
O7	O	1.684546	-0.081843	-0.129942
Zn8	Zn	1.499773	-0.107808	-0.136065
Zn9	Zn	1.499799	0.107719	-0.136076
O10	O	1.489979	-0.081827	-0.270252
C11	C	1.267723	-0.000036	-0.141278
C12	C	1.126803	-0.000031	-0.138532
N13	N	1.499765	-0.254900	-0.136058
C14	C	1.499797	-0.656191	-0.136076
C15	C	1.499785	-0.544540	-0.136074
C16	C	1.499782	-0.455549	-0.136068
C17	C	1.499768	-0.343891	-0.136065
C18	C	1.091178	-0.000042	-0.036088
C19	C	0.944607	-0.000423	-0.033198
C20	C	0.916978	-0.093271	-0.185291
C21	C	1.063722	-0.093340	-0.187471
C22	C	1.063612	0.092691	-0.188970
C23	C	0.917315	0.093907	-0.184233
C24	C	1.731849	-0.000051	-0.130863
C25	C	1.872770	-0.000050	-0.133609
C26	C	1.508671	-0.000054	0.032480
C27	C	1.505934	-0.000054	0.134876
N28	N	1.499817	0.254811	-0.136076
C29	C	1.490902	-0.000033	-0.304621
C30	C	1.493638	-0.000026	-0.407017
C31	C	1.495859	-0.000028	0.509826
C32	C	1.498657	-0.000036	0.405503
C33	C	1.500896	-0.000042	0.322354
C34	C	1.503695	-0.000048	0.218025
H35	H	0.915690	0.066388	0.007221
H36	H	1.106406	0.163375	-0.157007
C37	C	1.148456	0.090237	0.017066
H38	H	1.194615	0.128746	-0.022738
H39	H	1.081794	0.128636	0.037973
H40	H	1.204336	0.069018	0.068753
H41	H	0.868867	-0.096470	-0.259222
C42	C	0.906702	-0.091243	0.021134
H43	H	0.980925	-0.128054	0.041516
H44	H	0.865897	-0.070611	0.073212
H45	H	0.849912	-0.131111	-0.017820
C46	C	0.850086	0.101895	-0.283244
H47	H	0.793726	0.047789	-0.295059
H48	H	0.803043	0.161538	-0.289389
H49	H	0.912023	0.101262	-0.326375
C50	C	1.092555	0.093929	-0.290787
H51	H	1.142899	0.038245	-0.302539
H52	H	1.014820	0.092025	-0.330144
H53	H	1.137835	0.152273	-0.302484
H54	H	1.135023	-0.066800	0.002596
C55	C	1.118469	-0.187836	-0.140303
H56	H	1.050995	-0.225819	-0.119988
H57	H	1.161062	-0.225028	-0.183178
H58	H	1.177109	-0.170954	-0.088622
H59	H	1.085985	-0.097318	-0.262570
H60	H	0.886430	-0.162919	-0.149827
C61	C	0.879193	0.187078	-0.133436
H62	H	0.836302	0.168805	-0.081595
H63	H	0.953541	0.223684	-0.112958
H64	H	0.824185	0.226218	-0.174418
