data_functionalizedCrystal
_audit_creation_method	'MofGen! by Chris Wilmer'
_symmetry_space_group_name_H-M	'P1'
_symmetry_Int_Tables_number	1
_symmetry_cell_setting	triclinic
loop_
_symmetry_equiv_pos_as_xyz
  x,y,z
_cell_length_a	12.759401
_cell_length_b	25.639239
_cell_length_c	12.759393
_cell_angle_alpha	89.964022
_cell_angle_beta	89.979062
_cell_angle_gamma	90.040211
loop_
_atom_site_label
_atom_site_type_symbol
_atom_site_fract_x
_atom_site_fract_y
_atom_site_fract_z
Zn1	Zn	1.606091	-0.208104	-0.593980
Zn2	Zn	1.605909	-0.295549	-0.418283
Zn3	Zn	1.430390	-0.208132	-0.418315
Zn4	Zn	1.430308	-0.295513	-0.593921
O5	O	1.518175	-0.251825	-0.506125
O6	O	1.753088	-0.219708	-0.570685
O7	O	1.582584	-0.283980	-0.271266
O8	O	1.453808	-0.134963	-0.441656
O9	O	1.752954	-0.283953	-0.441601
O10	O	1.582895	-0.134943	-0.570716
O11	O	1.453631	-0.219755	-0.271290
O12	O	1.283358	-0.219720	-0.441598
O13	O	1.453669	-0.283891	-0.740950
O14	O	1.283298	-0.283918	-0.570615
O15	O	1.582816	-0.219672	-0.740993
O16	O	1.582505	-0.368710	-0.441544
O17	O	1.453492	-0.368683	-0.570584
C18	C	1.245207	-0.251818	-0.506104
C19	C	1.128431	-0.251828	-0.506120
C20	C	1.073565	-0.285307	-0.573193
C21	C	0.963841	-0.285309	-0.573214
C22	C	0.963858	-0.218352	-0.439079
C23	C	1.073580	-0.218347	-0.439065
C24	C	1.517998	-0.387667	-0.506077
C25	C	1.518018	-0.445781	-0.506091
C26	C	1.585527	-0.806146	-0.439048
C27	C	1.585568	-0.860750	-0.439062
O28	O	1.642783	-0.888988	-0.382007
N29	N	1.518359	-0.888064	-0.506194
C30	C	1.451113	-0.860770	-0.573324
O31	O	1.393952	-0.889017	-0.630428
C32	C	1.451079	-0.806167	-0.573315
C33	C	1.518284	-0.778856	-0.506171
C34	C	1.652728	-0.778835	-0.371910
C35	C	1.652685	-0.724234	-0.371895
C36	C	1.585442	-0.696945	-0.439018
C37	C	1.518242	-0.724255	-0.506156
C38	C	1.383839	-0.778874	-0.640449
C39	C	1.383810	-0.724267	-0.640435
C40	C	1.451016	-0.696957	-0.573291
C41	C	1.450956	-0.642365	-0.573263
N42	N	1.518165	-0.615052	-0.506131
C43	C	1.585408	-0.642341	-0.439008
C44	C	1.451192	-0.975441	-0.573341
C45	C	1.451221	-1.030043	-0.573346
C46	C	1.585677	-1.030019	-0.439085
C47	C	1.585642	-0.975416	-0.439075
C48	C	1.518401	-0.948127	-0.506208
C49	C	1.585313	-0.527676	-0.438981
C50	C	1.585261	-0.473071	-0.438969
C51	C	1.450810	-0.473100	-0.573233
C52	C	1.450857	-0.527700	-0.573242
C53	C	1.518117	-0.554987	-0.506112
O54	O	1.393774	-0.614093	-0.630292
O55	O	1.642569	-0.614088	-0.381925
C56	C	1.792208	-0.251831	-0.506146
C57	C	1.908984	-0.251834	-0.506156
C58	C	1.518253	-0.251774	-0.780158
C59	C	1.518287	-0.251753	-0.896935
C60	C	1.518381	-0.115452	-0.506196
C61	C	1.518468	-0.057337	-0.506226
C62	C	1.585539	-0.218309	-0.951821
C63	C	1.585556	-0.218286	-1.061546
C64	C	1.451068	-0.285156	-1.061487
C65	C	1.451045	-0.285176	-0.951765
C66	C	1.518157	-0.251837	-0.233157
C67	C	1.518327	-0.251711	-0.116381
H68	H	1.639988	-0.450836	-0.384288
H69	H	0.919174	-0.312570	-0.627833
O70	O	1.650986	-0.185783	-1.114699
C71	C	1.710306	-0.156280	-1.042772
H72	H	1.713894	-0.177712	-0.964549
H73	H	1.671895	-0.116571	-1.031114
C74	C	1.817737	-0.122419	-1.181691
C75	C	1.822151	-0.148744	-1.085619
H76	H	1.886727	-0.117768	-1.208123
H77	H	1.777771	-0.142294	-1.230151
H78	H	1.785723	-0.089331	-1.171963
H79	H	1.854152	-0.181833	-1.095351
H80	H	1.862126	-0.128874	-1.037162
H81	H	1.396324	-0.312369	-1.106143
H82	H	1.396273	-0.312410	-0.907075
H83	H	1.118221	-0.312568	-0.627796
O84	O	1.126721	-0.185808	-0.373805
C85	C	1.054783	-0.156252	-0.314636
H86	H	0.976539	-0.177667	-0.310924
H87	H	1.043183	-0.116567	-0.353258
C88	C	1.193666	-0.122345	-0.207402
C89	C	1.097568	-0.148649	-0.202836
H90	H	1.220059	-0.117653	-0.138440
H91	H	1.242133	-0.142255	-0.247268
H92	H	1.183987	-0.089277	-0.239592
H93	H	1.107251	-0.181719	-0.170659
H94	H	1.049104	-0.128744	-0.162962
H95	H	1.640085	-0.549887	-0.384320
H96	H	1.707412	-0.702001	-0.317224
H97	H	1.707491	-0.801048	-0.317251
O98	O	1.651027	-0.948969	-0.373822
C99	C	1.710357	-0.984771	-0.314562
H100	H	1.713991	-1.023676	-0.357610
H101	H	1.671924	-0.990627	-0.234738
C102	C	1.817709	-0.915632	-0.246636
C103	C	1.822180	-0.963414	-0.299513
H104	H	1.886686	-0.902458	-0.237348
H105	H	1.777736	-0.891511	-0.286557
H106	H	1.785678	-0.920518	-0.180122
H107	H	1.854199	-0.958526	-0.366030
H108	H	1.862161	-0.987535	-0.259602
H109	H	1.640434	-1.052248	-0.384433
O110	O	1.385896	-1.056489	-0.638660
C111	C	1.326522	-1.020686	-0.697875
H112	H	1.369530	-0.981740	-0.701534
H113	H	1.246746	-1.014935	-0.659327
C114	C	1.258508	-1.089791	-0.805195
C115	C	1.311336	-1.041958	-0.809696
H116	H	1.249136	-1.102913	-0.874170
H117	H	1.298506	-1.113912	-0.765299
H118	H	1.192034	-1.084992	-0.773067
H119	H	1.377813	-1.046759	-0.841812
H120	H	1.271349	-1.017838	-0.849601
H121	H	1.396428	-0.953225	-0.628006
H122	H	1.329055	-0.702052	-0.695106
O123	O	1.318525	-0.805315	-0.705777
C124	C	1.259164	-0.769509	-0.764996
H125	H	1.302178	-0.730564	-0.768644
H126	H	1.179384	-0.763756	-0.726458
C127	C	1.191155	-0.838607	-0.872334
C128	C	1.243990	-0.790776	-0.876822
H129	H	1.181790	-0.851727	-0.941312
H130	H	1.231144	-0.862731	-0.832435
H131	H	1.124677	-0.833807	-0.840214
H132	H	1.310471	-0.795578	-0.908929
H133	H	1.204011	-0.766653	-0.916728
H134	H	0.919185	-0.191094	-0.384484
O135	O	1.385539	-0.554152	-0.638559
C136	C	1.326158	-0.518354	-0.697777
H137	H	1.369154	-0.479404	-0.701431
H138	H	1.246378	-0.512609	-0.659235
C139	C	1.258174	-0.587462	-0.805106
C140	C	1.310988	-0.539625	-0.809601
H141	H	1.248811	-0.600584	-0.874083
H142	H	1.298177	-0.611581	-0.765208
H143	H	1.191696	-0.582668	-0.772983
H144	H	1.377469	-0.544421	-0.841711
H145	H	1.270996	-0.515508	-0.849507
O146	O	1.385649	-0.446559	-0.638547
C147	C	1.445427	-0.414910	-0.706417
H148	H	1.528177	-0.431327	-0.712976
H149	H	1.449044	-0.373540	-0.673916
C150	C	1.292423	-0.393883	-0.807542
C151	C	1.394055	-0.414049	-0.815605
H152	H	1.260733	-0.393350	-0.874893
H153	H	1.252148	-0.415204	-0.761815
H154	H	1.295451	-0.359410	-0.780454
H155	H	1.391025	-0.448524	-0.842679
H156	H	1.434329	-0.392734	-0.861339
H157	H	1.640288	-0.191092	-0.907182
