data_functionalizedCrystal
_audit_creation_method	'MofGen! by Chris Wilmer'
_symmetry_space_group_name_H-M	'P1'
_symmetry_Int_Tables_number	1
_symmetry_cell_setting	triclinic
loop_
_symmetry_equiv_pos_as_xyz
  x,y,z
_cell_length_a	12.594517
_cell_length_b	12.594516
_cell_length_c	12.827885
_cell_angle_alpha	89.971946
_cell_angle_beta	89.977546
_cell_angle_gamma	90.015485
loop_
_atom_site_label
_atom_site_type_symbol
_atom_site_fract_x
_atom_site_fract_y
_atom_site_fract_z
Zn1	Zn	1.627270	-0.423707	-0.590950
Zn2	Zn	1.627160	-0.601723	-0.416216
Zn3	Zn	1.449273	-0.423757	-0.416214
Zn4	Zn	1.449256	-0.601642	-0.590906
O5	O	1.538239	-0.512707	-0.503571
O6	O	1.776201	-0.447334	-0.567790
O7	O	1.603524	-0.578170	-0.269979
O8	O	1.472937	-0.274804	-0.439411
O9	O	1.776120	-0.578121	-0.439414
O10	O	1.603711	-0.274767	-0.567789
O11	O	1.472831	-0.447419	-0.269978
O12	O	1.300325	-0.447341	-0.439368
O13	O	1.472908	-0.577983	-0.737148
O14	O	1.300312	-0.578032	-0.567713
O15	O	1.603694	-0.447255	-0.737180
O16	O	1.603507	-0.750658	-0.439371
O17	O	1.472802	-0.750598	-0.567715
C18	C	1.261698	-0.512684	-0.503536
C19	C	1.143393	-0.512700	-0.503546
C20	C	1.003352	-0.441539	-0.433899
C21	C	1.074211	-0.415602	-0.529257
C22	C	1.074105	-0.538588	-0.408198
C23	C	1.003466	-0.486755	-0.599031
C24	C	1.003354	-0.609786	-0.477908
C25	C	1.074182	-0.583887	-0.573332
C26	C	1.538170	-0.789248	-0.503561
C27	C	1.538237	-0.907553	-0.503592
C28	C	1.467140	-0.976813	-0.573349
C29	C	1.441206	-1.047681	-0.477992
C30	C	1.564268	-1.047484	-0.598965
C31	C	1.512252	-0.976863	-0.408185
C32	C	1.635359	-0.976660	-0.529221
C33	C	1.609462	-1.047496	-0.433799
C34	C	1.815860	-0.512731	-0.503607
C35	C	1.934166	-0.512741	-0.503622
C36	C	1.538312	-0.512605	-0.776142
C37	C	1.538343	-0.512561	-0.892295
C38	C	1.538338	-0.235086	-0.503604
C39	C	1.538381	-0.116781	-0.503619
C40	C	1.603067	-0.447860	-0.944096
C41	C	1.603100	-0.447814	-1.064146
C42	C	1.538228	-0.512732	-0.232061
C43	C	1.538404	-0.512476	-0.115909
H44	H	1.105083	-0.644083	-0.632331
N45	N	0.964344	-0.365961	-0.360069
N46	N	0.987071	-0.269850	-0.369823
H47	H	0.959521	-0.216470	-0.317686
N48	N	1.113248	-0.312622	-0.556502
N49	N	1.090544	-0.234152	-0.501199
H50	H	1.118110	-0.161419	-0.520434
N51	N	1.672538	-0.378393	-0.888245
N52	N	1.635035	-0.310643	-0.827327
H53	H	1.684099	-0.261578	-0.787883
H54	H	1.717408	-0.945444	-0.550922
N55	N	1.591842	-1.086405	-0.700123
N56	N	1.672455	-1.143081	-0.711617
H57	H	1.691923	-1.170568	-0.783061
H58	H	1.658516	-0.392424	-1.108693
N59	N	1.468838	-0.581993	-0.948148
N60	N	1.401100	-0.544449	-1.009065
H61	H	1.352008	-0.593484	-1.048510
H62	H	1.482992	-0.567876	-1.071368
N63	N	1.684961	-1.086180	-0.359718
N64	N	1.675254	-1.063341	-0.265380
H65	H	1.728571	-1.090662	-0.213057
H66	H	0.972566	-0.464780	-0.679721
N67	N	0.964270	-0.712724	-0.450604
N68	N	0.906140	-0.723926	-0.372364
H69	H	0.878534	-0.796627	-0.353068
N70	N	1.113066	-0.566032	-0.307015
N71	N	1.171091	-0.502607	-0.258347
H72	H	1.198611	-0.521981	-0.186886
N73	N	1.391574	-0.937884	-0.647243
N74	N	1.295478	-0.960697	-0.637551
H75	H	1.242107	-0.933203	-0.689734
N76	N	1.338256	-1.086839	-0.450811
N77	N	1.322059	-1.184626	-0.445723
H78	H	1.249349	-1.212279	-0.426531
H79	H	1.490198	-0.945970	-0.327518
