data_functionalizedCrystal
_audit_creation_method	'MofGen! by Chris Wilmer'
_symmetry_space_group_name_H-M	'P1'
_symmetry_Int_Tables_number	1
_symmetry_cell_setting	triclinic
loop_
_symmetry_equiv_pos_as_xyz
  x,y,z
_cell_length_a	10.723024
_cell_length_b	9.198806
_cell_length_c	10.723024
_cell_angle_alpha	89.997988
_cell_angle_beta	84.467869
_cell_angle_gamma	89.996352
loop_
_atom_site_label
_atom_site_type_symbol
_atom_site_fract_x
_atom_site_fract_y
_atom_site_fract_z
O1	O	1.657188	-0.120879	0.175024
O2	O	2.157188	0.379121	0.675024
O3	O	1.294035	-0.120884	0.191778
O4	O	1.794035	0.379116	0.691778
O5	O	1.483988	-0.120876	0.001825
O6	O	1.983988	0.379124	0.501825
O7	O	1.467235	-0.120887	0.364977
O8	O	1.967235	0.379113	0.864977
O9	O	1.483973	0.120909	0.001824
O10	O	1.983973	0.620909	0.501824
O11	O	1.294020	0.120901	0.191777
O12	O	1.794020	0.620901	0.691777
O13	O	1.657173	0.120906	0.175024
O14	O	2.157173	0.620906	0.675024
Cu15	Cu	1.475595	0.142981	0.183401
Cu16	Cu	1.975595	0.642981	0.683401
Cu17	Cu	1.475613	-0.142958	0.183401
Cu18	Cu	1.975613	0.357042	0.683401
O19	O	1.467220	0.120898	0.364977
O20	O	1.967220	0.620898	0.864977
C21	C	1.247528	0.000008	0.190558
C22	C	1.747528	0.500008	0.690558
C23	C	1.108974	0.000007	0.186911
C24	C	1.608974	0.500007	0.686911
C25	C	1.482762	0.000015	-0.044675
C26	C	1.982762	0.500015	0.455325
C27	C	1.479114	0.000010	-0.183229
C28	C	1.979114	0.500010	0.316771
C29	C	1.033991	0.000002	0.293198
C30	C	1.533991	0.500002	0.793198
C31	C	0.890788	0.000001	0.289431
C32	C	1.390788	0.500001	0.789431
C33	C	1.703680	0.000011	0.176243
C34	C	2.203680	0.500011	0.676243
C35	C	1.842234	0.000003	0.179891
C36	C	2.342234	0.500003	0.679891
N37	N	1.475592	0.344095	0.183399
N38	N	1.975592	0.844095	0.683399
N39	N	1.475626	-0.344072	0.183393
N40	N	1.975626	0.155928	0.683393
C41	C	1.555347	0.416295	0.103292
C42	C	2.055347	0.916295	0.603292
C43	C	1.555367	0.583707	0.103288
C44	C	2.055367	1.083707	0.603288
C45	C	1.585401	0.000009	-0.258212
C46	C	2.085401	0.500009	0.241788
C47	C	1.581634	0.000004	-0.401415
C48	C	2.081634	0.500004	0.098585
C49	C	1.468447	0.000004	0.411477
C50	C	1.968447	0.500004	0.911477
C51	C	1.472094	-0.000000	0.550031
C52	C	1.972094	0.500000	1.050031
H53	H	1.075814	0.000008	0.386984
H54	H	1.575814	0.500008	0.886984
F55	F	0.926441	-0.000003	0.060950
F56	F	1.426441	0.499997	0.560950
H57	H	1.623611	0.354171	0.034707
H58	H	2.123611	0.854171	0.534707
F59	F	1.386376	0.574786	0.273048
F60	F	1.886376	1.074786	0.773048
F61	F	1.054316	0.000020	0.064321
F62	F	1.554316	0.500020	0.564321
H63	H	1.381099	0.000010	-0.385544
H64	H	1.881099	0.500010	0.114456
H65	H	1.385328	-0.000001	-0.225051
H66	H	1.885328	0.499999	0.274949
F67	F	1.386352	0.425291	0.273035
F68	F	1.886352	0.925291	0.773035
F69	F	0.806574	-0.000015	0.408367
F70	F	1.306574	0.499985	0.908367
F71	F	1.644625	0.664859	0.013647
F72	F	2.144625	1.164859	0.513647
H73	H	1.679187	0.000019	-0.216390
H74	H	2.179187	0.500019	0.283610
H75	H	1.672624	0.000010	-0.465848
H76	H	2.172624	0.500010	0.034152
