data_functionalizedCrystal
_audit_creation_method	'MofGen! by Chris Wilmer'
_symmetry_space_group_name_H-M	'P1'
_symmetry_Int_Tables_number	1
_symmetry_cell_setting	triclinic
loop_
_symmetry_equiv_pos_as_xyz
  x,y,z
_cell_length_a	38.067023
_cell_length_b	38.077490
_cell_length_c	38.067077
_cell_angle_alpha	59.997704
_cell_angle_beta	89.998734
_cell_angle_gamma	60.000154
loop_
_atom_site_label
_atom_site_type_symbol
_atom_site_fract_x
_atom_site_fract_y
_atom_site_fract_z
O1	O	-0.299412	-0.251366	0.010448
O2	O	-0.248328	-0.179451	-0.010403
O3	O	-0.248326	-0.251365	0.061532
O4	O	-0.299414	-0.179451	-0.061486
O5	O	-0.189899	-0.309776	0.061532
O6	O	-0.189901	-0.237861	-0.010403
O7	O	-0.240985	-0.309777	0.010448
Cu8	Cu	-0.210108	-0.279152	0.000023
Cu9	Cu	-0.279205	-0.210075	0.000023
O10	O	-0.240987	-0.237862	-0.061487
C11	C	-0.128227	-0.039355	-0.025248
C12	C	-0.085950	-0.060389	-0.025544
C13	C	-0.128229	-0.102948	-0.025252
C14	C	-0.085951	-0.123885	-0.025548
C15	C	-0.064614	-0.102951	-0.025248
C16	C	-0.149467	-0.060386	-0.025548
C17	C	-0.191984	0.024217	-0.020086
C18	C	-0.212145	0.064391	-0.016827
C19	C	-0.190407	0.084538	-0.015189
C20	C	-0.212265	0.128095	-0.011653
C21	C	-0.148508	0.064518	-0.016815
C22	C	-0.128349	0.024348	-0.020076
C23	C	-0.150087	0.004198	-0.021710
C24	C	0.004140	-0.107949	-0.020081
C25	C	0.047584	-0.131226	-0.016822
C26	C	0.069372	-0.174739	-0.015188
C27	C	0.116478	-0.199981	-0.011652
C28	C	0.047720	-0.194979	-0.016818
C29	C	0.004278	-0.171702	-0.020080
C30	C	-0.017511	-0.128189	-0.021709
C31	C	-0.191986	-0.107941	-0.020095
C32	C	-0.212147	-0.131219	-0.016834
C33	C	-0.190411	-0.174732	-0.015200
C34	C	-0.212269	-0.199971	-0.011669
C35	C	-0.148514	-0.194974	-0.016824
C36	C	-0.128351	-0.171700	-0.020083
C37	C	-0.150089	-0.128183	-0.021719
C38	C	-0.463698	-0.431923	0.031681
C39	C	-0.442362	-0.474487	0.031979
C40	C	-0.400086	-0.431922	0.031678
C41	C	-0.378847	-0.474485	0.031976
C42	C	-0.400085	-0.495519	0.031681
C43	C	-0.442363	-0.410986	0.031977
C44	C	-0.617099	-0.317399	0.020167
C45	C	-0.660541	-0.293986	0.016912
C46	C	-0.682333	-0.314084	0.015279
C47	C	-0.729438	-0.288695	0.011741
C48	C	-0.660680	-0.357598	0.016905
C49	C	-0.617240	-0.381011	0.020166
C50	C	-0.595450	-0.360909	0.021797
C51	C	-0.361240	-0.637368	0.020169
C52	C	-0.341218	-0.677543	0.016913
C53	C	-0.299325	-0.697695	0.015276
C54	C	-0.277614	-0.741250	0.011740
C55	C	-0.277453	-0.677671	0.016899
C56	C	-0.297472	-0.637503	0.020162
C57	C	-0.339370	-0.617352	0.021794
C58	C	-0.361243	-0.317391	0.020154
C59	C	-0.341223	-0.293973	0.016891
C60	C	-0.299329	-0.314068	0.015255
C61	C	-0.277621	-0.288678	0.011714
C62	C	-0.277458	-0.357579	0.016879
C63	C	-0.297480	-0.380994	0.020141
C64	C	-0.339372	-0.360898	0.021783
C65	C	-0.548347	-0.386298	0.025329
C66	C	-0.510801	-0.406535	0.028146
C67	C	-0.378379	-0.406531	0.028139
C68	C	-0.361077	-0.386292	0.025320
C69	C	-0.378378	-0.539074	0.028145
C70	C	-0.361075	-0.573793	0.025328
C71	C	-0.400366	-0.057316	-0.406377
C72	C	-0.442644	-0.014753	-0.427617
C73	C	-0.400367	-0.057315	-0.342764
C74	C	-0.442645	-0.014752	-0.364100
C75	C	-0.463980	0.006280	-0.406378
C76	C	-0.379128	-0.078252	-0.364099
C77	C	-0.297324	-0.171843	-0.445218
C78	C	-0.277160	-0.195257	-0.465240
C79	C	-0.298897	-0.175161	-0.507135
C80	C	-0.277039	-0.200550	-0.528843
C81	C	-0.340797	-0.131647	-0.529008
C82	C	-0.360956	-0.108233	-0.508988
C83	C	-0.339217	-0.128333	-0.467092
C84	C	-0.617383	0.148127	-0.509421
C85	C	-0.660825	0.188302	-0.529585
C86	C	-0.682620	0.208455	-0.507851
C87	C	-0.729723	0.252009	-0.529707
C88	C	-0.660967	0.188432	-0.465950
C89	C	-0.617524	0.148265	-0.445790
C90	C	-0.595735	0.128112	-0.467530
C91	C	-0.297326	-0.171842	-0.189359
C92	C	-0.277164	-0.195259	-0.145915
C93	C	-0.298901	-0.175162	-0.124123
C94	C	-0.277044	-0.200551	-0.077017
C95	C	-0.340800	-0.131651	-0.145775
C96	C	-0.360960	-0.108238	-0.189218
C97	C	-0.339217	-0.128335	-0.211008
C98	C	-0.361081	-0.102944	-0.445385
C99	C	-0.378507	-0.082705	-0.428083
C100	C	-0.378507	-0.082704	-0.295660
C101	C	-0.361082	-0.102942	-0.258114
C102	C	-0.511083	0.049835	-0.428238
C103	C	-0.548630	0.084554	-0.445664
O104	O	0.255029	-0.309790	0.010469
O105	O	0.132012	-0.237874	-0.010380
O106	O	0.203941	-0.309792	0.061554
O107	O	0.183100	-0.237872	-0.061465
O108	O	0.203942	-0.251384	0.061558
O109	O	0.132013	-0.179466	-0.010377
O110	O	0.255030	-0.251382	0.010473
Cu111	Cu	0.193522	-0.210091	0.000049
Cu112	Cu	0.193520	-0.279165	0.000044
O113	O	0.183101	-0.179464	-0.061461
O114	O	-0.240980	0.244491	0.010471
O115	O	-0.189894	0.142351	-0.010378
O116	O	-0.189896	0.142345	0.061556
O117	O	-0.240977	0.244497	-0.061463
O118	O	-0.248324	0.142347	0.061552
O119	O	-0.248322	0.142354	-0.010382
O120	O	-0.299407	0.244493	0.010467
Cu121	Cu	-0.279199	0.193423	0.000042
Cu122	Cu	-0.210102	0.193421	0.000047
O123	O	-0.299405	0.244499	-0.061467
O124	O	-0.868274	0.368411	-0.558424
O125	O	-0.745257	0.266268	-0.507336
O126	O	-0.817186	0.266266	-0.507334
O127	O	-0.796344	0.368414	-0.558426
O128	O	-0.817185	0.266264	-0.565760
O129	O	-0.745255	0.266267	-0.565762
O130	O	-0.868272	0.368410	-0.616850
Cu131	Cu	-0.806764	0.317338	-0.596641
Cu132	Cu	-0.806765	0.317340	-0.527545
O133	O	-0.796342	0.368413	-0.616852
O134	O	-0.248325	-0.251366	-0.616562
O135	O	-0.299411	-0.179454	-0.565477
O136	O	-0.299410	-0.251368	-0.565474
O137	O	-0.248326	-0.179452	-0.616565
O138	O	-0.240982	-0.309779	-0.507046
O139	O	-0.240984	-0.237866	-0.507050
O140	O	-0.189898	-0.309777	-0.558134
Cu141	Cu	-0.210106	-0.279155	-0.527257
Cu142	Cu	-0.279203	-0.210077	-0.596354
O143	O	-0.189899	-0.237864	-0.558138
C144	C	-0.064616	-0.449882	0.321773
C145	C	-0.085952	-0.428850	0.343012
C146	C	-0.128230	-0.386287	0.258159
C147	C	-0.149469	-0.365351	0.279495
C148	C	-0.128229	-0.386287	0.321772
C149	C	-0.085952	-0.428850	0.279495
C150	C	0.004137	-0.513456	0.321608
C151	C	0.047581	-0.553630	0.341633
C152	C	0.069370	-0.573779	0.383524
C153	C	0.116475	-0.617338	0.405237
C154	C	0.047719	-0.553761	0.405398
C155	C	0.004276	-0.513590	0.385375
C156	C	-0.017513	-0.493437	0.343480
C157	C	-0.128064	-0.381291	0.385528
C158	C	-0.148088	-0.358015	0.405689
C159	C	-0.189980	-0.314501	0.383952
C160	C	-0.211692	-0.289261	0.405809
C161	C	-0.211854	-0.294260	0.342053
C162	C	-0.191832	-0.317536	0.321894
C163	C	-0.149937	-0.361050	0.343631
C164	C	-0.128065	-0.381291	0.189406
C165	C	-0.148087	-0.358011	0.145960
C166	C	-0.189978	-0.314497	0.124170
C167	C	-0.211691	-0.289256	0.077065
C168	C	-0.211851	-0.294255	0.145820
C169	C	-0.191830	-0.317532	0.189264
C170	C	-0.149937	-0.361049	0.211055
C171	C	0.218795	-0.386318	0.321799
C172	C	0.219090	-0.428881	0.343036
C173	C	0.218796	-0.386313	0.258183
C174	C	0.219092	-0.428876	0.279518
C175	C	0.218793	-0.449911	0.321795
C176	C	0.219094	-0.365380	0.279521
C177	C	0.213634	-0.317421	0.321636
C178	C	0.210376	-0.294010	0.341662
C179	C	0.208740	-0.314109	0.383554
C180	C	0.205205	-0.288726	0.405268
C181	C	0.210366	-0.357622	0.405427
C182	C	0.213626	-0.381034	0.385403
C183	C	0.215258	-0.360931	0.343507
C184	C	0.213628	-0.513486	0.385550
C185	C	0.210368	-0.553661	0.405710
C186	C	0.208734	-0.573807	0.383972
C187	C	0.205197	-0.617365	0.405828
C188	C	0.210362	-0.553786	0.342073
C189	C	0.213624	-0.513615	0.321915
C190	C	0.215255	-0.493465	0.343653
C191	C	0.213638	-0.317412	0.189431
C192	C	0.210375	-0.293992	0.145985
C193	C	0.208741	-0.314087	0.124194
C194	C	0.205208	-0.288698	0.077089
C195	C	0.210365	-0.357596	0.145843
C196	C	0.213625	-0.381016	0.189287
C197	C	0.215261	-0.360922	0.211080
C198	C	-0.128228	-0.102999	0.321786
C199	C	-0.085950	-0.123940	0.343026
C200	C	-0.128227	-0.039396	0.258176
C201	C	-0.085949	-0.060433	0.279514
C202	C	-0.064613	-0.103002	0.321790
C203	C	-0.149467	-0.060430	0.279509
C204	C	-0.191985	-0.107991	0.321615
C205	C	-0.212148	-0.131268	0.341636
C206	C	-0.190411	-0.174788	0.383526
C207	C	-0.212269	-0.200030	0.405235
C208	C	-0.148512	-0.195034	0.405402
C209	C	-0.128351	-0.171757	0.385383
C210	C	-0.150088	-0.128237	0.343489
C211	C	0.004140	-0.171911	0.385546
C212	C	0.047584	-0.195328	0.405709
C213	C	0.069374	-0.175229	0.383974
C214	C	0.116479	-0.200619	0.405833
C215	C	0.047722	-0.131710	0.342077
C216	C	0.004280	-0.108293	0.321916
C217	C	-0.017510	-0.128395	0.343651
C218	C	-0.191984	0.024189	0.189422
C219	C	-0.212144	0.064366	0.145977
C220	C	-0.190407	0.084517	0.124191
C221	C	-0.212265	0.128082	0.077087
C222	C	-0.148510	0.064494	0.145842
C223	C	-0.128348	0.024316	0.189286
C224	C	-0.150087	0.004165	0.211074
C225	C	0.161897	0.006009	-0.406354
C226	C	0.161600	-0.015021	-0.427594
C227	C	0.161894	-0.057588	-0.342741
C228	C	0.161597	-0.078522	-0.364078
C229	C	0.161896	-0.057584	-0.406356
C230	C	0.161598	-0.015025	-0.364076
C231	C	0.173418	0.147853	-0.445193
C232	C	0.176676	0.188028	-0.465214
C233	C	0.178312	0.208182	-0.507109
C234	C	0.181853	0.251736	-0.528817
C235	C	0.176687	0.188162	-0.528983
C236	C	0.173424	0.147995	-0.508964
C237	C	0.171789	0.127840	-0.467067
C238	C	0.173414	-0.107925	-0.509401
C239	C	0.176670	-0.131195	-0.529566
C240	C	0.178305	-0.174712	-0.507832
C241	C	0.181842	-0.199951	-0.529689
C242	C	0.176678	-0.194956	-0.465932
C243	C	0.173415	-0.171682	-0.445770
C244	C	0.171785	-0.128164	-0.467510
C245	C	0.173406	-0.107944	-0.189336
C246	C	0.176666	-0.131222	-0.145891
C247	C	0.178299	-0.174739	-0.124100
C248	C	0.181836	-0.199982	-0.076994
C249	C	0.176676	-0.194979	-0.145753
C250	C	0.173417	-0.171701	-0.189195
C251	C	0.171779	-0.128180	-0.210985
C252	C	0.168255	0.084282	-0.445361
C253	C	0.165436	0.049564	-0.428059
C254	C	0.165429	-0.082827	-0.295637
C255	C	0.168246	-0.102944	-0.258091
C256	C	0.165432	-0.082819	-0.428217
C257	C	0.168250	-0.102933	-0.445644
O258	O	0.183071	-0.237904	0.492984
O259	O	0.203929	-0.309818	0.441900
O260	O	0.131993	-0.237903	0.441891
O261	O	0.255007	-0.309819	0.492993
O262	O	0.132000	-0.179493	0.383466
O263	O	0.203936	-0.251408	0.383475
O264	O	0.183078	-0.179494	0.434559
Cu265	Cu	0.193508	-0.210118	0.403683
Cu266	Cu	0.193500	-0.279194	0.472776
O267	O	0.255014	-0.251409	0.434569
C268	C	-0.463698	0.568132	-0.406349
C269	C	-0.442362	0.589070	-0.427585
C270	C	-0.400084	0.504526	-0.342735
C271	C	-0.378845	0.525561	-0.364068
C272	C	-0.400084	0.568130	-0.406344
C273	C	-0.442362	0.525563	-0.364072
C274	C	-0.617102	0.618488	-0.445200
C275	C	-0.660545	0.641764	-0.465223
C276	C	-0.682337	0.685287	-0.507117
C277	C	-0.729443	0.710531	-0.528827
C278	C	-0.660684	0.705530	-0.528986
C279	C	-0.617243	0.682251	-0.508965
C280	C	-0.595452	0.638728	-0.467069
C281	C	-0.361238	0.682666	-0.509374
C282	C	-0.341215	0.706081	-0.529534
C283	C	-0.299321	0.685984	-0.507797
C284	C	-0.277610	0.711371	-0.529649
C285	C	-0.277449	0.642464	-0.465898
C286	C	-0.297468	0.619046	-0.445742
C287	C	-0.339367	0.639154	-0.467484
C288	C	-0.361239	0.362658	-0.189337
C289	C	-0.341219	0.322481	-0.145894
C290	C	-0.299323	0.302324	-0.124100
C291	C	-0.277614	0.258762	-0.076995
C292	C	-0.277452	0.322348	-0.145748
C293	C	-0.297475	0.362526	-0.189190
C294	C	-0.339368	0.382675	-0.210982
C295	C	-0.548348	0.613491	-0.445361
C296	C	-0.510802	0.593373	-0.428057
C297	C	-0.378377	0.460965	-0.295632
C298	C	-0.361074	0.426240	-0.258087
C299	C	-0.378376	0.593521	-0.428200
C300	C	-0.361073	0.613760	-0.445623
H301	H	-0.068822	-0.042784	-0.026023
H302	H	-0.359029	-0.693841	0.015589
H303	H	0.065467	-0.230412	-0.015489
C304	C	-0.196391	-0.036645	0.256357
C305	C	-0.207921	-0.066796	0.249674
C306	C	-0.254842	-0.043011	0.226518
C307	C	-0.290234	0.010925	0.210046
C308	C	-0.278705	0.041079	0.216729
C309	C	-0.231784	0.017294	0.239884
H310	H	-0.181720	-0.106725	0.261869
H311	H	-0.263375	-0.065334	0.221572
H312	H	-0.324968	0.028532	0.192905
H313	H	-0.304906	0.081008	0.204534
H314	H	-0.223251	0.039617	0.244831
C315	C	-0.364706	-0.109542	-0.575090
C316	C	-0.407348	-0.103518	-0.585018
C317	C	-0.431259	-0.081411	-0.631101
C318	C	-0.412528	-0.065329	-0.667256
C319	C	-0.369884	-0.071353	-0.657329
C320	C	-0.345972	-0.093460	-0.611246
H321	H	-0.421216	-0.115423	-0.558253
H322	H	-0.462827	-0.076952	-0.638450
H323	H	-0.430228	-0.048965	-0.701370
H324	H	-0.356016	-0.059448	-0.684094
H325	H	-0.314404	-0.097919	-0.603897
C326	C	0.208576	-0.575680	0.451796
C327	C	0.243397	-0.630515	0.488030
C328	C	0.241605	-0.652538	0.534116
C329	C	0.204992	-0.619727	0.543969
C330	C	0.170169	-0.564890	0.507734
C331	C	0.171961	-0.542866	0.461648
H332	H	0.270502	-0.654806	0.480737
H333	H	0.267384	-0.693133	0.560939
H334	H	0.203666	-0.636030	0.578084
H335	H	0.143063	-0.540598	0.515026
H336	H	0.146182	-0.502272	0.434824
C337	C	-0.019833	-0.491292	0.275526
C338	C	-0.039895	-0.436423	0.239369
C339	C	-0.063864	-0.414257	0.193285
C340	C	-0.067771	-0.446960	0.183358
C341	C	-0.047708	-0.501833	0.219516
C342	C	-0.023739	-0.523999	0.265600
H343	H	-0.037004	-0.412211	0.246717
H344	H	-0.078716	-0.373636	0.166519
H345	H	-0.085514	-0.430551	0.149244
H346	H	-0.050599	-0.526044	0.212168
H347	H	-0.008887	-0.564619	0.292366
C348	C	-0.407327	-0.295283	0.021952
C349	C	-0.416241	-0.326064	0.061256
C350	C	-0.462326	-0.303957	0.063050
C351	C	-0.499496	-0.251070	0.025540
C352	C	-0.490584	-0.220286	-0.013767
C353	C	-0.444499	-0.242392	-0.015561
H354	H	-0.388724	-0.365217	0.089026
H355	H	-0.468923	-0.326746	0.092148
H356	H	-0.533611	-0.234705	0.026869
H357	H	-0.518101	-0.181133	-0.041536
H358	H	-0.437902	-0.219604	-0.044659
H359	H	0.209056	-0.258584	0.323852
H360	H	-0.094238	-0.188182	-0.021409
H361	H	-0.459498	0.507968	-0.346943
H362	H	0.172088	-0.188165	-0.411657
C363	C	-0.684650	-0.379704	0.015110
C364	C	-0.704717	-0.395786	0.049929
C365	C	-0.728687	-0.417894	0.048134
C366	C	-0.732591	-0.423919	0.011519
C367	C	-0.712523	-0.407837	-0.023303
C368	C	-0.688553	-0.385729	-0.021508
H369	H	-0.701828	-0.391326	0.077036
H370	H	-0.743542	-0.429799	0.073911
H371	H	-0.750335	-0.440285	0.010189
H372	H	-0.715412	-0.412297	-0.050410
H373	H	-0.673698	-0.373824	-0.047285
H374	H	-0.395069	-0.072803	-0.526801
H375	H	0.209033	-0.373958	0.128097
C376	C	0.171627	-0.193961	-0.213014
C377	C	0.173421	-0.241826	-0.189047
C378	C	0.171631	-0.264087	-0.212865
C379	C	0.168047	-0.238484	-0.260650
C380	C	0.166254	-0.190617	-0.284619
C381	C	0.168043	-0.168356	-0.260801
H382	H	0.176074	-0.260781	-0.153672
H383	H	0.172959	-0.299521	-0.195122
H384	H	0.166722	-0.254963	-0.278281
H385	H	0.163601	-0.171661	-0.319994
H386	H	0.166716	-0.132921	-0.278544
H387	H	0.065207	-0.230760	0.439822
C388	C	-0.231372	-0.379692	0.015084
C389	C	-0.221442	-0.385717	-0.021532
C390	C	-0.175358	-0.407831	-0.023326
C391	C	-0.139203	-0.423918	0.011494
C392	C	-0.149132	-0.417893	0.048112
C393	C	-0.195217	-0.395780	0.049907
H394	H	-0.248207	-0.373808	-0.047311
H395	H	-0.168008	-0.412291	-0.050434
H396	H	-0.105089	-0.440288	0.010166
H397	H	-0.122368	-0.429803	0.073891
H398	H	-0.202567	-0.391320	0.077014
H399	H	0.214954	-0.497319	0.287802
C400	C	-0.407045	-0.060375	-0.213036
C401	C	-0.429221	-0.034620	-0.260820
C402	C	-0.475307	0.013243	-0.284638
C403	C	-0.499217	0.035353	-0.260671
C404	C	-0.477041	0.009598	-0.212884
C405	C	-0.430956	-0.038266	-0.189066
H406	H	-0.411521	-0.050987	-0.278564
H407	H	-0.491723	0.032308	-0.320013
H408	H	-0.533333	0.070784	-0.278302
H409	H	-0.494741	0.025964	-0.195140
H410	H	-0.414540	-0.057331	-0.153691
C411	C	-0.258233	0.086394	0.122166
C412	C	-0.268097	0.053587	0.118379
C413	C	-0.314187	0.075616	0.094567
C414	C	-0.350413	0.130451	0.074541
C415	C	-0.340550	0.163261	0.078327
C416	C	-0.294460	0.141232	0.102140
H417	H	-0.241279	0.012992	0.133204
H418	H	-0.321488	0.051328	0.091764
H419	H	-0.384532	0.146758	0.056913
H420	H	-0.367368	0.203857	0.063502
H421	H	-0.287159	0.165521	0.104942
H422	H	-0.130815	-0.230473	0.439514
C423	C	-0.062803	-0.036656	0.256381
C424	C	-0.081358	0.017278	0.239912
C425	C	-0.058211	0.041051	0.216783
C426	C	-0.016508	0.010889	0.210123
C427	C	0.002049	-0.043048	0.226592
C428	C	-0.021098	-0.066821	0.249721
H429	H	-0.112231	0.039608	0.244842
H430	H	-0.071948	0.080979	0.204591
H431	H	0.000627	0.028488	0.193001
H432	H	0.032922	-0.065378	0.221662
H433	H	-0.007360	-0.106749	0.261913
C434	C	0.178470	0.210043	-0.441152
C435	C	0.143653	0.264877	-0.459765
C436	C	0.145447	0.286891	-0.435702
C437	C	0.182059	0.254072	-0.393025
C438	C	0.216879	0.199235	-0.374410
C439	C	0.215084	0.177221	-0.398474
H440	H	0.116548	0.289175	-0.491358
H441	H	0.119671	0.327485	-0.449482
H442	H	0.183388	0.270368	-0.375212
H443	H	0.243983	0.174937	-0.342817
H444	H	0.240860	0.136626	-0.384693
H445	H	0.178017	0.204576	-0.563095
H446	H	-0.678451	0.204601	-0.563700
H447	H	0.209054	-0.258566	0.128363
H448	H	-0.013347	-0.072862	0.287802
C449	C	0.219731	-0.452660	0.389962
C450	C	0.182897	-0.457526	0.401490
C451	C	0.183535	-0.481302	0.448413
C452	C	0.221007	-0.500213	0.483808
C453	C	0.257843	-0.495347	0.472282
C454	C	0.257205	-0.471571	0.425358
H455	H	0.155155	-0.443527	0.375287
H456	H	0.156266	-0.484904	0.456946
H457	H	0.221479	-0.517814	0.518544
H458	H	0.285585	-0.509347	0.498484
H459	H	0.284474	-0.467969	0.416826
H460	H	-0.279661	-0.621204	0.021484
C461	C	-0.258233	-0.109000	0.317575
C462	C	-0.267226	-0.139665	0.308951
C463	C	-0.313314	-0.117395	0.284892
C464	C	-0.350410	-0.064461	0.269459
C465	C	-0.341419	-0.033794	0.278084
C466	C	-0.295330	-0.056063	0.302142
H467	H	-0.239764	-0.178852	0.320376
H468	H	-0.319970	-0.140098	0.278508
H469	H	-0.384528	-0.047976	0.251650
H470	H	-0.368880	0.005393	0.266659
H471	H	-0.288675	-0.033361	0.308526
C472	C	0.171637	0.125973	-0.533023
C473	C	0.173438	0.148137	-0.579104
C474	C	0.171653	0.126115	-0.603162
C475	C	0.168066	0.081928	-0.581140
C476	C	0.166265	0.059761	-0.535056
C477	C	0.168050	0.081784	-0.510998
H478	H	0.176093	0.180849	-0.595409
H479	H	0.172986	0.142524	-0.637277
H480	H	0.166745	0.065625	-0.598949
H481	H	0.163611	0.027049	-0.518751
H482	H	0.166717	0.065374	-0.476883
C483	C	-0.062819	-0.452625	0.389940
C484	C	-0.081386	-0.471537	0.425325
C485	C	-0.058258	-0.495308	0.472252
C486	C	-0.016563	-0.500169	0.483793
C487	C	0.002006	-0.481257	0.448406
C488	C	-0.021122	-0.457485	0.401480
H489	H	-0.112252	-0.467939	0.416783
H490	H	-0.072004	-0.509308	0.498447
H491	H	0.000557	-0.517766	0.518531
H492	H	0.032872	-0.484855	0.456949
H493	H	-0.007376	-0.443485	0.375285
H494	H	-0.094231	0.008010	0.206912
H495	H	-0.243050	-0.230687	-0.128288
H496	H	0.214949	-0.416463	0.403213
H497	H	-0.209688	0.007815	-0.021420
C498	C	-0.364716	-0.109540	-0.121808
C499	C	-0.373230	-0.140322	-0.082104
C500	C	-0.397146	-0.118211	-0.058139
C501	C	-0.412549	-0.065319	-0.073877
C502	C	-0.404036	-0.034534	-0.113583
C503	C	-0.380119	-0.056645	-0.137548
H504	H	-0.361827	-0.179479	-0.070452
H505	H	-0.403448	-0.141000	-0.028746
H506	H	-0.430254	-0.048951	-0.056136
H507	H	-0.415438	0.004623	-0.125235
H508	H	-0.373817	-0.033855	-0.166941
H509	H	-0.599361	-0.301028	0.021496
C510	C	0.178465	-0.108932	-0.575651
C511	C	0.140958	-0.055997	-0.612754
C512	C	0.142755	-0.033735	-0.658839
C513	C	0.182058	-0.064408	-0.667820
C514	C	0.219568	-0.117347	-0.630716
C515	C	0.217772	-0.139609	-0.584631
H516	H	0.111861	-0.033288	-0.606107
H517	H	0.114987	0.005454	-0.686306
H518	H	0.183388	-0.047928	-0.701935
H519	H	0.248665	-0.140056	-0.637363
H520	H	0.245539	-0.178798	-0.557164
H521	H	-0.209640	-0.301047	0.206890
H522	H	-0.068816	-0.446445	0.262363
H523	H	-0.013351	-0.497292	0.403186
H524	H	0.178003	-0.230386	-0.448237
H525	H	0.214971	-0.301048	0.207173
H526	H	-0.130274	-0.374502	0.439804
C527	C	0.178471	-0.242848	-0.121786
C528	C	0.217771	-0.291055	-0.082082
C529	C	0.219566	-0.338922	-0.058117
C530	C	0.182060	-0.338583	-0.073856
C531	C	0.142757	-0.290374	-0.113563
C532	C	0.140962	-0.242507	-0.137528
H533	H	0.245537	-0.291308	-0.070428
H534	H	0.248661	-0.374609	-0.028724
H535	H	0.183389	-0.374017	-0.056116
H536	H	0.114991	-0.290121	-0.125216
H537	H	0.111867	-0.206820	-0.166921
C538	C	-0.593412	0.125965	-0.533335
C539	C	-0.573344	0.071095	-0.514605
C540	C	-0.549370	0.048931	-0.538516
C541	C	-0.545465	0.081637	-0.581157
C542	C	-0.565533	0.136511	-0.599889
C543	C	-0.589506	0.158675	-0.575978
H544	H	-0.576235	0.046881	-0.483038
H545	H	-0.534515	0.008310	-0.524649
H546	H	-0.527718	0.065230	-0.598858
H547	H	-0.562642	0.160725	-0.631457
H548	H	-0.604362	0.199296	-0.589845
H549	H	-0.013352	-0.188180	-0.021410
H550	H	-0.459492	0.623322	-0.462322
C551	C	-0.331916	0.501776	-0.340929
C552	C	-0.308451	0.454859	-0.294327
C553	C	-0.261524	0.431075	-0.271191
C554	C	-0.238062	0.454210	-0.294657
C555	C	-0.261527	0.501130	-0.341262
C556	C	-0.308454	0.524913	-0.364398
H557	H	-0.325819	0.437731	-0.276954
H558	H	-0.244154	0.396342	-0.236691
H559	H	-0.203324	0.436604	-0.277530
H560	H	-0.244159	0.518258	-0.358635
H561	H	-0.325825	0.559647	-0.398898
C562	C	-0.684359	-0.246121	0.015117
C563	C	-0.668513	-0.246527	0.052625
C564	C	-0.692331	-0.198661	0.050830
C565	C	-0.731995	-0.150388	0.011526
C566	C	-0.747843	-0.149980	-0.025985
C567	C	-0.724025	-0.197847	-0.024189
H568	H	-0.639149	-0.282263	0.081723
H569	H	-0.680599	-0.198963	0.078598
H570	H	-0.749626	-0.114955	0.010197
H571	H	-0.777207	-0.114244	-0.055082
H572	H	-0.735757	-0.197544	-0.051957
H573	H	0.065207	-0.114741	-0.015496
H574	H	-0.359032	0.306183	-0.128269
H575	H	0.065470	-0.115347	0.324383
C576	C	0.171616	0.125690	-0.399110
C577	C	0.209118	0.103925	-0.361937
C578	C	0.207317	0.081760	-0.315854
C579	C	0.168013	0.081360	-0.306944
C580	C	0.130508	0.103126	-0.344117
C581	C	0.132310	0.125291	-0.390200
H582	H	0.238216	0.104220	-0.368532
H583	H	0.235081	0.065647	-0.288335
H584	H	0.166680	0.064952	-0.272830
H585	H	0.101411	0.102831	-0.337523
H586	H	0.104546	0.141403	-0.417719
H587	H	0.065205	-0.569926	0.323820
C588	C	-0.593132	0.570610	-0.399119
C589	C	-0.573064	0.569263	-0.362957
C590	C	-0.549092	0.521386	-0.316877
C591	C	-0.545187	0.474856	-0.306958
C592	C	-0.565256	0.476201	-0.343120
C593	C	-0.589228	0.524078	-0.389201
H594	H	-0.575954	0.603709	-0.370299
H595	H	-0.534236	0.520391	-0.290107
H596	H	-0.527441	0.439415	-0.272847
H597	H	-0.562366	0.441755	-0.335779
H598	H	-0.604084	0.525074	-0.415970
H599	H	-0.245962	-0.258818	0.128074
H600	H	-0.184204	-0.331097	0.262361
H601	H	0.219572	-0.331129	0.262394
H602	H	-0.130811	0.080929	-0.015481
C603	C	-0.124594	0.086658	0.121878
C604	C	-0.143322	0.141527	0.101819
C605	C	-0.119409	0.163694	0.077854
C606	C	-0.076767	0.130992	0.073948
C607	C	-0.058037	0.076121	0.094008
C608	C	-0.081950	0.053954	0.117973
H609	H	-0.174890	0.165737	0.104709
H610	H	-0.133275	0.204313	0.063004
H611	H	-0.059065	0.147402	0.056208
H612	H	-0.026469	0.051911	0.091117
H613	H	-0.068084	0.013334	0.132823
C614	C	-0.332192	-0.124502	-0.340965
C615	C	-0.308721	-0.147628	-0.364429
C616	C	-0.261784	-0.193868	-0.341299
C617	C	-0.238317	-0.216981	-0.294704
C618	C	-0.261788	-0.193854	-0.271237
C619	C	-0.308725	-0.147615	-0.294367
H620	H	-0.326093	-0.130519	-0.398923
H621	H	-0.244410	-0.210988	-0.358671
H622	H	-0.203571	-0.251210	-0.277582
H623	H	-0.244416	-0.210964	-0.236743
H624	H	-0.326100	-0.130495	-0.276995
C625	C	-0.082264	-0.194023	0.409440
C626	C	-0.045165	-0.246952	0.424865
C627	C	0.000923	-0.269219	0.448921
C628	C	0.009912	-0.238555	0.457551
C629	C	-0.027188	-0.185623	0.442125
C630	C	-0.073276	-0.163357	0.418069
H631	H	-0.051818	-0.269654	0.418477
H632	H	0.028387	-0.308403	0.460341
H633	H	0.044029	-0.255038	0.475359
H634	H	-0.020534	-0.162921	0.448513
H635	H	-0.100740	-0.124172	0.406650
H636	H	0.209032	-0.570197	0.324375
C637	C	0.178451	-0.108959	-0.122073
C638	C	0.215056	-0.102889	-0.118284
C639	C	0.216839	-0.080624	-0.094466
C640	C	0.182016	-0.064430	-0.074439
C641	C	0.145408	-0.070500	-0.078228
C642	C	0.143626	-0.092765	-0.102045
H643	H	0.240836	-0.114877	-0.133110
H644	H	0.243938	-0.076130	-0.091661
H645	H	0.183335	-0.047948	-0.056807
H646	H	0.119628	-0.058512	-0.063401
H647	H	0.116526	-0.097258	-0.104850
C648	C	-0.684363	0.619501	-0.441166
C649	C	-0.668519	0.566569	-0.425734
C650	C	-0.692337	0.544306	-0.401676
C651	C	-0.731999	0.574975	-0.393050
C652	C	-0.747845	0.627909	-0.408483
C653	C	-0.724027	0.650172	-0.432541
H654	H	-0.639156	0.543864	-0.432118
H655	H	-0.680606	0.505120	-0.390251
H656	H	-0.749631	0.558494	-0.375241
H657	H	-0.777208	0.650614	-0.402099
H658	H	-0.735758	0.689358	-0.443966
H659	H	-0.599897	0.131968	-0.411676
H660	H	-0.209690	-0.072507	-0.021428
C661	C	-0.684655	0.753402	-0.575067
C662	C	-0.688557	0.799933	-0.584991
C663	C	-0.712529	0.847807	-0.631073
C664	C	-0.732599	0.849150	-0.667231
C665	C	-0.728697	0.802618	-0.657307
C666	C	-0.704726	0.754744	-0.611225
H667	H	-0.673700	0.798940	-0.558224
H668	H	-0.715417	0.882253	-0.638419
H669	H	-0.750344	0.884589	-0.701344
H670	H	-0.743555	0.803610	-0.684074
H671	H	-0.701838	0.720298	-0.603880
C672	C	-0.593423	-0.428872	0.021954
C673	C	-0.617390	-0.450980	0.020157
C674	C	-0.593574	-0.498841	0.021943
C675	C	-0.545791	-0.524592	0.025526
C676	C	-0.521821	-0.502484	0.027323
C677	C	-0.545637	-0.454624	0.025537
H678	H	-0.652764	-0.431917	0.017504
H679	H	-0.611318	-0.515207	0.020612
H680	H	-0.528160	-0.560022	0.026848
H681	H	-0.486447	-0.521547	0.029976
H682	H	-0.527893	-0.438258	0.026868
C683	C	-0.124028	-0.380280	0.122149
C684	C	-0.115395	-0.349617	0.082488
C685	C	-0.091335	-0.371885	0.058675
C686	C	-0.075907	-0.424816	0.074523
C687	C	-0.084539	-0.455482	0.114186
C688	C	-0.108599	-0.433214	0.137999
H689	H	-0.126816	-0.310432	0.070755
H690	H	-0.084945	-0.349184	0.029314
H691	H	-0.058096	-0.441300	0.056895
H692	H	-0.073118	-0.494668	0.125919
H693	H	-0.114990	-0.455916	0.167360
C694	C	-0.684936	0.210600	-0.442041
C695	C	-0.724637	0.210996	-0.433525
C696	C	-0.748608	0.233162	-0.409614
C697	C	-0.732878	0.254932	-0.394219
C698	C	-0.693175	0.254536	-0.402735
C699	C	-0.669204	0.232370	-0.426645
H700	H	-0.736283	0.194879	-0.444922
H701	H	-0.777998	0.233454	-0.403311
H702	H	-0.750622	0.271340	-0.376519
H703	H	-0.681528	0.270653	-0.391338
H704	H	-0.639813	0.232078	-0.432949
C705	C	0.215413	-0.428878	0.213102
C706	C	0.252023	-0.475330	0.216892
C707	C	0.253811	-0.523192	0.240707
C708	C	0.218989	-0.524603	0.260733
C709	C	0.182376	-0.478150	0.256944
C710	C	0.180588	-0.430287	0.233129
H711	H	0.277803	-0.474287	0.202067
H712	H	0.280914	-0.557580	0.243512
H713	H	0.220312	-0.560034	0.278363
H714	H	0.156596	-0.479193	0.271769
H715	H	0.153485	-0.395900	0.230325
H716	H	-0.209689	0.007785	0.207161
H717	H	0.161117	-0.112772	-0.346948
C718	C	-0.231370	-0.699838	0.015103
C719	C	-0.222458	-0.700235	-0.024202
C720	C	-0.176375	-0.722401	-0.026000
C721	C	-0.139204	-0.744170	0.011505
C722	C	-0.148115	-0.743773	0.050812
C723	C	-0.194198	-0.721607	0.052611
H724	H	-0.249976	-0.684120	-0.051968
H725	H	-0.169779	-0.722694	-0.055098
H726	H	-0.105091	-0.760578	0.010174
H727	H	-0.120597	-0.759889	0.078579
H728	H	-0.200794	-0.721314	0.081709
H729	H	-0.013600	-0.188280	0.403247
C730	C	0.215436	-0.295312	0.275554
C731	C	0.177934	-0.242418	0.238384
C732	C	0.179732	-0.220306	0.192300
C733	C	0.219032	-0.251088	0.183385
C734	C	0.256538	-0.303985	0.220556
C735	C	0.254740	-0.326097	0.266640
H736	H	0.148839	-0.219629	0.244983
H737	H	0.151968	-0.181148	0.164784
H738	H	0.220363	-0.234719	0.149271
H739	H	0.285633	-0.326774	0.213958
H740	H	0.282504	-0.365254	0.294156
H741	H	0.065466	-0.570172	0.439511
H742	H	-0.245967	-0.258826	0.324356
H743	H	-0.209643	-0.301055	0.287780
C744	C	-0.231076	-0.243122	-0.441179
C745	C	-0.193974	-0.242715	-0.425741
C746	C	-0.147889	-0.290582	-0.401679
C747	C	-0.138907	-0.338855	-0.393055
C748	C	-0.176010	-0.339263	-0.408494
C749	C	-0.222094	-0.291397	-0.432556
H750	H	-0.200622	-0.206979	-0.432124
H751	H	-0.120423	-0.290279	-0.390251
H752	H	-0.104792	-0.374288	-0.375243
H753	H	-0.169361	-0.374999	-0.402110
H754	H	-0.249560	-0.291700	-0.443984
C755	C	-0.593426	0.704517	-0.533019
C756	C	-0.617393	0.752391	-0.579098
C757	C	-0.593577	0.774658	-0.603152
C758	C	-0.545793	0.749053	-0.581127
C759	C	-0.521823	0.701177	-0.535045
C760	C	-0.545639	0.678909	-0.510991
H761	H	-0.652768	0.771347	-0.595405
H762	H	-0.611321	0.810099	-0.637265
H763	H	-0.528162	0.765537	-0.598933
H764	H	-0.486448	0.682220	-0.518738
H765	H	-0.527895	0.643468	-0.476878
H766	H	-0.068823	-0.158191	0.377764
H767	H	-0.093954	-0.416726	0.207147
C768	C	-0.365275	0.753952	-0.575616
C769	C	-0.407947	0.800400	-0.585461
C770	C	-0.432008	0.848272	-0.631543
C771	C	-0.413397	0.849698	-0.667781
C772	C	-0.370722	0.803249	-0.657938
C773	C	-0.346661	0.755376	-0.611856
H774	H	-0.421727	0.799346	-0.558634
H775	H	-0.463599	0.882657	-0.638829
H776	H	-0.431209	0.885136	-0.701894
H777	H	-0.356943	0.804303	-0.684765
H778	H	-0.315070	0.720992	-0.604569
C779	C	0.208563	-0.379731	0.451510
C780	C	0.243378	-0.395816	0.487668
C781	C	0.241576	-0.417926	0.533751
C782	C	0.204959	-0.423952	0.543675
C783	C	0.170142	-0.407866	0.507516
C784	C	0.171944	-0.385756	0.461433
H785	H	0.270486	-0.391356	0.480322
H786	H	0.267350	-0.429834	0.560518
H787	H	0.203625	-0.440319	0.577789
H788	H	0.143034	-0.412326	0.514862
H789	H	0.146169	-0.373848	0.434666
H790	H	-0.209689	-0.072554	0.287504
H791	H	0.161122	0.002585	-0.462332
C792	C	-0.231365	0.620351	-0.441986
C793	C	-0.195212	0.604275	-0.460720
C794	C	-0.149128	0.582164	-0.436806
C795	C	-0.139197	0.576128	-0.394159
C796	C	-0.175351	0.592205	-0.375423
C797	C	-0.221434	0.614316	-0.399336
H798	H	-0.202562	0.608743	-0.492292
H799	H	-0.122365	0.570263	-0.450676
H800	H	-0.105083	0.559760	-0.376457
H801	H	-0.168000	0.587737	-0.343850
H802	H	-0.248198	0.626217	-0.385466
C803	C	-0.231365	0.300178	-0.121779
C804	C	-0.195212	0.245310	-0.101721
C805	C	-0.149127	0.223141	-0.077753
C806	C	-0.139195	0.255840	-0.073844
C807	C	-0.175350	0.310711	-0.093902
C808	C	-0.221435	0.332880	-0.117870
H809	H	-0.202563	0.221101	-0.104615
H810	H	-0.122363	0.182521	-0.062905
H811	H	-0.105080	0.239429	-0.056101
H812	H	-0.167999	0.334919	-0.091008
H813	H	-0.248199	0.373499	-0.132718
C814	C	-0.365280	-0.246112	0.015104
C815	C	-0.346658	-0.244706	0.049925
C816	C	-0.370715	-0.196847	0.048140
C817	C	-0.413394	-0.150394	0.011535
C818	C	-0.432019	-0.151799	-0.023288
C819	C	-0.407962	-0.199658	-0.021504
H820	H	-0.315062	-0.279095	0.077024
H821	H	-0.356927	-0.195807	0.073919
H822	H	-0.431202	-0.114966	0.010215
H823	H	-0.463614	-0.117410	-0.050387
H824	H	-0.421749	-0.200697	-0.047282
H825	H	0.214959	-0.497084	0.403255
H826	H	-0.459495	-0.376734	0.032451
H827	H	-0.068823	-0.158134	-0.026027
C828	C	-0.124598	-0.242843	-0.015027
C829	C	-0.143326	-0.244176	-0.049848
C830	C	-0.119412	-0.292043	-0.048051
C831	C	-0.076770	-0.338577	-0.011434
C832	C	-0.058040	-0.337246	0.023390
C833	C	-0.081954	-0.289379	0.021593
H834	H	-0.174894	-0.209728	-0.076956
H835	H	-0.133277	-0.293029	-0.073830
H836	H	-0.059067	-0.374011	-0.010104
H837	H	-0.026472	-0.371694	0.050499
H838	H	-0.068088	-0.288393	0.047372
H839	H	-0.279669	-0.416421	0.021464
H840	H	-0.395352	0.379063	-0.207079
H841	H	-0.184205	-0.042780	-0.026030
C842	C	-0.258229	0.086409	-0.015036
C843	C	-0.268083	0.053597	0.021576
C844	C	-0.314170	0.075619	0.023365
C845	C	-0.350402	0.130453	-0.011459
C846	C	-0.340549	0.163268	-0.048074
C847	C	-0.294462	0.141246	-0.049862
H848	H	-0.241261	0.013003	0.047357
H849	H	-0.321464	0.051327	0.050469
H850	H	-0.384518	0.146755	-0.010135
H851	H	-0.367371	0.203862	-0.073854
H852	H	-0.287168	0.165539	-0.076967
C853	C	-0.331921	-0.498266	0.032620
C854	C	-0.308457	-0.475130	0.032936
C855	C	-0.261534	-0.498911	0.033579
C856	C	-0.238073	-0.545827	0.033908
C857	C	-0.261536	-0.568965	0.033592
C858	C	-0.308460	-0.545185	0.032949
H859	H	-0.325824	-0.440398	0.032693
H860	H	-0.244165	-0.481782	0.033813
H861	H	-0.203337	-0.563431	0.034384
H862	H	-0.244169	-0.603698	0.033836
H863	H	-0.325829	-0.562313	0.032715
H864	H	-0.395352	0.699041	-0.527080
H865	H	-0.246261	-0.114733	-0.015512
H866	H	-0.094236	0.008051	-0.021402
H867	H	-0.013600	-0.072517	-0.021412
H868	H	-0.279656	0.583612	-0.411629
H869	H	-0.459773	0.002849	-0.346970
H870	H	-0.093952	-0.416724	0.403232
H871	H	0.172084	-0.072490	-0.527106
H872	H	-0.459493	-0.492089	0.032459
H873	H	-0.395353	-0.620965	0.021500
H874	H	-0.459769	0.002854	-0.462356
H875	H	0.161154	0.002555	-0.346935
H876	H	0.172074	-0.072508	-0.207074
H877	H	-0.279616	-0.188204	-0.207101
H878	H	0.219577	-0.446480	0.262387
H879	H	-0.279619	-0.188213	-0.411105
H880	H	-0.279663	0.378826	-0.206814
