data_functionalizedCrystal
_audit_creation_method	'MofGen! by Chris Wilmer'
_symmetry_space_group_name_H-M	'P1'
_symmetry_Int_Tables_number	1
_symmetry_cell_setting	triclinic
loop_
_symmetry_equiv_pos_as_xyz
  x,y,z
_cell_length_a	21.395364
_cell_length_b	21.395362
_cell_length_c	21.395356
_cell_angle_alpha	90.029719
_cell_angle_beta	90.023767
_cell_angle_gamma	90.028124
loop_
_atom_site_label
_atom_site_type_symbol
_atom_site_fract_x
_atom_site_fract_y
_atom_site_fract_z
Zn1	Zn	0.957857	-0.249482	0.354255
Zn2	Zn	1.207857	0.000518	0.604255
Zn3	Zn	1.457857	0.250518	0.854255
Zn4	Zn	1.707857	0.500518	1.104255
Zn5	Zn	0.957763	-0.354259	0.249474
Zn6	Zn	1.207763	-0.104259	0.499474
Zn7	Zn	1.457763	0.145741	0.749474
Zn8	Zn	1.707763	0.395741	0.999474
Zn9	Zn	0.853074	-0.249496	0.249492
Zn10	Zn	1.103074	0.000504	0.499492
Zn11	Zn	1.353074	0.250504	0.749492
Zn12	Zn	1.603074	0.500504	0.999492
Zn13	Zn	0.853043	-0.354223	0.354214
Zn14	Zn	1.103043	-0.104223	0.604214
Zn15	Zn	1.353043	0.145777	0.854214
Zn16	Zn	1.603043	0.395777	1.104214
O17	O	0.905434	-0.301865	0.301859
O18	O	1.155434	-0.051865	0.551859
O19	O	1.405434	0.198135	0.801859
O20	O	1.655434	0.448135	1.051859
O21	O	1.045522	-0.263390	0.340366
O22	O	1.295522	-0.013390	0.590366
O23	O	1.545522	0.236610	0.840366
O24	O	1.795522	0.486610	1.090366
O25	O	0.943849	-0.340383	0.161799
O26	O	1.193849	-0.090383	0.411799
O27	O	1.443849	0.159617	0.661799
O28	O	1.693849	0.409617	0.911799
O29	O	0.867026	-0.161816	0.263414
O30	O	1.117026	0.088184	0.513414
O31	O	1.367026	0.338184	0.763414
O32	O	1.617026	0.588184	1.013414
O33	O	1.045453	-0.340369	0.263384
O34	O	1.295453	-0.090369	0.513384
O35	O	1.545453	0.159631	0.763384
O36	O	1.795453	0.409631	1.013384
O37	O	0.944010	-0.161806	0.340383
O38	O	1.194010	0.088194	0.590383
O39	O	1.444010	0.338194	0.840383
O40	O	1.694010	0.588194	1.090383
O41	O	0.866935	-0.263414	0.161812
O42	O	1.116935	-0.013414	0.411812
O43	O	1.366935	0.236586	0.661812
O44	O	1.616935	0.486586	0.911812
O45	O	0.765392	-0.263379	0.263374
O46	O	1.015392	-0.013379	0.513374
O47	O	1.265392	0.236621	0.763374
O48	O	1.515392	0.486621	1.013374
O49	O	0.866973	-0.340308	0.441898
O50	O	1.116973	-0.090308	0.691898
O51	O	1.366973	0.159692	0.941898
O52	O	1.616973	0.409692	1.191898
O53	O	0.765369	-0.340321	0.340313
O54	O	1.015369	-0.090321	0.590313
O55	O	1.265369	0.159679	0.840313
O56	O	1.515369	0.409679	1.090313
O57	O	0.943980	-0.263356	0.441928
O58	O	1.193980	-0.013356	0.691928
O59	O	1.443980	0.236644	0.941928
O60	O	1.693980	0.486644	1.191928
O61	O	0.943819	-0.441932	0.263344
O62	O	1.193819	-0.191932	0.513344
O63	O	1.443819	0.058068	0.763344
O64	O	1.693819	0.308068	1.013344
O65	O	0.866882	-0.441906	0.340296
O66	O	1.116882	-0.191906	0.590296
O67	O	1.366882	0.058094	0.840296
O68	O	1.616882	0.308094	1.090296
C69	C	0.742647	-0.301848	0.301841
C70	C	0.992647	-0.051848	0.551841
C71	C	1.242647	0.198152	0.801841
C72	C	1.492647	0.448152	1.051841
C73	C	0.673005	-0.301856	0.301848
C74	C	0.923005	-0.051856	0.551848
C75	C	1.173005	0.198144	0.801848
C76	C	1.423005	0.448144	1.051848
C77	C	0.171214	-0.342002	0.341882
C78	C	0.421214	-0.092002	0.591882
C79	C	0.671214	0.157998	0.841882
C80	C	0.921214	0.407998	1.091882
C81	C	0.236649	-0.342002	0.341876
C82	C	0.486649	-0.092002	0.591876
C83	C	0.736649	0.157998	0.841876
C84	C	0.986649	0.407998	1.091876
C85	C	0.269367	-0.301879	0.301879
C86	C	0.519367	-0.051879	0.551879
C87	C	0.769367	0.198121	0.801879
C88	C	1.019367	0.448121	1.051879
C89	C	0.236644	-0.261763	0.261874
C90	C	0.486644	-0.011763	0.511874
C91	C	0.736644	0.238237	0.761874
C92	C	0.986644	0.488237	1.011874
C93	C	0.171210	-0.261769	0.261877
C94	C	0.421210	-0.011769	0.511877
C95	C	0.671210	0.238231	0.761877
C96	C	0.921210	0.488231	1.011877
C97	C	0.373055	-0.245414	0.297030
C98	C	0.623055	0.004586	0.547030
C99	C	0.873055	0.254586	0.797030
C100	C	1.123055	0.504586	1.047030
C101	C	0.438488	-0.245408	0.297031
C102	C	0.688488	0.004592	0.547031
C103	C	0.938488	0.254592	0.797031
C104	C	1.188488	0.504592	1.047031
C105	C	0.471188	-0.301862	0.301865
C106	C	0.721188	-0.051862	0.551865
C107	C	0.971188	0.198138	0.801865
C108	C	1.221188	0.448138	1.051865
C109	C	0.438447	-0.358325	0.306711
C110	C	0.688447	-0.108325	0.556711
C111	C	0.938447	0.141675	0.806711
C112	C	1.188447	0.391675	1.056711
C113	C	0.373012	-0.358330	0.306715
C114	C	0.623012	-0.108330	0.556715
C115	C	0.873012	0.141670	0.806715
C116	C	1.123012	0.391670	1.056715
C117	C	0.340319	-0.301869	0.301871
C118	C	0.590319	-0.051869	0.551871
C119	C	0.840319	0.198131	0.801871
C120	C	1.090319	0.448131	1.051871
C121	C	0.574855	-0.341978	0.341857
C122	C	0.824855	-0.091978	0.591857
C123	C	1.074855	0.158022	0.841857
C124	C	1.324855	0.408022	1.091857
C125	C	0.640292	-0.341980	0.341846
C126	C	0.890292	-0.091980	0.591846
C127	C	1.140292	0.158020	0.841846
C128	C	1.390292	0.408020	1.091846
C129	C	0.640286	-0.261735	0.261848
C130	C	0.890286	-0.011735	0.511848
C131	C	1.140286	0.238265	0.761848
C132	C	1.390286	0.488265	1.011848
C133	C	0.574850	-0.261739	0.261855
C134	C	0.824850	-0.011739	0.511855
C135	C	1.074850	0.238261	0.761855
C136	C	1.324850	0.488261	1.011855
C137	C	0.542139	-0.301860	0.301863
C138	C	0.792139	-0.051860	0.551863
C139	C	1.042139	0.198140	0.801863
C140	C	1.292139	0.448140	1.051863
C141	C	0.905354	-0.464653	0.301827
C142	C	1.155354	-0.214653	0.551827
C143	C	1.405354	0.035347	0.801827
C144	C	1.655354	0.285347	1.051827
C145	C	0.905377	-0.534294	0.301834
C146	C	1.155377	-0.284294	0.551834
C147	C	1.405377	-0.034294	0.801834
C148	C	1.655377	0.215706	1.051834
C149	C	0.945440	-0.566945	0.341941
C150	C	1.195440	-0.316945	0.591941
C151	C	1.445440	-0.066945	0.841941
C152	C	1.695440	0.183055	1.091941
C153	C	0.945462	-0.632380	0.341956
C154	C	1.195462	-0.382380	0.591956
C155	C	1.445462	-0.132380	0.841956
C156	C	1.695462	0.117620	1.091956
C157	C	0.905428	-0.665162	0.301853
C158	C	1.155428	-0.415162	0.551853
C159	C	1.405428	-0.165162	0.801853
C160	C	1.655428	0.084838	1.051853
C161	C	0.865358	-0.632503	0.261744
C162	C	1.115358	-0.382503	0.511744
C163	C	1.365358	-0.132503	0.761744
C164	C	1.615358	0.117497	1.011744
C165	C	0.865332	-0.567069	0.261734
C166	C	1.115332	-0.317069	0.511734
C167	C	1.365332	-0.067069	0.761734
C168	C	1.615332	0.182931	1.011734
C169	C	0.900552	-0.768871	0.245415
C170	C	1.150552	-0.518871	0.495415
C171	C	1.400552	-0.268871	0.745415
C172	C	1.650552	-0.018871	0.995415
C173	C	0.900581	-0.834304	0.245423
C174	C	1.150581	-0.584304	0.495423
C175	C	1.400581	-0.334304	0.745423
C176	C	1.650581	-0.084304	0.995423
C177	C	0.905502	-0.866983	0.301884
C178	C	1.155502	-0.616983	0.551884
C179	C	1.405502	-0.366983	0.801884
C180	C	1.655502	-0.116983	1.051884
C181	C	0.910406	-0.834221	0.358337
C182	C	1.160406	-0.584221	0.608337
C183	C	1.410406	-0.334221	0.858337
C184	C	1.660406	-0.084221	1.108337
C185	C	0.910381	-0.768786	0.358327
C186	C	1.160381	-0.518786	0.608327
C187	C	1.410381	-0.268786	0.858327
C188	C	1.660381	-0.018786	1.108327
C189	C	0.905450	-0.736115	0.301860
C190	C	1.155450	-0.486115	0.551860
C191	C	1.405450	-0.236115	0.801860
C192	C	1.655450	0.013885	1.051860
C193	C	0.945591	-0.970586	0.342010
C194	C	1.195591	-0.720586	0.592010
C195	C	1.445591	-0.470586	0.842010
C196	C	1.695591	-0.220586	1.092010
C197	C	0.945608	-1.036023	0.342027
C198	C	1.195608	-0.786023	0.592027
C199	C	1.445608	-0.536023	0.842027
C200	C	1.695608	-0.286023	1.092027
C201	C	0.865507	-1.036145	0.261809
C202	C	1.115507	-0.786145	0.511809
C203	C	1.365507	-0.536145	0.761809
C204	C	1.615507	-0.286145	1.011809
C205	C	0.865487	-0.970710	0.261799
C206	C	1.115487	-0.720710	0.511799
C207	C	1.365487	-0.470710	0.761799
C208	C	1.615487	-0.220710	1.011799
C209	C	0.905531	-0.937934	0.301898
C210	C	1.155531	-0.687934	0.551898
C211	C	1.405531	-0.437934	0.801898
C212	C	1.655531	-0.187934	1.051898
C213	C	1.068857	-0.301882	0.301877
C214	C	1.318857	-0.051882	0.551877
C215	C	1.568857	0.198118	0.801877
C216	C	1.818857	0.448118	1.051877
C217	C	1.138499	-0.301890	0.301885
C218	C	1.388499	-0.051890	0.551885
C219	C	1.638499	0.198110	0.801885
C220	C	1.888499	0.448110	1.051885
C221	C	0.905484	-0.301826	0.465282
C222	C	1.155484	-0.051826	0.715282
C223	C	1.405484	0.198174	0.965282
C224	C	1.655484	0.448174	1.215282
C225	C	0.905505	-0.301810	0.534924
C226	C	1.155505	-0.051810	0.784924
C227	C	1.405505	0.198190	1.034924
C228	C	1.655505	0.448190	1.284924
C229	C	0.905532	-0.138442	0.301905
C230	C	1.155532	0.111558	0.551905
C231	C	1.405532	0.361558	0.801905
C232	C	1.655532	0.611558	1.051905
C233	C	0.905573	-0.068800	0.301924
C234	C	1.155573	0.181200	0.551924
C235	C	1.405573	0.431200	0.801924
C236	C	1.655573	0.681200	1.051924
C237	C	0.905421	-0.301859	0.139071
C238	C	1.155421	-0.051859	0.389071
C239	C	1.405421	0.198141	0.639071
C240	C	1.655421	0.448141	0.889071
C241	C	0.905522	-0.301699	0.069430
C242	C	1.155522	-0.051699	0.319430
C243	C	1.405522	0.198301	0.569430
C244	C	1.655522	0.448301	0.819430
C245	C	0.865466	-0.261728	0.567634
C246	C	1.115466	-0.011728	0.817634
C247	C	1.365466	0.238272	1.067634
C248	C	1.615466	0.488272	1.317634
C249	C	0.865464	-0.261716	0.633069
C250	C	1.115464	-0.011716	0.883069
C251	C	1.365464	0.238284	1.133069
C252	C	1.615464	0.488284	1.383069
C253	C	0.905511	-0.301780	0.665792
C254	C	1.155511	-0.051780	0.915792
C255	C	1.405511	0.198220	1.165792
C256	C	1.655511	0.448220	1.415792
C257	C	0.945553	-0.341870	0.633074
C258	C	1.195553	-0.091870	0.883074
C259	C	1.445553	0.158130	1.133074
C260	C	1.695553	0.408130	1.383074
C261	C	0.945550	-0.341885	0.567640
C262	C	1.195550	-0.091885	0.817640
C263	C	1.445550	0.158115	1.067640
C264	C	1.695550	0.408115	1.317640
C265	C	0.961963	-0.306707	0.769478
C266	C	1.211963	-0.056707	1.019478
C267	C	1.461963	0.193293	1.269478
C268	C	1.711963	0.443293	1.519478
C269	C	0.961968	-0.306688	0.834911
C270	C	1.211968	-0.056688	1.084911
C271	C	1.461968	0.193312	1.334911
C272	C	1.711968	0.443312	1.584911
C273	C	0.905522	-0.301738	0.867613
C274	C	1.155522	-0.051738	1.117613
C275	C	1.405522	0.198262	1.367613
C276	C	1.655522	0.448262	1.617613
C277	C	0.849069	-0.296793	0.834873
C278	C	1.099069	-0.046793	1.084873
C279	C	1.349069	0.203207	1.334873
C280	C	1.599069	0.453207	1.584873
C281	C	0.849066	-0.296808	0.769439
C282	C	1.099066	-0.046808	1.019439
C283	C	1.349066	0.203192	1.269439
C284	C	1.599066	0.453192	1.519439
C285	C	0.905519	-0.301768	0.736744
C286	C	1.155519	-0.051768	0.986744
C287	C	1.405519	0.198232	1.236744
C288	C	1.655519	0.448232	1.486744
C289	C	0.865477	-0.261641	0.971275
C290	C	1.115477	-0.011641	1.221275
C291	C	1.365477	0.238359	1.471275
C292	C	1.615477	0.488359	1.721275
C293	C	0.865474	-0.261633	1.036712
C294	C	1.115474	-0.011633	1.286712
C295	C	1.365474	0.238367	1.536712
C296	C	1.615474	0.488367	1.786712
C297	C	0.945569	-0.341784	1.036716
C298	C	1.195569	-0.091784	1.286716
C299	C	1.445569	0.158216	1.536716
C300	C	1.695569	0.408216	1.786716
C301	C	0.945567	-0.341795	0.971280
C302	C	1.195567	-0.091795	1.221280
C303	C	1.445567	0.158205	1.471280
C304	C	1.695567	0.408205	1.721280
C305	C	0.905522	-0.301720	0.938564
C306	C	1.155522	-0.051720	1.188564
C307	C	1.405522	0.198280	1.438564
C308	C	1.655522	0.448280	1.688564
H309	H	0.346436	-0.199440	0.293082
H310	H	0.596436	0.050560	0.543082
H311	H	0.846436	0.300560	0.793082
H312	H	1.096436	0.550560	1.043082
F313	F	0.540031	-0.219041	0.219289
F314	F	0.790031	0.030959	0.469289
F315	F	1.040031	0.280959	0.719289
F316	F	1.290031	0.530959	0.969289
H317	H	0.978172	-0.374432	0.944648
H318	H	1.228172	-0.124432	1.194648
H319	H	1.478172	0.125568	1.444648
H320	H	1.728172	0.375568	1.694648
H321	H	0.465141	-0.199432	0.293092
H322	H	0.715141	0.050568	0.543092
H323	H	0.965141	0.300568	0.793092
H324	H	1.215141	0.550568	1.043092
F325	F	0.822846	-0.935959	0.219111
F326	F	1.072846	-0.685959	0.469111
F327	F	1.322846	-0.435959	0.719111
F328	F	1.572846	-0.185959	0.969111
F329	F	0.895378	-0.734099	0.185312
F330	F	1.145378	-0.484099	0.435312
F331	F	1.395378	-0.234099	0.685312
F332	F	1.645378	0.015901	0.935312
H333	H	0.896592	-0.860974	0.199455
H334	H	1.146592	-0.610974	0.449455
H335	H	1.396592	-0.360974	0.699455
H336	H	1.646592	-0.110974	0.949455
H337	H	0.832856	-0.229098	0.541000
H338	H	1.082856	0.020902	0.791000
H339	H	1.332856	0.270902	1.041000
H340	H	1.582856	0.520902	1.291000
H341	H	0.144574	-0.229102	0.229307
H342	H	0.394574	0.020898	0.479307
H343	H	0.644574	0.270898	0.729307
H344	H	0.894574	0.520898	0.979307
F345	F	0.988056	-0.532067	0.384621
F346	F	1.238056	-0.282067	0.634621
F347	F	1.488056	-0.032067	0.884621
F348	F	1.738056	0.217933	1.134621
F349	F	0.915646	-0.868994	0.418431
F350	F	1.165646	-0.618994	0.668431
F351	F	1.415646	-0.368994	0.918431
F352	F	1.665646	-0.118994	1.168431
F353	F	0.540040	-0.384680	0.384434
F354	F	0.790040	-0.134680	0.634434
F355	F	1.040040	0.115320	0.884434
F356	F	1.290040	0.365320	1.134434
F357	F	0.822856	-0.218993	0.936454
F358	F	1.072856	0.031007	1.186454
F359	F	1.322856	0.281007	1.436454
F360	F	1.572856	0.531007	1.686454
F361	F	0.473243	-0.418413	0.311855
F362	F	0.723243	-0.168413	0.561855
F363	F	0.973243	0.081587	0.811855
F364	F	1.223243	0.331587	1.061855
F365	F	0.915597	-0.733921	0.418408
F366	F	1.165597	-0.483921	0.668408
F367	F	1.415597	-0.233921	0.918408
F368	F	1.665597	0.016079	1.168408
F369	F	0.988207	-0.935702	0.384689
F370	F	1.238207	-0.685702	0.634689
F371	F	1.488207	-0.435702	0.884689
F372	F	1.738207	-0.185702	1.134689
H373	H	0.832760	-0.659199	0.229094
H374	H	1.082760	-0.409199	0.479094
H375	H	1.332760	-0.159199	0.729094
H376	H	1.582760	0.090801	0.979094
H377	H	0.978160	-0.374490	0.659721
H378	H	1.228160	-0.124490	0.909721
H379	H	1.478160	0.125510	1.159721
H380	H	1.728160	0.375510	1.409721
H381	H	0.263287	-0.229095	0.229307
H382	H	0.513287	0.020905	0.479307
H383	H	0.763287	0.270905	0.729307
H384	H	1.013287	0.520905	0.979307
F385	F	0.675102	-0.219037	0.219275
F386	F	0.925102	0.030963	0.469275
F387	F	1.175102	0.280963	0.719275
F388	F	1.425102	0.530963	0.969275
H389	H	1.007935	-0.310711	0.861563
H390	H	1.257935	-0.060711	1.111563
H391	H	1.507935	0.189289	1.361563
H392	H	1.757935	0.439289	1.611563
H393	H	0.978232	-1.062606	0.374689
H394	H	1.228232	-0.812606	0.624689
H395	H	1.478232	-0.562606	0.874689
H396	H	1.728232	-0.312606	1.124689
F397	F	0.822842	-0.218985	1.071524
F398	F	1.072842	0.031015	1.321524
F399	F	1.322842	0.281015	1.571524
F400	F	1.572842	0.531015	1.821524
F401	F	0.988106	-0.667137	0.384641
F402	F	1.238106	-0.417137	0.634641
F403	F	1.488106	-0.167137	0.884641
F404	F	1.738106	0.082863	1.134641
F405	F	0.822898	-1.071030	0.219131
F406	F	1.072898	-0.821030	0.469131
F407	F	1.322898	-0.571030	0.719131
F408	F	1.572898	-0.321030	0.969131
F409	F	0.271474	-0.384697	0.384448
F410	F	0.521474	-0.134697	0.634448
F411	F	0.771474	0.115303	0.884448
F412	F	1.021474	0.365303	1.134448
F413	F	0.338169	-0.418420	0.311870
F414	F	0.588169	-0.168420	0.561870
F415	F	0.838169	0.081580	0.811870
F416	F	1.088169	0.331580	1.061870
F417	F	0.822690	-0.532319	0.219046
F418	F	1.072690	-0.282319	0.469046
F419	F	1.322690	-0.032319	0.719046
F420	F	1.572690	0.217681	0.969046
H421	H	0.832860	-0.229073	0.659707
H422	H	1.082860	0.020927	0.909707
H423	H	1.332860	0.270927	1.159707
H424	H	1.582860	0.520927	1.409707
H425	H	0.803100	-0.292783	0.742785
H426	H	1.053100	-0.042783	0.992785
H427	H	1.303100	0.207217	1.242785
H428	H	1.553100	0.457217	1.492785
F429	F	0.788990	-0.291521	0.869671
F430	F	1.038990	-0.041521	1.119671
F431	F	1.288990	0.208479	1.369671
F432	F	1.538990	0.458479	1.619671
F433	F	0.988188	-0.384427	1.071538
F434	F	1.238188	-0.134427	1.321538
F435	F	1.488188	0.115573	1.571538
F436	F	1.738188	0.365573	1.821538
H437	H	1.007933	-0.310734	0.742858
H438	H	1.257933	-0.060734	0.992858
H439	H	1.507933	0.189266	1.242858
H440	H	1.757933	0.439266	1.492858
H441	H	0.144584	-0.374674	0.374458
H442	H	0.394584	-0.124674	0.624458
H443	H	0.644584	0.125326	0.874458
H444	H	0.894584	0.375326	1.124458
F445	F	0.675110	-0.384679	0.384415
F446	F	0.925110	-0.134679	0.634415
F447	F	1.175110	0.115321	0.884415
F448	F	1.425110	0.365321	1.134415
H449	H	0.978157	-0.374524	0.541008
H450	H	1.228157	-0.124524	0.791008
H451	H	1.478157	0.125476	1.041008
H452	H	1.728157	0.375476	1.291008
