data_functionalizedCrystal
_audit_creation_method	'MofGen! by Chris Wilmer'
_symmetry_space_group_name_H-M	'P1'
_symmetry_Int_Tables_number	1
_symmetry_cell_setting	triclinic
loop_
_symmetry_equiv_pos_as_xyz
  x,y,z
_cell_length_a	19.188930
_cell_length_b	23.532407
_cell_length_c	18.266242
_cell_angle_alpha	89.988983
_cell_angle_beta	89.977082
_cell_angle_gamma	82.996728
loop_
_atom_site_label
_atom_site_type_symbol
_atom_site_fract_x
_atom_site_fract_y
_atom_site_fract_z
O1	O	0.925922	0.071102	-0.061124
O2	O	0.722581	0.080673	-0.061074
O3	O	0.830383	-0.007031	-0.061087
O4	O	0.818120	0.158806	-0.061111
O5	O	0.830365	-0.007035	0.060675
O6	O	0.722562	0.080669	0.060688
O7	O	0.925904	0.071097	0.060638
Zn8	Zn	0.824230	0.075882	0.079995
Zn9	Zn	0.824254	0.075888	-0.080431
O10	O	0.818102	0.158802	0.060651
C11	C	0.696561	0.080361	-0.000187
C12	C	0.619060	0.079431	-0.000168
C13	C	0.573972	0.130893	-0.000187
C14	C	0.501151	0.130019	-0.000194
C15	C	0.473421	0.077680	-0.000198
C16	C	0.518519	0.026211	-0.000175
C17	C	0.591339	0.027086	-0.000160
N18	N	0.365575	0.037674	-0.041663
N19	N	0.296399	0.036846	-0.041679
C20	C	0.254021	0.075038	-0.000243
N21	N	0.283431	0.114099	0.041201
N22	N	0.352613	0.114929	0.041214
C23	C	0.394462	0.076724	-0.000214
C24	C	0.129971	0.125556	-0.000269
C25	C	0.057149	0.124680	-0.000272
C26	C	0.074520	0.020870	-0.000260
C27	C	0.147340	0.021748	-0.000250
C28	C	0.175061	0.074092	-0.000257
C29	C	0.830062	-0.028250	-0.000204
C30	C	0.829123	-0.091469	-0.000198
C31	C	0.887029	-0.490449	-0.000252
C32	C	0.886157	-0.549851	-0.000258
O33	O	0.939837	-0.586482	-0.000298
N34	N	0.822068	-0.572613	-0.000242
C35	C	0.758848	-0.535970	-0.000228
O36	O	0.704255	-0.560786	-0.000215
C37	C	0.759721	-0.476569	-0.000228
C38	C	0.823814	-0.453810	-0.000236
C39	C	0.951117	-0.467690	-0.000262
C40	C	0.951989	-0.408292	-0.000255
C41	C	0.888773	-0.371653	-0.000239
C42	C	0.824685	-0.394412	-0.000230
C43	C	0.696501	-0.439927	-0.000219
C44	C	0.697379	-0.380523	-0.000219
C45	C	0.761472	-0.357764	-0.000228
C46	C	0.762342	-0.298376	-0.000207
N47	N	0.826430	-0.275614	-0.000223
C48	C	0.889646	-0.312252	-0.000239
C49	C	0.757019	-0.660717	-0.000229
C50	C	0.756146	-0.720116	-0.000224
C51	C	0.883455	-0.733993	-0.000256
C52	C	0.884328	-0.674592	-0.000255
C53	C	0.821108	-0.637954	-0.000245
C54	C	0.891472	-0.187512	-0.000224
C55	C	0.892339	-0.128108	-0.000214
C56	C	0.765029	-0.114236	-0.000187
C57	C	0.764163	-0.173634	-0.000193
C58	C	0.827390	-0.210272	-0.000214
O59	O	0.708690	-0.261710	-0.000170
O60	O	0.944230	-0.287428	-0.000261
C61	C	0.951923	0.071410	-0.000251
C62	C	1.029425	0.072340	-0.000275
C63	C	0.818423	0.180021	-0.000234
C64	C	0.819362	0.243240	-0.000244
N65	N	0.824219	0.075878	0.189482
N66	N	0.824271	0.075888	-0.189918
C67	C	0.871970	0.037062	0.227785
C68	C	0.871974	0.037059	0.304430
C69	C	0.824235	0.075883	0.342769
C70	C	0.776475	0.114702	0.304457
C71	C	0.776468	0.114700	0.227813
N72	N	0.814998	0.126298	0.463096
N73	N	0.815010	0.126298	0.535904
C74	C	0.824254	0.075891	0.573691
N75	N	0.833500	0.025481	0.535921
N76	N	0.833492	0.025482	0.463106
C77	C	0.824238	0.075889	0.425876
C78	C	0.872012	0.037068	0.695102
C79	C	0.872012	0.037065	0.771748
C80	C	0.776516	0.114713	0.771773
C81	C	0.776513	0.114711	0.695128
C82	C	0.824265	0.075890	0.656797
H83	H	0.628050	-0.014822	-0.000145
H84	H	0.934929	-0.763836	-0.000272
O85	O	0.730045	0.152371	0.808972
C86	C	0.608415	0.186010	0.832439
C87	C	0.660970	0.143323	0.790275
H88	H	0.552557	0.178718	0.817326
H89	H	0.616558	0.179346	0.893807
H90	H	0.617228	0.231602	0.817360
H91	H	0.652189	0.097714	0.805293
H92	H	0.652814	0.150038	0.728916
H93	H	0.737604	0.146312	0.335676
O94	O	0.918372	-0.000722	0.808877
C95	C	0.959967	-0.099830	0.832364
C96	C	0.907435	-0.057100	0.790258
H97	H	0.951133	-0.145422	0.817338
H98	H	1.015847	-0.092562	0.817249
H99	H	0.951781	-0.093135	0.893725
H100	H	0.915557	-0.063770	0.728888
H101	H	0.851574	-0.064379	0.805434
O102	O	0.703605	-0.078664	-0.000046
C103	C	0.595026	-0.048647	0.063019
C104	C	0.664570	-0.088957	0.062968
H105	H	0.563440	-0.056963	0.113952
H106	H	0.606622	-0.002272	0.063064
H107	H	0.563509	-0.056892	0.012040
H108	H	0.696122	-0.080763	0.113938
H109	H	0.652925	-0.135318	0.062885
H110	H	1.002598	-0.497516	-0.000278
H111	H	0.910860	0.005449	0.335623
O112	O	0.693824	-0.742126	-0.000240
C113	C	0.567644	-0.722076	-0.000166
C114	C	0.638175	-0.697077	-0.000159
H115	H	0.522634	-0.685667	-0.000084
H116	H	0.564008	-0.749507	-0.051137
H117	H	0.564080	-0.749568	0.050777
H118	H	0.641788	-0.669560	-0.051068
H119	H	0.641781	-0.669679	0.050846
O120	O	0.946543	-0.652419	-0.000368
C121	C	1.021449	-0.593439	-0.063494
C122	C	0.950957	-0.618497	-0.063447
H123	H	1.025047	-0.566017	-0.114496
H124	H	1.025048	-0.565944	-0.012574
H125	H	1.066465	-0.629844	-0.063469
H126	H	0.905900	-0.582129	-0.063498
H127	H	0.947419	-0.646007	-0.114362
H128	H	0.737633	0.146322	0.663940
H129	H	0.644310	-0.458446	-0.000216
O130	O	0.457369	0.180026	-0.000348
C131	C	0.420305	0.268489	-0.063443
C132	C	0.469913	0.211873	-0.063366
H133	H	0.430439	0.294260	-0.114379
H134	H	0.363484	0.258903	-0.063503
H135	H	0.430300	0.294238	-0.012467
H136	H	0.459981	0.186097	-0.114333
H137	H	0.526717	0.221500	-0.063268
H138	H	0.152543	0.168178	-0.000265
O139	O	0.013378	0.174689	-0.000420
C140	C	-0.023681	0.263158	-0.063505
C141	C	0.025919	0.206537	-0.063437
H142	H	-0.013549	0.288929	-0.114441
H143	H	-0.080504	0.253578	-0.063557
H144	H	-0.013675	0.288903	-0.012529
H145	H	0.015976	0.180765	-0.114404
H146	H	0.082725	0.216158	-0.063346
H147	H	0.184052	-0.020158	-0.000238
O148	O	0.047708	-0.030023	-0.000231
C149	C	0.072622	-0.132893	-0.000259
C150	C	0.103083	-0.075296	-0.000280
H151	H	0.117377	-0.169511	-0.000315
H152	H	0.038963	-0.135939	0.050704
H153	H	0.038967	-0.135865	-0.051210
H154	H	0.136769	-0.072284	0.050636
H155	H	0.136702	-0.072274	-0.051277
O156	O	0.635901	-0.345014	-0.000177
C157	C	0.509536	-0.337525	-0.000203
C158	C	0.579106	-0.377801	-0.000235
H159	H	0.463600	-0.364016	-0.000266
H160	H	0.506699	-0.309387	0.050769
H161	H	0.506810	-0.309347	-0.051146
H162	H	0.581879	-0.406014	0.050673
H163	H	0.581915	-0.405900	-0.051241
O164	O	0.491552	-0.024617	-0.000311
C165	C	0.419420	-0.085834	-0.063382
C166	C	0.449925	-0.028255	-0.063333
H167	H	0.385746	-0.088789	-0.114322
H168	H	0.464130	-0.122490	-0.063414
H169	H	0.385760	-0.088832	-0.012410
H170	H	0.483576	-0.025201	-0.114296
H171	H	0.405181	0.008373	-0.063263
O172	O	0.952936	-0.223038	-0.000339
C173	C	1.061478	-0.253074	-0.063461
C174	C	0.991906	-0.212800	-0.063419
H175	H	1.092999	-0.244820	-0.114463
H176	H	1.093074	-0.244815	-0.012542
H177	H	1.049840	-0.299437	-0.063427
H178	H	1.003480	-0.166423	-0.063479
H179	H	0.960331	-0.221109	-0.114333
H180	H	0.944533	-0.109581	-0.000220
O181	O	0.701888	-0.195720	-0.000310
C182	C	0.592807	-0.201987	-0.063356
C183	C	0.663314	-0.176953	-0.063312
H184	H	0.561593	-0.186814	-0.114279
H185	H	0.603000	-0.250739	-0.063417
H186	H	0.561607	-0.186911	-0.012367
H187	H	0.694550	-0.191986	-0.114292
H188	H	0.653071	-0.128204	-0.063213
H189	H	1.004180	-0.389768	-0.000265
O190	O	0.918315	-0.000635	0.657757
C191	C	0.933789	-0.078412	0.571192
C192	C	0.881261	-0.035758	0.613439
H193	H	0.903851	-0.106828	0.535363
H194	H	0.968449	-0.053875	0.535261
H195	H	0.967960	-0.106138	0.611723
H196	H	0.847044	-0.008022	0.572961
H197	H	0.846649	-0.060331	0.649381
O198	O	0.695621	-0.625105	-0.000339
C199	C	0.622733	-0.549957	-0.063373
C200	C	0.692283	-0.590259	-0.063348
H201	H	0.620019	-0.521766	-0.114303
H202	H	0.576756	-0.576406	-0.063408
H203	H	0.619958	-0.521835	-0.012391
H204	H	0.695127	-0.618390	-0.114322
H205	H	0.738228	-0.563776	-0.063275
O206	O	0.918376	-0.000708	0.190666
C207	C	1.013122	-0.077698	0.198733
C208	C	0.960597	-0.034964	0.240864
H209	H	1.047281	-0.105397	0.239300
H210	H	0.983212	-0.106131	0.162898
H211	H	1.047792	-0.053171	0.162802
H212	H	0.925913	-0.059445	0.276835
H213	H	0.990551	-0.006531	0.276653
O214	O	0.730152	0.152490	0.190636
C215	C	0.688519	0.251601	0.167214
C216	C	0.741019	0.208865	0.209351
H217	H	0.697277	0.297190	0.182341
H218	H	0.696714	0.244983	0.105841
H219	H	0.632659	0.244262	0.182303
H220	H	0.796900	0.216178	0.194323
H221	H	0.732762	0.215494	0.270713
H222	H	0.596537	0.173516	-0.000194
