data_functionalizedCrystal
_audit_creation_method	'MofGen! by Chris Wilmer'
_symmetry_space_group_name_H-M	'P1'
_symmetry_Int_Tables_number	1
_symmetry_cell_setting	triclinic
loop_
_symmetry_equiv_pos_as_xyz
  x,y,z
_cell_length_a	18.215407
_cell_length_b	16.625546
_cell_length_c	18.215398
_cell_angle_alpha	90.026650
_cell_angle_beta	90.019464
_cell_angle_gamma	90.022916
loop_
_atom_site_label
_atom_site_type_symbol
_atom_site_fract_x
_atom_site_fract_y
_atom_site_fract_z
Zn1	Zn	1.125082	-0.321020	0.416110
Zn2	Zn	1.124996	-0.455855	0.293041
Zn3	Zn	1.002015	-0.321041	0.293057
Zn4	Zn	1.001985	-0.455816	0.416066
O5	O	1.063519	-0.388433	0.354568
O6	O	1.228055	-0.338914	0.399796
O7	O	1.108659	-0.437996	0.190059
O8	O	1.018388	-0.208206	0.309405
O9	O	1.227992	-0.437976	0.309378
O10	O	1.108805	-0.208191	0.399812
O11	O	1.018305	-0.338949	0.190070
O12	O	0.899027	-0.338911	0.309363
O13	O	1.018338	-0.437910	0.519056
O14	O	0.899005	-0.437930	0.399737
O15	O	1.108776	-0.338876	0.519088
O16	O	1.108630	-0.568682	0.309335
O17	O	1.018255	-0.568653	0.399721
C18	C	0.872313	-0.388419	0.354547
C19	C	0.790514	-0.388433	0.354556
C20	C	0.602328	-0.440073	0.401554
C21	C	0.525470	-0.440075	0.401563
C22	C	0.525463	-0.336808	0.307598
C23	C	0.602320	-0.336802	0.307593
C24	C	0.640751	-0.388439	0.354570
C25	C	0.487035	-0.388447	0.354584
C26	C	0.403701	-0.388450	0.354594
C27	C	0.724090	-0.388436	0.354562
C28	C	1.063450	-0.597924	0.354537
C29	C	1.063487	-0.687545	0.354549
C30	C	1.063616	-1.015720	0.354625
C31	C	1.063578	-0.924412	0.354606
C32	C	1.063551	-0.851636	0.354587
C33	C	1.063514	-0.760321	0.354568
C34	C	1.255472	-0.388447	0.354590
C35	C	1.337271	-0.388453	0.354599
C36	C	1.063563	-0.388387	0.546521
C37	C	1.063582	-0.388367	0.628320
C38	C	1.063609	-0.178124	0.354615
C39	C	1.063648	-0.088503	0.354635
C40	C	1.063518	-0.388421	0.163362
C41	C	1.063642	-0.388213	0.081563
C42	C	1.110662	-0.439841	0.893376
C43	C	1.110651	-0.439869	0.816517
C44	C	1.016556	-0.336737	0.816513
C45	C	1.016565	-0.336714	0.893370
C46	C	1.063622	-0.388264	0.931800
C47	C	1.063602	-0.388316	0.778084
C48	C	1.063590	-0.388346	0.694750
C49	C	1.063633	-0.388236	1.015139
H50	H	0.494189	-0.482119	0.439823
H51	H	0.978245	-0.294765	0.785214
H52	H	0.494163	-0.294768	0.269350
F53	F	0.643215	-0.281839	0.257588
F54	F	0.966486	-0.281825	0.934266
H55	H	1.148979	-0.481818	0.924663
F56	F	1.160717	-0.494765	0.775627
H57	H	0.633616	-0.482117	0.439808
