data_functionalizedCrystal
_audit_creation_method	'MofGen! by Chris Wilmer'
_symmetry_space_group_name_H-M	'P1'
_symmetry_Int_Tables_number	1
_symmetry_cell_setting	triclinic
loop_
_symmetry_equiv_pos_as_xyz
  x,y,z
_cell_length_a	18.426585
_cell_length_b	14.560438
_cell_length_c	18.426585
_cell_angle_alpha	120.000374
_cell_angle_beta	89.997087
_cell_angle_gamma	60.008230
loop_
_atom_site_label
_atom_site_type_symbol
_atom_site_fract_x
_atom_site_fract_y
_atom_site_fract_z
Zr1	Zr	-0.095073	1.005149	-0.699173
O2	O	-0.210935	1.196734	-0.583300
O3	O	-0.059571	0.813564	-0.734691
O4	O	-0.210947	1.005141	-0.734699
O5	O	0.059868	1.005163	-0.583290
O6	O	-0.210939	1.005134	-0.854130
O7	O	-0.059558	1.005157	-0.583292
O8	O	0.059846	0.662439	-0.854115
O9	O	-0.210917	1.347859	-0.583305
O10	O	-0.044405	0.892361	-0.838973
O11	O	0.044716	0.892370	-0.749842
O12	O	-0.133511	1.117927	-0.749852
O13	O	-0.044390	1.117937	-0.660721
Zr14	Zr	0.095410	1.005149	-0.889649
Zr15	Zr	-0.095060	1.005139	-0.889652
Zr16	Zr	0.095398	1.005159	-0.699171
Zr17	Zr	-0.095045	1.246177	-0.699181
Zr18	Zr	0.095382	0.764121	-0.889642
O19	O	0.059908	1.196734	-0.854132
O20	O	-0.210917	1.196719	-0.854136
O21	O	0.059890	1.196748	-0.583296
O22	O	0.211272	0.813564	-1.005523
O23	O	-0.059553	0.813550	-1.005527
O24	O	0.211254	0.813579	-0.734687
O25	O	-0.059531	1.005134	-1.005533
O26	O	0.211284	1.005157	-0.854124
O27	O	0.211276	1.005163	-0.734693
O28	O	0.059895	1.005141	-1.005531
O29	O	-0.210907	1.347851	-0.734710
O30	O	0.211244	0.662447	-0.854113
O31	O	0.211254	0.662439	-1.005518
O32	O	0.059856	0.662431	-1.005520
O33	O	-0.059519	1.347867	-0.583303
O34	O	-0.059509	1.347859	-0.734708
O35	O	0.133848	0.892370	-0.838971
O36	O	0.044727	0.892361	-0.928102
O37	O	-0.044379	1.117927	-0.838981
O38	O	0.044742	1.117937	-0.749849
C39	C	0.000134	0.703660	-0.794402
C40	C	0.000122	0.601338	-0.794399
C41	C	-0.065641	0.636464	-0.728609
C42	C	-0.065597	0.540275	-0.728624
C43	C	0.065982	0.373834	-0.860220
C44	C	0.065933	0.470022	-0.860209
C45	C	-0.131452	0.767779	-0.662799
C46	C	-0.197220	0.802913	-0.597004
C47	C	-0.197176	0.706724	-0.597018
C48	C	-0.131363	0.575401	-0.662828
C49	C	-0.238081	1.005136	-0.794415
C50	C	-0.318941	1.005132	-0.794416
C51	C	-0.384607	1.005127	-0.794417
C52	C	-0.466993	1.005132	-0.794416
C53	C	-0.532662	1.005146	-0.794412
C54	C	-0.615054	1.005152	-0.794410
C55	C	0.238418	1.005162	-0.794408
C56	C	0.319278	1.005166	-0.794407
C57	C	0.000153	1.005162	-0.556152
C58	C	0.000148	1.005166	-0.475289
C59	C	0.000203	1.306638	-0.794421
C60	C	0.000215	1.408960	-0.794424
C61	C	0.000147	1.005171	-0.409618
C62	C	0.000155	1.005165	-0.327236
C63	C	0.000165	1.005152	-0.261579
C64	C	0.000171	1.005146	-0.179192
C65	C	0.000182	1.005136	-0.032671
C66	C	0.000181	1.005132	-0.113534
C67	C	0.000149	0.703647	-1.032661
C68	C	0.000143	0.601320	-1.113521
C69	C	0.238383	0.703673	-0.794398
C70	C	0.319231	0.601355	-0.794394
C71	C	0.238399	0.703660	-1.032658
C72	C	0.319252	0.601338	-1.113517
C73	C	-0.238062	1.306638	-0.556165
C74	C	-0.318915	1.408960	-0.475306
C75	C	0.000188	1.306650	-0.556161
C76	C	0.000194	1.408977	-0.475301
C77	C	-0.238046	1.306625	-0.794424
C78	C	-0.318894	1.408943	-0.794429
C79	C	-0.046394	0.553267	-1.104970
C80	C	-0.046418	0.457133	-1.180939
C81	C	0.000100	0.409048	-1.265459
C82	C	0.046639	0.457112	-1.274009
C83	C	0.046657	0.553250	-1.198040
C84	C	0.403732	0.553305	-0.840916
C85	C	0.479704	0.457180	-0.840909
C86	C	0.471174	0.409099	-0.794384
C87	C	0.386664	0.457158	-0.747856
C88	C	0.310694	0.553288	-0.747859
C89	C	0.310702	0.553281	-1.198022
C90	C	0.386664	0.457151	-1.274005
C91	C	0.471177	0.409074	-1.265480
C92	C	0.479725	0.457140	-1.180965
C93	C	0.403763	0.553274	-1.104985
C94	C	-0.310364	1.457029	-0.390800
C95	C	-0.386327	1.553188	-0.314818
C96	C	-0.470840	1.601271	-0.323343
C97	C	-0.479388	1.553198	-0.407857
C98	C	-0.403426	1.457047	-0.483838
C99	C	0.046724	1.457041	-0.483853
C100	C	0.046727	1.553201	-0.407884
C101	C	0.000205	1.601289	-0.323364
C102	C	-0.046330	1.553222	-0.314814
C103	C	-0.046338	1.457070	-0.390782
C104	C	-0.310335	1.456993	-0.840963
C105	C	-0.386293	1.553119	-0.840984
C106	C	-0.470809	1.601200	-0.794466
C107	C	-0.479366	1.553141	-0.747931
C108	C	-0.403409	1.457010	-0.747915
H109	H	-0.131494	0.846111	-0.662779
H110	H	-0.410399	1.417911	-0.552644
H111	H	0.084613	1.417895	-0.552666
N112	N	-0.268208	0.944542	-0.526034
H113	H	-0.258258	1.000149	-0.536006
H114	H	-0.265292	0.964094	-0.465664
H115	H	-0.250732	0.735336	-0.543450
N116	N	0.000078	0.305348	-1.347387
H117	H	0.063077	0.225562	-1.383955
H118	H	-0.026436	0.338905	-1.383894
H119	H	0.084513	0.417947	-1.342835
H120	H	-0.131346	0.497084	-0.662847
H121	H	-0.532651	1.679476	-0.794486
N122	N	0.096921	1.605032	-0.417117
H123	H	0.126396	1.559963	-0.482188
H124	H	0.143687	1.588313	-0.387616
H125	H	-0.548189	1.592303	-0.710057
H126	H	-0.241557	1.417885	-0.383842
H127	H	-0.084287	0.592416	-1.036156
H128	H	-0.084315	0.418012	-1.173960
N129	N	-0.412647	1.405191	-0.697720
H130	H	-0.477715	1.450246	-0.668255
H131	H	-0.383162	1.421938	-0.650939
H132	H	0.084558	0.592363	-1.205016
N133	N	0.570884	0.405261	-1.171786
H134	H	0.578001	0.365361	-1.138231
H135	H	0.577970	0.478655	-1.138253
N136	N	0.136960	0.232204	-0.931197
H137	H	0.127013	0.176599	-0.921220
H138	H	0.197320	0.212700	-0.928288
N139	N	-0.377096	1.605023	-0.223671
H140	H	-0.312030	1.559957	-0.229807
H141	H	-0.406599	1.588302	-0.190113
N142	N	-0.570546	1.605064	-0.417038
H143	H	-0.577680	1.531719	-0.450589
H144	H	-0.577615	1.644973	-0.450576
N145	N	-0.096510	1.405217	-0.381548
H146	H	-0.089460	1.337004	-0.442494
H147	H	-0.161565	1.478641	-0.347950
H148	H	0.241892	0.592398	-0.709978
H149	H	-0.084206	1.592390	-0.245988
N150	N	0.136858	0.432147	-0.931168
H151	H	0.178560	0.334365	-0.972856
H152	H	0.171341	0.468459	-0.902389
H153	H	0.533041	0.330824	-0.794388
N154	N	0.000217	1.704996	-0.241430
H155	H	0.036758	1.728138	-0.259681
H156	H	0.026671	1.671470	-0.204892
N157	N	-0.219185	1.405148	-0.891138
H158	H	-0.225302	1.450181	-0.920620
H159	H	-0.185644	1.308635	-0.937905
N160	N	-0.552767	1.704975	-0.241388
H161	H	-0.534518	1.728120	-0.186563
H162	H	-0.589307	1.671445	-0.241424
H163	H	0.533023	0.330795	-1.327356
H164	H	0.379732	0.417997	-0.709976
N165	N	0.219555	0.605113	-1.207230
H166	H	0.225678	0.560072	-1.272299
H167	H	0.186009	0.701626	-1.177733
H168	H	0.410695	0.592441	-0.878803
H169	H	0.548509	0.418061	-0.878800
N170	N	-0.377052	1.604940	-0.891180
H171	H	-0.311984	1.559897	-0.920637
H172	H	-0.406541	1.701453	-0.848472
N173	N	0.377433	0.405318	-1.365152
H174	H	0.312367	0.450358	-1.359016
H175	H	0.406922	0.308805	-1.398705
N176	N	0.412992	0.605096	-1.013840
H177	H	0.478059	0.560042	-1.019978
H178	H	0.383502	0.588351	-0.980293
