data_functionalizedCrystal
_audit_creation_method	'MofGen! by Chris Wilmer'
_symmetry_space_group_name_H-M	'P1'
_symmetry_Int_Tables_number	1
_symmetry_cell_setting	triclinic
loop_
_symmetry_equiv_pos_as_xyz
  x,y,z
_cell_length_a	17.019386
_cell_length_b	15.500227
_cell_length_c	17.038272
_cell_angle_alpha	86.966746
_cell_angle_beta	92.752134
_cell_angle_gamma	83.288903
loop_
_atom_site_label
_atom_site_type_symbol
_atom_site_fract_x
_atom_site_fract_y
_atom_site_fract_z
O1	O	-1.060537	0.150877	0.092058
O2	O	-0.560537	0.650877	0.592058
O3	O	-0.830913	0.133789	0.105605
O4	O	-0.330913	0.633789	0.605605
O5	O	-0.944360	0.142225	-0.014978
O6	O	-0.444360	0.642225	0.485022
O7	O	-0.947090	0.142442	0.212640
O8	O	-0.447090	0.642442	0.712640
O9	O	-0.937474	-0.002176	-0.007689
O10	O	-0.437474	0.497824	0.492311
O11	O	-0.824027	-0.010612	0.112894
O12	O	-0.324027	0.489388	0.612894
O13	O	-1.053651	0.006476	0.099346
O14	O	-0.553651	0.506476	0.599346
Cu15	Cu	-0.938210	-0.015253	0.106785
Cu16	Cu	-0.438210	0.484747	0.606785
Cu17	Cu	-0.946354	0.155518	0.098166
Cu18	Cu	-0.446354	0.655518	0.598166
O19	O	-0.940204	-0.001959	0.219929
O20	O	-0.440204	0.498041	0.719929
C21	C	-0.797944	0.059391	0.108876
C22	C	-0.297944	0.559391	0.608876
C23	C	-0.709966	0.052844	0.107756
C24	C	-0.209966	0.552844	0.607756
C25	C	-0.672380	0.128474	0.103259
C26	C	-0.172380	0.628474	0.603259
C27	C	-0.589714	0.122310	0.102220
C28	C	-0.089714	0.622310	0.602220
C29	C	-0.544635	0.040514	0.105672
C30	C	-0.044635	0.540514	0.605672
C31	C	-0.582227	-0.035123	0.110172
C32	C	-0.082227	0.464877	0.610172
C33	C	-0.664891	-0.028957	0.111217
C34	C	-0.164891	0.471043	0.611217
C35	C	-0.294855	0.017960	0.102722
C36	C	0.205145	0.517960	0.602722
C37	C	-0.212185	0.011800	0.101674
C38	C	0.287815	0.511800	0.601674
C39	C	-0.219678	0.169233	0.093724
C40	C	0.280322	0.669233	0.593724
C41	C	-0.302343	0.175391	0.094764
C42	C	0.197657	0.675391	0.594764
C43	C	-0.339927	0.099755	0.099268
C44	C	0.160073	0.599755	0.599268
C45	C	-0.460137	0.034210	0.104608
C46	C	0.039863	0.534210	0.604608
C47	C	-0.424424	0.106059	0.100338
C48	C	0.075576	0.606059	0.600338
N49	N	-0.932488	-0.135363	0.112848
N50	N	-0.432488	0.364637	0.612848
C51	C	-0.980578	-0.177064	0.061771
C52	C	-0.480578	0.322936	0.561771
C53	C	-0.976259	-0.267958	0.066363
C54	C	-0.476259	0.232042	0.566363
C55	C	-0.923852	-0.317149	0.122036
C56	C	-0.423852	0.182851	0.622036
C57	C	-0.875756	-0.275443	0.173114
C58	C	-0.375756	0.224557	0.673114
C59	C	-0.880072	-0.184550	0.168518
C60	C	-0.380072	0.315450	0.668518
C61	C	-0.908302	-0.591772	0.138580
C62	C	-0.408302	-0.091772	0.638580
C63	C	-0.903991	-0.682670	0.143174
C64	C	-0.403991	-0.182670	0.643174
C65	C	-1.004493	-0.675179	0.036421
C66	C	-0.504493	-0.175179	0.536421
C67	C	-1.008808	-0.584286	0.031833
C68	C	-0.508808	-0.084286	0.531833
C69	C	-0.960709	-0.542587	0.082909
C70	C	-0.460709	-0.042587	0.582909
C71	C	-0.919437	-0.410057	0.126732
C72	C	-0.419437	0.089943	0.626732
C73	C	-0.965121	-0.449681	0.078208
C74	C	-0.465121	0.050319	0.578208
C75	C	-0.086620	0.080876	0.096070
C76	C	0.413380	0.580876	0.596070
C77	C	-0.174599	0.087430	0.097177
C78	C	0.325401	0.587430	0.597177
C79	C	-0.938434	0.069840	-0.040450
C80	C	-0.438434	0.569840	0.459550
C81	C	-0.931028	0.069289	-0.127210
C82	C	-0.431028	0.569289	0.372790
N83	N	-0.952082	0.275629	0.092097
N84	N	-0.452082	0.775629	0.592097
C85	C	-0.999028	0.074348	-0.177632
C86	C	-0.499028	0.574348	0.322368
C87	C	-0.992065	0.073838	-0.259152
C88	C	-0.492065	0.573838	0.240848
C89	C	-0.917100	0.068262	-0.290246
C90	C	-0.417100	0.568262	0.209754
C91	C	-0.849094	0.063205	-0.239817
C92	C	-0.349094	0.563205	0.260183
C93	C	-0.856059	0.063721	-0.158300
C94	C	-0.356059	0.563721	0.341700
C95	C	-0.892495	0.066443	-0.535893
C96	C	-0.392495	0.566443	-0.035893
C97	C	-0.885536	0.065925	-0.617417
C98	C	-0.385536	0.565925	-0.117417
C99	C	-1.028507	0.076560	-0.636746
C100	C	-0.528507	0.576560	-0.136746
C101	C	-1.035465	0.077070	-0.555226
C102	C	-0.535465	0.577070	-0.055226
C103	C	-0.967459	0.072017	-0.504804
C104	C	-0.467459	0.572017	-0.004804
C105	C	-0.909980	0.067738	-0.373572
C106	C	-0.409980	0.567738	0.126428
C107	C	-0.974580	0.072548	-0.421481
C108	C	-0.474580	0.572548	0.078519
C109	C	-0.946129	0.070428	0.245401
C110	C	-0.446129	0.570428	0.745401
C111	C	-0.953536	0.070984	0.332160
C112	C	-0.453536	0.570984	0.832160
H113	H	-0.461129	0.172657	0.097532
H114	H	0.038871	0.672657	0.597532
Cl115	Cl	-0.542466	0.217393	0.096567
Cl116	Cl	-0.042466	0.717393	0.596567
Cl117	Cl	-0.791287	0.058909	-0.656505
Cl118	Cl	-0.291287	0.558909	-0.156505
H119	H	-1.015417	-0.301910	0.024772
H120	H	-0.515417	0.198090	0.524772
H121	H	-1.060072	0.078883	-0.152322
H122	H	-0.560072	0.578883	0.347678
H123	H	-0.837120	0.062329	-0.494849
H124	H	-0.337120	0.562329	0.005151
Cl125	Cl	-0.729042	0.231309	0.098914
Cl126	Cl	-0.229042	0.731309	0.598914
Cl127	Cl	-0.525557	-0.137953	0.114519
Cl128	Cl	-0.025557	0.362047	0.614519
H129	H	-1.007788	-0.409627	0.032876
H130	H	-0.507788	0.090373	0.532876
H131	H	-0.695492	-0.090544	0.114882
H132	H	-0.195492	0.409456	0.614882
H133	H	-0.423426	-0.032388	0.107416
H134	H	0.076574	0.467612	0.607416
Cl135	Cl	-1.074693	-0.522445	-0.038155
Cl136	Cl	-0.574693	-0.022445	0.461845
H137	H	-1.047438	0.077956	-0.300203
H138	H	-0.547438	0.577956	0.199797
Cl139	Cl	-0.853556	-0.471902	0.196722
Cl140	Cl	-0.353556	0.028098	0.696722
Cl141	Cl	-0.155517	-0.091037	0.105999
Cl142	Cl	0.344483	0.408963	0.605999
H143	H	-1.043652	-0.709139	-0.005163
H144	H	-0.543652	-0.209139	0.494837
H145	H	-0.869139	-0.557829	0.180169
H146	H	-0.369139	-0.057829	0.680169
H147	H	-0.339041	0.241998	0.091947
H148	H	0.160959	0.741998	0.591947
Cl149	Cl	-0.838103	-0.744506	0.213170
Cl150	Cl	-0.338103	-0.244506	0.713170
Cl151	Cl	-1.129711	0.084108	-0.516144
Cl152	Cl	-0.629711	0.584108	-0.016144
Cl153	Cl	-0.809868	-0.337282	0.243100
Cl154	Cl	-0.309868	0.162718	0.743100
Cl155	Cl	-0.754853	0.056206	-0.278908
Cl156	Cl	-0.254853	0.556206	0.221092
Cl157	Cl	-0.172425	0.264312	0.088054
Cl158	Cl	0.327575	0.764312	0.588054
H159	H	-1.035617	0.077107	-0.396161
H160	H	-0.535617	0.577107	0.103839
Cl161	Cl	-0.819609	-0.132128	0.232729
Cl162	Cl	-0.319609	0.367872	0.732729
H163	H	-1.083872	0.080675	-0.677808
H164	H	-0.583872	0.580675	-0.177808
Cl165	Cl	-0.770569	0.057364	-0.094910
Cl166	Cl	-0.270569	0.557364	0.405090
Cl167	Cl	-0.342093	-0.077127	0.108382
Cl168	Cl	0.157907	0.422873	0.608382
H169	H	-0.848943	0.063196	-0.398898
H170	H	-0.348943	0.563196	0.101102
Cl171	Cl	-1.046469	-0.115232	-0.008217
Cl172	Cl	-0.546469	0.384768	0.491783
