data_functionalizedCrystal
_audit_creation_method	'MofGen! by Chris Wilmer'
_symmetry_space_group_name_H-M	'P1'
_symmetry_Int_Tables_number	1
_symmetry_cell_setting	triclinic
loop_
_symmetry_equiv_pos_as_xyz
  x,y,z
_cell_length_a	11.169416
_cell_length_b	17.639874
_cell_length_c	11.169409
_cell_angle_alpha	101.172648
_cell_angle_beta	90.031365
_cell_angle_gamma	78.767784
loop_
_atom_site_label
_atom_site_type_symbol
_atom_site_fract_x
_atom_site_fract_y
_atom_site_fract_z
Zn1	Zn	-0.106515	-1.208360	0.308343
Zn2	Zn	-0.307278	-1.208287	0.107685
Zn3	Zn	-0.147188	-1.076186	0.148172
Zn4	Zn	-0.347756	-1.076191	0.348801
O5	O	-0.227184	-1.142256	0.228250
O6	O	-0.099185	-1.318948	0.247850
O7	O	-0.286123	-1.190731	-0.054884
O8	O	0.026166	-1.093747	0.169431
O9	O	-0.246685	-1.318895	0.100427
O10	O	0.056048	-1.190855	0.287108
O11	O	-0.168506	-1.093677	-0.025139
O12	O	-0.207755	-0.965588	0.208661
O13	O	-0.315673	-1.093756	0.511374
O14	O	-0.355112	-0.965592	0.356062
O15	O	-0.138435	-1.190860	0.481649
O16	O	-0.480606	-1.190736	0.139658
O17	O	-0.510345	-1.093686	0.316804
C18	C	-0.290240	-0.936913	0.291146
C19	C	-0.317245	-0.849067	0.318082
C20	C	-0.021937	-0.560031	0.023572
C21	C	-0.047336	-0.477486	0.048898
C22	C	-0.200990	-0.477544	0.202122
C23	C	-0.175600	-0.560091	0.176813
C24	C	-0.086073	-0.601328	0.087535
C25	C	-0.239735	-0.601388	0.240777
C26	C	-0.214351	-0.683927	0.215465
C27	C	-0.124831	-0.725170	0.126189
C28	C	-0.060689	-0.683867	0.062223
C29	C	-0.329268	-0.560149	0.330048
C30	C	-0.393403	-0.601446	0.394012
C31	C	-0.368013	-0.683988	0.368706
C32	C	-0.278493	-0.725230	0.279430
C33	C	-0.432156	-0.725290	0.432671
C34	C	-0.406771	-0.807830	0.407359
C35	C	-0.253109	-0.807770	0.254118
C36	C	-0.539018	-1.142225	0.228248
C37	C	-0.672400	-1.142284	0.228265
C38	C	0.085874	-1.142308	0.228272
C39	C	0.219281	-1.142330	0.228282
C40	C	-0.227032	-1.142317	0.541274
C41	C	-0.226968	-1.142342	0.674666
C42	C	-0.163868	-0.348400	0.165097
C43	C	-0.136847	-0.436247	0.138153
C44	C	-0.227235	-1.142241	-0.083570
C45	C	-0.226915	-1.142368	-0.217008
H46	H	-0.458996	-0.841455	0.459446
H47	H	0.012231	-0.717445	-0.010458
C48	C	-0.154620	-0.853135	0.155912
N49	N	-0.080444	-0.887304	0.081945
H50	H	-0.104167	-0.792379	0.105579
H51	H	-0.273886	-0.443958	0.274809
H52	H	0.050982	-0.593608	-0.049109
H53	H	0.004906	-0.443865	-0.003188
H54	H	-0.349933	-0.492940	0.350654
H55	H	-0.466299	-0.567860	0.466698
H56	H	-0.505056	-0.691703	0.505352
