data_functionalizedCrystal
_audit_creation_method	'MofGen! by Chris Wilmer'
_symmetry_space_group_name_H-M	'P1'
_symmetry_Int_Tables_number	1
_symmetry_cell_setting	triclinic
loop_
_symmetry_equiv_pos_as_xyz
  x,y,z
_cell_length_a	18.215407
_cell_length_b	13.897447
_cell_length_c	18.215399
_cell_angle_alpha	89.972535
_cell_angle_beta	89.983176
_cell_angle_gamma	90.019978
loop_
_atom_site_label
_atom_site_type_symbol
_atom_site_fract_x
_atom_site_fract_y
_atom_site_fract_z
Zn1	Zn	1.125077	-0.383990	-0.416131
Zn2	Zn	1.375077	-0.133990	-0.166131
Zn3	Zn	1.625077	0.116010	0.083869
Zn4	Zn	1.875077	0.366010	0.333869
Zn5	Zn	1.125004	-0.545307	-0.293071
Zn6	Zn	1.375004	-0.295307	-0.043071
Zn7	Zn	1.625004	-0.045307	0.206929
Zn8	Zn	1.875004	0.204693	0.456929
Zn9	Zn	1.002017	-0.384029	-0.293078
Zn10	Zn	1.252017	-0.134029	-0.043078
Zn11	Zn	1.502017	0.115971	0.206922
Zn12	Zn	1.752017	0.365971	0.456922
Zn13	Zn	1.001987	-0.545246	-0.416096
Zn14	Zn	1.251987	-0.295246	-0.166096
Zn15	Zn	1.501987	-0.045246	0.083904
Zn16	Zn	1.751987	0.204754	0.333904
O17	O	1.063521	-0.464643	-0.354594
O18	O	1.313521	-0.214643	-0.104594
O19	O	1.563521	0.035357	0.145406
O20	O	1.813521	0.285357	0.395406
O21	O	1.228052	-0.405399	-0.399818
O22	O	1.478052	-0.155399	-0.149818
O23	O	1.728052	0.094601	0.100182
O24	O	1.978052	0.344601	0.350182
O25	O	1.108671	-0.523954	-0.190087
O26	O	1.358671	-0.273954	0.059913
O27	O	1.608671	-0.023954	0.309913
O28	O	1.858671	0.226046	0.559913
O29	O	1.018384	-0.249042	-0.309419
O30	O	1.268384	0.000958	-0.059419
O31	O	1.518384	0.250958	0.190581
O32	O	1.768384	0.500958	0.440581
O33	O	1.227998	-0.523917	-0.309406
O34	O	1.477998	-0.273917	-0.059406
O35	O	1.727998	-0.023917	0.190594
O36	O	1.977998	0.226083	0.440594
O37	O	1.108796	-0.249014	-0.399825
O38	O	1.358796	0.000986	-0.149825
O39	O	1.608796	0.250986	0.100175
O40	O	1.858796	0.500986	0.350175
O41	O	1.018312	-0.405464	-0.190093
O42	O	1.268312	-0.155464	0.059907
O43	O	1.518312	0.094536	0.309907
O44	O	1.768312	0.344536	0.559907
O45	O	0.899028	-0.405405	-0.309385
O46	O	1.149028	-0.155405	-0.059385
O47	O	1.399028	0.094595	0.190615
O48	O	1.649028	0.344595	0.440615
O49	O	1.018334	-0.523814	-0.519084
O50	O	1.268334	-0.273814	-0.269084
O51	O	1.518334	-0.023814	-0.019084
O52	O	1.768334	0.226186	0.230916
O53	O	0.899007	-0.523851	-0.399765
O54	O	1.149007	-0.273851	-0.149765
O55	O	1.399007	-0.023851	0.100235
O56	O	1.649007	0.226149	0.350235
O57	O	1.108768	-0.405340	-0.519110
O58	O	1.358768	-0.155340	-0.269110
O59	O	1.608768	0.094660	-0.019110
O60	O	1.858768	0.344660	0.230890
O61	O	1.108642	-0.680280	-0.309372
O62	O	1.358642	-0.430280	-0.059372
O63	O	1.608642	-0.180280	0.190628
O64	O	1.858642	0.069720	0.440628
O65	O	1.018263	-0.680236	-0.399758
O66	O	1.268263	-0.430236	-0.149758
O67	O	1.518263	-0.180236	0.100242
O68	O	1.768263	0.069764	0.350242
C69	C	0.872315	-0.464627	-0.354573
C70	C	1.122315	-0.214627	-0.104573
C71	C	1.372315	0.035373	0.145427
C72	C	1.622315	0.285373	0.395427
C73	C	0.790516	-0.464643	-0.354581
C74	C	1.040516	-0.214643	-0.104581
C75	C	1.290516	0.035357	0.145419
C76	C	1.540516	0.285357	0.395419
C77	C	1.063461	-0.715257	-0.354577
C78	C	1.313461	-0.465257	-0.104577
C79	C	1.563461	-0.215257	0.145423
C80	C	1.813461	0.034743	0.395423
C81	C	1.063503	-0.822471	-0.354594
C82	C	1.313503	-0.572471	-0.104594
C83	C	1.563503	-0.322471	0.145406
C84	C	1.813503	-0.072471	0.395406
C85	C	0.602330	-0.526414	-0.401583
C86	C	0.852330	-0.276414	-0.151583
C87	C	1.102330	-0.026414	0.098417
C88	C	1.352330	0.223586	0.348417
C89	C	0.525472	-0.526417	-0.401592
C90	C	0.775472	-0.276417	-0.151592
C91	C	1.025472	-0.026417	0.098408
C92	C	1.275472	0.223583	0.348408
C93	C	0.525464	-0.402889	-0.307620
C94	C	0.775464	-0.152889	-0.057620
C95	C	1.025464	0.097111	0.192380
C96	C	1.275464	0.347111	0.442380
C97	C	0.602322	-0.402882	-0.307616
C98	C	0.852322	-0.152882	-0.057616
C99	C	1.102322	0.097118	0.192384
C100	C	1.352322	0.347118	0.442384
C101	C	0.640753	-0.464650	-0.354596
C102	C	0.890753	-0.214650	-0.104596
C103	C	1.140753	0.035350	0.145404
C104	C	1.390753	0.285350	0.395404
C105	C	0.487037	-0.464660	-0.354610
C106	C	0.737037	-0.214660	-0.104610
C107	C	0.987037	0.035340	0.145390
C108	C	1.237037	0.285340	0.395390
C109	C	0.403703	-0.464663	-0.354619
C110	C	0.653703	-0.214663	-0.104619
C111	C	0.903703	0.035337	0.145381
C112	C	1.153703	0.285337	0.395381
C113	C	0.724092	-0.464646	-0.354587
C114	C	0.974092	-0.214646	-0.104587
C115	C	1.224092	0.035354	0.145413
C116	C	1.474092	0.285354	0.395413
C117	C	1.063539	-0.909541	-0.354611
C118	C	1.313539	-0.659541	-0.104611
C119	C	1.563539	-0.409541	0.145389
C120	C	1.813539	-0.159541	0.395389
C121	C	1.063590	-1.018773	-0.354630
C122	C	1.313590	-0.768773	-0.104630
C123	C	1.563590	-0.518773	0.145370
C124	C	1.813590	-0.268773	0.395370
C125	C	1.255474	-0.464660	-0.354615
C126	C	1.505474	-0.214660	-0.104615
C127	C	1.755474	0.035340	0.145385
C128	C	2.005474	0.285340	0.395385
C129	C	1.337273	-0.464668	-0.354625
C130	C	1.587273	-0.214668	-0.104625
C131	C	1.837273	0.035332	0.145375
C132	C	2.087273	0.285332	0.395375
C133	C	1.063556	-0.464566	-0.546547
C134	C	1.313556	-0.214566	-0.296547
C135	C	1.563556	0.035434	-0.046547
C136	C	1.813556	0.285434	0.203453
C137	C	1.063571	-0.464533	-0.628346
C138	C	1.313571	-0.214533	-0.378346
C139	C	1.563571	0.035467	-0.128346
C140	C	1.813571	0.285467	0.121654
C141	C	1.063601	-0.213050	-0.354627
C142	C	1.313601	0.036950	-0.104627
C143	C	1.563601	0.286950	0.145373
C144	C	1.813601	0.536950	0.395373
C145	C	1.063636	-0.105836	-0.354641
C146	C	1.313636	0.144164	-0.104641
C147	C	1.563636	0.394164	0.145359
C148	C	1.813636	0.644164	0.395359
C149	C	1.016561	-0.402794	-0.816543
C150	C	1.266561	-0.152794	-0.566543
C151	C	1.516561	0.097206	-0.316543
C152	C	1.766561	0.347206	-0.066543
C153	C	1.016574	-0.402774	-0.893402
C154	C	1.266574	-0.152774	-0.643402
C155	C	1.516574	0.097226	-0.393402
C156	C	1.766574	0.347226	-0.143402
C157	C	1.110669	-0.526158	-0.893386
C158	C	1.360669	-0.276158	-0.643386
C159	C	1.610669	-0.026158	-0.393386
C160	C	1.860669	0.223842	-0.143386
C161	C	1.110652	-0.526181	-0.816528
C162	C	1.360652	-0.276181	-0.566528
C163	C	1.610652	-0.026181	-0.316528
C164	C	1.860652	0.223819	-0.066528
C165	C	1.063599	-0.464494	-0.778109
C166	C	1.313599	-0.214494	-0.528109
C167	C	1.563599	0.035506	-0.278109
C168	C	1.813599	0.285506	-0.028109
C169	C	1.063629	-0.464451	-0.931825
C170	C	1.313629	-0.214451	-0.681825
C171	C	1.563629	0.035549	-0.431825
C172	C	1.813629	0.285549	-0.181825
C173	C	1.063643	-0.464430	-1.015159
C174	C	1.313643	-0.214430	-0.765159
C175	C	1.563643	0.035570	-0.515159
C176	C	1.813643	0.285570	-0.265159
C177	C	1.063584	-0.464515	-0.694770
C178	C	1.313584	-0.214515	-0.444770
C179	C	1.563584	0.035485	-0.194770
C180	C	1.813584	0.285485	0.055230
C181	C	1.063529	-0.464650	-0.163387
C182	C	1.313529	-0.214650	0.086613
C183	C	1.563529	0.035350	0.336613
C184	C	1.813529	0.285350	0.586613
C185	C	1.063657	-0.464411	-0.081589
C186	C	1.313657	-0.214411	0.168411
C187	C	1.563657	0.035589	0.418411
C188	C	1.813657	0.285589	0.668411
H189	H	0.633619	-0.576708	-0.439839
H190	H	0.883619	-0.326708	-0.189839
H191	H	1.133619	-0.076708	0.060161
H192	H	1.383619	0.173292	0.310161
H193	H	1.148957	-0.576429	-0.785234
H194	H	1.398957	-0.326429	-0.535234
H195	H	1.648957	-0.076429	-0.285234
H196	H	1.898957	0.173571	-0.035234
O197	O	1.161417	-0.592690	-0.934824
O198	O	1.411417	-0.342690	-0.684824
O199	O	1.661417	-0.092690	-0.434824
O200	O	1.911417	0.157310	-0.184824
H201	H	1.219177	-0.576162	-0.920073
H202	H	1.469177	-0.326162	-0.670073
H203	H	1.719177	-0.076162	-0.420073
H204	H	1.969177	0.173838	-0.170073
O205	O	0.484009	-0.336277	-0.256949
O206	O	0.734009	-0.086277	-0.006949
O207	O	0.984009	0.163723	0.243051
O208	O	1.234009	0.413723	0.493051
H209	H	0.523641	-0.293319	-0.224280
H210	H	0.773641	-0.043319	0.025720
H211	H	1.023641	0.206681	0.275720
H212	H	1.273641	0.456681	0.525720
O213	O	0.965808	-0.336267	-0.775106
O214	O	1.215808	-0.086267	-0.525106
O215	O	1.465808	0.163733	-0.275106
O216	O	1.715808	0.413733	-0.025106
H217	H	0.998754	-0.287196	-0.740109
H218	H	1.248754	-0.037196	-0.490109
H219	H	1.498754	0.212804	-0.240109
H220	H	1.748754	0.462804	0.009891
H221	H	0.494192	-0.576711	-0.439855
H222	H	0.744192	-0.326711	-0.189855
H223	H	0.994192	-0.076711	0.060145
H224	H	1.244192	0.173289	0.310145
H225	H	0.633606	-0.352580	-0.269353
H226	H	0.883606	-0.102580	-0.019353
H227	H	1.133606	0.147420	0.230647
H228	H	1.383606	0.397420	0.480647
O229	O	0.965846	-0.336220	-0.934859
O230	O	1.215846	-0.086220	-0.684859
O231	O	1.465846	0.163780	-0.434859
O232	O	1.715846	0.413780	-0.184859
H233	H	0.933132	-0.293326	-0.895229
H234	H	1.183132	-0.043326	-0.645229
H235	H	1.433132	0.206674	-0.395229
H236	H	1.683132	0.456674	-0.145229
