data_functionalizedCrystal
_audit_creation_method	'MofGen! by Chris Wilmer'
_symmetry_space_group_name_H-M	'P1'
_symmetry_Int_Tables_number	1
_symmetry_cell_setting	triclinic
loop_
_symmetry_equiv_pos_as_xyz
  x,y,z
_cell_length_a	13.897449
_cell_length_b	25.639233
_cell_length_c	13.897448
_cell_angle_alpha	90.015038
_cell_angle_beta	89.981028
_cell_angle_gamma	89.987757
loop_
_atom_site_label
_atom_site_type_symbol
_atom_site_fract_x
_atom_site_fract_y
_atom_site_fract_z
Zn1	Zn	1.474622	-0.295617	0.384099
Zn2	Zn	1.974622	0.204383	0.884099
Zn3	Zn	1.474540	-0.208187	0.545377
Zn4	Zn	1.974540	0.291813	1.045377
Zn5	Zn	1.313335	-0.208197	0.384101
Zn6	Zn	1.813335	0.291803	0.884101
Zn7	Zn	1.313293	-0.295592	0.545358
Zn8	Zn	1.813293	0.204408	1.045358
O9	O	1.393947	-0.251898	0.464734
O10	O	1.893947	0.248102	0.964734
O11	O	1.609592	-0.284026	0.405501
O12	O	2.109592	0.215974	0.905501
O13	O	1.453139	-0.135023	0.523993
O14	O	1.953139	0.364977	1.023993
O15	O	1.334782	-0.219807	0.249120
O16	O	1.834782	0.280193	0.749120
O17	O	1.609532	-0.219792	0.523991
O18	O	2.109532	0.280208	1.023991
O19	O	1.453279	-0.284035	0.249118
O20	O	1.953279	0.215965	0.749118
O21	O	1.334702	-0.135030	0.405504
O22	O	1.834702	0.364970	0.905504
O23	O	1.178348	-0.219783	0.405485
O24	O	1.678348	0.280217	0.905485
O25	O	1.334710	-0.368761	0.523957
O26	O	1.834710	0.131239	1.023957
O27	O	1.178317	-0.283993	0.523959
O28	O	1.678317	0.216007	1.023959
O29	O	1.453238	-0.368779	0.405482
O30	O	1.953238	0.131221	0.905482
O31	O	1.453098	-0.219768	0.680356
O32	O	1.953098	0.280232	1.180356
O33	O	1.334630	-0.283984	0.680342
O34	O	1.834630	0.216016	1.180342
C35	C	1.143333	-0.251886	0.464721
C36	C	1.643333	0.248114	0.964721
C37	C	1.036119	-0.251894	0.464739
C38	C	1.536119	0.248106	0.964739
C39	C	0.839824	-0.251907	0.464742
C40	C	1.339824	0.248093	0.964742
C41	C	0.949056	-0.251898	0.464737
C42	C	1.449056	0.248102	0.964737
C43	C	1.393978	-0.388271	0.464717
C44	C	1.893978	0.111729	0.964717
C45	C	1.393992	-0.446386	0.464710
C46	C	1.893992	0.053614	0.964710
C47	C	1.455787	-0.806764	0.402836
C48	C	1.955787	-0.306764	0.902836
C49	C	1.455799	-0.861368	0.402810
C50	C	1.955799	-0.361368	0.902810
O51	O	1.508262	-0.889618	0.350316
O52	O	2.008262	-0.389618	0.850316
N53	N	1.394098	-0.888668	0.464484
N54	N	1.894098	-0.388668	0.964484
C55	C	1.332374	-0.861361	0.526182
C56	C	1.832374	-0.361361	1.026182
O57	O	1.279892	-0.889596	0.578637
O58	O	1.779892	-0.389596	1.078637
C59	C	1.332358	-0.806758	0.526203
C60	C	1.832358	-0.306758	1.026203
C61	C	1.394070	-0.779461	0.464531
C62	C	1.894070	-0.279461	0.964531
C63	C	1.517494	-0.779467	0.341169
C64	C	2.017494	-0.279467	0.841169
C65	C	1.517483	-0.724866	0.341197
C66	C	2.017483	-0.224866	0.841197
C67	C	1.455765	-0.697563	0.402893
C68	C	1.955765	-0.197563	0.902893
C69	C	1.394059	-0.724860	0.464560
C70	C	1.894059	-0.224860	0.964560
C71	C	1.270629	-0.779451	0.587895
C72	C	1.770629	-0.279451	1.087895
C73	C	1.270618	-0.724844	0.587910
C74	C	1.770618	-0.224844	1.087910
C75	C	1.332330	-0.697547	0.526239
C76	C	1.832330	-0.197547	1.026239
C77	C	1.332331	-0.642956	0.526283
C78	C	1.832331	-0.142956	1.026283
N79	N	1.394032	-0.615656	0.464609
N80	N	1.894032	-0.115656	0.964609
C81	C	1.455749	-0.642959	0.402914
C82	C	1.955749	-0.142959	0.902914
C83	C	1.332411	-0.976032	0.526131
C84	C	1.832411	-0.476032	1.026131
C85	C	1.332431	-1.030634	0.526116
C86	C	1.832431	-0.530634	1.026116
C87	C	1.455856	-1.030638	0.402742
C88	C	1.955856	-0.530638	0.902742
C89	C	1.455839	-0.976034	0.402763
C90	C	1.955839	-0.476034	0.902763
C91	C	1.394112	-0.948732	0.464457
C92	C	1.894112	-0.448732	0.964457
C93	C	1.455722	-0.528294	0.402978
C94	C	1.955722	-0.028294	0.902978
C95	C	1.455709	-0.473689	0.403015
C96	C	1.955709	0.026311	0.903015
C97	C	1.332281	-0.473690	0.526384
C98	C	1.832281	0.026310	1.026384
C99	C	1.332298	-0.528291	0.526352
C100	C	1.832298	-0.028291	1.026352
C101	C	1.394022	-0.555592	0.464641
C102	C	1.894022	-0.055592	0.964641
O103	O	1.279892	-0.614672	0.578747
O104	O	1.779892	-0.114672	1.078747
O105	O	1.508213	-0.614718	0.350458
O106	O	2.008213	-0.114718	0.850458
C107	C	1.645540	-0.251911	0.464748
C108	C	2.145540	0.248089	0.964748
C109	C	1.752754	-0.251916	0.464753
C110	C	2.252754	0.248084	0.964753
C111	C	1.393877	-0.251883	0.715348
C112	C	1.893877	0.248117	1.215348
C113	C	1.393935	-0.251894	0.822562
C114	C	1.893935	0.248106	1.322562
C115	C	1.393972	-0.116056	0.464681
C116	C	1.893972	0.383944	0.964681
C117	C	1.394145	-0.057942	0.464417
C118	C	1.894145	0.442058	0.964417
C119	C	1.394044	-0.251925	0.213141
C120	C	1.894044	0.248075	0.713141
C121	C	1.394085	-0.251936	0.105927
C122	C	1.894085	0.248064	0.605927
C123	C	1.394036	-0.251927	1.018857
C124	C	1.894036	0.248073	1.518857
C125	C	1.393977	-0.251910	0.909625
C126	C	1.893977	0.248090	1.409625
H127	H	1.505981	-0.550516	0.352724
H128	H	2.005981	-0.050516	0.852724
H129	H	1.567734	-0.702646	0.290976
H130	H	2.067734	-0.202646	0.790976
H131	H	1.506107	-1.052878	0.352504
H132	H	2.006107	-0.552878	0.852504
N133	N	1.269401	-1.058506	0.589131
N134	N	1.769401	-0.558506	1.089131
N135	N	1.214307	-1.034115	0.644211
N136	N	1.714307	-0.534115	1.144211
H137	H	1.169785	-1.053797	0.688716
H138	H	1.669785	-0.553797	1.188716
H139	H	1.220376	-0.801667	0.638114
H140	H	1.720376	-0.301667	1.138114
H141	H	1.567752	-0.801691	0.290924
H142	H	2.067752	-0.301691	0.790924
H143	H	1.506089	-0.953812	0.352543
H144	H	2.006089	-0.453812	0.852543
H145	H	1.282144	-0.953805	0.576375
H146	H	1.782144	-0.453805	1.076375
N147	N	1.207551	-0.696965	0.650931
N148	N	1.707551	-0.196965	1.150931
N149	N	1.152459	-0.721348	0.705982
N150	N	1.652459	-0.221348	1.205982
H151	H	1.107918	-0.701659	0.750492
H152	H	1.607918	-0.201659	1.250492
N153	N	1.269239	-0.556169	0.589335
N154	N	1.769239	-0.056169	1.089335
N155	N	1.214125	-0.531782	0.644400
N156	N	1.714125	-0.031782	1.144400
H157	H	1.169571	-0.551467	0.688868
H158	H	1.669571	-0.051467	1.188868
H159	H	1.282036	-0.451450	0.576618
H160	H	1.782036	0.048550	1.076618
H161	H	1.505966	-0.451466	0.352794
H162	H	2.005966	0.048534	0.852794
