data_functionalizedCrystal
_audit_creation_method	'MofGen! by Chris Wilmer'
_symmetry_space_group_name_H-M	'P1'
_symmetry_Int_Tables_number	1
_symmetry_cell_setting	triclinic
loop_
_symmetry_equiv_pos_as_xyz
  x,y,z
_cell_length_a	15.995292
_cell_length_b	15.995350
_cell_length_c	17.766277
_cell_angle_alpha	89.995869
_cell_angle_beta	89.989466
_cell_angle_gamma	83.480495
loop_
_atom_site_label
_atom_site_type_symbol
_atom_site_fract_x
_atom_site_fract_y
_atom_site_fract_z
O1	O	1.111022	0.107696	-0.062611
O2	O	1.611022	0.607696	0.437389
O3	O	0.867240	0.121074	-0.062607
O4	O	1.367240	0.621074	0.437393
O5	O	0.995795	-0.007504	-0.062608
O6	O	1.495795	0.492496	0.437392
O7	O	0.982467	0.236274	-0.062610
O8	O	1.482467	0.736274	0.437390
O9	O	0.995772	-0.007510	0.062580
O10	O	1.495772	0.492490	0.562580
O11	O	0.867217	0.121068	0.062581
O12	O	1.367217	0.621068	0.562581
O13	O	1.110999	0.107689	0.062578
O14	O	1.610999	0.607689	0.562578
Cu15	Cu	0.989106	0.114378	0.074010
Cu16	Cu	1.489106	0.614378	0.574010
Cu17	Cu	0.989133	0.114386	-0.074040
Cu18	Cu	1.489133	0.614386	0.425960
O19	O	0.982444	0.236268	0.062579
O20	O	1.482444	0.736268	0.562579
C21	C	0.836033	0.120527	-0.000013
C22	C	1.336033	0.620527	0.499987
C23	C	0.743080	0.118894	-0.000012
C24	C	1.243080	0.618894	0.499988
C25	C	0.995232	-0.038702	-0.000016
C26	C	1.495232	0.461298	0.499984
C27	C	0.993580	-0.131652	-0.000020
C28	C	1.493580	0.368348	0.499980
C29	C	0.405341	0.112893	-0.000020
C30	C	0.905341	0.612893	0.499980
C31	C	0.428654	0.205697	-0.000300
C32	C	0.928654	0.705697	0.499700
C33	C	0.525329	0.207461	-0.000015
C34	C	1.025329	0.707461	0.499985
C35	C	0.572897	0.115871	-0.000016
C36	C	1.072897	0.615871	0.499984
C37	C	0.543783	0.069469	0.071470
C38	C	1.043783	0.569469	0.571470
C39	C	0.446992	0.068352	0.071527
C40	C	0.946992	0.568352	0.571527
C41	C	0.447162	0.066465	-0.070836
C42	C	0.947162	0.566465	0.429164
C43	C	0.543655	0.069904	-0.071777
C44	C	1.043655	0.569904	0.428223
C45	C	0.667593	0.117549	-0.000012
C46	C	1.167593	0.617549	0.499988
C47	C	0.310646	0.111212	-0.000020
C48	C	0.810646	0.611212	0.499980
C49	C	0.987648	-0.469398	-0.000017
C50	C	1.487648	0.030602	0.499983
C51	C	0.896094	-0.421945	-0.000297
C52	C	1.396094	0.078055	0.499703
C53	C	0.897746	-0.325255	-0.000015
C54	C	1.397746	0.174745	0.499985
C55	C	0.990591	-0.301838	-0.000019
C56	C	1.490591	0.198162	0.499981
C57	C	1.035736	-0.342929	0.071468
C58	C	1.535736	0.157071	0.571468
C59	C	1.033436	-0.439564	0.071528
C60	C	1.533436	0.060436	0.571528
C61	C	1.035353	-0.439915	-0.070835
C62	C	1.535353	0.060085	0.429165
C63	C	1.035331	-0.342970	-0.071780
C64	C	1.535331	0.157030	0.428220
C65	C	0.992259	-0.207141	-0.000017
C66	C	1.492259	0.292859	0.499983
C67	C	0.985983	-0.564095	-0.000014
C68	C	1.485983	-0.064095	0.499986
C69	C	1.142206	0.108237	-0.000019
C70	C	1.642206	0.608237	0.499981
C71	C	1.235159	0.109870	-0.000025
C72	C	1.735159	0.609870	0.499975
C73	C	0.983006	0.267466	-0.000016
C74	C	1.483006	0.767466	0.499984
C75	C	0.984658	0.360416	-0.000016
C76	C	1.484658	0.860416	0.499984
N77	N	0.989093	0.114372	0.178140
N78	N	1.489093	0.614372	0.678140
N79	N	0.989152	0.114385	-0.178170
N80	N	1.489152	0.614385	0.321830
C81	C	1.046036	0.057466	0.217527
C82	C	1.546036	0.557466	0.717527
C83	C	1.046041	0.057462	0.296329
C84	C	1.546041	0.557462	0.796329
C85	C	0.989111	0.114379	0.335741
C86	C	1.489111	0.614379	0.835741
C87	C	0.932158	0.171290	0.296345
C88	C	1.432158	0.671290	0.796345
C89	C	0.932149	0.171286	0.217545
C90	C	1.432149	0.671286	0.717545
C91	C	0.978140	0.190637	0.460579
C92	C	1.478140	0.690637	0.960579
C93	C	0.978155	0.190642	0.539378
C94	C	1.478155	0.690642	1.039378
C95	C	0.989133	0.114389	0.578787
C96	C	1.489133	0.614389	1.078787
C97	C	1.000115	0.038128	0.539389
C98	C	1.500115	0.538128	1.039389
C99	C	1.000106	0.038125	0.460588
C100	C	1.500106	0.538125	0.960588
C101	C	0.989114	0.114388	0.421187
C102	C	1.489114	0.614388	0.921187
C103	C	1.046084	0.057473	0.703620
C104	C	1.546084	0.557473	1.203620
C105	C	1.046083	0.057469	0.782423
C106	C	1.546083	0.557469	1.282423
C107	C	0.932204	0.171304	0.782438
C108	C	1.432204	0.671304	1.282438
C109	C	0.932201	0.171301	0.703636
C110	C	1.432201	0.671301	1.203636
C111	C	0.989146	0.114387	0.664232
C112	C	1.489146	0.614387	1.164232
H113	H	0.544365	0.243796	-0.051261
H114	H	1.044365	0.743796	0.448739
Cl115	Cl	0.860629	0.242850	0.831979
Cl116	Cl	1.360629	0.742850	1.331979
Cl117	Cl	1.141048	-0.321144	0.075572
Cl118	Cl	1.641048	0.178856	0.575572
Cl119	Cl	1.139570	-0.488974	-0.071584
Cl120	Cl	1.639570	0.011026	0.428416
H121	H	0.543723	0.244015	0.051317
H122	H	1.043723	0.744015	0.551317
H123	H	0.400667	0.241471	-0.051567
H124	H	0.900667	0.741471	0.448433
Cl125	Cl	0.987298	-0.299109	0.153609
Cl126	Cl	1.487298	0.200891	0.653609
Cl127	Cl	0.383837	0.260620	0.078404
Cl128	Cl	0.883837	0.760620	0.578404
H129	H	1.009046	-0.023969	0.428513
H130	H	1.509046	0.476031	0.928513
Cl131	Cl	0.572378	0.122037	-0.153432
Cl132	Cl	1.072378	0.622037	0.346568
H133	H	1.092450	0.011124	0.814492
H134	H	1.592450	0.511124	1.314492
H135	H	0.862001	-0.297386	0.051318
H136	H	1.362001	0.202614	0.551318
Cl137	Cl	0.594551	-0.033315	-0.078444
Cl138	Cl	1.094551	0.466685	0.421556
H139	H	1.000497	-0.457861	0.124968
H140	H	1.500497	0.042139	0.624968
H141	H	0.420165	0.100483	0.124966
H142	H	0.920165	0.600483	0.624966
H143	H	0.575650	0.002071	0.074127
H144	H	1.075650	0.502071	0.574127
Cl145	Cl	0.839605	-0.450538	-0.079446
Cl146	Cl	1.339605	0.049462	0.420554
H147	H	1.009055	-0.023964	0.571474
H148	H	1.509055	0.476036	1.071474
H149	H	0.433169	-0.001846	-0.071320
H150	H	0.933169	0.498154	0.428680
H151	H	1.092450	0.011128	0.671535
H152	H	1.592450	0.511128	1.171535
H153	H	0.885837	0.217643	0.671566
H154	H	1.385837	0.717643	1.171566
H155	H	1.103038	-0.327622	-0.076099
H156	H	1.603038	0.172378	0.423901
Cl157	Cl	0.964415	0.286510	0.411043
Cl158	Cl	1.464415	0.786510	0.911043
Cl159	Cl	1.117633	-0.014084	0.345851
Cl160	Cl	1.617633	0.485916	0.845851
Cl161	Cl	0.839675	-0.452546	0.078180
Cl162	Cl	1.339675	0.047454	0.578180
H163	H	1.100653	-0.471826	0.074768
H164	H	1.600653	0.028174	0.574768
H165	H	1.005429	-0.460446	-0.125018
H166	H	1.505429	0.039554	0.374982
H167	H	1.092401	0.011121	0.185446
H168	H	1.592401	0.511121	0.685446
H169	H	1.002324	-0.315711	-0.124664
H170	H	1.502324	0.184289	0.375336
H171	H	0.885803	0.217631	0.328439
H172	H	1.385803	0.717631	0.828439
H173	H	0.862258	-0.296823	-0.051259
H174	H	1.362258	0.203177	0.448741
H175	H	0.969218	0.252738	0.571450
H176	H	1.469218	0.752738	1.071450
H177	H	0.432441	0.000308	0.074773
H178	H	0.932441	0.500308	0.574773
Cl179	Cl	0.574733	0.119209	0.153611
Cl180	Cl	1.074733	0.619209	0.653611
Cl181	Cl	0.860559	0.242833	0.168027
Cl182	Cl	1.360559	0.742833	0.668027
H183	H	0.418845	0.095475	-0.125019
H184	H	0.918845	0.595475	0.374981
