data_functionalizedCrystal
_audit_creation_method	'MofGen! by Chris Wilmer'
_symmetry_space_group_name_H-M	'P1'
_symmetry_Int_Tables_number	1
_symmetry_cell_setting	triclinic
loop_
_symmetry_equiv_pos_as_xyz
  x,y,z
_cell_length_a	17.699083
_cell_length_b	16.176319
_cell_length_c	17.699092
_cell_angle_alpha	90.005121
_cell_angle_beta	96.715309
_cell_angle_gamma	89.998611
loop_
_atom_site_label
_atom_site_type_symbol
_atom_site_fract_x
_atom_site_fract_y
_atom_site_fract_z
O1	O	-1.004082	0.068628	0.095713
O2	O	-0.504082	0.568628	0.595713
O3	O	-0.783704	0.068654	0.108165
O4	O	-0.283704	0.568654	0.608165
O5	O	-0.900116	0.068638	-0.008250
O6	O	-0.400116	0.568638	0.491750
O7	O	-0.887670	0.068644	0.212128
O8	O	-0.387670	0.568644	0.712128
O9	O	-0.900100	-0.068855	-0.008257
O10	O	-0.400100	0.431145	0.491743
O11	O	-0.783688	-0.068839	0.108158
O12	O	-0.283688	0.431161	0.608158
O13	O	-1.004066	-0.068866	0.095705
O14	O	-0.504066	0.431134	0.595705
Cu15	Cu	-0.893875	-0.081406	0.101931
Cu16	Cu	-0.393875	0.418594	0.601931
Cu17	Cu	-0.893894	0.081195	0.101940
Cu18	Cu	-0.393894	0.581195	0.601940
O19	O	-0.887654	-0.068850	0.212120
O20	O	-0.387654	0.431150	0.712120
C21	C	-0.755499	-0.000089	0.107715
C22	C	-0.255499	0.499911	0.607715
C23	C	-0.671480	-0.000079	0.106377
C24	C	-0.171480	0.499921	0.606377
N25	N	-0.893867	-0.195772	0.101924
N26	N	-0.393867	0.304228	0.601924
C27	C	-0.899661	-0.000107	-0.036450
C28	C	-0.399661	0.499893	0.463550
C29	C	-0.898319	-0.000103	-0.120468
C30	C	-0.398319	0.499897	0.379532
C31	C	-1.032271	-0.000121	0.096155
C32	C	-0.532271	0.499879	0.596155
C33	C	-1.116289	-0.000125	0.097494
C34	C	-0.616289	0.499875	0.597494
C35	C	-0.622862	-0.000077	0.174710
C36	C	-0.122862	0.499923	0.674710
C37	C	-0.543918	-0.000088	0.173448
C38	C	-0.043918	0.499912	0.673448
C39	C	-0.513595	-0.000094	0.103851
C40	C	-0.013595	0.499906	0.603851
C41	C	-0.562220	-0.000098	0.035513
C42	C	-0.062220	0.499902	0.535513
C43	C	-0.641162	-0.000093	0.036776
C44	C	-0.141162	0.499907	0.536776
C45	C	-0.243857	-0.000119	0.030418
C46	C	0.256143	0.499881	0.530418
C47	C	-0.164909	-0.000121	0.029160
C48	C	0.335091	0.499879	0.529160
C49	C	-0.146613	-0.000113	0.167089
C50	C	0.353387	0.499887	0.667089
C51	C	-0.225555	-0.000109	0.168352
C52	C	0.274445	0.499891	0.668352
C53	C	-0.274173	-0.000117	0.100014
C54	C	0.225827	0.499883	0.600014
C55	C	-0.359772	-0.000107	0.101384
C56	C	0.140228	0.499893	0.601384
C57	C	-0.427998	-0.000098	0.102481
C58	C	0.072002	0.499902	0.602481
C59	C	-0.945430	-0.239043	0.050397
C60	C	-0.445430	0.260957	0.550397
C61	C	-0.945434	-0.325590	0.050396
C62	C	-0.445434	0.174410	0.550396
C63	C	-0.893878	-0.368864	0.101927
C64	C	-0.393878	0.131136	0.601927
C65	C	-0.842310	-0.325587	0.153457
C66	C	-0.342310	0.174413	0.653457
C67	C	-0.842303	-0.239041	0.153453
C68	C	-0.342303	0.260959	0.653453
C69	C	-0.842336	-0.674615	0.153471
C70	C	-0.342336	-0.174615	0.653471
C71	C	-0.842348	-0.761167	0.153472
C72	C	-0.342348	-0.261167	0.653472
C73	C	-0.945467	-0.761164	0.050414
C74	C	-0.445467	-0.261164	0.550414
C75	C	-0.945460	-0.674618	0.050410
C76	C	-0.445460	-0.174618	0.550410
C77	C	-0.893889	-0.631349	0.101937
C78	C	-0.393889	-0.131349	0.601937
C79	C	-0.893885	-0.537504	0.101936
C80	C	-0.393885	-0.037504	0.601936
C81	C	-0.893886	-0.462707	0.101932
C82	C	-0.393886	0.037293	0.601932
N83	N	-0.893908	0.195560	0.101940
N84	N	-0.393908	0.695560	0.601940
C85	C	-0.897700	0.074846	-0.159932
C86	C	-0.397700	0.574846	0.340068
C87	C	-0.896435	0.074847	-0.238875
C88	C	-0.396435	0.574847	0.261125
C89	C	-0.895795	-0.000102	-0.278353
C90	C	-0.395795	0.499898	0.221647
C91	C	-0.896412	-0.075056	-0.238884
C92	C	-0.396412	0.424944	0.261116
C93	C	-0.897672	-0.075056	-0.159942
C94	C	-0.397672	0.424944	0.340058
C95	C	-0.891332	-0.075057	-0.557249
C96	C	-0.391332	0.424943	-0.057249
C97	C	-0.890075	-0.075050	-0.636197
C98	C	-0.390075	0.424950	-0.136197
C99	C	-0.890095	0.074846	-0.636182
C100	C	-0.390095	0.574846	-0.136182
C101	C	-0.891355	0.074846	-0.557240
C102	C	-0.391355	0.574846	-0.057240
C103	C	-0.891968	-0.000108	-0.517777
C104	C	-0.391968	0.499892	-0.017777
C105	C	-0.893338	-0.000108	-0.432178
C106	C	-0.393338	0.499892	0.067822
C107	C	-0.894430	-0.000102	-0.363952
C108	C	-0.394430	0.499898	0.136048
C109	C	-0.888109	-0.000103	0.240321
C110	C	-0.388109	0.499897	0.740321
C111	C	-0.889450	-0.000101	0.324339
C112	C	-0.389450	0.499899	0.824339
H113	H	-0.504335	-0.000086	0.229091
H114	H	-0.004335	0.499914	0.729091
H115	H	-0.107018	-0.000111	0.222733
H116	H	0.392982	0.499889	0.722733
H117	H	-0.895934	0.135877	-0.271003
H118	H	-0.395934	0.635877	0.228997
O119	O	-0.132203	-0.000144	-0.045910
O120	O	0.367797	0.499856	0.454090
H121	H	-0.151745	0.055886	-0.078748
H122	H	0.348255	0.555886	0.421252
H123	H	-0.987420	-0.360821	0.008438
H124	H	-0.487420	0.139179	0.508438
H125	H	-0.898166	-0.136087	-0.127810
H126	H	-0.398166	0.363913	0.372190
H127	H	-0.283433	-0.000126	-0.025227
H128	H	0.216567	0.499874	0.474773
H129	H	-0.891879	0.135877	-0.525100
H130	H	-0.391879	0.635877	-0.025100
H131	H	-0.889592	0.135877	-0.668321
H132	H	-0.389592	0.635877	-0.168321
H133	H	-0.647544	-0.000072	0.231383
H134	H	-0.147544	0.499928	0.731383
H135	H	-0.537525	-0.000115	-0.021154
H136	H	-0.037525	0.499885	0.478846
O137	O	-0.693607	-0.000092	-0.036925
O138	O	-0.193607	0.499908	0.463075
H139	H	-0.659261	-0.000090	-0.085533
H140	H	-0.159261	0.499910	0.414467
O141	O	-1.001034	-0.192369	-0.005186
O142	O	-0.501034	0.307631	0.494814
H143	H	-1.036883	-0.237002	-0.041022
H144	H	-0.536883	0.262998	0.458978
O145	O	-1.001090	-0.807829	-0.005170
O146	O	-0.501090	-0.307829	0.494830
H147	H	-0.969310	-0.847262	-0.041925
H148	H	-0.469310	-0.347262	0.458075
O149	O	-0.786720	-0.627956	0.209053
O150	O	-0.286720	-0.127956	0.709053
H151	H	-0.795367	-0.560505	0.200393
H152	H	-0.295367	-0.060505	0.700393
O153	O	-0.889376	-0.155891	-0.678782
O154	O	-0.389376	0.344109	-0.178782
H155	H	-0.890005	-0.208012	-0.638078
H156	H	-0.390005	0.291988	-0.138078
O157	O	-1.001061	-0.627941	-0.005173
O158	O	-0.501061	-0.127941	0.494827
H159	H	-1.036912	-0.672572	-0.041011
H160	H	-0.536912	-0.172572	0.458989
O161	O	-0.786751	-0.807847	0.209065
O162	O	-0.286751	-0.307847	0.709065
H163	H	-0.750889	-0.763220	0.244896
H164	H	-0.250889	-0.263220	0.744896
O165	O	-0.786704	-0.372255	0.209042
O166	O	-0.286704	0.127745	0.709042
H167	H	-0.795376	-0.439706	0.200396
H168	H	-0.295376	0.060294	0.700396
O169	O	-0.786693	-0.192364	0.209032
O170	O	-0.286693	0.307636	0.709032
H171	H	-0.750849	-0.236993	0.244872
H172	H	-0.250849	0.263007	0.744872
H173	H	-0.250239	-0.000100	0.225025
H174	H	0.249761	0.499900	0.725025
H175	H	-0.898225	0.135877	-0.127794
H176	H	-0.398225	0.635877	0.372206
H177	H	-0.891847	-0.136089	-0.525130
H178	H	-0.391847	0.363911	-0.025130
H179	H	-0.895887	-0.136080	-0.271033
H180	H	-0.395887	0.363920	0.228967
