data_functionalizedCrystal
_audit_creation_method	'MofGen! by Chris Wilmer'
_symmetry_space_group_name_H-M	'P1'
_symmetry_Int_Tables_number	1
_symmetry_cell_setting	triclinic
loop_
_symmetry_equiv_pos_as_xyz
  x,y,z
_cell_length_a	14.971486
_cell_length_b	19.288865
_cell_length_c	14.048226
_cell_angle_alpha	89.988335
_cell_angle_beta	89.998499
_cell_angle_gamma	83.375189
loop_
_atom_site_label
_atom_site_type_symbol
_atom_site_fract_x
_atom_site_fract_y
_atom_site_fract_z
O1	O	1.186458	0.090517	-0.079062
O2	O	1.519791	0.423851	0.254271
O3	O	1.853124	0.757184	0.587604
O4	O	0.925999	0.101357	-0.079090
O5	O	1.259332	0.434690	0.254244
O6	O	1.592666	0.768024	0.587577
O7	O	1.063754	-0.005169	-0.079056
O8	O	1.397088	0.328165	0.254277
O9	O	1.730421	0.661498	0.587610
O10	O	1.048702	0.197043	-0.079096
O11	O	1.382036	0.530376	0.254238
O12	O	1.715369	0.863710	0.587571
O13	O	1.063738	-0.005175	0.079265
O14	O	1.397071	0.328158	0.412598
O15	O	1.730404	0.661492	0.745931
O16	O	0.925982	0.101351	0.079232
O17	O	1.259316	0.434684	0.412565
O18	O	1.592649	0.768017	0.745898
O19	O	1.186441	0.090511	0.079259
O20	O	1.519774	0.423844	0.412592
O21	O	1.853108	0.757178	0.745926
Zn22	Zn	1.056209	0.095930	0.104382
Zn23	Zn	1.389542	0.429263	0.437715
Zn24	Zn	1.722876	0.762596	0.771049
Zn25	Zn	1.056231	0.095938	-0.104213
Zn26	Zn	1.389564	0.429271	0.229120
Zn27	Zn	1.722898	0.762605	0.562454
O28	O	1.048686	0.197037	0.079226
O29	O	1.382019	0.530370	0.412559
O30	O	1.715352	0.863703	0.745892
C31	C	0.892669	0.100869	0.000068
C32	C	1.226002	0.434202	0.333401
C33	C	1.559335	0.767536	0.666734
C34	C	0.793379	0.099416	0.000058
C35	C	1.126713	0.432750	0.333391
C36	C	1.460046	0.766083	0.666725
C37	C	1.063262	-0.031050	0.000107
C38	C	1.396595	0.302283	0.333440
C39	C	1.729928	0.635617	0.666774
C40	C	1.061808	-0.108158	0.000115
C41	C	1.395141	0.225175	0.333449
C42	C	1.728475	0.558508	0.666782
C43	C	0.735816	0.161997	0.000047
C44	C	1.069149	0.495330	0.333381
C45	C	1.402482	0.828664	0.666714
C46	C	0.642524	0.160628	0.000062
C47	C	0.975857	0.493961	0.333395
C48	C	1.309190	0.827295	0.666728
C49	C	0.606797	0.096677	0.000080
C50	C	0.940130	0.430011	0.333414
C51	C	1.273464	0.763344	0.666747
C52	C	0.664368	0.034092	0.000094
C53	C	0.997701	0.367425	0.333427
C54	C	1.331035	0.700758	0.666761
C55	C	0.757658	0.035461	0.000086
C56	C	1.090992	0.368795	0.333420
C57	C	1.424325	0.702128	0.666753
C58	C	0.469921	0.031241	0.000108
C59	C	0.803254	0.364574	0.333441
C60	C	1.136588	0.697908	0.666774
C61	C	0.376624	0.029871	0.000113
C62	C	0.709958	0.363204	0.333447
C63	C	1.043291	0.696537	0.666780
C64	C	0.354786	0.156407	0.000083
C65	C	0.688120	0.489741	0.333416
C66	C	1.021453	0.823074	0.666750
C67	C	0.448077	0.157777	0.000075
C68	C	0.781410	0.491111	0.333409
C69	C	1.114743	0.824444	0.666742
C70	C	0.505641	0.095191	0.000087
C71	C	0.838974	0.428525	0.333421
C72	C	1.172308	0.761858	0.666754
C73	C	1.142636	-0.152591	0.000128
C74	C	1.475970	0.180742	0.333462
C75	C	1.809303	0.514076	0.666795
C76	C	1.141271	-0.225043	0.000113
C77	C	1.474604	0.108291	0.333446
C78	C	1.807937	0.441624	0.666780
C79	C	1.059071	-0.253058	0.000104
C80	C	1.392405	0.080275	0.333437
C81	C	1.725738	0.413609	0.666771
C82	C	0.978232	-0.208615	0.000085
C83	C	1.311566	0.124718	0.333419
C84	C	1.644899	0.458051	0.666752
C85	C	0.979600	-0.136166	0.000091
C86	C	1.312934	0.197168	0.333424
C87	C	1.646267	0.530501	0.666758
C88	C	0.994448	-0.361558	0.055554
C89	C	1.327781	-0.028225	0.388887
C90	C	1.661114	0.305108	0.722220
C91	C	0.993083	-0.434007	0.055554
C92	C	1.326416	-0.100674	0.388887
C93	C	1.659749	0.232659	0.722221
C94	C	1.054848	-0.476517	0.000082
C95	C	1.388181	-0.143184	0.333415
C96	C	1.721515	0.190149	0.666749
C97	C	1.117994	-0.446571	-0.055378
C98	C	1.451327	-0.113238	0.277956
C99	C	1.784660	0.220095	0.611289
C100	C	1.119362	-0.374121	-0.055372
C101	C	1.452695	-0.040788	0.277961
C102	C	1.786028	0.292545	0.611295
C103	C	1.057579	-0.331617	0.000097
C104	C	1.390912	0.001716	0.333430
C105	C	1.724245	0.335050	0.666764
C106	C	1.134201	-0.599511	0.000077
C107	C	1.467535	-0.266178	0.333411
C108	C	1.800868	0.067156	0.666744
C109	C	1.132832	-0.671963	0.000056
C110	C	1.466165	-0.338630	0.333390
C111	C	1.799499	-0.005297	0.666723
C112	C	0.969791	-0.655535	0.000038
C113	C	1.303125	-0.322201	0.333372
C114	C	1.636458	0.011132	0.666705
C115	C	0.971163	-0.583084	0.000050
C116	C	1.304496	-0.249751	0.333383
C117	C	1.637830	0.083583	0.666716
C118	C	1.053370	-0.555077	0.000074
C119	C	1.386704	-0.221743	0.333407
C120	C	1.720037	0.111590	0.666741
C121	C	1.219771	0.090999	0.000099
C122	C	1.553105	0.424332	0.333433
C123	C	1.886438	0.757666	0.666766
C124	C	1.319061	0.092452	0.000103
C125	C	1.652394	0.425785	0.333436
C126	C	1.985727	0.759118	0.666769
C127	C	1.049178	0.222918	0.000060
C128	C	1.382512	0.556251	0.333393
C129	C	1.715845	0.889584	0.666727
C130	C	1.050632	0.300026	0.000046
C131	C	1.383966	0.633359	0.333379
C132	C	1.717299	0.966693	0.666712
N133	N	1.056201	0.095924	0.246743
N134	N	1.389534	0.429257	0.580076
N135	N	1.722868	0.762590	0.913409
N136	N	1.056246	0.095939	-0.246574
N137	N	1.389580	0.429272	0.086760
N138	N	1.722913	0.762605	0.420093
C139	C	1.117218	0.048774	0.296576
C140	C	1.450551	0.382107	0.629909
C141	C	1.783885	0.715440	0.963242
C142	C	1.117224	0.048773	0.396233
C143	C	1.450557	0.382107	0.729567
C144	C	1.783891	0.715440	1.062900
C145	C	1.056217	0.095927	0.446056
C146	C	1.389550	0.429260	0.779390
C147	C	1.722883	0.762593	1.112723
C148	C	0.995193	0.143079	0.396217
C149	C	1.328526	0.476412	0.729550
C150	C	1.661860	0.809746	1.062883
C151	C	0.995183	0.143076	0.296561
C152	C	1.328517	0.476409	0.629894
C153	C	1.661850	0.809742	0.963227
C154	C	0.995219	0.143084	0.603931
C155	C	1.328552	0.476417	0.937264
C156	C	1.661885	0.809751	1.270597
C157	C	0.995229	0.143089	0.703593
C158	C	1.328563	0.476422	1.036927
C159	C	1.661896	0.809755	1.370260
C160	C	1.117259	0.048782	0.703603
C161	C	1.450593	0.382115	1.036937
C162	C	1.783926	0.715448	1.370270
C163	C	1.117250	0.048778	0.603947
C164	C	1.450583	0.382112	0.937281
C165	C	1.783916	0.715445	1.270614
C166	C	1.056227	0.095932	0.554115
C167	C	1.389560	0.429265	0.887448
C168	C	1.722894	0.762598	1.220781
H169	H	0.764896	0.214073	0.000032
H170	H	1.098230	0.547407	0.333365
H171	H	1.431563	0.880740	0.666698
H172	H	0.945524	0.181479	0.563360
H173	H	1.278858	0.514813	0.896693
H174	H	1.612191	0.848146	1.230027
H175	H	0.347539	-0.022204	0.000130
H176	H	0.680873	0.311130	0.333463
H177	H	1.014206	0.644463	0.666796
F178	F	1.227303	-0.272340	0.000126
F179	F	1.560636	0.060993	0.333459
F180	F	1.893969	0.394327	0.666792
H181	H	1.198655	-0.708141	0.000062
H182	H	1.531989	-0.374807	0.333395
H183	H	1.865322	-0.041474	0.666728
F184	F	0.882308	-0.685346	0.000024
F185	F	1.215641	-0.352013	0.333357
F186	F	1.548975	-0.018679	0.666690
H187	H	0.804527	-0.015498	0.000094
H188	H	1.137860	0.317835	0.333428
H189	H	1.471193	0.651168	0.666761
H190	H	0.945496	0.181469	0.255988
H191	H	1.278829	0.514802	0.589321
H192	H	1.612163	0.848136	0.922654
F193	F	0.885133	-0.535793	0.000040
F194	F	1.218466	-0.202460	0.333373
F195	F	1.551800	0.130874	0.666706
H196	H	0.945515	0.181470	0.436788
H197	H	1.278848	0.514803	0.770122
H198	H	1.612182	0.848137	1.103455
H199	H	1.166901	0.010379	0.256016
H200	H	1.500234	0.343712	0.589350
H201	H	1.833568	0.677045	0.922683
H202	H	0.635272	-0.017978	0.000123
H203	H	0.968606	0.315355	0.333456
H204	H	1.301939	0.648688	0.666789
F205	F	0.581263	0.227235	0.000046
F206	F	0.914597	0.560569	0.333379
F207	F	1.247930	0.893902	0.666713
H208	H	0.477162	0.209852	0.000051
H209	H	0.810495	0.543185	0.333385
H210	H	1.143828	0.876518	0.666718
F211	F	1.182164	-0.001410	0.449269
F212	F	1.515497	0.331924	0.782603
F213	F	1.848831	0.665257	1.115936
H214	H	0.307912	0.207367	0.000078
H215	H	0.641246	0.540701	0.333411
H216	H	0.974579	0.874034	0.666744
H217	H	1.166931	0.010386	0.563382
H218	H	1.500264	0.343719	0.896715
H219	H	1.833597	0.677053	1.230048
H220	H	1.166946	0.010388	0.744183
H221	H	1.500279	0.343721	1.077516
H222	H	1.833612	0.677055	1.410850
H223	H	0.945550	0.181485	0.744154
H224	H	1.278883	0.514819	1.077488
H225	H	1.612216	0.848152	1.410821
F226	F	0.890750	-0.238432	0.000069
F227	F	1.224083	0.094901	0.333403
F228	F	1.557417	0.428234	0.666736
H229	H	0.516788	-0.019723	0.000119
H230	H	0.850122	0.313610	0.333452
H231	H	1.183455	0.646943	0.666785
F232	F	1.230129	-0.122788	0.000133
F233	F	1.563463	0.210546	0.333467
F234	F	1.896796	0.543879	0.666800
F235	F	1.186560	-0.342252	-0.114399
F236	F	1.519893	-0.008919	0.218935
F237	F	1.853226	0.324414	0.552268
F238	F	0.893568	-0.088875	0.000077
F239	F	1.226901	0.244458	0.333410
F240	F	1.560234	0.577792	0.666743
H241	H	1.168289	-0.481182	-0.100548
H242	H	1.501622	-0.147849	0.232785
H243	H	1.834955	0.185485	0.566118
H244	H	0.944148	-0.326952	0.100731
H245	H	1.277482	0.006382	0.434064
H246	H	1.610815	0.339715	0.767397
H247	H	0.941662	-0.458383	0.100707
H248	H	1.274996	-0.125050	0.434040
H249	H	1.608329	0.208284	0.767374
F250	F	1.221692	-0.569701	0.000108
F251	F	1.555026	-0.236368	0.333441
F252	F	1.888359	0.096966	0.666774
