data_functionalizedCrystal
_audit_creation_method	'MofGen! by Chris Wilmer'
_symmetry_space_group_name_H-M	'P1'
_symmetry_Int_Tables_number	1
_symmetry_cell_setting	triclinic
loop_
_symmetry_equiv_pos_as_xyz
  x,y,z
_cell_length_a	19.121424
_cell_length_b	19.120786
_cell_length_c	19.120904
_cell_angle_alpha	90.133503
_cell_angle_beta	85.252687
_cell_angle_gamma	95.008527
loop_
_atom_site_label
_atom_site_type_symbol
_atom_site_fract_x
_atom_site_fract_y
_atom_site_fract_z
Zn1	Zn	1.048466	-0.249461	0.341888
Zn2	Zn	1.048812	-0.361690	0.219633
Zn3	Zn	0.935827	-0.249485	0.229241
Zn4	Zn	0.925753	-0.372120	0.341828
O5	O	0.989714	-0.308189	0.283148
O6	O	1.147152	-0.259973	0.321675
O7	O	1.038184	-0.342450	0.122626
O8	O	0.954840	-0.151190	0.248231
O9	O	1.147406	-0.342427	0.231855
O10	O	1.037595	-0.151173	0.330991
O11	O	0.955175	-0.260014	0.129685
O12	O	0.835850	-0.270127	0.248172
O13	O	0.937670	-0.360204	0.440118
O14	O	0.828449	-0.360227	0.330889
O15	O	1.027827	-0.270087	0.440162
O16	O	1.028416	-0.461365	0.231796
O17	O	0.938006	-0.469028	0.321572
C18	C	0.806573	-0.316312	0.290567
C19	C	0.728223	-0.319805	0.293757
C20	C	0.284897	-0.341896	0.314012
C21	C	0.358516	-0.338619	0.311002
C22	C	0.399155	-0.290001	0.266508
C23	C	0.366172	-0.244663	0.225016
C24	C	0.292555	-0.247944	0.228024
C25	C	0.621623	-0.277748	0.255273
C26	C	0.695245	-0.274468	0.252270
C27	C	0.687583	-0.368426	0.338255
C28	C	0.613965	-0.371700	0.341262
C29	C	0.580989	-0.326364	0.299768
C30	C	0.474405	-0.286649	0.263431
C31	C	0.505740	-0.329720	0.302841
C32	C	0.982174	-0.490682	0.275650
C33	C	0.979011	-0.568752	0.272463
C34	C	1.020577	-0.605362	0.314093
C35	C	1.017602	-0.678717	0.311100
C36	C	0.973066	-0.715460	0.266473
C37	C	0.931496	-0.678844	0.224841
C38	C	0.934467	-0.605490	0.227838
C39	C	0.961938	-0.936942	0.255269
C40	C	0.958971	-1.010300	0.252273
C41	C	1.045077	-1.010169	0.338533
C42	C	1.048048	-0.936814	0.341523
C43	C	1.006475	-0.900205	0.299895
C44	C	0.970026	-0.790440	0.263411
C45	C	1.009511	-0.825226	0.302961
C46	C	1.173571	-0.300034	0.275700
C47	C	1.251919	-0.296559	0.272526
C48	C	0.981587	-0.316307	0.466336
C49	C	0.978123	-0.319766	0.544399
C50	C	0.997303	-0.124983	0.290689
C51	C	1.000537	-0.046911	0.293903
C52	C	0.997853	-0.300050	0.100673
C53	C	1.001461	-0.296387	0.022612
C54	C	1.023433	-0.274474	0.581098
C55	C	1.020170	-0.277722	0.654448
C56	C	0.971600	-0.326266	0.691097
C57	C	0.926285	-0.371560	0.654394
C58	C	0.929545	-0.368308	0.581045
C59	C	0.959406	-0.338429	0.912560
C60	C	0.956151	-0.341679	0.985913
C61	C	1.050036	-0.247840	0.985963
C62	C	1.053294	-0.244595	0.912613
C63	C	1.007977	-0.289886	0.875916
C64	C	0.968266	-0.329589	0.766072
C65	C	1.011309	-0.286560	0.800942
H66	H	0.472648	-0.369306	0.339066
Br67	Br	1.069946	-0.775362	0.363530
H68	H	0.916597	-0.381211	1.015751
H69	H	0.895230	-0.708765	0.188508
Br70	Br	0.897902	-0.399895	0.862766
H71	H	0.900619	-0.575683	0.193940
Br72	Br	1.108493	-0.886955	0.402090
H73	H	0.928723	-0.369116	0.795920
Br74	Br	0.732341	-0.429955	0.394559
H75	H	0.892642	-0.405182	0.551167
H76	H	0.886736	-0.411083	0.684239
Br77	Br	0.750399	-0.208484	0.191880
H78	H	0.594783	-0.240834	0.221483
Br79	Br	0.421325	-0.178685	0.164627
Br80	Br	0.529564	-0.220667	0.203050
Br81	Br	1.101492	-1.059857	0.395028
Br82	Br	1.077214	-0.220672	0.751204
Br83	Br	1.119215	-0.178714	0.862879
H84	H	0.580881	-0.411291	0.377492
Br85	Br	0.898530	-1.060165	0.191699
Br86	Br	0.247798	-0.186419	0.171712
H87	H	1.056846	-0.575451	0.350430
H88	H	0.251813	-0.381482	0.350248
H89	H	1.057069	-0.240842	0.684325
Br90	Br	0.909578	-0.840311	0.202854
H91	H	1.051455	-0.708522	0.344994
H92	H	0.928089	-0.907141	0.221372
Br93	Br	1.111533	-0.186376	1.035769
Br94	Br	0.403269	-0.400153	0.367304
Br95	Br	1.089358	-0.208595	0.531366
