data_functionalizedCrystal
_audit_creation_method	'MofGen! by Chris Wilmer'
_symmetry_space_group_name_H-M	'P1'
_symmetry_Int_Tables_number	1
_symmetry_cell_setting	triclinic
loop_
_symmetry_equiv_pos_as_xyz
  x,y,z
_cell_length_a	6.817900
_cell_length_b	12.200863
_cell_length_c	14.125286
_cell_angle_alpha	95.007101
_cell_angle_beta	100.396688
_cell_angle_gamma	107.143441
loop_
_atom_site_label
_atom_site_type_symbol
_atom_site_fract_x
_atom_site_fract_y
_atom_site_fract_z
V1	V	-4.009747	-0.157826	-0.300088
V2	V	-3.759747	0.092174	-0.050088
V3	V	-3.509747	0.342174	0.199912
V4	V	-3.259747	0.592174	0.449912
O5	O	-3.978538	0.008496	-0.294275
O6	O	-3.728538	0.258496	-0.044275
O7	O	-3.478538	0.508496	0.205725
O8	O	-3.228538	0.758496	0.455725
O9	O	-3.979698	-0.313820	-0.298132
O10	O	-3.729698	-0.063820	-0.048132
O11	O	-3.479698	0.186180	0.201868
O12	O	-3.229698	0.436180	0.451868
O13	O	-3.945568	-0.154999	-0.430922
O14	O	-3.695568	0.095001	-0.180922
O15	O	-3.445568	0.345001	0.069078
O16	O	-3.195568	0.595001	0.319078
O17	O	-4.012904	-0.151425	-0.160565
O18	O	-3.762904	0.098575	0.089435
O19	O	-3.512904	0.348575	0.339435
O20	O	-3.262904	0.598575	0.589435
V21	V	-4.493041	-0.137980	-0.283388
V22	V	-4.243041	0.112020	-0.033388
V23	V	-3.993041	0.362020	0.216612
V24	V	-3.743041	0.612020	0.466612
O25	O	-4.271506	-0.201362	-0.336720
O26	O	-4.021506	0.048638	-0.086720
O27	O	-3.771506	0.298638	0.163280
O28	O	-3.521506	0.548638	0.413280
O29	O	-4.681479	-0.094444	-0.246756
O30	O	-4.431479	0.155556	0.003244
O31	O	-4.181479	0.405556	0.253244
O32	O	-3.931479	0.655556	0.503244
O33	O	-4.299884	0.018014	-0.285344
O34	O	-4.049884	0.268014	-0.035344
O35	O	-3.799884	0.518014	0.214656
O36	O	-3.549884	0.768014	0.464656
O37	O	-4.641647	-0.304302	-0.289201
O38	O	-4.391647	-0.054302	-0.039201
O39	O	-4.141647	0.195698	0.210799
O40	O	-3.891647	0.445698	0.460799
O41	O	-4.607281	-0.144381	-0.422910
O42	O	-4.357281	0.105619	-0.172910
O43	O	-4.107281	0.355619	0.077090
O44	O	-3.857281	0.605619	0.327090
O45	O	-4.334013	-0.140807	-0.152554
O46	O	-4.084013	0.109193	0.097446
O47	O	-3.834013	0.359193	0.347446
O48	O	-3.584013	0.609193	0.597446
C49	C	-3.829673	-0.351860	-0.293423
C50	C	-3.579673	-0.101860	-0.043423
C51	C	-3.329673	0.148140	0.206577
C52	C	-3.079673	0.398140	0.456577
C53	C	-3.886286	-0.479384	-0.292696
C54	C	-3.636286	-0.229384	-0.042696
C55	C	-3.386286	0.020616	0.207304
C56	C	-3.136286	0.270616	0.457304
C57	C	-3.989898	-0.712865	-0.291373
C58	C	-3.739898	-0.462865	-0.041373
C59	C	-3.489898	-0.212865	0.208627
C60	C	-3.239898	0.037135	0.458627
C61	C	-3.932233	-0.582940	-0.292109
C62	C	-3.682233	-0.332940	-0.042109
C63	C	-3.432233	-0.082940	0.207891
C64	C	-3.182233	0.167060	0.457891
C65	C	-3.786137	-0.149267	-0.462809
C66	C	-3.536137	0.100733	-0.212809
C67	C	-3.286137	0.350733	0.037191
C68	C	-3.036137	0.600733	0.287191
C69	C	-3.815069	-0.147987	-0.569767
C70	C	-3.565069	0.102013	-0.319767
C71	C	-3.315069	0.352013	-0.069767
C72	C	-3.065069	0.602013	0.180233
C73	C	-4.054112	-0.150312	-0.817891
C74	C	-3.804112	0.099688	-0.567891
C75	C	-3.554112	0.349688	-0.317891
C76	C	-3.304112	0.599688	-0.067891
C77	C	-3.868057	-0.145492	-0.765573
C78	C	-3.618057	0.104508	-0.515573
C79	C	-3.368057	0.354508	-0.265573
C80	C	-3.118057	0.604508	-0.015573
C81	C	-3.838575	-0.146880	-0.656617
C82	C	-3.588575	0.103120	-0.406617
C83	C	-3.338575	0.353120	-0.156617
C84	C	-3.088575	0.603120	0.093383
C85	C	-4.083601	-0.148924	-0.926857
C86	C	-3.833601	0.101076	-0.676857
C87	C	-3.583601	0.351076	-0.426857
C88	C	-3.333601	0.601076	-0.176857
C89	C	-4.113251	0.056048	-0.290050
C90	C	-3.863251	0.306048	-0.040050
C91	C	-3.613251	0.556048	0.209950
C92	C	-3.363251	0.806048	0.459950
C93	C	-4.035876	0.183571	-0.290783
C94	C	-3.785876	0.433571	-0.040783
C95	C	-3.535876	0.683571	0.209217
C96	C	-3.285876	0.933571	0.459217
C97	C	-4.156788	-0.146543	-0.120662
C98	C	-3.906788	0.103457	0.129338
C99	C	-3.656788	0.353457	0.379338
C100	C	-3.406788	0.603457	0.629338
C101	C	-4.107094	-0.147817	-0.013702
C102	C	-3.857094	0.102183	0.236298
C103	C	-3.607094	0.352183	0.486298
C104	C	-3.357094	0.602183	0.736298
H105	H	-4.191245	-0.155481	-0.780854
H106	H	-3.941245	0.094519	-0.530854
H107	H	-3.691245	0.344519	-0.280854
H108	H	-3.441245	0.594519	-0.030854
H109	H	-3.730911	-0.140321	-0.802611
H110	H	-3.480911	0.109679	-0.552611
H111	H	-3.230911	0.359679	-0.302611
H112	H	-2.980911	0.609679	-0.052611
