data_functionalizedCrystal
_audit_creation_method	'MofGen! by Chris Wilmer'
_symmetry_space_group_name_H-M	'P1'
_symmetry_Int_Tables_number	1
_symmetry_cell_setting	triclinic
loop_
_symmetry_equiv_pos_as_xyz
  x,y,z
_cell_length_a	14.853566
_cell_length_b	10.489741
_cell_length_c	13.330367
_cell_angle_alpha	89.995673
_cell_angle_beta	89.995295
_cell_angle_gamma	84.086794
loop_
_atom_site_label
_atom_site_type_symbol
_atom_site_fract_x
_atom_site_fract_y
_atom_site_fract_z
O1	O	1.197303	0.166520	-0.083357
O2	O	0.934955	0.186360	-0.083373
O3	O	1.072099	-0.009225	-0.083358
O4	O	1.060159	0.362105	-0.083371
O5	O	1.072079	-0.009229	0.083489
O6	O	0.934935	0.186355	0.083474
O7	O	1.197283	0.166516	0.083491
Cu8	Cu	1.066107	0.176435	0.098717
Cu9	Cu	1.066131	0.176440	-0.098599
O10	O	1.060139	0.362100	0.083476
C11	C	0.901351	0.185459	0.000048
C12	C	0.801252	0.182766	0.000042
C13	C	0.378014	0.171378	-0.090888
C14	C	0.378014	0.171374	0.091015
C15	C	0.472062	0.173903	0.091012
C16	C	0.519091	0.175171	0.000057
C17	C	0.472071	0.173911	-0.090894
C18	C	0.519088	0.175176	0.181962
C19	C	0.613142	0.177707	0.181962
C20	C	0.660173	0.178966	0.091006
C21	C	0.613147	0.177704	0.000051
C22	C	0.660176	0.178973	-0.090903
C23	C	0.613153	0.177701	-0.181859
C24	C	0.519102	0.175170	-0.181850
C25	C	0.754224	0.181497	0.090997
C26	C	0.754233	0.181505	-0.090909
C27	C	1.071187	-0.056749	0.000064
C28	C	1.068489	-0.198348	0.000062
C29	C	0.981228	-0.265508	0.000050
C30	C	1.022440	-0.358096	0.082316
C31	C	1.022480	-0.358066	-0.082182
C32	C	1.109736	-0.289071	0.082397
C33	C	1.109764	-0.289031	-0.082175
C34	C	1.151039	-0.381592	0.000112
C35	C	1.230887	0.167417	0.000067
C36	C	1.330986	0.170110	0.000066
C37	C	1.061051	0.409624	0.000051
C38	C	1.063749	0.551223	0.000046
N39	N	1.066097	0.176431	0.237498
N40	N	1.066148	0.176435	-0.237381
C41	C	1.005401	0.263011	0.710115
C42	C	1.126885	0.089860	0.710096
C43	C	1.126875	0.089856	0.605077
C44	C	1.066128	0.176432	0.552573
C45	C	1.005390	0.263012	0.605087
C46	C	1.187617	0.003286	0.552556
C47	C	1.187610	0.003279	0.447531
C48	C	1.126858	0.089850	0.395024
C49	C	1.066117	0.176433	0.447545
C50	C	1.005370	0.263010	0.395040
C51	C	0.944625	0.349587	0.447559
C52	C	0.944638	0.349584	0.552580
C53	C	1.126844	0.089854	0.290003
C54	C	1.005360	0.263011	0.290012
H55	H	0.651455	0.178743	-0.255915
H56	H	0.792517	0.182534	-0.164977
H57	H	1.146663	-0.258399	-0.151725
H58	H	1.146618	-0.258655	0.152026
N59	N	0.468387	0.173796	-0.279945
H60	H	0.401670	0.172003	-0.266137
H61	H	0.478032	0.253245	-0.319669
H62	H	0.955940	0.333498	0.752878
N63	N	0.663863	0.179057	0.280055
H64	H	0.696093	0.259110	0.284106
H65	H	0.619749	0.177819	0.337619
N66	N	0.939831	0.356381	0.233385
H67	H	0.901353	0.411220	0.282593
H68	H	0.974700	0.412868	0.189801
N69	N	0.973570	-0.398564	-0.174305
H70	H	0.909429	-0.355903	-0.174230
H71	H	1.005959	-0.372218	-0.236388
N72	N	0.468365	0.173805	0.280055
H73	H	0.490674	0.094348	0.319218
H74	H	0.478946	0.252434	0.320329
N75	N	1.253120	-0.090111	0.390899
H76	H	1.218298	-0.146677	0.347340
H77	H	1.293333	-0.041181	0.347367
H78	H	1.176348	0.019378	0.752848
H79	H	0.339725	0.170338	-0.164942
H80	H	1.176306	0.019370	0.247247
H81	H	0.895167	0.420084	0.404797
H82	H	0.895182	0.420073	0.595347
N83	N	0.327296	0.170020	0.189112
H84	H	0.260439	0.169971	0.175322
H85	H	0.349679	0.090570	0.228238
N86	N	0.804941	0.182882	0.189085
H87	H	0.760876	0.181702	0.246705
H88	H	0.850758	0.104924	0.193055
H89	H	0.909483	-0.215051	0.000128
N90	N	1.246153	-0.448146	0.000166
H91	H	1.290975	-0.381990	0.000786
H92	H	1.255314	-0.504104	0.061728
N93	N	0.973522	-0.398615	0.174441
H94	H	0.919354	-0.443041	0.153455
H95	H	1.015874	-0.459322	0.215617
H96	H	1.237081	-0.067196	0.595308
