data_functionalizedCrystal
_audit_creation_method	'MofGen! by Chris Wilmer'
_symmetry_space_group_name_H-M	'P1'
_symmetry_Int_Tables_number	1
_symmetry_cell_setting	triclinic
loop_
_symmetry_equiv_pos_as_xyz
  x,y,z
_cell_length_a	10.723024
_cell_length_b	10.268362
_cell_length_c	10.723024
_cell_angle_alpha	90.004108
_cell_angle_beta	84.467869
_cell_angle_gamma	90.004272
loop_
_atom_site_label
_atom_site_type_symbol
_atom_site_fract_x
_atom_site_fract_y
_atom_site_fract_z
O1	O	1.657189	0.108288	0.175028
O2	O	2.157189	0.608288	0.675028
O3	O	1.294036	0.108292	0.191782
O4	O	1.794036	0.608292	0.691782
O5	O	1.483989	0.108285	0.001829
O6	O	1.983989	0.608285	0.501829
O7	O	1.467236	0.108295	0.364981
O8	O	1.967236	0.608295	0.864981
O9	O	1.483972	-0.108315	0.001821
O10	O	1.983972	0.391685	0.501821
O11	O	1.294019	-0.108308	0.191774
O12	O	1.794019	0.391692	0.691774
O13	O	1.657172	-0.108312	0.175020
O14	O	2.157172	0.391688	0.675020
Cu15	Cu	1.475594	-0.128088	0.183396
Cu16	Cu	1.975594	0.371912	0.683396
Cu17	Cu	1.475614	0.128068	0.183406
Cu18	Cu	1.975614	0.628068	0.683406
O19	O	1.467219	-0.108305	0.364973
O20	O	1.967219	0.391695	0.864973
C21	C	1.247528	-0.000007	0.190558
C22	C	1.747528	0.499993	0.690558
C23	C	1.108974	-0.000006	0.186911
C24	C	1.608974	0.499994	0.686911
N25	N	1.475589	-0.308254	0.183389
N26	N	1.975589	0.191746	0.683389
C27	C	1.033991	-0.000002	0.293198
C28	C	1.533991	0.499998	0.793198
C29	C	0.890788	-0.000001	0.289431
C30	C	1.390788	0.499999	0.789431
C31	C	1.475608	-0.573924	0.183403
C32	C	1.975608	-0.073924	0.683403
C33	C	1.475593	-0.426086	0.183399
C34	C	1.975593	0.073914	0.683399
C35	C	1.703680	-0.000010	0.176243
C36	C	2.203680	0.499990	0.676243
C37	C	1.842234	-0.000003	0.179891
C38	C	2.342234	0.499997	0.679891
C39	C	1.482762	-0.000013	-0.044675
C40	C	1.982762	0.499987	0.455325
C41	C	1.479114	-0.000009	-0.183229
C42	C	1.979114	0.499991	0.316771
N43	N	1.475628	0.308233	0.183403
N44	N	1.975628	0.808233	0.683403
C45	C	1.585401	-0.000008	-0.258212
C46	C	2.085401	0.499992	0.241788
C47	C	1.581634	-0.000003	-0.401415
C48	C	2.081634	0.499997	0.098585
C49	C	1.468447	-0.000004	0.411477
C50	C	1.968447	0.499996	0.911477
C51	C	1.472094	0.000000	0.550031
C52	C	1.972094	0.500000	1.050031
H53	H	1.075814	-0.000007	0.386984
H54	H	1.575814	0.499993	0.886984
Br55	Br	1.733301	-0.000018	-0.508799
Br56	Br	2.233301	0.499982	-0.008799
H57	H	1.381099	-0.000009	-0.385544
H58	H	1.881099	0.499991	0.114456
Br59	Br	1.322788	0.000012	-0.252921
Br60	Br	1.822788	0.500012	0.247079
H61	H	0.906659	0.000002	0.088896
H62	H	1.406659	0.500002	0.588896
H63	H	0.826355	0.000008	0.380421
H64	H	1.326355	0.500008	0.880421
Br65	Br	1.039282	-0.000025	0.030585
Br66	Br	1.539282	0.499975	0.530585
H67	H	1.679187	-0.000017	-0.216390
H68	H	2.179187	0.499983	0.283610
