data_functionalizedCrystal
_audit_creation_method	'MofGen! by Chris Wilmer'
_symmetry_space_group_name_H-M	'P1'
_symmetry_Int_Tables_number	1
_symmetry_cell_setting	triclinic
loop_
_symmetry_equiv_pos_as_xyz
  x,y,z
_cell_length_a	13.339071
_cell_length_b	11.792241
_cell_length_c	11.804365
_cell_angle_alpha	101.912841
_cell_angle_beta	74.875833
_cell_angle_gamma	99.911347
loop_
_atom_site_label
_atom_site_type_symbol
_atom_site_fract_x
_atom_site_fract_y
_atom_site_fract_z
O1	O	1.365761	0.553464	-0.099052
O2	O	1.070823	0.478651	-0.099049
O3	O	1.225447	0.353093	-0.099043
O4	O	1.211136	0.679022	-0.099059
O5	O	1.184740	0.386101	0.099012
O6	O	1.030116	0.511660	0.099005
O7	O	1.325054	0.586472	0.099002
Cu8	Cu	1.173868	0.552080	0.117087
Cu9	Cu	1.222009	0.513044	-0.117135
O10	O	1.170429	0.712031	0.098995
C11	C	1.012711	0.482518	-0.000022
C12	C	0.900202	0.444849	-0.000020
C13	C	0.858858	0.327383	-0.000010
C14	C	0.753152	0.291987	-0.000015
C15	C	0.688778	0.374055	-0.000020
C16	C	0.730120	0.491526	-0.000022
C17	C	0.835838	0.526924	-0.000027
C18	C	0.665758	0.573596	-0.000036
C19	C	0.707101	0.691067	-0.000038
C20	C	0.812809	0.726459	-0.000042
C21	C	0.877183	0.644390	-0.000037
C22	C	0.560040	0.538198	-0.000031
C23	C	0.537021	0.737739	-0.000048
C24	C	0.642727	0.773135	-0.000043
C25	C	1.204195	0.327029	-0.000016
C26	C	1.201504	0.200186	-0.000017
C27	C	1.196559	-0.032054	-0.000037
C28	C	1.199306	0.097180	-0.000026
C29	C	1.383166	0.582605	-0.000028
C30	C	1.495677	0.620272	-0.000037
C31	C	1.191682	0.738094	-0.000034
C32	C	1.194375	0.864935	-0.000041
N33	N	1.140016	0.579537	0.281826
N34	N	1.255869	0.485579	-0.281874
C35	C	1.337160	0.419622	0.655784
C36	C	1.362768	0.398845	0.531123
C37	C	1.307082	0.444016	0.468793
C38	C	1.225784	0.509968	0.531135
C39	C	1.200179	0.530755	0.655808
C40	C	1.170100	0.555149	0.468817
C41	C	1.088802	0.621101	0.531160
C42	C	1.063201	0.641884	0.655820
C43	C	1.118887	0.596712	0.718151
C44	C	1.195706	0.534362	0.344144
C45	C	1.058724	0.645495	0.344169
C46	C	1.033116	0.666272	0.468829
H47	H	0.602708	0.345228	-0.000023
H48	H	1.327936	0.427096	0.367289
Cl49	Cl	0.961010	0.724811	0.734195
Cl50	Cl	1.010103	0.688863	-0.000159
Cl51	Cl	1.464965	0.315939	0.452753
Cl52	Cl	0.864784	0.874132	-0.000067
H53	H	0.676403	0.868782	-0.000045
Cl54	Cl	0.456102	0.840917	-0.000060
Cl55	Cl	1.297904	0.451453	0.265787
H56	H	1.098035	0.613624	0.819660
Cl57	Cl	1.407166	0.362854	0.734142
H58	H	1.013381	0.682281	0.293420
Cl59	Cl	0.930916	0.749183	0.547215
H60	H	0.719499	0.196342	-0.000015
Cl61	Cl	0.508079	0.390527	-0.000026
Cl62	Cl	0.939789	0.224225	-0.000011
