data_functionalizedCrystal
_audit_creation_method	'MofGen! by Chris Wilmer'
_symmetry_space_group_name_H-M	'P1'
_symmetry_Int_Tables_number	1
_symmetry_cell_setting	triclinic
loop_
_symmetry_equiv_pos_as_xyz
  x,y,z
_cell_length_a	14.971486
_cell_length_b	7.540329
_cell_length_c	14.971486
_cell_angle_alpha	89.996199
_cell_angle_beta	96.385871
_cell_angle_gamma	89.998003
loop_
_atom_site_label
_atom_site_type_symbol
_atom_site_fract_x
_atom_site_fract_y
_atom_site_fract_z
O1	O	1.186943	0.147279	-0.116561
O2	O	1.686943	0.647279	0.383439
O3	O	0.926543	0.147328	-0.130520
O4	O	1.426543	0.647328	0.369480
O5	O	1.063722	0.147290	0.006659
O6	O	1.563722	0.647290	0.506659
O7	O	1.049763	0.147317	-0.253741
O8	O	1.549763	0.647317	0.246259
O9	O	1.063714	-0.147675	0.006661
O10	O	1.563714	0.352325	0.506661
O11	O	0.926535	-0.147637	-0.130519
O12	O	1.426535	0.352363	0.369481
O13	O	1.186935	-0.147686	-0.116560
O14	O	1.686935	0.352314	0.383440
Cu15	Cu	1.056734	-0.174594	-0.123539
Cu16	Cu	1.556734	0.325406	0.376461
Cu17	Cu	1.056744	0.174236	-0.123541
Cu18	Cu	1.556744	0.674236	0.376459
O19	O	1.049755	-0.147648	-0.253739
O20	O	1.549755	0.352352	0.246261
C21	C	0.893214	-0.000149	-0.129895
C22	C	1.393214	0.499851	0.370105
C23	C	0.793917	-0.000131	-0.128024
C24	C	1.293917	0.499869	0.371976
C25	C	0.736692	-0.000124	-0.208614
C26	C	1.236692	0.499876	0.291386
C27	C	0.643392	-0.000151	-0.206850
C28	C	1.143392	0.499849	0.293150
C29	C	0.607320	-0.000171	-0.124497
C30	C	1.107320	0.499829	0.375503
C31	C	0.664552	-0.000183	-0.043902
C32	C	1.164552	0.499817	0.456098
C33	C	0.757850	-0.000169	-0.045666
C34	C	1.257850	0.499831	0.454334
C35	C	0.470090	-0.000207	-0.040231
C36	C	0.970090	0.499793	0.459769
C37	C	0.376786	-0.000218	-0.038466
C38	C	0.876786	0.499782	0.461534
C39	C	0.355632	-0.000190	-0.201415
C40	C	0.855632	0.499810	0.298585
C41	C	0.448930	-0.000176	-0.203179
C42	C	0.948930	0.499824	0.296821
C43	C	0.506156	-0.000184	-0.122584
C44	C	1.006156	0.499816	0.377416
N45	N	1.056734	-0.419943	-0.123537
N46	N	1.556734	0.080057	0.376463
C47	C	1.220263	-0.000205	-0.117185
C48	C	1.720263	0.499795	0.382815
C49	C	1.319561	-0.000212	-0.119056
C50	C	1.819561	0.499788	0.380944
C51	C	1.063094	-0.000192	0.039985
C52	C	1.563094	0.499808	0.539985
C53	C	1.061223	-0.000190	0.139282
C54	C	1.561223	0.499810	0.639282
N55	N	1.056751	0.419585	-0.123536
N56	N	1.556751	0.919585	0.376464
C57	C	1.050384	-0.000162	-0.287065
C58	C	1.550384	0.499838	0.212935
C59	C	1.052254	-0.000152	-0.386362
C60	C	1.552254	0.499848	0.113638
C61	C	1.141812	-0.000207	0.196507
C62	C	1.641812	0.499793	0.696507
C63	C	1.140049	-0.000188	0.289807
C64	C	1.640049	0.499812	0.789807
C65	C	1.057696	-0.000167	0.325879
C66	C	1.557696	0.499833	0.825879
C67	C	0.977101	-0.000145	0.268646
C68	C	1.477101	0.499855	0.768646
C69	C	0.978865	-0.000151	0.175349
C70	C	1.478865	0.499849	0.675349
C71	C	0.973430	-0.000138	0.463109
C72	C	1.473430	0.499862	0.963109
C73	C	0.971665	-0.000136	0.556413
C74	C	1.471665	0.499864	1.056413
C75	C	1.134614	-0.000176	0.577567
C76	C	1.634614	0.499824	1.077567
C77	C	1.136378	-0.000181	0.484269
C78	C	1.636378	0.499819	0.984269
C79	C	1.055782	-0.000163	0.427043
C80	C	1.555782	0.499837	0.927043
H81	H	0.516682	-0.000217	0.025399
H82	H	1.016682	0.499783	0.525399
O83	O	1.230638	-0.000234	0.157604
O84	O	1.730638	0.499766	0.657604
H85	H	1.235337	0.119979	0.115592
H86	H	1.735337	0.619979	0.615592
H87	H	1.200238	-0.000185	0.624165
H88	H	1.700238	0.499815	1.124165
O89	O	0.819576	-0.000189	0.041256
O90	O	1.319576	0.499811	0.541256
H91	H	0.862592	0.120026	0.044351
H92	H	1.362592	0.620026	0.544351
H93	H	0.907800	-0.000118	0.416517
H94	H	1.407800	0.499882	0.916517
O95	O	1.226969	-0.000203	0.351532
O96	O	1.726969	0.499797	0.851532
H97	H	1.230051	-0.120413	0.394558
H98	H	1.730051	0.379587	0.894558
H99	H	1.203437	-0.000212	0.454903
H100	H	1.703437	0.499788	0.954903
H101	H	0.635175	-0.000224	0.023152
H102	H	1.135175	0.499776	0.523152
H103	H	0.910047	-0.000116	0.298024
H104	H	1.410047	0.499884	0.798024
H105	H	0.904606	-0.000147	0.585780
H106	H	1.404606	0.499853	1.085780
H107	H	0.913240	-0.000137	0.128756
H108	H	1.413240	0.499863	0.628756
H109	H	0.596802	-0.000144	-0.272474
H110	H	1.096802	0.499856	0.227526
O111	O	0.775597	-0.000120	-0.297438
O112	O	1.275597	0.499880	0.202562
H113	H	0.720127	-0.000144	-0.353180
H114	H	1.220127	0.499856	0.146820
H115	H	0.478296	-0.000143	-0.270239
H116	H	0.978296	0.499857	0.229761
H117	H	0.347419	-0.000237	0.028593
H118	H	0.847419	0.499763	0.528593
O119	O	0.293917	-0.000201	-0.288348
O120	O	0.793917	0.499799	0.211652
H121	H	0.222981	-0.000240	-0.273290
H122	H	0.722981	0.499760	0.226710
