data_functionalizedCrystal
_audit_creation_method	'MofGen! by Chris Wilmer'
_symmetry_space_group_name_H-M	'P1'
_symmetry_Int_Tables_number	1
_symmetry_cell_setting	triclinic
loop_
_symmetry_equiv_pos_as_xyz
  x,y,z
_cell_length_a	12.645330
_cell_length_b	12.759401
_cell_length_c	12.759393
_cell_angle_alpha	90.019465
_cell_angle_beta	89.969902
_cell_angle_gamma	89.984100
loop_
_atom_site_label
_atom_site_type_symbol
_atom_site_fract_x
_atom_site_fract_y
_atom_site_fract_z
Zn1	Zn	-0.422027	-1.606233	-0.594021
Zn2	Zn	-0.599331	-1.606118	-0.418346
Zn3	Zn	-0.422077	-1.430535	-0.418357
Zn4	Zn	-0.599243	-1.430515	-0.593984
O5	O	-0.510669	-1.518350	-0.506177
O6	O	-0.445563	-1.753239	-0.570728
O7	O	-0.575875	-1.582788	-0.271326
O8	O	-0.273723	-1.453899	-0.441679
O9	O	-0.575827	-1.753155	-0.441660
O10	O	-0.273686	-1.582983	-0.570739
O11	O	-0.445647	-1.453787	-0.271334
O12	O	-0.445562	-1.283511	-0.441644
O13	O	-0.575678	-1.453863	-0.741010
O14	O	-0.575726	-1.283496	-0.570676
O15	O	-0.445478	-1.582963	-0.741037
O16	O	-0.747667	-1.582768	-0.441624
O17	O	-0.747602	-1.453752	-0.570665
C18	C	-0.510641	-1.245383	-0.506158
C19	C	-0.510654	-1.128606	-0.506174
C20	C	-0.442945	-1.073789	-0.573483
C21	C	-0.442952	-0.964065	-0.573488
C22	C	-0.578384	-0.963985	-0.438874
C23	C	-0.578372	-1.073707	-0.438864
C24	C	-0.317991	-0.814151	-0.611251
C25	C	-0.250292	-0.759330	-0.678576
C26	C	-0.234134	-0.794987	-0.781114
C27	C	-0.285691	-0.885464	-0.816349
C28	C	-0.353398	-0.940280	-0.749030
C29	C	-0.369535	-0.904624	-0.646477
C30	C	-0.703334	-1.223623	-0.401112
C31	C	-0.771047	-1.278441	-0.333797
C32	C	-0.787216	-1.242785	-0.231257
C33	C	-0.735678	-1.152305	-0.196026
C34	C	-0.667965	-1.097488	-0.263341
C35	C	-0.651794	-1.133150	-0.365880
C36	C	-0.786099	-1.518274	-0.506162
C37	C	-0.903929	-1.518337	-0.506191
C38	C	-1.071497	-1.437508	-0.587621
C39	C	-0.948937	-1.437095	-0.587359
C40	C	-0.948533	-1.488364	-0.395469
C41	C	-1.071131	-1.487870	-0.395963
C42	C	-1.071019	-1.629634	-0.534585
C43	C	-0.948412	-1.628952	-0.537006
C44	C	-0.234164	-1.518456	-0.506215
C45	C	-0.116334	-1.518501	-0.506231
C46	C	-0.510562	-1.518424	-0.780210
C47	C	-0.510517	-1.518455	-0.896987
C48	C	-0.510689	-0.792384	-0.506193
C49	C	-0.510673	-0.909160	-0.506189
C50	C	-0.442694	-1.451309	-0.951853
C51	C	-0.442662	-1.451333	-1.061577
C52	C	-0.578276	-1.585659	-1.061560
C53	C	-0.578314	-1.585629	-0.951838
C54	C	-0.404719	-1.327485	-1.211527
C55	C	-0.336880	-1.260348	-1.266397
C56	C	-0.233451	-1.244249	-1.230804
C57	C	-0.197839	-1.295302	-1.140344
C58	C	-0.265672	-1.362447	-1.085480
C59	C	-0.369116	-1.378526	-1.121071
C60	C	-0.616246	-1.709479	-0.801886
C61	C	-0.684075	-1.776630	-0.747020
C62	C	-0.787505	-1.792739	-0.782610
C63	C	-0.823113	-1.741704	-0.873074
C64	C	-0.755285	-1.674553	-0.927940
C65	C	-0.651855	-1.658442	-0.892342
C66	C	-0.510700	-1.518338	-0.233209
C67	C	-0.510447	-1.518510	-0.116433
H68	H	-0.208314	-0.685663	-0.649878
H69	H	-0.387490	-1.396611	-0.907197
H70	H	-0.919382	-1.545485	-0.333170
H71	H	-0.784284	-1.633000	-1.001602
H72	H	-1.102397	-1.355634	-0.569076
H73	H	-1.101857	-1.656976	-0.613951
H74	H	-0.633519	-0.919273	-0.384073
H75	H	-0.331129	-0.785118	-0.527752
H76	H	-0.919255	-1.651555	-0.618492
H77	H	-0.907333	-1.754826	-0.902056
H78	H	-0.919702	-1.354706	-0.568574
H79	H	-1.100902	-1.456089	-0.669990
H80	H	-1.100015	-1.689975	-0.475305
H81	H	-0.918776	-1.455848	-0.669459
H82	H	-0.272538	-0.914483	-0.899851
H83	H	-0.395369	-1.013948	-0.777715
H84	H	-0.917921	-1.407972	-0.371014
H85	H	-0.917769	-1.692473	-0.482043
H86	H	-0.236676	-1.404018	-1.011832
H87	H	-1.099822	-1.406631	-0.371943
H88	H	-0.113612	-1.282198	-1.111379
H89	H	-1.100796	-1.544302	-0.333254
H90	H	-0.626000	-1.023813	-0.234647
H91	H	-0.488943	-1.340574	-1.240507
H92	H	-0.748848	-1.123270	-0.112531
H93	H	-0.178216	-1.189584	-1.275487
H94	H	-0.690166	-1.252669	-0.484606
H95	H	-0.365884	-1.218780	-1.340050
H96	H	-0.633474	-1.640350	-1.106232
H97	H	-0.842727	-1.847429	-0.737934
H98	H	-0.387802	-1.118484	-0.628288
H99	H	-0.655069	-1.818196	-0.673367
H100	H	-0.532035	-1.696338	-0.772878
H101	H	-0.179011	-0.750344	-0.835931
H102	H	-0.842384	-1.287408	-0.176462
H103	H	-0.812998	-1.352125	-0.362486
