data_functionalizedCrystal
_audit_creation_method	'MofGen! by Chris Wilmer'
_symmetry_space_group_name_H-M	'P1'
_symmetry_Int_Tables_number	1
_symmetry_cell_setting	triclinic
loop_
_symmetry_equiv_pos_as_xyz
  x,y,z
_cell_length_a	14.853567
_cell_length_b	14.971486
_cell_length_c	13.448316
_cell_angle_alpha	89.996136
_cell_angle_beta	90.002106
_cell_angle_gamma	96.375470
loop_
_atom_site_label
_atom_site_type_symbol
_atom_site_fract_x
_atom_site_fract_y
_atom_site_fract_z
O1	O	1.196344	-0.116778	0.082624
O2	O	1.696344	0.383222	0.582624
O3	O	0.933882	-0.130689	0.082641
O4	O	1.433882	0.369311	0.582641
O5	O	1.072148	0.006465	0.082625
O6	O	1.572148	0.506465	0.582625
O7	O	1.058078	-0.253932	0.082640
O8	O	1.558078	0.246068	0.582640
O9	O	1.072134	0.006466	-0.082759
O10	O	1.572134	0.506466	0.417241
O11	O	0.933868	-0.130688	-0.082743
O12	O	1.433868	0.369312	0.417257
O13	O	1.196330	-0.116777	-0.082760
O14	O	1.696330	0.383223	0.417240
Cu15	Cu	1.065098	-0.123732	-0.097852
Cu16	Cu	1.565098	0.376268	0.402148
Cu17	Cu	1.065114	-0.123734	0.097733
Cu18	Cu	1.565114	0.376266	0.597733
O19	O	1.058065	-0.253931	-0.082744
O20	O	1.558065	0.246069	0.417256
C21	C	0.900287	-0.130058	-0.000049
C22	C	1.400287	0.369942	0.499951
C23	C	0.800203	-0.128169	-0.000043
C24	C	1.300203	0.371831	0.499957
N25	N	1.065093	-0.123731	-0.235417
N26	N	1.565093	0.376269	0.264583
C27	C	1.071512	0.039791	-0.000067
C28	C	1.571512	0.539791	0.499933
C29	C	1.069626	0.139088	-0.000066
C30	C	1.569626	0.639088	0.499934
C31	C	0.387686	-0.038712	-0.000070
C32	C	0.887686	0.461288	0.499930
C33	C	0.366375	-0.201655	-0.000060
C34	C	0.866375	0.298345	0.499940
C35	C	0.460408	-0.203431	-0.000056
C36	C	0.960408	0.296569	0.499944
C37	C	0.518085	-0.122846	-0.000058
C38	C	1.018085	0.377154	0.499942
C39	C	0.481728	-0.040486	-0.000064
C40	C	0.981728	0.459514	0.499936
C41	C	0.496772	-0.285790	-0.000041
C42	C	0.996772	0.214210	0.499959
C43	C	0.590811	-0.287569	-0.000036
C44	C	1.090811	0.212431	0.499964
C45	C	0.648490	-0.206984	-0.000046
C46	C	1.148490	0.293016	0.499954
C47	C	0.612127	-0.124620	-0.000052
C48	C	1.112127	0.375380	0.499948
C49	C	0.669804	-0.044035	-0.000054
C50	C	1.169804	0.455965	0.499946
C51	C	0.633444	0.038330	-0.000068
C52	C	1.133444	0.538330	0.499932
C53	C	0.539407	0.040100	-0.000073
C54	C	1.039407	0.540100	0.499927
C55	C	0.742527	-0.208754	-0.000040
C56	C	1.242527	0.291246	0.499960
C57	C	0.763847	-0.045809	-0.000048
C58	C	1.263847	0.454191	0.499952
C59	C	1.229926	-0.117408	-0.000068
C60	C	1.729926	0.382592	0.499932
C61	C	1.330009	-0.119297	-0.000068
C62	C	1.830009	0.380703	0.499932
C63	C	1.058701	-0.287257	-0.000050
C64	C	1.558701	0.212743	0.499950
C65	C	1.060586	-0.386554	-0.000045
C66	C	1.560586	0.113446	0.499955
C67	C	1.150854	0.196299	-0.000072
C68	C	1.650854	0.696299	0.499928
C69	C	1.149076	0.289598	-0.000062
C70	C	1.649076	0.789598	0.499938
C71	C	1.066071	0.325686	-0.000053
C72	C	1.566071	0.825686	0.499947
C73	C	0.984838	0.268468	-0.000044
C74	C	1.484838	0.768468	0.499956
C75	C	0.986616	0.175170	-0.000047
C76	C	1.486616	0.675170	0.499953
C77	C	0.981137	0.462931	-0.000040
C78	C	1.481137	0.962931	0.499960
C79	C	0.979359	0.556235	-0.000039
C80	C	1.479359	1.056235	0.499961
C81	C	1.143598	0.577360	-0.000055
C82	C	1.643598	1.077360	0.499945
C83	C	1.145376	0.484062	-0.000058
C84	C	1.645376	0.984062	0.499942
C85	C	1.064142	0.426850	-0.000051
C86	C	1.564142	0.926850	0.499949
C87	C	1.119825	-0.178082	-0.287453
C88	C	1.619825	0.321918	0.212547
C89	C	1.119837	-0.178078	-0.391556
C90	C	1.619837	0.321922	0.108444
C91	C	1.065110	-0.123727	-0.443621
C92	C	1.565110	0.376273	0.056379
C93	C	1.010376	-0.069370	-0.391577
C94	C	1.510376	0.430630	0.108423
C95	C	1.010370	-0.069370	-0.287476
C96	C	1.510370	0.430630	0.212524
C97	C	1.010390	-0.069376	-0.608558
C98	C	1.510390	0.430624	-0.108558
C99	C	1.010394	-0.069377	-0.712666
C100	C	1.510394	0.430623	-0.212666
C101	C	1.119857	-0.178084	-0.712638
C102	C	1.619857	0.321916	-0.212638
C103	C	1.119851	-0.178084	-0.608536
C104	C	1.619851	0.321916	-0.108536
C105	C	1.065115	-0.123728	-0.556500
C106	C	1.565115	0.376272	-0.056500
N107	N	1.065126	-0.123728	0.235297
N108	N	1.565126	0.376272	0.735297
H109	H	0.810802	0.019814	-0.000053
H110	H	1.310802	0.519814	0.499947
Br111	Br	0.866708	0.605211	-0.000031
Br112	Br	1.366708	1.105211	0.499969
Br113	Br	0.288100	-0.311014	-0.000039
Br114	Br	0.788100	0.188986	0.499961
H115	H	1.164410	-0.222345	-0.566148
H116	H	1.664410	0.277655	-0.066148
Br117	Br	1.194143	-0.251852	-0.783257
Br118	Br	1.694143	0.248148	-0.283257
H119	H	1.164407	-0.222334	-0.433920
H120	H	1.664407	0.277666	0.066080
Br121	Br	0.870890	0.385287	-0.000027
Br122	Br	1.370890	0.885287	0.499973
Br123	Br	0.936126	0.004389	-0.783326
Br124	Br	1.436126	0.504389	-0.283326
Br125	Br	0.936123	0.004412	-0.537937
Br126	Br	1.436123	0.504412	-0.037937
Br127	Br	0.418495	-0.395147	-0.000017
Br128	Br	0.918495	0.104853	0.499983
Br129	Br	0.936101	0.004408	-0.216854
Br130	Br	1.436101	0.504408	0.283146
H131	H	1.215220	0.336176	-0.000069
H132	H	1.715220	0.836176	0.499931
H133	H	0.965821	-0.025112	-0.433977
H134	H	1.465821	0.474888	0.066023
H135	H	1.218446	0.166924	-0.000085
H136	H	1.718446	0.666924	0.499915
Br137	Br	0.640149	-0.399347	-0.000018
Br138	Br	1.140149	0.100653	0.499982
H139	H	1.212967	0.454683	-0.000072
H140	H	1.712967	0.954683	0.499928
Br141	Br	0.791871	-0.320525	-0.000011
Br142	Br	1.291871	0.179475	0.499989
Br143	Br	0.711730	0.147690	-0.000059
Br144	Br	1.211730	0.647690	0.499941
Br145	Br	0.872186	0.317442	-0.000015
Br146	Br	1.372186	0.817442	0.499985
Br147	Br	0.876374	0.097525	-0.000031
Br148	Br	1.376374	0.597525	0.499969
H149	H	0.509793	0.107157	-0.000108
H150	H	1.009793	0.607157	0.499892
Br151	Br	0.338344	0.073064	-0.000097
Br152	Br	0.838344	0.573064	0.499903
Br153	Br	1.194098	-0.251851	-0.216804
Br154	Br	1.694098	0.248149	0.283196
H155	H	1.209742	0.623946	-0.000058
H156	H	1.709742	1.123946	0.499942
