data_functionalizedCrystal
_audit_creation_method	'MofGen! by Chris Wilmer'
_symmetry_space_group_name_H-M	'P1'
_symmetry_Int_Tables_number	1
_symmetry_cell_setting	triclinic
loop_
_symmetry_equiv_pos_as_xyz
  x,y,z
_cell_length_a	19.121321
_cell_length_b	19.121063
_cell_length_c	17.637815
_cell_angle_alpha	76.934671
_cell_angle_beta	75.936097
_cell_angle_gamma	89.929715
loop_
_atom_site_label
_atom_site_type_symbol
_atom_site_fract_x
_atom_site_fract_y
_atom_site_fract_z
Zn1	Zn	0.981459	-0.396635	0.418750
Zn2	Zn	1.481459	0.103365	0.918750
Zn3	Zn	1.000412	-0.491815	0.290233
Zn4	Zn	1.500412	0.008185	0.790233
Zn5	Zn	0.888359	-0.369526	0.289770
Zn6	Zn	1.388359	0.130474	0.789770
Zn7	Zn	0.857055	-0.510800	0.430155
Zn8	Zn	1.357055	-0.010800	0.930155
O9	O	0.931821	-0.442194	0.357227
O10	O	1.431821	0.057806	0.857227
O11	O	1.082931	-0.412661	0.397123
O12	O	1.582931	0.087339	0.897123
O13	O	1.006580	-0.456302	0.177635
O14	O	1.506580	0.043698	0.677635
O15	O	0.905878	-0.274165	0.301912
O16	O	1.405878	0.225835	0.801912
O17	O	1.096856	-0.482589	0.302702
O18	O	1.596856	0.017411	0.802702
O19	O	0.974279	-0.294083	0.396673
O20	O	1.474279	0.205917	0.896673
O21	O	0.924255	-0.366457	0.177294
O22	O	1.424255	0.133543	0.677294
O23	O	0.785248	-0.384866	0.312971
O24	O	1.285248	0.115134	0.812971
O25	O	0.852525	-0.514947	0.541179
O26	O	1.352525	-0.014947	1.041179
O27	O	0.762249	-0.488660	0.416112
O28	O	1.262249	0.011340	0.916112
O29	O	0.943924	-0.431071	0.532799
O30	O	1.443924	0.068929	1.032799
O31	O	0.976226	-0.593290	0.313761
O32	O	1.476226	-0.093290	0.813761
O33	O	0.870902	-0.607238	0.416561
O34	O	1.370902	-0.107238	0.916561
C35	C	0.748090	-0.435882	0.365729
C36	C	1.248090	0.064118	0.865729
C37	C	0.669485	-0.433202	0.369387
C38	C	1.169485	0.066798	0.869387
C39	C	0.224539	-0.416174	0.392577
C40	C	0.724539	0.083826	0.892577
C41	C	0.298398	-0.418704	0.389136
C42	C	0.798398	0.081296	0.889136
C43	C	0.342587	-0.456288	0.338169
C44	C	0.842587	0.043712	0.838169
C45	C	0.312913	-0.491350	0.290646
C46	C	0.812913	0.008650	0.790646
C47	C	0.239055	-0.488824	0.294091
C48	C	0.739055	0.011176	0.794091
C49	C	0.565953	-0.465738	0.325308
C50	C	1.065953	0.034262	0.825308
C51	C	0.639816	-0.468260	0.321865
C52	C	1.139816	0.031740	0.821865
C53	C	0.625295	-0.395615	0.420357
C54	C	1.125295	0.104385	0.920357
C55	C	0.551437	-0.393088	0.423794
C56	C	1.051437	0.106912	0.923794
C57	C	0.521769	-0.428153	0.376273
C58	C	1.021769	0.071847	0.876273
C59	C	0.418083	-0.458874	0.334650
C60	C	0.918083	0.041126	0.834650
C61	C	0.446274	-0.425571	0.379798
C62	C	0.946274	0.074429	0.879798
C63	C	0.922240	-0.625926	0.366466
C64	C	1.422240	-0.125926	0.866466
C65	C	0.918200	-0.704534	0.370442
C66	C	1.418200	-0.204534	0.870442
C67	C	0.971166	-0.734187	0.318829
C68	C	1.471166	-0.234187	0.818829
C69	C	0.967370	-0.808050	0.322573
C70	C	1.467370	-0.308050	0.822573
C71	C	0.910606	-0.852256	0.377927
C72	C	1.410606	-0.352256	0.877927
C73	C	0.857637	-0.822599	0.429546
C74	C	1.357637	-0.322599	0.929546
C75	C	0.861436	-0.748739	0.425805
C76	C	1.361436	-0.248739	0.925805
C77	C	0.896392	-1.075631	0.391902
C78	C	1.396392	-0.575631	0.891902
C79	C	0.892596	-1.149495	0.395637
C80	C	1.392596	-0.649495	0.895637
C81	C	1.002331	-1.134941	0.288664
C82	C	1.502331	-0.634941	0.788664
C83	C	1.006123	-1.061079	0.284925
C84	C	1.506123	-0.561079	0.784925
C85	C	0.953156	-1.031429	0.336547
C86	C	1.453156	-0.531429	0.836547
C87	C	0.906723	-0.927755	0.381754
C88	C	1.406723	-0.427755	0.881754
C89	C	0.957042	-0.955932	0.332723
C90	C	1.457042	-0.455932	0.832723
C91	C	1.116270	-0.448531	0.348692
C92	C	1.616270	0.051469	0.848692
C93	C	1.194871	-0.451232	0.345055
C94	C	1.694871	0.048768	0.845055
C95	C	0.892619	-0.478151	0.566984
C96	C	1.392619	0.021849	1.066984
C97	C	0.875913	-0.493473	0.656371
C98	C	1.375913	0.006527	1.156371
C99	C	0.941456	-0.257748	0.347969
C100	C	1.441456	0.242252	0.847969
C101	C	0.945562	-0.179148	0.344023
C102	C	1.445562	0.320852	0.844023
C103	C	0.970914	-0.406328	0.148281
C104	C	1.470914	0.093672	0.648281
C105	C	0.987767	-0.390811	0.058879
C106	C	1.487767	0.109189	0.558879
C107	C	1.058900	-0.325535	0.928538
C108	C	1.558900	0.174465	1.428538
C109	C	1.043194	-0.339949	1.012531
C110	C	1.543194	0.160051	1.512531
C111	C	0.948028	-0.427282	1.021245
C112	C	1.448028	0.072718	1.521245
C113	C	0.963728	-0.412878	0.937251
C114	C	1.463728	0.087122	1.437251
C115	C	1.019165	-0.362004	0.890904
C116	C	1.519165	0.137996	1.390904
C117	C	0.923993	-0.449347	0.899617
C118	C	1.423993	0.050653	1.399617
C119	C	0.939690	-0.434941	0.815631
C120	C	1.439690	0.065059	1.315631
C121	C	0.995123	-0.384067	0.769278
C122	C	1.495123	0.115933	1.269278
C123	C	1.034862	-0.347598	0.806917
C124	C	1.534862	0.152402	1.306917
C125	C	0.868554	-0.500217	0.945966
C126	C	1.368554	-0.000217	1.445966
C127	C	0.828818	-0.536686	0.908332
C128	C	1.328818	-0.036686	1.408332
C129	C	0.844519	-0.522284	0.824344
C130	C	1.344519	-0.022284	1.324344
C131	C	0.899951	-0.471410	0.777991
C132	C	1.399951	0.028590	1.277991
C133	C	0.804779	-0.558753	0.786705
C134	C	1.304779	-0.058753	1.286705
C135	C	0.820477	-0.544348	0.702718
C136	C	1.320477	-0.044348	1.202718
C137	C	0.915648	-0.457005	0.694005
C138	C	1.415648	0.042995	1.194005
H139	H	0.515462	-0.362486	0.465300
H140	H	1.015462	0.137514	0.965300
H141	H	0.214900	-0.517373	0.255395
H142	H	0.714900	-0.017373	0.755395
H143	H	0.860504	-0.963756	0.426822
H144	H	1.360504	-0.463756	0.926822
C145	C	0.657935	-0.357050	0.472631
C146	C	1.157935	0.142950	0.972631
N147	N	0.682520	-0.328004	0.512008
N148	N	1.182520	0.171996	1.012008
H149	H	0.322550	-0.390159	0.427837
H150	H	0.822550	0.109841	0.927837
H151	H	0.675794	-0.498868	0.280360
H152	H	1.175794	0.001132	0.780360
H153	H	0.541807	-0.494288	0.286611
H154	H	1.041807	0.005712	0.786611
C155	C	0.776769	-0.584469	0.661318
C156	C	1.276769	-0.084469	1.161318
N157	N	0.743847	-0.614688	0.630136
N158	N	1.243847	-0.114688	1.130136
C159	C	1.095849	-0.291638	0.755930
C160	C	1.595849	0.208362	1.255930
N161	N	1.141782	-0.249489	0.717527
N162	N	1.641782	0.250511	1.217527
C163	C	0.851285	-0.516060	1.038354
C164	C	1.351285	-0.016060	1.538354
N165	N	0.838280	-0.527992	1.107942
N166	N	1.338280	-0.027992	1.607942
C167	C	0.397665	-0.384222	0.435852
C168	C	0.897665	0.115778	0.935852
N169	N	0.361048	-0.353072	0.478067
N170	N	0.861048	0.146928	0.978067
H171	H	1.007903	-0.372340	0.700891
H172	H	1.507903	0.127660	1.200891
C173	C	1.033611	-0.685565	0.257932
C174	C	1.533611	-0.185565	0.757932
N175	N	1.080648	-0.648946	0.212065
N176	N	1.580648	-0.148946	0.712065
H177	H	1.104045	-0.284112	0.890799
H178	H	1.604045	0.215888	1.390799
H179	H	1.010500	-0.832189	0.280543
H180	H	1.510500	-0.332189	0.780543
C181	C	0.466700	-0.500205	0.278577
C182	C	0.966700	-0.000205	0.778577
N183	N	0.503322	-0.531334	0.236341
N184	N	1.003322	-0.031334	0.736341
C185	C	1.019480	-0.907302	0.271834
C186	C	1.519480	-0.407302	0.771834
N187	N	1.066507	-0.870667	0.225968
N188	N	1.566507	-0.370667	0.725968
H189	H	0.759639	-0.600170	0.824453
H190	H	1.259639	-0.100170	1.324453
C191	C	0.976635	-0.401044	0.643018
C192	C	1.476635	0.098956	1.143018
N193	N	1.022568	-0.358896	0.604614
N194	N	1.522568	0.141104	1.104614
H195	H	0.853264	-1.051495	0.433933
H196	H	1.353264	-0.551495	0.933933
H197	H	1.075551	-0.310244	1.043169
H198	H	1.575551	0.189756	1.543169
H199	H	1.052345	-1.025087	0.239851
H200	H	1.552345	-0.525087	0.739851
H201	H	0.348897	-0.521956	0.249150
H202	H	0.848897	-0.021956	0.749150
H203	H	0.902890	-0.468703	1.058992
H204	H	1.402890	0.031297	1.558992
C205	C	0.767835	-0.592641	0.959323
C206	C	1.267835	-0.092641	1.459323
N207	N	0.721901	-0.634787	0.997729
N208	N	1.221901	-0.134787	1.497729
C209	C	1.060592	-1.167563	0.231886
C210	C	1.560592	-0.667563	0.731886
N211	N	1.104477	-1.192135	0.189121
N212	N	1.604477	-0.692135	0.689121
H213	H	0.188566	-0.385564	0.434074
H214	H	0.688566	0.114436	0.934074
H215	H	0.846377	-1.185490	0.440727
H216	H	1.346377	-0.685490	0.940727
C217	C	0.795193	-0.871229	0.490434
C218	C	1.295193	-0.371229	0.990434
N219	N	0.748156	-0.907856	0.536293
N220	N	1.248156	-0.407856	1.036293
H221	H	0.818306	-0.724597	0.467835
H222	H	1.318306	-0.224597	0.967835
