data_functionalizedCrystal
_audit_creation_method	'MofGen! by Chris Wilmer'
_symmetry_space_group_name_H-M	'P1'
_symmetry_Int_Tables_number	1
_symmetry_cell_setting	triclinic
loop_
_symmetry_equiv_pos_as_xyz
  x,y,z
_cell_length_a	17.640112
_cell_length_b	12.594516
_cell_length_c	17.639306
_cell_angle_alpha	101.189135
_cell_angle_beta	87.804122
_cell_angle_gamma	101.240082
loop_
_atom_site_label
_atom_site_type_symbol
_atom_site_fract_x
_atom_site_fract_y
_atom_site_fract_z
Zn1	Zn	1.247754	-0.136809	-0.195074
Zn2	Zn	1.222023	-0.287256	-0.068106
Zn3	Zn	1.095107	-0.150854	-0.093727
Zn4	Zn	1.120741	-0.356331	-0.220682
O5	O	1.171406	-0.232813	-0.144397
O6	O	1.350610	-0.121980	-0.156792
O7	O	1.183690	-0.246132	0.034762
O8	O	1.115396	-0.000036	-0.107176
O9	O	1.331706	-0.232513	-0.063509
O10	O	1.227545	0.010283	-0.181635
O11	O	1.090446	-0.145918	0.015939
O12	O	0.992237	-0.212898	-0.132007
O13	O	1.159086	-0.350241	-0.323552
O14	O	1.011070	-0.363861	-0.225280
O15	O	1.252401	-0.188959	-0.304738
O16	O	1.208547	-0.445374	-0.088340
O17	O	1.134135	-0.496124	-0.200437
C18	C	0.974099	-0.297400	-0.184203
C19	C	0.889694	-0.325060	-0.201250
C20	C	0.563038	-0.022664	-0.014898
C21	C	0.483729	-0.048679	-0.030927
C22	C	0.503360	-0.206028	-0.127885
C23	C	0.582674	-0.180023	-0.111867
C24	C	0.612506	-0.088341	-0.055372
C25	C	0.632141	-0.245700	-0.152341
C26	C	0.711447	-0.219700	-0.136321
C27	C	0.741285	-0.128024	-0.079827
C28	C	0.691812	-0.062341	-0.039352
C29	C	0.602307	-0.337386	-0.208831
C30	C	0.651774	-0.403063	-0.249305
C31	C	0.731082	-0.377059	-0.233289
C32	C	0.760921	-0.285383	-0.176796
C33	C	0.780556	-0.442742	-0.273764
C34	C	0.859862	-0.416742	-0.257745
C35	C	0.840226	-0.259383	-0.160776
C36	C	1.171355	-0.509368	-0.144400
C37	C	1.171407	-0.627663	-0.144412
C38	C	1.130923	-0.724551	-0.205347
C39	C	1.098421	-0.786420	-0.139784
C40	C	1.203981	-0.776573	-0.209972
C41	C	1.138861	-0.687977	-0.078821
C42	C	1.244463	-0.678124	-0.149049
C43	C	1.211978	-0.739942	-0.083433
C44	C	1.369483	-0.167974	-0.104436
C45	C	1.453892	-0.140344	-0.087407
C46	C	1.211473	-0.275739	-0.342469
C47	C	1.228548	-0.294031	-0.426876
C48	C	1.171481	0.044826	-0.144407
C49	C	1.171514	0.163139	-0.144411
C50	C	1.041989	-0.093353	-0.753498
C51	C	1.058050	-0.110558	-0.832808
C52	C	1.155136	-0.214900	-0.813189
C53	C	1.139086	-0.197699	-0.733876
C54	C	1.082511	-0.136925	-0.704037
C55	C	1.179607	-0.241271	-0.684415
C56	C	1.163555	-0.224076	-0.605109
C57	C	1.106982	-0.163308	-0.575265
C58	C	1.066459	-0.119730	-0.624732
C59	C	1.236178	-0.302051	-0.714256
C60	C	1.276700	-0.345623	-0.664795
C61	C	1.260652	-0.328422	-0.585487
C62	C	1.204078	-0.267654	-0.555642
C63	C	1.301174	-0.372000	-0.536020
C64	C	1.285122	-0.354805	-0.456714
C65	C	1.188026	-0.250459	-0.476337
C66	C	1.131538	-0.189962	0.052913
C67	C	1.114611	-0.171322	0.137349
H68	H	0.479059	-0.280678	-0.173880
C69	C	1.258277	-0.750025	-0.013760
H70	H	1.300531	-0.784822	-0.031610
H71	H	1.225695	-0.792844	0.017805
H72	H	1.277181	-0.678620	0.015502
H73	H	1.093908	-0.149318	-0.510690
C74	C	1.101604	-0.636010	-0.003917
H75	H	1.086118	-0.689985	0.027353
H76	H	1.057714	-0.609433	-0.016374
H77	H	1.138005	-0.576558	0.023486
H78	H	1.306188	-0.631163	-0.153002
H79	H	0.864519	-0.184713	-0.114784
C80	C	1.013475	-0.062619	-0.887213
H81	H	0.977488	-0.023958	-0.858080
H82	H	0.986639	-0.120875	-0.924826
H83	H	1.048804	-0.013430	-0.912288
H84	H	0.805861	-0.106859	-0.066784
C85	C	1.338930	-0.412464	-0.697622
H86	H	1.342691	-0.416459	-0.751936
H87	H	1.325173	-0.484802	-0.686859
H88	H	1.387329	-0.377348	-0.674326
C89	C	0.515071	-0.366000	-0.226448
H90	H	0.504387	-0.430018	-0.265881
H91	H	0.499799	-0.306095	-0.243287
H92	H	0.487208	-0.379562	-0.181040
H93	H	0.587331	0.052006	0.031094
C94	C	1.015024	-0.849850	-0.134473
H95	H	1.009464	-0.880494	-0.088959
H96	H	1.004100	-0.907358	-0.178445
H97	H	0.980056	-0.800815	-0.132725
H98	H	1.201197	-0.264386	-0.837496
H99	H	0.627473	-0.477713	-0.295301
H100	H	1.231487	-0.815199	-0.265416
H101	H	1.318129	-0.390268	-0.416439
C102	C	1.363399	-0.438849	-0.568850
H103	H	1.367157	-0.442847	-0.623165
H104	H	1.349637	-0.511186	-0.558085
H105	H	1.411801	-0.403740	-0.545558
H106	H	0.443455	0.004816	0.002031
C107	C	1.125800	-0.183601	-0.443504
H108	H	1.122050	-0.179597	-0.389188
H109	H	1.077401	-0.218691	-0.466797
H110	H	1.139574	-0.111255	-0.454261
H111	H	0.756253	-0.517395	-0.319757
C112	C	1.004219	-0.052894	-0.591906
H113	H	0.982378	-0.029412	-0.632721
H114	H	1.027009	0.009700	-0.555103
H115	H	0.964860	-0.097761	-0.567652
C116	C	1.253935	-0.320801	-0.801470
H117	H	1.293454	-0.363197	-0.812153
H118	H	1.270730	-0.251632	-0.816660
H119	H	1.208602	-0.359116	-0.829397
C120	C	0.979750	-0.026517	-0.720672
H121	H	0.957908	-0.003035	-0.761488
H122	H	1.002540	0.036078	-0.683870
H123	H	0.940391	-0.071384	-0.696418
C124	C	0.914283	-0.488974	-0.302267
H125	H	0.965786	-0.460362	-0.284629
H126	H	0.911625	-0.488822	-0.355930
H127	H	0.899018	-0.562306	-0.293693
C128	C	0.724637	0.038512	0.022786
H129	H	0.778954	0.044590	0.026524
H130	H	0.701304	0.029852	0.071202
H131	H	0.713915	0.103319	0.008954
C132	C	1.084556	-0.714189	-0.274893
H133	H	1.032683	-0.751713	-0.271466
H134	H	1.107149	-0.745927	-0.321438
H135	H	1.085219	-0.638523	-0.274667
