data_functionalizedCrystal
_audit_creation_method	'MofGen! by Chris Wilmer'
_symmetry_space_group_name_H-M	'P1'
_symmetry_Int_Tables_number	1
_symmetry_cell_setting	triclinic
loop_
_symmetry_equiv_pos_as_xyz
  x,y,z
_cell_length_a	19.288864
_cell_length_b	17.019370
_cell_length_c	15.500258
_cell_angle_alpha	97.050599
_cell_angle_beta	93.174037
_cell_angle_gamma	83.266759
loop_
_atom_site_label
_atom_site_type_symbol
_atom_site_fract_x
_atom_site_fract_y
_atom_site_fract_z
O1	O	0.918913	0.095453	-0.065112
O2	O	1.252246	0.428786	0.268221
O3	O	1.585580	0.762119	0.601555
O4	O	0.716718	0.108775	-0.064061
O5	O	1.050051	0.442108	0.269273
O6	O	1.383385	0.775442	0.602606
O7	O	0.823114	-0.013126	-0.073164
O8	O	1.156447	0.320207	0.260169
O9	O	1.489781	0.653541	0.593502
O10	O	0.812517	0.217354	-0.056009
O11	O	1.145850	0.550687	0.277325
O12	O	1.479184	0.884020	0.610658
O13	O	0.828889	-0.006587	0.071209
O14	O	1.162222	0.326746	0.404542
O15	O	1.495555	0.660080	0.737875
O16	O	0.722492	0.115314	0.080312
O17	O	1.055826	0.448647	0.413645
O18	O	1.389159	0.781981	0.746979
O19	O	0.924688	0.101992	0.079261
O20	O	1.258021	0.435325	0.412594
O21	O	1.591354	0.768658	0.745927
Cu22	Cu	0.824117	0.109250	0.092969
Cu23	Cu	1.157451	0.442583	0.426302
Cu24	Cu	1.490784	0.775917	0.759635
Cu25	Cu	0.817288	0.101517	-0.077769
Cu26	Cu	1.150622	0.434850	0.255565
Cu27	Cu	1.483955	0.768183	0.588898
O28	O	0.818292	0.223893	0.088364
O29	O	1.151625	0.557226	0.421698
O30	O	1.484958	0.890559	0.755031
C31	C	0.693727	0.111616	0.008101
C32	C	1.027060	0.444950	0.341435
C33	C	1.360394	0.778283	0.674768
C34	C	0.616618	0.110331	0.008028
C35	C	0.949952	0.443664	0.341362
C36	C	1.283285	0.776997	0.674695
C37	C	0.572260	0.181855	0.013339
C38	C	0.905594	0.515189	0.346672
C39	C	1.238927	0.848522	0.680005
C40	C	0.499807	0.180646	0.013239
C41	C	0.833140	0.513979	0.346572
C42	C	1.166474	0.847313	0.679906
C43	C	0.471714	0.107908	0.007811
C44	C	0.805048	0.441241	0.341145
C45	C	1.138381	0.774574	0.674478
C46	C	0.516082	0.036374	0.002505
C47	C	0.849416	0.369707	0.335839
C48	C	1.182749	0.703041	0.669172
C49	C	0.588534	0.037586	0.002614
C50	C	0.921868	0.370919	0.335947
C51	C	1.255201	0.704252	0.669280
C52	C	0.361157	0.048435	-0.047054
C53	C	0.694491	0.381769	0.286279
C54	C	1.027824	0.715102	0.619613
C55	C	0.288706	0.047227	-0.047168
C56	C	0.622040	0.380560	0.286166
C57	C	0.955373	0.713893	0.619499
C58	C	0.248249	0.104168	0.007481
C59	C	0.581582	0.437501	0.340814
C60	C	0.914916	0.770835	0.674147
C61	C	0.280250	0.162331	0.062232
C62	C	0.613583	0.495665	0.395566
C63	C	0.946917	0.828998	0.728899
C64	C	0.352702	0.163543	0.062341
C65	C	0.686035	0.496876	0.395674
C66	C	1.019369	0.830209	0.729008
C67	C	0.393153	0.106586	0.007694
C68	C	0.726487	0.439919	0.341027
C69	C	1.059820	0.773253	0.674361
C70	C	0.125328	0.174387	0.012685
C71	C	0.458662	0.507720	0.346018
C72	C	0.791995	0.841053	0.679351
C73	C	0.052874	0.173175	0.012590
C74	C	0.386208	0.506508	0.345924
C75	C	0.719541	0.839841	0.679257
C76	C	0.069151	0.028900	0.001848
C77	C	0.402485	0.362233	0.335181
C78	C	0.735818	0.695567	0.668514
C79	C	0.141604	0.030114	0.001951
C80	C	0.474937	0.363448	0.335284
C81	C	0.808271	0.696781	0.668618
C82	C	0.169688	0.102860	0.007366
C83	C	0.503021	0.436193	0.340699
C84	C	0.836354	0.769526	0.674032
C85	C	0.825485	-0.039343	-0.003174
C86	C	1.158819	0.293990	0.330159
C87	C	1.492152	0.627324	0.663493
C88	C	0.823940	-0.127204	-0.009718
C89	C	1.157273	0.206129	0.323616
C90	C	1.490607	0.539462	0.656949
C91	C	0.826360	-0.164924	0.065902
C92	C	1.159693	0.168409	0.399235
C93	C	1.493027	0.501742	0.732568
C94	C	0.824912	-0.247480	0.059746
C95	C	1.158246	0.085853	0.393079
C96	C	1.491579	0.419187	0.726412
C97	C	0.821039	-0.292314	-0.022031
C98	C	1.154373	0.041020	0.311302
C99	C	1.487706	0.374353	0.644636
C100	C	0.818622	-0.254588	-0.097656
C101	C	1.151955	0.078745	0.235677
C102	C	1.485288	0.412078	0.569011
C103	C	0.820074	-0.172035	-0.091499
C104	C	1.153408	0.161299	0.241834
C105	C	1.486741	0.494632	0.575168
C106	C	0.816500	-0.541751	-0.044558
C107	C	1.149833	-0.208417	0.288775
C108	C	1.483167	0.124916	0.622109
C109	C	0.815045	-0.624309	-0.050709
C110	C	1.148379	-0.290976	0.282624
C111	C	1.481712	0.042357	0.615957
C112	C	0.821337	-0.617196	0.106693
C113	C	1.154671	-0.283862	0.440026
C114	C	1.488004	0.049471	0.773360
C115	C	0.822786	-0.534640	0.112843
C116	C	1.156119	-0.201307	0.446176
C117	C	1.489452	0.132027	0.779509
C118	C	0.820371	-0.496923	0.037218
C119	C	1.153705	-0.163589	0.370551
C120	C	1.487038	0.169744	0.703884
C121	C	0.819557	-0.376699	-0.028325
C122	C	1.152891	-0.043365	0.305008
C123	C	1.486224	0.289968	0.638341
C124	C	0.821859	-0.412540	0.043513
C125	C	1.155192	-0.079207	0.376846
C126	C	1.488525	0.254127	0.710180
C127	C	0.947678	0.099150	0.007097
C128	C	1.281012	0.432484	0.340430
C129	C	1.614345	0.765817	0.673763
C130	C	1.024787	0.100436	0.007164
C131	C	1.358120	0.433769	0.340497
C132	C	1.691454	0.767102	0.673831
C133	C	0.815920	0.250110	0.018372
C134	C	1.149253	0.583443	0.351705
C135	C	1.482587	0.916776	0.685039
C136	C	0.817465	0.337970	0.024910
C137	C	1.150798	0.671304	0.358243
C138	C	1.484132	1.004637	0.691577
N139	N	0.828926	0.114689	0.213056
N140	N	1.162259	0.448022	0.546390
N141	N	1.495592	0.781355	0.879723
N142	N	0.812485	0.096072	-0.197857
N143	N	1.145819	0.429405	0.135477
N144	N	1.479152	0.762738	0.468810
C145	C	0.852885	0.141895	0.760259
C146	C	1.186219	0.475229	1.093592
C147	C	1.519552	0.808562	1.426925
C148	C	0.849253	0.137776	0.669381
C149	C	1.182586	0.471110	1.002714
C150	C	1.515920	0.804443	1.336048
C151	C	0.805224	0.087829	0.620389
C152	C	1.138557	0.421163	0.953723
C153	C	1.471890	0.754496	1.287056
C154	C	0.764819	0.042004	0.662280
C155	C	1.098152	0.375338	0.995613
C156	C	1.431486	0.708671	1.328947
C157	C	0.768448	0.046128	0.753157
C158	C	1.101782	0.379461	1.086490
C159	C	1.435115	0.712794	1.419823
C160	C	0.792150	0.072987	0.345824
C161	C	1.125484	0.406320	0.679157
C162	C	1.458817	0.739654	1.012490
C163	C	0.788526	0.068865	0.254941
C164	C	1.121859	0.402198	0.588274
C165	C	1.455192	0.735532	0.921608
C166	C	0.872959	0.164639	0.262048
C167	C	1.206292	0.497972	0.595381
C168	C	1.539626	0.831306	0.928715
C169	C	0.876587	0.168754	0.352926
C170	C	1.209921	0.502088	0.686259
C171	C	1.543254	0.835421	1.019592
C172	C	0.836180	0.122933	0.394809
C173	C	1.169513	0.456266	0.728142
C174	C	1.502847	0.789599	1.061476
C175	C	0.801511	0.083616	0.527497
C176	C	1.134845	0.416949	0.860831
C177	C	1.468178	0.750283	1.194164
C178	C	0.839889	0.127150	0.487699
C179	C	1.173223	0.460484	0.821033
C180	C	1.506556	0.793817	1.154366
H181	H	0.148196	0.233621	0.017106
H182	H	0.481529	0.566954	0.350440
H183	H	0.814863	0.900287	0.683773
H184	H	0.829502	-0.128424	0.132493
H185	H	1.162835	0.204909	0.465826
H186	H	1.496169	0.538242	0.799160
H187	H	0.752668	0.028193	0.215054
H188	H	1.086001	0.361526	0.548387
H189	H	1.419334	0.694859	0.881721
H190	H	0.624651	-0.020660	-0.001711
H191	H	0.957985	0.312673	0.331622
H192	H	1.291318	0.646006	0.664956
H193	H	0.177721	-0.028129	-0.002378
H194	H	0.511055	0.305204	0.330955
H195	H	0.844388	0.638538	0.664289
H196	H	0.493204	-0.022851	-0.001926
H197	H	0.826538	0.310483	0.331408
H198	H	1.159871	0.643816	0.664741
H199	H	0.826886	-0.278188	0.121323
H200	H	1.160219	0.055145	0.454656
H201	H	1.493553	0.388479	0.787990
H202	H	0.016758	0.231421	0.016920
H203	H	0.350092	0.564755	0.350253
H204	H	0.683425	0.898088	0.683586
H205	H	0.378754	0.210899	0.106924
H206	H	0.712088	0.544232	0.440258
H207	H	1.045421	0.877566	0.773591
H208	H	0.046277	-0.030327	-0.002625
H209	H	0.379610	0.303006	0.330708
H210	H	0.712944	0.636339	0.664041
H211	H	0.247311	0.208698	0.106733
H212	H	0.580644	0.542031	0.440066
H213	H	0.913978	0.875365	0.773400
H214	H	0.394092	0.002065	-0.091561
H215	H	0.727425	0.335398	0.241773
H216	H	1.060759	0.668732	0.575106
H217	H	0.825954	-0.498144	0.179434
H218	H	1.159288	-0.164811	0.512767
H219	H	1.492621	0.168523	0.846100
H220	H	0.759250	0.035673	0.379914
H221	H	1.092583	0.369006	0.713247
H222	H	1.425917	0.702339	1.046580
H223	H	0.728966	0.001340	0.622384
H224	H	1.062300	0.334673	0.955717
H225	H	1.395633	0.668006	1.289051
H226	H	0.735549	0.008815	0.787258
H227	H	1.068882	0.342148	1.120591
H228	H	1.402215	0.675482	1.453924
H229	H	0.882152	0.175090	0.635283
H230	H	1.215485	0.508423	0.968616
H231	H	1.548819	0.841756	1.301949
H232	H	0.912442	0.209425	0.392809
H233	H	1.245775	0.542759	0.726142
H234	H	1.579108	0.876092	1.059476
H235	H	0.811885	-0.660810	-0.117305
H236	H	1.145218	-0.327477	0.216029
H237	H	1.478551	0.005856	0.549362
H238	H	0.463684	0.238892	0.017566
H239	H	0.797017	0.572225	0.350899
H240	H	1.130351	0.905559	0.684233
H241	H	0.825015	-0.376033	0.110095
H242	H	1.158349	-0.042700	0.443428
H243	H	1.491682	0.290633	0.776761
H244	H	0.875734	0.167821	0.527593
H245	H	1.209068	0.501154	0.860926
H246	H	1.542401	0.834488	1.194259
H247	H	0.262656	-0.000130	-0.091753
H248	H	0.595990	0.333203	0.241580
H249	H	0.929323	0.666536	0.574914
H250	H	0.823304	-0.647914	0.168262
H251	H	1.156637	-0.314581	0.501596
H252	H	1.489970	0.018752	0.834929
H253	H	0.816403	-0.413211	-0.094908
H254	H	1.149736	-0.079878	0.238425
H255	H	1.483069	0.253456	0.571759
H256	H	0.888742	0.182564	0.800141
H257	H	1.222075	0.515898	1.133475
H258	H	1.555408	0.849231	1.466808
H259	H	0.814533	-0.511051	-0.106138
H260	H	1.147866	-0.177718	0.227196
H261	H	1.481199	0.155616	0.560529
H262	H	0.905855	0.201946	0.227937
H263	H	1.239188	0.535279	0.561270
H264	H	1.572522	0.868612	0.894604
H265	H	0.815473	-0.291099	-0.164240
H266	H	1.148806	0.042234	0.169093
H267	H	1.482139	0.375567	0.502426
H268	H	0.595121	0.241090	0.017746
H269	H	0.928454	0.574423	0.351079
H270	H	1.261788	0.907757	0.684413
H271	H	0.818104	-0.141325	-0.153077
H272	H	1.151438	0.192009	0.180257
H273	H	1.484771	0.525342	0.513590
H274	H	0.765664	0.042947	0.487598
H275	H	1.098998	0.376280	0.820931
H276	H	1.432331	0.709614	1.154265
