data_functionalizedCrystal
_audit_creation_method	'MofGen! by Chris Wilmer'
_symmetry_space_group_name_H-M	'P1'
_symmetry_Int_Tables_number	1
_symmetry_cell_setting	triclinic
loop_
_symmetry_equiv_pos_as_xyz
  x,y,z
_cell_length_a	19.288840
_cell_length_b	12.996460
_cell_length_c	14.519731
_cell_angle_alpha	90.011339
_cell_angle_beta	96.592566
_cell_angle_gamma	89.986655
loop_
_atom_site_label
_atom_site_type_symbol
_atom_site_fract_x
_atom_site_fract_y
_atom_site_fract_z
O1	O	0.921781	-0.085751	-0.114934
O2	O	0.719575	-0.085717	-0.130477
O3	O	0.826031	-0.085714	0.011566
O4	O	0.815324	-0.085754	-0.256977
O5	O	0.826019	0.085420	0.011573
O6	O	0.719563	0.085417	-0.130470
O7	O	0.921769	0.085383	-0.114927
Cu8	Cu	0.820665	0.101026	-0.122698
Cu9	Cu	0.820679	-0.101360	-0.122706
O10	O	0.815312	0.085380	-0.256970
C11	C	0.693690	-0.000145	-0.129977
C12	C	0.616580	-0.000131	-0.128487
N13	N	0.820660	0.243373	-0.122691
C14	C	0.580381	-0.093419	-0.127776
C15	C	0.507929	-0.093431	-0.126366
C16	C	0.471681	-0.000151	-0.125649
C17	C	0.507888	0.093149	-0.126366
C18	C	0.580338	0.093159	-0.127785
C19	C	0.362142	0.071309	-0.069381
C20	C	0.289694	0.071295	-0.067956
C21	C	0.248221	-0.000177	-0.121275
C22	C	0.279206	-0.071653	-0.176008
C23	C	0.351656	-0.071643	-0.177427
C24	C	0.393121	-0.000151	-0.124110
C25	C	0.133461	-0.093484	-0.119036
C26	C	0.061007	-0.093493	-0.117631
C27	C	0.060969	0.093090	-0.117622
C28	C	0.133420	0.093096	-0.119036
C29	C	0.169662	-0.000194	-0.119738
C30	C	0.820673	0.663187	-0.122710
C31	C	0.820667	0.546382	-0.122708
C32	C	0.820667	0.453284	-0.122701
C33	C	0.820660	0.336471	-0.122698
C34	C	0.947654	-0.000191	-0.115426
C35	C	1.024764	-0.000212	-0.116916
N36	N	0.820683	0.756293	-0.122709
C37	C	0.825524	-0.000144	0.045926
C38	C	0.824020	-0.000134	0.148297
C39	C	0.822799	-0.000129	0.231433
C40	C	0.821272	-0.000128	0.335732
C41	C	0.820061	-0.000127	0.418863
C42	C	0.818535	-0.000124	0.523168
C43	C	0.815820	-0.000171	0.708670
C44	C	0.817323	-0.000123	0.606300
H45	H	0.478449	-0.169400	-0.125787
H46	H	0.376880	-0.129839	-0.221995
H47	H	0.264473	0.129491	-0.023384
N48	N	0.236842	-0.144666	-0.230466
N49	N	0.172156	-0.144665	-0.229197
H50	H	0.142233	-0.196231	-0.267654
N51	N	0.170411	0.188380	-0.119759
N52	N	0.204509	0.209192	-0.185541
H53	H	0.230635	0.276491	-0.186054
H54	H	0.395905	0.129516	-0.025959
N55	N	0.170475	-0.188782	-0.119753
N56	N	0.138141	-0.272071	-0.119125
H57	H	0.164280	-0.339377	-0.119631
H58	H	0.031534	-0.169462	-0.117058
N59	N	0.023939	0.188366	-0.116910
N60	N	-0.040749	0.188347	-0.115654
H61	H	-0.066906	0.255638	-0.115159
N62	N	0.470864	0.188434	-0.125652
N63	N	0.424105	0.209231	-0.189854
H64	H	0.397957	0.276530	-0.189356
N65	N	0.617389	-0.188718	-0.128494
N66	N	0.585053	-0.272006	-0.127859
H67	H	0.611191	-0.339313	-0.128367
N68	N	0.617307	0.188464	-0.128519
N69	N	0.584938	0.271746	-0.127889
H70	H	0.611048	0.339057	-0.128408
