data_functionalizedCrystal
_audit_creation_method	'MofGen! by Chris Wilmer'
_symmetry_space_group_name_H-M	'P1'
_symmetry_Int_Tables_number	1
_symmetry_cell_setting	triclinic
loop_
_symmetry_equiv_pos_as_xyz
  x,y,z
_cell_length_a	10.723024
_cell_length_b	10.723022
_cell_length_c	9.198806
_cell_angle_alpha	89.997361
_cell_angle_beta	90.003648
_cell_angle_gamma	95.532452
loop_
_atom_site_label
_atom_site_type_symbol
_atom_site_fract_x
_atom_site_fract_y
_atom_site_fract_z
O1	O	1.657187	-0.175025	0.120881
O2	O	1.294034	-0.191778	0.120886
O3	O	1.483988	-0.001825	0.120876
O4	O	1.467233	-0.364978	0.120891
O5	O	1.483973	-0.001824	-0.120909
O6	O	1.294019	-0.191777	-0.120899
O7	O	1.657172	-0.175024	-0.120904
Cu8	Cu	1.475594	-0.183401	-0.142978
Cu9	Cu	1.475612	-0.183401	0.142961
O10	O	1.467218	-0.364977	-0.120894
C11	C	1.247527	-0.190558	-0.000006
C12	C	1.108973	-0.186911	-0.000004
C13	C	1.482762	0.044675	-0.000016
C14	C	1.479115	0.183229	-0.000012
C15	C	1.369575	0.231790	-0.000009
C16	C	1.365803	0.374993	-0.000005
C17	C	1.033990	-0.293199	0.000001
C18	C	0.890786	-0.289431	0.000003
C19	C	1.703679	-0.176243	-0.000009
C20	C	1.842233	-0.179891	-0.000001
N21	N	1.475591	-0.183400	-0.344092
C22	C	1.468444	0.588523	-0.000002
C23	C	1.472091	0.449969	-0.000006
C24	C	1.555347	-0.103292	-0.416294
C25	C	1.555366	-0.103288	-0.583706
N26	N	1.475625	-0.183393	0.344075
H27	H	1.272016	0.416805	0.000005
H28	H	1.407318	-0.251975	-0.406217
H29	H	1.565883	0.408165	0.000045
O30	O	1.260937	0.155048	0.000189
C31	C	1.191003	0.178278	0.125435
H32	H	1.220680	0.276778	0.167184
H33	H	1.086996	0.169878	0.097278
H34	H	1.208780	0.106964	0.213117
O35	O	1.636947	-0.021413	-0.657543
C36	C	1.711059	0.053091	-0.557876
H37	H	1.713129	0.002019	-0.449337
H38	H	1.810496	0.071466	-0.601947
H39	H	1.669485	0.146034	-0.541753
H40	H	1.623611	-0.034707	-0.354171
O41	O	0.813980	-0.398023	0.000268
C42	C	0.837275	-0.467996	0.125473
H43	H	0.881283	-0.402543	0.212993
H44	H	0.745308	-0.517142	0.167512
H45	H	0.904070	-0.540885	0.097162
O46	O	0.919211	-0.071412	0.000189
C47	C	0.995327	-0.066681	0.125431
H48	H	1.002634	-0.165810	0.167184
H49	H	1.092801	-0.021148	0.097267
H50	H	0.952097	-0.009259	0.213113
O51	O	1.083808	-0.405123	-0.000252
C52	C	1.043585	-0.473425	-0.125451
H53	H	1.015836	-0.406084	-0.212978
H54	H	1.122968	-0.527081	-0.167484
H55	H	0.959431	-0.542341	-0.097133
H56	H	1.570103	0.247672	-0.000019
H57	H	1.067151	-0.093125	0.000029
H58	H	1.407344	-0.251984	-0.593845
