data_functionalizedCrystal
_audit_creation_method	'MofGen! by Chris Wilmer'
_symmetry_space_group_name_H-M	'P1'
_symmetry_Int_Tables_number	1
_symmetry_cell_setting	triclinic
loop_
_symmetry_equiv_pos_as_xyz
  x,y,z
_cell_length_a	19.288864
_cell_length_b	14.044220
_cell_length_c	18.366186
_cell_angle_alpha	89.993222
_cell_angle_beta	89.977106
_cell_angle_gamma	88.162561
loop_
_atom_site_label
_atom_site_type_symbol
_atom_site_fract_x
_atom_site_fract_y
_atom_site_fract_z
O1	O	0.928948	0.118214	-0.060787
O2	O	0.727712	0.134161	-0.060738
O3	O	0.825310	-0.011784	-0.060755
O4	O	0.831351	0.264160	-0.060770
O5	O	0.825291	-0.011791	0.060345
O6	O	0.727694	0.134154	0.060362
O7	O	0.928930	0.118207	0.060312
Zn8	Zn	0.828309	0.126180	0.079564
Zn9	Zn	0.828333	0.126189	-0.079990
O10	O	0.831332	0.264152	0.060329
C11	C	0.701794	0.133645	-0.000182
C12	C	0.624591	0.132104	-0.000163
C13	C	0.822656	-0.047091	-0.000204
C14	C	0.814768	-0.152283	-0.000201
C15	C	0.585397	0.217738	-0.000179
C16	C	0.512857	0.216291	-0.000187
C17	C	0.479514	0.129205	-0.000193
C18	C	0.518717	0.043560	-0.000173
C19	C	0.591256	0.045010	-0.000157
C20	C	0.366860	0.060749	-0.042640
C21	C	0.294322	0.059303	-0.042660
C22	C	0.255781	0.124731	-0.000237
C23	C	0.289785	0.191621	0.042196
C24	C	0.362323	0.193071	0.042212
C25	C	0.400858	0.127624	-0.000209
C26	C	0.137930	0.208802	-0.000261
C27	C	0.065389	0.207351	-0.000264
C28	C	0.071251	0.034617	-0.000257
C29	C	0.143790	0.036071	-0.000247
C30	C	0.177126	0.123165	-0.000252
C31	C	0.800348	-0.344882	-0.000208
C32	C	0.856291	-0.402755	-0.000224
C33	C	0.848267	-0.509924	-0.000228
C34	C	0.808370	-0.237703	-0.000204
C35	C	0.954848	0.118724	-0.000245
C36	C	1.032051	0.120264	-0.000269
C37	C	0.833986	0.299459	-0.000223
C38	C	0.841874	0.404651	-0.000231
N39	N	0.828297	0.126173	0.188455
N40	N	0.828350	0.126188	-0.188881
C41	C	0.871531	0.061580	0.226548
C42	C	0.871535	0.061575	0.302776
C43	C	0.828313	0.126180	0.340908
C44	C	0.785071	0.190778	0.302806
C45	C	0.785063	0.190774	0.226579
C46	C	0.824562	0.212524	0.461665
C47	C	0.824575	0.212529	0.537890
C48	C	0.828333	0.126192	0.576015
C49	C	0.832093	0.039847	0.537907
C50	C	0.832085	0.039843	0.461681
C51	C	0.828316	0.126191	0.423563
C52	C	0.871574	0.061589	0.696763
C53	C	0.871573	0.061584	0.772993
C54	C	0.785113	0.190795	0.773021
C55	C	0.785110	0.190792	0.696793
C56	C	0.828344	0.126190	0.658669
H57	H	0.480939	0.286027	-0.000198
H58	H	0.044104	-0.036290	-0.000308
N59	N	0.915718	-0.004414	0.811918
N60	N	0.915704	-0.004422	0.879976
H61	H	0.946874	-0.051042	0.907469
N62	N	0.732703	-0.383673	-0.000175
N63	N	0.680098	-0.329329	-0.000149
H64	H	0.632323	-0.356733	-0.000120
H65	H	0.821518	0.282836	0.568912
N66	N	0.740955	0.256770	0.657865
N67	N	0.695988	0.226850	0.615354
H68	H	0.664801	0.273448	0.587859
H69	H	0.906733	0.008975	0.195510
N70	N	0.915701	-0.004417	0.341687
N71	N	0.954295	-0.062093	0.307639
H72	H	0.985488	-0.108701	0.335117
N73	N	0.820731	0.300730	0.422736
N74	N	0.817390	0.377814	0.456766
H75	H	0.814689	0.440109	0.429274
N76	N	0.397047	0.261398	0.085556
N77	N	0.362635	0.319817	0.123431
H78	H	0.387158	0.368073	0.154045
H79	H	0.910212	-0.371814	-0.000286
H80	H	0.749878	0.243379	0.333857
N81	N	0.835925	-0.048358	0.422765
N82	N	0.839282	-0.125441	0.456806
H83	H	0.841992	-0.187735	0.429322
N84	N	0.740892	0.256762	0.187676
N85	N	0.702299	0.314436	0.221726
H86	H	0.671103	0.361042	0.194250
N87	N	0.835922	-0.048344	0.576852
N88	N	0.835916	-0.048333	0.644910
H89	H	0.838617	-0.110615	0.672419
N90	N	0.259602	-0.009018	-0.086014
N91	N	0.294020	-0.067437	-0.123883
H92	H	0.269500	-0.115690	-0.154505
H93	H	0.398235	0.007467	-0.077190
N94	N	0.183820	-0.051413	-0.000232
N95	N	0.154044	-0.129163	-0.000234
H96	H	0.182315	-0.190954	-0.000222
N97	N	0.915644	-0.004520	0.657826
N98	N	0.954176	-0.062275	0.691852
H99	H	0.985266	-0.109011	0.664355
N100	N	0.025347	0.294826	-0.000287
N101	N	-0.015761	0.313287	-0.051339
H102	H	-0.044043	0.375067	-0.051353
H103	H	0.612534	0.288658	-0.000185
N104	N	0.740950	0.256775	0.811960
N105	N	0.695986	0.226855	0.854518
H106	H	0.664791	0.273452	0.882022
N107	N	0.250415	0.258477	0.085509
N108	N	0.185649	0.257187	0.085483
H109	H	0.157839	0.304411	0.116063
H110	H	0.165073	0.279719	-0.000254
N111	N	0.631306	-0.042459	-0.000138
N112	N	0.672412	-0.060917	0.050917
H113	H	0.700700	-0.122692	0.050930
N114	N	0.484651	-0.045388	-0.000172
N115	N	0.419884	-0.046671	-0.000185
H116	H	0.395824	-0.109494	-0.000181
