data_functionalizedCrystal
_audit_creation_method	'MofGen! by Chris Wilmer'
_symmetry_space_group_name_H-M	'P1'
_symmetry_Int_Tables_number	1
_symmetry_cell_setting	triclinic
loop_
_symmetry_equiv_pos_as_xyz
  x,y,z
_cell_length_a	6.394989
_cell_length_b	19.288864
_cell_length_c	18.366186
_cell_angle_alpha	89.977106
_cell_angle_beta	90.003129
_cell_angle_gamma	95.183021
loop_
_atom_site_label
_atom_site_type_symbol
_atom_site_fract_x
_atom_site_fract_y
_atom_site_fract_z
O1	O	-0.260546	0.923905	-0.060779
O2	O	-0.295693	0.721988	-0.060729
O3	O	0.025972	0.825812	-0.060755
O4	O	-0.582211	0.820080	-0.060753
O5	O	0.025987	0.825794	0.060344
O6	O	-0.295677	0.721970	0.060370
O7	O	-0.260530	0.923886	0.060320
Zn8	Zn	-0.278101	0.822925	0.079572
Zn9	Zn	-0.278122	0.822949	-0.079981
O10	O	-0.582195	0.820062	0.060347
C11	C	-0.294554	0.696092	-0.000173
C12	C	-0.291159	0.618955	-0.000154
N13	N	-0.278086	0.822914	0.188464
C14	C	-0.479898	0.576107	-0.000164
C15	C	-0.476708	0.503629	-0.000173
C16	C	-0.284770	0.474001	-0.000185
C17	C	-0.096007	0.516859	-0.000170
C18	C	-0.099202	0.589335	-0.000154
C19	C	-0.133890	0.364268	-0.042636
C20	C	-0.130704	0.291792	-0.042656
C21	C	-0.274908	0.250459	-0.000229
C22	C	-0.422335	0.281609	0.042209
C23	C	-0.425530	0.354086	0.042225
C24	C	-0.281284	0.395413	-0.000201
C25	C	-0.460201	0.129022	-0.000247
C26	C	-0.457004	0.056542	-0.000251
C27	C	-0.076297	0.069774	-0.000255
C28	C	-0.079500	0.142252	-0.000244
C29	C	-0.271458	0.171871	-0.000244
C30	C	0.103790	0.824670	-0.000208
C31	C	0.339993	0.821206	-0.000208
C32	C	-0.261669	0.949783	-0.000238
C33	C	-0.265064	1.026920	-0.000261
N34	N	-0.278121	0.822966	-0.188872
C35	C	-0.135722	0.868903	0.226552
C36	C	-0.135713	0.868908	0.302780
C37	C	-0.278103	0.822929	0.340916
C38	C	-0.420477	0.776931	0.302818
C39	C	-0.420469	0.776923	0.226592
C40	C	-0.468405	0.815495	0.461679
C41	C	-0.468416	0.815508	0.537904
C42	C	-0.278129	0.822949	0.576024
C43	C	-0.087823	0.830393	0.537910
C44	C	-0.087814	0.830385	0.461683
C45	C	-0.278127	0.822932	0.423571
C46	C	-0.135744	0.868946	0.696767
C47	C	-0.135732	0.868946	0.772997
C48	C	-0.420514	0.776973	0.773034
C49	C	-0.420508	0.776970	0.696806
C50	C	-0.278125	0.822960	0.658677
H51	H	-0.636205	0.600218	-0.000165
C52	C	0.031446	0.257530	-0.089341
C53	C	0.190089	0.302991	-0.136002
C54	C	0.352238	0.268731	-0.182690
C55	C	0.355745	0.189009	-0.182717
C56	C	0.197096	0.143543	-0.136054
C57	C	0.034947	0.177803	-0.089366
H58	H	0.187499	0.362010	-0.135984
H59	H	0.469681	0.302388	-0.217233
H60	H	0.475777	0.163647	-0.217278
H61	H	0.199686	0.084524	-0.136072
H62	H	-0.082495	0.144146	-0.054823
H63	H	0.067128	0.836452	0.568945
H64	H	-0.016457	0.397916	-0.077190
H65	H	-0.536410	0.739494	0.333873
H66	H	-0.539760	0.247957	0.076758
C67	C	-0.577131	0.726387	0.654901
C68	C	-0.733821	0.675829	0.696842
C69	C	-0.890446	0.625243	0.654938
C70	C	-0.890380	0.625214	0.571092
C71	C	-0.733683	0.675774	0.529146
C72	C	-0.577058	0.726360	0.571051
H73	H	-0.733876	0.675848	0.758915
H74	H	-1.006443	0.587815	0.685989
H75	H	-1.006322	0.587767	0.540071
H76	H	-0.733628	0.675754	0.467074
H77	H	-0.461061	0.763788	0.539999
H78	H	-0.623375	0.809451	0.568931
H79	H	-0.623370	0.809423	0.430648
C80	C	0.020887	0.919503	0.344688
C81	C	0.177434	0.970110	0.302746
C82	C	0.334030	1.020706	0.344651
C83	C	0.334080	1.020696	0.428497
C84	C	0.177527	0.970088	0.470443
C85	C	0.020930	0.919491	0.428539
H86	H	0.177403	0.970119	0.240674
H87	H	0.449921	1.058170	0.313599
H88	H	0.450002	1.058151	0.459517
H89	H	0.177558	0.970079	0.532515
H90	H	-0.094960	0.882028	0.459591
C91	C	0.020878	0.919536	0.814899
C92	C	0.177443	0.970137	0.772958
C93	C	0.334053	1.020729	0.814863
C94	C	0.334100	1.020719	0.898709
C95	C	0.177529	0.970117	0.940655
C96	C	0.020919	0.919525	0.898750
H97	H	0.177414	0.970146	0.710886
H98	H	0.449957	1.058189	0.783811
H99	H	0.450032	1.058170	0.929729
H100	H	0.177558	0.970108	1.002727
H101	H	-0.094985	0.882065	0.929802
C102	C	-0.587672	0.388353	0.088909
C103	C	-0.746304	0.342898	0.135580
C104	C	-0.908442	0.377166	0.182267
C105	C	-0.911947	0.456887	0.182283
C106	C	-0.753310	0.502347	0.135609
C107	C	-0.591172	0.468080	0.088922
H108	H	-0.743714	0.283879	0.135571
H109	H	-1.025876	0.343513	0.216818
H110	H	-1.031971	0.482254	0.216843
H111	H	-0.755900	0.561366	0.135619
H112	H	-0.473738	0.501732	0.054371
H113	H	-0.616505	0.153139	-0.000236
C114	C	0.020891	0.919527	0.654822
C115	C	0.258722	0.916282	0.665310
C116	C	0.415359	0.966863	0.623368
C117	C	0.334167	1.020690	0.570938
C118	C	0.096325	1.023938	0.560447
C119	C	-0.060313	0.973357	0.602389
H120	H	0.318836	0.876434	0.704124
H121	H	0.591426	0.964459	0.631134
H122	H	0.450119	1.058133	0.539889
H123	H	0.036210	1.063786	0.521633
H124	H	-0.236380	0.975761	0.594623
C125	C	0.108424	0.636472	-0.000148
C126	C	0.158586	0.688085	0.062743
C127	C	0.366214	0.735223	0.062748
C128	C	0.523679	0.730749	-0.000139
C129	C	0.473521	0.679135	-0.063035
C130	C	0.265893	0.631996	-0.063040
H131	H	0.042017	0.691398	0.109300
H132	H	0.403343	0.773432	0.109308
H133	H	0.677378	0.765644	-0.000136
H134	H	0.590090	0.675821	-0.109592
H135	H	0.228764	0.593788	-0.109600
H136	H	0.060271	0.492731	-0.000189
H137	H	-0.630407	0.468735	-0.000179
H138	H	-0.610704	0.021656	-0.000255
H139	H	0.067140	0.836444	0.430654
H140	H	-0.536443	0.739533	0.804083
C141	C	0.020910	0.919484	0.184609
C142	C	0.258741	0.916243	0.195100
C143	C	0.415375	0.966822	0.153154
C144	C	0.334179	1.020642	0.100716
C145	C	0.096336	1.023885	0.090223
C146	C	-0.060298	0.973306	0.132169
H147	H	0.318857	0.876400	0.233920
H148	H	0.591443	0.964420	0.160922
H149	H	0.450130	1.058083	0.069665
H150	H	0.036219	1.063728	0.051403
H151	H	-0.236366	0.975708	0.124401
H152	H	0.079983	0.045652	-0.000310
H153	H	0.074192	0.177139	-0.000239
H154	H	-0.536400	0.739472	0.195580
