data_functionalizedCrystal
_audit_creation_method	'MofGen! by Chris Wilmer'
_symmetry_space_group_name_H-M	'P1'
_symmetry_Int_Tables_number	1
_symmetry_cell_setting	triclinic
loop_
_symmetry_equiv_pos_as_xyz
  x,y,z
_cell_length_a	29.839134
_cell_length_b	29.839131
_cell_length_c	19.076919
_cell_angle_alpha	87.739939
_cell_angle_beta	87.718196
_cell_angle_gamma	90.015800
loop_
_atom_site_label
_atom_site_type_symbol
_atom_site_fract_x
_atom_site_fract_y
_atom_site_fract_z
Zn1	Zn	0.676554	-0.189296	0.397894
Zn2	Zn	0.679507	-0.261406	0.280178
Zn3	Zn	0.604449	-0.186266	0.280213
Zn4	Zn	0.601394	-0.264373	0.397833
O5	O	0.640476	-0.225335	0.339029
O6	O	0.739812	-0.198888	0.382289
O7	O	0.672065	-0.248929	0.181695
O8	O	0.614056	-0.123802	0.295864
O9	O	0.741982	-0.251867	0.295804
O10	O	0.667031	-0.126028	0.382323
O11	O	0.616920	-0.193724	0.181721
O12	O	0.541177	-0.196601	0.295805
O13	O	0.608850	-0.256923	0.496329
O14	O	0.538932	-0.253985	0.382219
O15	O	0.664069	-0.201765	0.496374
O16	O	0.669103	-0.324666	0.295745
O17	O	0.611714	-0.326845	0.382185
C18	C	0.523754	-0.225287	0.339010
C19	C	0.473819	-0.225277	0.339018
C20	C	0.640409	-0.342056	0.338970
C21	C	0.640421	-0.391991	0.338968
C22	C	0.116096	-0.197811	0.384151
C23	C	0.303769	-0.197775	0.384134
O24	O	0.327067	-0.174365	0.422504
N25	N	0.328374	-0.225307	0.339035
C26	C	0.306057	-0.252852	0.293939
O27	O	0.331291	-0.276273	0.255584
C28	C	0.118384	-0.252891	0.293960
C29	C	0.093782	-0.225354	0.339057
C30	C	0.091493	-0.170277	0.429245
C31	C	0.044578	-0.170284	0.429246
C32	C	0.022265	-0.197827	0.384153
C33	C	0.046867	-0.225361	0.339058
C34	C	0.096069	-0.280438	0.248868
C35	C	0.049147	-0.280447	0.248878
C36	C	0.024545	-0.252909	0.293976
C37	C	-0.022362	-0.252911	0.293965
N38	N	-0.046967	-0.225379	0.339065
C39	C	-0.024653	-0.197837	0.384159
C40	C	0.404588	-0.252830	0.293931
C41	C	0.451506	-0.252819	0.293925
C42	C	0.449215	-0.197742	0.384121
C43	C	0.402296	-0.197750	0.384123
C44	C	0.379983	-0.225297	0.339030
C45	C	-0.123179	-0.197855	0.384157
C46	C	-0.170099	-0.197863	0.384152
C47	C	-0.167803	-0.252942	0.293958
C48	C	-0.120888	-0.252932	0.293960
C49	C	-0.098577	-0.225387	0.339065
O50	O	-0.045690	-0.276312	0.255621
O51	O	-0.049895	-0.174427	0.422519
C52	C	0.163011	-0.197804	0.384150
C53	C	0.187613	-0.225338	0.339055
C54	C	0.165300	-0.252881	0.293962
C55	C	0.234531	-0.225328	0.339049
C56	C	0.256845	-0.197786	0.384143
C57	C	0.232240	-0.170254	0.429242
C58	C	0.185324	-0.170261	0.429243
C59	C	0.189905	-0.280413	0.248862
C60	C	0.236820	-0.280403	0.248864
C61	C	0.259133	-0.252860	0.293958
C62	C	0.668052	-0.702762	0.384113
C63	C	0.668100	-0.890436	0.384155
O64	O	0.691527	-0.915658	0.422495
N65	N	0.640550	-0.912779	0.339108
C66	C	0.612985	-0.888202	0.294049
O67	O	0.589550	-0.911513	0.255740
C68	C	0.612935	-0.700529	0.294011
C69	C	0.640490	-0.678187	0.339057
C70	C	0.695604	-0.680420	0.429155
C71	C	0.695594	-0.633504	0.429141
C72	C	0.668032	-0.608930	0.384085
C73	C	0.640479	-0.631271	0.339043
C74	C	0.585367	-0.675952	0.248957
C75	C	0.585356	-0.629031	0.248953
C76	C	0.612911	-0.606689	0.293998
C77	C	0.612906	-0.559781	0.293973
N78	N	0.640456	-0.537438	0.339021
C79	C	0.668019	-0.562012	0.384077
C80	C	0.613013	-0.986733	0.294072
C81	C	0.613026	-1.033651	0.294080
C82	C	0.668141	-1.035882	0.384187
C83	C	0.668130	-0.988963	0.384174
C84	C	0.640563	-0.964389	0.339119
C85	C	0.667995	-0.463485	0.384044
C86	C	0.667983	-0.416565	0.384024
C87	C	0.612867	-0.414339	0.293921
C88	C	0.612880	-0.461255	0.293937
C89	C	0.640445	-0.485827	0.339005
O90	O	0.589488	-0.534531	0.255659
O91	O	0.691443	-0.538693	0.422392
C92	C	0.668063	-0.749677	0.384127
C93	C	0.640511	-0.772019	0.339084
C94	C	0.612948	-0.747445	0.294028
C95	C	0.640523	-0.818937	0.339093
C96	C	0.668086	-0.843511	0.384149
C97	C	0.695636	-0.821167	0.429196
C98	C	0.695625	-0.774252	0.429183
C99	C	0.585398	-0.769788	0.248981
C100	C	0.585411	-0.816704	0.248997
C101	C	0.612974	-0.841279	0.294054
C102	C	0.757654	-0.225385	0.339049
C103	C	0.807588	-0.225406	0.339058
C104	C	0.635789	-0.230013	0.522602
C105	C	0.633792	-0.232006	0.600830
C106	C	0.640555	-0.108159	0.339104
C107	C	0.640589	-0.058225	0.339136
C108	C	0.645170	-0.220644	0.156171
C109	C	0.647255	-0.218524	0.077943
C110	C	0.661602	-0.204226	0.637606
C111	C	0.659720	-0.206097	0.711109
C112	C	0.630030	-0.235751	0.747835
C113	C	0.602217	-0.263532	0.711054
C114	C	0.604097	-0.261659	0.637552
C115	C	0.621322	-0.244432	0.967660
C116	C	0.619445	-0.246304	1.041167
C117	C	0.676948	-0.188868	1.041218
C118	C	0.678827	-0.186999	0.967714
C119	C	0.651012	-0.214779	0.930939
N120	N	0.628106	-0.237665	0.822968
N121	N	0.652934	-0.212862	0.855809
H122	H	-0.105019	-0.175425	0.420885
O123	O	0.113182	-0.143585	0.473126
C124	C	0.139177	-0.170348	0.518501
H125	H	0.124934	-0.205849	0.522746
H126	H	0.138325	-0.155529	0.572711
H127	H	0.175290	-0.171306	0.496739
H128	H	0.562929	-0.694134	0.212276
H129	H	0.718049	-0.700424	0.465849
H130	H	0.595266	-0.270453	1.071068
O131	O	0.707699	-0.158245	0.931995
C132	C	0.737779	-0.182735	0.889436
H133	H	0.739990	-0.218681	0.911565
H134	H	0.772377	-0.166461	0.888595
H135	H	0.725296	-0.182866	0.833737
O136	O	0.594346	-0.271480	0.931982
C137	C	0.603659	-0.316718	0.949929
H138	H	0.639035	-0.319524	0.970126
H139	H	0.600996	-0.337680	0.901579
H140	H	0.578480	-0.329532	0.992592
H141	H	0.578041	-0.287676	0.740962
O142	O	0.722342	-0.845067	0.473040
C143	C	0.695581	-0.873367	0.518446
H144	H	0.660086	-0.859348	0.522737
H145	H	0.710415	-0.875260	0.572636
H146	H	0.694604	-0.908377	0.496685
O147	O	0.694889	-1.059711	0.428056
C148	C	0.683228	-1.050025	0.498185
H149	H	0.665916	-1.016003	0.499612
H150	H	0.714823	-1.049203	0.529799
H151	H	0.659515	-1.077037	0.521853
O152	O	0.558601	-0.838334	0.205213
C153	C	0.534281	-0.806577	0.165435
H154	H	0.531974	-0.773857	0.194253
H155	H	0.499082	-0.819956	0.157885
H156	H	0.552121	-0.800238	0.112003
H157	H	0.562906	-0.609025	0.212264
O158	O	0.577071	-0.288695	0.601935
C159	C	0.550457	-0.315266	0.650109
H160	H	0.567515	-0.318160	0.702510
H161	H	0.546191	-0.350120	0.628850
H162	H	0.516145	-0.299005	0.657922
O163	O	0.586075	-0.482890	0.250155
C164	C	0.561756	-0.451136	0.210370
H165	H	0.559446	-0.418414	0.239183
H166	H	0.526558	-0.464517	0.202818
H167	H	0.579597	-0.444800	0.156939
H168	H	0.024551	-0.147863	0.465972
H169	H	0.562953	-0.749784	0.212291
O170	O	0.586222	-1.055281	0.250295
C171	C	0.561901	-1.023524	0.210518
H172	H	0.559589	-0.990806	0.239340
H173	H	0.526704	-1.036906	0.202961
H174	H	0.579743	-1.017181	0.157088
H175	H	0.382268	-0.175327	0.420845
O176	O	-0.193929	-0.171101	0.428030
C177	C	-0.164169	-0.146784	0.467818
H178	H	-0.130788	-0.165244	0.470195
H179	H	-0.179135	-0.143461	0.523286
H180	H	-0.158522	-0.111984	0.442148
O181	O	0.470964	-0.171031	0.427907
C182	C	0.517650	-0.176923	0.418213
H183	H	0.524638	-0.210977	0.395047
H184	H	0.534144	-0.175275	0.470936
H185	H	0.531918	-0.149281	0.380818
O186	O	0.703917	-0.161899	1.077050
C187	C	0.695901	-0.169917	1.149800
H188	H	0.660965	-0.184873	1.159821
H189	H	0.698255	-0.136979	1.177756
H190	H	0.722000	-0.194382	1.170651
O191	O	0.475333	-0.279607	0.250089
C192	C	0.445572	-0.303909	0.210282
H193	H	0.411396	-0.306230	0.239112
H194	H	0.459315	-0.339103	0.202666
H195	H	0.441940	-0.286047	0.156879
H196	H	0.256847	-0.302826	0.212134
O197	O	0.168304	-0.307180	0.204987
C198	C	0.200087	-0.331484	0.165198
H199	H	0.233593	-0.313012	0.162826
H200	H	0.187947	-0.334809	0.109728
H201	H	0.204420	-0.366283	0.190865
O202	O	0.690455	-0.175380	0.602042
C203	C	0.714605	-0.151269	0.650267
H204	H	0.694864	-0.151042	0.702658
H205	H	0.719964	-0.115334	0.629057
H206	H	0.748513	-0.167934	0.658084
H207	H	0.116092	-0.302862	0.212145
H208	H	0.386426	-0.275263	0.257208
H209	H	0.030983	-0.302880	0.212160
H210	H	-0.100855	-0.275351	0.257232
O211	O	0.686669	-0.179060	0.746860
C212	C	0.660022	-0.151121	0.789393
H213	H	0.625207	-0.147773	0.767234
H214	H	0.676269	-0.116575	0.790243
H215	H	0.657042	-0.166424	0.845093
O216	O	-0.189507	-0.279746	0.250259
C217	C	-0.217673	-0.309812	0.290253
H218	H	-0.204939	-0.314048	0.345673
H219	H	-0.217565	-0.343712	0.264701
H220	H	-0.253291	-0.295990	0.292727
O221	O	0.161497	-0.143501	0.473121
C222	C	0.191261	-0.119185	0.512904
H223	H	0.224641	-0.137647	0.515275
H224	H	0.176300	-0.115862	0.568375
H225	H	0.196908	-0.084386	0.487233
H226	H	0.690423	-0.398376	0.420706
O227	O	0.253938	-0.143566	0.473123
C228	C	0.279929	-0.170344	0.518482
H229	H	0.265673	-0.205840	0.522722
H230	H	0.279090	-0.155532	0.572696
H231	H	0.316039	-0.171314	0.496709
O232	O	0.694811	-0.487281	0.427847
C233	C	0.719114	-0.457494	0.467609
H234	H	0.721412	-0.423327	0.438766
H235	H	0.754318	-0.471218	0.475179
H236	H	0.701267	-0.453850	0.521033
O237	O	0.586043	-0.390444	0.250259
C238	C	0.555991	-0.364318	0.290293
H239	H	0.551778	-0.379857	0.345721
H240	H	0.522079	-0.363157	0.264796
H241	H	0.569812	-0.328816	0.292735
O242	O	0.722371	-0.611876	0.472969
C243	C	0.746705	-0.643635	0.512722
H244	H	0.728246	-0.677148	0.515132
H245	H	0.750050	-0.631475	0.568181
H246	H	0.781497	-0.647962	0.487000
H247	H	0.690567	-0.970775	0.420855
H248	H	0.718063	-0.756065	0.465863
O249	O	0.586299	-0.962814	0.250264
C250	C	0.613052	-0.934528	0.204825
H251	H	0.646446	-0.928100	0.229697
H252	H	0.594987	-0.901310	0.195352
H253	H	0.619355	-0.951300	0.152683
