data_functionalizedCrystal
_audit_creation_method	'MofGen! by Chris Wilmer'
_symmetry_space_group_name_H-M	'P1'
_symmetry_Int_Tables_number	1
_symmetry_cell_setting	triclinic
loop_
_symmetry_equiv_pos_as_xyz
  x,y,z
_cell_length_a	6.817900
_cell_length_b	11.168130
_cell_length_c	12.200875
_cell_angle_alpha	92.527366
_cell_angle_beta	107.143593
_cell_angle_gamma	108.508653
loop_
_atom_site_label
_atom_site_type_symbol
_atom_site_fract_x
_atom_site_fract_y
_atom_site_fract_z
V1	V	-4.093963	-0.174991	-0.357670
V2	V	-3.593963	0.325009	0.142330
O3	O	-4.053850	0.008114	-0.350852
O4	O	-3.553850	0.508114	0.149148
O5	O	-4.070359	-0.346695	-0.355233
O6	O	-3.570359	0.153305	0.144767
O7	O	-4.063310	-0.172429	-0.513658
O8	O	-3.563310	0.327571	-0.013658
O9	O	-4.060948	-0.167358	-0.191330
O10	O	-3.560948	0.332642	0.308670
V11	V	-4.572078	-0.153075	-0.337773
V12	V	-4.072078	0.346925	0.162227
O13	O	-4.367084	-0.223068	-0.401315
O14	O	-3.867084	0.276932	0.098685
O15	O	-4.749154	-0.104998	-0.294128
O16	O	-4.249154	0.395002	0.205872
O17	O	-4.372475	0.018629	-0.340211
O18	O	-3.872475	0.518629	0.159789
O19	O	-4.729587	-0.336180	-0.344591
O20	O	-4.229587	0.163820	0.155409
O21	O	-4.722490	-0.160708	-0.504113
O22	O	-4.222490	0.339292	-0.004113
O23	O	-4.379524	-0.155637	-0.181785
O24	O	-3.879524	0.344363	0.318215
C25	C	-3.920818	-0.388548	-0.349593
C26	C	-3.420818	0.111452	0.150407
C27	C	-3.982925	-0.528919	-0.348640
C28	C	-3.482925	-0.028919	0.151360
C29	C	-3.911825	-0.166254	-0.551679
C30	C	-3.411825	0.333746	-0.051679
C31	C	-3.968211	-0.165295	-0.679200
C32	C	-3.468211	0.334705	-0.179200
C33	C	-4.022432	-0.719358	-0.247399
C34	C	-3.522432	-0.219358	0.252601
C35	C	-3.958241	-0.574277	-0.248382
C36	C	-3.458241	-0.074277	0.251618
C37	C	-4.071406	-0.163541	-0.912674
C38	C	-3.571406	0.336459	-0.412674
C39	C	-4.013972	-0.164516	-0.782752
C40	C	-3.513972	0.335484	-0.282752
C41	C	-4.185359	0.060476	-0.345847
C42	C	-3.685359	0.560476	0.154153
C43	C	-4.102491	0.200845	-0.346808
C44	C	-3.602491	0.700845	0.153192
C45	C	-4.194351	-0.161816	-0.143759
C46	C	-3.694351	0.338184	0.356241
C47	C	-4.117203	-0.162769	-0.016236
C48	C	-3.617203	0.337231	0.483764
H49	H	-4.001404	-0.758447	-0.161564
H50	H	-3.501404	-0.258447	0.338436
Br51	Br	-3.843847	-0.460017	-0.106524
Br52	Br	-3.343847	0.039983	0.393476
H53	H	-4.051577	-0.597470	-0.433751
H54	H	-3.551577	-0.097470	0.066249
H55	H	-4.123499	-0.760065	-0.432643
H56	H	-3.623499	-0.260065	0.067357
