data_functionalizedCrystal
_audit_creation_method	'MofGen! by Chris Wilmer'
_symmetry_space_group_name_H-M	'P1'
_symmetry_Int_Tables_number	1
_symmetry_cell_setting	triclinic
loop_
_symmetry_equiv_pos_as_xyz
  x,y,z
_cell_length_a	15.455313
_cell_length_b	17.699083
_cell_length_c	17.699083
_cell_angle_alpha	96.716985
_cell_angle_beta	87.341275
_cell_angle_gamma	87.330194
loop_
_atom_site_label
_atom_site_type_symbol
_atom_site_fract_x
_atom_site_fract_y
_atom_site_fract_z
O1	O	0.072010	-1.007394	0.092400
O2	O	0.572010	-0.507394	0.592400
O3	O	0.072039	-0.787017	0.104851
O4	O	0.572039	-0.287017	0.604851
O5	O	0.072016	-0.903431	-0.011563
O6	O	0.572016	-0.403431	0.488437
O7	O	0.072033	-0.890979	0.208814
O8	O	0.572033	-0.390979	0.708814
O9	O	-0.072244	-0.896774	-0.004933
O10	O	0.427756	-0.396774	0.495067
O11	O	-0.072222	-0.780360	0.111481
O12	O	0.427778	-0.280360	0.611481
O13	O	-0.072250	-1.000737	0.099030
O14	O	0.427750	-0.500737	0.599030
Cu15	Cu	-0.085408	-0.889940	0.105861
Cu16	Cu	0.414592	-0.389940	0.605861
Cu17	Cu	0.085197	-0.897813	0.098020
Cu18	Cu	0.585197	-0.397813	0.598020
O19	O	-0.072228	-0.884322	0.215444
O20	O	0.427772	-0.384322	0.715444
C21	C	-0.000088	-0.755491	0.107720
C22	C	0.499912	-0.255491	0.607720
C23	C	-0.000077	-0.671474	0.106381
C24	C	0.499923	-0.171474	0.606381
N25	N	-0.205403	-0.884409	0.111375
N26	N	0.294597	-0.384409	0.611375
C27	C	-0.000114	-0.899656	-0.036445
C28	C	0.499886	-0.399656	0.463555
C29	C	-0.000114	-0.898318	-0.120463
C30	C	0.499886	-0.398318	0.379537
C31	C	-0.250806	-0.933883	0.061936
C32	C	0.249194	-0.433883	0.561936
C33	C	-0.341613	-0.929706	0.066113
C34	C	0.158387	-0.429706	0.566113
C35	C	-0.387015	-0.876059	0.119733
C36	C	0.112985	-0.376059	0.619733
C37	C	-0.341605	-0.826580	0.169174
C38	C	0.158395	-0.326580	0.669174
C39	C	-0.250800	-0.830753	0.164993
C40	C	0.249200	-0.330753	0.664993
C41	C	-0.658593	-0.858045	0.137760
C42	C	-0.158593	-0.358045	0.637760
C43	C	-0.749405	-0.853877	0.141939
C44	C	-0.249405	-0.353877	0.641939
C45	C	-0.749407	-0.957003	0.038877
C46	C	-0.249407	-0.457003	0.538877
C47	C	-0.658600	-0.961175	0.034703
C48	C	-0.158600	-0.461175	0.534703
C49	C	-0.613198	-0.911693	0.084142
C50	C	-0.113198	-0.411693	0.584142
N51	N	-0.479835	-0.871790	0.124005
N52	N	0.020165	-0.371790	0.624005
N53	N	-0.520380	-0.915958	0.079865
N54	N	-0.020380	-0.415958	0.579865
N55	N	0.205191	-0.903351	0.092500
N56	N	0.705191	-0.403351	0.592500
C57	C	-0.000122	-1.032262	0.096161
C58	C	0.499878	-0.532262	0.596161
C59	C	-0.000127	-1.116280	0.097500
C60	C	0.499873	-0.616280	0.597500
C61	C	-0.000072	-0.622853	0.174714
C62	C	0.499928	-0.122853	0.674714
C63	C	-0.000083	-0.543909	0.173452
C64	C	0.499917	-0.043909	0.673452
C65	C	-0.000093	-0.513588	0.103856
C66	C	0.499907	-0.013588	0.603856
C67	C	-0.000101	-0.562215	0.035518
C68	C	0.499899	-0.062215	0.535518
C69	C	-0.000096	-0.641157	0.036781
C70	C	0.499904	-0.141157	0.536781
C71	C	-0.000123	-0.243851	0.030423
C72	C	0.499877	0.256149	0.530423
C73	C	-0.000125	-0.164903	0.029166
C74	C	0.499875	0.335097	0.529166
C75	C	-0.000110	-0.146603	0.167095
C76	C	0.499890	0.353397	0.667095
C77	C	-0.000105	-0.225545	0.168358
C78	C	0.499895	0.274455	0.668358
C79	C	-0.000117	-0.274165	0.100020
C80	C	0.499883	0.225835	0.600020
C81	C	-0.000107	-0.359764	0.101389
C82	C	0.499893	0.140236	0.601389
C83	C	-0.000098	-0.427990	0.102486
C84	C	0.499902	0.072010	0.602486
C85	C	-0.000124	-0.966651	-0.169084
C86	C	0.499876	-0.466651	0.330916
C87	C	-0.000117	-0.965389	-0.248028
C88	C	0.499883	-0.465389	0.251972
C89	C	-0.000105	-0.895793	-0.278349
C90	C	0.499895	-0.395793	0.221651
C91	C	-0.000092	-0.827455	-0.229722
C92	C	0.499908	-0.327455	0.270278
C93	C	-0.000094	-0.828718	-0.150780
C94	C	0.499906	-0.328718	0.349220
C95	C	-0.000084	-0.822360	-0.548086
C96	C	0.499916	-0.322360	-0.048086
C97	C	-0.000085	-0.821102	-0.627034
C98	C	0.499915	-0.321102	-0.127034
C99	C	-0.000107	-0.959031	-0.645333
C100	C	0.499893	-0.459031	-0.145333
C101	C	-0.000109	-0.960294	-0.566391
C102	C	0.499891	-0.460294	-0.066391
C103	C	-0.000092	-0.891956	-0.517772
C104	C	0.499908	-0.391956	-0.017772
C105	C	-0.000098	-0.893326	-0.432172
C106	C	0.499902	-0.393326	0.067828
C107	C	-0.000104	-0.894423	-0.363947
C108	C	0.499896	-0.394423	0.136053
C109	C	-0.000095	-0.888097	0.240326
C110	C	0.499905	-0.388097	0.740326
C111	C	-0.000089	-0.889436	0.324344
C112	C	0.499911	-0.389436	0.824344
H113	H	-0.213846	-0.977571	0.018276
H114	H	0.286154	-0.477571	0.518276
C115	C	-0.000119	-1.040553	-0.301511
C116	C	0.499881	-0.540553	0.198489
H117	H	-0.000102	-1.029837	-0.352869
H118	H	0.499898	-0.529837	0.147131
H119	H	-0.050428	-1.066781	-0.290031
H120	H	0.449572	-0.566781	0.209969
H121	H	0.050192	-1.071413	-0.294635
H122	H	0.550192	-0.571413	0.205365
C123	C	-0.000111	-0.528863	-0.041036
C124	C	0.499889	-0.028863	0.458964
H125	H	-0.000104	-0.474885	-0.032003
H126	H	0.499896	0.025115	0.467997
H127	H	-0.050418	-0.543246	-0.066856
H128	H	0.449582	-0.043246	0.433144
H129	H	0.050202	-0.547878	-0.071476
H130	H	0.550202	-0.047878	0.428524
H131	H	-0.213833	-0.790465	0.205250
H132	H	0.286167	-0.290465	0.705250
H133	H	-0.000078	-0.504325	0.229096
H134	H	0.499922	-0.004325	0.729096
C135	C	-0.000139	-0.131547	-0.047391
C136	C	0.499861	0.368453	0.452609
H137	H	-0.000130	-0.077569	-0.038353
H138	H	0.499870	0.422431	0.461647
H139	H	-0.050450	-0.145925	-0.073209
H140	H	0.449550	0.354075	0.426791
H141	H	0.050170	-0.150560	-0.077835
H142	H	0.550170	0.349440	0.422165
C143	C	-0.000100	-0.694643	-0.038384
C144	C	0.499900	-0.194643	0.461616
H145	H	-0.000105	-0.746000	-0.027664
H146	H	0.499895	-0.246000	0.472336
H147	H	0.050201	-0.687783	-0.069243
H148	H	0.550201	-0.187783	0.430757
H149	H	-0.050419	-0.683149	-0.064611
H150	H	0.449581	-0.183149	0.435389
C151	C	-0.000081	-0.747191	-0.494614
C152	C	0.499919	-0.247191	0.005386
H153	H	-0.000085	-0.705563	-0.523980
H154	H	0.499915	-0.205563	-0.023980
H155	H	0.050224	-0.747130	-0.465744
H156	H	0.550224	-0.247130	0.034256
H157	H	-0.050396	-0.742498	-0.461132
H158	H	0.449604	-0.242498	0.038868
C159	C	-0.391558	-0.984125	0.011731
C160	C	0.108442	-0.484125	0.511731
H161	H	-0.452141	-0.973951	0.021892
H162	H	0.047859	-0.473951	0.521892
H163	H	-0.376671	-1.035304	0.019202
H164	H	0.123329	-0.535304	0.519202
H165	H	-0.376683	-0.976681	-0.039459
H166	H	0.123317	-0.476681	0.460541
H167	H	-0.621636	-1.004859	-0.008958
H168	H	-0.121636	-0.504859	0.491042
H169	H	-0.000117	-1.014675	-0.684929
H170	H	0.499883	-0.514675	-0.184929
C171	C	-0.000130	-0.297322	-0.044745
C172	C	0.499870	0.202678	0.455255
H173	H	-0.000128	-0.267956	-0.086373
H174	H	0.499872	0.232044	0.413627
H175	H	-0.050436	-0.326183	-0.044810
H176	H	0.449564	0.173817	0.455190
H177	H	0.050184	-0.330813	-0.049434
H178	H	0.550184	0.169187	0.450566
H179	H	-0.000139	-1.023324	-0.144403
H180	H	0.499861	-0.523324	0.355597
C181	C	-0.000118	-1.036849	-0.533041
C182	C	0.499882	-0.536849	-0.033041
H183	H	-0.000114	-1.077367	-0.573306
H184	H	0.499886	-0.577367	-0.073306
H185	H	-0.050424	-1.037890	-0.500316
H186	H	0.449576	-0.537890	-0.000316
H187	H	0.050196	-1.042526	-0.504938
H188	H	0.550196	-0.542526	-0.004938
C189	C	-0.000061	-0.744544	-0.660386
C190	C	0.499939	-0.244544	-0.160386
H191	H	-0.000041	-0.704025	-0.620125
H192	H	0.499959	-0.204025	-0.120125
H193	H	-0.050366	-0.738857	-0.688493
H194	H	0.449634	-0.238857	-0.188493
H195	H	0.050254	-0.743517	-0.693110
H196	H	0.550254	-0.243517	-0.193110
C197	C	-0.000082	-0.750901	-0.263074
C198	C	0.499918	-0.250901	0.236926
H199	H	-0.000092	-0.759934	-0.317052
H200	H	0.499908	-0.259934	0.182948
H201	H	0.050228	-0.725090	-0.248686
H202	H	0.550228	-0.225090	0.251314
H203	H	-0.050392	-0.720452	-0.244065
H204	H	0.449608	-0.220452	0.255935
H205	H	-0.000085	-0.773074	-0.111194
H206	H	0.499915	-0.273074	0.388806
H207	H	-0.786382	-0.997288	-0.001375
H208	H	-0.286382	-0.497288	0.498625
H209	H	-0.786367	-0.810188	0.185606
H210	H	-0.286367	-0.310188	0.685606
C211	C	-0.000060	-0.656200	0.251270
C212	C	0.499940	-0.156200	0.751270
H213	H	-0.000067	-0.615933	0.291786
H214	H	0.499933	-0.115933	0.791786
H215	H	0.050248	-0.688929	0.252320
H216	H	0.550248	-0.188929	0.752320
H217	H	-0.050372	-0.684298	0.256942
H218	H	0.449628	-0.184298	0.756942
H219	H	-0.621634	-0.817756	0.178016
H220	H	-0.121634	-0.317756	0.678016
H221	H	-0.378576	-0.782895	0.212830
H222	H	0.121424	-0.282895	0.712830
H223	H	-0.000093	-0.250228	0.225030
H224	H	0.499907	0.249772	0.725030
H225	H	-0.000105	-0.107007	0.222739
H226	H	0.499895	0.392993	0.722739
