data_functionalizedCrystal
_audit_creation_method	'MofGen! by Chris Wilmer'
_symmetry_space_group_name_H-M	'P1'
_symmetry_Int_Tables_number	1
_symmetry_cell_setting	triclinic
loop_
_symmetry_equiv_pos_as_xyz
  x,y,z
_cell_length_a	12.759401
_cell_length_b	21.295417
_cell_length_c	12.759393
_cell_angle_alpha	89.961877
_cell_angle_beta	89.980387
_cell_angle_gamma	90.029933
loop_
_atom_site_label
_atom_site_type_symbol
_atom_site_fract_x
_atom_site_fract_y
_atom_site_fract_z
Zn1	Zn	1.606146	-0.250568	-0.593965
Zn2	Zn	2.106146	0.249432	-0.093965
Zn3	Zn	1.605994	-0.355852	-0.418265
Zn4	Zn	2.105994	0.144148	0.081735
Zn5	Zn	1.430448	-0.250601	-0.418301
Zn6	Zn	1.930448	0.249399	0.081699
Zn7	Zn	1.430390	-0.355804	-0.593903
Zn8	Zn	1.930390	0.144196	-0.093903
O9	O	1.518245	-0.303206	-0.506108
O10	O	2.018245	0.196794	-0.006108
O11	O	1.753147	-0.264541	-0.570669
O12	O	2.253147	0.235459	-0.070669
O13	O	1.582668	-0.341925	-0.271248
O14	O	2.082668	0.158075	0.228752
O15	O	1.453842	-0.162507	-0.441644
O16	O	1.953842	0.337493	0.058356
O17	O	1.753035	-0.341892	-0.441583
O18	O	2.253035	0.158108	0.058417
O19	O	1.582927	-0.162483	-0.570704
O20	O	2.082927	0.337517	-0.070704
O21	O	1.453695	-0.264597	-0.271275
O22	O	1.953695	0.235403	0.228725
O23	O	1.283419	-0.264550	-0.441584
O24	O	1.783419	0.235450	0.058416
O25	O	1.453744	-0.341810	-0.740932
O26	O	1.953744	0.158190	-0.240932
O27	O	1.283377	-0.341842	-0.570598
O28	O	1.783377	0.158158	-0.070598
O29	O	1.582871	-0.264494	-0.740978
O30	O	2.082871	0.235506	-0.240978
O31	O	1.582613	-0.443935	-0.441523
O32	O	2.082613	0.056065	0.058477
O33	O	1.453597	-0.443900	-0.570563
O34	O	1.953597	0.056100	-0.070563
C35	C	1.518111	-0.466758	-0.506055
C36	C	2.018111	0.033242	-0.006055
C37	C	1.518150	-0.536726	-0.506067
C38	C	2.018150	-0.036726	-0.006067
C39	C	1.245277	-0.303195	-0.506089
C40	C	1.745277	0.196805	-0.006089
C41	C	1.128501	-0.303205	-0.506105
C42	C	1.628501	0.196795	-0.006105
C43	C	1.073584	-0.343418	-0.438798
C44	C	1.573584	0.156582	0.061202
C45	C	0.963860	-0.343429	-0.438817
C46	C	1.463860	0.156571	0.061183
C47	C	0.963979	-0.263009	-0.573451
C48	C	1.463979	0.236991	-0.073451
C49	C	1.073701	-0.263002	-0.573438
C50	C	1.573701	0.236998	-0.073438
C51	C	1.128384	-0.383621	-0.371466
C52	C	1.628384	0.116379	0.128534
C53	C	1.073468	-0.423837	-0.304153
C54	C	1.573468	0.076163	0.195847
C55	C	0.963744	-0.423847	-0.304171
C56	C	1.463744	0.076153	0.195829
C57	C	0.908936	-0.383643	-0.371502
C58	C	1.408936	0.116357	0.128498
C59	C	1.585325	-0.569523	-0.573317
C60	C	2.085325	-0.069523	-0.073317
C61	C	1.585363	-0.635265	-0.573343
C62	C	2.085363	-0.135265	-0.073343
C63	C	1.518235	-0.668209	-0.506101
C64	C	2.018235	-0.168209	-0.006101
C65	C	1.451046	-0.635404	-0.438846
C66	C	1.951046	-0.135404	0.061154
C67	C	1.451003	-0.569663	-0.438830
C68	C	1.951003	-0.069663	0.061170
N69	N	1.510296	-0.771478	-0.414154
N70	N	2.010296	-0.271478	0.085846
N71	N	1.510342	-0.833929	-0.414173
N72	N	2.010342	-0.333929	0.085827
C73	C	1.518357	-0.866283	-0.506148
C74	C	2.018357	-0.366283	-0.006148
N75	N	1.526345	-0.833827	-0.598106
N76	N	2.026345	-0.333827	-0.098106
N77	N	1.526304	-0.771369	-0.598086
N78	N	2.026304	-0.271369	-0.098086
C79	C	1.518273	-0.739494	-0.506111
C80	C	2.018273	-0.239494	-0.006111
C81	C	1.585577	-0.970366	-0.573431
C82	C	2.085577	-0.470366	-0.073431
C83	C	1.585607	-1.036109	-0.573459
C84	C	2.085607	-0.536109	-0.073459
C85	C	1.451296	-1.036247	-0.438953
C86	C	1.951296	-0.536247	0.061047
C87	C	1.451260	-0.970504	-0.438935
C88	C	1.951260	-0.470504	0.061065
C89	C	1.518407	-0.937568	-0.506172
C90	C	2.018407	-0.437568	-0.006172
C91	C	1.792278	-0.303218	-0.506129
C92	C	2.292278	0.196782	-0.006129
C93	C	1.909054	-0.303223	-0.506137
C94	C	2.409054	0.196777	-0.006137
C95	C	1.518318	-0.303143	-0.780142
C96	C	2.018318	0.196857	-0.280142
C97	C	1.518350	-0.303116	-0.896918
C98	C	2.018350	0.196884	-0.396918
C99	C	1.518408	-0.139016	-0.506185
C100	C	2.018408	0.360984	-0.006185
C101	C	1.518477	-0.069048	-0.506217
C102	C	2.018477	0.430952	-0.006217
C103	C	1.585595	-0.262853	-0.951806
C104	C	2.085595	0.237147	-0.451806
C105	C	1.585620	-0.262831	-1.061530
C106	C	2.085620	0.237169	-0.561530
C107	C	1.451151	-0.343338	-1.061470
C108	C	1.951151	0.156662	-0.561470
C109	C	1.451122	-0.343357	-0.951748
C110	C	1.951122	0.156643	-0.451748
C111	C	1.652823	-0.222612	-0.896977
C112	C	2.152823	0.277388	-0.396977
C113	C	1.720075	-0.182347	-0.951864
C114	C	2.220075	0.317653	-0.451864
C115	C	1.720100	-0.182324	-1.061589
C116	C	2.220100	0.317676	-0.561589
C117	C	1.652873	-0.222567	-1.116425
C118	C	2.152873	0.277433	-0.616425
C119	C	1.518232	-0.303224	-0.233141
C120	C	2.018232	0.196776	0.266859
C121	C	1.518404	-0.303074	-0.116365
C122	C	2.018404	0.196926	0.383635
H123	H	1.217727	-0.383616	-0.371441
H124	H	1.717727	0.116384	0.128559
N125	N	1.652909	-0.222552	-1.228506
N126	N	2.152909	0.277448	-0.728506
N127	N	1.674834	-0.271648	-1.277452
N128	N	2.174834	0.228352	-0.777452
H129	H	1.674864	-0.271640	-1.356608
H130	H	2.174864	0.228360	-0.856608
H131	H	1.396632	-1.063068	-0.384210
H132	H	1.896632	-0.563068	0.115790
H133	H	1.396348	-0.376133	-0.907057
H134	H	1.896348	0.123867	-0.407057
H135	H	1.640249	-0.943548	-0.628183
H136	H	2.140249	-0.443548	-0.128183
H137	H	1.774802	-0.149579	-0.907209
H138	H	2.274802	0.350421	-0.407209
N139	N	1.382636	-0.937009	-0.370232
N140	N	1.882636	-0.437009	0.129768
N141	N	1.322700	-0.966427	-0.310202
N142	N	1.822700	-0.466427	0.189798
H143	H	1.274227	-0.942772	-0.261679
H144	H	1.774227	-0.442772	0.238321
H145	H	1.639997	-0.542708	-0.628068
H146	H	2.139997	-0.042708	-0.128068
H147	H	1.640309	-1.062811	-0.628226
H148	H	2.140309	-0.562811	-0.128226
N149	N	1.788772	-0.141185	-1.117657
N150	N	2.288772	0.358815	-0.617657
N151	N	1.781861	-0.083101	-1.105433
N152	N	2.281861	0.416899	-0.605433
H153	H	1.830365	-0.054046	-1.145030
H154	H	2.330365	0.445954	-0.645030
N155	N	1.129463	-0.464905	-0.235397
N156	N	1.629463	0.035095	0.264603
N157	N	1.227428	-0.464892	-0.235390
N158	N	1.727428	0.035108	0.264610
H159	H	1.266975	-0.493898	-0.186831
H160	H	1.766975	0.006102	0.313169
N161	N	0.907663	-0.464935	-0.235422
N162	N	1.407663	0.035065	0.264578
N163	N	0.956608	-0.500828	-0.175317
N164	N	1.456608	-0.000828	0.324683
H165	H	0.917004	-0.529846	-0.126758
H166	H	1.417004	-0.029846	0.373242
N167	N	1.382490	-0.384437	-1.117497
N168	N	1.882490	0.115563	-0.617497
N169	N	1.382527	-0.384414	-1.215462
N170	N	1.882527	0.115586	-0.715462
H171	H	1.334035	-0.413441	-1.255032
H172	H	1.834035	0.086559	-0.755032
N173	N	0.796855	-0.383668	-0.371519
N174	N	1.296855	0.116332	0.128481
N175	N	0.747832	-0.419579	-0.311424
N176	N	1.247832	0.080421	0.188576
H177	H	0.668676	-0.419596	-0.311432
H178	H	1.168676	0.080404	0.188568
N179	N	0.907981	-0.221949	-0.642219
N180	N	1.407981	0.278051	-0.142219
N181	N	0.810016	-0.221962	-0.642221
N182	N	1.310016	0.278038	-0.142221
H183	H	0.770467	-0.192962	-0.690788
H184	H	1.270467	0.307038	-0.190788
N185	N	1.652803	-0.222620	-0.784898
N186	N	2.152803	0.277380	-0.284898
N187	N	1.630893	-0.173523	-0.735951
N188	N	2.130893	0.326477	-0.235951
H189	H	1.630880	-0.173529	-0.656795
H190	H	2.130880	0.326471	-0.156795
N191	N	1.653976	-0.668785	-0.642035
N192	N	2.153976	-0.168785	-0.142035
N193	N	1.617006	-0.705460	-0.708959
N194	N	2.117006	-0.205460	-0.208959
H195	H	1.665464	-0.729133	-0.757473
H196	H	2.165464	-0.229133	-0.257473
N197	N	1.129787	-0.221922	-0.642195
N198	N	1.629787	0.278078	-0.142195
N199	N	1.080850	-0.186025	-0.702299
N200	N	1.580850	0.313975	-0.202299
H201	H	1.120460	-0.157012	-0.750862
H202	H	1.620460	0.342988	-0.250862
H203	H	1.396388	-0.662230	-0.384100
H204	H	1.896388	-0.162230	0.115900
H205	H	1.396299	-0.542959	-0.384066
H206	H	1.896299	-0.042959	0.115934
