data_functionalizedCrystal
_audit_creation_method	'MofGen! by Chris Wilmer'
_symmetry_space_group_name_H-M	'P1'
_symmetry_Int_Tables_number	1
_symmetry_cell_setting	triclinic
loop_
_symmetry_equiv_pos_as_xyz
  x,y,z
_cell_length_a	12.827893
_cell_length_b	16.120507
_cell_length_c	12.827885
_cell_angle_alpha	92.861764
_cell_angle_beta	90.019272
_cell_angle_gamma	87.066230
loop_
_atom_site_label
_atom_site_type_symbol
_atom_site_fract_x
_atom_site_fract_y
_atom_site_fract_z
Zn1	Zn	1.576443	0.331868	0.611880
Zn2	Zn	1.826443	0.581868	0.861880
Zn3	Zn	2.076443	0.831868	1.111880
Zn4	Zn	2.326443	1.081868	1.361880
Zn5	Zn	1.567419	0.471303	0.445976
Zn6	Zn	1.817419	0.721303	0.695976
Zn7	Zn	2.067419	0.971303	0.945976
Zn8	Zn	2.317419	1.221303	1.195976
Zn9	Zn	1.401682	0.331908	0.437156
Zn10	Zn	1.651682	0.581908	0.687156
Zn11	Zn	1.901682	0.831908	0.937156
Zn12	Zn	2.151682	1.081908	1.187156
Zn13	Zn	1.392755	0.471241	0.620672
Zn14	Zn	1.642755	0.721241	0.870672
Zn15	Zn	1.892755	0.971241	1.120672
Zn16	Zn	2.142755	1.221241	1.370672
O17	O	1.484575	0.401580	0.528921
O18	O	1.734575	0.651580	0.778921
O19	O	1.984575	0.901580	1.028921
O20	O	2.234575	1.151580	1.278921
O21	O	1.721481	0.350373	0.589884
O22	O	1.971481	0.600373	0.839884
O23	O	2.221481	0.850373	1.089884
O24	O	2.471481	1.100373	1.339884
O25	O	1.545392	0.452855	0.298573
O26	O	1.795392	0.702855	0.548573
O27	O	2.045392	0.952855	0.798573
O28	O	2.295392	1.202855	1.048573
O29	O	1.432377	0.215237	0.452962
O30	O	1.682377	0.465237	0.702962
O31	O	1.932377	0.715237	0.952962
O32	O	2.182377	0.965237	1.202962
O33	O	1.714851	0.452816	0.467995
O34	O	1.964851	0.702816	0.717995
O35	O	2.214851	0.952816	0.967995
O36	O	2.464851	1.202816	1.217995
O37	O	1.560773	0.215207	0.581331
O38	O	1.810773	0.465207	0.831331
O39	O	2.060773	0.715207	1.081331
O40	O	2.310773	0.965207	1.331331
O41	O	1.423626	0.350442	0.292092
O42	O	1.673626	0.600442	0.542092
O43	O	1.923626	0.850442	0.792092
O44	O	2.173626	1.100442	1.042092
O45	O	1.254262	0.350382	0.461488
O46	O	1.504262	0.600382	0.711488
O47	O	1.754262	0.850382	0.961488
O48	O	2.004262	1.100382	1.211488
O49	O	1.417163	0.452710	0.765739
O50	O	1.667163	0.702710	1.015739
O51	O	1.917163	0.952710	1.265739
O52	O	2.167163	1.202710	1.515739
O53	O	1.247704	0.452750	0.596317
O54	O	1.497704	0.702750	0.846317
O55	O	1.747704	0.952750	1.096317
O56	O	1.997704	1.202750	1.346317
O57	O	1.552117	0.350313	0.759279
O58	O	1.802117	0.600313	1.009279
O59	O	2.052117	0.850313	1.259279
O60	O	2.302117	1.100313	1.509279
O61	O	1.536736	0.587961	0.476521
O62	O	1.786736	0.837961	0.726521
O63	O	2.036736	1.087961	0.976521
O64	O	2.286736	1.337961	1.226521
O65	O	1.408412	0.587915	0.604870
O66	O	1.658412	0.837915	0.854870
O67	O	1.908412	1.087915	1.104870
O68	O	2.158412	1.337915	1.354870
C69	C	1.213066	0.401564	0.528900
C70	C	1.463066	0.651564	0.778900
C71	C	1.713066	0.901564	1.028900
C72	C	1.963066	1.151564	1.278900
C73	C	1.096912	0.401577	0.528917
C74	C	1.346912	0.651577	0.778917
C75	C	1.596912	0.901577	1.028917
C76	C	1.846912	1.151577	1.278917
C77	C	1.041904	0.452311	0.595542
C78	C	1.291904	0.702311	0.845542
C79	C	1.541904	0.952311	1.095542
C80	C	1.791904	1.202311	1.345542
C81	C	0.921853	0.452326	0.595561
C82	C	1.171853	0.702326	0.845561
C83	C	1.421853	0.952326	1.095561
C84	C	1.671853	1.202326	1.345561
C85	C	1.470655	0.618188	0.542629
C86	C	1.720655	0.868188	0.792629
C87	C	1.970655	1.118188	1.042629
C88	C	2.220655	1.368188	1.292629
C89	C	1.464795	0.710854	0.548529
C90	C	1.714795	0.960854	0.798529
C91	C	1.964795	1.210854	1.048529
C92	C	2.214795	1.460854	1.298529
C93	C	1.515066	0.921799	0.498479
C94	C	1.765066	1.171799	0.748479
C95	C	2.015066	1.421799	0.998479
C96	C	2.265066	1.671799	1.248479
C97	C	1.454117	0.880511	0.559311
C98	C	1.704117	1.130511	0.809311
C99	C	1.954117	1.380511	1.059311
C100	C	2.204117	1.630511	1.309311
C101	C	1.460060	0.786105	0.553310
C102	C	1.710060	1.036105	0.803310
C103	C	1.960060	1.286105	1.053310
C104	C	2.210060	1.536105	1.303310
C105	C	1.509124	1.016213	0.504478
C106	C	1.759124	1.266213	0.754478
C107	C	2.009124	1.516213	1.004478
C108	C	2.259124	1.766213	1.254478
C109	C	1.757144	0.401597	0.528943
C110	C	2.007144	0.651597	0.778943
C111	C	2.257144	0.901597	1.028943
C112	C	2.507144	1.151597	1.278943
C113	C	1.873296	0.401604	0.528952
C114	C	2.123296	0.651604	0.778952
C115	C	2.373296	0.901604	1.028952
C116	C	2.623296	1.151604	1.278952
C117	C	1.484651	0.401500	0.801486
C118	C	1.734651	0.651500	1.051486
C119	C	1.984651	0.901500	1.301486
C120	C	2.234651	1.151500	1.551486
C121	C	1.484683	0.401466	0.917637
C122	C	1.734683	0.651466	1.167637
C123	C	1.984683	0.901466	1.417637
C124	C	2.234683	1.151466	1.667637
C125	C	1.498537	1.184126	0.515166
C126	C	1.748537	1.434126	0.765166
C127	C	1.998537	1.684126	1.015166
C128	C	2.248537	1.934126	1.265166
C129	C	1.504384	1.091460	0.509264
C130	C	1.754384	1.341460	0.759264
C131	C	2.004384	1.591460	1.009264
C132	C	2.254384	1.841460	1.259264
C133	C	1.484563	0.401600	0.257412
C134	C	1.734563	0.651600	0.507412
C135	C	1.984563	0.901600	0.757412
C136	C	2.234563	1.151600	1.007412
C137	C	1.484748	0.401399	0.141247
C138	C	1.734748	0.651399	0.391247
C139	C	1.984748	0.901399	0.641247
C140	C	2.234748	1.151399	0.891247
C141	C	1.551471	0.350787	0.966225
C142	C	1.801471	0.600787	1.216225
C143	C	2.051471	0.850787	1.466225
C144	C	2.301471	1.100787	1.716225
C145	C	1.551506	0.350750	1.086273
C146	C	1.801506	0.600750	1.336273
C147	C	2.051506	0.850750	1.586273
C148	C	2.301506	1.100750	1.836273
H149	H	1.083688	0.495732	0.652571
H150	H	1.333688	0.745732	0.902571
H151	H	1.583688	0.995732	1.152571
H152	H	1.833688	1.245732	1.402571
H153	H	1.608620	0.307422	0.918947
H154	H	1.858620	0.557422	1.168947
H155	H	2.108620	0.807422	1.418947
H156	H	2.358620	1.057422	1.668947
H157	H	1.427569	0.444793	1.099458
H158	H	1.677569	0.694793	1.349458
H159	H	1.927569	0.944793	1.599458
H160	H	2.177569	1.194793	1.849458
H161	H	0.874560	0.495763	0.652598
H162	H	1.124560	0.745763	0.902598
H163	H	1.374560	0.995763	1.152598
H164	H	1.624560	1.245763	1.402598
H165	H	1.608688	0.307365	1.128070
H166	H	1.858688	0.557365	1.378070
H167	H	2.108688	0.807365	1.628070
H168	H	2.358688	1.057365	1.878070
H169	H	1.055128	0.358150	0.471896
H170	H	1.305128	0.608150	0.721896
H171	H	1.555128	0.858150	0.971896
H172	H	1.805128	1.108150	1.221896
Cl173	Cl	0.946300	0.334542	0.440873
Cl174	Cl	1.196300	0.584542	0.690873
Cl175	Cl	1.446300	0.834542	0.940873
Cl176	Cl	1.696300	1.084542	1.190873
Cl177	Cl	1.366658	0.935398	0.646673
Cl178	Cl	1.616658	1.185398	0.896673
Cl179	Cl	1.866658	1.435398	1.146673
Cl180	Cl	2.116658	1.685398	1.396673
Cl181	Cl	1.602512	0.866911	0.411115
Cl182	Cl	1.852512	1.116911	0.661115
Cl183	Cl	2.102512	1.366911	0.911115
Cl184	Cl	2.352512	1.616911	1.161115
H185	H	1.427524	0.444822	0.964914
H186	H	1.677524	0.694822	1.214914
H187	H	1.927524	0.944822	1.464914
H188	H	2.177524	1.194822	1.714914
