data_functionalizedCrystal
_audit_creation_method	'MofGen! by Chris Wilmer'
_symmetry_space_group_name_H-M	'P1'
_symmetry_Int_Tables_number	1
_symmetry_cell_setting	triclinic
loop_
_symmetry_equiv_pos_as_xyz
  x,y,z
_cell_length_a	10.685661
_cell_length_b	10.685194
_cell_length_c	11.169409
_cell_angle_alpha	85.594584
_cell_angle_beta	85.611991
_cell_angle_gamma	89.666413
loop_
_atom_site_label
_atom_site_type_symbol
_atom_site_fract_x
_atom_site_fract_y
_atom_site_fract_z
Zn1	Zn	1.879773	-0.646591	-0.768233
Zn2	Zn	1.863577	-0.856427	-0.551058
Zn3	Zn	1.669965	-0.630561	-0.553460
Zn4	Zn	1.653912	-0.840229	-0.737618
O5	O	1.766807	-0.743452	-0.652592
O6	O	2.053176	-0.687914	-0.751231
O7	O	1.837835	-0.826536	-0.383417
O8	O	1.711293	-0.457124	-0.595768
O9	O	2.041277	-0.842079	-0.591674
O10	O	1.865438	-0.468901	-0.753560
O11	O	1.695589	-0.660593	-0.385182
O12	O	1.492285	-0.644886	-0.566082
O13	O	1.683933	-0.814472	-0.909639
O14	O	1.480490	-0.798928	-0.701382
O15	O	1.849872	-0.672207	-0.932131
O16	O	1.822269	-1.029842	-0.561988
O17	O	1.668228	-1.017941	-0.699053
C18	C	1.440869	-0.718411	-0.630671
C19	C	1.301429	-0.707729	-0.621319
C20	C	1.741783	-1.069416	-0.626966
C21	C	1.731193	-1.208873	-0.616051
C22	C	2.094017	-0.768591	-0.674600
C23	C	2.233455	-0.779304	-0.683978
C24	C	1.766918	-0.743321	-0.965653
C25	C	1.766965	-0.743265	-1.099060
C26	C	1.791963	-0.416218	-0.678347
C27	C	1.802682	-0.276770	-0.689322
C28	C	1.766775	-0.743498	-0.340762
C29	C	1.766998	-0.743219	-0.207399
H30	H	1.252949	-0.638269	-0.560529
O31	O	1.648419	-1.266930	-0.531396
C32	C	1.561641	-1.336494	-0.588348
H33	H	1.604381	-1.359285	-0.680807
H34	H	1.537919	-1.427466	-0.531181
H35	H	1.472452	-1.278983	-0.599107
H36	H	1.281942	-0.848757	-0.744783
H37	H	1.871992	-1.228213	-0.760409
