data_functionalizedCrystal
_audit_creation_method	'MofGen! by Chris Wilmer'
_symmetry_space_group_name_H-M	'P1'
_symmetry_Int_Tables_number	1
_symmetry_cell_setting	triclinic
loop_
_symmetry_equiv_pos_as_xyz
  x,y,z
_cell_length_a	16.992694
_cell_length_b	15.944551
_cell_length_c	16.053802
_cell_angle_alpha	92.564789
_cell_angle_beta	87.249047
_cell_angle_gamma	87.083481
loop_
_atom_site_label
_atom_site_type_symbol
_atom_site_fract_x
_atom_site_fract_y
_atom_site_fract_z
O1	O	1.043704	0.174798	-0.069327
O2	O	0.815419	0.172843	-0.069352
O3	O	0.935795	0.051964	-0.069332
O4	O	0.923328	0.295677	-0.069348
O5	O	0.929169	0.058588	0.069526
O6	O	0.808793	0.179467	0.069506
O7	O	1.037078	0.181422	0.069530
Zn8	Zn	0.921884	0.181497	0.091565
Zn9	Zn	0.930613	0.172769	-0.091386
O10	O	0.916702	0.302301	0.069510
C11	C	0.782894	0.173641	0.000074
C12	C	0.695850	0.166141	0.000065
C13	C	0.645613	0.238506	0.000061
C14	C	0.563826	0.231454	0.000073
C15	C	0.532276	0.152037	0.000083
C16	C	0.582519	0.079667	0.000089
C17	C	0.664305	0.086719	0.000083
C18	C	0.288676	0.122807	0.000107
C19	C	0.206884	0.115759	0.000111
C20	C	0.188196	0.267548	0.000095
C21	C	0.269984	0.274593	0.000084
C22	C	0.320220	0.202223	0.000095
N23	N	0.448677	0.144827	0.000092
N24	N	0.403818	0.209434	0.000092
C25	C	0.931964	0.023948	0.000097
C26	C	0.930413	-0.069402	0.000098
C27	C	0.852090	-0.289513	0.000078
C28	C	0.885194	-0.344825	0.068547
C29	C	0.927606	-0.240317	0.000091
C30	C	0.891744	-0.351338	-0.068356
C31	C	0.924889	-0.405412	0.000081
C32	C	0.960728	-0.294396	0.068617
C33	C	0.967271	-0.300907	-0.068348
C34	C	1.000429	-0.356196	0.000138
C35	C	0.929169	-0.145209	0.000098
C36	C	0.923332	-0.500518	0.000080
C37	C	1.069603	0.180624	0.000103
C38	C	1.156648	0.188124	0.000106
C39	C	0.920533	0.330318	0.000079
C40	C	0.922085	0.423667	0.000073
N41	N	0.915931	0.187453	0.216424
N42	N	0.936572	0.166806	-0.216246
C43	C	0.967170	0.136040	0.260127
C44	C	0.963014	0.140215	0.347533
C45	C	0.907622	0.195808	0.391235
C46	C	0.856378	0.247223	0.347526
C47	C	0.860531	0.243043	0.260121
C48	C	0.889481	0.214042	0.652641
C49	C	0.885333	0.218220	0.740052
C50	C	0.991968	0.111209	0.740053
C51	C	0.996120	0.107038	0.652646
C52	C	0.944873	0.158450	0.608945
N53	N	0.903374	0.200078	0.480578
N54	N	0.949118	0.154175	0.519604
H55	H	0.789404	-0.260406	0.000139
H56	H	0.811273	0.292485	0.383113
O57	O	0.676300	0.315627	-0.000100
C58	C	0.726483	0.320811	-0.072010
H59	H	0.709532	0.273218	-0.122269
H60	H	0.790205	0.306546	-0.055755
C61	C	0.738938	0.468486	-0.042898
C62	C	0.718114	0.410037	-0.104630
H63	H	0.733780	0.523526	-0.063018
H64	H	0.705132	0.464994	0.005551
H65	H	0.792039	0.456588	-0.029358
H66	H	0.665012	0.421929	-0.118161
H67	H	0.751912	0.413533	-0.153082
O68	O	0.713218	0.016511	0.000121
C69	C	0.792169	0.039763	0.000095
H70	H	0.794056	0.107205	0.026376
H71	H	0.818991	0.034987	-0.066524
C72	C	0.837314	-0.102321	0.022274
C73	C	0.839632	-0.019490	0.054560
H74	H	0.866593	-0.138872	0.055867
H75	H	0.784124	-0.117987	0.022289
H76	H	0.859665	-0.106289	-0.033241
H77	H	0.817273	-0.015521	0.110069
H78	H	0.892820	-0.003824	0.054556
H79	H	0.329568	0.063878	0.000117
H80	H	0.522926	0.290381	0.000068
O81	O	0.843675	-0.368036	0.137534
C82	C	0.765512	-0.333870	0.137295
H83	H	0.750494	-0.320022	0.070668
H84	H	0.759468	-0.273133	0.177870
C85	C	0.727030	-0.414309	0.254058
C86	C	0.708581	-0.397308	0.172225
H87	H	0.691911	-0.453438	0.275608
H88	H	0.779690	-0.437325	0.254222
H89	H	0.721993	-0.363689	0.287861
H90	H	0.713628	-0.447924	0.138422
H91	H	0.655920	-0.374301	0.172057
H92	H	1.004736	0.098349	0.383115
O93	O	0.995631	-0.264757	0.137691
C94	C	1.073568	-0.299581	0.137869
H95	H	1.095060	-0.320110	0.071364
H96	H	1.075141	-0.356337	0.178614
C97	C	1.101148	-0.208008	0.254546
C98	C	1.127547	-0.233215	0.172861
H99	H	1.134445	-0.167072	0.276134
H100	H	1.048639	-0.184548	0.254429
H101	H	1.102459	-0.255311	0.288489
H102	H	1.126225	-0.185915	0.138918
H103	H	1.180057	-0.256666	0.172974
O104	O	1.075320	-0.390589	0.000234
C105	C	1.129028	-0.326038	0.000939
H106	H	1.097718	-0.265049	0.027550
H107	H	1.152737	-0.316901	-0.065498
C108	C	1.236420	-0.425160	0.022822
C109	C	1.197965	-0.350254	0.055513
H110	H	1.278946	-0.440099	0.056482
H111	H	1.200237	-0.468651	0.022344
H112	H	1.256170	-0.417537	-0.032541
H113	H	1.178207	-0.357882	0.110870
H114	H	1.234147	-0.306765	0.056001
H115	H	1.001946	-0.281397	-0.126229
H116	H	0.147286	0.326467	0.000088
H117	H	0.847755	0.255905	0.617067
O118	O	0.551843	0.002532	-0.000048
C119	C	0.508501	-0.009512	-0.071951
H120	H	0.530237	0.033281	-0.122221
H121	H	0.443232	0.006310	-0.055691
C122	C	0.493265	-0.154405	-0.042811
C123	C	0.519966	-0.101851	-0.104555
H124	H	0.500334	-0.211365	-0.062921
H125	H	0.522463	-0.146291	0.005634
H126	H	0.438876	-0.141211	-0.029266
H127	H	0.574356	-0.115039	-0.118091
H128	H	0.490777	-0.109970	-0.153003
O129	O	0.856817	-0.381044	-0.137389
C130	C	0.778622	-0.346880	-0.137123
H131	H	0.772951	-0.285821	-0.097042
H132	H	0.736680	-0.393584	-0.110407
C133	C	0.764487	-0.403944	-0.276295
C134	C	0.757524	-0.328947	-0.227072
H135	H	0.751470	-0.392885	-0.331779
H136	H	0.817168	-0.426964	-0.276473
H137	H	0.729535	-0.442857	-0.254022
H138	H	0.792482	-0.290039	-0.249339
H139	H	0.704848	-0.305920	-0.226899
H140	H	0.818806	0.284908	0.224539
H141	H	1.012279	0.090773	0.224550
H142	H	0.295666	0.339262	0.000066
O143	O	1.049949	0.052958	0.610327
C144	C	1.094297	0.008488	0.667643
H145	H	1.059191	0.008339	0.729954
H146	H	1.152100	0.040154	0.676926
C147	C	1.155195	-0.082478	0.557013
C148	C	1.112075	-0.082667	0.633542
H149	H	1.166165	-0.138706	0.535977
H150	H	1.125319	-0.052516	0.518397
H151	H	1.203360	-0.056086	0.564759
H152	H	1.063907	-0.109049	0.625793
H153	H	1.141943	-0.112636	0.672156
H154	H	1.033690	0.069351	0.775642
H155	H	0.181201	0.051085	0.000118
H156	H	0.840224	0.263494	0.775630
