data_functionalizedCrystal
_audit_creation_method	'MofGen! by Chris Wilmer'
_symmetry_space_group_name_H-M	'P1'
_symmetry_Int_Tables_number	1
_symmetry_cell_setting	triclinic
loop_
_symmetry_equiv_pos_as_xyz
  x,y,z
_cell_length_a	14.044202
_cell_length_b	12.503572
_cell_length_c	10.723024
_cell_angle_alpha	86.442056
_cell_angle_beta	91.169715
_cell_angle_gamma	86.162225
loop_
_atom_site_label
_atom_site_type_symbol
_atom_site_fract_x
_atom_site_fract_y
_atom_site_fract_z
O1	O	-1.265084	0.089261	0.294497
O2	O	-0.765084	0.589261	0.794497
O3	O	-0.989045	0.089275	0.283620
O4	O	-0.489045	0.589275	0.783620
O5	O	-1.133432	0.089264	0.108120
O6	O	-0.633432	0.589264	0.608120
O7	O	-1.120698	0.089272	0.469997
O8	O	-0.620698	0.589272	0.969997
O9	O	-1.122573	-0.089377	0.121343
O10	O	-0.622573	0.410623	0.621343
O11	O	-0.978187	-0.089366	0.296843
O12	O	-0.478187	0.410634	0.796843
O13	O	-1.254226	-0.089380	0.307720
O14	O	-0.754226	0.410620	0.807720
Cu15	Cu	-1.115215	-0.105684	0.303489
Cu16	Cu	-0.615215	0.394316	0.803489
Cu17	Cu	-1.128056	0.105579	0.287851
Cu18	Cu	-0.628056	0.605579	0.787851
O19	O	-1.109839	-0.089369	0.483220
O20	O	-0.609839	0.410631	0.983220
C21	C	-0.948271	-0.000044	0.285475
C22	C	-0.448271	0.499956	0.785475
C23	C	-0.842953	-0.000038	0.271285
C24	C	-0.342953	0.499962	0.771285
C25	C	-0.593152	-0.000047	0.345969
C26	C	-0.093152	0.499953	0.845969
C27	C	-0.650127	-0.000047	0.245365
C28	C	-0.150127	0.499953	0.745365
C29	C	-0.757425	-0.000042	0.259791
C30	C	-0.257425	0.499958	0.759791
C31	C	-0.485843	-0.000052	0.331545
C32	C	0.014157	0.499948	0.831545
N33	N	-1.106190	-0.254276	0.314487
N34	N	-0.606190	0.245724	0.814487
C35	C	-1.092913	-0.473390	0.330676
C36	C	-0.592913	0.026610	0.830676
C37	C	-1.150362	-0.526722	0.260658
C38	C	-0.650362	-0.026722	0.760658
C39	C	-1.142975	-0.648644	0.269666
C40	C	-0.642975	-0.148644	0.769666
C41	C	-1.100299	-0.351456	0.321670
C42	C	-0.600299	0.148544	0.821670
C43	C	-0.295001	-0.000059	0.305862
C44	C	0.204999	0.499941	0.805862
C45	C	-0.400320	-0.000056	0.320043
C46	C	0.099680	0.499944	0.820043
C47	C	-1.127076	-0.000055	0.068139
C48	C	-0.627076	0.499945	0.568139
C49	C	-1.124303	-0.000052	-0.070693
C50	C	-0.624303	0.499948	0.429307
N51	N	-1.137089	0.254171	0.276844
N52	N	-0.637089	0.754171	0.776844
C53	C	-1.205095	-0.000054	-0.137589
C54	C	-0.705095	0.499946	0.362411
C55	C	-1.202231	-0.000050	-0.281079
C56	C	-0.702231	0.499950	0.218921
C57	C	-1.116195	-0.000047	0.523201
C58	C	-0.616195	0.499953	1.023201
C59	C	-1.118968	-0.000044	0.662032
C60	C	-0.618968	0.499956	1.162032
H61	H	-0.624956	-0.000041	0.442924
H62	H	-0.124956	0.499959	0.942924
C63	C	-1.018960	-0.535395	0.420764
C64	C	-0.518960	-0.035395	0.920764
H65	H	-0.983873	-0.485903	0.463501
H66	H	-0.483873	0.014097	0.963501
H67	H	-1.050855	-0.579279	0.479688
H68	H	-0.550855	-0.079279	0.979688
H69	H	-0.976508	-0.579255	0.374662
H70	H	-0.476508	-0.079255	0.874662
C71	C	-1.025523	-0.000042	-0.260300
C72	C	-0.525523	0.499958	0.239700
H73	H	-0.972914	-0.000045	-0.314605
H74	H	-0.472914	0.499955	0.185395
H75	H	-1.026786	0.062251	-0.213795
H76	H	-0.526786	0.562251	0.286205
H77	H	-1.019214	-0.062349	-0.204589
H78	H	-0.519214	0.437651	0.295411
H79	H	-1.205094	-0.480813	0.193949
H80	H	-0.705094	0.019187	0.693949
C81	C	-1.295672	-0.000055	-0.358755
C82	C	-0.795672	0.499945	0.141245
H83	H	-1.348281	-0.000066	-0.304449
H84	H	-0.848281	0.499934	0.195551
H85	H	-1.301983	0.062241	-0.414473
H86	H	-0.801983	0.562241	0.085527
H87	H	-1.294407	-0.062359	-0.405251
H88	H	-0.794407	0.437641	0.094749
H89	H	-1.276383	-0.000065	-0.088631
H90	H	-0.776383	0.499935	0.411369
H91	H	-1.053015	-0.000041	-0.119651
H92	H	-0.553015	0.499959	0.380349
H93	H	-0.618325	0.000026	0.148397
H94	H	-0.118325	0.500026	0.648397
