data_functionalizedCrystal
_audit_creation_method	'MofGen! by Chris Wilmer'
_symmetry_space_group_name_H-M	'P1'
_symmetry_Int_Tables_number	1
_symmetry_cell_setting	triclinic
loop_
_symmetry_equiv_pos_as_xyz
  x,y,z
_cell_length_a	11.169417
_cell_length_b	11.169416
_cell_length_c	11.169409
_cell_angle_alpha	90.028030
_cell_angle_beta	90.021649
_cell_angle_gamma	90.011311
loop_
_atom_site_label
_atom_site_type_symbol
_atom_site_fract_x
_atom_site_fract_y
_atom_site_fract_z
Zn1	Zn	-1.834939	0.477767	-0.678637
Zn2	Zn	-1.334939	0.977767	-0.178637
Zn3	Zn	-1.834819	0.678507	-0.477969
Zn4	Zn	-1.334819	1.178507	0.022031
Zn5	Zn	-1.634225	0.477831	-0.477965
Zn6	Zn	-1.134225	0.977831	0.022035
Zn7	Zn	-1.634223	0.678400	-0.678608
Zn8	Zn	-1.134223	1.178400	-0.178608
O9	O	-1.734552	0.578126	-0.578295
O10	O	-1.234552	1.078126	-0.078295
O11	O	-2.002873	0.504414	-0.652032
O12	O	-1.502873	1.004414	-0.152032
O13	O	-1.808161	0.651959	-0.310019
O14	O	-1.308161	1.151959	0.189981
O15	O	-1.660902	0.309873	-0.504595
O16	O	-1.160902	0.809873	-0.004595
O17	O	-2.002785	0.651897	-0.504602
O18	O	-1.502785	1.151897	-0.004602
O19	O	-1.808365	0.309826	-0.652028
O20	O	-1.308365	0.809826	-0.152028
O21	O	-1.660785	0.504522	-0.310016
O22	O	-1.160785	1.004522	0.189984
O23	O	-1.466275	0.504419	-0.504567
O24	O	-0.966275	1.004419	-0.004567
O25	O	-1.660898	0.651714	-0.846561
O26	O	-1.160898	1.151714	-0.346561
O27	O	-1.466274	0.651776	-0.651978
O28	O	-0.966274	1.151776	-0.151978
O29	O	-1.808363	0.504310	-0.846583
O30	O	-1.308363	1.004310	-0.346583
O31	O	-1.808158	0.846443	-0.504573
O32	O	-1.308158	1.346443	-0.004573
O33	O	-1.660781	0.846364	-0.651982
O34	O	-1.160781	1.346364	-0.151982
C35	C	-1.422727	0.578094	-0.578269
C36	C	-0.922727	1.078094	-0.078269
C37	C	-1.289327	0.578109	-0.578287
C38	C	-0.789327	1.078109	-0.078287
C39	C	-1.734489	0.889951	-0.578301
C40	C	-1.234489	1.389951	-0.078301
C41	C	-1.734572	1.023351	-0.578344
C42	C	-1.234572	1.523351	-0.078344
C43	C	-1.047594	0.578148	-0.578313
C44	C	-0.547594	1.078148	-0.078313
C45	C	-1.180994	0.578128	-0.578300
C46	C	-0.680994	1.078128	-0.078300
C47	C	-1.734644	0.577993	-0.891337
C48	C	-1.234644	1.077993	-0.391337
C49	C	-1.734683	0.577936	-1.024737
C50	C	-1.234683	1.077936	-0.524737
C51	C	-1.734635	1.265084	-0.578327
C52	C	-1.234635	1.765084	-0.078327
C53	C	-1.734640	1.131684	-0.578373
C54	C	-1.234640	1.631684	-0.078373
C55	C	-1.734529	0.578172	-0.266470
C56	C	-1.234529	1.078172	0.233530
C57	C	-1.734722	0.577891	-0.133070
C58	C	-1.234722	1.077891	0.366930
