data_functionalizedCrystal
_audit_creation_method	'MofGen! by Chris Wilmer'
_symmetry_space_group_name_H-M	'P1'
_symmetry_Int_Tables_number	1
_symmetry_cell_setting	triclinic
loop_
_symmetry_equiv_pos_as_xyz
  x,y,z
_cell_length_a	19.121275
_cell_length_b	19.121063
_cell_length_c	19.120904
_cell_angle_alpha	85.258387
_cell_angle_beta	85.036128
_cell_angle_gamma	89.926756
loop_
_atom_site_label
_atom_site_type_symbol
_atom_site_fract_x
_atom_site_fract_y
_atom_site_fract_z
Zn1	Zn	1.043498	-0.339785	0.367039
Zn2	Zn	1.043411	-0.452429	0.254393
Zn3	Zn	0.931289	-0.330197	0.253987
Zn4	Zn	0.920783	-0.452394	0.377035
O5	O	0.984745	-0.393701	0.313113
O6	O	1.141766	-0.358755	0.348083
O7	O	1.032898	-0.432216	0.155700
O8	O	0.950607	-0.233188	0.264630
O9	O	1.141702	-0.441513	0.265322
O10	O	1.033046	-0.240232	0.347688
O11	O	0.950523	-0.342413	0.155402
O12	O	0.831616	-0.342380	0.274323
O13	O	0.932700	-0.441454	0.474348
O14	O	0.823896	-0.432157	0.364726
O15	O	1.022859	-0.358721	0.467004
O16	O	1.022710	-0.550705	0.275015
O17	O	0.932616	-0.550680	0.365120
C18	C	0.802273	-0.386225	0.320565
C19	C	0.724209	-0.383044	0.323771
C20	C	0.687505	-0.424561	0.282118
C21	C	0.614155	-0.421573	0.285139
C22	C	0.577512	-0.377063	0.329810
C23	C	0.614221	-0.335544	0.371468
C24	C	0.687569	-0.338536	0.368450
C25	C	0.356049	-0.365879	0.341085
C26	C	0.282696	-0.362888	0.344098
C27	C	0.282635	-0.448919	0.257770
C28	C	0.355985	-0.451905	0.254753
C29	C	0.392688	-0.410388	0.296413
C30	C	0.502537	-0.374006	0.332898
C31	C	0.467661	-0.413449	0.293329
C32	C	0.976532	-0.576177	0.321211
C33	C	0.973082	-0.654245	0.324697
C34	C	1.018401	-0.690914	0.279457
C35	C	1.015160	-0.764267	0.282739
C36	C	0.966596	-0.800950	0.331257
C37	C	0.921274	-0.764275	0.376501
C38	C	0.924519	-0.690924	0.373223
C39	C	0.954453	-1.022425	0.343506
C40	C	0.951210	-1.095781	0.346780
C41	C	1.045098	-1.095768	0.253018
C42	C	1.048335	-1.022415	0.249740
C43	C	1.003016	-0.985747	0.294987
C44	C	0.963280	-0.875928	0.334611
C45	C	1.006336	-0.910770	0.291636
C46	C	1.167929	-0.401208	0.305633
C47	C	1.245992	-0.404406	0.302445
C48	C	0.976617	-0.401153	0.496967
C49	C	0.973154	-0.404329	0.575314
C50	C	0.993008	-0.210514	0.304999
C51	C	0.996530	-0.132450	0.301541
C52	C	0.992884	-0.386229	0.129971
C53	C	0.996492	-0.382861	0.051610
C54	C	1.018465	-0.362748	0.608300
C55	C	1.015202	-0.365729	0.681916
C56	C	0.966631	-0.410295	0.722545
C57	C	0.921315	-0.451877	0.689555
C58	C	0.924575	-0.448892	0.615940
C59	C	0.954437	-0.421459	0.945005
C60	C	0.951181	-0.424442	1.018625
C61	C	1.045068	-0.338293	1.010980
C62	C	1.048326	-0.335315	0.937364
C63	C	1.003008	-0.376894	0.904381
C64	C	0.963296	-0.413344	0.797792
C65	C	1.006340	-0.373841	0.829135
H66	H	0.717335	-0.460804	0.245739
H67	H	1.058018	-0.326460	0.575224
H68	H	1.052100	-0.331871	0.708769
C69	C	0.867880	-0.500893	0.734250
N70	N	0.827631	-0.537812	0.767914
C71	C	0.909853	-0.916285	0.387973
N72	N	0.869611	-0.946685	0.428164
H73	H	1.087879	-0.299027	0.904289
H74	H	1.057945	-0.661052	0.239945
H75	H	0.917545	-0.455327	0.918159
H76	H	0.881735	-0.794148	0.416009
C77	C	0.897788	-1.136131	0.400161
N78	N	0.857552	-1.166522	0.440365
H79	H	0.252863	-0.326637	0.380473
C80	C	0.874664	-0.650588	0.422990
N81	N	0.837114	-0.620208	0.460478
C82	C	1.059766	-0.324819	0.784440
N83	N	1.100009	-0.287899	0.750770
C84	C	1.094906	-0.292549	1.047268
N85	N	1.132443	-0.258089	1.074601
C86	C	0.396414	-0.320200	0.386904
N87	N	0.426819	-0.285789	0.421414
C88	C	0.897745	-0.473468	1.063316
N89	N	0.857500	-0.510392	1.096977
H90	H	0.923753	-0.449633	0.830881
H91	H	0.584380	-0.299306	0.407843
C92	C	0.396287	-0.500869	0.205611
N93	N	0.426643	-0.537748	0.168594
H94	H	1.045879	-0.880902	0.252135
H95	H	0.584274	-0.455381	0.251220
C96	C	0.874731	-0.494636	0.579657
N97	N	0.837185	-0.529090	0.552330
H98	H	0.252744	-0.482721	0.223853
H99	H	0.497499	-0.449693	0.256961
C100	C	1.065012	-0.804600	0.232967
N101	N	1.102561	-0.834978	0.195476
C102	C	0.727944	-0.292861	0.414270
N103	N	0.758353	-0.258458	0.448785
C104	C	1.101743	-0.982069	0.196349
N105	N	1.141962	-0.951679	0.156126
H106	H	1.081995	-1.125631	0.216182
H107	H	0.472693	-0.337765	0.369268
H108	H	0.917551	-0.992575	0.380346
