data_functionalizedCrystal
_audit_creation_method	'MofGen! by Chris Wilmer'
_symmetry_space_group_name_H-M	'P1'
_symmetry_Int_Tables_number	1
_symmetry_cell_setting	triclinic
loop_
_symmetry_equiv_pos_as_xyz
  x,y,z
_cell_length_a	10.489763
_cell_length_b	12.996460
_cell_length_c	14.519709
_cell_angle_alpha	89.998766
_cell_angle_beta	84.114253
_cell_angle_gamma	89.995654
loop_
_atom_site_label
_atom_site_type_symbol
_atom_site_fract_x
_atom_site_fract_y
_atom_site_fract_z
O1	O	-1.692684	0.085525	-0.130207
O2	O	-1.192684	0.585525	0.369793
O3	O	-1.321365	0.085537	-0.142398
O4	O	-0.821365	0.585537	0.357602
O5	O	-1.516869	0.085521	-0.002118
O6	O	-1.016869	0.585521	0.497882
O7	O	-1.497179	0.085540	-0.270487
O8	O	-0.997179	0.585540	0.229513
O9	O	-1.516844	-0.085613	-0.002126
O10	O	-1.016844	0.414387	0.497874
O11	O	-1.321340	-0.085597	-0.142406
O12	O	-0.821340	0.414403	0.357594
O13	O	-1.692659	-0.085609	-0.130215
O14	O	-1.192659	0.414391	0.369785
Cu15	Cu	-1.506997	-0.101229	-0.136311
Cu16	Cu	-1.006997	0.398771	0.363689
Cu17	Cu	-1.507027	0.101157	-0.136302
Cu18	Cu	-1.007027	0.601157	0.363698
O19	O	-1.497154	-0.085594	-0.270495
O20	O	-0.997154	0.414406	0.229505
C21	C	-1.273831	-0.000029	-0.141477
C22	C	-0.773831	0.499971	0.358523
C23	C	-1.132231	-0.000024	-0.138709
C24	C	-0.632231	0.499976	0.361291
N25	N	-1.506985	-0.243576	-0.136318
N26	N	-1.006985	0.256424	0.363682
C27	C	-1.506991	-0.336682	-0.136320
C28	C	-1.006991	0.163318	0.363680
C29	C	-1.507003	-0.453487	-0.136314
C30	C	-1.007003	0.046513	0.363686
C31	C	-1.507019	-0.546586	-0.136304
C32	C	-1.007019	-0.046586	0.363696
C33	C	-1.507032	-0.663398	-0.136299
C34	C	-1.007032	-0.163398	0.363701
C35	C	-1.065023	-0.000041	-0.049442
C36	C	-0.565023	0.499959	0.450558
C37	C	-0.972470	0.084336	-0.091600
C38	C	-0.472470	0.584336	0.408400
C39	C	-0.972478	-0.084388	-0.091629
C40	C	-0.472478	0.415612	0.408371
C41	C	-1.041543	0.084423	-0.180904
C42	C	-0.541543	0.584423	0.319096
C43	C	-1.041562	-0.084377	-0.180921
C44	C	-0.541562	0.415623	0.319079
C45	C	-0.949036	0.000021	-0.223143
C46	C	-0.449036	0.500021	0.276857
C47	C	-0.740196	-0.000044	-0.131121
C48	C	-0.240196	0.499956	0.368879
C49	C	-0.881803	-0.000050	-0.133846
C50	C	-0.381803	0.499950	0.366154
C51	C	-1.515939	-0.000046	0.032242
C52	C	-1.015939	0.499954	0.532242
C53	C	-1.513189	-0.000046	0.134639
C54	C	-1.013189	0.499954	0.634639
N55	N	-1.507048	0.243504	-0.136288
N56	N	-1.007048	0.743504	0.363712
C57	C	-1.498084	-0.000024	-0.304856
C58	C	-0.998084	0.499976	0.195144
C59	C	-1.500834	-0.000017	-0.407252
C60	C	-1.000834	0.499983	0.092748
C61	C	-1.503066	-0.000019	0.509590
C62	C	-1.003066	0.499981	1.009590
C63	C	-1.505877	-0.000027	0.405267
C64	C	-1.005877	0.499973	0.905267
C65	C	-1.508127	-0.000034	0.322118
C66	C	-1.008127	0.499966	0.822118
C67	C	-1.510939	-0.000040	0.217788
C68	C	-1.010939	0.499960	0.717788
H69	H	-1.115477	0.000059	0.023935
H70	H	-0.615477	0.500059	0.523935
H71	H	-1.072204	-0.155712	-0.218664
H72	H	-0.572204	0.344288	0.281336
F73	F	-0.932462	0.177574	-0.042229
F74	F	-0.432462	0.677574	0.457771
F75	F	-1.081332	0.177771	-0.230231
F76	F	-0.581332	0.677771	0.269769
F77	F	-0.883431	0.000085	-0.319152
F78	F	-0.383431	0.500085	0.180848
F79	F	-0.932491	-0.177632	-0.042245
F80	F	-0.432491	0.322368	0.457755
