data_functionalizedCrystal
_audit_creation_method	'MofGen! by Chris Wilmer'
_symmetry_space_group_name_H-M	'P1'
_symmetry_Int_Tables_number	1
_symmetry_cell_setting	triclinic
loop_
_symmetry_equiv_pos_as_xyz
  x,y,z
_cell_length_a	11.792241
_cell_length_b	13.101039
_cell_length_c	11.792254
_cell_angle_alpha	86.614705
_cell_angle_beta	84.196007
_cell_angle_gamma	93.376518
loop_
_atom_site_label
_atom_site_type_symbol
_atom_site_fract_x
_atom_site_fract_y
_atom_site_fract_z
O1	O	1.513114	0.085115	0.149348
O2	O	1.846447	0.418448	0.482682
O3	O	2.179780	0.751782	0.816015
O4	O	1.182775	0.085139	0.165379
O5	O	1.516108	0.418472	0.498713
O6	O	1.849442	0.751806	0.832046
O7	O	1.355953	0.085119	-0.007805
O8	O	1.689286	0.418453	0.325528
O9	O	2.022619	0.751786	0.658861
O10	O	1.339936	0.085135	0.322533
O11	O	1.673269	0.418468	0.655866
O12	O	2.006603	0.751802	0.989199
O13	O	1.343528	-0.085309	0.004641
O14	O	1.676861	0.248024	0.337975
O15	O	2.010194	0.581357	0.671308
O16	O	1.170350	-0.085289	0.177826
O17	O	1.503683	0.248044	0.511159
O18	O	1.837017	0.581377	0.844492
O19	O	1.500688	-0.085313	0.161795
O20	O	1.834022	0.248020	0.495128
O21	O	2.167355	0.581353	0.828461
Zn22	Zn	1.333546	-0.112361	0.171786
Zn23	Zn	1.666880	0.220973	0.505120
Zn24	Zn	2.000213	0.554306	0.838453
Zn25	Zn	1.349917	0.112186	0.155388
Zn26	Zn	1.683250	0.445520	0.488721
Zn27	Zn	2.016584	0.778853	0.822054
O28	O	1.327511	-0.085293	0.334979
O29	O	1.660844	0.248040	0.668313
O30	O	1.994177	0.581373	1.001646
C31	C	1.134272	-0.000072	0.170595
C32	C	1.467605	0.333261	0.503929
C33	C	1.800938	0.666595	0.837262
C34	C	1.008259	-0.000063	0.167580
C35	C	1.341592	0.333270	0.500913
C36	C	1.674925	0.666603	0.834247
N37	N	1.322382	-0.265608	0.182977
N38	N	1.655715	0.067726	0.516311
N39	N	1.989049	0.401059	0.849644
C40	C	0.777544	-0.000093	0.162039
C41	C	1.110877	0.333240	0.495373
C42	C	1.444211	0.666574	0.828706
C43	C	0.905930	-0.000077	0.165118
C44	C	1.239264	0.333257	0.498451
C45	C	1.572597	0.666590	0.831785
C46	C	1.307193	-0.474649	0.198214
C47	C	1.640526	-0.141315	0.531547
C48	C	1.973859	0.192018	0.864880
C49	C	1.376276	-0.525532	0.128955
C50	C	1.709609	-0.192199	0.462288
C51	C	2.042943	0.141134	0.795622
C52	C	1.367824	-0.641850	0.137433
C53	C	1.701158	-0.308516	0.470766
C54	C	2.034491	0.024817	0.804099
C55	C	1.315643	-0.358321	0.189738
C56	C	1.648976	-0.024987	0.523071
C57	C	1.982310	0.308346	0.856404
C58	C	1.549192	-0.000100	0.156579
C59	C	1.882525	0.333234	0.489912
C60	C	2.215859	0.666567	0.823245
C61	C	1.675206	-0.000102	0.159593
C62	C	2.008539	0.333231	0.492926
C63	C	2.341872	0.666565	0.826260
C64	C	1.348731	-0.000095	-0.043873
C65	C	1.682064	0.333239	0.289461
C66	C	2.015398	0.666572	0.622794
C67	C	1.345711	-0.000093	-0.169886
C68	C	1.679044	0.333240	0.163447
C69	C	2.012378	0.666573	0.496781
N70	N	1.361090	0.265434	0.144188
N71	N	1.694424	0.598767	0.477521
N72	N	2.027757	0.932100	0.810854
C73	C	1.343258	-0.000090	-0.272223
C74	C	1.676591	0.333244	0.061111
C75	C	2.009924	0.666577	0.394444
C76	C	1.340190	-0.000080	-0.400610
C77	C	1.673523	0.333253	-0.067277
C78	C	2.006856	0.666587	0.266057
C79	C	1.334733	-0.000077	0.371047
C80	C	1.668066	0.333256	0.704380
C81	C	2.001399	0.666589	1.037713
C82	C	1.337753	-0.000072	0.497059
C83	C	1.671086	0.333261	0.830392
C84	C	2.004420	0.666595	1.163726
H85	H	1.441768	-0.481737	0.063295
H86	H	1.775101	-0.148404	0.396628
H87	H	2.108435	0.184929	0.729961
Cl88	Cl	1.206087	-0.542258	0.299588
Cl89	Cl	1.539421	-0.208925	0.632922
Cl90	Cl	1.872754	0.124408	0.966255
