data_functionalizedCrystal
_audit_creation_method	'MofGen! by Chris Wilmer'
_symmetry_space_group_name_H-M	'P1'
_symmetry_Int_Tables_number	1
_symmetry_cell_setting	triclinic
loop_
_symmetry_equiv_pos_as_xyz
  x,y,z
_cell_length_a	23.532407
_cell_length_b	23.532407
_cell_length_c	16.098538
_cell_angle_alpha	87.283857
_cell_angle_beta	87.286853
_cell_angle_gamma	97.151323
loop_
_atom_site_label
_atom_site_type_symbol
_atom_site_fract_x
_atom_site_fract_y
_atom_site_fract_z
O1	O	-0.066579	0.757820	-0.069139
O2	O	0.433421	1.257820	0.430861
O3	O	-0.076582	0.591957	-0.069162
O4	O	0.423418	1.091957	0.430838
O5	O	0.011351	0.679890	-0.069160
O6	O	0.511351	1.179890	0.430840
O7	O	-0.154513	0.669886	-0.069141
O8	O	0.345487	1.169886	0.430859
O9	O	0.006235	0.674754	0.069352
O10	O	0.506235	1.174754	0.569352
O11	O	-0.081698	0.586821	0.069351
O12	O	0.418302	1.086821	0.569351
O13	O	-0.071696	0.752683	0.069374
O14	O	0.428304	1.252683	0.569374
Zn15	Zn	-0.077510	0.668936	0.091354
Zn16	Zn	0.422490	1.168936	0.591354
Zn17	Zn	-0.070768	0.675704	-0.091142
Zn18	Zn	0.429232	1.175704	0.408858
O19	O	-0.159629	0.664750	0.069372
O20	O	0.340371	1.164750	0.569372
C21	C	-0.078885	0.568173	0.000091
C22	C	0.421115	1.068173	0.500091
C23	C	-0.078119	0.504956	0.000082
C24	C	0.421881	1.004956	0.500082
C25	C	-0.125354	0.105852	0.000125
C26	C	0.374646	0.605852	0.500125
C27	C	-0.124643	0.046451	0.000130
C28	C	0.375357	0.546451	0.500130
O29	O	-0.168430	0.009705	0.000166
O30	O	0.331570	0.509705	0.500166
N31	N	-0.072366	0.023825	0.000123
N32	N	0.427634	0.523825	0.500123
C33	C	-0.020798	0.060603	0.000119
C34	C	0.479202	0.560603	0.500119
O35	O	0.023733	0.035904	0.000114
O36	O	0.523733	0.535904	0.500114
C37	C	-0.021510	0.120002	0.000120
C38	C	0.478490	0.620002	0.500120
C39	C	-0.073790	0.142625	0.000119
C40	C	0.426210	0.642625	0.500119
C41	C	-0.177630	0.128475	0.000126
C42	C	0.322370	0.628475	0.500126
C43	C	-0.178341	0.187871	0.000119
C44	C	0.321659	0.687871	0.500119
C45	C	-0.126776	0.224644	0.000112
C46	C	0.373224	0.724644	0.500112
C47	C	-0.074501	0.202021	0.000112
C48	C	0.425499	0.702021	0.500112
C49	C	0.030058	0.156778	0.000122
C50	C	0.530058	0.656778	0.500122
C51	C	0.029341	0.216181	0.000123
C52	C	0.529341	0.716181	0.500123
C53	C	-0.022939	0.238804	0.000122
C54	C	0.477061	0.738804	0.500122
C55	C	-0.023647	0.298191	0.000099
C56	C	0.476353	0.798191	0.500099
N57	N	-0.075924	0.320817	0.000107
N58	N	0.424076	0.820817	0.500107
C59	C	-0.127488	0.284043	0.000113
C60	C	0.372512	0.784043	0.500113
C61	C	-0.019306	-0.064140	0.000118
C62	C	0.480694	0.435860	0.500118
C63	C	-0.018594	-0.123537	0.000111
C64	C	0.481406	0.376463	0.500111
C65	C	-0.122439	-0.137685	0.000125
C66	C	0.377561	0.362315	0.500125
C67	C	-0.123151	-0.078286	0.000126
C68	C	0.376849	0.421714	0.500126
C69	C	-0.071583	-0.041514	0.000126
C70	C	0.428417	0.458486	0.500126
C71	C	-0.128977	0.408781	0.000099
C72	C	0.371023	0.908781	0.500099
C73	C	-0.129684	0.468183	0.000089
C74	C	0.370316	0.968183	0.500089
C75	C	-0.025839	0.482326	0.000080
C76	C	0.474161	0.982326	0.500080
C77	C	-0.025132	0.422929	0.000086
C78	C	0.474868	0.922929	0.500086
C79	C	-0.076706	0.386157	0.000098
C80	C	0.423294	0.886157	0.500098
O81	O	0.020117	0.334971	0.000067
O82	O	0.520117	0.834971	0.500067
O83	O	-0.172012	0.308751	0.000129
O84	O	0.327988	0.808751	0.500129
C85	C	-0.178287	0.667573	0.000118
C86	C	0.321713	1.167573	0.500118
C87	C	-0.241505	0.668338	0.000126
C88	C	0.258495	1.168338	0.500126
C89	C	-0.640606	0.621107	0.000077
C90	C	-0.140606	1.121107	0.500077
C91	C	-0.700006	0.621818	0.000072
C92	C	-0.200006	1.121818	0.500072
O93	O	-0.736749	0.578034	0.000035
O94	O	-0.236749	1.078034	0.500035
N95	N	-0.722632	0.674094	0.000080
N96	N	-0.222632	1.174094	0.500080
C97	C	-0.685855	0.725662	0.000085
C98	C	-0.185855	1.225662	0.500085
O99	O	-0.710555	0.770193	0.000091
O100	O	-0.210555	1.270193	0.500091
C101	C	-0.626456	0.724950	0.000085
C102	C	-0.126456	1.224950	0.500085
C103	C	-0.603833	0.672671	0.000085
C104	C	-0.103833	1.172671	0.500085
C105	C	-0.617983	0.568831	0.000077
C106	C	-0.117983	1.068831	0.500077
C107	C	-0.558587	0.568120	0.000084
C108	C	-0.058587	1.068120	0.500084
C109	C	-0.521814	0.619684	0.000092
C110	C	-0.021814	1.119684	0.500092
C111	C	-0.544437	0.671959	0.000093
C112	C	-0.044437	1.171959	0.500093
C113	C	-0.589679	0.776518	0.000084
C114	C	-0.089679	1.276518	0.500084
C115	C	-0.530277	0.775801	0.000084
C116	C	-0.030277	1.275801	0.500084
C117	C	-0.507654	0.723522	0.000084
C118	C	-0.007654	1.223522	0.500084
C119	C	-0.448269	0.722812	0.000108
C120	C	0.051731	1.222812	0.500108
N121	N	-0.425642	0.670536	0.000100
N122	N	0.074358	1.170536	0.500100
C123	C	-0.462415	0.618972	0.000092
C124	C	0.037585	1.118972	0.500092
C125	C	-0.810597	0.727154	0.000084
C126	C	-0.310597	1.227154	0.500084
C127	C	-0.869995	0.727866	0.000090
C128	C	-0.369995	1.227866	0.500090
C129	C	-0.884142	0.624022	0.000075
C130	C	-0.384142	1.124022	0.500075
C131	C	-0.824743	0.623310	0.000075
C132	C	-0.324743	1.123310	0.500075
C133	C	-0.787971	0.674878	0.000076
C134	C	-0.287971	1.174878	0.500076
C135	C	-0.337679	0.617481	0.000108
C136	C	0.162321	1.117481	0.500108
C137	C	-0.278277	0.616774	0.000118
C138	C	0.221723	1.116774	0.500118
C139	C	-0.264135	0.720618	0.000129
C140	C	0.235865	1.220618	0.500129
C141	C	-0.323532	0.721326	0.000123
C142	C	0.176468	1.221326	0.500123
C143	C	-0.360303	0.669753	0.000109
C144	C	0.139697	1.169753	0.500109
O145	O	-0.411491	0.766573	0.000141
O146	O	0.088509	1.266573	0.500141
O147	O	-0.437706	0.574449	0.000075
O148	O	0.062294	1.074449	0.500075
C149	C	0.030009	0.677068	0.000092
C150	C	0.530009	1.177068	0.500092
C151	C	0.093227	0.676302	0.000078
C152	C	0.593227	1.176302	0.500078
C153	C	-0.069393	0.776467	0.000118
C154	C	0.430607	1.276467	0.500118
C155	C	-0.070159	0.839684	0.000122
C156	C	0.429841	1.339684	0.500122
N157	N	-0.082110	0.664322	0.215903
N158	N	0.417890	1.164322	0.715903
N159	N	-0.066163	0.680323	-0.215692
N160	N	0.433837	1.180323	0.284308
C161	C	-0.044801	0.701658	0.259489
C162	C	0.455199	1.201658	0.759489
C163	C	-0.048024	0.698435	0.346678
C164	C	0.451976	1.198435	0.846678
C165	C	-0.088560	0.657878	0.390280
C166	C	0.411440	1.157878	0.890280
C167	C	-0.125871	0.620539	0.346688
C168	C	0.374129	1.120539	0.846688
C169	C	-0.122645	0.623759	0.259500
C170	C	0.377355	1.123759	0.759500
C171	C	-0.100248	0.646204	0.653529
C172	C	0.399752	1.146204	1.153529
C173	C	-0.103473	0.642987	0.740723
C174	C	0.396527	1.142987	1.240723
C175	C	-0.025625	0.720883	0.740707
C176	C	0.474375	1.220883	1.240707
C177	C	-0.022404	0.724102	0.653518
C178	C	0.477596	1.224102	1.153518
C179	C	-0.059713	0.686760	0.609934
C180	C	0.440287	1.186760	1.109934
C181	C	-0.091858	0.654584	0.479401
C182	C	0.408142	1.154584	0.979401
C183	C	-0.056412	0.690052	0.520814
C184	C	0.443588	1.190052	1.020814
H185	H	0.017439	0.404509	0.000074
H186	H	0.517439	0.904509	0.500074
F187	F	-0.657111	0.513945	0.000065
F188	F	-0.157111	1.013945	0.500065
H189	H	0.016144	0.512277	0.000071
H190	H	0.516144	1.012277	0.500071
F191	F	0.037050	-0.147606	0.000093
F192	F	0.537050	0.352394	0.500093
H193	H	-0.170974	0.378847	0.000111
H194	H	0.329026	0.878847	0.500111
F195	F	-0.139956	0.606464	0.607151
F196	F	0.360044	1.106464	1.107151
F197	F	-0.254205	0.561129	0.000121
F198	F	0.245795	1.061129	0.500121
F199	F	-0.232517	0.089346	0.000133
F200	F	0.267483	0.589346	0.500133
H201	H	-0.367611	0.575486	0.000096
H202	H	0.132389	1.075486	0.500096
F203	F	-0.233984	0.211940	0.000122
F204	F	0.266016	0.711940	0.500122
H205	H	-0.165722	-0.059871	0.000130
H206	H	0.334278	0.440129	0.500130
H207	H	-0.341952	0.763896	0.000135
H208	H	0.158048	1.263896	0.500135
F209	F	-0.177319	-0.176832	0.000135
F210	F	0.322681	0.323168	0.500135
F211	F	0.035583	-0.025007	0.000111
F212	F	0.535583	0.474993	0.500111
F213	F	-0.169011	0.577372	0.393093
F214	F	0.330989	1.077372	0.893093
H215	H	-0.124864	0.621564	0.514908
H216	H	0.375136	1.121564	1.014908
F217	F	-0.923289	0.569143	0.000066
F218	F	-0.423289	1.069143	0.500066
F219	F	0.085702	0.132715	0.000111
F220	F	0.585702	0.632715	0.500111
F221	F	-0.894066	0.783509	0.000102
F222	F	-0.394066	1.283509	0.500102
H223	H	-0.540173	0.525549	0.000077
H224	H	-0.040173	1.025549	0.500077
F225	F	0.084228	0.255314	0.000126
F226	F	0.584228	0.755314	0.500126
F227	F	-0.800672	0.567668	0.000074
F228	F	-0.300672	1.067668	0.500074
H229	H	-0.153025	0.593356	0.224014
H230	H	0.346975	1.093356	0.724014
H231	H	-0.780660	0.769149	0.000091
H232	H	-0.280660	1.269149	0.500091
F233	F	-0.613742	0.832163	0.000069
F234	F	-0.113742	1.332163	0.500069
H235	H	-0.500339	0.817795	0.000080
H236	H	-0.000339	1.317795	0.500080
F237	F	-0.013270	0.733212	0.474409
F238	F	0.486730	1.233212	0.974409
F239	F	-0.224989	0.775493	0.000144
F240	F	0.275011	1.275493	0.500144
H241	H	-0.011794	0.734685	0.223994
H242	H	0.488206	1.234685	0.723994
F243	F	-0.008315	0.738171	0.393065
F244	F	0.491685	1.238171	0.893065
H245	H	0.010604	0.757126	0.618019
H246	H	0.510604	1.257126	1.118019
H247	H	-0.172258	0.486599	0.000088
H248	H	0.327742	0.986599	0.500088
H249	H	0.004751	0.751284	0.776201
H250	H	0.504751	1.251284	1.276201
H251	H	-0.136484	0.609959	0.776219
H252	H	0.363516	1.109959	1.276219
