data_functionalizedCrystal
_audit_creation_method	'MofGen! by Chris Wilmer'
_symmetry_space_group_name_H-M	'P1'
_symmetry_Int_Tables_number	1
_symmetry_cell_setting	triclinic
loop_
_symmetry_equiv_pos_as_xyz
  x,y,z
_cell_length_a	15.297327
_cell_length_b	12.759401
_cell_length_c	12.759393
_cell_angle_alpha	90.018567
_cell_angle_beta	80.358266
_cell_angle_gamma	99.705457
loop_
_atom_site_label
_atom_site_type_symbol
_atom_site_fract_x
_atom_site_fract_y
_atom_site_fract_z
Zn1	Zn	-0.359128	1.533794	0.666304
Zn2	Zn	-0.510015	1.503244	0.521009
Zn3	Zn	-0.359172	1.358087	0.490652
Zn4	Zn	-0.509943	1.327654	0.696636
O5	O	-0.434565	1.430695	0.593650
O6	O	-0.379155	1.676760	0.647041
O7	O	-0.490054	1.483939	0.369971
O8	O	-0.232922	1.406916	0.488554
O9	O	-0.490011	1.654315	0.540293
O10	O	-0.232889	1.536007	0.617604
O11	O	-0.379231	1.377293	0.347667
O12	O	-0.379161	1.207031	0.517965
O13	O	-0.489888	1.355049	0.839623
O14	O	-0.489931	1.184673	0.669301
O15	O	-0.379085	1.506498	0.817339
O16	O	-0.636250	1.454430	0.569705
O17	O	-0.636197	1.325425	0.698737
C18	C	-0.434543	1.157732	0.593631
C19	C	-0.434556	1.040952	0.593652
C20	C	-0.376942	0.997749	0.649362
C21	C	-0.376960	0.888021	0.649372
C22	C	-0.492212	0.864709	0.537962
C23	C	-0.492190	0.974436	0.537946
C24	C	-0.319309	1.064265	0.705068
C25	C	-0.261691	1.021062	0.760783
C26	C	-0.261708	0.911335	0.760793
C27	C	-0.319343	0.844810	0.705088
C28	C	-0.668957	1.383339	0.640829
C29	C	-0.769231	1.363176	0.661048
C30	C	-1.051873	1.575236	0.449502
C31	C	-0.957660	1.594179	0.430500
C32	C	-0.910548	1.536430	0.488136
C33	C	-0.957658	1.459734	0.564776
C34	C	-1.051880	1.440783	0.583774
C35	C	-0.910556	1.401977	0.622408
C36	C	-0.957665	1.325281	0.699048
C37	C	-1.051878	1.306334	0.718043
C38	C	-1.098990	1.364082	0.660407
C39	C	-0.816334	1.420929	0.603410
C40	C	-0.816341	1.286475	0.737681
C41	C	-0.910554	1.267532	0.756683
C42	C	-0.199257	1.478264	0.546309
C43	C	-0.098983	1.498535	0.526136
C44	C	-0.434473	1.430787	0.867665
C45	C	-0.434435	1.430826	0.984434
C46	C	-0.434586	1.704723	0.593670
C47	C	-0.434596	1.821498	0.593678
C48	C	-0.434590	1.430677	0.320688
C49	C	-0.434375	1.430892	0.203868
C50	C	-0.376734	1.509696	1.027693
C51	C	-0.376702	1.509728	1.137411
C52	C	-0.492078	1.352014	1.160602
C53	C	-0.492105	1.351979	1.050886
C54	C	-0.319064	1.588543	0.961241
C55	C	-0.261359	1.667420	1.004500
C56	C	-0.261327	1.667451	1.114217
C57	C	-0.318999	1.588606	1.180677
H58	H	-0.214761	1.075234	0.806128
Cl59	Cl	-0.969788	1.171116	0.853027
H60	H	-0.319288	1.153612	0.705066
H61	H	-0.214334	1.731671	1.149433
H62	H	-0.777985	1.483375	0.541008
H63	H	-0.539104	1.009612	0.492583
H64	H	-0.777983	1.239449	0.784611
H65	H	-0.833836	1.551858	0.472659
H66	H	-0.214787	0.876163	0.806150
Cl67	Cl	-0.898443	1.690603	0.334168
Cl68	Cl	-0.318943	1.588636	1.318606
H69	H	-0.319333	0.755467	0.705075
Cl70	Cl	-0.564578	1.252905	1.244152
H71	H	-0.539137	0.810536	0.492612
H72	H	-0.539076	1.287743	1.015661
Cl73	Cl	-0.319104	1.588511	0.823311
H74	H	-1.090240	1.622240	0.402577
Cl75	Cl	-1.217433	1.339845	0.683865
Cl76	Cl	-0.188848	1.766521	0.920951
H77	H	-1.090232	1.243870	0.780436
