data_functionalizedCrystal
_audit_creation_method	'MofGen! by Chris Wilmer'
_symmetry_space_group_name_H-M	'P1'
_symmetry_Int_Tables_number	1
_symmetry_cell_setting	triclinic
loop_
_symmetry_equiv_pos_as_xyz
  x,y,z
_cell_length_a	29.839125
_cell_length_b	21.295418
_cell_length_c	21.295417
_cell_angle_alpha	89.951286
_cell_angle_beta	89.981013
_cell_angle_gamma	90.035570
loop_
_atom_site_label
_atom_site_type_symbol
_atom_site_fract_x
_atom_site_fract_y
_atom_site_fract_z
Zn1	Zn	-0.254284	-0.962279	-0.250392
Zn2	Zn	0.079049	-0.628946	0.082942
Zn3	Zn	0.412383	-0.295613	0.416275
Zn4	Zn	-0.179152	-0.962204	-0.355639
Zn5	Zn	0.154181	-0.628871	-0.022305
Zn6	Zn	0.487514	-0.295538	0.311028
Zn7	Zn	-0.179136	-0.857025	-0.250421
Zn8	Zn	0.154198	-0.523692	0.082913
Zn9	Zn	0.487531	-0.190359	0.416246
Zn10	Zn	-0.254223	-0.856972	-0.355660
Zn11	Zn	0.079110	-0.523639	-0.022327
Zn12	Zn	0.412444	-0.190305	0.311006
O13	O	-0.216699	-0.909620	-0.303028
O14	O	0.116635	-0.576287	0.030306
O15	O	0.449968	-0.242954	0.363639
O16	O	-0.244350	-1.050359	-0.264332
O17	O	0.088983	-0.717026	0.069002
O18	O	0.422316	-0.383692	0.402335
O19	O	-0.116283	-0.948243	-0.341684
O20	O	0.217050	-0.614910	-0.008351
O21	O	0.550384	-0.281576	0.324982
O22	O	-0.189123	-0.871041	-0.162327
O23	O	0.144210	-0.537708	0.171006
O24	O	0.477544	-0.204374	0.504339
O25	O	-0.189151	-1.050304	-0.341656
O26	O	0.144182	-0.716970	-0.008323
O27	O	0.477515	-0.383637	0.325011
O28	O	-0.244334	-0.948371	-0.162306
O29	O	0.088999	-0.615038	0.171027
O30	O	0.422333	-0.281704	0.504361
O31	O	-0.116271	-0.870968	-0.264381
O32	O	0.217063	-0.537635	0.068952
O33	O	0.550396	-0.204302	0.402286
O34	O	-0.189064	-0.768929	-0.264402
O35	O	0.144270	-0.435595	0.068931
O36	O	0.477603	-0.102262	0.402265
O37	O	-0.317098	-0.870950	-0.341693
O38	O	0.016235	-0.537617	-0.008360
O39	O	0.349569	-0.204284	0.324974
O40	O	-0.244230	-0.768890	-0.341721
O41	O	0.089103	-0.435556	-0.008388
O42	O	0.422437	-0.102223	0.324945
O43	O	-0.317143	-0.948319	-0.264353
O44	O	0.016190	-0.614986	0.068981
O45	O	0.349524	-0.281653	0.402314
O46	O	-0.189092	-0.948191	-0.443731
O47	O	0.144241	-0.614858	-0.110397
O48	O	0.477575	-0.281525	0.222936
O49	O	-0.244246	-0.870878	-0.443747
O50	O	0.089087	-0.537544	-0.110413
O51	O	0.422421	-0.204211	0.222920
C52	C	-0.216639	-0.746069	-0.303068
C53	C	0.116695	-0.412735	0.030266
C54	C	0.450028	-0.079402	0.363599
C55	C	-0.216624	-0.676100	-0.303100
C56	C	0.116710	-0.342767	0.030233
C57	C	0.450043	-0.009434	0.363567
C58	C	-0.245304	-0.643230	-0.343415
C59	C	0.088029	-0.309897	-0.010081
C60	C	0.421363	0.023437	0.323252
C61	C	-0.245321	-0.577487	-0.343402
C62	C	0.088013	-0.244154	-0.010069
C63	C	0.421346	0.089179	0.323265
C64	C	-0.216649	-0.544618	-0.303081
C65	C	0.116684	-0.211285	0.030252
C66	C	0.450018	0.122049	0.363586
C67	C	-0.187967	-0.577496	-0.262758
C68	C	0.145367	-0.244163	0.070575
C69	C	0.478700	0.089170	0.403908
C70	C	-0.187954	-0.643238	-0.262768
C71	C	0.145379	-0.309904	0.070565
C72	C	0.478713	0.023429	0.403899
N73	N	-0.177351	-0.441354	-0.298156
N74	N	0.155983	-0.108020	0.035178
N75	N	0.489316	0.225313	0.368511
N76	N	-0.177364	-0.378902	-0.298150
N77	N	0.155969	-0.045569	0.035183
N78	N	0.489303	0.287764	0.368516
C79	C	-0.216687	-0.346543	-0.303049
C80	C	0.116647	-0.013210	0.030284
C81	C	0.449980	0.320123	0.363617
N82	N	-0.255996	-0.378995	-0.307966
N83	N	0.077337	-0.045662	0.025368
N84	N	0.410671	0.287672	0.358701
N85	N	-0.255982	-0.441452	-0.307974
N86	N	0.077351	-0.108119	0.025359
N87	N	0.410684	0.225215	0.358692
C88	C	-0.216660	-0.473333	-0.303066
C89	C	0.116673	-0.139999	0.030267
C90	C	0.450007	0.193334	0.363601
C91	C	-0.245388	-0.242387	-0.343352
C92	C	0.087946	0.090946	-0.010019
C93	C	0.421279	0.424279	0.323314
C94	C	-0.245405	-0.176644	-0.343335
C95	C	0.087928	0.156690	-0.010002
C96	C	0.421261	0.490023	0.323332
C97	C	-0.188047	-0.176654	-0.262695
C98	C	0.145286	0.156680	0.070638
C99	C	0.478619	0.490013	0.403972
C100	C	-0.188034	-0.242396	-0.262709
C101	C	0.145300	0.090937	0.070625
C102	C	0.478633	0.424270	0.403958
C103	C	-0.216703	-0.275259	-0.303041
C104	C	0.116630	0.058074	0.030293
C105	C	0.449963	0.391408	0.363626
C106	C	-0.333877	-0.909637	-0.303022
C107	C	-0.000544	-0.576304	0.030311
C108	C	0.332790	-0.242971	0.363645
C109	C	-0.383812	-0.909645	-0.303020
C110	C	-0.050478	-0.576311	0.030314
C111	C	0.282855	-0.242978	0.363647
C112	C	-0.693481	-0.949973	-0.262643
C113	C	-0.360148	-0.616640	0.070690
C114	C	-0.026815	-0.283306	0.404024
C115	C	-0.881155	-0.950004	-0.262589
C116	C	-0.547821	-0.616671	0.070744
C117	C	-0.214488	-0.283337	0.404077
O118	O	-0.905442	-0.984246	-0.228319
O119	O	-0.572109	-0.650913	0.105014
O120	O	-0.238775	-0.317579	0.438347
N121	N	-0.904597	-0.909728	-0.302851
N122	N	-0.571264	-0.576395	0.030482
N123	N	-0.237930	-0.243061	0.363816
C124	C	-0.881118	-0.869438	-0.343126
C125	C	-0.547785	-0.536105	-0.009793
C126	C	-0.214451	-0.202772	0.323541
O127	O	-0.905363	-0.835177	-0.377365
O128	O	-0.572030	-0.501844	-0.044032
O129	O	-0.238697	-0.168510	0.289301
C130	C	-0.693446	-0.869404	-0.343176
C131	C	-0.360112	-0.536071	-0.009843
C132	C	-0.026779	-0.202738	0.323490
C133	C	-0.670006	-0.909688	-0.302916
C134	C	-0.336673	-0.576354	0.030417
C135	C	-0.003339	-0.243021	0.363750
C136	C	-0.670042	-0.990252	-0.222386
C137	C	-0.336708	-0.656919	0.110947
C138	C	-0.003375	-0.323586	0.444281
C139	C	-0.623126	-0.990247	-0.222402
C140	C	-0.289793	-0.656913	0.110931
C141	C	0.043541	-0.323580	0.444264
C142	C	-0.599651	-0.949961	-0.262676
C143	C	-0.266317	-0.616628	0.070658
C144	C	0.067016	-0.283295	0.403991
C145	C	-0.623090	-0.909682	-0.302933
C146	C	-0.289757	-0.576349	0.030401
C147	C	0.043576	-0.243015	0.363734
C148	C	-0.669968	-0.829112	-0.383448
C149	C	-0.336634	-0.495779	-0.050114
C150	C	-0.003301	-0.162445	0.283219
C151	C	-0.623047	-0.829106	-0.383455
C152	C	-0.289713	-0.495773	-0.050122
C153	C	0.043620	-0.162439	0.283211
C154	C	-0.599607	-0.869389	-0.343196
C155	C	-0.266273	-0.536056	-0.009862
C156	C	0.067060	-0.202723	0.323471
C157	C	-0.552699	-0.869391	-0.343222
C158	C	-0.219366	-0.536057	-0.009889
C159	C	0.113967	-0.202724	0.323445
N160	N	-0.529257	-0.909667	-0.302960
N161	N	-0.195924	-0.576334	0.030373
N162	N	0.137410	-0.243000	0.363706
C163	C	-0.552733	-0.949952	-0.262687
C164	C	-0.219399	-0.616619	0.070646
C165	C	0.113934	-0.283286	0.403980
C166	C	-0.979649	-0.869460	-0.343098
C167	C	-0.646315	-0.536127	-0.009765
C168	C	-0.312982	-0.202793	0.323569
C169	C	-1.026567	-0.869469	-0.343086
C170	C	-0.693233	-0.536136	-0.009753
C171	C	-0.359900	-0.202802	0.323580
C172	C	-1.026600	-0.950034	-0.262549
C173	C	-0.693267	-0.616701	0.070785
C174	C	-0.359933	-0.283368	0.404118
C175	C	-0.979681	-0.950028	-0.262564
C176	C	-0.646348	-0.616694	0.070770
C177	C	-0.313015	-0.283361	0.404103
C178	C	-0.956206	-0.909736	-0.302836
C179	C	-0.622873	-0.576403	0.030497
C180	C	-0.289540	-0.243069	0.363830
C181	C	-0.454207	-0.949937	-0.262725
C182	C	-0.120873	-0.616604	0.070609
C183	C	0.212460	-0.283271	0.403942
C184	C	-0.407287	-0.949930	-0.262746
C185	C	-0.073954	-0.616596	0.070587
C186	C	0.259379	-0.283263	0.403920
C187	C	-0.407258	-0.869363	-0.343282
C188	C	-0.073925	-0.536029	-0.009948
C189	C	0.259409	-0.202696	0.323385
C190	C	-0.454173	-0.869372	-0.343262
C191	C	-0.120840	-0.536039	-0.009929
C192	C	0.212493	-0.202706	0.323404
C193	C	-0.477647	-0.909662	-0.302979
C194	C	-0.144313	-0.576328	0.030354
C195	C	0.189020	-0.242995	0.363688
O196	O	-0.528383	-0.835162	-0.377469
O197	O	-0.195050	-0.501829	-0.044136
O198	O	0.138284	-0.168495	0.289197
O199	O	-0.528479	-0.984198	-0.228443
O200	O	-0.195146	-0.650865	0.104890
O201	O	0.138187	-0.317532	0.438224
C202	C	-0.740397	-0.949979	-0.262627
C203	C	-0.407064	-0.616645	0.070707
C204	C	-0.073730	-0.283312	0.404040
C205	C	-0.763837	-0.909699	-0.302884
C206	C	-0.430504	-0.576366	0.030449
C207	C	-0.097170	-0.243033	0.363783
C208	C	-0.740361	-0.869414	-0.343157
C209	C	-0.407028	-0.536081	-0.009824
C210	C	-0.073695	-0.202747	0.323510
C211	C	-0.810755	-0.909708	-0.302872
C212	C	-0.477421	-0.576375	0.030461
C213	C	-0.144088	-0.243042	0.363794
C214	C	-0.834230	-0.949994	-0.262599
C215	C	-0.500897	-0.616660	0.070734
C216	C	-0.167564	-0.283327	0.404068
C217	C	-0.810788	-0.990270	-0.222337
C218	C	-0.477455	-0.656936	0.110996
C219	C	-0.144121	-0.323603	0.444329
C220	C	-0.763873	-0.990264	-0.222353
C221	C	-0.430539	-0.656931	0.110980
C222	C	-0.097206	-0.323597	0.444313
C223	C	-0.763803	-0.829138	-0.383419
C224	C	-0.430470	-0.495805	-0.050086
C225	C	-0.097137	-0.162471	0.283248
C226	C	-0.810719	-0.829147	-0.383400
C227	C	-0.477386	-0.495814	-0.050066
C228	C	-0.144052	-0.162481	0.283267
C229	C	-0.834195	-0.869433	-0.343127
C230	C	-0.500861	-0.536099	-0.009793
C231	C	-0.167528	-0.202766	0.323540
C232	C	-0.099976	-0.909640	-0.302988
C233	C	0.233357	-0.576306	0.030345
C234	C	0.566690	-0.242973	0.363679
C235	C	-0.050042	-0.909754	-0.302813
C236	C	0.283291	-0.576421	0.030520
C237	C	0.616625	-0.243088	0.363854
C238	C	-0.216674	-0.909538	-0.466579
C239	C	0.116659	-0.576204	-0.133246
C240	C	0.449993	-0.242871	0.200087
C241	C	-0.216678	-0.909560	-0.536547
C242	C	0.116655	-0.576227	-0.203214
C243	C	0.449988	-0.242893	0.130119
C244	C	-0.216746	-0.073811	-0.302999
C245	C	0.116587	0.259523	0.030335
C246	C	0.449920	0.592856	0.363668
C247	C	-0.216734	-0.143779	-0.303013
C248	C	0.116599	0.189555	0.030320
C249	C	0.449933	0.522888	0.363654
C250	C	-0.187989	-0.949853	-0.569385
C251	C	0.145344	-0.616520	-0.236052
C252	C	0.478678	-0.283186	0.097282
C253	C	-0.187999	-0.949883	-0.635127
C254	C	0.145334	-0.616549	-0.301794
C255	C	0.478668	-0.283216	0.031539
C256	C	-0.216694	-0.909608	-0.668030
C257	C	0.116640	-0.576274	-0.334697
C258	C	0.449973	-0.242941	-0.001363
C259	C	-0.245389	-0.869312	-0.635185
C260	C	0.087945	-0.535979	-0.301851
C261	C	0.421278	-0.202645	0.031482
C262	C	-0.245381	-0.869288	-0.569443
C263	C	0.087953	-0.535955	-0.236110
C264	C	0.421286	-0.202621	0.097223
N265	N	-0.220098	-0.854540	-0.771314
N266	N	0.113235	-0.521206	-0.437981
N267	N	0.446568	-0.187873	-0.104648
N268	N	-0.220103	-0.854564	-0.833766
N269	N	0.113230	-0.521231	-0.500432
N270	N	0.446564	-0.187898	-0.167099
C271	C	-0.216720	-0.909678	-0.866105
C272	C	0.116614	-0.576345	-0.532771
C273	C	0.449947	-0.243012	-0.199438
N274	N	-0.213322	-0.964768	-0.833633
N275	N	0.120011	-0.631435	-0.500300
N276	N	0.453344	-0.298102	-0.166966
N277	N	-0.213315	-0.964743	-0.771176
N278	N	0.120018	-0.631410	-0.437842
N279	N	0.453352	-0.298076	-0.104509
C280	C	-0.216706	-0.909630	-0.739315
C281	C	0.116628	-0.576296	-0.405982
C282	C	0.449961	-0.242963	-0.072649
C283	C	-0.188040	-0.950007	-0.970228
C284	C	0.145294	-0.616673	-0.636894
C285	C	0.478627	-0.283340	-0.303561
C286	C	-0.188053	-0.950037	-1.035971
C287	C	0.145280	-0.616704	-0.702638
C288	C	0.478614	-0.283371	-0.369305
C289	C	-0.245440	-0.869461	-1.036027
C290	C	0.087893	-0.536128	-0.702694
C291	C	0.421227	-0.202794	-0.369361
C292	C	-0.245429	-0.869436	-0.970285
C293	C	0.087904	-0.536103	-0.636951
C294	C	0.421237	-0.202769	-0.303618
C295	C	-0.216727	-0.909708	-0.937389
C296	C	0.116607	-0.576375	-0.604056
C297	C	0.449940	-0.243041	-0.270722
C298	C	-0.216734	-0.909720	-0.138837
C299	C	0.116600	-0.576387	0.194496
C300	C	0.449933	-0.243054	0.527829
C301	C	-0.216748	-0.909763	-0.068869
C302	C	0.116585	-0.576430	0.264464
C303	C	0.449918	-0.243096	0.597797
H304	H	-0.164599	-0.670001	-0.229937
H305	H	0.168735	-0.336667	0.103396
H306	H	0.502068	-0.003334	0.436730
N307	N	-0.276323	-0.825820	-0.534027
N308	N	0.057010	-0.492486	-0.200693
N309	N	0.390344	-0.159153	0.132640
H310	H	-0.258033	-0.796656	-0.506801
H311	H	0.075300	-0.463323	-0.173468
H312	H	0.408634	-0.129990	0.159865
H313	H	-0.297157	-0.851413	-0.506738
H314	H	0.036176	-0.518080	-0.173405
H315	H	0.369510	-0.184746	0.159928
N316	N	-0.276309	-0.277838	-0.386848
N317	N	0.057024	0.055495	-0.053515
N318	N	0.390358	0.388829	0.279818
H319	H	-0.294484	-0.247036	-0.412383
H320	H	0.038849	0.086297	-0.079050
H321	H	0.372183	0.419631	0.254284
H322	H	-0.297127	-0.305169	-0.361273
H323	H	0.036207	0.028164	-0.027940
H324	H	0.369540	0.361498	0.305393
H325	H	-0.604046	-1.023048	-0.189617
H326	H	-0.270712	-0.689715	0.143716
H327	H	0.062621	-0.356382	0.477049
H328	H	-0.603936	-0.796288	-0.416244
H329	H	-0.270603	-0.462955	-0.082911
H330	H	0.062731	-0.129621	0.250422
H331	H	-0.960540	-0.836650	-0.375897
H332	H	-0.627206	-0.503317	-0.042563
H333	H	-0.293873	-0.169983	0.290770
N334	N	-0.157038	-0.542046	-0.219277
N335	N	0.176295	-0.208713	0.114057
N336	N	0.509629	0.124621	0.447390
H337	H	-0.164070	-0.553534	-0.174314
H338	H	0.169263	-0.220200	0.159019
H339	H	0.502596	0.113133	0.492353
H340	H	-0.161412	-0.495423	-0.225447
H341	H	0.171921	-0.162090	0.107886
H342	H	0.505255	0.171244	0.441219
N343	N	-0.276339	-0.141187	-0.386822
N344	N	0.056994	0.192147	-0.053488
N345	N	0.390328	0.525480	0.279845
H346	H	-0.294496	-0.171984	-0.412374
H347	H	0.038838	0.161350	-0.079041
H348	H	0.372171	0.494683	0.254293
H349	H	-0.258013	-0.113859	-0.415904
H350	H	0.075320	0.219474	-0.082571
H351	H	0.408653	0.552807	0.250762
N352	N	-0.695357	-1.033700	-0.178938
N353	N	-0.362024	-0.700366	0.154395
N354	N	-0.028691	-0.367033	0.487729
H355	H	-0.673382	-1.059209	-0.153439
H356	H	-0.340049	-0.725876	0.179894
H357	H	-0.006716	-0.392542	0.513227
H358	H	-0.714832	-1.062825	-0.204543
H359	H	-0.381498	-0.729491	0.128790
H360	H	-0.048165	-0.396158	0.462124
N361	N	-0.381933	-0.825915	-0.386719
N362	N	-0.048600	-0.492582	-0.053386
N363	N	0.284733	-0.159249	0.279947
H364	H	-0.348655	-0.832026	-0.380615
H365	H	-0.015322	-0.498692	-0.047281
H366	H	0.318012	-0.165359	0.286052
H367	H	-0.390117	-0.780965	-0.376927
H368	H	-0.056784	-0.447632	-0.043593
H369	H	0.276550	-0.114298	0.289740
N370	N	-0.157045	-0.993332	-0.670553
N371	N	0.176288	-0.659998	-0.337220
N372	N	0.509621	-0.326665	-0.003887
H373	H	-0.161404	-0.987232	-0.717192
H374	H	0.171929	-0.653899	-0.383859
H375	H	0.505263	-0.320565	-0.050525
H376	H	-0.164070	-1.038283	-0.659010
H377	H	0.169263	-0.704950	-0.325676
H378	H	0.502597	-0.371616	0.007657
H379	H	-0.268806	-0.836671	-1.062816
H380	H	0.064528	-0.503338	-0.729483
H381	H	0.397861	-0.170005	-0.396149
N382	N	-0.157105	-0.993496	-1.071390
N383	N	0.176228	-0.660163	-0.738057
N384	N	0.509562	-0.326829	-0.404723
H385	H	-0.161466	-0.987404	-1.118029
H386	H	0.171868	-0.654070	-0.784696
H387	H	0.505201	-0.320737	-0.451362
H388	H	-0.164134	-1.038443	-1.059837
H389	H	0.169199	-0.705110	-0.726504
H390	H	0.502532	-0.371777	-0.393171
H391	H	-0.829910	-1.023074	-0.189547
H392	H	-0.496577	-0.689740	0.143786
H393	H	-0.163243	-0.356407	0.477119
N394	N	-0.276370	-0.825972	-0.934862
N395	N	0.056964	-0.492639	-0.601529
N396	N	0.390297	-0.159306	-0.268196
H397	H	-0.294549	-0.800461	-0.965680
H398	H	0.038784	-0.467128	-0.632346
H399	H	0.372118	-0.133794	-0.299013
H400	H	-0.258050	-0.796850	-0.907635
H401	H	0.075284	-0.463517	-0.574302
H402	H	0.408617	-0.130183	-0.240968
N403	N	-0.954401	-0.993475	-0.219142
N404	N	-0.621068	-0.660142	0.114192
N405	N	-0.287735	-0.326809	0.447525
H406	H	-0.976397	-1.018996	-0.193631
H407	H	-0.643063	-0.685663	0.139703
H408	H	-0.309730	-0.352330	0.473036
H409	H	-0.934930	-0.967868	-0.190018
H410	H	-0.601597	-0.634535	0.143316
H411	H	-0.268263	-0.301201	0.476649
H412	H	-0.744792	-1.023067	-0.189569
H413	H	-0.411459	-0.689733	0.143764
H414	H	-0.078125	-0.356400	0.477097
N415	N	-0.276225	-0.678675	-0.386913
N416	N	0.057108	-0.345341	-0.053580
N417	N	0.390442	-0.012008	0.279753
H418	H	-0.294397	-0.647871	-0.412451
H419	H	0.038937	-0.314538	-0.079118
H420	H	0.372270	0.018795	0.254216
H421	H	-0.297045	-0.706003	-0.361340
H422	H	0.036288	-0.372669	-0.028007
H423	H	0.369621	-0.039336	0.305327
N424	N	-0.276256	-0.542023	-0.386885
N425	N	0.057077	-0.208690	-0.053551
N426	N	0.390410	0.124643	0.279782
H427	H	-0.294417	-0.572818	-0.412435
H428	H	0.038917	-0.239484	-0.079101
H429	H	0.372250	0.093849	0.254232
H430	H	-0.257933	-0.514696	-0.415970
H431	H	0.075401	-0.181362	-0.082636
H432	H	0.408734	0.151971	0.250697
N433	N	-0.276333	-0.825867	-0.670670
N434	N	0.057000	-0.492534	-0.337337
N435	N	0.390333	-0.159201	-0.004003
H436	H	-0.294507	-0.800336	-0.639889
H437	H	0.038826	-0.467003	-0.306556
H438	H	0.372159	-0.133669	0.026778
H439	H	-0.297151	-0.851478	-0.697904
H440	H	0.036182	-0.518145	-0.364570
H441	H	0.369516	-0.184811	-0.031237
H442	H	-0.164704	-0.149892	-0.229862
H443	H	0.168629	0.183441	0.103471
H444	H	0.501962	0.516775	0.436805
H445	H	-0.164670	-0.982801	-0.943443
H446	H	0.168664	-0.649467	-0.610109
H447	H	0.501997	-0.316134	-0.276776
N448	N	-1.051924	-0.993486	-0.219111
N449	N	-0.718591	-0.660153	0.114223
N450	N	-0.385258	-0.326820	0.447556
H451	H	-1.085202	-0.987376	-0.225216
H452	H	-0.751869	-0.654042	0.108118
H453	H	-0.418536	-0.320709	0.441451
H454	H	-1.043726	-0.983710	-0.174158
H455	H	-0.710393	-0.650377	0.159176
H456	H	-0.377060	-0.317043	0.492509
N457	N	-0.479458	-0.825934	-0.386692
N458	N	-0.146125	-0.492600	-0.053359
N459	N	0.187208	-0.159267	0.279975
H460	H	-0.457465	-0.800415	-0.412209
H461	H	-0.124132	-0.467081	-0.078876
H462	H	0.209201	-0.133748	0.254458
H463	H	-0.498913	-0.796818	-0.361068
H464	H	-0.165580	-0.463484	-0.027735
H465	H	0.167753	-0.130151	0.305598
H466	H	-0.829800	-0.796345	-0.416190
H467	H	-0.496466	-0.463012	-0.082857
H468	H	-0.163133	-0.129678	0.250476
H469	H	-0.164619	-0.982646	-0.542603
H470	H	0.168715	-0.649313	-0.209270
H471	H	0.502048	-0.315980	0.124064
N472	N	-0.157102	-0.277855	-0.219222
N473	N	0.176231	0.055479	0.114111
N474	N	0.509564	0.388812	0.447445
H475	H	-0.138942	-0.247058	-0.193674
H476	H	0.194391	0.086275	0.139659
H477	H	0.527724	0.419609	0.472992
H478	H	-0.136271	-0.305083	-0.244799
H479	H	0.197062	0.028250	0.088534
H480	H	0.530395	0.361583	0.421867
N481	N	-1.051846	-0.826030	-0.386518
N482	N	-0.718512	-0.492697	-0.053185
N483	N	-0.385179	-0.159363	0.280149
H484	H	-1.029850	-0.800509	-0.412029
H485	H	-0.696517	-0.467176	-0.078696
H486	H	-0.363183	-0.133843	0.254637
H487	H	-1.071304	-0.796915	-0.360898
H488	H	-0.737971	-0.463582	-0.027565
H489	H	-0.404638	-0.130249	0.305769
H490	H	-0.744694	-0.796333	-0.416216
H491	H	-0.411361	-0.462999	-0.082882
H492	H	-0.078028	-0.129666	0.250451
H493	H	-0.388205	-0.982736	-0.229961
H494	H	-0.054871	-0.649402	0.103372
H495	H	0.278462	-0.316069	0.436705
H496	H	-0.473313	-0.982743	-0.229920
H497	H	-0.139980	-0.649409	0.103413
H498	H	0.193353	-0.316076	0.436747
H499	H	-0.689044	-0.796309	-0.416231
H500	H	-0.355711	-0.462976	-0.082898
H501	H	-0.022378	-0.129642	0.250435
