data_functionalizedCrystal
_audit_creation_method	'MofGen! by Chris Wilmer'
_symmetry_space_group_name_H-M	'P1'
_symmetry_Int_Tables_number	1
_symmetry_cell_setting	triclinic
loop_
_symmetry_equiv_pos_as_xyz
  x,y,z
_cell_length_a	16.120530
_cell_length_b	16.959454
_cell_length_c	16.959434
_cell_angle_alpha	89.918911
_cell_angle_beta	87.039288
_cell_angle_gamma	87.096981
loop_
_atom_site_label
_atom_site_type_symbol
_atom_site_fract_x
_atom_site_fract_y
_atom_site_fract_z
Zn1	Zn	1.275085	-0.375520	-0.508216
Zn2	Zn	1.274940	-0.507842	-0.376050
Zn3	Zn	1.135561	-0.368979	-0.369350
Zn4	Zn	1.135680	-0.500956	-0.501499
O5	O	1.205317	-0.438324	-0.438779
O6	O	1.391738	-0.398692	-0.496300
O7	O	1.256340	-0.489566	-0.264545
O8	O	1.154080	-0.259236	-0.387779
O9	O	1.391632	-0.495908	-0.399198
O10	O	1.256588	-0.264042	-0.489803
O11	O	1.153939	-0.387544	-0.259623
O12	O	1.018904	-0.380867	-0.381265
O13	O	1.154283	-0.484173	-0.613006
O14	O	1.018992	-0.477830	-0.478354
O15	O	1.256703	-0.392015	-0.617942
O16	O	1.256456	-0.617539	-0.392684
O17	O	1.154142	-0.612480	-0.484850
C18	C	1.205319	-0.643691	-0.438784
C19	C	1.205396	-0.731551	-0.438816
C20	C	0.988696	-0.427892	-0.428354
C21	C	0.896025	-0.423448	-0.423912
C22	C	1.205523	-0.438055	-0.644958
C23	C	1.205611	-0.437941	-0.732819
C24	C	0.726354	-0.415317	-0.415811
C25	C	0.685120	-0.461390	-0.461805
C26	C	0.590709	-0.456866	-0.457297
C27	C	0.820773	-0.419840	-0.420318
C28	C	1.422783	-0.448798	-0.449245
C29	C	1.515454	-0.453261	-0.453706
C30	C	1.205337	-0.232157	-0.438793
C31	C	1.205346	-0.144301	-0.438799
C32	C	1.258763	0.224673	-0.491933
C33	C	1.152021	0.229672	-0.385695
C34	C	1.152008	0.147127	-0.385691
C35	C	1.205375	0.103351	-0.438809
C36	C	1.258754	0.142120	-0.491930
C37	C	1.098636	0.108351	-0.332566
C38	C	1.098623	0.025801	-0.332559
C39	C	1.151986	-0.017977	-0.385682
C40	C	1.205367	0.020797	-0.438805
C41	C	1.258733	-0.022979	-0.491923
C42	C	1.312110	0.015794	-0.545052
C43	C	1.312117	0.098342	-0.545052
C44	C	1.151979	-0.100525	-0.385681
C45	C	1.258725	-0.105532	-0.491920
C46	C	1.205159	-0.438538	-0.233405
C47	C	1.205233	-0.438438	-0.145552
C48	C	1.152635	-0.486357	0.228683
C49	C	1.258509	-0.389623	0.223130
C50	C	1.258436	-0.389723	0.140587
C51	C	1.205460	-0.438139	0.102089
C52	C	1.152558	-0.486456	0.146134
C53	C	1.311331	-0.341401	0.096537
C54	C	1.311259	-0.341498	0.013990
C55	C	1.258287	-0.389919	-0.024509
C56	C	1.205383	-0.438239	0.019540
C57	C	1.152408	-0.486655	-0.018958
C58	C	1.099508	-0.534979	0.025090
C59	C	1.099586	-0.534878	0.107634
C60	C	1.258208	-0.390021	-0.107054
C61	C	1.152331	-0.486755	-0.101508
H62	H	0.720723	-0.504232	-0.504568
H63	H	0.690753	-0.372478	-0.373051
Cl64	Cl	1.325814	-0.160558	-0.558705
Cl65	Cl	1.379202	-0.039248	-0.611820
Cl66	Cl	1.031555	0.163386	-0.265791
H67	H	1.355576	0.129916	-0.588307
H68	H	1.354458	-0.301980	0.127889
Cl69	Cl	1.325855	0.273413	-0.558726
H70	H	1.301272	-0.350670	-0.142914
H71	H	1.108575	0.265317	-0.342444
H72	H	1.055160	-0.005761	-0.289300
H73	H	1.354334	-0.302151	-0.021867
H74	H	1.108523	-0.132090	-0.342422
Cl75	Cl	1.085733	-0.547629	-0.149898
Cl76	Cl	1.086137	-0.547105	0.284054
Cl77	Cl	1.032907	-0.595838	-0.023317
H78	H	1.056517	-0.574220	0.143505
H79	H	1.301636	-0.350201	0.254480
