data_functionalizedCrystal
_audit_creation_method	'MofGen! by Chris Wilmer'
_symmetry_space_group_name_H-M	'P1'
_symmetry_Int_Tables_number	1
_symmetry_cell_setting	triclinic
loop_
_symmetry_equiv_pos_as_xyz
  x,y,z
_cell_length_a	14.044202
_cell_length_b	13.101039
_cell_length_c	14.044190
_cell_angle_alpha	93.663707
_cell_angle_beta	93.192239
_cell_angle_gamma	86.337612
loop_
_atom_site_label
_atom_site_type_symbol
_atom_site_fract_x
_atom_site_fract_y
_atom_site_fract_z
O1	O	-1.281982	0.085183	-0.225388
O2	O	-1.031982	0.335183	0.024612
O3	O	-0.781982	0.585183	0.274612
O4	O	-0.531982	0.835183	0.524612
O5	O	-1.005311	0.085196	-0.217072
O6	O	-0.755311	0.335196	0.032928
O7	O	-0.505311	0.585196	0.282928
O8	O	-0.255311	0.835196	0.532928
O9	O	-1.139489	0.085170	-0.082895
O10	O	-0.889489	0.335170	0.167105
O11	O	-0.639489	0.585170	0.417105
O12	O	-0.389489	0.835170	0.667105
O13	O	-1.147804	0.085210	-0.359565
O14	O	-0.897804	0.335210	-0.109565
O15	O	-0.647804	0.585210	0.140435
O16	O	-0.397804	0.835210	0.390435
O17	O	-1.129863	-0.085258	-0.092539
O18	O	-0.879863	0.164742	0.157461
O19	O	-0.629863	0.414742	0.407461
O20	O	-0.379863	0.664742	0.657461
O21	O	-0.995685	-0.085232	-0.226717
O22	O	-0.745685	0.164768	0.023283
O23	O	-0.495685	0.414768	0.273283
O24	O	-0.245685	0.664768	0.523283
O25	O	-1.272357	-0.085244	-0.235032
O26	O	-1.022357	0.164756	0.014968
O27	O	-0.772357	0.414756	0.264968
O28	O	-0.522357	0.664756	0.514968
Zn29	Zn	-1.132493	-0.112297	-0.232406
Zn30	Zn	-0.882493	0.137703	0.017594
Zn31	Zn	-0.632493	0.387703	0.267594
Zn32	Zn	-0.382493	0.637703	0.517594
Zn33	Zn	-1.145175	0.112249	-0.219699
Zn34	Zn	-0.895175	0.362249	0.030301
Zn35	Zn	-0.645175	0.612249	0.280301
Zn36	Zn	-0.395175	0.862249	0.530301
O37	O	-1.138178	-0.085218	-0.369210
O38	O	-0.888178	0.164782	-0.119210
O39	O	-0.638178	0.414782	0.130790
O40	O	-0.388178	0.664782	0.380790
C41	C	-0.964876	-0.000016	-0.218257
C42	C	-0.714876	0.249984	0.031743
C43	C	-0.464876	0.499984	0.281743
C44	C	-0.214876	0.749984	0.531743
C45	C	-0.858733	-0.000013	-0.207409
C46	C	-0.608733	0.249987	0.042591
C47	C	-0.358733	0.499987	0.292591
C48	C	-0.108733	0.749987	0.542591
C49	C	-0.613276	-0.000014	-0.264508
C50	C	-0.363276	0.249986	-0.014508
C51	C	-0.113276	0.499986	0.235492
C52	C	0.136724	0.749986	0.485492
C53	C	-0.664399	-0.000024	-0.187592
C54	C	-0.414399	0.249976	0.062408
C55	C	-0.164399	0.499976	0.312408
C56	C	0.085601	0.749976	0.562408
C57	C	-0.772536	-0.000017	-0.198621
C58	C	-0.522536	0.249983	0.051379
C59	C	-0.272536	0.499983	0.301379
C60	C	-0.022536	0.749983	0.551379
C61	C	-0.505128	-0.000020	-0.253480
C62	C	-0.255128	0.249980	-0.003480
C63	C	-0.005128	0.499980	0.246520
C64	C	0.244872	0.749980	0.496520
N65	N	-1.123844	-0.265544	-0.241078
N66	N	-0.873844	-0.015544	0.008922
N67	N	-0.623844	0.234456	0.258922
N68	N	-0.373844	0.484456	0.508922
C69	C	-1.112078	-0.474584	-0.252885
C70	C	-0.862078	-0.224584	-0.002885
C71	C	-0.612078	0.025416	0.247115
C72	C	-0.362078	0.275416	0.497115
C73	C	-1.165593	-0.525471	-0.199215
C74	C	-0.915593	-0.275471	0.050785
C75	C	-0.665593	-0.025471	0.300785
C76	C	-0.415593	0.224529	0.550785
C77	C	-1.159046	-0.641788	-0.205785
C78	C	-0.909046	-0.391788	0.044215
C79	C	-0.659046	-0.141788	0.294215
C80	C	-0.409046	0.108212	0.544215
C81	C	-1.118624	-0.358257	-0.246317
C82	C	-0.868624	-0.108257	0.003683
C83	C	-0.618624	0.141743	0.253683
C84	C	-0.368624	0.391743	0.503683
C85	C	-0.312792	-0.000029	-0.233845
C86	C	-0.062792	0.249971	0.016155
C87	C	0.187208	0.499971	0.266155
C88	C	0.437208	0.749971	0.516155
C89	C	-0.418936	-0.000025	-0.244687
C90	C	-0.168936	0.249975	0.005313
C91	C	0.081064	0.499975	0.255313
C92	C	0.331064	0.749975	0.505313
C93	C	-1.131039	-0.000047	-0.052095
C94	C	-0.881039	0.249953	0.197905
C95	C	-0.631039	0.499953	0.447905
C96	C	-0.381039	0.749953	0.697905
C97	C	-1.120192	-0.000055	0.054048
C98	C	-0.870192	0.249945	0.304048
C99	C	-0.620192	0.499945	0.554048
C100	C	-0.370192	0.749945	0.804048
N101	N	-1.153830	0.265496	-0.211019
N102	N	-0.903830	0.515496	0.038981
N103	N	-0.653830	0.765496	0.288981
N104	N	-0.403830	1.015496	0.538981
C105	C	-1.146628	0.000001	-0.400009
C106	C	-0.896628	0.250001	-0.150009
C107	C	-0.646628	0.500001	0.099991
C108	C	-0.396628	0.750001	0.349991
C109	C	-1.157476	0.000016	-0.506152
C110	C	-0.907476	0.250016	-0.256152
C111	C	-0.657476	0.500016	-0.006152
C112	C	-0.407476	0.750016	0.243848
C113	C	-1.177294	-0.000018	0.299507
C114	C	-0.927294	0.249982	0.549507
C115	C	-0.677294	0.499982	0.799507
C116	C	-0.427294	0.749982	1.049507
C117	C	-1.100378	-0.000021	0.248384
C118	C	-0.850378	0.249979	0.498384
C119	C	-0.600378	0.499979	0.748384
C120	C	-0.350378	0.749979	0.998384
C121	C	-1.111405	-0.000040	0.140245
C122	C	-0.861405	0.249960	0.390245
C123	C	-0.611405	0.499960	0.640245
C124	C	-0.361405	0.749960	0.890245
C125	C	-1.166269	0.000001	0.407655
C126	C	-0.916269	0.250001	0.657655
C127	C	-0.666269	0.500001	0.907655
C128	C	-0.416269	0.750001	1.157655
H129	H	-0.626957	0.000038	-0.113456
H130	H	-0.376957	0.250038	0.136544
H131	H	-0.126957	0.500038	0.386544
H132	H	0.123043	0.750038	0.636544
C133	C	-0.663862	0.000011	-0.364651
C134	C	-0.413862	0.250011	-0.114651
C135	C	-0.163862	0.500011	0.135349
C136	C	0.086138	0.750011	0.385349
N137	N	-0.701975	0.000034	-0.440077
N138	N	-0.451975	0.250034	-0.190077
N139	N	-0.201975	0.500034	0.059923
N140	N	0.048025	0.750034	0.309923
H141	H	-1.216325	-0.481678	-0.148333
H142	H	-0.966325	-0.231678	0.101667
H143	H	-0.716325	0.018322	0.351667
H144	H	-0.466325	0.268322	0.601667
H145	H	-1.251420	-0.000032	0.262062
H146	H	-1.001420	0.249968	0.512062
H147	H	-0.751420	0.499968	0.762062
H148	H	-0.501420	0.749968	1.012062
C149	C	-1.043545	-0.533743	-0.321620
C150	C	-0.793545	-0.283743	-0.071620
C151	C	-0.543545	-0.033743	0.178380
C152	C	-0.293545	0.216257	0.428380
N153	N	-0.991926	-0.578313	-0.373391
N154	N	-0.741926	-0.328313	-0.123391
N155	N	-0.491926	-0.078313	0.126609
N156	N	-0.241926	0.171687	0.376609
C157	C	-1.000227	-0.000016	0.298970
C158	C	-0.750227	0.249984	0.548970
C159	C	-0.500227	0.499984	0.798970
C160	C	-0.250227	0.749984	1.048970
N161	N	-0.924796	-0.000016	0.337075
N162	N	-0.674796	0.249984	0.587075
N163	N	-0.424796	0.499984	0.837075
N164	N	-0.174796	0.749984	1.087075
