data_functionalizedCrystal
_audit_creation_method	'MofGen! by Chris Wilmer'
_symmetry_space_group_name_H-M	'P1'
_symmetry_Int_Tables_number	1
_symmetry_cell_setting	triclinic
loop_
_symmetry_equiv_pos_as_xyz
  x,y,z
_cell_length_a	18.215407
_cell_length_b	12.645330
_cell_length_c	18.215399
_cell_angle_alpha	90.025165
_cell_angle_beta	90.019833
_cell_angle_gamma	90.013094
loop_
_atom_site_label
_atom_site_type_symbol
_atom_site_fract_x
_atom_site_fract_y
_atom_site_fract_z
Zn1	Zn	1.125135	-0.422038	0.416130
Zn2	Zn	1.375135	-0.172038	0.666130
Zn3	Zn	1.625135	0.077962	0.916130
Zn4	Zn	1.875135	0.327962	1.166130
Zn5	Zn	1.125069	-0.599320	0.293070
Zn6	Zn	1.375069	-0.349320	0.543070
Zn7	Zn	1.625069	-0.099320	0.793070
Zn8	Zn	1.875069	0.150680	1.043070
Zn9	Zn	1.002067	-0.422072	0.293077
Zn10	Zn	1.252067	-0.172072	0.543077
Zn11	Zn	1.502067	0.077928	0.793077
Zn12	Zn	1.752067	0.327928	1.043077
Zn13	Zn	1.002059	-0.599261	0.416095
Zn14	Zn	1.252059	-0.349261	0.666095
Zn15	Zn	1.502059	-0.099261	0.916095
Zn16	Zn	1.752059	0.150739	1.166095
O17	O	1.063583	-0.510673	0.354593
O18	O	1.313583	-0.260673	0.604593
O19	O	1.563583	-0.010673	0.854593
O20	O	1.813583	0.239327	1.104593
O21	O	1.228110	-0.445565	0.399818
O22	O	1.478110	-0.195565	0.649818
O23	O	1.728110	0.054435	0.899818
O24	O	1.978110	0.304435	1.149818
O25	O	1.108729	-0.575847	0.190087
O26	O	1.358729	-0.325847	0.440087
O27	O	1.608729	-0.075847	0.690087
O28	O	1.858729	0.174153	0.940087
O29	O	1.018423	-0.273720	0.309419
O30	O	1.268423	-0.023720	0.559419
O31	O	1.518423	0.226280	0.809419
O32	O	1.768423	0.476280	1.059419
O33	O	1.228062	-0.575813	0.309406
O34	O	1.478062	-0.325813	0.559406
O35	O	1.728062	-0.075813	0.809406
O36	O	1.978062	0.174187	1.059406
O37	O	1.108840	-0.273695	0.399825
O38	O	1.358840	-0.023695	0.649825
O39	O	1.608840	0.226305	0.899825
O40	O	1.858840	0.476305	1.149825
O41	O	1.018360	-0.445624	0.190092
O42	O	1.268360	-0.195624	0.440092
O43	O	1.518360	0.054376	0.690092
O44	O	1.768360	0.304376	0.940092
O45	O	0.899082	-0.445566	0.309384
O46	O	1.149082	-0.195566	0.559384
O47	O	1.399082	0.054434	0.809384
O48	O	1.649082	0.304434	1.059384
O49	O	1.018410	-0.575713	0.519084
O50	O	1.268410	-0.325713	0.769084
O51	O	1.518410	-0.075713	1.019084
O52	O	1.768410	0.174287	1.269084
O53	O	0.899076	-0.575746	0.399765
O54	O	1.149076	-0.325746	0.649765
O55	O	1.399076	-0.075746	0.899765
O56	O	1.649076	0.174254	1.149765
O57	O	1.108832	-0.445507	0.519110
O58	O	1.358832	-0.195507	0.769110
O59	O	1.608832	0.054493	1.019110
O60	O	1.858832	0.304493	1.269110
O61	O	1.108721	-0.747659	0.309371
O62	O	1.358721	-0.497659	0.559371
O63	O	1.608721	-0.247659	0.809371
O64	O	1.858721	0.002341	1.059371
O65	O	1.018346	-0.747616	0.399757
O66	O	1.268346	-0.497616	0.649757
O67	O	1.518346	-0.247616	0.899757
O68	O	1.768346	0.002384	1.149757
C69	C	0.872376	-0.510654	0.354572
C70	C	1.122376	-0.260654	0.604572
C71	C	1.372376	-0.010654	0.854572
C72	C	1.622376	0.239346	1.104572
C73	C	0.790577	-0.510672	0.354580
C74	C	1.040577	-0.260672	0.604580
C75	C	1.290577	-0.010672	0.854580
C76	C	1.540577	0.239328	1.104580
C77	C	0.602400	-0.578563	0.401582
C78	C	0.852400	-0.328563	0.651582
C79	C	1.102400	-0.078563	0.901582
C80	C	1.352400	0.171437	1.151582
C81	C	0.525541	-0.578567	0.401591
C82	C	0.775541	-0.328567	0.651591
C83	C	1.025541	-0.078567	0.901591
C84	C	1.275541	0.171433	1.151591
C85	C	0.525517	-0.442801	0.307620
C86	C	0.775517	-0.192801	0.557620
C87	C	1.025517	0.057199	0.807620
C88	C	1.275517	0.307199	1.057620
C89	C	0.602375	-0.442793	0.307615
C90	C	0.852375	-0.192793	0.557615
C91	C	1.102375	0.057207	0.807615
C92	C	1.352375	0.307207	1.057615
C93	C	0.640814	-0.510680	0.354595
C94	C	0.890814	-0.260680	0.604595
C95	C	1.140814	-0.010680	0.854595
C96	C	1.390814	0.239320	1.104595
C97	C	0.487098	-0.510692	0.354609
C98	C	0.737098	-0.260692	0.604609
C99	C	0.987098	-0.010692	0.854609
C100	C	1.237098	0.239308	1.104609
C101	C	0.403764	-0.510695	0.354619
C102	C	0.653764	-0.260695	0.604619
C103	C	0.903764	-0.010695	0.854619
C104	C	1.153764	0.239305	1.104619
C105	C	0.724153	-0.510676	0.354587
C106	C	0.974153	-0.260676	0.604587
C107	C	1.224153	-0.010676	0.854587
C108	C	1.474153	0.239324	1.104587
C109	C	1.063546	-0.786102	0.354576
C110	C	1.313546	-0.536102	0.604576
C111	C	1.563546	-0.286102	0.854576
C112	C	1.813546	-0.036102	1.104576
C113	C	1.063597	-0.903932	0.354593
C114	C	1.313597	-0.653932	0.604593
C115	C	1.563597	-0.403932	0.854593
C116	C	1.813597	-0.153932	1.104593
C117	C	1.120361	-1.071479	0.297616
C118	C	1.370361	-0.821479	0.547616
C119	C	1.620361	-0.571479	0.797616
C120	C	1.870361	-0.321479	1.047616
C121	C	1.120546	-0.948919	0.297755
C122	C	1.370546	-0.698919	0.547755
C123	C	1.620546	-0.448919	0.797755
C124	C	1.870546	-0.198919	1.047755
C125	C	1.084628	-0.948318	0.432167
C126	C	1.334628	-0.698318	0.682167
C127	C	1.584628	-0.448318	0.932167
C128	C	1.834628	-0.198318	1.182167
C129	C	1.085079	-1.070916	0.431865
C130	C	1.335079	-0.820916	0.681865
C131	C	1.585079	-0.570916	0.931865
C132	C	1.835079	-0.320916	1.181865
C133	C	0.985781	-1.071260	0.334760
C134	C	1.235781	-0.821260	0.584760
C135	C	1.485781	-0.571260	0.834760
C136	C	1.735781	-0.321260	1.084760
C137	C	0.986153	-0.948655	0.333020
C138	C	1.236153	-0.698655	0.583020
C139	C	1.486153	-0.448655	0.833020
C140	C	1.736153	-0.198655	1.083020
C141	C	1.255535	-0.510692	0.354615
C142	C	1.505535	-0.260692	0.604615
C143	C	1.755535	-0.010692	0.854615
C144	C	2.005535	0.239308	1.104615
C145	C	1.337334	-0.510700	0.354624
C146	C	1.587334	-0.260700	0.604624
C147	C	1.837334	-0.010700	0.854624
C148	C	2.087334	0.239300	1.104624
C149	C	1.063627	-0.510599	0.546546
C150	C	1.313627	-0.260599	0.796546
C151	C	1.563627	-0.010599	1.046546
C152	C	1.813627	0.239401	1.296546
C153	C	1.063646	-0.510568	0.628345
C154	C	1.313646	-0.260568	0.878345
C155	C	1.563646	-0.010568	1.128345
C156	C	1.813646	0.239432	1.378345
C157	C	1.063640	-0.234167	0.354627
C158	C	1.313640	0.015833	0.604627
C159	C	1.563640	0.265833	0.854627
C160	C	1.813640	0.515833	1.104627
C161	C	1.063664	-0.116337	0.354641
C162	C	1.313664	0.133663	0.604641
C163	C	1.563664	0.383663	0.854641
C164	C	1.813664	0.633663	1.104641
C165	C	1.063580	-0.510669	0.163387
C166	C	1.313580	-0.260669	0.413387
C167	C	1.563580	-0.010669	0.663387
C168	C	1.813580	0.239331	0.913387
C169	C	1.063704	-0.510401	0.081588
C170	C	1.313704	-0.260401	0.331588
C171	C	1.563704	-0.010401	0.581588
C172	C	1.813704	0.239599	0.831588
C173	C	1.110747	-0.442707	0.816554
C174	C	1.360747	-0.192707	1.066554
C175	C	1.610747	0.057293	1.316554
C176	C	1.860747	0.307293	1.566554
C177	C	1.110755	-0.442676	0.893413
C178	C	1.360755	-0.192676	1.143413
C179	C	1.610755	0.057324	1.393413
C180	C	1.860755	0.307324	1.643413
C181	C	1.016598	-0.578266	0.893374
C182	C	1.266598	-0.328266	1.143374
C183	C	1.516598	-0.078266	1.393374
C184	C	1.766598	0.171734	1.643374
C185	C	1.016586	-0.578290	0.816517
C186	C	1.266586	-0.328290	1.066517
C187	C	1.516586	-0.078290	1.316517
C188	C	1.766586	0.171710	1.566517
C189	C	1.063665	-0.510513	0.778109
C190	C	1.313665	-0.260513	1.028109
C191	C	1.563665	-0.010513	1.278109
C192	C	1.813665	0.239487	1.528109
C193	C	1.063685	-0.510457	0.931825
C194	C	1.313685	-0.260457	1.181825
C195	C	1.563685	-0.010457	1.431825
C196	C	1.813685	0.239543	1.681825
C197	C	1.063695	-0.510424	1.015158
C198	C	1.313695	-0.260424	1.265158
C199	C	1.563695	-0.010424	1.515158
C200	C	1.813695	0.239576	1.765158
C201	C	1.063655	-0.510544	0.694770
C202	C	1.313655	-0.260544	0.944770
C203	C	1.563655	-0.010544	1.194770
C204	C	1.813655	0.239456	1.444770
H205	H	0.633695	-0.633839	0.439838
H206	H	0.883695	-0.383839	0.689838
H207	H	1.133695	-0.133839	0.939838
H208	H	1.383695	0.116161	1.189838
H209	H	0.966655	-1.102266	0.279178
H210	H	1.216655	-0.852266	0.529178
H211	H	1.466655	-0.602266	0.779178
H212	H	1.716655	-0.352266	1.029178
Cl213	Cl	0.957422	-0.663473	0.941664
Cl214	Cl	1.207422	-0.413473	1.191664
Cl215	Cl	1.457422	-0.163473	1.441664
Cl216	Cl	1.707422	0.086527	1.691664
Cl217	Cl	1.169928	-0.357497	0.768272
Cl218	Cl	1.419928	-0.107497	1.018272
Cl219	Cl	1.669928	0.142503	1.268272
Cl220	Cl	1.919928	0.392503	1.518272
Cl221	Cl	1.100307	-1.117109	0.208546
Cl222	Cl	1.350307	-0.867109	0.458546
Cl223	Cl	1.600307	-0.617109	0.708546
Cl224	Cl	1.850307	-0.367109	0.958546
H225	H	0.633652	-0.387508	0.269352
H226	H	0.883652	-0.137508	0.519352
H227	H	1.133652	0.112492	0.769352
H228	H	1.383652	0.362492	1.019352
H229	H	0.494268	-0.633842	0.439854
H230	H	0.744268	-0.383842	0.689854
H231	H	0.994268	-0.133842	0.939854
H232	H	1.244268	0.116158	1.189854
Cl233	Cl	1.022808	-0.903338	0.499525
Cl234	Cl	1.272808	-0.653338	0.749525
Cl235	Cl	1.522808	-0.403338	0.999525
Cl236	Cl	1.772808	-0.153338	1.249525
H237	H	1.178231	-0.919511	0.310905
H238	H	1.428231	-0.669511	0.560905
H239	H	1.678231	-0.419511	0.810905
H240	H	1.928231	-0.169511	1.060905
H241	H	0.978242	-0.633505	0.785214
H242	H	1.228242	-0.383505	1.035214
H243	H	1.478242	-0.133505	1.285214
H244	H	1.728242	0.116495	1.535214
Cl245	Cl	1.169953	-0.357440	0.941740
Cl246	Cl	1.419953	-0.107440	1.191740
Cl247	Cl	1.669953	0.142560	1.441740
Cl248	Cl	1.919953	0.392560	1.691740
Cl249	Cl	1.100183	-0.902588	0.208959
Cl250	Cl	1.350183	-0.652588	0.458959
Cl251	Cl	1.600183	-0.402588	0.708959
Cl252	Cl	1.850183	-0.152588	0.958959
H253	H	1.177737	-1.102210	0.310618
H254	H	1.427737	-0.852210	0.560618
H255	H	1.677737	-0.602210	0.810618
H256	H	1.927737	-0.352210	1.060618
Cl257	Cl	0.477189	-0.357465	0.248561
Cl258	Cl	0.727189	-0.107465	0.498561
Cl259	Cl	0.977189	0.142535	0.748561
Cl260	Cl	1.227189	0.392535	0.998561
H261	H	1.142007	-1.099429	0.448705
H262	H	1.392007	-0.849429	0.698705
H263	H	1.642007	-0.599429	0.948705
H264	H	1.892007	-0.349429	1.198705
H265	H	1.045592	-1.100586	0.475817
H266	H	1.295592	-0.850586	0.725817
H267	H	1.545592	-0.600586	0.975817
H268	H	1.795592	-0.350586	1.225817
H269	H	1.140914	-0.917530	0.449288
H270	H	1.390914	-0.667530	0.699288
H271	H	1.640914	-0.417530	0.949288
H272	H	1.890914	-0.167530	1.199288
Cl273	Cl	0.961664	-0.903876	0.244883
Cl274	Cl	1.211664	-0.653876	0.494883
Cl275	Cl	1.461664	-0.403876	0.744883
Cl276	Cl	1.711664	-0.153876	0.994883
Cl277	Cl	0.917411	-0.901396	0.392445
Cl278	Cl	1.167411	-0.651396	0.642445
Cl279	Cl	1.417411	-0.401396	0.892445
Cl280	Cl	1.667411	-0.151396	1.142445
H281	H	0.943537	-1.100270	0.376294
H282	H	1.193537	-0.850270	0.626294
H283	H	1.443537	-0.600270	0.876294
H284	H	1.693537	-0.350270	1.126294
