data_functionalizedCrystal
_audit_creation_method	'MofGen! by Chris Wilmer'
_symmetry_space_group_name_H-M	'P1'
_symmetry_Int_Tables_number	1
_symmetry_cell_setting	triclinic
loop_
_symmetry_equiv_pos_as_xyz
  x,y,z
_cell_length_a	12.594516
_cell_length_b	29.839134
_cell_length_c	12.594509
_cell_angle_alpha	89.979044
_cell_angle_beta	89.973801
_cell_angle_gamma	89.996624
loop_
_atom_site_label
_atom_site_type_symbol
_atom_site_fract_x
_atom_site_fract_y
_atom_site_fract_z
Zn1	Zn	-0.424262	0.686838	-0.601864
Zn2	Zn	0.075738	1.186838	-0.101864
Zn3	Zn	-0.602272	0.686792	-0.423892
Zn4	Zn	-0.102272	1.186792	0.076108
Zn5	Zn	-0.424248	0.611709	-0.423894
Zn6	Zn	0.075752	1.111709	0.076106
Zn7	Zn	-0.602138	0.611701	-0.601823
Zn8	Zn	-0.102138	1.111701	-0.101823
O9	O	-0.513230	0.649260	-0.512868
O10	O	-0.013230	1.149260	-0.012868
O11	O	-0.447937	0.749699	-0.578272
O12	O	0.052063	1.249699	-0.078272
O13	O	-0.578707	0.676816	-0.274946
O14	O	-0.078707	1.176816	0.225054
O15	O	-0.275304	0.621697	-0.447521
O16	O	0.224696	1.121697	0.052479
O17	O	-0.578720	0.749665	-0.447517
O18	O	-0.078720	1.249665	0.052483
O19	O	-0.275314	0.676894	-0.578274
O20	O	0.224686	1.176894	-0.078274
O21	O	-0.447913	0.621653	-0.274948
O22	O	0.052087	1.121653	0.225052
O23	O	-0.447783	0.548841	-0.447481
O24	O	0.052217	1.048841	0.052519
O25	O	-0.578493	0.621685	-0.750775
O26	O	-0.078493	1.121685	-0.250775
O27	O	-0.578479	0.548835	-0.578204
O28	O	-0.078479	1.048835	-0.078204
O29	O	-0.447808	0.676887	-0.750805
O30	O	0.052192	1.176887	-0.250805
O31	O	-0.751200	0.676808	-0.447477
O32	O	-0.251200	1.176808	0.052523
O33	O	-0.751102	0.621640	-0.578202
O34	O	-0.251102	1.121640	-0.078202
C35	C	-0.789771	0.649230	-0.512858
C36	C	-0.289771	1.149230	-0.012858
C37	C	-0.908076	0.649259	-0.512889
C38	C	-0.408076	1.149259	-0.012889
C39	C	-0.513116	0.532537	-0.512839
C40	C	-0.013116	1.032537	-0.012839
C41	C	-0.513093	0.482603	-0.512852
C42	C	-0.013093	0.982603	-0.012852
C43	C	-0.977315	0.619250	-0.583941
C44	C	-0.477315	1.119250	-0.083941
C45	C	-1.048171	0.608304	-0.486818
C46	C	-0.548171	1.108304	0.013182
C47	C	-1.048019	0.660246	-0.610029
C48	C	-0.548019	1.160246	-0.110029
C49	C	-0.977375	0.638291	-0.415715
C50	C	-0.477375	1.138291	0.084285
C51	C	-0.977216	0.690252	-0.538991
C52	C	-0.477216	1.190252	-0.038991
C53	C	-1.048041	0.679322	-0.441801
C54	C	-0.548041	1.179322	0.058199
C55	C	-0.445273	0.126029	-0.581087
C56	C	0.054727	0.626029	-0.081087
C57	C	-0.445187	0.313702	-0.581062
C58	C	0.054813	0.813702	-0.081062
O59	O	-0.387389	0.337978	-0.639073
O60	O	0.112611	0.837978	-0.139073
N61	N	-0.513162	0.337158	-0.512877
N62	N	-0.013162	0.837158	-0.012877
C63	C	-0.581169	0.313692	-0.444697
C64	C	-0.081169	0.813692	0.055303
O65	O	-0.638991	0.337949	-0.386708
O66	O	-0.138991	0.837949	0.113292
C67	C	-0.581259	0.126020	-0.444728
C68	C	-0.081259	0.626020	0.055272
C69	C	-0.513272	0.102567	-0.512910
C70	C	-0.013272	0.602567	-0.012910
C71	C	-0.377292	0.102576	-0.649265
C72	C	0.122708	0.602576	-0.149265
C73	C	-0.377310	0.055661	-0.649266
C74	C	0.122690	0.555661	-0.149266
C75	C	-0.445309	0.032198	-0.581090
C76	C	0.054691	0.532198	-0.081090
C77	C	-0.513290	0.055651	-0.512912
C78	C	-0.013290	0.555651	-0.012912
C79	C	-0.649270	0.102555	-0.376555
C80	C	-0.149270	0.602555	0.123445
C81	C	-0.649288	0.055634	-0.376570
C82	C	-0.149288	0.555634	0.123430
C83	C	-0.581301	0.032181	-0.444753
C84	C	-0.081301	0.532181	0.055247
C85	C	-0.581306	-0.014726	-0.444737
C86	C	-0.081306	0.485274	0.055263
N87	N	-0.513331	-0.038182	-0.512922
N88	N	-0.013331	0.461818	-0.012922
C89	C	-0.445333	-0.014719	-0.581099
C90	C	0.054667	0.485281	-0.081099
C91	C	-0.581115	0.412223	-0.444684
C92	C	-0.081115	0.912223	0.055316
C93	C	-0.581091	0.459141	-0.444675
C94	C	-0.081091	0.959141	0.055325
C95	C	-0.445111	0.459148	-0.581042
C96	C	0.054889	0.959148	-0.081042
C97	C	-0.445130	0.412229	-0.581045
C98	C	0.054870	0.912229	-0.081045
C99	C	-0.513140	0.388767	-0.512870
C100	C	-0.013140	0.888767	-0.012870
C101	C	-0.445375	-0.113245	-0.581096
C102	C	0.054625	0.386755	-0.081096
C103	C	-0.445396	-0.160165	-0.581088
C104	C	0.054604	0.339835	-0.081088
C105	C	-0.581379	-0.160168	-0.444726
C106	C	-0.081379	0.339832	0.055274
C107	C	-0.581355	-0.113252	-0.444729
C108	C	-0.081355	0.386748	0.055271
C109	C	-0.513349	-0.089792	-0.512923
C110	C	-0.013349	0.410208	-0.012923
O111	O	-0.639083	-0.039031	-0.386764
O112	O	-0.139083	0.460969	0.113236
O113	O	-0.387535	-0.038984	-0.639096
O114	O	0.112465	0.461016	-0.139096
C115	C	-0.445255	0.172945	-0.581085
C116	C	0.054745	0.672945	-0.081085
C117	C	-0.513236	0.196398	-0.512908
C118	C	-0.013236	0.696398	-0.012908
C119	C	-0.581234	0.172935	-0.444731
C120	C	-0.081234	0.672935	0.055269
C121	C	-0.513212	0.243316	-0.512898
C122	C	-0.013212	0.743316	-0.012898
C123	C	-0.445213	0.266778	-0.581075
C124	C	0.054787	0.766778	-0.081075
C125	C	-0.377238	0.243323	-0.649261
C126	C	0.122762	0.743323	-0.149261
C127	C	-0.377256	0.196407	-0.649262
C128	C	0.122744	0.696407	-0.149262
C129	C	-0.649209	0.196391	-0.376546
C130	C	-0.149209	0.696391	0.123454
C131	C	-0.649185	0.243306	-0.376549
C132	C	-0.149185	0.743306	0.123451
C133	C	-0.581186	0.266769	-0.444725
C134	C	-0.081186	0.766769	0.055275
C135	C	-0.235609	0.649302	-0.512902
C136	C	0.264391	1.149302	-0.012902
C137	C	-0.117304	0.649320	-0.512917
C138	C	0.382696	1.149320	-0.012917
C139	C	-0.513345	0.766438	-0.512899
C140	C	-0.013345	1.266438	-0.012899
C141	C	-0.513394	0.816373	-0.512912
C142	C	-0.013394	1.316373	-0.012912
C143	C	-0.513137	0.649290	-0.790490
C144	C	-0.013137	1.149290	-0.290490
C145	C	-0.513097	0.649303	-0.908795
C146	C	-0.013097	1.149303	-0.408795
C147	C	-0.584136	0.619288	-0.978032
C148	C	-0.084136	1.119288	-0.478032
C149	C	-0.610175	0.660280	-1.048823
C150	C	-0.110175	1.160280	-0.548823
C151	C	-0.486994	0.608342	-1.048803
C152	C	0.013006	1.108342	-0.548803
C153	C	-0.539187	0.690317	-0.978028
C154	C	-0.039187	1.190317	-0.478028
C155	C	-0.415960	0.638351	-0.978002
C156	C	0.084040	1.138351	-0.478002
C157	C	-0.441962	0.679372	-1.048761
C158	C	0.058038	1.179372	-0.548761
C159	C	-0.513246	0.649256	-0.236328
C160	C	-0.013246	1.149256	0.263672
C161	C	-0.512986	0.649330	-0.118023
C162	C	-0.012986	1.149330	0.381977
H163	H	-0.946260	0.593827	-0.643939
H164	H	-0.446260	1.093827	-0.143939
Br165	Br	-0.352859	0.380405	-0.673581
Br166	Br	0.147141	0.880405	-0.173581
H167	H	-0.636738	-0.179279	-0.389214
H168	H	-0.136738	0.320721	0.110786
Br169	Br	-0.284983	0.164585	-0.741801
Br170	Br	0.215017	0.664585	-0.241801
Br171	Br	-1.099474	0.721665	-0.341565
Br172	Br	-0.599474	1.221665	0.158435
Br173	Br	-0.279160	0.622868	-0.926111
Br174	Br	0.220840	1.122868	-0.426111
Br175	Br	-0.925876	0.622779	-0.278770
Br176	Br	-0.425876	1.122779	0.221230
Br177	Br	-0.352825	0.490998	-0.673565
Br178	Br	0.147175	0.990998	-0.173565
Br179	Br	-0.576075	0.748088	-0.926436
Br180	Br	-0.076075	1.248088	-0.426436
Br181	Br	-0.673407	0.380389	-0.352136
Br182	Br	-0.173407	0.880389	0.147864
H183	H	-0.704632	0.121642	-0.321033
H184	H	-0.204632	0.621642	0.178967
H185	H	-1.079363	0.573665	-0.464763
H186	H	-0.579363	1.073665	0.035237
H187	H	-0.946027	0.724884	-0.561093
H188	H	-0.446027	1.224884	-0.061093
H189	H	-0.704674	0.036534	-0.321056
H190	H	-0.204674	0.536534	0.178944
H191	H	-0.704547	0.262398	-0.321016
H192	H	-0.204547	0.762398	0.178984
H193	H	-1.079050	0.669514	-0.692168
H194	H	-0.579050	1.169514	-0.192168
H195	H	-0.464962	0.573691	-1.079893
H196	H	0.035038	1.073691	-0.579893
Br197	Br	-0.353118	-0.191991	-0.673624
Br198	Br	0.146882	0.308009	-0.173624
Br199	Br	-0.285046	0.023839	-0.741813
Br200	Br	0.214954	0.523839	-0.241813
Br201	Br	-0.353080	-0.081414	-0.673645
Br202	Br	0.146920	0.418586	-0.173645
Br203	Br	-0.673340	0.490964	-0.352115
Br204	Br	-0.173340	0.990964	0.147885
H205	H	-0.321919	0.121674	-0.704788
H206	H	0.178081	0.621674	-0.204788
Br207	Br	-0.284950	0.275174	-0.741780
Br208	Br	0.215050	0.775174	-0.241780
Br209	Br	-0.673630	-0.081422	-0.352202
Br210	Br	-0.173630	0.418578	0.147798
Br211	Br	-0.741491	0.164556	-0.283998
Br212	Br	-0.241491	0.664556	0.216002
H213	H	-0.644305	0.593925	-0.946977
H214	H	-0.144305	1.093925	-0.446977
H215	H	-0.692274	0.669558	-1.079930
H216	H	-0.192274	1.169558	-0.579930
H217	H	-0.381839	0.704796	-1.079621
H218	H	0.118161	1.204796	-0.579621
