data_functionalizedCrystal
_audit_creation_method	'MofGen! by Chris Wilmer'
_symmetry_space_group_name_H-M	'P1'
_symmetry_Int_Tables_number	1
_symmetry_cell_setting	triclinic
loop_
_symmetry_equiv_pos_as_xyz
  x,y,z
_cell_length_a	12.759401
_cell_length_b	12.759400
_cell_length_c	12.759393
_cell_angle_alpha	89.969548
_cell_angle_beta	90.021157
_cell_angle_gamma	89.989825
loop_
_atom_site_label
_atom_site_type_symbol
_atom_site_fract_x
_atom_site_fract_y
_atom_site_fract_z
Zn1	Zn	-1.606267	-0.418339	-0.594027
Zn2	Zn	-1.606159	-0.594054	-0.418347
Zn3	Zn	-1.430566	-0.418376	-0.418361
Zn4	Zn	-1.430558	-0.593963	-0.593983
O5	O	-1.518388	-0.506183	-0.506179
O6	O	-1.753274	-0.441670	-0.570734
O7	O	-1.582824	-0.570804	-0.271328
O8	O	-1.453922	-0.271350	-0.441687
O9	O	-1.753194	-0.570768	-0.441663
O10	O	-1.583009	-0.271323	-0.570748
O11	O	-1.453817	-0.441735	-0.271338
O12	O	-1.283544	-0.441646	-0.441646
O13	O	-1.453909	-0.570612	-0.741010
O14	O	-1.283538	-0.570648	-0.570675
O15	O	-1.583001	-0.441582	-0.741042
O16	O	-1.582816	-0.741063	-0.441621
O17	O	-1.453803	-0.740996	-0.570661
C18	C	-1.245420	-0.506142	-0.506158
C19	C	-1.128644	-0.506150	-0.506173
C20	C	-1.518326	-0.779150	-0.506158
C21	C	-1.518395	-0.895927	-0.506183
C22	C	-0.964087	-0.439064	-0.573488
C23	C	-1.073811	-0.439051	-0.573483
C24	C	-1.073747	-0.573275	-0.438871
C25	C	-0.964025	-0.573293	-0.438881
C26	C	-0.792421	-0.506210	-0.506196
C27	C	-0.909197	-0.506182	-0.506188
C28	C	-1.585711	-1.060520	-0.439101
C29	C	-1.585648	-0.950796	-0.439068
C30	C	-1.451194	-0.950788	-0.573329
C31	C	-1.451252	-1.060510	-0.573356
C32	C	-1.518466	-0.506082	-0.780213
C33	C	-1.518500	-0.506039	-0.896990
C34	C	-1.518478	-0.232150	-0.506224
C35	C	-1.518517	-0.115373	-0.506243
C36	C	-1.585723	-0.438842	-0.951870
C37	C	-1.585741	-0.438797	-1.061594
C38	C	-1.451309	-0.573154	-1.061548
C39	C	-1.451287	-0.573194	-0.951826
C40	C	-1.518370	-0.506208	-0.233212
C41	C	-1.518540	-0.505955	-0.116436
H42	H	-0.919450	-0.384418	-0.628293
H43	H	-1.396589	-0.627832	-1.106209
H44	H	-1.396530	-1.105172	-0.628034
H45	H	-1.118400	-0.627912	-0.384070
H46	H	-1.640362	-0.906138	-0.384393
H47	H	-1.118497	-0.384398	-0.628286
H48	H	-1.640479	-0.384077	-1.106273
H49	H	-1.640450	-0.384158	-0.907225
H50	H	-1.396538	-0.627913	-0.907141
H51	H	-0.919333	-0.627954	-0.384077
H52	H	-1.640482	-1.105187	-0.384452
H53	H	-1.396430	-0.906107	-0.627973
