data_functionalizedCrystal
_audit_creation_method	'MofGen! by Chris Wilmer'
_symmetry_space_group_name_H-M	'P1'
_symmetry_Int_Tables_number	1
_symmetry_cell_setting	triclinic
loop_
_symmetry_equiv_pos_as_xyz
  x,y,z
_cell_length_a	17.917559
_cell_length_b	14.560432
_cell_length_c	14.560432
_cell_angle_alpha	90.000049
_cell_angle_beta	57.015178
_cell_angle_gamma	63.041163
loop_
_atom_site_label
_atom_site_type_symbol
_atom_site_fract_x
_atom_site_fract_y
_atom_site_fract_z
Zr1	Zr	0.818532	0.930746	-0.166240
O2	O	0.974533	0.792868	-0.321599
O3	O	0.662529	0.966933	-0.112572
O4	O	0.818532	0.975702	-0.312887
O5	O	0.818531	0.784097	0.029855
O6	O	0.818535	1.126840	-0.312887
O7	O	0.818530	0.784099	-0.121284
O8	O	0.539473	1.111154	0.045439
O9	O	1.097593	0.799783	-0.328471
O10	O	0.726699	1.102504	-0.096984
O11	O	0.726697	0.989710	0.015810
O12	O	0.910371	1.000034	-0.220034
O13	O	0.910370	0.887240	-0.107241
Zr14	Zr	0.818539	1.171789	0.074808
Zr15	Zr	0.818538	1.171793	-0.166241
Zr16	Zr	0.818534	0.930742	0.074809
Zr17	Zr	1.014798	0.941774	-0.177201
Zr18	Zr	0.622274	1.160761	0.085769
O19	O	0.974543	1.135602	0.021141
O20	O	0.974541	1.135606	-0.321600
O21	O	0.974536	0.792863	0.021142
O22	O	0.662538	1.309667	0.230167
O23	O	0.662536	1.309672	-0.112573
O24	O	0.662531	0.966929	0.230168
O25	O	0.818541	1.318438	-0.121286
O26	O	0.818539	1.126833	0.221455
O27	O	0.818536	0.975695	0.221456
O28	O	0.818542	1.318436	0.029853
O29	O	1.097597	0.991384	-0.328472
O30	O	0.539475	1.111151	0.237041
O31	O	0.539479	1.302752	0.237040
O32	O	0.539477	1.302755	0.045438
O33	O	1.097594	0.799780	-0.136870
O34	O	1.097598	0.991381	-0.136870
O35	O	0.726700	1.102501	0.128603
O36	O	0.726702	1.215295	0.015809
O37	O	0.910375	1.112825	-0.107242
O38	O	0.910373	1.000031	0.005552
C39	C	0.573037	1.037473	-0.032005
C40	C	0.489717	1.032791	-0.027352
C41	C	0.818530	0.749754	-0.045715
C42	C	0.818527	0.647423	-0.045714
C43	C	0.299967	1.078216	-0.072652
C44	C	0.337110	1.024322	-0.018782
C45	C	0.422029	1.029035	-0.023552
C46	C	0.215040	1.073504	-0.067884
C47	C	0.626771	0.754385	0.082741
C48	C	0.530896	0.759790	0.146963
C49	C	0.530901	0.663638	0.146960
C50	C	0.626790	0.562073	0.082730
C51	C	0.722665	0.556669	0.018508
C52	C	0.722650	0.652829	0.018516
C53	C	0.914419	0.449708	-0.109939
C54	C	0.914417	0.545858	-0.109944
C55	C	1.010309	0.348143	-0.174168
C56	C	1.106186	0.342737	-0.238399
C57	C	1.106177	0.438898	-0.238394
C58	C	1.010292	0.540454	-0.174166
C59	C	1.064034	1.065062	-0.059426
C60	C	1.147354	1.069744	-0.064080
C61	C	0.818534	1.051272	-0.347231
C62	C	0.818533	1.051273	-0.449563
C63	C	0.818542	1.352781	-0.045717
C64	C	0.818544	1.455112	-0.045717
C65	C	0.818522	0.884736	-0.641849
C66	C	0.818519	0.801472	-0.593768
C67	C	0.818522	0.801471	-0.497620
C68	C	0.818524	0.884745	-0.449549
C69	C	0.818527	0.968010	-0.497630
C70	C	0.818528	0.968000	-0.593782
C71	C	0.818536	1.134538	-0.497644
C72	C	0.818541	1.134536	-0.593797
C73	C	0.818539	1.217812	-0.449573
C74	C	0.818549	1.301074	-0.497659
C75	C	0.818548	1.301071	-0.593814
C76	C	0.818545	1.217800	-0.641879
C77	C	0.818538	1.051263	0.255800
C78	C	0.818539	1.051262	0.358131
C79	C	0.573044	1.338986	-0.032006
C80	C	0.489726	1.436635	-0.027353
C81	C	0.573040	1.037468	0.269510
C82	C	0.489720	1.032785	0.376495
C83	C	0.573046	1.338982	0.269510
C84	C	0.489729	1.436629	0.376494
C85	C	1.064026	0.763553	-0.360941
C86	C	1.147343	0.665906	-0.467926
C87	C	1.064028	0.763549	-0.059425
C88	C	1.147346	0.665900	-0.064078
C89	C	1.064032	1.065067	-0.360942
C90	C	1.147351	1.069750	-0.467927
C91	C	0.450597	1.423616	-0.084055
C92	C	0.372322	1.515359	-0.079706
C93	C	0.333172	1.620120	-0.018648
C94	C	0.372308	1.633137	0.038055
C95	C	0.450587	1.541395	0.033699
C96	C	0.450595	1.089461	0.485623
C97	C	0.372318	1.085057	0.586156
C98	C	0.333164	1.023982	0.577558
C99	C	0.372298	0.967299	0.468418
C100	C	0.450578	0.971698	0.367888
C101	C	0.450603	1.541373	0.367858
C102	C	0.372329	1.633133	0.468372
C103	C	0.333176	1.620147	0.577520
C104	C	0.372310	1.515392	0.586154
C105	C	0.450588	1.423635	0.485641
C106	C	1.186478	0.561162	-0.459290
C107	C	1.264777	0.469404	-0.559805
C108	C	1.303933	0.482390	-0.668954
C109	C	1.264795	0.587145	-0.677587
C110	C	1.186503	0.678901	-0.577074
C111	C	1.186483	0.678919	-0.007387
C112	C	1.264779	0.587177	-0.011764
C113	C	1.303932	0.482417	-0.072825
C114	C	1.264792	0.469400	-0.129524
C115	C	1.186502	0.561141	-0.125153
C116	C	1.186481	1.130835	-0.459291
C117	C	1.264758	1.135257	-0.559805
C118	C	1.303909	1.078587	-0.668954
C119	C	1.264772	1.017500	-0.677587
C120	C	1.186491	1.013085	-0.577074
H121	H	0.305138	0.974636	0.030912
H122	H	0.340420	1.504834	0.675036
H123	H	1.154640	0.963338	-0.584121
H124	H	0.818544	1.368874	-0.458509
H125	H	0.331941	1.127892	-0.122351
H126	H	1.296615	1.184999	-0.552754
H127	H	0.818513	0.884747	-0.371251
H128	H	0.818545	1.368878	-0.632953
H129	H	0.818534	1.217812	-0.371280
Cl130	Cl	0.499814	1.557728	0.230655
H131	H	1.367650	1.082191	-0.750789
H132	H	0.482473	1.338324	-0.133789
Cl133	Cl	0.323061	0.890527	0.457629
Cl134	Cl	1.314012	0.946252	-0.814812
Cl135	Cl	1.137277	1.202089	-0.322088
H136	H	0.482424	0.925548	0.279035
Cl137	Cl	0.818549	1.217785	-0.762756
Cl138	Cl	0.499759	1.291960	0.496518
Cl139	Cl	0.323144	1.764811	0.457492
Cl140	Cl	0.818540	0.884717	-0.762735
H141	H	0.269431	1.694813	-0.015109
Cl142	Cl	0.626758	0.875267	0.082735
H143	H	0.452825	0.842493	0.199260
H144	H	0.626786	0.483785	0.082745
Cl145	Cl	1.402357	0.367026	-0.795305
H146	H	0.452831	0.668043	0.199259
Cl147	Cl	0.323134	1.498970	-0.150991
H148	H	0.818513	0.733673	-0.458468
Cl149	Cl	1.010315	0.227265	-0.174163
H150	H	0.269437	1.694871	0.659355
H151	H	1.184251	0.260040	-0.290683
Cl152	Cl	1.226713	0.432091	-0.319128
Cl153	Cl	1.137269	0.544808	-0.322087
Cl154	Cl	0.323075	1.764844	0.114815
H155	H	1.296630	0.384117	-0.552753
H156	H	0.269423	1.020410	0.659425
Cl157	Cl	1.314027	0.603452	-0.814812
H158	H	1.154640	0.764186	-0.584118
H159	H	1.010276	0.618753	-0.174159
H160	H	0.482465	1.139195	0.492646
H161	H	0.482436	1.552010	0.079880
H162	H	0.818514	0.733672	-0.632914
Cl163	Cl	1.137283	0.810607	0.069378
Cl164	Cl	0.323134	1.156327	0.723345
Cl165	Cl	1.313963	0.603566	0.059527
Cl166	Cl	1.314020	0.337693	-0.206276
Cl167	Cl	1.402353	0.367095	-0.078305
H168	H	1.154640	0.550525	-0.171315
