data_functionalizedCrystal
_audit_creation_method	'MofGen! by Chris Wilmer'
_symmetry_space_group_name_H-M	'P1'
_symmetry_Int_Tables_number	1
_symmetry_cell_setting	triclinic
loop_
_symmetry_equiv_pos_as_xyz
  x,y,z
_cell_length_a	19.077105
_cell_length_b	25.639240
_cell_length_c	19.076919
_cell_angle_alpha	92.261469
_cell_angle_beta	90.076224
_cell_angle_gamma	87.728718
loop_
_atom_site_label
_atom_site_type_symbol
_atom_site_fract_x
_atom_site_fract_y
_atom_site_fract_z
Zn1	Zn	1.058223	-0.252939	-0.440357
Zn2	Zn	1.391557	0.080395	-0.107023
Zn3	Zn	1.724890	0.413728	0.226310
Zn4	Zn	1.062848	-0.337004	-0.322829
Zn5	Zn	1.396181	-0.003670	0.010504
Zn6	Zn	1.729514	0.329663	0.343837
Zn7	Zn	0.945443	-0.245935	-0.318152
Zn8	Zn	1.278776	0.087399	0.015182
Zn9	Zn	1.612109	0.420732	0.348515
Zn10	Zn	0.940670	-0.336688	-0.435582
Zn11	Zn	1.274003	-0.003355	-0.102249
Zn12	Zn	1.607336	0.329978	0.231085
O13	O	1.001796	-0.293141	-0.379230
O14	O	1.335129	0.040192	-0.045897
O15	O	1.668462	0.373525	0.287437
O16	O	1.157168	-0.267153	-0.428722
O17	O	1.490501	0.066180	-0.095389
O18	O	1.823835	0.399513	0.237945
O19	O	1.051207	-0.322124	-0.223878
O20	O	1.384540	0.011209	0.109455
O21	O	1.717873	0.344543	0.442788
O22	O	0.960465	-0.173702	-0.334403
O23	O	1.293799	0.159632	-0.001069
O24	O	1.627132	0.492965	0.332264
O25	O	1.160566	-0.328915	-0.342375
O26	O	1.493899	0.004418	-0.009042
O27	O	1.827232	0.337751	0.324291
O28	O	1.043325	-0.178847	-0.424186
O29	O	1.376658	0.154486	-0.090853
O30	O	1.709992	0.487819	0.242480
O31	O	0.964949	-0.255216	-0.220442
O32	O	1.298283	0.078117	0.112892
O33	O	1.631616	0.411451	0.446225
O34	O	0.846478	-0.254910	-0.329773
O35	O	1.179812	0.078423	0.003560
O36	O	1.513145	0.411756	0.336893
O37	O	0.952330	-0.328378	-0.534546
O38	O	1.285664	0.004955	-0.201213
O39	O	1.618997	0.338289	0.132121
O40	O	0.842971	-0.321587	-0.416049
O41	O	1.176305	0.011747	-0.082716
O42	O	1.509638	0.345080	0.250618
O43	O	1.038697	-0.266848	-0.538054
O44	O	1.372030	0.066486	-0.204720
O45	O	1.705363	0.399819	0.128613
O46	O	1.046578	-0.410124	-0.337746
O47	O	1.379912	-0.076791	-0.004413
O48	O	1.713245	0.256543	0.328921
O49	O	0.956815	-0.409892	-0.420585
O50	O	1.290148	-0.076559	-0.087251
O51	O	1.623481	0.256774	0.246082
C52	C	0.819229	-0.287455	-0.371886
C53	C	1.152562	0.045879	-0.038552
C54	C	1.485895	0.379212	0.294781
C55	C	0.741125	-0.285035	-0.368761
C56	C	1.074458	0.048299	-0.035427
C57	C	1.407792	0.381632	0.297906
C58	C	0.702627	-0.318661	-0.412141
C59	C	1.035960	0.014672	-0.078807
C60	C	1.369294	0.348006	0.254526
C61	C	0.629240	-0.316381	-0.409208
C62	C	0.962574	0.016953	-0.075874
C63	C	1.295907	0.350286	0.257459
C64	C	0.594353	-0.280476	-0.362890
C65	C	0.927686	0.052857	-0.029557
C66	C	1.261019	0.386191	0.303776
C67	C	0.632856	-0.246846	-0.319508
C68	C	0.966189	0.086487	0.013825
C69	C	1.299522	0.419820	0.347158
C70	C	0.706241	-0.249124	-0.322445
C71	C	1.039574	0.084209	0.010888
C72	C	1.372908	0.417542	0.344221
C73	C	0.375067	-0.269932	-0.349300
C74	C	0.708401	0.063401	-0.015967
C75	C	1.041734	0.396735	0.317366
C76	C	0.301677	-0.267657	-0.346365
C77	C	0.635010	0.065676	-0.013032
C78	C	0.968343	0.399009	0.320302
C79	C	0.298066	-0.337192	-0.436066
C80	C	0.631400	-0.003858	-0.102732
C81	C	0.964733	0.329475	0.230601
C82	C	0.371453	-0.339469	-0.438996
C83	C	0.704787	-0.006135	-0.105662
C84	C	1.038120	0.327198	0.227671
C85	C	0.409950	-0.305837	-0.395616
C86	C	0.743283	0.027496	-0.062283
C87	C	1.076617	0.360830	0.271050
N88	N	0.519340	-0.278145	-0.359890
N89	N	0.852673	0.055188	-0.026556
N90	N	1.186006	0.388521	0.306777
N91	N	0.484961	-0.308166	-0.398621
N92	N	0.818295	0.025168	-0.065288
N93	N	1.151628	0.358501	0.268046
C94	C	1.001699	-0.428979	-0.379171
C95	C	1.335032	-0.095646	-0.045838
C96	C	1.668365	0.237687	0.287496
C97	C	1.001721	-0.487094	-0.379172
C98	C	1.335054	-0.153761	-0.045838
C99	C	1.668387	0.179573	0.287495
C100	C	1.044960	-0.850105	-0.426062
C101	C	1.378293	-0.516772	-0.092729
C102	C	1.711627	-0.183438	0.240605
C103	C	1.044980	-0.904710	-0.426077
C104	C	1.378313	-0.571377	-0.092744
C105	C	1.711647	-0.238044	0.240589
O106	O	1.081628	-0.935193	-0.465884
O107	O	1.414961	-0.601860	-0.132551
O108	O	1.748294	-0.268526	0.200783
N109	N	1.001891	-0.929385	-0.379302
N110	N	1.335224	-0.596052	-0.045968
N111	N	1.668557	-0.262719	0.287365
C112	C	0.958773	-0.899452	-0.332513
C113	C	1.292106	-0.566119	0.000820
C114	C	1.625440	-0.232785	0.334154
O115	O	0.922123	-0.925454	-0.292729
O116	O	1.255457	-0.592121	0.040605
O117	O	1.588790	-0.258788	0.373938
C118	C	0.958750	-0.844848	-0.332502
C119	C	1.292083	-0.511514	0.000832
C120	C	1.625416	-0.178181	0.334165
C121	C	1.001847	-0.820176	-0.379275
C122	C	1.335180	-0.486842	-0.045942
C123	C	1.668514	-0.153509	0.287391
C124	C	1.088053	-0.825433	-0.472833
C125	C	1.421387	-0.492099	-0.139499
C126	C	1.754720	-0.158766	0.193834
C127	C	1.088034	-0.770831	-0.472816
C128	C	1.421367	-0.437498	-0.139483
C129	C	1.754701	-0.104164	0.193850
C130	C	1.044921	-0.740902	-0.426030
C131	C	1.378255	-0.407568	-0.092696
C132	C	1.711588	-0.074235	0.240637
C133	C	1.001828	-0.765574	-0.379259
C134	C	1.335161	-0.432241	-0.045926
C135	C	1.668494	-0.098907	0.287407
C136	C	0.915629	-0.814915	-0.285717
C137	C	1.248962	-0.481582	0.047616
C138	C	1.582295	-0.148249	0.380950
C139	C	0.915609	-0.760308	-0.285710
C140	C	1.248942	-0.426974	0.047623
C141	C	1.582275	-0.093641	0.380957
C142	C	0.958706	-0.735636	-0.332484
C143	C	1.292040	-0.402302	0.000850
C144	C	1.625373	-0.068969	0.334183
C145	C	0.958696	-0.681043	-0.332456
C146	C	1.292029	-0.347710	0.000877
C147	C	1.625362	-0.014377	0.334210
N148	N	1.001785	-0.656368	-0.379232
N149	N	1.335118	-0.323035	-0.045899
N150	N	1.668452	0.010299	0.287435
C151	C	1.044898	-0.686297	-0.426019
C152	C	1.378231	-0.352964	-0.092685
C153	C	1.711565	-0.019631	0.240648
C154	C	0.958824	-1.014125	-0.332541
C155	C	1.292158	-0.680792	0.000793
C156	C	1.625491	-0.347458	0.334126
C157	C	0.958851	-1.068728	-0.332548
C158	C	1.292184	-0.735395	0.000785
C159	C	1.625518	-0.402062	0.334119
C160	C	1.045057	-1.073983	-0.426113
C161	C	1.378390	-0.740650	-0.092780
C162	C	1.711724	-0.407316	0.240553
C163	C	1.045034	-1.019379	-0.426102
C164	C	1.378367	-0.686045	-0.092769
C165	C	1.711701	-0.352712	0.240564
C166	C	1.001914	-0.989450	-0.379316
C167	C	1.335247	-0.656117	-0.045983
C168	C	1.668580	-0.322783	0.287350
C169	C	1.044854	-0.571630	-0.425981
C170	C	1.378188	-0.238297	-0.092647
C171	C	1.711521	0.095037	0.240686
C172	C	1.044833	-0.517023	-0.425958
C173	C	1.378167	-0.183690	-0.092625
C174	C	1.711500	0.149643	0.240708
C175	C	0.958625	-0.511774	-0.332396
C176	C	1.291958	-0.178440	0.000938
C177	C	1.625291	0.154893	0.334271
C178	C	0.958648	-0.566375	-0.332415
C179	C	1.291981	-0.233042	0.000918
C180	C	1.625315	0.100291	0.334251
C181	C	1.001765	-0.596303	-0.379214
C182	C	1.335098	-0.262969	-0.045880
C183	C	1.668432	0.070364	0.287453
O184	O	0.922064	-0.650527	-0.292672
O185	O	1.255398	-0.317194	0.040661
O186	O	1.588731	0.016140	0.373995
O187	O	1.081534	-0.660288	-0.465803
O188	O	1.414868	-0.326955	-0.132469
O189	O	1.748201	0.006378	0.200864
C190	C	1.185076	-0.298851	-0.386603
C191	C	1.518409	0.034483	-0.053270
C192	C	1.851743	0.367816	0.280063
C193	C	1.263179	-0.301284	-0.389745
C194	C	1.596512	0.032050	-0.056412
C195	C	1.929846	0.365383	0.276921
C196	C	0.994465	-0.298359	-0.562509
C197	C	1.327799	0.034974	-0.229176
C198	C	1.661132	0.368308	0.104158
C199	C	0.991342	-0.300582	-0.640611
C200	C	1.324675	0.032751	-0.307278
C201	C	1.658008	0.366084	0.026055
C202	C	1.001912	-0.156774	-0.379305
C203	C	1.335245	0.176559	-0.045972
C204	C	1.668578	0.509893	0.287361
C205	C	1.001961	-0.098662	-0.379337
C206	C	1.335295	0.234671	-0.046004
C207	C	1.668628	0.568004	0.287329
C208	C	1.034838	-0.269593	-0.679131
C209	C	1.368171	0.063741	-0.345798
C210	C	1.701505	0.397074	-0.012465
C211	C	1.031894	-0.271679	-0.752517
C212	C	1.365228	0.061654	-0.419183
C213	C	1.698561	0.394987	-0.085850
C214	C	0.985457	-0.304759	-0.787381
C215	C	1.318791	0.028574	-0.454047
C216	C	1.652124	0.361908	-0.120714
C217	C	0.941956	-0.335750	-0.748855
C218	C	1.275289	-0.002417	-0.415522
C219	C	1.608623	0.330917	-0.082189
C220	C	0.944897	-0.333660	-0.675471
C221	C	1.278230	-0.000327	-0.342138
C222	C	1.611563	0.333007	-0.008805
C223	C	0.971838	-0.314442	-1.006660
C224	C	1.305171	0.018891	-0.673326
C225	C	1.638504	0.352225	-0.339993
C226	C	0.968902	-0.316531	-1.080049
C227	C	1.302235	0.016802	-0.746716
C228	C	1.635568	0.350136	-0.413382
C229	C	1.058839	-0.252460	-1.083705
C230	C	1.392173	0.080874	-0.750372
C231	C	1.725506	0.414207	-0.417039
C232	C	1.061779	-0.250375	-1.010320
C233	C	1.395112	0.082958	-0.676986
C234	C	1.728446	0.416292	-0.343653
C235	C	1.018275	-0.281364	-0.971801
C236	C	1.351608	0.051970	-0.638467
C237	C	1.684942	0.385303	-0.305134
N238	N	0.982449	-0.306894	-0.862392
N239	N	1.315782	0.026439	-0.529059
N240	N	1.649116	0.359773	-0.195726
N241	N	1.021281	-0.279225	-0.896790
N242	N	1.354614	0.054108	-0.563457
N243	N	1.687947	0.387441	-0.230124
C244	C	1.009138	-0.287908	-0.196666
C245	C	1.342471	0.045426	0.136668
C246	C	1.675805	0.378759	0.470001
C247	C	1.012398	-0.285541	-0.118569
C248	C	1.345731	0.047792	0.214764
C249	C	1.679065	0.381125	0.548098
H250	H	0.266715	-0.364572	-0.471384
H251	H	0.600048	-0.031239	-0.138050
H252	H	0.933381	0.302095	0.195283
C253	C	1.092238	-0.165640	-1.107721
C254	C	1.425571	0.167693	-0.774388
C255	C	1.758904	0.501027	-0.441054
C256	C	1.106652	-0.218393	-1.126045
C257	C	1.439985	0.114940	-0.792711
C258	C	1.773319	0.448274	-0.459378
H259	H	1.121759	-0.144608	-1.133857
H260	H	1.455092	0.188725	-0.800523
H261	H	1.788426	0.522059	-0.467190
H262	H	1.044556	-0.156865	-1.117854
H263	H	1.377889	0.176468	-0.784520
H264	H	1.711222	0.509801	-0.451187
H265	H	1.100635	-0.159670	-1.059025
H266	H	1.433968	0.173664	-0.725692
H267	H	1.767302	0.506997	-0.392358
H268	H	1.098250	-0.224364	-1.174740
H269	H	1.431583	0.108969	-0.841407
H270	H	1.764916	0.442302	-0.508073
H271	H	1.154345	-0.227171	-1.115917
H272	H	1.487679	0.106162	-0.782584
H273	H	1.821012	0.439496	-0.449250
C274	C	0.190783	-0.233274	-0.302061
C275	C	0.524116	0.100059	0.031272
C276	C	0.857449	0.433392	0.364606
C277	C	0.263325	-0.228173	-0.295471
C278	C	0.596658	0.105160	0.037862
C279	C	0.929991	0.438494	0.371196
H280	H	0.167107	-0.208898	-0.270645
H281	H	0.500440	0.124435	0.062689
H282	H	0.833774	0.457769	0.396022
H283	H	0.176896	-0.226665	-0.348815
H284	H	0.510230	0.106668	-0.015482
H285	H	0.843563	0.440001	0.317852
H286	H	0.179147	-0.267719	-0.291180
H287	H	0.512481	0.065615	0.042153
H288	H	0.845814	0.398948	0.375486
H289	H	0.274961	-0.193729	-0.306357
H290	H	0.608294	0.139604	0.026976
H291	H	0.941628	0.472937	0.360310
H292	H	0.277217	-0.234778	-0.248706
H293	H	0.610550	0.098555	0.084627
H294	H	0.943883	0.431889	0.417960
H295	H	1.072654	-0.242657	-0.650751
H296	H	1.405988	0.090676	-0.317417
H297	H	1.739321	0.424009	0.015916
H298	H	0.936424	-0.339683	-0.975306
H299	H	1.269757	-0.006350	-0.641973
H300	H	1.603091	0.326983	-0.308640
H301	H	0.406403	-0.242551	-0.313972
H302	H	0.739736	0.090783	0.019361
H303	H	1.073069	0.424116	0.352694
H304	H	0.597898	-0.343763	-0.444532
H305	H	0.931232	-0.010430	-0.111199
H306	H	1.264565	0.322903	0.222135
H307	H	0.399854	-0.368707	-0.476711
H308	H	0.733187	-0.035374	-0.143377
H309	H	1.066520	0.297959	0.189956
H310	H	0.604444	-0.217610	-0.281799
H311	H	0.937778	0.115724	0.051535
H312	H	1.271111	0.449057	0.384868
H313	H	0.923764	-1.088811	-0.294453
H314	H	1.257098	-0.755478	0.038881
H315	H	1.590431	-0.422145	0.372214
H316	H	1.067316	-0.246446	-0.783877
H317	H	1.400649	0.086888	-0.450544
H318	H	1.733982	0.420221	-0.117210
H319	H	0.731027	-0.347900	-0.449855
H320	H	1.064360	-0.014567	-0.116522
H321	H	1.397694	0.318766	0.216812
H322	H	1.099595	-0.223439	-0.981939
H323	H	1.432928	0.109894	-0.648605
H324	H	1.766262	0.443227	-0.315272
H325	H	0.931085	-0.343469	-1.108433
H326	H	1.264418	-0.010136	-0.775100
H327	H	1.597751	0.323197	-0.441766
H328	H	0.737585	-0.221740	-0.287124
H329	H	1.070918	0.111594	0.046209
H330	H	1.404252	0.444927	0.379542
C331	C	0.873433	-0.555694	-0.239930
C332	C	1.206766	-0.222361	0.093403
C333	C	1.540100	0.110973	0.426736
C334	C	0.911277	-0.593498	-0.281000
C335	C	1.244610	-0.260165	0.052333
C336	C	1.577944	0.073168	0.385666
H337	H	0.844181	-0.572437	-0.208196
H338	H	1.177514	-0.239103	0.125138
H339	H	1.510848	0.094230	0.458471
H340	H	0.905138	-0.534582	-0.214301
H341	H	1.238472	-0.201249	0.119032
H342	H	1.571805	0.132085	0.452365
H343	H	0.845305	-0.534430	-0.269443
H344	H	1.178638	-0.201097	0.063890
H345	H	1.511971	0.132237	0.397223
H346	H	0.939409	-0.614760	-0.251488
H347	H	1.272743	-0.281427	0.081846
H348	H	1.606076	0.051907	0.415179
H349	H	0.879568	-0.614619	-0.306631
H350	H	1.212901	-0.281286	0.026702
H351	H	1.546235	0.052048	0.360035
H352	H	0.904143	-0.362682	-0.777247
H353	H	1.237477	-0.029349	-0.443914
H354	H	1.570810	0.303985	-0.110581
H355	H	1.079931	-0.496937	-0.464047
H356	H	1.413264	-0.163604	-0.130714
H357	H	1.746598	0.169729	0.202620
C358	C	1.130063	-0.571324	-0.518466
C359	C	1.463396	-0.237991	-0.185133
C360	C	1.796730	0.095343	0.148201
C361	C	1.092248	-0.604520	-0.477423
C362	C	1.425581	-0.271187	-0.144089
C363	C	1.758914	0.062146	0.189244
H364	H	1.159324	-0.591630	-0.550219
H365	H	1.492658	-0.258297	-0.216886
H366	H	1.825991	0.075037	0.116447
H367	H	1.098340	-0.549846	-0.544074
H368	H	1.431674	-0.216513	-0.210740
H369	H	1.765007	0.116821	0.122593
H370	H	1.158179	-0.549988	-0.488938
H371	H	1.491513	-0.216655	-0.155604
H372	H	1.824846	0.116678	0.177729
H373	H	1.064127	-0.625853	-0.506951
H374	H	1.397460	-0.292520	-0.173617
H375	H	1.730794	0.040813	0.159716
H376	H	1.123974	-0.626007	-0.451813
H377	H	1.457307	-0.292674	-0.118480
H378	H	1.790641	0.040659	0.214853
H379	H	1.123125	-0.750746	-0.510906
H380	H	1.456459	-0.417413	-0.177572
H381	H	1.789792	-0.084080	0.155761
H382	H	1.123161	-0.849796	-0.510936
H383	H	1.456494	-0.516462	-0.177603
H384	H	1.789827	-0.183129	0.155731
C385	C	0.864489	-0.447211	-0.318760
C386	C	1.197823	-0.113877	0.014573
C387	C	1.531156	0.219456	0.347906
C388	C	0.911232	-0.478867	-0.280974
C389	C	1.244566	-0.145534	0.052359
C390	C	1.577899	0.187799	0.385693
H391	H	0.835226	-0.426897	-0.287017
H392	H	1.168560	-0.093564	0.046317
H393	H	1.501893	0.239769	0.379650
H394	H	0.890158	-0.424709	-0.346609
H395	H	1.223491	-0.091375	-0.013276
H396	H	1.556825	0.241958	0.320057
H397	H	0.836375	-0.468559	-0.348274
H398	H	1.169709	-0.135226	-0.014940
H399	H	1.503042	0.198108	0.318393
H400	H	0.939350	-0.457519	-0.251464
H401	H	1.272683	-0.124185	0.081869
H402	H	1.606017	0.209148	0.415202
H403	H	0.885561	-0.501372	-0.253113
H404	H	1.218895	-0.168038	0.080220
H405	H	1.552228	0.165295	0.413554
C406	C	1.130241	-1.030070	-0.518590
C407	C	1.463574	-0.696736	-0.185257
C408	C	1.796908	-0.363403	0.148076
C409	C	1.092399	-0.992262	-0.477525
C410	C	1.425732	-0.658928	-0.144191
C411	C	1.759066	-0.325595	0.189142
H412	H	1.159478	-1.013330	-0.550342
H413	H	1.492811	-0.679996	-0.217008
H414	H	1.826145	-0.346663	0.116325
H415	H	1.158377	-1.051323	-0.489082
H416	H	1.491711	-0.717989	-0.155748
H417	H	1.825044	-0.384656	0.177585
H418	H	1.098529	-1.051192	-0.544207
H419	H	1.431862	-0.717859	-0.210874
H420	H	1.765196	-0.384525	0.122459
H421	H	1.124111	-0.971142	-0.451904
H422	H	1.457445	-0.637808	-0.118571
H423	H	1.790778	-0.304475	0.214763
H424	H	1.064260	-0.971000	-0.507037
H425	H	1.397594	-0.637666	-0.173704
H426	H	1.730927	-0.304333	0.159629
C427	C	1.083352	-1.160025	-0.467681
C428	C	1.416685	-0.826692	-0.134348
C429	C	1.750019	-0.493359	0.198986
C430	C	1.092442	-1.106889	-0.477550
C431	C	1.425775	-0.773555	-0.144217
C432	C	1.759109	-0.440222	0.189117
H433	H	1.112601	-1.180340	-0.499437
H434	H	1.445934	-0.847006	-0.166104
H435	H	1.779268	-0.513673	0.167229
H436	H	1.095570	-1.167960	-0.420901
H437	H	1.428904	-0.834627	-0.087567
H438	H	1.762237	-0.501293	0.245766
H439	H	1.035720	-1.167814	-0.476024
H440	H	1.369053	-0.834481	-0.142691
H441	H	1.702387	-0.501147	0.190642
H442	H	1.140073	-1.099099	-0.469201
H443	H	1.473407	-0.765766	-0.135868
H444	H	1.806740	-0.432433	0.197465
H445	H	1.080228	-1.098951	-0.524341
H446	H	1.413562	-0.765617	-0.191008
H447	H	1.746895	-0.432284	0.142325
H448	H	0.923713	-0.989759	-0.294436
H449	H	1.257046	-0.656426	0.038897
H450	H	1.590380	-0.323093	0.372230
H451	H	0.880534	-0.834994	-0.247628
H452	H	1.213868	-0.501660	0.085705
H453	H	1.547201	-0.168327	0.419038
C454	C	0.830391	-0.760603	-0.193232
C455	C	1.163724	-0.427269	0.140101
C456	C	1.497057	-0.093936	0.473435
C457	C	0.868209	-0.727411	-0.234279
C458	C	1.201542	-0.394078	0.099054
C459	C	1.534876	-0.060744	0.432387
H460	H	0.801133	-0.740293	-0.161479
H461	H	1.134466	-0.406960	0.171854
H462	H	1.467799	-0.073627	0.505188
H463	H	0.802277	-0.781938	-0.222753
H464	H	1.135611	-0.448605	0.110581
H465	H	1.468944	-0.115271	0.443914
H466	H	0.862117	-0.782081	-0.167617
H467	H	1.195450	-0.448748	0.165716
H468	H	1.528784	-0.115415	0.499049
H469	H	0.836483	-0.705935	-0.259898
H470	H	1.169816	-0.372602	0.073435
H471	H	1.503149	-0.039268	0.406769
H472	H	0.896325	-0.706067	-0.204755
H473	H	1.229658	-0.372733	0.128578
H474	H	1.562991	-0.039400	0.461912
H475	H	0.909470	-0.358889	-0.644109
H476	H	1.242803	-0.025556	-0.310775
H477	H	1.576137	0.307777	0.022558
