data_functionalizedCrystal
_audit_creation_method	'MofGen! by Chris Wilmer'
_symmetry_space_group_name_H-M	'P1'
_symmetry_Int_Tables_number	1
_symmetry_cell_setting	triclinic
loop_
_symmetry_equiv_pos_as_xyz
  x,y,z
_cell_length_a	25.639242
_cell_length_b	25.639239
_cell_length_c	11.169409
_cell_angle_alpha	89.960777
_cell_angle_beta	89.967320
_cell_angle_gamma	90.034213
loop_
_atom_site_label
_atom_site_type_symbol
_atom_site_fract_x
_atom_site_fract_y
_atom_site_fract_z
Zn1	Zn	0.799279	-0.208171	-0.678873
Zn2	Zn	1.299279	0.291829	-0.178873
Zn3	Zn	0.799187	-0.295621	-0.478165
Zn4	Zn	1.299187	0.204379	0.021835
Zn5	Zn	0.711840	-0.208195	-0.478165
Zn6	Zn	1.211840	0.291805	0.021835
Zn7	Zn	0.711801	-0.295570	-0.678768
Zn8	Zn	1.211801	0.204430	-0.178768
O9	O	0.755527	-0.251889	-0.578492
O10	O	1.255527	0.248111	-0.078492
O11	O	0.872432	-0.219783	-0.652293
O12	O	1.372432	0.280217	-0.152293
O13	O	0.787578	-0.284055	-0.310215
O14	O	1.287578	0.215945	0.189785
O15	O	0.723494	-0.135026	-0.504833
O16	O	1.223494	0.364974	-0.004833
O17	O	0.872364	-0.284032	-0.504834
O18	O	1.372364	0.215968	-0.004834
O19	O	0.787735	-0.135009	-0.652292
O20	O	1.287735	0.364991	-0.152292
O21	O	0.723404	-0.219823	-0.310215
O22	O	1.223404	0.280177	0.189785
O23	O	0.638669	-0.219774	-0.504731
O24	O	1.138669	0.280226	-0.004731
O25	O	0.723428	-0.283946	-0.846731
O26	O	1.223428	0.216054	-0.346731
O27	O	0.638641	-0.283969	-0.652113
O28	O	1.138641	0.216031	-0.152113
O29	O	0.787698	-0.219734	-0.846809
O30	O	1.287698	0.280266	-0.346809
O31	O	0.787540	-0.368780	-0.504732
O32	O	1.287540	0.131220	-0.004732
O33	O	0.723338	-0.368742	-0.652114
O34	O	1.223338	0.131258	-0.152114
C35	C	0.619684	-0.251869	-0.578411
C36	C	1.119684	0.248131	-0.078411
C37	C	0.561570	-0.251873	-0.578405
C38	C	1.061570	0.248127	-0.078405
C39	C	0.201201	-0.285371	-0.655162
C40	C	0.701201	0.214629	-0.155162
C41	C	0.146597	-0.285375	-0.655181
C42	C	0.646597	0.214625	-0.155181
O43	O	0.118355	-0.313831	-0.720373
O44	O	0.618355	0.186169	-0.220373
N45	N	0.119288	-0.251904	-0.578571
N46	N	0.619288	0.248096	-0.078571
C47	C	0.146586	-0.218424	-0.501946
C48	C	0.646586	0.281576	-0.001946
O49	O	0.118343	-0.189954	-0.436786
O50	O	0.618343	0.310046	0.063214
C51	C	0.201189	-0.218418	-0.501934
C52	C	0.701189	0.281582	-0.001934
C53	C	0.228495	-0.251895	-0.578540
C54	C	0.728495	0.248105	-0.078540
C55	C	0.228507	-0.318845	-0.731763
C56	C	0.728507	0.181155	-0.231763
C57	C	0.283108	-0.318842	-0.731742
C58	C	0.783108	0.181158	-0.231742
C59	C	0.310402	-0.285366	-0.655120
C60	C	0.810402	0.214634	-0.155120
C61	C	0.283096	-0.251892	-0.578519
C62	C	0.783096	0.248108	-0.078519
C63	C	0.228486	-0.184936	-0.425316
C64	C	0.728486	0.315064	0.074684
C65	C	0.283093	-0.184933	-0.425311
C66	C	0.783093	0.315067	0.074689
C67	C	0.310399	-0.218410	-0.501917
C68	C	0.810399	0.281590	-0.001917
C69	C	0.364990	-0.218414	-0.501876
C70	C	0.864990	0.281586	-0.001876
N71	N	0.392300	-0.251884	-0.578486
N72	N	0.892300	0.248116	-0.078486
C73	C	0.365005	-0.285361	-0.655108
C74	C	0.865005	0.214639	-0.155108
C75	C	0.031915	-0.218437	-0.501978
C76	C	0.531915	0.281563	-0.001978
C77	C	-0.022687	-0.218445	-0.501983
C78	C	0.477313	0.281555	-0.001983
C79	C	-0.022672	-0.285395	-0.655220
C80	C	0.477328	0.214605	-0.155220
C81	C	0.031931	-0.285390	-0.655208
C82	C	0.531931	0.214610	-0.155208
C83	C	0.059224	-0.251908	-0.578588
C84	C	0.559224	0.248092	-0.078588
C85	C	0.479670	-0.285353	-0.655058
C86	C	0.979670	0.214647	-0.155058
C87	C	0.534276	-0.285349	-0.655027
C88	C	1.034276	0.214651	-0.155027
C89	C	0.534256	-0.218397	-0.501795
C90	C	1.034256	0.281603	-0.001795
C91	C	0.479656	-0.218403	-0.501821
C92	C	0.979656	0.281597	-0.001821
C93	C	0.452364	-0.251882	-0.578462
C94	C	0.952364	0.248118	-0.078462
O95	O	0.393267	-0.189970	-0.436721
O96	O	0.893267	0.310030	0.063279
O97	O	0.393255	-0.313821	-0.720268
O98	O	0.893255	0.186179	-0.220268
C99	C	0.755439	-0.387732	-0.578438
C100	C	1.255439	0.112268	-0.078438
C101	C	0.755449	-0.445846	-0.578454
C102	C	1.255449	0.054154	-0.078454
C103	C	0.789044	-0.806216	-0.501882
C104	C	1.289044	-0.306216	-0.001882
C105	C	0.789064	-0.860820	-0.501898
C106	C	1.289064	-0.360820	-0.001898
O107	O	0.817537	-0.889063	-0.436733
O108	O	1.317537	-0.389063	0.063267
N109	N	0.755619	-0.888128	-0.578572
N110	N	1.255619	-0.388128	-0.078572
C111	C	0.722154	-0.860830	-0.655244
C112	C	1.222154	-0.360830	-0.155244
O113	O	0.693708	-0.889071	-0.720464
O114	O	1.193708	-0.389071	-0.220464
C115	C	0.722137	-0.806226	-0.655233
C116	C	1.222137	-0.306226	-0.155233
C117	C	0.755581	-0.778921	-0.578545
C118	C	1.255581	-0.278921	-0.078545
C119	C	0.822486	-0.778910	-0.425201
C120	C	1.322486	-0.278910	0.074799
C121	C	0.822465	-0.724310	-0.425184
C122	C	1.322465	-0.224310	0.074816
C123	C	0.789002	-0.697015	-0.501847
C124	C	1.289002	-0.197015	-0.001847
C125	C	0.755560	-0.724320	-0.578528
C126	C	1.255560	-0.224320	-0.078528
C127	C	0.688676	-0.778928	-0.731910
C128	C	1.188676	-0.278928	-0.231910
C129	C	0.688662	-0.724321	-0.731893
C130	C	1.188662	-0.224321	-0.231893
C131	C	0.722106	-0.697016	-0.655205
C132	C	1.222106	-0.197016	-0.155205
C133	C	0.722076	-0.642425	-0.655174
C134	C	1.222076	-0.142425	-0.155174
N135	N	0.755522	-0.615116	-0.578500
N136	N	1.255522	-0.115116	-0.078500
C137	C	0.788985	-0.642411	-0.501836
C138	C	1.288985	-0.142411	-0.001836
C139	C	0.722194	-0.975500	-0.655262
C140	C	1.222194	-0.475500	-0.155262
C141	C	0.722208	-1.030102	-0.655268
C142	C	1.222208	-0.530102	-0.155268
C143	C	0.789119	-1.030089	-0.501923
C144	C	1.289119	-0.530089	-0.001923
C145	C	0.789101	-0.975486	-0.501912
C146	C	1.289101	-0.475486	-0.001912
C147	C	0.755639	-0.948192	-0.578588
C148	C	1.255639	-0.448192	-0.078588
C149	C	0.788937	-0.527746	-0.501805
C150	C	1.288937	-0.027746	-0.001805
C151	C	0.788912	-0.473141	-0.501791
C152	C	1.288912	0.026859	-0.001791
C153	C	0.722003	-0.473159	-0.655140
C154	C	1.222003	0.026841	-0.155140
C155	C	0.722027	-0.527760	-0.655150
C156	C	1.222027	-0.027760	-0.155150
C157	C	0.755498	-0.555052	-0.578478
C158	C	1.255498	-0.055052	-0.078478
O159	O	0.693620	-0.614147	-0.720309
O160	O	1.193620	-0.114147	-0.220309
O161	O	0.817431	-0.614163	-0.436638
O162	O	1.317431	-0.114163	0.063362
C163	C	0.891900	-0.251910	-0.578575
C164	C	1.391900	0.248090	-0.078575
C165	C	0.950014	-0.251919	-0.578610
C166	C	1.450014	0.248081	-0.078610
C167	C	0.755569	-0.251831	-0.891535
C168	C	1.255569	0.248169	-0.391535
C169	C	0.755586	-0.251807	-1.024935
C170	C	1.255586	0.248193	-0.524935
C171	C	0.755629	-0.115516	-0.578574
C172	C	1.255629	0.384484	-0.078574
C173	C	0.755673	-0.057402	-0.578609
C174	C	1.255673	0.442598	-0.078609
C175	C	0.755515	-0.251909	-0.266668
C176	C	1.255515	0.248091	0.233332
C177	C	0.755598	-0.251787	-0.133268
C178	C	1.255598	0.248213	0.366732
H179	H	-0.044905	-0.312652	-0.717614
H180	H	0.455095	0.187348	-0.217614
H181	H	0.556506	-0.312612	-0.717410
H182	H	1.056506	0.187388	-0.217410
H183	H	0.816146	-0.450910	-0.439338
H184	H	1.316146	0.049090	0.060662
H185	H	-0.044916	-0.191190	-0.439591
H186	H	0.455084	0.308810	0.060409
H187	H	0.849699	-0.702081	-0.362741
H188	H	1.349699	-0.202081	0.137259
H189	H	0.457422	-0.191144	-0.439439
H190	H	0.957422	0.308856	0.060561
H191	H	0.694795	-0.549993	-0.717599
H192	H	1.194795	-0.049993	-0.217599
H193	H	0.206263	-0.157677	-0.362931
H194	H	0.706263	0.342323	0.137069
H195	H	0.556489	-0.191143	-0.439407
H196	H	1.056489	0.308857	0.060593
H197	H	0.816194	-0.549961	-0.439374
H198	H	1.316194	-0.049961	0.060626
H199	H	0.816335	-0.953257	-0.439467
H200	H	1.316335	-0.453257	0.060533
H201	H	0.305336	-0.346102	-0.794125
H202	H	0.805336	0.153898	-0.294125
H203	H	0.054134	-0.191173	-0.439576
H204	H	0.554134	0.308827	0.060424
H205	H	0.694940	-0.953280	-0.717698
H206	H	1.194940	-0.453280	-0.217698
H207	H	0.849738	-0.801128	-0.362772
H208	H	1.349738	-0.301128	0.137228
H209	H	0.305312	-0.157665	-0.362923
H210	H	0.805312	0.342335	0.137077
H211	H	0.816368	-1.052323	-0.439504
H212	H	1.316368	-0.552323	0.060496
H213	H	0.661439	-0.801151	-0.794352
H214	H	1.161439	-0.301151	-0.294352
H215	H	0.694969	-1.052330	-0.717704
H216	H	1.194969	-0.552330	-0.217704
H217	H	0.661413	-0.702101	-0.794336
H218	H	1.161413	-0.202101	-0.294336
H219	H	0.694756	-0.450927	-0.717555
H220	H	1.194756	0.049073	-0.217555
H221	H	0.206290	-0.346106	-0.794164
H222	H	0.706290	0.153894	-0.294164
H223	H	0.054160	-0.312649	-0.717589
H224	H	0.554160	0.187351	-0.217589
H225	H	0.457456	-0.312614	-0.717469
H226	H	0.957456	0.187386	-0.217469
