data_functionalizedCrystal
_audit_creation_method	'MofGen! by Chris Wilmer'
_symmetry_space_group_name_H-M	'P1'
_symmetry_Int_Tables_number	1
_symmetry_cell_setting	triclinic
loop_
_symmetry_equiv_pos_as_xyz
  x,y,z
_cell_length_a	13.339070
_cell_length_b	11.792241
_cell_length_c	12.376457
_cell_angle_alpha	101.354533
_cell_angle_beta	75.589755
_cell_angle_gamma	99.911355
loop_
_atom_site_label
_atom_site_type_symbol
_atom_site_fract_x
_atom_site_fract_y
_atom_site_fract_z
O1	O	1.364732	0.554298	-0.094048
O2	O	1.069793	0.479486	-0.094041
O3	O	1.224419	0.353927	-0.094037
O4	O	1.210107	0.679857	-0.094053
O5	O	1.185776	0.385262	0.093974
O6	O	1.031151	0.510821	0.093970
O7	O	1.326090	0.585633	0.093963
Zn8	Zn	1.172485	0.553202	0.123817
Zn9	Zn	1.223398	0.511917	-0.123896
O10	O	1.171464	0.711191	0.093958
C11	C	1.012713	0.482516	-0.000035
C12	C	0.900204	0.444848	-0.000032
C13	C	0.537024	0.737736	-0.000064
C14	C	0.642733	0.773131	-0.000070
C15	C	0.707105	0.691063	-0.000060
C16	C	0.665760	0.573595	-0.000045
C17	C	0.560044	0.538195	-0.000047
C18	C	0.730125	0.491522	-0.000044
C19	C	0.688780	0.374054	-0.000028
C20	C	0.583073	0.338661	-0.000030
C21	C	0.518700	0.420728	-0.000040
C22	C	0.835841	0.526922	-0.000041
C23	C	0.858861	0.327381	-0.000025
C24	C	0.753152	0.291986	-0.000018
C25	C	1.204198	0.327027	-0.000032
C26	C	1.201507	0.200184	-0.000033
C27	C	1.196562	-0.032056	-0.000052
C28	C	1.199310	0.097178	-0.000042
C29	C	1.383170	0.582602	-0.000046
C30	C	1.495681	0.620269	-0.000057
C31	C	1.191685	0.738092	-0.000049
C32	C	1.194378	0.864933	-0.000056
N33	N	1.137745	0.581379	0.292874
N34	N	1.258146	0.483733	-0.292953
C35	C	1.338788	0.418302	0.647865
C36	C	1.363097	0.398579	0.529526
C37	C	1.306760	0.444277	0.470357
C38	C	1.226112	0.509702	0.529539
C39	C	1.201806	0.529435	0.647890
C40	C	1.169779	0.555410	0.470382
C41	C	1.089130	0.620835	0.529564
C42	C	1.064828	0.640564	0.647903
C43	C	1.121164	0.594866	0.707072
C44	C	1.194085	0.535677	0.352031
C45	C	1.057103	0.646810	0.352056
C46	C	1.032794	0.666533	0.470396
H47	H	0.911274	0.260553	-0.000021
H48	H	0.484605	0.804541	-0.000082
N49	N	1.399534	0.369011	0.711683
H50	H	1.454308	0.324564	0.656239
H51	H	1.434485	0.434860	0.760771
H52	H	1.259749	0.482408	0.303856
N53	N	1.332974	0.423006	0.342720
H54	H	1.392610	0.374623	0.314207
H55	H	1.269833	0.380024	0.314324
H56	H	1.101370	0.610920	0.803434
H57	H	1.428760	0.345312	0.481344
N58	N	0.821118	0.729233	-0.000060
H59	H	0.837542	0.816101	-0.000067
H60	H	0.836690	0.710132	0.069648
N61	N	0.977843	0.711124	0.711739
H62	H	0.945836	0.737073	0.656303
H63	H	0.922732	0.661633	0.760847
N64	N	0.687329	0.899815	-0.000103
H65	H	0.630512	0.946434	-0.000112
H66	H	0.716367	0.930477	0.069589
H67	H	0.967129	0.719805	0.518596
H68	H	0.432622	0.391916	-0.000035
N69	N	0.996327	0.696108	0.288263
H70	H	1.045408	0.750477	0.239146
H71	H	0.961307	0.630252	0.239244
N72	N	0.880417	0.653614	-0.000049
H73	H	0.909435	0.684370	0.069647
H74	H	0.938048	0.661045	-0.069790
H75	H	0.549416	0.243008	-0.000030
H76	H	0.719476	0.196340	-0.000015
