data_functionalizedCrystal
_audit_creation_method	'MofGen! by Chris Wilmer'
_symmetry_space_group_name_H-M	'P1'
_symmetry_Int_Tables_number	1
_symmetry_cell_setting	triclinic
loop_
_symmetry_equiv_pos_as_xyz
  x,y,z
_cell_length_a	15.944551
_cell_length_b	10.654545
_cell_length_c	9.730223
_cell_angle_alpha	89.997167
_cell_angle_beta	89.999510
_cell_angle_gamma	96.009092
loop_
_atom_site_label
_atom_site_type_symbol
_atom_site_fract_x
_atom_site_fract_y
_atom_site_fract_z
O1	O	-0.117958	1.666316	-0.114260
O2	O	-0.129202	1.300691	-0.114264
O3	O	-0.001363	1.493488	-0.114270
O4	O	-0.245797	1.473519	-0.114254
O5	O	-0.001360	1.493476	0.114310
O6	O	-0.129199	1.300679	0.114316
O7	O	-0.117955	1.666304	0.114320
Zn8	Zn	-0.123576	1.483489	0.150610
Zn9	Zn	-0.123581	1.483506	-0.150554
O10	O	-0.245794	1.473507	0.114326
C11	C	-0.128376	1.253898	0.000025
C12	C	-0.125908	1.114486	0.000023
C13	C	-0.124745	1.048990	0.124623
C14	C	-0.122412	0.918001	0.124622
C15	C	-0.122410	0.918015	-0.124588
C16	C	-0.124737	1.049003	-0.124586
C17	C	-0.277094	1.474342	0.000038
C18	C	-0.370355	1.476827	0.000044
C19	C	-0.585936	1.602272	0.000024
C20	C	-0.646614	1.544014	0.112727
C21	C	-0.541107	1.481324	0.000032
C22	C	-0.646603	1.543998	-0.112635
C23	C	-0.706044	1.485676	0.000014
C24	C	-0.600556	1.423032	0.112827
C25	C	-0.600539	1.423032	-0.112636
C26	C	-0.661199	1.364686	0.000094
C27	C	-0.446090	1.478820	0.000043
C28	C	-0.801060	1.488170	0.000012
C29	C	0.029937	1.492653	0.000015
C30	C	0.123198	1.490168	0.000000
C31	C	-0.118781	1.713097	0.000028
C32	C	-0.121249	1.852509	0.000021
N33	N	-0.123573	1.483488	0.356146
N34	N	-0.123578	1.483518	-0.356090
C35	C	-0.066989	1.568887	0.428070
C36	C	-0.066990	1.568899	0.571953
C37	C	-0.180164	1.398109	0.571976
C38	C	-0.180159	1.398092	0.428096
H39	H	-0.121465	0.864679	0.226084
Br40	Br	-0.531388	1.769599	0.000202
Br41	Br	-0.120795	0.829142	-0.293692
Br42	Br	-0.126305	1.137901	-0.293699
Br43	Br	-0.256949	1.282175	0.330474
Br44	Br	0.009808	1.684797	0.669561
Br45	Br	-0.680627	1.629268	0.271531
Br46	Br	-0.566748	1.337828	0.271812
Br47	Br	0.009807	1.684778	0.330429
H48	H	-0.580116	1.371924	-0.207923
Br49	Br	-0.126331	1.137857	0.293734
Br50	Br	-0.715490	1.197207	0.000177
H51	H	-0.226236	1.328584	0.630572
Br52	Br	-0.680588	1.629305	-0.271430
