data_functionalizedCrystal
_audit_creation_method	'MofGen! by Chris Wilmer'
_symmetry_space_group_name_H-M	'P1'
_symmetry_Int_Tables_number	1
_symmetry_cell_setting	triclinic
loop_
_symmetry_equiv_pos_as_xyz
  x,y,z
_cell_length_a	10.723023
_cell_length_b	10.723024
_cell_length_c	9.130313
_cell_angle_alpha	89.999893
_cell_angle_beta	90.000208
_cell_angle_gamma	84.467709
loop_
_atom_site_label
_atom_site_type_symbol
_atom_site_fract_x
_atom_site_fract_y
_atom_site_fract_z
O1	O	1.657182	0.175017	-0.121780
O2	O	1.294029	0.191771	-0.121786
O3	O	1.483982	0.001818	-0.121778
O4	O	1.467229	0.364970	-0.121789
O5	O	1.483980	0.001823	0.121821
O6	O	1.294027	0.191776	0.121813
O7	O	1.657180	0.175022	0.121818
Cu8	Cu	1.475603	0.183400	0.144058
Cu9	Cu	1.475606	0.183394	-0.144026
O10	O	1.467227	0.364975	0.121810
C11	C	1.247529	0.190555	0.000012
C12	C	1.108974	0.186908	0.000010
C13	C	1.482762	-0.044679	0.000020
C14	C	1.479114	-0.183233	0.000015
C15	C	0.904008	0.181509	-0.126181
C16	C	1.047211	0.185279	-0.126182
C17	C	1.585402	-0.258216	0.000014
C18	C	1.581634	-0.401420	0.000009
C19	C	1.703680	0.176239	0.000017
C20	C	1.842235	0.179886	0.000009
C21	C	1.468447	0.411473	0.000009
C22	C	1.472095	0.550027	0.000005
N23	N	1.475610	0.183403	0.346681
N24	N	1.475609	0.183380	-0.346648
C25	C	1.559743	0.099321	0.423336
C26	C	1.559740	0.099306	0.576673
C27	C	1.391467	0.267467	0.576685
C28	C	1.391465	0.267475	0.423351
C29	C	1.656898	0.002238	0.423331
C30	C	1.656895	0.002223	0.576668
H31	H	0.850878	0.180101	-0.234217
O32	O	1.300740	0.358162	0.659389
H33	H	1.242239	0.416634	0.580320
H34	H	1.055858	0.185519	0.108052
H35	H	1.752788	0.023590	0.618285
O36	O	1.702167	-0.486763	0.000012
H37	H	1.757298	-0.468521	0.099308
O38	O	1.709643	-0.202839	0.000018
H39	H	1.693106	-0.099051	0.000030
O40	O	0.912590	0.181757	0.143130
H41	H	0.982312	0.098421	0.149407
H42	H	1.635606	-0.093676	0.381713
H43	H	1.100334	0.186683	-0.234218
O44	O	1.354879	-0.238622	0.000010
H45	H	1.277593	-0.161912	0.000002
O46	O	1.351549	-0.364649	0.000014
H47	H	1.347745	-0.304675	-0.099274
H48	H	1.626590	-0.088414	0.624217
H49	H	1.322947	0.335930	0.360939
H50	H	1.747497	0.032617	0.375773
