data_functionalizedCrystal
_audit_creation_method	'MofGen! by Chris Wilmer'
_symmetry_space_group_name_H-M	'P1'
_symmetry_Int_Tables_number	1
_symmetry_cell_setting	triclinic
loop_
_symmetry_equiv_pos_as_xyz
  x,y,z
_cell_length_a	12.759395
_cell_length_b	15.299816
_cell_length_c	12.759387
_cell_angle_alpha	99.650540
_cell_angle_beta	89.978972
_cell_angle_gamma	80.351290
loop_
_atom_site_label
_atom_site_type_symbol
_atom_site_fract_x
_atom_site_fract_y
_atom_site_fract_z
Zn1	Zn	1.678557	-0.358989	-0.666433
Zn2	Zn	1.708822	-0.509830	-0.521181
Zn3	Zn	1.502865	-0.359036	-0.490778
Zn4	Zn	1.533208	-0.509764	-0.696805
O5	O	1.605863	-0.434405	-0.593799
O6	O	1.829594	-0.379006	-0.647178
O7	O	1.681468	-0.489874	-0.370136
O8	O	1.500805	-0.232821	-0.488645
O9	O	1.851830	-0.489829	-0.540462
O10	O	1.629886	-0.232787	-0.617698
O11	O	1.530152	-0.379086	-0.347799
O12	O	1.359867	-0.379022	-0.518095
O13	O	1.552522	-0.489716	-0.839788
O14	O	1.382161	-0.489762	-0.669462
O15	O	1.659309	-0.378942	-0.817474
O16	O	1.710891	-0.636029	-0.569912
O17	O	1.581869	-0.635981	-0.698942
C18	C	1.332893	-0.434390	-0.593776
C19	C	1.216119	-0.434406	-0.593795
C20	C	0.973572	-0.319213	-0.705213
C21	C	1.016878	-0.261597	-0.760887
C22	C	1.126596	-0.261581	-0.760866
C23	C	1.193013	-0.319190	-0.705166
C24	C	1.149707	-0.376806	-0.649491
C25	C	1.039984	-0.376813	-0.649516
C26	C	1.172813	-0.492022	-0.538120
C27	C	1.063094	-0.492034	-0.538134
C28	C	1.239229	-0.549631	-0.482421
C29	C	1.195922	-0.607243	-0.426738
C30	C	1.086197	-0.607256	-0.426761
C31	C	1.019788	-0.549650	-0.482459
C32	C	1.652986	-0.668729	-0.641045
C33	C	1.673241	-0.768975	-0.661292
C34	C	1.461783	-1.051920	-0.449447
C35	C	1.442747	-0.957734	-0.430427
C36	C	1.500369	-0.910540	-0.488141
C37	C	1.577030	-0.957540	-0.564880
C38	C	1.596063	-1.051734	-0.583908
C39	C	1.634648	-0.910354	-0.622602
C40	C	1.711310	-0.957354	-0.699341
C41	C	1.730339	-1.051540	-0.718365
C42	C	1.672717	-1.098734	-0.660651
C43	C	1.615616	-0.816160	-0.603574
C44	C	1.749895	-0.815974	-0.738035
C45	C	1.768932	-0.910160	-0.757055
C46	C	1.879899	-0.434419	-0.593824
C47	C	1.996677	-0.434426	-0.593834
C48	C	1.605924	-0.434316	-0.867815
C49	C	1.605951	-0.434279	-0.984584
C50	C	1.558585	-0.199165	-0.546392
C51	C	1.538438	-0.098920	-0.526190
C52	C	1.717158	-0.318937	-0.961370
C53	C	1.772774	-0.261253	-1.004621
C54	C	1.772793	-0.261220	-1.114336
C55	C	1.717188	-0.318876	-1.180804
C56	C	1.661572	-0.376560	-1.137553
C57	C	1.661562	-0.376588	-1.027834
C58	C	1.550359	-0.491895	-1.160766
C59	C	1.550345	-0.491934	-1.051052
C60	C	1.494754	-0.549551	-1.227233
C61	C	1.439143	-0.607241	-1.183983
C62	C	1.439127	-0.607272	-1.074261
C63	C	1.494729	-0.549618	-1.007801
C64	C	1.605849	-0.434428	-0.320836
C65	C	1.605975	-0.434211	-0.204017
H66	H	0.930445	-0.549644	-0.482468
H67	H	1.050946	-0.654178	-0.381429
F68	F	1.811224	-0.765751	-0.799464
F69	F	1.693147	-1.198978	-0.680718
H70	H	1.792757	-1.089804	-0.780855
H71	H	1.282352	-0.319181	-0.705165
F72	F	1.717158	-0.318978	-0.844602
H73	H	0.962790	-0.214695	-0.806240
F74	F	1.400454	-1.102153	-0.388047
F75	F	1.356003	-0.549618	-0.482406
F76	F	1.850517	-0.960192	-0.838725
F77	F	1.494774	-0.549514	-1.344001
H78	H	1.818045	-0.214309	-0.950491
H79	H	1.250007	-0.654148	-0.381398
F80	F	1.534030	-0.766150	-0.521905
F81	F	1.494723	-0.549651	-0.891031
H82	H	1.818073	-0.214243	-1.149549
H83	H	1.484866	-0.833850	-0.472649
H84	H	1.717198	-0.318836	-1.270137
H85	H	1.393825	-0.654236	-1.039052
F86	F	0.856796	-0.319213	-0.705225
F87	F	1.172688	-0.200265	-0.820126
H88	H	1.393867	-0.654175	-1.238108
H89	H	1.380329	-0.919471	-0.367948
