data_functionalizedCrystal
_audit_creation_method	'MofGen! by Chris Wilmer'
_symmetry_space_group_name_H-M	'P1'
_symmetry_Int_Tables_number	1
_symmetry_cell_setting	triclinic
loop_
_symmetry_equiv_pos_as_xyz
  x,y,z
_cell_length_a	19.805407
_cell_length_b	19.805404
_cell_length_c	19.805399
_cell_angle_alpha	90.026554
_cell_angle_beta	90.016886
_cell_angle_gamma	90.030762
loop_
_atom_site_label
_atom_site_type_symbol
_atom_site_fract_x
_atom_site_fract_y
_atom_site_fract_z
Zn1	Zn	-1.034697	0.269469	-0.382731
Zn2	Zn	-0.534697	0.769469	0.117269
Zn3	Zn	-1.034609	0.382661	-0.269548
Zn4	Zn	-0.534609	0.882661	0.230452
Zn5	Zn	-0.921517	0.269491	-0.269556
Zn6	Zn	-0.421517	0.769491	0.230444
Zn7	Zn	-0.921467	0.382622	-0.382694
Zn8	Zn	-0.421467	0.882622	0.117306
O9	O	-0.978073	0.326061	-0.326132
O10	O	-0.478073	0.826061	0.173868
O11	O	-1.129402	0.284492	-0.367729
O12	O	-0.629402	0.784492	0.132271
O13	O	-1.019591	0.367674	-0.174832
O14	O	-0.519591	0.867674	0.325168
O15	O	-0.936589	0.174771	-0.284587
O16	O	-0.436589	0.674771	0.215413
O17	O	-1.129337	0.367653	-0.284574
O18	O	-0.629337	0.867653	0.215426
O19	O	-1.019742	0.174756	-0.367737
O20	O	-0.519742	0.674756	0.132263
O21	O	-0.936503	0.284528	-0.174838
O22	O	-0.436503	0.784528	0.325162
O23	O	-0.826794	0.284491	-0.284552
O24	O	-0.326794	0.784491	0.215448
O25	O	-0.936503	0.367587	-0.477416
O26	O	-0.436503	0.867587	0.022584
O27	O	-0.826757	0.367608	-0.367674
O28	O	-0.326757	0.867608	0.132326
O29	O	-1.019693	0.284454	-0.477443
O30	O	-0.519693	0.784454	0.022557
O31	O	-1.019542	0.477372	-0.284538
O32	O	-0.519542	0.977372	0.215462
O33	O	-0.936417	0.477344	-0.367667
O34	O	-0.436417	0.977344	0.132333
C35	C	-0.977983	0.501917	-0.326112
C36	C	-0.477983	1.001917	0.173888
C37	C	-0.978007	0.577149	-0.326126
C38	C	-0.478007	1.077149	0.173874
C39	C	-0.802217	0.326048	-0.326110
C40	C	-0.302217	0.826048	0.173890
C41	C	-0.726985	0.326059	-0.326117
C42	C	-0.226985	0.826059	0.173883
C43	C	-0.978102	0.326014	-0.502675
C44	C	-0.478102	0.826014	-0.002675
C45	C	-0.978115	0.325994	-0.577907
C46	C	-0.478115	0.825994	-0.077907
C47	C	-1.154615	0.326074	-0.326155
C48	C	-0.654615	0.826074	0.173845
C49	C	-1.229847	0.326080	-0.326164
C50	C	-0.729847	0.826080	0.173836
C51	C	-0.691639	0.369403	-0.369329
C52	C	-0.191639	0.869403	0.130671
C53	C	-0.620950	0.369404	-0.369338
C54	C	-0.120950	0.869404	0.130662
C55	C	-0.585609	0.326064	-0.326132
C56	C	-0.085609	0.826064	0.173868
C57	C	-0.620960	0.282715	-0.282918
C58	C	-0.120960	0.782715	0.217082
C59	C	-0.691647	0.282711	-0.282913
C60	C	-0.191647	0.782711	0.217087
C61	C	-0.335886	0.282730	-0.282941
C62	C	0.164114	0.782730	0.217059
C63	C	-0.265194	0.282739	-0.282948
C64	C	0.234806	0.782739	0.217052
C65	C	-0.265190	0.369423	-0.369366
C66	C	0.234810	0.869423	0.130634
C67	C	-0.335877	0.369419	-0.369361
C68	C	0.164123	0.869419	0.130639
C69	C	-0.371222	0.326068	-0.326150
C70	C	0.128778	0.826068	0.173850
C71	C	-0.447870	0.326066	-0.326141
C72	C	0.052130	0.826066	0.173859
C73	C	-0.508962	0.326068	-0.326137
C74	C	-0.008962	0.826068	0.173863
C75	C	-1.021507	1.038932	-0.282966
C76	C	-0.521507	1.538932	0.217034
C77	C	-1.021477	0.968244	-0.282951
C78	C	-0.521477	1.468244	0.217049
C79	C	-0.978149	0.932910	-0.326189
C80	C	-0.478149	1.432910	0.173811
C81	C	-0.934843	0.968269	-0.369441
C82	C	-0.434843	1.468269	0.130559
C83	C	-0.934871	1.038956	-0.369452
C84	C	-0.434871	1.538956	0.130548
C85	C	-0.934731	0.683196	-0.369394
C86	C	-0.434731	1.183196	0.130606
C87	C	-0.934709	0.612504	-0.369380
C88	C	-0.434709	1.112504	0.130620
C89	C	-1.021338	0.612483	-0.282892
C90	C	-0.521338	1.112483	0.217108
C91	C	-1.021365	0.683170	-0.282904
C92	C	-0.521365	1.183170	0.217096
C93	C	-0.978057	0.718523	-0.326153
C94	C	-0.478057	1.218523	0.173847
C95	C	-0.978090	0.795171	-0.326168
C96	C	-0.478090	1.295171	0.173832
C97	C	-0.978119	0.856263	-0.326177
C98	C	-0.478119	1.356263	0.173823
C99	C	-0.978176	1.149518	-0.326176
C100	C	-0.478176	1.649518	0.173824
C101	C	-0.978207	1.074286	-0.326216
C102	C	-0.478207	1.574286	0.173784
C103	C	-0.934863	0.282696	-0.613254
C104	C	-0.434863	0.782696	-0.113254
C105	C	-0.934873	0.282683	-0.683942
C106	C	-0.434873	0.782683	-0.183942
C107	C	-0.978137	0.325964	-0.719283
C108	C	-0.478137	0.825964	-0.219283
C109	C	-1.021391	0.369267	-0.683931
C110	C	-0.521391	0.869267	-0.183931
C111	C	-1.021378	0.369283	-0.613244
C112	C	-0.521378	0.869283	-0.113244
C113	C	-1.021445	0.369204	-0.969004
C114	C	-0.521445	0.869204	-0.469004
C115	C	-1.021456	0.369183	-1.039697
C116	C	-0.521456	0.869183	-0.539697
C117	C	-0.934940	0.282603	-1.039703
C118	C	-0.434940	0.782603	-0.539703
C119	C	-0.934926	0.282619	-0.969016
C120	C	-0.434926	0.782619	-0.469016
C121	C	-0.978177	0.325924	-0.933670
C122	C	-0.478177	0.825924	-0.433670
C123	C	-0.978165	0.325939	-0.857022
C124	C	-0.478165	0.825939	-0.357022
C125	C	-0.978153	0.325947	-0.795930
C126	C	-0.478153	0.825947	-0.295930
C127	C	-0.978082	0.326059	-0.150276
C128	C	-0.478082	0.826059	0.349724
C129	C	-0.978200	0.325888	-0.075045
C130	C	-0.478200	0.825888	0.424955
H131	H	-0.592175	0.404700	-0.404525
H132	H	-0.092175	0.904700	0.095475
N133	N	-1.068044	0.574355	-0.236235
N134	N	-0.568044	1.074355	0.263765
H135	H	-1.116402	0.586606	-0.246800
H136	H	-0.616402	1.086606	0.253200
H137	H	-1.061396	0.524226	-0.242804
H138	H	-0.561396	1.024226	0.257196
H139	H	-0.364655	0.247436	-0.247751
H140	H	0.135345	0.747436	0.252249
H141	H	-1.056650	0.711935	-0.247697
H142	H	-0.556650	1.211935	0.252303
H143	H	-1.056794	1.067695	-0.247761
H144	H	-0.556794	1.567695	0.252239
N145	N	-1.068188	0.930111	-0.236311
N146	N	-0.568188	1.430111	0.263689
H147	H	-1.095646	0.963220	-0.208928
H148	H	-0.595646	1.463220	0.291072
H149	H	-1.099476	0.900740	-0.263898
H150	H	-0.599476	1.400740	0.236102
H151	H	-0.899650	0.247428	-0.712718
H152	H	-0.399650	0.747428	-0.212718
N153	N	-0.888167	1.077086	-0.416104
N154	N	-0.388167	1.577086	0.083896
H155	H	-0.915662	1.106371	-0.447501
H156	H	-0.415662	1.606371	0.052499
H157	H	-0.856838	1.106419	-0.388523
H158	H	-0.356838	1.606419	0.111477
H159	H	-0.899698	0.247373	-0.940245
H160	H	-0.399698	0.747373	-0.440245
H161	H	-0.899636	0.247447	-0.584485
H162	H	-0.399636	0.747447	-0.084485
N163	N	-0.888115	0.930161	-0.416080
N164	N	-0.388115	1.430161	0.083920
H165	H	-0.860688	0.963286	-0.443480
H166	H	-0.360688	1.463286	0.056520
H167	H	-0.856799	0.900877	-0.388496
H168	H	-0.356799	1.400877	0.111504
N169	N	-0.729751	0.416154	-0.415928
N170	N	-0.229751	0.916154	0.084072
H171	H	-0.717474	0.405705	-0.464308
H172	H	-0.217474	0.905705	0.035692
H173	H	-0.779883	0.409557	-0.409310
H174	H	-0.279883	0.909557	0.090690
H175	H	-0.592179	0.247424	-0.247742
H176	H	-0.092179	0.747424	0.252258
N177	N	-0.888276	0.235906	-1.077825
N178	N	-0.388276	0.735906	-0.577825
H179	H	-0.894841	0.242466	-1.127968
H180	H	-0.394841	0.742466	-0.627968
H181	H	-0.839931	0.246448	-1.065453
H182	H	-0.339931	0.746448	-0.565453
H183	H	-0.899423	0.583737	-0.404591
H184	H	-0.399423	1.083737	0.095409
H185	H	-1.056614	0.404511	-0.712711
H186	H	-0.556614	0.904511	-0.212711
H187	H	-0.364649	0.404713	-0.404541
H188	H	0.135351	0.904713	0.095459
H189	H	-1.056603	0.404536	-0.584465
H190	H	-0.556603	0.904536	-0.084465
H191	H	-0.899462	0.711972	-0.404604
H192	H	-0.399462	1.211972	0.095396
H193	H	-0.236404	0.404719	-0.404553
H194	H	0.263596	0.904719	0.095447
H195	H	-1.056689	0.404431	-1.068469
H196	H	-0.556689	0.904431	-0.568469
H197	H	-0.720424	0.247412	-0.247729
H198	H	-0.220424	0.747412	0.252271
H199	H	-1.056655	0.404473	-0.940235
H200	H	-0.556655	0.904473	-0.440235
H201	H	-0.236421	0.247442	-0.247765
H202	H	0.263579	0.747442	0.252235
