data_functionalizedCrystal
_audit_creation_method	'MofGen! by Chris Wilmer'
_symmetry_space_group_name_H-M	'P1'
_symmetry_Int_Tables_number	1
_symmetry_cell_setting	triclinic
loop_
_symmetry_equiv_pos_as_xyz
  x,y,z
_cell_length_a	17.699083
_cell_length_b	16.109301
_cell_length_c	14.586319
_cell_angle_alpha	90.000787
_cell_angle_beta	89.995320
_cell_angle_gamma	96.627752
loop_
_atom_site_label
_atom_site_type_symbol
_atom_site_fract_x
_atom_site_fract_y
_atom_site_fract_z
O1	O	0.097285	-1.102963	-0.076184
O2	O	0.347285	-0.852963	0.173816
O3	O	0.597285	-0.602963	0.423816
O4	O	0.847285	-0.352963	0.673816
O5	O	0.109391	-0.860880	-0.076199
O6	O	0.359391	-0.610880	0.173801
O7	O	0.609391	-0.360880	0.423801
O8	O	0.859391	-0.110880	0.673801
O9	O	-0.006841	-0.988761	-0.076183
O10	O	0.243159	-0.738761	0.173817
O11	O	0.493159	-0.488761	0.423817
O12	O	0.743159	-0.238761	0.673817
O13	O	0.213517	-0.975082	-0.076200
O14	O	0.463517	-0.725082	0.173800
O15	O	0.713517	-0.475082	0.423800
O16	O	0.963517	-0.225082	0.673800
O17	O	-0.006843	-0.988752	0.076298
O18	O	0.243157	-0.738752	0.326298
O19	O	0.493157	-0.488752	0.576298
O20	O	0.743157	-0.238752	0.826298
O21	O	0.109390	-0.860872	0.076282
O22	O	0.359390	-0.610872	0.326282
O23	O	0.609390	-0.360872	0.576282
O24	O	0.859390	-0.110872	0.826282
O25	O	0.097283	-1.102954	0.076297
O26	O	0.347283	-0.852954	0.326297
O27	O	0.597283	-0.602954	0.576297
O28	O	0.847283	-0.352954	0.826297
Cu29	Cu	0.103336	-0.981912	0.090212
Cu30	Cu	0.353336	-0.731912	0.340212
Cu31	Cu	0.603336	-0.481912	0.590212
Cu32	Cu	0.853336	-0.231912	0.840212
Cu33	Cu	0.103338	-0.981923	-0.090114
Cu34	Cu	0.353338	-0.731923	0.159886
Cu35	Cu	0.603338	-0.481923	0.409886
Cu36	Cu	0.853338	-0.231923	0.659886
O37	O	0.213516	-0.975074	0.076281
O38	O	0.463516	-0.725074	0.326281
O39	O	0.713516	-0.475074	0.576281
O40	O	0.963516	-0.225074	0.826281
C41	C	0.108900	-0.829902	0.000040
C42	C	0.358900	-0.579902	0.250040
C43	C	0.608900	-0.329902	0.500040
C44	C	0.858900	-0.079902	0.750040
C45	C	0.107430	-0.737609	0.000034
C46	C	0.357430	-0.487609	0.250034
C47	C	0.607430	-0.237609	0.500034
C48	C	0.857430	0.012391	0.750034
C49	C	-0.035040	-0.988267	0.000057
C50	C	0.214960	-0.738267	0.250057
C51	C	0.464960	-0.488267	0.500057
C52	C	0.714960	-0.238267	0.750057
C53	C	-0.119060	-0.986796	0.000058
C54	C	0.130940	-0.736796	0.250058
C55	C	0.380940	-0.486796	0.500058
C56	C	0.630940	-0.236796	0.750058
C57	C	0.097774	-1.133933	0.000056
C58	C	0.347774	-0.883933	0.250056
C59	C	0.597774	-0.633933	0.500056
C60	C	0.847774	-0.383933	0.750056
C61	C	0.099244	-1.226226	0.000055
C62	C	0.349244	-0.976226	0.250055
C63	C	0.599244	-0.726226	0.500055
C64	C	0.849244	-0.476226	0.750055
C65	C	-0.167574	-1.061860	0.000064
C66	C	0.082426	-0.811860	0.250064
C67	C	0.332426	-0.561860	0.500064
C68	C	0.582426	-0.311860	0.750064
C69	C	-0.246519	-1.060473	0.000055
C70	C	0.003481	-0.810473	0.250055
C71	C	0.253481	-0.560473	0.500055
C72	C	0.503481	-0.310473	0.750055
C73	C	-0.276949	-0.984022	0.000048
C74	C	-0.026949	-0.734022	0.250048
C75	C	0.223051	-0.484022	0.500048
C76	C	0.473051	-0.234022	0.750048
C77	C	-0.228429	-0.908953	0.000039
C78	C	0.021571	-0.658953	0.250039
C79	C	0.271571	-0.408953	0.500039
C80	C	0.521571	-0.158953	0.750039
C81	C	-0.149485	-0.910341	0.000041
C82	C	0.100515	-0.660341	0.250041
C83	C	0.350515	-0.410341	0.500041
C84	C	0.600515	-0.160341	0.750041
C85	C	-0.546800	-0.903356	0.000031
C86	C	-0.296800	-0.653356	0.250031
C87	C	-0.046800	-0.403356	0.500031
C88	C	0.203200	-0.153356	0.750031
C89	C	-0.625750	-0.901974	0.000033
C90	C	-0.375750	-0.651974	0.250033
C91	C	-0.125750	-0.401974	0.500033
C92	C	0.124250	-0.151974	0.750033
C93	C	-0.643834	-1.053488	0.000046
C94	C	-0.393834	-0.803488	0.250046
C95	C	-0.143834	-0.553488	0.500046
C96	C	0.106166	-0.303488	0.750046
C97	C	-0.564890	-1.054876	0.000048
C98	C	-0.314890	-0.804876	0.250048
C99	C	-0.064890	-0.554876	0.500048
C100	C	0.185110	-0.304876	0.750048
C101	C	-0.516377	-0.979807	0.000034
C102	C	-0.266377	-0.729807	0.250034
C103	C	-0.016377	-0.479807	0.500034
C104	C	0.233623	-0.229807	0.750034
C105	C	-0.430776	-0.981312	0.000041
C106	C	-0.180776	-0.731312	0.250041
C107	C	0.069224	-0.481312	0.500041
C108	C	0.319224	-0.231312	0.750041
C109	C	-0.362549	-0.982517	0.000047
C110	C	-0.112549	-0.732517	0.250047
C111	C	0.137451	-0.482517	0.500047
C112	C	0.387451	-0.232517	0.750047
C113	C	0.241714	-0.975568	0.000038
C114	C	0.491714	-0.725568	0.250038
C115	C	0.741714	-0.475568	0.500038
C116	C	0.991714	-0.225568	0.750038
C117	C	0.325734	-0.977039	0.000032
C118	C	0.575734	-0.727039	0.250032
C119	C	0.825734	-0.477039	0.500032
C120	C	1.075734	-0.227039	0.750032
N121	N	0.103334	-0.981911	0.217044
N122	N	0.353334	-0.731911	0.467044
N123	N	0.603334	-0.481911	0.717044
N124	N	0.853334	-0.231911	0.967044
C125	C	0.172981	-0.515224	0.000040
C126	C	0.422981	-0.265224	0.250040
C127	C	0.672981	-0.015224	0.500040
C128	C	0.922981	0.234776	0.750040
C129	C	0.171594	-0.428506	0.000046
C130	C	0.421594	-0.178506	0.250046
C131	C	0.671594	0.071494	0.500046
C132	C	0.921594	0.321494	0.750046
C133	C	0.033688	-0.448618	0.000053
C134	C	0.283688	-0.198618	0.250053
C135	C	0.533688	0.051382	0.500053
C136	C	0.783688	0.301382	0.750053
C137	C	0.035076	-0.535334	0.000053
C138	C	0.285076	-0.285334	0.250053
C139	C	0.535076	-0.035334	0.500053
C140	C	0.785076	0.214666	0.750053
C141	C	0.104725	-0.568635	0.000042
C142	C	0.354725	-0.318635	0.250042
C143	C	0.604725	-0.068635	0.500042
C144	C	0.854725	0.181365	0.750042
C145	C	0.101949	-0.395200	0.000047
C146	C	0.351949	-0.145200	0.250047
C147	C	0.601949	0.104800	0.500047
C148	C	0.851949	0.354800	0.750047
C149	C	0.100445	-0.301177	0.000054
C150	C	0.350445	-0.051177	0.250054
C151	C	0.600445	0.198823	0.500054
C152	C	0.850445	0.448823	0.750054
C153	C	0.106230	-0.662664	0.000037
C154	C	0.356230	-0.412664	0.250037
C155	C	0.606230	-0.162664	0.500037
C156	C	0.856230	0.087336	0.750037
N157	N	0.103334	-0.981931	-0.216946
N158	N	0.353334	-0.731931	0.033054
N159	N	0.603334	-0.481931	0.283054
N160	N	0.853334	-0.231931	0.533054
C161	C	0.051884	-1.038555	0.452057
C162	C	0.301884	-0.788555	0.702057
C163	C	0.551884	-0.538555	0.952057
C164	C	0.801884	-0.288555	1.202057
C165	C	0.051882	-1.038558	0.548038
C166	C	0.301882	-0.788558	0.798038
C167	C	0.551882	-0.538558	1.048038
C168	C	0.801882	-0.288558	1.298038
C169	C	0.154787	-0.925280	0.548034
C170	C	0.404787	-0.675280	0.798034
C171	C	0.654787	-0.425280	1.048034
C172	C	0.904787	-0.175280	1.298034
C173	C	0.154785	-0.925274	0.452054
C174	C	0.404785	-0.675274	0.702054
C175	C	0.654785	-0.425274	0.952054
C176	C	0.904785	-0.175274	1.202054
C177	C	0.103334	-0.981917	0.404068
C178	C	0.353334	-0.731917	0.654068
C179	C	0.603334	-0.481917	0.904068
C180	C	0.853334	-0.231917	1.154068
C181	C	0.103334	-0.981925	0.596029
C182	C	0.353334	-0.731925	0.846029
C183	C	0.603334	-0.481925	1.096029
C184	C	0.853334	-0.231925	1.346029
C185	C	0.103333	-0.981927	0.700096
C186	C	0.353333	-0.731927	0.950096
C187	C	0.603333	-0.481927	1.200096
C188	C	0.853333	-0.231927	1.450096
C189	C	0.103334	-0.981914	0.299995
C190	C	0.353334	-0.731914	0.549995
C191	C	0.603334	-0.481914	0.799995
C192	C	0.853334	-0.231914	1.049995
H193	H	-0.142805	-1.124115	0.000075
H194	H	0.107195	-0.874115	0.250075
H195	H	0.357195	-0.624115	0.500075
H196	H	0.607195	-0.374115	0.750075
H197	H	-0.286017	-1.121597	0.000062
H198	H	-0.036017	-0.871597	0.250062
H199	H	0.213983	-0.621597	0.500062
H200	H	0.463983	-0.371597	0.750062
H201	H	0.227175	-0.385022	0.000046
H202	H	0.477175	-0.135022	0.250046
H203	H	0.727175	0.114978	0.500046
H204	H	0.977175	0.364978	0.750046
H205	H	-0.023018	-0.421494	0.000067
H206	H	0.226982	-0.171494	0.250067
H207	H	0.476982	0.078506	0.500067
H208	H	0.726982	0.328506	0.750067
H209	H	-0.540119	-1.117130	0.000058
H210	H	-0.290119	-0.867130	0.250058
H211	H	-0.040119	-0.617130	0.500058
H212	H	0.209881	-0.367130	0.750058
N213	N	0.248103	-0.551134	0.000039
N214	N	0.498103	-0.301134	0.250039
N215	N	0.748103	-0.051134	0.500039
N216	N	0.998103	0.198866	0.750039
H217	H	0.251751	-0.586665	0.056563
H218	H	0.501751	-0.336665	0.306563
H219	H	0.751751	-0.086665	0.556563
H220	H	1.001751	0.163335	0.806563
H221	H	0.251714	-0.586622	-0.056524
H222	H	0.501714	-0.336622	0.193476
H223	H	0.751714	-0.086622	0.443476
H224	H	1.001714	0.163378	0.693476
H225	H	-0.507310	-0.842230	0.000021
H226	H	-0.257310	-0.592230	0.250021
H227	H	-0.007310	-0.342230	0.500021
H228	H	0.242690	-0.092230	0.750021
H229	H	-0.020510	-0.578824	0.000058
H230	H	0.229490	-0.328824	0.250058
H231	H	0.479490	-0.078824	0.500058
H232	H	0.729490	0.171176	0.750058
H233	H	0.009988	-1.084675	0.412989
H234	H	0.259988	-0.834675	0.662989
H235	H	0.509988	-0.584675	0.912989
H236	H	0.759988	-0.334675	1.162989
H237	H	0.009985	-1.084677	0.587108
H238	H	0.259985	-0.834677	0.837108
H239	H	0.509985	-0.584677	1.087108
H240	H	0.759985	-0.334677	1.337108
H241	H	0.196679	-0.879165	0.587113
H242	H	0.446679	-0.629165	0.837113
H243	H	0.696679	-0.379165	1.087113
H244	H	0.946679	-0.129165	1.337113
H245	H	-0.683343	-1.114613	0.000052
H246	H	-0.433343	-0.864613	0.250052
H247	H	-0.183343	-0.614613	0.500052
H248	H	0.066657	-0.364613	0.750052
N249	N	0.210274	-0.864176	0.400287
N250	N	0.460274	-0.614176	0.650287
N251	N	0.710274	-0.364176	0.900287
N252	N	0.960274	-0.114176	1.150287
H253	H	0.242871	-0.828297	0.445248
H254	H	0.492871	-0.578297	0.695248
H255	H	0.742871	-0.328297	0.945248
H256	H	0.992871	-0.078297	1.195248
H257	H	0.243742	-0.895930	0.360452
H258	H	0.493742	-0.645930	0.610452
H259	H	0.743742	-0.395930	0.860452
H260	H	0.993742	-0.145930	1.110452
H261	H	-0.650523	-0.839715	0.000028
H262	H	-0.400523	-0.589715	0.250028
H263	H	-0.150523	-0.339715	0.500028
H264	H	0.099477	-0.089715	0.750028
H265	H	-0.109986	-0.849216	0.000036
H266	H	0.140014	-0.599216	0.250036
H267	H	0.390014	-0.349216	0.500036
H268	H	0.640014	-0.099216	0.750036
N269	N	-0.261245	-0.826493	0.000025
N270	N	-0.011245	-0.576493	0.250025
N271	N	0.238755	-0.326493	0.500025
N272	N	0.488755	-0.076493	0.750025
H273	H	-0.318618	-0.837003	0.000028
H274	H	-0.068618	-0.587003	0.250028
H275	H	0.181382	-0.337003	0.500028
H276	H	0.431382	-0.087003	0.750028
H277	H	-0.243499	-0.793650	0.056549
H278	H	0.006501	-0.543650	0.306549
H279	H	0.256501	-0.293650	0.556549
H280	H	0.506501	-0.043650	0.806549
