data_functionalizedCrystal
_audit_creation_method	'MofGen! by Chris Wilmer'
_symmetry_space_group_name_H-M	'P1'
_symmetry_Int_Tables_number	1
_symmetry_cell_setting	triclinic
loop_
_symmetry_equiv_pos_as_xyz
  x,y,z
_cell_length_a	10.654550
_cell_length_b	10.654550
_cell_length_c	9.730223
_cell_angle_alpha	90.001969
_cell_angle_beta	89.998978
_cell_angle_gamma	95.515070
loop_
_atom_site_label
_atom_site_type_symbol
_atom_site_fract_x
_atom_site_fract_y
_atom_site_fract_z
O1	O	-1.667841	0.176402	0.114173
O2	O	-1.302362	0.193208	0.114197
O3	O	-1.493504	0.002066	0.114190
O4	O	-1.476698	0.367544	0.114180
O5	O	-1.493489	0.002054	-0.114390
O6	O	-1.302347	0.193196	-0.114383
O7	O	-1.667825	0.176390	-0.114407
Zn8	Zn	-1.485084	0.184791	-0.150687
Zn9	Zn	-1.485104	0.184807	0.150477
O10	O	-1.476683	0.367532	-0.114400
C11	C	-1.255556	0.191968	-0.000090
C12	C	-1.116113	0.188276	-0.000080
C13	C	-1.492263	-0.044738	-0.000095
C14	C	-1.488571	-0.184181	-0.000082
C15	C	-1.714631	0.177630	-0.000117
C16	C	-1.854074	0.181322	-0.000118
N17	N	-1.485079	0.184780	-0.356223
C18	C	-1.036628	0.300818	-0.000087
C19	C	-0.905607	0.297341	-0.000111
C20	C	-0.933570	0.068772	-0.000115
C21	C	-1.064588	0.072250	-0.000101
C22	C	-1.477925	0.414336	-0.000112
C23	C	-1.481616	0.553779	-0.000116
C24	C	-1.369075	0.633265	-0.000105
C25	C	-1.372551	0.764286	-0.000083
C26	C	-1.601121	0.736323	-0.000089
C27	C	-1.597643	0.605304	-0.000101
C28	C	-1.408281	0.107921	-0.572079
C29	C	-1.408265	0.107903	-0.428196
C30	C	-1.561924	0.261671	-0.428141
C31	C	-1.561947	0.261681	-0.572022
N32	N	-1.485118	0.184808	0.356013
H33	H	-1.078574	0.395294	-0.000080
F34	F	-1.252769	0.848876	-0.000066
H35	H	-0.891602	-0.025693	-0.000140
H36	H	-1.274599	0.591318	-0.000122
H37	H	-1.345724	0.045325	-0.630668
F38	F	-0.821017	0.417124	-0.000121
H39	H	-1.345698	0.045292	-0.369655
F40	F	-1.149188	-0.047539	-0.000102
H41	H	-1.695586	0.778291	-0.000090
F42	F	-1.717432	0.520704	-0.000105
H43	H	-1.624474	0.324259	-0.369530
H44	H	-1.624523	0.324292	-0.630571
