data_functionalizedCrystal
_audit_creation_method	'MofGen! by Chris Wilmer'
_symmetry_space_group_name_H-M	'P1'
_symmetry_Int_Tables_number	1
_symmetry_cell_setting	triclinic
loop_
_symmetry_equiv_pos_as_xyz
  x,y,z
_cell_length_a	33.359672
_cell_length_b	33.359725
_cell_length_c	33.359691
_cell_angle_alpha	120.000507
_cell_angle_beta	89.999864
_cell_angle_gamma	60.000258
loop_
_atom_site_label
_atom_site_type_symbol
_atom_site_fract_x
_atom_site_fract_y
_atom_site_fract_z
O1	O	-0.341676	0.353573	0.628570
O2	O	-0.283381	0.271490	0.488194
O3	O	-0.283381	0.353572	0.570276
O4	O	-0.341676	0.271491	0.546489
O5	O	-0.216710	0.286901	0.570276
O6	O	-0.216710	0.204819	0.488194
O7	O	-0.275005	0.286902	0.628570
Zn8	Zn	-0.235272	0.235275	0.558382
Zn9	Zn	-0.323114	0.323117	0.558382
O10	O	-0.275005	0.204820	0.546489
C11	C	-0.073736	0.044923	0.191242
C12	C	-0.098083	0.068926	0.239484
C13	C	-0.146329	0.117505	0.191239
C14	C	-0.170567	0.141398	0.239481
C15	C	-0.146329	0.117503	0.263828
C16	C	-0.098083	0.068928	0.167006
C17	C	0.004723	-0.027631	0.118494
C18	C	0.054299	-0.073481	0.095490
C19	C	0.079163	-0.096477	0.120295
C20	C	0.132918	-0.146188	0.095356
C21	C	0.054456	-0.073631	0.168104
C22	C	0.004881	-0.027785	0.191106
C23	C	-0.019983	-0.004785	0.166301
C24	C	-0.146142	0.123204	0.342282
C25	C	-0.168994	0.149769	0.391855
C26	C	-0.216800	0.199431	0.416717
C27	C	-0.241579	0.228238	0.470468
C28	C	-0.241762	0.222533	0.392009
C29	C	-0.218912	0.195968	0.342438
C30	C	-0.171102	0.146306	0.317577
C31	C	-0.146141	0.123209	0.118488
C32	C	-0.168990	0.149780	0.095483
C33	C	-0.216796	0.199442	0.120286
C34	C	-0.241574	0.228251	0.095343
C35	C	-0.241756	0.222542	0.168093
C36	C	-0.218909	0.195976	0.191099
C37	C	-0.171101	0.146309	0.166295
C38	C	-0.146335	0.513488	0.587235
C39	C	-0.170572	0.489481	0.587574
C40	C	-0.073747	0.440898	0.587235
C41	C	-0.098094	0.417002	0.587574
C42	C	-0.146337	0.440899	0.587235
C43	C	-0.098092	0.489480	0.587574
C44	C	-0.146145	0.586051	0.581345
C45	C	-0.168994	0.631907	0.577627
C46	C	-0.216796	0.654906	0.575761
C47	C	-0.241572	0.704624	0.571728
C48	C	-0.241758	0.632056	0.577618
C49	C	-0.218911	0.586204	0.581338
C50	C	-0.171105	0.563202	0.583199
C51	C	-0.219090	0.435198	0.581344
C52	C	-0.242097	0.408631	0.577627
C53	C	-0.217294	0.358964	0.575761
C54	C	-0.242237	0.330154	0.571727
C55	C	-0.169484	0.335859	0.577618
C56	C	-0.146478	0.362426	0.581338
C57	C	-0.171282	0.412094	0.583199
C58	C	0.004708	0.435195	0.581344
C59	C	0.054284	0.408622	0.577620
C60	C	0.079147	0.358955	0.575755
C61	C	0.132899	0.330144	0.571721
C62	C	0.054442	0.335852	0.577609
C63	C	0.004868	0.362420	0.581331
C64	C	-0.019997	0.412091	0.583199
C65	C	-0.412041	0.044897	0.529529
C66	C	-0.460284	0.068903	0.529190
C67	C	-0.412042	0.117487	0.529529
C68	C	-0.460285	0.141382	0.529190
C69	C	-0.484631	0.117485	0.529529
C70	C	-0.387806	0.068905	0.529190
C71	C	-0.339288	-0.027666	0.535420
C72	C	-0.316281	-0.073522	0.539138
C73	C	-0.341084	-0.096521	0.541003
C74	C	-0.316141	-0.146239	0.545037
C75	C	-0.388894	-0.073672	0.539146
C76	C	-0.411900	-0.027820	0.535426
C77	C	-0.387096	-0.004817	0.533565
C78	C	-0.563084	0.123185	0.535420
C79	C	-0.612658	0.149751	0.539137
C80	C	-0.637523	0.199418	0.541003
C81	C	-0.691275	0.228228	0.545036
C82	C	-0.612817	0.222523	0.539146
C83	C	-0.563245	0.195957	0.535426
C84	C	-0.538381	0.146290	0.533565
C85	C	-0.339291	0.123191	0.535420
C86	C	-0.316287	0.149763	0.539144
C87	C	-0.341092	0.199431	0.541009
C88	C	-0.316151	0.228242	0.545043
C89	C	-0.388900	0.222534	0.539155
C90	C	-0.411906	0.195965	0.535432
C91	C	-0.387099	0.146294	0.533565
O92	O	0.291000	0.271480	0.546488
O93	O	0.150625	0.353565	0.570275
O94	O	0.232706	0.271481	0.488193
O95	O	0.208919	0.353564	0.628570
O96	O	0.232703	0.204812	0.488193
O97	O	0.150622	0.286896	0.570275
O98	O	0.290997	0.204810	0.546488
Zn99	Zn	0.220809	0.235268	0.558382
Zn100	Zn	0.220813	0.323108	0.558382
O101	O	0.208916	0.286894	0.628570
O102	O	-0.275007	0.286912	-0.004095
O103	O	-0.216705	0.204832	0.054198
O104	O	-0.216720	0.286925	0.054206
O105	O	-0.274993	0.204820	-0.004103
O106	O	-0.283395	0.353587	0.120875
O107	O	-0.283380	0.271495	0.120867
O108	O	-0.341682	0.353575	0.062573
Zn109	Zn	-0.323118	0.323119	0.102305
Zn110	Zn	-0.235270	0.235288	0.014467
O111	O	-0.341668	0.271483	0.062565
O112	O	-0.341668	0.837486	0.546489
O113	O	-0.283373	0.720898	0.570276
O114	O	-0.283373	0.720897	0.488194
O115	O	-0.341668	0.837487	0.628571
O116	O	-0.216702	0.720897	0.488194
O117	O	-0.216702	0.720899	0.570276
O118	O	-0.274997	0.837487	0.546489
Zn119	Zn	-0.235264	0.779193	0.558382
Zn120	Zn	-0.323106	0.779192	0.558383
O121	O	-0.274997	0.837488	0.628571
C122	C	-0.412048	0.440906	0.852943
C123	C	-0.460291	0.489488	0.877289
C124	C	-0.412049	0.440907	0.925533
C125	C	-0.460292	0.489489	0.949769
C126	C	-0.484638	0.513496	0.925533
C127	C	-0.387813	0.417009	0.877289
C128	C	-0.339295	0.362262	0.774488
C129	C	-0.316288	0.335537	0.724913
C130	C	-0.341092	0.358475	0.700050
C131	C	-0.316150	0.329499	0.646297
C132	C	-0.388903	0.408143	0.724756
C133	C	-0.411908	0.434868	0.774329
C134	C	-0.387104	0.411925	0.799192
C135	C	-0.563092	0.586059	0.925344
C136	C	-0.612666	0.631916	0.948194
C137	C	-0.637530	0.654915	0.995997
C138	C	-0.691282	0.704633	1.020773
C139	C	-0.612824	0.632066	1.020958
C140	C	-0.563252	0.586213	0.998110
C141	C	-0.538388	0.563210	0.950303
C142	C	-0.339297	0.362264	0.925344
C143	C	-0.316293	0.335536	0.948192
C144	C	-0.341097	0.358475	0.995994
C145	C	-0.316156	0.329500	1.020771
C146	C	-0.388906	0.408139	1.020953
C147	C	-0.411912	0.434867	0.998108
C148	C	-0.387105	0.411927	0.950303
C149	C	0.249668	0.117475	0.191231
C150	C	0.250007	0.141373	0.239474
C151	C	0.249664	0.044889	0.191232
C152	C	0.250003	0.068896	0.239475
C153	C	0.249665	0.117478	0.263821
C154	C	0.250005	0.068894	0.166995
C155	C	0.243780	0.123175	0.118477
C156	C	0.240064	0.149741	0.095469
C157	C	0.238200	0.199408	0.120273
C158	C	0.234168	0.228216	0.095330
C159	C	0.240056	0.222513	0.168084
C160	C	0.243775	0.195946	0.191089
C161	C	0.245634	0.146280	0.166286
C162	C	0.243776	0.196121	0.342275
C163	C	0.240058	0.222846	0.391850
C164	C	0.238191	0.199909	0.416714
C165	C	0.234157	0.228886	0.470467
C166	C	0.240046	0.150242	0.392008
C167	C	0.243766	0.123517	0.342436
C168	C	0.245629	0.146458	0.317571
C169	C	0.243772	-0.027675	0.118480
C170	C	0.240046	-0.073526	0.095475
C171	C	0.238179	-0.096523	0.120280
C172	C	0.234144	-0.146240	0.095339
C173	C	0.240034	-0.073672	0.168089
C174	C	0.243757	-0.027821	0.191095
C175	C	0.245627	-0.004824	0.166288
O176	O	0.291025	-0.279031	0.062598
O177	O	0.150645	-0.162461	0.120883
O178	O	0.232716	-0.162442	0.120894
O179	O	0.208953	-0.279051	0.062587
O180	O	0.232717	-0.162441	0.054224
O181	O	0.150646	-0.162460	0.054213
O182	O	0.291025	-0.279030	-0.004073
Zn183	Zn	0.220836	-0.220745	0.014484
Zn184	Zn	0.220835	-0.220747	0.102326
O185	O	0.208954	-0.279050	-0.004084
C186	C	0.191977	0.440879	0.925526
C187	C	0.191653	0.489452	0.949758
C188	C	0.191982	0.440878	0.852936
C189	C	0.191658	0.489451	0.877279
C190	C	0.192002	0.513453	0.925520
C191	C	0.191632	0.416987	0.877284
C192	C	0.197841	0.362251	0.925342
C193	C	0.201549	0.335531	0.948193
C194	C	0.203419	0.358464	0.995994
C195	C	0.207442	0.329494	1.020772
C196	C	0.201578	0.408122	1.020951
C197	C	0.197868	0.434842	0.998102
C198	C	0.196002	0.411904	0.950297
C199	C	0.197914	0.586000	0.998267
C200	C	0.201648	0.631845	1.021270
C201	C	0.203523	0.654838	0.996463
C202	C	0.207573	0.704544	1.021401
C203	C	0.201661	0.631993	0.948654
C204	C	0.197926	0.586152	0.925654
C205	C	0.196055	0.563155	0.950460
C206	C	0.197851	0.362248	0.774486
C207	C	0.201570	0.335523	0.724911
C208	C	0.203446	0.358456	0.700045
C209	C	0.207474	0.329484	0.646294
C210	C	0.201606	0.408110	0.724746
C211	C	0.197889	0.434835	0.774319
C212	C	0.196012	0.411902	0.799187
C213	C	-0.146386	0.513535	0.263877
C214	C	-0.098143	0.489535	0.239536
C215	C	-0.146376	0.440943	0.191279
C216	C	-0.098133	0.417053	0.167048
C217	C	-0.073792	0.440955	0.191292
C218	C	-0.170617	0.489523	0.239524
C219	C	-0.219143	0.586089	0.342328
C220	C	-0.242155	0.631943	0.391904
C221	C	-0.217356	0.654946	0.416774
C222	C	-0.242303	0.704661	0.470527
C223	C	-0.169546	0.632103	0.392073
C224	C	-0.146537	0.586253	0.342499
C225	C	-0.171335	0.563246	0.317629
C226	C	0.004656	0.435265	0.191492
C227	C	0.054230	0.408704	0.168648
C228	C	0.079099	0.359038	0.120844
C229	C	0.132850	0.330235	0.096073
C230	C	0.054397	0.335930	0.095876
C231	C	0.004826	0.362491	0.118718
C232	C	-0.020043	0.412156	0.166527
C233	C	-0.219122	0.435229	0.191455
C234	C	-0.242121	0.408652	0.168600
C235	C	-0.217312	0.358987	0.120795
C236	C	-0.242248	0.330171	0.096011
C237	C	-0.169504	0.335890	0.095842
C238	C	-0.146503	0.362462	0.118695
C239	C	-0.171314	0.412132	0.166501
O240	O	0.208910	0.353560	0.062568
O241	O	0.232706	0.271476	0.120861
O242	O	0.150621	0.353541	0.120849
O243	O	0.290995	0.271496	0.062580
O244	O	0.150643	0.286856	0.054169
O245	O	0.232728	0.204791	0.054181
O246	O	0.208931	0.286875	-0.004111
Zn247	Zn	0.220833	0.235245	0.014448
Zn248	Zn	0.220805	0.323106	0.102302
O249	O	0.291017	0.204810	-0.004100
C250	C	-0.484595	0.117453	-0.074520
C251	C	-0.460244	0.068873	-0.122765
C252	C	-0.412012	0.117464	-0.074508
C253	C	-0.387771	0.068884	-0.122753
C254	C	-0.412002	0.044873	-0.147106
C255	C	-0.460254	0.141354	-0.050277
C256	C	-0.563054	0.196086	-0.001770
C257	C	-0.612628	0.222804	0.021231
C258	C	-0.637486	0.199860	-0.003580
C259	C	-0.691238	0.228829	0.021357
C260	C	-0.612775	0.150195	-0.051392
C261	C	-0.563203	0.123477	-0.074392
C262	C	-0.538345	0.146425	-0.049581
C263	C	-0.412180	-0.027693	-0.225569
C264	C	-0.389325	-0.073547	-0.275144
C265	C	-0.341524	-0.096538	-0.300003
C266	C	-0.316742	-0.146253	-0.353756
C267	C	-0.316568	-0.073683	-0.275289
C268	C	-0.339420	-0.027834	-0.225715
C269	C	-0.387226	-0.004839	-0.200857
C270	C	-0.412211	0.196110	-0.001745
C271	C	-0.389369	0.222844	0.021267
C272	C	-0.341567	0.199912	-0.003532
C273	C	-0.316796	0.228893	0.021418
C274	C	-0.316603	0.150251	-0.051343
C275	C	-0.339444	0.123518	-0.074357
C276	C	-0.387247	0.146449	-0.049556
H277	H	-0.210208	0.180485	0.259023
C278	C	-0.416189	0.433374	0.697402
C279	C	-0.394817	0.451730	0.674500
C280	C	-0.422106	0.476964	0.647150
C281	C	-0.470767	0.483843	0.642702
C282	C	-0.492142	0.465487	0.665604
C283	C	-0.464853	0.440253	0.692955
H284	H	-0.358793	0.446638	0.677793
H285	H	-0.406282	0.490552	0.630196
H286	H	-0.490968	0.502523	0.622455
H287	H	-0.528166	0.470579	0.662312
H288	H	-0.480677	0.426665	0.709909
H289	H	0.074692	0.295399	0.576078
C290	C	-0.639840	0.657046	0.920736
C291	C	-0.621754	0.681762	0.903117
C292	C	-0.648932	0.706897	0.875663
C293	C	-0.694196	0.707315	0.865828
C294	C	-0.712284	0.682598	0.883447
C295	C	-0.685106	0.657464	0.910902
H296	H	-0.588245	0.681453	0.910397
H297	H	-0.635542	0.725194	0.862620
H298	H	-0.714315	0.725921	0.845505
H299	H	-0.745793	0.682907	0.876167
H300	H	-0.698496	0.639167	0.923944
H301	H	0.191106	0.509542	0.989397
C302	C	0.238012	-0.098668	0.042885
C303	C	0.277743	-0.161261	0.001548
C304	C	0.275707	-0.186406	-0.051044
C305	C	0.233941	-0.148957	-0.062299
C306	C	0.194208	-0.086360	-0.020960
C307	C	0.196243	-0.061215	0.031632
H308	H	0.308663	-0.188986	0.009878
H309	H	0.305121	-0.232744	-0.081646
H310	H	0.232434	-0.167571	-0.101230
H311	H	0.163287	-0.058635	-0.029291
H312	H	0.166830	-0.014877	0.062233
C313	C	-0.416195	0.433378	1.073541
C314	C	-0.394822	0.451738	1.114796
C315	C	-0.422109	0.476977	1.167384
C316	C	-0.470769	0.483856	1.178717
C317	C	-0.492145	0.465496	1.137460
C318	C	-0.464859	0.440257	1.084872
H319	H	-0.358798	0.446646	1.106408
H320	H	-0.406284	0.490568	1.197925
H321	H	-0.490969	0.502540	1.217645
H322	H	-0.528169	0.470588	1.145848
H323	H	-0.480683	0.426666	1.054332
C324	C	-0.263982	-0.098975	-0.302636
C325	C	-0.252658	-0.061635	-0.307077
C326	C	-0.200073	-0.086925	-0.334420
C327	C	-0.158812	-0.149554	-0.357324
C328	C	-0.170136	-0.186898	-0.352884
C329	C	-0.222721	-0.161608	-0.325541
H330	H	-0.283202	-0.015270	-0.290121
H331	H	-0.191690	-0.059280	-0.337706
H332	H	-0.119885	-0.168275	-0.377565
H333	H	-0.139591	-0.233263	-0.369840
H334	H	-0.231103	-0.189253	-0.322255
H335	H	-0.348133	0.048801	-0.142293
C336	C	-0.464764	-0.002404	-0.198223
C337	C	-0.476089	-0.039739	-0.193774
C338	C	-0.528674	-0.014448	-0.166430
C339	C	-0.569935	0.048179	-0.143535
C340	C	-0.558612	0.085518	-0.147983
C341	C	-0.506026	0.060227	-0.175327
H342	H	-0.445544	-0.086103	-0.210723
H343	H	-0.537057	-0.042089	-0.163137
H344	H	-0.608863	0.066902	-0.123293
H345	H	-0.589157	0.131882	-0.131034
H346	H	-0.497644	0.087868	-0.178620
H347	H	-0.479831	0.180476	0.528645
H348	H	-0.078536	0.048829	0.259027
H349	H	-0.078534	0.048834	0.127367
C350	C	-0.294351	0.277167	0.419360
C351	C	-0.336762	0.276774	0.401403
C352	C	-0.389351	0.331406	0.428750
C353	C	-0.399530	0.386432	0.474055
C354	C	-0.357118	0.386827	0.492015
C355	C	-0.304529	0.332194	0.464668
H356	H	-0.329228	0.236039	0.367863
H357	H	-0.420747	0.331114	0.415454
H358	H	-0.438460	0.426874	0.494299
H359	H	-0.364652	0.427561	0.525555
H360	H	-0.273133	0.332487	0.477963
H361	H	-0.239329	0.475674	0.230380
C362	C	-0.312006	0.068553	0.533368
C363	C	-0.333383	0.067033	0.573100
C364	C	-0.306100	0.012399	0.571053
C365	C	-0.257439	-0.040716	0.529273
C366	C	-0.236059	-0.039199	0.489537
C367	C	-0.263342	0.015436	0.491584
H368	H	-0.369408	0.106354	0.604031
H369	H	-0.321928	0.011276	0.600468
H370	H	-0.237243	-0.081160	0.527757
H371	H	-0.200035	-0.078520	0.458606
H372	H	-0.247514	0.016559	0.462169
C373	C	0.203590	0.280908	0.697743
C374	C	0.163853	0.279311	0.674888
C375	C	0.165876	0.224691	0.647718
C376	C	0.207635	0.171669	0.643404
C377	C	0.247375	0.173265	0.666260
C378	C	0.245352	0.227884	0.693429
H379	H	0.132938	0.318562	0.678082
H380	H	0.136458	0.223511	0.630799
H381	H	0.209133	0.131237	0.623291
H382	H	0.278291	0.134013	0.663066
H383	H	0.274771	0.229065	0.710349
H384	H	0.074336	0.427526	0.188981
H385	H	-0.319094	0.343579	0.794731
C386	C	0.245828	-0.002380	0.091190
C387	C	0.287610	-0.039713	0.042528
C388	C	0.289661	-0.014416	0.015239
C389	C	0.249931	0.048213	0.036612
C390	C	0.208147	0.085550	0.085277
C391	C	0.206095	0.060253	0.112566
H392	H	0.317023	-0.086078	0.026704
H393	H	0.320593	-0.042055	-0.020786
H394	H	0.251450	0.066940	0.016411
H395	H	0.178734	0.131915	0.101100
H396	H	0.175163	0.087892	0.148590
H397	H	-0.319094	0.343584	0.886420
H398	H	-0.078605	0.509636	0.259089
H399	H	-0.409649	-0.092151	-0.295260
C400	C	0.238021	0.124330	0.042882
C401	C	0.196242	0.117417	0.031635
C402	C	0.194203	0.092005	-0.020956
C403	C	0.233943	0.073508	-0.062300
C404	C	0.275725	0.080421	-0.051054
C405	C	0.277764	0.105832	0.001537
H406	H	0.166821	0.131110	0.062241
H407	H	0.163273	0.086888	-0.029280
H408	H	0.232434	0.054697	-0.101230
H409	H	0.305146	0.066728	-0.081660
H410	H	0.308695	0.110950	0.009862
H411	H	-0.543083	0.083038	-0.113320
C412	C	-0.486694	0.041765	0.528455
C413	C	-0.494311	0.036220	0.570488
C414	C	-0.520722	0.009086	0.569754
C415	C	-0.539517	-0.012503	0.526986
C416	C	-0.531901	-0.006959	0.484949
C417	C	-0.505489	0.020175	0.485683
H418	H	-0.480397	0.052202	0.602151
H419	H	-0.526360	0.004982	0.600873
H420	H	-0.559068	-0.032589	0.526442
H421	H	-0.545814	-0.022941	0.453286
H422	H	-0.499851	0.024279	0.454564
C423	C	-0.464500	0.489498	1.025561
C424	C	-0.475745	0.542519	1.074258
C425	C	-0.528334	0.597151	1.101712
C426	C	-0.569679	0.598762	1.080469
C427	C	-0.558436	0.545739	1.031770
C428	C	-0.505846	0.491107	1.004316
H429	H	-0.445138	0.541329	1.089986
H430	H	-0.536656	0.636402	1.137763
H431	H	-0.608608	0.639204	1.100793
H432	H	-0.589043	0.546930	1.016042
H433	H	-0.497524	0.451856	0.968265
C434	C	-0.263694	-0.098652	0.541183
C435	C	-0.221359	-0.123368	0.498382
C436	C	-0.168771	-0.148503	0.500425
C437	C	-0.158517	-0.148923	0.545269
C438	C	-0.200853	-0.124207	0.588074
C439	C	-0.253442	-0.099072	0.586031
H440	H	-0.228949	-0.123057	0.465182
H441	H	-0.137431	-0.166800	0.468738
H442	H	-0.119587	-0.167530	0.546782
H443	H	-0.193264	-0.124517	0.621274
H444	H	-0.284782	-0.080775	0.617718
H445	H	-0.148663	0.130966	0.056558
H446	H	-0.348167	0.048810	0.528643
C447	C	-0.416181	-0.098972	0.541201
C448	C	-0.425899	-0.099421	0.586054
C449	C	-0.453188	-0.124717	0.588108
C450	C	-0.470757	-0.149565	0.545310
C451	C	-0.461039	-0.149117	0.500454
C452	C	-0.433750	-0.123821	0.498400
H453	H	-0.412893	-0.081026	0.617738
H454	H	-0.460382	-0.125049	0.621313
H455	H	-0.490958	-0.168292	0.546831
H456	H	-0.474045	-0.167512	0.468770
H457	H	-0.426556	-0.123489	0.465195
C458	C	0.195863	0.489456	0.801494
C459	C	0.235605	0.491050	0.824341
C460	C	0.233579	0.545671	0.851515
C461	C	0.191812	0.598698	0.855842
C462	C	0.152068	0.597106	0.832993
C463	C	0.154093	0.542485	0.805819
H464	H	0.266526	0.451795	0.821139
H465	H	0.263001	0.546850	0.868429
H466	H	0.190313	0.639132	0.875958
H467	H	0.121146	0.636361	0.836195
H468	H	0.124672	0.541306	0.788905
C469	C	0.081756	0.281292	0.043288
C470	C	0.104657	0.279772	0.002037
C471	C	0.132013	0.225136	-0.050551
C472	C	0.136467	0.172020	-0.061888
C473	C	0.113565	0.173538	-0.020636
C474	C	0.086210	0.228174	0.031952
H475	H	0.101361	0.319093	0.010428
H476	H	0.148966	0.224012	-0.081089
H477	H	0.156717	0.131575	-0.100817
H478	H	0.116862	0.134217	-0.029027
H479	H	0.069256	0.229298	0.062489
C480	C	-0.141535	0.124358	0.419030
C481	C	-0.123905	0.063933	0.400942
C482	C	-0.096449	0.038526	0.428121
C483	C	-0.086621	0.073543	0.473388
C484	C	-0.104250	0.133971	0.491479
C485	C	-0.131707	0.159378	0.464300
H486	H	-0.131180	0.038008	0.367431
H487	H	-0.083398	-0.006207	0.414729
H488	H	-0.066296	0.054735	0.493508
H489	H	-0.096976	0.159896	0.524990
H490	H	-0.144757	0.204111	0.477691
H491	H	-0.319115	0.083082	-0.113286
C492	C	-0.311975	-0.002692	-0.198527
C493	C	-0.263278	-0.040142	-0.194202
C494	C	-0.235834	-0.014999	-0.167011
C495	C	-0.257086	0.047594	-0.144145
C496	C	-0.305785	0.085047	-0.148470
C497	C	-0.333230	0.059904	-0.175660
H498	H	-0.247544	-0.086480	-0.211129
H499	H	-0.199783	-0.042725	-0.163810
H500	H	-0.236770	0.066206	-0.124017
H501	H	-0.321520	0.131386	-0.131543
H502	H	-0.369281	0.087630	-0.178861
C503	C	-0.141537	0.657037	0.575583
C504	C	-0.131700	0.657458	0.530740
C505	C	-0.104244	0.682592	0.528700
C506	C	-0.086625	0.707305	0.571503
C507	C	-0.096461	0.706884	0.616350
C508	C	-0.123917	0.681750	0.618390
H509	H	-0.144743	0.639163	0.499052
H510	H	-0.096962	0.682903	0.495502
H511	H	-0.066300	0.725910	0.569993
H512	H	-0.083418	0.725179	0.648038
H513	H	-0.131199	0.681439	0.651588
C514	C	0.195787	0.337021	0.801840
C515	C	0.238576	0.276648	0.783883
C516	C	0.236517	0.251417	0.811235
C517	C	0.191669	0.286560	0.856544
C518	C	0.148876	0.346937	0.874503
C519	C	0.150935	0.372167	0.847151
H520	H	0.271779	0.250630	0.750341
H521	H	0.268195	0.206722	0.797941
H522	H	0.190144	0.267882	0.876792
H523	H	0.115674	0.372954	0.908045
H524	H	0.119257	0.416863	0.860445
C525	C	-0.486660	0.194163	0.003274
C526	C	-0.505460	0.191780	0.043656
C527	C	-0.531862	0.244587	0.097204
C528	C	-0.539463	0.299777	0.110369
C529	C	-0.520662	0.302162	0.069986
C530	C	-0.494261	0.249355	0.016438
H531	H	-0.499833	0.150924	0.033911
H532	H	-0.545779	0.242821	0.127098
H533	H	-0.559007	0.338867	0.150009
H534	H	-0.526289	0.343018	0.079731
H535	H	-0.480343	0.251120	-0.013456
H536	H	-0.239234	0.214787	0.230026
C537	C	-0.264017	0.125022	-0.078626
C538	C	-0.222764	0.106665	-0.057250
C539	C	-0.170178	0.081435	-0.084531
C540	C	-0.158845	0.074563	-0.133188
C541	C	-0.200099	0.092921	-0.154566
C542	C	-0.252685	0.118150	-0.127286
H543	H	-0.231152	0.111751	-0.021229
H544	H	-0.139639	0.067846	-0.068704
H545	H	-0.119917	0.055887	-0.153382
H546	H	-0.191711	0.087834	-0.190587
H547	H	-0.283224	0.131739	-0.143112
C548	C	-0.464497	0.489498	0.801510
C549	C	-0.475746	0.542521	0.805836
C550	C	-0.528336	0.597152	0.833019
C551	C	-0.569676	0.598760	0.855876
C552	C	-0.558428	0.545734	0.851552
C553	C	-0.505838	0.491104	0.824369
H554	H	-0.445142	0.541333	0.788915
H555	H	-0.536663	0.636405	0.836220
H556	H	-0.608607	0.639200	0.875999
H557	H	-0.589032	0.546923	0.868473
H558	H	-0.497512	0.451851	0.821167
H559	H	-0.542816	0.214772	0.018436
H560	H	0.250547	0.180470	0.259021
C561	C	-0.263702	0.280905	0.697737
C562	C	-0.252459	0.227882	0.693408
C563	C	-0.199870	0.173250	0.666229
C564	C	-0.158524	0.171641	0.643380
C565	C	-0.169765	0.224665	0.647708
C566	C	-0.222354	0.279297	0.674887
H567	H	-0.283067	0.229072	0.710323
H568	H	-0.191549	0.133998	0.663025
H569	H	-0.119594	0.131199	0.623261
H570	H	-0.139157	0.223475	0.630793
H571	H	-0.230676	0.318549	0.678091
H572	H	-0.543129	0.214767	0.533909
C573	C	0.238003	0.277152	0.195370
C574	C	0.280801	0.276770	0.212940
C575	C	0.278749	0.331408	0.240229
C576	C	0.233898	0.386429	0.249948
C577	C	0.191097	0.386814	0.232377
C578	C	0.193149	0.332175	0.205089
H579	H	0.314005	0.236038	0.205746
H580	H	0.310434	0.331123	0.253236
H581	H	0.232379	0.426876	0.270148
H582	H	0.157893	0.427545	0.239572
H583	H	0.161465	0.332460	0.192082
C584	C	-0.093552	0.068577	0.091203
C585	C	-0.082211	0.015460	0.042539
C586	C	-0.029621	-0.039169	0.015255
C587	C	0.011629	-0.040683	0.036635
C588	C	0.000289	0.012436	0.085302
C589	C	-0.052301	0.067065	0.112586
H590	H	-0.112748	0.016579	0.026710
H591	H	-0.021226	-0.078491	-0.020772
H592	H	0.050560	-0.081123	0.016438
H593	H	0.030826	0.011317	0.101131
H594	H	-0.060696	0.106387	0.148613
C595	C	-0.640171	0.277163	0.541200
C596	C	-0.622219	0.276780	0.498401
C597	C	-0.649569	0.331418	0.500453
C598	C	-0.694871	0.386439	0.545304
C599	C	-0.712826	0.386824	0.588107
C600	C	-0.685475	0.332186	0.586054
H601	H	-0.588681	0.236048	0.465196
H602	H	-0.636278	0.331132	0.468768
H603	H	-0.715118	0.426885	0.546824
H604	H	-0.746363	0.427556	0.621311
H605	H	-0.698766	0.332472	0.617739
C606	C	0.081476	-0.098608	0.042905
C607	C	0.085799	-0.061152	0.031666
C608	C	0.112978	-0.086284	-0.020922
C609	C	0.135835	-0.148872	-0.062270
C610	C	0.131513	-0.186332	-0.051032
C611	C	0.104334	-0.161200	0.001556
H612	H	0.068878	-0.014817	0.062275
H613	H	0.116177	-0.058553	-0.029241
H614	H	0.155955	-0.167476	-0.101199
H615	H	0.148434	-0.232667	-0.081641
H616	H	0.101135	-0.188931	0.009875
C617	C	-0.640123	0.124958	-0.078687
C618	C	-0.685423	0.160090	-0.088407
C619	C	-0.712768	0.134850	-0.115703
C620	C	-0.694811	0.074478	-0.133280
C621	C	-0.649508	0.039343	-0.123560
C622	C	-0.622164	0.064583	-0.096264
H623	H	-0.698718	0.204783	-0.075395
H624	H	-0.746305	0.160859	-0.122898
H625	H	-0.715053	0.055794	-0.153486
H626	H	-0.636213	-0.005350	-0.136572
H627	H	-0.588627	0.038574	-0.089069
H628	H	-0.015521	-0.008909	0.098292
H629	H	0.196408	0.567554	0.886728
H630	H	-0.542849	0.567335	0.886418
H631	H	-0.078583	0.377959	0.127410
H632	H	-0.409100	0.262981	0.540677
C633	C	0.203639	0.433349	1.073535
C634	C	0.248487	0.398205	1.083700
C635	C	0.250547	0.423434	1.136283
C636	C	0.207759	0.483808	1.178702
C637	C	0.162907	0.518955	1.168539
C638	C	0.160847	0.493726	1.115955
H639	H	0.280164	0.353509	1.052298
H640	H	0.283749	0.397415	1.143806
H641	H	0.209283	0.502484	1.217627
H642	H	0.131229	0.563650	1.199941
H643	H	0.127644	0.519745	1.108432
H644	H	-0.633076	0.650799	1.059884
H645	H	-0.277366	0.295100	0.927866
H646	H	0.074708	-0.092362	0.188298
C647	C	0.250740	0.041759	0.265886
C648	C	0.293503	-0.019805	0.244708
C649	C	0.294240	-0.046940	0.271120
C650	C	0.252214	-0.012509	0.318710
C651	C	0.209447	0.049059	0.339890
C652	C	0.208710	0.076193	0.313478
H653	H	0.324616	-0.045296	0.209478
H654	H	0.325898	-0.092517	0.255441
H655	H	0.252759	-0.032596	0.338261
H656	H	0.178334	0.074549	0.375121
H657	H	0.177052	0.121770	0.329157
C658	C	0.245817	0.221355	0.243678
C659	C	0.287592	0.228277	0.254926
C660	C	0.289633	0.253685	0.307516
C661	C	0.249899	0.272171	0.348858
C662	C	0.208121	0.265249	0.337611
C663	C	0.206080	0.239841	0.285022
H664	H	0.317008	0.214592	0.224321
H665	H	0.320560	0.258808	0.315841
H666	H	0.251411	0.290979	0.387788
H667	H	0.178705	0.278934	0.368216
H668	H	0.175153	0.234718	0.276696
C669	C	-0.464495	0.221375	0.533391
C670	C	-0.506830	0.281795	0.576196
C671	C	-0.559420	0.307206	0.574155
C672	C	-0.569674	0.272198	0.529310
C673	C	-0.527339	0.211776	0.486501
C674	C	-0.474749	0.186364	0.488542
H675	H	-0.499240	0.307712	0.609397
H676	H	-0.590759	0.351935	0.605845
H677	H	-0.608605	0.291009	0.527799
H678	H	-0.534929	0.185858	0.453301
H679	H	-0.443409	0.141635	0.456852
C680	C	-0.022355	0.337081	0.091269
C681	C	-0.026686	0.330158	0.042573
C682	C	-0.053870	0.304750	0.015129
C683	C	-0.076723	0.286266	0.036382
C684	C	-0.072393	0.293189	0.085081
C685	C	-0.045209	0.318596	0.112525
H686	H	-0.009768	0.343841	0.026838
H687	H	-0.057075	0.299626	-0.020921
H688	H	-0.096846	0.267458	0.016066
H689	H	-0.089311	0.279505	0.100816
H690	H	-0.042003	0.323721	0.148575
H691	H	-0.543137	0.567611	1.018434
H692	H	-0.107610	0.567657	0.322388
H693	H	-0.015536	0.475641	0.582867
C694	C	0.238017	0.277477	0.419023
C695	C	0.280820	0.277008	0.400937
C696	C	0.278778	0.331639	0.428115
C697	C	0.233933	0.386739	0.473379
C698	C	0.191127	0.387211	0.491468
C699	C	0.193168	0.332579	0.464290
H700	H	0.314020	0.236217	0.367428
H701	H	0.310467	0.331290	0.414725
H702	H	0.232422	0.427181	0.493498
H703	H	0.157927	0.428001	0.524977
H704	H	0.161480	0.332928	0.477680
C705	C	0.237990	0.125011	0.419362
C706	C	0.277719	0.106655	0.442264
C707	C	0.275664	0.081421	0.469614
C708	C	0.233881	0.074543	0.474064
C709	C	0.194150	0.092900	0.451162
C710	C	0.196205	0.118134	0.423811
H711	H	0.308651	0.111747	0.438971
H712	H	0.305076	0.067833	0.486568
H713	H	0.232360	0.055863	0.494310
H714	H	0.163217	0.087809	0.454455
H715	H	0.166793	0.131723	0.406858
H716	H	-0.078545	0.509570	0.588114
H717	H	0.196319	0.343571	0.886418
C718	C	0.237979	-0.098968	0.195380
C719	C	0.277710	-0.161597	0.174007
C720	C	0.275658	-0.186895	0.201294
C721	C	0.233876	-0.149564	0.249955
C722	C	0.194142	-0.086931	0.271331
C723	C	0.196194	-0.061633	0.244043
H724	H	0.308643	-0.189235	0.137983
H725	H	0.305072	-0.233260	0.185470
H726	H	0.232357	-0.168291	0.270155
H727	H	0.163209	-0.059293	0.307354
H728	H	0.166780	-0.015267	0.259867
H729	H	-0.281048	0.427464	0.188921
C730	C	0.195847	0.489460	1.025546
C731	C	0.238664	0.488967	1.043146
C732	C	0.236646	0.543584	1.070588
C733	C	0.191811	0.598693	1.080430
C734	C	0.148990	0.599188	1.062830
C735	C	0.151008	0.544571	1.035388
H736	H	0.271857	0.448170	1.035861
H737	H	0.268345	0.543217	1.083617
H738	H	0.190317	0.639123	1.100744
H739	H	0.115798	0.639985	1.070116
H740	H	0.119310	0.544938	1.022360
C741	C	-0.246424	0.560786	0.314968
C742	C	-0.225046	0.498155	0.292070
C743	C	-0.252326	0.472848	0.264711
C744	C	-0.300982	0.510172	0.260250
C745	C	-0.322362	0.572806	0.283149
C746	C	-0.295083	0.598113	0.310508
H747	H	-0.189026	0.470523	0.295371
H748	H	-0.236498	0.426482	0.247760
H749	H	-0.321176	0.491438	0.239997
H750	H	-0.358383	0.600438	0.279847
H751	H	-0.310910	0.644479	0.327459
H752	H	0.203158	0.426768	0.704490
H753	H	-0.479836	0.509577	0.857740
H754	H	-0.319087	-0.008941	0.533901
C755	C	-0.416828	0.277467	0.073858
C756	C	-0.434432	0.276981	0.116186
C757	C	-0.461893	0.331608	0.168779
C758	C	-0.471750	0.386720	0.179044
C759	C	-0.454146	0.387207	0.136715
C760	C	-0.426685	0.332580	0.084122
H761	H	-0.427136	0.236183	0.108589
H762	H	-0.474925	0.331247	0.200114
H763	H	-0.492078	0.427157	0.217976
H764	H	-0.461442	0.428006	0.144312
H765	H	-0.413653	0.332941	0.052787
C766	C	-0.022302	-0.002641	0.243696
C767	C	-0.004226	0.022097	0.286033
C768	C	-0.031410	0.047247	0.338625
C769	C	-0.076670	0.047660	0.348882
C770	C	-0.094748	0.022922	0.306544
C771	C	-0.067564	-0.002228	0.253951
H772	H	0.029280	0.021792	0.278441
H773	H	-0.018027	0.065560	0.369966
H774	H	-0.096793	0.066278	0.387814
H775	H	-0.128254	0.023227	0.314135
H776	H	-0.080947	-0.020541	0.222610
H777	H	-0.239236	0.567603	0.582851
C778	C	-0.294741	0.657068	0.419074
C779	C	-0.305982	0.619613	0.423396
C780	C	-0.358572	0.644743	0.450568
C781	C	-0.399920	0.707329	0.473419
C782	C	-0.388680	0.744788	0.469098
C783	C	-0.336091	0.719658	0.441925
H784	H	-0.275373	0.573280	0.406480
H785	H	-0.366892	0.617013	0.453767
H786	H	-0.438850	0.725932	0.493534
H787	H	-0.419289	0.791122	0.486014
H788	H	-0.327770	0.747388	0.438727
C789	C	-0.639832	0.124336	0.541181
C790	C	-0.685096	0.159346	0.586026
C791	C	-0.712273	0.133935	0.588070
C792	C	-0.694187	0.073514	0.545268
C793	C	-0.648921	0.038500	0.500419
C794	C	-0.621743	0.063911	0.498376
H795	H	-0.698486	0.204077	0.617714
H796	H	-0.745782	0.159855	0.621270
H797	H	-0.714306	0.054703	0.546781
H798	H	-0.635530	-0.006231	0.468732
H799	H	-0.588234	0.037991	0.465176
C800	C	-0.022310	0.337008	0.583373
C801	C	-0.045163	0.318516	0.543638
C802	C	-0.072340	0.293104	0.545679
C803	C	-0.076664	0.286183	0.587455
C804	C	-0.053810	0.304676	0.627193
C805	C	-0.026633	0.330088	0.625152
H806	H	-0.041962	0.323639	0.512710
H807	H	-0.089257	0.279414	0.516262
H808	H	-0.096782	0.267371	0.588966
H809	H	-0.057011	0.299553	0.658121
H810	H	-0.009716	0.343778	0.654569
H811	H	-0.479838	0.509577	0.989407
H812	H	-0.107215	0.082763	0.322040
H813	H	-0.239238	0.214777	0.322322
C814	C	-0.334264	0.364199	0.850889
C815	C	-0.321097	0.309001	0.803310
C816	C	-0.267550	0.256193	0.776914
C817	C	-0.227170	0.258583	0.798098
C818	C	-0.240336	0.313783	0.845680
C819	C	-0.293883	0.366591	0.872075
H820	H	-0.350989	0.307229	0.787627
H821	H	-0.257804	0.215330	0.741691
H822	H	-0.187531	0.219491	0.778558
H823	H	-0.210443	0.315554	0.861363
H824	H	-0.303628	0.407454	0.907299
C825	C	-0.246377	0.489837	0.583399
C826	C	-0.295034	0.542953	0.625184
C827	C	-0.322319	0.597590	0.627235
C828	C	-0.300948	0.599110	0.587499
C829	C	-0.252288	0.545993	0.545711
C830	C	-0.225003	0.491356	0.543660
H831	H	-0.310857	0.541829	0.654602
H832	H	-0.358341	0.636911	0.658170
H833	H	-0.321146	0.639556	0.589017
H834	H	-0.236466	0.547117	0.516293
H835	H	-0.188981	0.452035	0.512725
C836	C	-0.142265	0.657407	0.419434
C837	C	-0.093604	0.620075	0.423884
C838	C	-0.066320	0.645376	0.451242
C839	C	-0.087698	0.708008	0.474150
C840	C	-0.136361	0.745344	0.469700
C841	C	-0.163645	0.720043	0.442343
H842	H	-0.077777	0.573708	0.406926
H843	H	-0.030296	0.617738	0.454535
H844	H	-0.067501	0.726738	0.494401
H845	H	-0.152188	0.791711	0.486659
H846	H	-0.199669	0.747681	0.439049
C847	C	0.203696	0.656971	1.073856
C848	C	0.245470	0.619510	1.085096
C849	C	0.247519	0.644640	1.137683
C850	C	0.207794	0.707230	1.179030
C851	C	0.166017	0.744695	1.167792
C852	C	0.163968	0.719565	1.115205
H853	H	0.274880	0.573173	1.054487
H854	H	0.278445	0.616905	1.146002
H855	H	0.209311	0.725833	1.217958
H856	H	0.136607	0.791032	1.198401
H857	H	0.133042	0.747299	1.106886
C858	C	-0.022701	0.489902	0.244079
C859	C	-0.004746	0.489519	0.286494
C860	C	-0.032102	0.544153	0.339082
C861	C	-0.077412	0.599171	0.349256
C862	C	-0.095369	0.599556	0.306840
C863	C	-0.068013	0.544921	0.254252
H864	H	0.028797	0.448789	0.278964
H865	H	-0.018809	0.543868	0.370481
H866	H	-0.097663	0.639615	0.388185
H867	H	-0.128912	0.640286	0.314370
H868	H	-0.081306	0.545207	0.222853
H869	H	-0.280684	0.262985	0.188289
H870	H	0.203187	0.650721	0.928459
C871	C	-0.263699	0.124355	0.541184
C872	C	-0.253453	0.159366	0.586037
C873	C	-0.200865	0.133964	0.588082
C874	C	-0.158523	0.073552	0.545274
C875	C	-0.168768	0.038538	0.500418
C876	C	-0.221356	0.063939	0.498373
H877	H	-0.284798	0.204090	0.617729
H878	H	-0.193281	0.159884	0.621288
H879	H	-0.119594	0.054748	0.546788
H880	H	-0.137423	-0.006186	0.468726
H881	H	-0.228940	0.038019	0.465168
C882	C	0.081454	0.434044	0.575588
C883	C	0.104311	0.452526	0.615322
C884	C	0.131483	0.477948	0.613289
C885	C	0.135797	0.484887	0.571524
C886	C	0.112939	0.466404	0.531787
C887	C	0.085767	0.440982	0.533820
H888	H	0.101118	0.447390	0.646242
H889	H	0.148404	0.491630	0.642705
H890	H	0.155911	0.503705	0.570020
H891	H	0.116132	0.471540	0.500867
H892	H	0.068846	0.427300	0.504404
C893	C	-0.142209	0.281253	0.043253
C894	C	-0.163578	0.279730	0.001995
C895	C	-0.136286	0.225095	-0.050593
C896	C	-0.087624	0.171984	-0.061924
C897	C	-0.066252	0.173506	-0.020665
C898	C	-0.093544	0.228140	0.031923
H899	H	-0.199603	0.319047	0.010382
H900	H	-0.152107	0.223969	-0.081136
H901	H	-0.067421	0.131540	-0.100853
H902	H	-0.030227	0.134188	-0.029052
H903	H	-0.077723	0.229266	0.062466
C904	C	-0.639809	0.277432	0.073820
C905	C	-0.662657	0.279031	0.115160
C906	C	-0.689840	0.333660	0.167752
C907	C	-0.694176	0.386689	0.179004
C908	C	-0.671327	0.385091	0.137663
C909	C	-0.644143	0.330463	0.085072
H910	H	-0.659449	0.239775	0.106831
H911	H	-0.706755	0.334842	0.198354
H912	H	-0.714298	0.427128	0.217936
H913	H	-0.674535	0.424348	0.145992
H914	H	-0.627229	0.329280	0.054469
C915	C	-0.093561	0.560753	0.583398
C916	C	-0.051147	0.535914	0.540602
C917	C	0.001440	0.510614	0.542651
C918	C	0.011613	0.510151	0.587497
C919	C	-0.030802	0.534991	0.630297
C920	C	-0.083388	0.560292	0.628247
H921	H	-0.058677	0.536256	0.507401
H922	H	0.032838	0.492226	0.510968
H923	H	0.050541	0.491422	0.589014
H924	H	-0.023272	0.534650	0.663497
H925	H	-0.114786	0.578679	0.659931
H926	H	-0.078541	0.377899	0.588105
C927	C	-0.294344	0.657356	0.575563
C928	C	-0.335601	0.719986	0.615291
C929	C	-0.388186	0.745282	0.613237
C930	C	-0.399513	0.707948	0.571455
C931	C	-0.358255	0.645314	0.531723
C932	C	-0.305670	0.620018	0.533778
H933	H	-0.327217	0.747626	0.646224
H934	H	-0.418728	0.791648	0.642649
H935	H	-0.438440	0.726674	0.569934
H936	H	-0.366639	0.617674	0.500791
H937	H	-0.275128	0.573652	0.504366
H938	H	-0.451134	0.214784	0.018453
H939	H	-0.210211	0.509577	0.588122
H940	H	0.245297	0.214802	0.322032
H941	H	-0.107573	0.343650	0.098377
H942	H	-0.281026	0.427450	0.576117
H943	H	-0.149291	0.295415	0.576100
H944	H	-0.479787	0.048776	-0.142314
H945	H	-0.107551	0.343613	0.582849
H946	H	-0.450825	-0.009223	0.533908
H947	H	-0.542841	0.082741	0.533901
H948	H	0.250550	0.048804	0.127357
H949	H	0.196388	0.567281	1.018470
H950	H	0.245297	0.082731	0.098276
H951	H	0.245265	-0.009215	0.230025
H952	H	0.191159	0.509511	0.857715
H953	H	0.245282	0.083075	0.322320
H954	H	0.191080	0.377899	0.857740
H955	H	0.203048	0.295100	0.927870
H956	H	-0.210254	0.509610	0.259069
