data_functionalizedCrystal
_audit_creation_method	'MofGen! by Chris Wilmer'
_symmetry_space_group_name_H-M	'P1'
_symmetry_Int_Tables_number	1
_symmetry_cell_setting	triclinic
loop_
_symmetry_equiv_pos_as_xyz
  x,y,z
_cell_length_a	12.594517
_cell_length_b	12.594516
_cell_length_c	15.296720
_cell_angle_alpha	80.349469
_cell_angle_beta	80.339807
_cell_angle_gamma	90.015485
loop_
_atom_site_label
_atom_site_type_symbol
_atom_site_fract_x
_atom_site_fract_y
_atom_site_fract_z
Zn1	Zn	1.523036	-0.527896	0.510135
Zn2	Zn	1.553746	-0.675105	0.359296
Zn3	Zn	1.375860	-0.497139	0.359295
Zn4	Zn	1.345030	-0.705823	0.510097
O5	O	1.449418	-0.601491	0.434706
O6	O	1.676052	-0.547440	0.490142
O7	O	1.555904	-0.625769	0.233058
O8	O	1.395433	-0.352276	0.379319
O9	O	1.698615	-0.655593	0.379322
O10	O	1.503563	-0.374873	0.490141
O11	O	1.425211	-0.495018	0.233057
O12	O	1.222828	-0.524805	0.379282
O13	O	1.342888	-0.707949	0.636339
O14	O	1.200177	-0.678125	0.490076
O15	O	1.473669	-0.577226	0.636367
O16	O	1.526010	-0.828122	0.379285
O17	O	1.372667	-0.850691	0.490077
C18	C	1.172883	-0.601461	0.434675
C19	C	1.054576	-0.601479	0.434684
C20	C	0.926820	-0.518038	0.374561
C21	C	0.980859	-0.508914	0.456878
C22	C	1.002106	-0.610557	0.352375
C23	C	0.897808	-0.592369	0.517111
C24	C	0.919060	-0.694045	0.412552
C25	C	0.973056	-0.684970	0.494926
C26	C	1.449350	-0.878030	0.434697
C27	C	1.449412	-0.996341	0.434723
C28	C	1.366011	-1.077899	0.494941
C29	C	1.356896	-1.131955	0.412625
C30	C	1.458621	-1.153086	0.517053
C31	C	1.440255	-1.048830	0.352363
C32	C	1.542014	-1.069966	0.456848
C33	C	1.532948	-1.123979	0.374475
C34	C	1.727033	-0.601521	0.434736
C35	C	1.845335	-0.601534	0.434750
C36	C	1.401414	-0.649445	0.670001
C37	C	1.380957	-0.669880	0.770269
C38	C	1.449511	-0.323876	0.434734
C39	C	1.449551	-0.205573	0.434746
C40	C	1.497297	-0.553646	0.200326
C41	C	1.517959	-0.532911	0.100058
C42	C	1.595664	-0.455251	1.052969
C43	C	1.614891	-0.436053	0.958761
C44	C	1.556409	-0.494507	0.911634
C45	C	1.478697	-0.572164	0.958723
C46	C	1.459475	-0.591370	1.052939
C47	C	1.420219	-0.630627	0.911604
C48	C	1.342508	-0.708284	0.958693
C49	C	1.323288	-0.727486	1.052901
C50	C	1.381770	-0.669031	1.100028
C51	C	1.439442	-0.611421	0.817388
C52	C	1.303253	-0.747541	0.817358
C53	C	1.284026	-0.766739	0.911566
H54	H	0.906105	-0.447420	0.323752
Br55	Br	1.007219	-0.802642	0.579807
H56	H	1.220752	-0.829967	0.949919
H57	H	1.295388	-1.057247	0.545791
Br58	Br	1.026333	-0.378483	0.488145
H59	H	0.852674	-0.584620	0.586766
Br60	Br	1.650626	-1.158032	0.289522
Br61	Br	1.544906	-0.506034	0.753492
H62	H	0.891750	-0.772273	0.393775
Br63	Br	1.355683	-0.695087	1.227887
H64	H	1.047367	-0.618213	0.282740
H65	H	1.278648	-1.159356	0.393931
H66	H	1.620235	-1.042576	0.475581
Br67	Br	1.427218	-0.973643	0.236297
Br68	Br	1.471511	-1.228497	0.633082
Br69	Br	1.720354	-0.330668	0.894861
Br70	Br	1.675036	-0.375942	1.116930
H71	H	1.572068	-0.478872	0.834926
Br72	Br	1.217845	-0.832899	1.116806
H73	H	1.255634	-0.795141	0.778987
