data_functionalizedCrystal
_audit_creation_method	'MofGen! by Chris Wilmer'
_symmetry_space_group_name_H-M	'P1'
_symmetry_Int_Tables_number	1
_symmetry_cell_setting	triclinic
loop_
_symmetry_equiv_pos_as_xyz
  x,y,z
_cell_length_a	15.944551
_cell_length_b	10.489741
_cell_length_c	9.565339
_cell_angle_alpha	90.000516
_cell_angle_beta	89.999063
_cell_angle_gamma	95.981044
loop_
_atom_site_label
_atom_site_type_symbol
_atom_site_fract_x
_atom_site_fract_y
_atom_site_fract_z
O1	O	1.115513	-0.164494	0.116113
O2	O	0.871085	-0.184775	0.116148
O3	O	0.998861	0.011041	0.116121
O4	O	0.987737	-0.360309	0.116140
O5	O	0.998850	0.011028	-0.116399
O6	O	0.871075	-0.184787	-0.116372
O7	O	1.115502	-0.164506	-0.116407
Zn8	Zn	0.993287	-0.174649	-0.153307
Zn9	Zn	0.993300	-0.174632	0.153048
O10	O	0.987727	-0.360322	-0.116380
C11	C	0.839781	-0.183939	-0.000108
C12	C	0.746520	-0.181415	-0.000095
C13	C	0.998015	0.058554	-0.000138
C14	C	0.995502	0.200149	-0.000135
N15	N	0.993284	-0.174659	-0.362386
C16	C	0.530897	-0.054006	-0.000128
C17	C	0.470238	-0.113164	0.114520
C18	C	0.575766	-0.176849	-0.000111
C19	C	0.470250	-0.113206	-0.114727
C20	C	0.410827	-0.172428	-0.000134
C21	C	0.516335	-0.236041	0.114631
C22	C	0.516354	-0.236065	-0.114719
C23	C	0.455713	-0.295313	-0.000043
C24	C	0.670784	-0.179391	-0.000097
C25	C	0.315811	-0.169895	-0.000138
C26	C	1.146807	-0.165342	-0.000148
C27	C	1.240068	-0.167866	-0.000152
C28	C	0.988572	-0.407835	-0.000118
C29	C	0.991086	-0.549430	-0.000112
C30	C	0.914202	0.267162	-0.000113
C31	C	0.952602	0.359811	-0.114763
C32	C	0.952631	0.359798	0.114484
C33	C	1.033936	0.290933	-0.114879
C34	C	1.033954	0.290910	0.114470
C35	C	1.072413	0.383533	-0.000208
C36	C	0.934174	-0.265187	-0.453577
C37	C	1.010227	-0.289943	-0.546766
C38	C	0.917264	-0.149912	-0.546753
C39	C	1.069376	-0.199472	-0.453523
C40	C	0.976362	-0.059392	-0.453503
C41	C	1.052470	-0.084099	-0.546649
N42	N	0.993310	-0.174612	0.362128
H43	H	0.449819	-0.061202	0.211441
C44	C	1.209661	-0.245258	-0.511491
C45	C	1.156201	-0.227861	-0.398487
H46	H	1.263262	-0.262779	-0.477508
H47	H	1.186054	-0.315162	-0.566840
H48	H	1.215934	-0.169618	-0.566749
H49	H	1.149923	-0.303505	-0.343234
H50	H	1.179813	-0.157951	-0.343114
H51	H	1.102524	-0.007517	-0.587258
H52	H	0.423168	-0.397367	0.000026
C53	C	0.520950	-0.241641	-0.365509
C54	C	0.543961	-0.306149	-0.245561
H55	H	0.538001	-0.284898	-0.446291
H56	H	0.461517	-0.239879	-0.366918
H57	H	0.547737	-0.156401	-0.364672
H58	H	0.517168	-0.391387	-0.246392
H59	H	0.603405	-0.307926	-0.244152
C60	C	0.879226	0.292670	0.325420
C61	C	0.906190	0.400982	0.245340
H62	H	0.850556	0.318095	0.406204
H63	H	0.842146	0.235488	0.271427
H64	H	0.926693	0.250984	0.352957
H65	H	0.858721	0.442663	0.217793
H66	H	0.943271	0.458185	0.299342
C67	C	0.519913	-0.242206	0.365467
C68	C	0.543735	-0.306114	0.245630
H69	H	0.536826	-0.285470	0.446338
H70	H	0.546333	-0.156760	0.365129
H71	H	0.460419	-0.241069	0.366213
H72	H	0.603230	-0.307244	0.244879
H73	H	0.517318	-0.391584	0.245968
C74	C	0.827249	0.066006	0.000996
C75	C	0.823968	0.198876	-0.000236
H76	H	0.771543	0.023852	0.000927
H77	H	0.856407	0.041447	-0.079625
H78	H	0.856011	0.042608	0.082539
H79	H	0.795211	0.222275	-0.081784
H80	H	0.794797	0.223444	0.080394
C81	C	1.026120	0.163487	0.323476
C82	C	1.080359	0.249633	0.245308
H83	H	1.054767	0.137996	0.404252
H84	H	0.978082	0.203787	0.351001
H85	H	1.008738	0.090243	0.268189
H86	H	1.097736	0.322881	0.300591
H87	H	1.128412	0.209333	0.217785
C88	C	0.624932	0.103073	-0.120107
C89	C	0.575040	0.083638	0.000009
H90	H	0.652179	0.188049	-0.120019
H91	H	0.666135	0.043885	-0.120986
H92	H	0.590312	0.090485	-0.200778
H93	H	0.609660	0.096216	0.080681
H94	H	0.533831	0.142844	0.000901
H95	H	0.449847	-0.061230	-0.211649
H96	H	0.918198	0.390341	-0.211682
C97	C	0.877291	0.097825	-0.445117
C98	C	0.956986	0.072128	-0.398139
H99	H	0.865322	0.179016	-0.410926
H100	H	0.876650	0.098569	-0.544405
H101	H	0.835851	0.033325	-0.411856
H102	H	0.998426	0.136624	-0.431408
H103	H	0.957634	0.071395	-0.298830
H104	H	0.884232	-0.341814	-0.412712
H105	H	1.024558	-0.387402	-0.587730
C106	C	1.082225	0.116808	-0.244738
C107	C	1.080324	0.249958	-0.245883
H108	H	1.110856	0.091512	-0.325620
H109	H	1.110918	0.092685	-0.163443
H110	H	1.026187	0.075927	-0.244399
H111	H	1.136362	0.290840	-0.246212
H112	H	1.051633	0.274094	-0.327200
H113	H	0.852964	-0.129002	-0.587709
H114	H	1.139317	0.433884	-0.000281
