data_functionalizedCrystal
_audit_creation_method	'MofGen! by Chris Wilmer'
_symmetry_space_group_name_H-M	'P1'
_symmetry_Int_Tables_number	1
_symmetry_cell_setting	triclinic
loop_
_symmetry_equiv_pos_as_xyz
  x,y,z
_cell_length_a	16.625548
_cell_length_b	12.645330
_cell_length_c	12.645331
_cell_angle_alpha	90.010682
_cell_angle_beta	90.009786
_cell_angle_gamma	90.018760
loop_
_atom_site_label
_atom_site_type_symbol
_atom_site_fract_x
_atom_site_fract_y
_atom_site_fract_z
Zn1	Zn	1.232621	-0.422149	0.599440
Zn2	Zn	1.565955	-0.088816	0.932773
Zn3	Zn	1.899288	0.244517	1.266107
Zn4	Zn	1.232561	-0.599393	0.422180
Zn5	Zn	1.565895	-0.266060	0.755513
Zn6	Zn	1.899228	0.067273	1.088847
Zn7	Zn	1.097809	-0.422148	0.422185
Zn8	Zn	1.431142	-0.088814	0.755518
Zn9	Zn	1.764475	0.244519	1.088852
Zn10	Zn	1.097765	-0.599374	0.599396
Zn11	Zn	1.431098	-0.266041	0.932729
Zn12	Zn	1.764432	0.067292	1.266063
O13	O	1.165189	-0.510766	0.510800
O14	O	1.498522	-0.177433	0.844134
O15	O	1.831856	0.155901	1.177467
O16	O	1.345446	-0.445670	0.575942
O17	O	1.678779	-0.112336	0.909276
O18	O	2.012112	0.220997	1.242609
O19	O	1.214679	-0.575888	0.273833
O20	O	1.548012	-0.242555	0.607167
O21	O	1.881346	0.090778	0.940500
O22	O	1.115735	-0.273801	0.445719
O23	O	1.449069	0.059533	0.779052
O24	O	1.782402	0.392866	1.112385
O25	O	1.345402	-0.575890	0.445710
O26	O	1.678735	-0.242557	0.779044
O27	O	2.012068	0.090777	1.112377
O28	O	1.214782	-0.273802	0.575947
O29	O	1.548115	0.059532	0.909280
O30	O	1.881448	0.392865	1.242614
O31	O	1.115677	-0.445667	0.273837
O32	O	1.449010	-0.112334	0.607170
O33	O	1.782344	0.221000	0.940504
O34	O	0.984970	-0.445649	0.445676
O35	O	1.318304	-0.112315	0.779009
O36	O	1.651637	0.221018	1.112343
O37	O	1.115661	-0.575858	0.747749
O38	O	1.448994	-0.242525	1.081082
O39	O	1.782327	0.090809	1.414416
O40	O	0.984938	-0.575856	0.575872
O41	O	1.318272	-0.242523	0.909206
O42	O	1.651605	0.090810	1.242539
O43	O	1.214739	-0.445651	0.747781
O44	O	1.548073	-0.112318	1.081115
O45	O	1.881406	0.221015	1.414448
O46	O	1.214637	-0.747738	0.445668
O47	O	1.547970	-0.414405	0.779001
O48	O	1.881303	-0.081071	1.112334
O49	O	1.115602	-0.747724	0.575867
O50	O	1.448936	-0.414391	0.909201
O51	O	1.782269	-0.081058	1.242534
C52	C	0.955698	-0.510751	0.510771
C53	C	1.289032	-0.177418	0.844104
C54	C	1.622365	0.155916	1.177437
C55	C	0.866077	-0.510770	0.510783
C56	C	1.199410	-0.177437	0.844116
C57	C	1.532744	0.155897	1.177450
C58	C	0.537901	-0.510777	0.510828
C59	C	0.871235	-0.177444	0.844162
C60	C	1.204568	0.155890	1.177495
C61	C	0.629210	-0.510772	0.510812
C62	C	0.962543	-0.177439	0.844146
C63	C	1.295877	0.155895	1.177479
C64	C	0.701986	-0.510774	0.510805
C65	C	1.035320	-0.177441	0.844138
C66	C	1.368653	0.155893	1.177472
C67	C	0.793301	-0.510768	0.510791
C68	C	1.126634	-0.177435	0.844124
C69	C	1.459967	0.155899	1.177457
C70	C	1.165130	-0.786196	0.510785
C71	C	1.498464	-0.452863	0.844119
C72	C	1.831797	-0.119529	1.177452
C73	C	1.165179	-0.904026	0.510815
C74	C	1.498512	-0.570693	0.844148
C75	C	1.831845	-0.237359	1.177481
C76	C	1.103133	-1.071625	0.592976
C77	C	1.436466	-0.738292	0.926309
C78	C	1.769800	-0.404959	1.259642
C79	C	1.102816	-0.949066	0.592712
C80	C	1.436149	-0.615733	0.926045
C81	C	1.769483	-0.282399	1.259378
C82	C	1.142193	-0.948593	0.399093
C83	C	1.475526	-0.615260	0.732426
C84	C	1.808860	-0.281926	1.065759
C85	C	1.141814	-1.071191	0.399591
C86	C	1.475148	-0.737858	0.732925
C87	C	1.808481	-0.404525	1.066258
C88	C	1.250590	-1.071120	0.539469
C89	C	1.583923	-0.737787	0.872802
C90	C	1.917256	-0.404454	1.206136
C91	C	1.250066	-0.948514	0.541912
C92	C	1.583399	-0.615181	0.875245
C93	C	1.916733	-0.281847	1.208579
C94	C	1.375498	-0.510782	0.510831
C95	C	1.708831	-0.177449	0.844164
C96	C	2.042165	0.155885	1.177497
C97	C	1.465119	-0.510789	0.510844
C98	C	1.798452	-0.177456	0.844177
C99	C	2.131786	0.155878	1.177510
C100	C	1.165202	-0.510753	0.787305
C101	C	1.498535	-0.177419	1.120639
C102	C	1.831869	0.155914	1.453972
C103	C	1.165207	-0.510747	0.905136
C104	C	1.498541	-0.177414	1.238469
C105	C	1.831874	0.155920	1.571802
C106	C	1.165270	-0.234261	0.510838
C107	C	1.498603	0.099072	0.844172
C108	C	1.831937	0.432406	1.177505
C109	C	1.165305	-0.116431	0.510855
C110	C	1.498638	0.216903	0.844188
C111	C	1.831971	0.550236	1.177521
C112	C	1.227751	-0.429133	1.072720
C113	C	1.561085	-0.095800	1.406053
C114	C	1.894418	0.237534	1.739386
C115	C	1.227572	-0.428793	0.950160
C116	C	1.560905	-0.095460	1.283493
C117	C	1.894239	0.237874	1.616827
C118	C	1.080255	-0.480407	0.949614
C119	C	1.413588	-0.147074	1.282947
C120	C	1.746921	0.186259	1.616281
C121	C	1.080613	-0.479832	1.072212
C122	C	1.413947	-0.146499	1.405546
C123	C	1.747280	0.186834	1.738879
C124	C	1.186861	-0.622959	1.072333
C125	C	1.520195	-0.289626	1.405667
C126	C	1.853528	0.043707	1.739000
C127	C	1.188741	-0.622350	0.949728
C128	C	1.522074	-0.289017	1.283061
C129	C	1.855408	0.044317	1.616395
C130	C	1.165179	-0.510796	1.235371
C131	C	1.498513	-0.177462	1.568704
C132	C	1.831846	0.155871	1.902037
C133	C	1.165201	-0.510778	1.117540
C134	C	1.498535	-0.177445	1.450874
C135	C	1.831868	0.155888	1.784207
H136	H	1.117195	-0.918932	0.675552
H137	H	1.450528	-0.585599	1.008886
H138	H	1.783862	-0.252265	1.342219
H139	H	1.039589	-0.919828	0.573754
H140	H	1.372922	-0.586495	0.907088
H141	H	1.706256	-0.253161	1.240421
Br142	Br	1.278962	-0.899966	0.678955
Br143	Br	1.612295	-0.566633	1.012288
Br144	Br	1.945629	-0.233299	1.345622
H145	H	1.296909	-1.100092	0.479657
H146	H	1.630242	-0.766759	0.812990
H147	H	1.963575	-0.433426	1.146323
H148	H	1.141307	-0.683793	1.101326
H149	H	1.474641	-0.350459	1.434659
H150	H	1.807974	-0.017126	1.767993
Br151	Br	1.332568	-0.460443	0.900033
Br152	Br	1.665901	-0.127110	1.233367
Br153	Br	1.999235	0.206224	1.566700
Br154	Br	1.285545	-1.122560	0.672946
Br155	Br	1.618878	-0.789226	1.006279
Br156	Br	1.952212	-0.455893	1.339612
H157	H	1.251258	-0.645229	0.920656
H158	H	1.584591	-0.311896	1.253990
H159	H	1.917925	0.021437	1.587323
H160	H	1.298825	-0.917849	0.486455
H161	H	1.632158	-0.584515	0.819788
H162	H	1.965491	-0.251182	1.153122
Br163	Br	1.333080	-0.460429	1.121879
Br164	Br	1.666413	-0.127095	1.455212
Br165	Br	1.999747	0.206238	1.788545
H166	H	1.213594	-0.346490	1.103543
H167	H	1.546927	-0.013156	1.436877
H168	H	1.880261	0.320177	1.770210
Br169	Br	1.049110	-0.345212	0.898466
Br170	Br	1.382444	-0.011878	1.231799
Br171	Br	1.715777	0.321455	1.565133
H172	H	1.117380	-1.101057	0.676088
H173	H	1.450713	-0.767724	1.009422
H174	H	1.784047	-0.434391	1.342755
Br175	Br	1.203687	-0.290245	0.901293
Br176	Br	1.537020	0.043088	1.234626
Br177	Br	1.870353	0.376422	1.567959
Br178	Br	1.049971	-0.343170	1.119903
Br179	Br	1.383304	-0.009837	1.453237
Br180	Br	1.716637	0.323496	1.786570
H181	H	1.032423	-0.536712	1.101860
H182	H	1.365756	-0.203378	1.435193
H183	H	1.699090	0.129955	1.768527
H184	H	1.032392	-0.538024	0.920447
H185	H	1.365726	-0.204691	1.253781
H186	H	1.699059	0.128642	1.587114
H187	H	1.079471	-1.099878	0.375351
H188	H	1.412804	-0.766545	0.708685
H189	H	1.746138	-0.433212	1.042018
Br190	Br	1.214005	-1.120601	0.294126
Br191	Br	1.547338	-0.787268	0.627459
Br192	Br	1.880672	-0.453934	0.960793
Br193	Br	1.288329	-0.668992	1.123885
Br194	Br	1.621662	-0.335659	1.457218
Br195	Br	1.954996	-0.002325	1.790551
Br196	Br	0.998411	-1.123150	0.561812
Br197	Br	1.331745	-0.789817	0.895145
Br198	Br	1.665078	-0.456483	1.228479
H199	H	1.146504	-0.686431	0.919075
H200	H	1.479838	-0.353098	1.252409
H201	H	1.813171	-0.019764	1.585742
Br202	Br	1.215274	-0.899973	0.294318
Br203	Br	1.548607	-0.566640	0.627651
Br204	Br	1.881941	-0.233306	0.960985
H205	H	1.080500	-0.917977	0.374414
H206	H	1.413833	-0.584644	0.707748
H207	H	1.747166	-0.251310	1.041081
