data_functionalizedCrystal
_audit_creation_method	'MofGen! by Chris Wilmer'
_symmetry_space_group_name_H-M	'P1'
_symmetry_Int_Tables_number	1
_symmetry_cell_setting	triclinic
loop_
_symmetry_equiv_pos_as_xyz
  x,y,z
_cell_length_a	17.640968
_cell_length_b	11.169417
_cell_length_c	11.169416
_cell_angle_alpha	89.991438
_cell_angle_beta	78.771512
_cell_angle_gamma	101.223611
loop_
_atom_site_label
_atom_site_type_symbol
_atom_site_fract_x
_atom_site_fract_y
_atom_site_fract_z
Zn1	Zn	-0.446941	-1.972121	-0.340658
Zn2	Zn	-0.314772	-1.931450	-0.581944
Zn3	Zn	-0.314776	-1.730848	-0.381266
Zn4	Zn	-0.446915	-1.771407	-0.541300
O5	O	-0.380851	-1.851457	-0.461292
O6	O	-0.429418	-2.134679	-0.372680
O7	O	-0.204160	-1.870845	-0.589328
O8	O	-0.332321	-1.762901	-0.207926
O9	O	-0.332314	-2.104798	-0.549952
O10	O	-0.429421	-1.940163	-0.178091
O11	O	-0.204163	-1.723464	-0.441891
O12	O	-0.332296	-1.568276	-0.402480
O13	O	-0.557531	-1.832027	-0.480680
O14	O	-0.429377	-1.598074	-0.520056
O15	O	-0.557551	-1.979491	-0.333269
O16	O	-0.332289	-1.910173	-0.744506
O17	O	-0.429373	-1.792590	-0.714645
C18	C	-0.380834	-1.539627	-0.461265
C19	C	-0.380846	-1.406230	-0.461276
C20	C	-0.587024	-1.914820	-0.397911
C21	C	-0.674882	-1.941822	-0.370902
C22	C	-0.963788	-1.646789	-0.665826
C23	C	-1.046344	-1.672186	-0.640431
C24	C	-1.046354	-1.825728	-0.486946
C25	C	-0.963796	-1.800339	-0.512323
C26	C	-0.922519	-1.710869	-0.601765
C27	C	-0.922527	-1.864419	-0.448263
C28	C	-0.839976	-1.839037	-0.473643
C29	C	-0.798694	-1.749574	-0.563084
C30	C	-0.839968	-1.685487	-0.627146
C31	C	-0.963805	-1.953895	-0.358827
C32	C	-0.922536	-2.017975	-0.294767
C33	C	-0.839984	-1.992587	-0.320141
C34	C	-0.798702	-1.903124	-0.409581
C35	C	-0.798710	-2.056674	-0.256079
C36	C	-0.716159	-2.031291	-0.281459
C37	C	-0.716151	-1.877741	-0.434962
C38	C	-0.175481	-1.788409	-0.524340
C39	C	-0.087623	-1.761640	-0.551011
C40	C	-0.380845	-1.851407	-0.773119
C41	C	-0.380869	-1.851504	-0.906511
C42	C	-0.380863	-1.164503	-0.461310
C43	C	-0.380855	-1.297900	-0.461293
C44	C	-0.380874	-1.851544	-0.148243
C45	C	-0.380884	-1.851582	-0.014839
H46	H	-0.731476	-1.728914	-0.583752
H47	H	-1.079942	-1.619998	-0.692604
C48	C	-0.870958	-1.456784	-0.711049
C49	C	-0.918420	-1.548437	-0.764147
H50	H	-0.842958	-1.396068	-0.771750
H51	H	-0.834562	-1.491312	-0.676552
H52	H	-0.903171	-1.420798	-0.648849
H53	H	-0.886207	-1.584429	-0.826342
H54	H	-0.954821	-1.513905	-0.798664
C55	C	-0.747106	-1.640245	-0.817114
C56	C	-0.794575	-1.587145	-0.725460
H57	H	-0.719076	-1.579536	-0.877801
H58	H	-0.779312	-1.702403	-0.853130
H59	H	-0.710728	-1.674791	-0.782566
H60	H	-0.830957	-1.552606	-0.760006
H61	H	-0.762367	-1.524965	-0.689441
C62	C	-1.172903	-1.932816	-0.379878
C63	C	-1.091730	-1.924067	-0.388630
H64	H	-1.200913	-1.993521	-0.319173
H65	H	-1.186421	-1.954527	-0.456352
H66	H	-1.186426	-1.856334	-0.358152
H67	H	-1.078205	-2.000546	-0.410365
H68	H	-1.078206	-1.902363	-0.312139
C69	C	-1.049085	-2.125063	-0.187699
C70	C	-0.967912	-2.116314	-0.196451
H71	H	-1.077095	-2.185768	-0.126995
H72	H	-1.062603	-2.146774	-0.264173
H73	H	-1.062609	-2.048582	-0.165973
H74	H	-0.954388	-2.192794	-0.218186
H75	H	-0.954388	-2.094610	-0.119960
C76	C	-0.824145	-2.123017	-0.045040
C77	C	-0.844085	-2.155022	-0.157772
H78	H	-0.852155	-2.183740	0.015647
H79	H	-0.837684	-2.046557	-0.023314
H80	H	-0.769073	-2.117070	-0.050997
H81	H	-0.899157	-2.160960	-0.151818
H82	H	-0.830552	-2.231503	-0.179502
H83	H	-1.031023	-1.974561	-0.338169
H84	H	-0.682557	-2.083470	-0.229293
H85	H	-0.682541	-1.804857	-0.507766
