data_functionalizedCrystal
_audit_creation_method	'MofGen! by Chris Wilmer'
_symmetry_space_group_name_H-M	'P1'
_symmetry_Int_Tables_number	1
_symmetry_cell_setting	triclinic
loop_
_symmetry_equiv_pos_as_xyz
  x,y,z
_cell_length_a	15.944493
_cell_length_b	10.723023
_cell_length_c	9.198806
_cell_angle_alpha	89.997827
_cell_angle_beta	89.996623
_cell_angle_gamma	83.971296
loop_
_atom_site_label
_atom_site_type_symbol
_atom_site_fract_x
_atom_site_fract_y
_atom_site_fract_z
O1	O	1.115473	0.160587	-0.120870
O2	O	0.871031	0.180504	-0.120877
O3	O	0.998891	-0.011104	-0.120867
O4	O	0.987613	0.352195	-0.120879
O5	O	0.998880	-0.011104	0.120918
O6	O	0.871020	0.180504	0.120908
O7	O	1.115463	0.160587	0.120915
Cu8	Cu	0.993241	0.170545	0.142989
Cu9	Cu	0.993253	0.170546	-0.142950
O10	O	0.987603	0.352194	0.120906
C11	C	0.998065	-0.057593	0.000024
C12	C	0.995610	-0.196115	0.000019
C13	C	0.839726	0.179690	0.000015
C14	C	0.746464	0.177249	0.000012
C15	C	0.994521	-0.257867	-0.125235
C16	C	0.991983	-0.401037	-0.125243
C17	C	0.511349	0.290034	0.000008
C18	C	0.460438	0.229213	0.119229
C19	C	0.575717	0.172727	0.000015
C20	C	0.460452	0.229186	-0.119153
C21	C	0.410782	0.168368	0.000012
C22	C	0.526034	0.111938	0.119335
C23	C	0.526052	0.111928	-0.119153
C24	C	0.475172	0.051021	0.000097
C25	C	0.670731	0.175242	0.000019
C26	C	0.315771	0.165844	0.000019
C27	C	1.146767	0.161401	0.000020
C28	C	1.240030	0.163841	0.000013
C29	C	0.988429	0.398684	0.000011
C30	C	0.990884	0.537206	0.000007
N31	N	0.993238	0.170544	0.344103
N32	N	0.993262	0.170537	-0.344064
C33	C	1.046923	0.089742	0.416304
C34	C	1.046936	0.089737	0.583716
H35	H	0.995463	-0.204741	-0.232463
Br36	Br	0.538363	0.458446	0.000184
H37	H	0.947301	0.239723	0.593855
H38	H	0.994659	-0.249240	0.107248
Br39	Br	0.990432	-0.489541	-0.303986
Br40	Br	0.992455	-0.374302	0.178755
H41	H	0.431779	0.278754	0.220016
Br42	Br	1.123553	-0.025561	0.687195
Br43	Br	1.123303	-0.025874	0.312772
Br44	Br	0.448421	-0.117520	0.000213
Br45	Br	0.916637	0.285837	0.447635
H46	H	0.554574	0.062427	0.220227
H47	H	0.554719	0.062425	-0.219946
H48	H	0.431802	0.278751	-0.219930
