data_functionalizedCrystal
_audit_creation_method	'MofGen! by Chris Wilmer'
_symmetry_space_group_name_H-M	'P1'
_symmetry_Int_Tables_number	1
_symmetry_cell_setting	triclinic
loop_
_symmetry_equiv_pos_as_xyz
  x,y,z
_cell_length_a	6.817900
_cell_length_b	9.582860
_cell_length_c	16.417824
_cell_angle_alpha	93.123974
_cell_angle_beta	103.385545
_cell_angle_gamma	111.206767
loop_
_atom_site_label
_atom_site_type_symbol
_atom_site_fract_x
_atom_site_fract_y
_atom_site_fract_z
V1	V	-4.065690	-0.208275	-0.260999
O2	O	-4.011363	0.008753	-0.256188
O3	O	-4.056469	-0.411767	-0.259062
O4	O	-4.016234	-0.205622	-0.374899
O5	O	-4.051877	-0.198819	-0.139550
V6	V	-4.544378	-0.182251	-0.246491
O7	O	-4.337554	-0.265361	-0.292823
O8	O	-4.722712	-0.125165	-0.214667
O9	O	-4.330393	0.021241	-0.248428
O10	O	-4.716103	-0.399279	-0.251301
O11	O	-4.675589	-0.191707	-0.367940
O12	O	-4.370628	-0.184904	-0.132591
C13	C	-3.911036	-0.461356	-0.254905
C14	C	-3.984776	-0.627717	-0.254081
C15	C	-3.859710	-0.198397	-0.402665
C16	C	-3.900816	-0.197574	-0.495778
C17	C	-4.062005	-0.332758	-0.721862
C18	C	-4.100642	-0.331975	-0.809351
C19	C	-3.967436	-0.057755	-0.785615
C20	C	-3.928815	-0.058540	-0.698128
C21	C	-3.976092	-0.196045	-0.666254
C22	C	-4.053350	-0.194478	-0.841230
C23	C	-4.095241	-0.193628	-0.936089
C24	C	-3.934203	-0.196896	-0.571389
C25	C	-4.139170	0.070823	-0.252582
C26	C	-4.044668	0.237182	-0.253412
C27	C	-4.190496	-0.192134	-0.104820
C28	C	-4.128626	-0.192949	-0.011706
H29	H	-4.100505	-0.444724	-0.695914
Cl30	Cl	-3.820782	0.113343	-0.628215
Cl31	Cl	-3.907989	0.115101	-0.825691
Cl32	Cl	-4.208655	-0.503851	-0.879256
