data_functionalizedCrystal
_audit_creation_method	'MofGen! by Chris Wilmer'
_symmetry_space_group_name_H-M	'P1'
_symmetry_Int_Tables_number	1
_symmetry_cell_setting	triclinic
loop_
_symmetry_equiv_pos_as_xyz
  x,y,z
_cell_length_a	10.654541
_cell_length_b	15.944551
_cell_length_c	9.730217
_cell_angle_alpha	89.995798
_cell_angle_beta	89.999932
_cell_angle_gamma	83.991333
loop_
_atom_site_label
_atom_site_type_symbol
_atom_site_fract_x
_atom_site_fract_y
_atom_site_fract_z
O1	O	1.666312	0.117965	-0.114251
O2	O	1.300688	0.129208	-0.114263
O3	O	1.493484	0.001369	-0.114245
O4	O	1.473516	0.245804	-0.114270
O5	O	1.493478	0.001368	0.114335
O6	O	1.300682	0.129206	0.114317
O7	O	1.666306	0.117964	0.114329
Zn8	Zn	1.483493	0.123585	0.150615
Zn9	Zn	1.483501	0.123587	-0.150549
O10	O	1.473510	0.245802	0.114310
C11	C	1.253897	0.128382	0.000025
C12	C	1.114486	0.125914	0.000021
C13	C	1.492652	-0.029930	0.000046
C14	C	1.490167	-0.123190	0.000046
C15	C	1.084537	0.278779	-0.000012
C16	C	1.004069	0.354048	-0.000034
C17	C	0.873081	0.351724	-0.000035
C18	C	0.822560	0.274122	-0.000010
C19	C	0.903028	0.198852	0.000012
C20	C	1.034017	0.201185	0.000009
C21	C	0.932976	0.045989	0.000055
C22	C	1.063965	0.048311	0.000046
C23	C	0.882455	-0.031613	0.000080
C24	C	0.962924	-0.106885	0.000092
C25	C	1.093919	-0.104557	0.000091
C26	C	1.144433	-0.026958	0.000068
C27	C	1.364722	-0.338772	0.000023
C28	C	1.422972	-0.399453	0.112729
C29	C	1.485671	-0.293942	0.000036
C30	C	1.423006	-0.399436	-0.112633
C31	C	1.481319	-0.458880	0.000019
C32	C	1.543954	-0.353395	0.112834
C33	C	1.543971	-0.353371	-0.112629
C34	C	1.602309	-0.414034	0.000104
C35	C	1.488175	-0.198925	0.000046
C36	C	1.478825	-0.553896	0.000019
C37	C	1.713097	0.118790	0.000037
C38	C	1.852508	0.121258	0.000033
C39	C	1.474342	0.277102	0.000017
C40	C	1.476827	0.370362	0.000007
N41	N	1.483497	0.123584	0.356151
N42	N	1.483507	0.123582	-0.356086
C43	C	1.654288	0.010416	0.356159
C44	C	1.739691	-0.046165	0.428102
C45	C	1.739704	-0.046166	0.571982
C46	C	1.654302	0.010420	0.643921
C47	C	1.568898	0.067001	0.571978
C48	C	1.568897	0.066997	0.428095
C49	C	1.398103	0.180163	0.571971
C50	C	1.398094	0.180169	0.428091
C51	C	1.312700	0.236748	0.643910
C52	C	1.227301	0.293335	0.571967
C53	C	1.227292	0.293334	0.428078
C54	C	1.312691	0.236750	0.356147
H55	H	1.191193	0.280679	-0.000042
C56	C	1.056373	0.310493	0.266287
C57	C	1.133411	0.355531	0.349004
H58	H	0.998410	0.348894	0.217482
H59	H	1.107228	0.276808	0.202853
H60	H	1.011217	0.275245	0.322437
H61	H	1.178573	0.390775	0.292853
H62	H	1.082549	0.389231	0.412445
C63	C	0.948117	-0.237892	0.117633
C64	C	0.907389	-0.192177	0.000121
H65	H	0.913822	-0.290546	0.117650
H66	H	1.037633	-0.247280	0.117616
H67	H	0.920497	-0.206856	0.197330
H68	H	0.935017	-0.223211	-0.079577
H69	H	0.817854	-0.182792	0.000125
C70	C	1.813460	-0.191119	0.616315
C71	C	1.833573	-0.108363	0.651074
H72	H	1.871414	-0.229515	0.665140
H73	H	1.729661	-0.200755	0.639902
H74	H	1.825687	-0.199212	0.520330
H75	H	1.821337	-0.100268	0.747058
H76	H	1.917392	-0.098722	0.627496
C77	C	1.009905	0.341287	0.616278
C78	C	1.133430	0.355522	0.651047
H79	H	0.951954	0.379676	0.665112
H80	H	0.997686	0.349396	0.520306
H81	H	0.996296	0.285136	0.639860
H82	H	1.147042	0.411672	0.627456
H83	H	1.145654	0.347420	0.747040
H84	H	1.159430	-0.165851	0.000114
C85	C	1.628990	-0.068891	0.850032
C86	C	1.654311	0.010412	0.802076
H87	H	1.629003	-0.068894	0.947671
H88	H	1.548736	-0.080878	0.817491
H89	H	1.692076	-0.110680	0.817472
H90	H	1.591219	0.052201	0.834628
H91	H	1.734576	0.022409	0.834631
C92	C	1.340231	-0.065241	-0.117426
C93	C	1.288416	-0.024397	0.000065
H94	H	1.429119	-0.063651	-0.117427
H95	H	1.321668	-0.122221	-0.117397
H96	H	1.305059	-0.037538	-0.197138
H97	H	1.323581	-0.052103	0.079776
H98	H	1.306989	0.032594	0.000047
H99	H	1.654296	0.010418	0.239004
H100	H	1.312709	0.236742	0.761065
H101	H	1.264329	-0.306045	0.000132
H102	H	1.702790	-0.446611	0.000171
H103	H	1.809224	-0.092238	0.369517
H104	H	1.595086	-0.332944	-0.207914
C105	C	1.338006	0.316047	0.150019
C106	C	1.312688	0.236748	0.197992
H107	H	1.338012	0.316039	0.052380
H108	H	1.274923	0.357833	0.182555
H109	H	1.418266	0.328041	0.182572
H110	H	1.232423	0.224756	0.165448
H111	H	1.375774	0.194948	0.165443
H112	H	1.045218	0.417231	-0.000051
C113	C	1.312646	-0.355859	-0.319990
C114	C	1.353936	-0.426951	-0.241266
H115	H	1.270007	-0.372845	-0.399402
H116	H	1.256696	-0.318528	-0.266910
H117	H	1.383239	-0.327997	-0.347066
H118	H	1.283342	-0.454809	-0.214182
H119	H	1.409889	-0.464296	-0.294356
C120	C	0.856619	0.503064	-0.000089
C121	C	0.784623	0.434460	-0.000067
H122	H	0.802006	0.554140	-0.000119
H123	H	0.908323	0.500803	0.079621
H124	H	0.908341	0.500783	-0.079802
H125	H	0.732907	0.436738	0.079651
H126	H	0.732897	0.436722	-0.079785
C127	C	1.416065	-0.402639	0.359308
C128	C	1.353916	-0.427007	0.241352
H129	H	1.373421	-0.419644	0.438708
H130	H	1.500441	-0.428652	0.359425
H131	H	1.416460	-0.343089	0.359796
H132	H	1.353529	-0.486557	0.240859
H133	H	1.269518	-0.400997	0.241236
H134	H	1.595065	-0.333109	0.208223
H135	H	0.715901	0.272236	0.000005
H136	H	0.775797	-0.033501	0.000086
