data_functionalizedCrystal
_audit_creation_method	'MofGen! by Chris Wilmer'
_symmetry_space_group_name_H-M	'P1'
_symmetry_Int_Tables_number	1
_symmetry_cell_setting	triclinic
loop_
_symmetry_equiv_pos_as_xyz
  x,y,z
_cell_length_a	17.699097
_cell_length_b	27.731996
_cell_length_c	16.776229
_cell_angle_alpha	89.987372
_cell_angle_beta	89.989262
_cell_angle_gamma	82.954908
loop_
_atom_site_label
_atom_site_type_symbol
_atom_site_fract_x
_atom_site_fract_y
_atom_site_fract_z
O1	O	1.003515	0.061159	-0.066365
O2	O	1.503515	0.561159	0.433635
O3	O	0.783066	0.069105	-0.066353
O4	O	1.283066	0.569105	0.433647
O5	O	0.900158	-0.005242	-0.066342
O6	O	1.400158	0.494758	0.433658
O7	O	0.886423	0.135506	-0.066376
O8	O	1.386423	0.635506	0.433624
O9	O	0.900142	-0.005246	0.066234
O10	O	1.400142	0.494754	0.566234
O11	O	0.783050	0.069101	0.066223
O12	O	1.283050	0.569101	0.566223
O13	O	1.003500	0.061154	0.066212
O14	O	1.503500	0.561154	0.566212
Zn15	Zn	0.893273	0.065127	0.087267
Zn16	Zn	1.393273	0.565127	0.587267
Zn17	Zn	0.893293	0.065133	-0.087408
Zn18	Zn	1.393293	0.565133	0.412592
O19	O	0.886408	0.135501	0.066201
O20	O	1.386408	0.635501	0.566201
C21	C	0.754864	0.068817	-0.000063
C22	C	1.254864	0.568817	0.499937
C23	C	0.670854	0.067960	-0.000058
C24	C	1.170854	0.567960	0.499942
C25	C	0.155192	0.062706	-0.072356
C26	C	0.655192	0.562706	0.427644
C27	C	0.234129	0.063509	-0.072353
C28	C	0.734129	0.563509	0.427647
C29	C	0.273583	0.063908	-0.000082
C30	C	0.773583	0.563908	0.499918
C31	C	0.234097	0.063500	0.072189
C32	C	0.734097	0.563500	0.572189
C33	C	0.155162	0.062694	0.072185
C34	C	0.655162	0.562694	0.572185
C35	C	0.552431	0.066749	0.072210
C36	C	1.052431	0.566749	0.572210
C37	C	0.631371	0.067557	0.072209
C38	C	1.131371	0.567557	0.572209
C39	C	0.631398	0.067564	-0.072328
C40	C	1.131398	0.567564	0.427672
C41	C	0.552463	0.066758	-0.072332
C42	C	1.052463	0.566758	0.427668
C43	C	0.512985	0.066347	-0.000061
C44	C	1.012985	0.566347	0.499939
C45	C	0.427393	0.065476	-0.000066
C46	C	0.927393	0.565476	0.499934
C47	C	0.359173	0.064783	-0.000076
C48	C	0.859173	0.564783	0.499924
C49	C	0.899868	-0.023252	-0.000051
C50	C	1.399868	0.476748	0.499949
C51	C	0.899018	-0.076912	-0.000043
C52	C	1.399018	0.423088	0.499957
C53	C	0.893680	-0.409645	-0.072349
C54	C	1.393680	0.090355	0.427651
C55	C	0.890453	-0.611315	-0.072363
C56	C	1.390453	-0.111315	0.427637
O57	O	0.890010	-0.637385	-0.133824
O58	O	1.390010	-0.137385	0.366176
N59	N	0.890044	-0.636536	-0.000096
N60	N	1.390044	-0.136536	0.499904
C61	C	0.890436	-0.611336	0.072179
C62	C	1.390436	-0.111336	0.572179
O63	O	0.890006	-0.637415	0.133646
O64	O	1.390006	-0.137415	0.633646
C65	C	0.893658	-0.409666	0.072192
C66	C	1.393658	0.090334	0.572192
C67	C	0.894075	-0.384449	-0.000079
C68	C	1.394075	0.115551	0.499921
C69	C	0.894096	-0.384427	-0.144615
C70	C	1.394096	0.115573	0.355385
C71	C	0.894907	-0.334013	-0.144611
C72	C	1.394907	0.165987	0.355389
C73	C	0.895301	-0.308817	-0.072341
C74	C	1.395301	0.191183	0.427659
C75	C	0.894885	-0.334035	-0.000075
C76	C	1.394885	0.165965	0.499925
C77	C	0.894045	-0.384467	0.144467
C78	C	1.394045	0.115533	0.644467
C79	C	0.894848	-0.334046	0.144464
C80	C	1.394848	0.165954	0.644464
C81	C	0.895265	-0.308828	0.072192
C82	C	1.395265	0.191172	0.572192
C83	C	0.896091	-0.258424	0.072199
C84	C	1.396091	0.241576	0.572199
N85	N	0.896500	-0.233203	-0.000068
N86	N	1.396500	0.266797	0.499932
C87	C	0.896105	-0.258399	-0.072338
C88	C	1.396105	0.241601	0.427662
C89	C	0.888746	-0.717215	0.072167
C90	C	1.388746	-0.217215	0.572167
C91	C	0.887942	-0.767633	0.072164
C92	C	1.387942	-0.267633	0.572164
C93	C	0.887957	-0.767608	-0.072378
C94	C	1.387957	-0.267608	0.427622
C95	C	0.888767	-0.717190	-0.072374
C96	C	1.388767	-0.217190	0.427626
C97	C	0.889155	-0.691994	-0.000100
C98	C	1.389155	-0.191994	0.499900
C99	C	0.897809	-0.152526	-0.072323
C100	C	1.397809	0.347474	0.427677
C101	C	0.898623	-0.102108	-0.072313
C102	C	1.398623	0.397892	0.427687
C103	C	0.898604	-0.102137	0.072229
C104	C	1.398604	0.397863	0.572229
C105	C	0.897794	-0.152551	0.072219
C106	C	1.397794	0.347449	0.572219
C107	C	0.897394	-0.177744	-0.000064
C108	C	1.397394	0.322256	0.499936
O109	O	0.896526	-0.232322	0.133628
O110	O	1.396526	0.267678	0.633628
O111	O	0.896519	-0.232310	-0.133796
O112	O	1.396519	0.267690	0.366204
C113	C	0.892869	-0.460059	-0.072353
C114	C	1.392869	0.039941	0.427647
C115	C	0.892453	-0.485277	-0.000088
C116	C	1.392453	0.014723	0.499912
C117	C	0.892848	-0.460081	0.072182
C118	C	1.392848	0.039919	0.572182
C119	C	0.891649	-0.535694	-0.000091
C120	C	1.391649	-0.035694	0.499909
C121	C	0.891254	-0.560890	-0.072361
C122	C	1.391254	-0.060890	0.427639
C123	C	0.891663	-0.535669	-0.144627
C124	C	1.391663	-0.035669	0.355373
C125	C	0.892474	-0.485255	-0.144623
C126	C	1.392474	0.014745	0.355377
C127	C	0.892439	-0.485302	0.144449
C128	C	1.392439	0.014698	0.644449
C129	C	0.891629	-0.535716	0.144439
C130	C	1.391629	-0.035716	0.644439
C131	C	0.891234	-0.560912	0.072169
C132	C	1.391234	-0.060912	0.572169
C133	C	1.031702	0.061442	-0.000080
C134	C	1.531702	0.561442	0.499920
C135	C	1.115711	0.062300	-0.000091
C136	C	1.615711	0.562300	0.499909
C137	C	0.886698	0.153512	-0.000092
C138	C	1.386698	0.653512	0.499908
C139	C	0.887547	0.207171	-0.000106
C140	C	1.387547	0.707171	0.499894
N141	N	0.893264	0.065122	0.206478
N142	N	1.393264	0.565122	0.706478
N143	N	0.893307	0.065133	-0.206620
N144	N	1.393307	0.565133	0.293380
C145	C	0.945128	0.032215	0.248200
C146	C	1.445128	0.532215	0.748200
C147	C	0.945132	0.032215	0.331652
C148	C	1.445132	0.532215	0.831652
C149	C	0.893276	0.065124	0.373381
C150	C	1.393276	0.565124	0.873381
C151	C	0.841406	0.098033	0.331653
C152	C	1.341406	0.598033	0.831653
C153	C	0.841399	0.098031	0.248202
C154	C	1.341399	0.598031	0.748202
C155	C	0.841434	0.098043	0.668200
C156	C	1.341434	0.598043	1.168200
C157	C	0.841446	0.098043	0.751657
C158	C	1.341446	0.598043	1.251657
C159	C	0.945167	0.032226	0.751650
C160	C	1.445167	0.532226	1.251650
C161	C	0.945160	0.032224	0.668199
C162	C	1.445160	0.532224	1.168199
C163	C	0.893288	0.065131	0.626479
C164	C	1.393288	0.565131	1.126479
C165	C	0.893283	0.065131	0.535991
C166	C	1.393283	0.565131	1.035991
C167	C	0.893284	0.065127	0.463868
C168	C	1.393284	0.565127	0.963868
H169	H	0.898964	-0.081578	-0.131168
H170	H	1.398964	0.418422	0.368832
C171	C	1.002220	-0.003977	0.797541
C172	C	1.502220	0.496023	1.297541
H173	H	1.033107	-0.023572	0.760736
H174	H	1.533107	0.476428	1.260736
H175	H	0.975243	-0.024079	0.830111
H176	H	1.475243	0.475921	1.330111
H177	H	1.033520	0.013391	0.830078
H178	H	1.533520	0.513391	1.330078
C179	C	0.784398	0.134250	0.622314
C180	C	1.284398	0.634250	1.122314
H181	H	0.791816	0.129537	0.566637
H182	H	1.291816	0.629537	1.066637
H183	H	0.792245	0.166501	0.635983
H184	H	1.292245	0.666501	1.135983
H185	H	0.733945	0.129046	0.636003
H186	H	1.233945	0.629046	1.136003
H187	H	0.987388	0.005428	0.634227
H188	H	1.487388	0.505428	1.134227
H189	H	0.895243	-0.313485	-0.203462
H190	H	1.395243	0.186515	0.296538
C191	C	0.891240	-0.563390	-0.224124
C192	C	1.391240	-0.063390	0.275876
H193	H	0.891610	-0.541154	-0.267170
H194	H	1.391610	-0.041154	0.232830
H195	H	0.846775	-0.579321	-0.227129
H196	H	1.346775	-0.079321	0.272871
H197	H	0.935086	-0.586795	-0.227120
H198	H	1.435086	-0.086795	0.272880
C199	C	1.002190	-0.003979	0.377543
C200	C	1.502190	0.496021	0.877543
H201	H	1.033080	-0.023573	0.340739
H202	H	1.533080	0.476427	0.840739
H203	H	0.975219	-0.024083	0.410116
H204	H	1.475219	0.475917	0.910116
H205	H	1.033485	0.013394	0.410077
H206	H	1.533485	0.513394	0.910077
H207	H	0.799216	0.124843	0.785631
H208	H	1.299216	0.624843	1.285631
H209	H	0.987359	0.005418	0.214230
H210	H	1.487359	0.505418	0.714230
H211	H	0.799180	0.124827	0.365633
H212	H	1.299180	0.624827	0.865633
C213	C	0.508944	0.066612	0.151700
C214	C	1.008944	0.566612	0.651700
H215	H	0.456263	0.066164	0.141352
H216	H	0.956263	0.566164	0.641352
H217	H	0.515924	0.095016	0.181060
H218	H	1.015924	0.595016	0.681060
H219	H	0.527788	0.038656	0.181727
H220	H	1.027788	0.538656	0.681727
H221	H	0.266227	0.063822	0.131033
H222	H	0.766227	0.563822	0.631033
C223	C	0.784352	0.134231	0.202308
C224	C	1.284352	0.634231	0.702308
H225	H	0.753474	0.153834	0.239111
H226	H	1.253474	0.653834	0.739111
H227	H	0.753055	0.116866	0.169771
H228	H	1.253055	0.616866	0.669771
H229	H	0.811336	0.154333	0.169738
H230	H	1.311336	0.654333	0.669738
H231	H	0.123074	0.062384	-0.131208
H232	H	0.623074	0.562384	0.368792
H233	H	0.663492	0.067882	0.131064
H234	H	1.163492	0.567882	0.631064
C235	C	0.277554	0.063958	-0.151845
C236	C	0.777554	0.563958	0.348155
H237	H	0.242750	0.063611	-0.194887
H238	H	0.742750	0.563611	0.305113
H239	H	0.314456	0.036096	-0.154847
H240	H	0.814456	0.536096	0.345153
H241	H	0.302237	0.092453	-0.154850
H242	H	0.802237	0.592453	0.345150
C243	C	0.111733	0.062250	0.151677
C244	C	0.611733	0.562250	0.651677
H245	H	0.146533	0.062608	0.194720
H246	H	0.646533	0.562608	0.694720
H247	H	0.087049	0.033759	0.154687
H248	H	0.587049	0.533759	0.654687
H249	H	0.074831	0.090116	0.154672
H250	H	0.574831	0.590116	0.654672
H251	H	0.520343	0.066435	-0.131183
H252	H	1.020343	0.566435	0.368817
C253	C	0.887490	-0.795367	0.151663
C254	C	1.387490	-0.295367	0.651663
H255	H	0.887833	-0.773136	0.194700
H256	H	1.387833	-0.273136	0.694700
H257	H	0.931327	-0.818775	0.154671
H258	H	1.431327	-0.318775	0.654671
H259	H	0.843016	-0.811294	0.154668
H260	H	1.343016	-0.311294	0.654668
H261	H	0.663551	0.067896	-0.131175
H262	H	1.163551	0.567896	0.368825
H263	H	0.892761	-0.464792	0.203301
H264	H	1.392761	0.035208	0.703301
C265	C	0.897390	-0.180233	-0.151832
C266	C	1.397390	0.319767	0.348168
H267	H	0.897765	-0.157989	-0.194865
H268	H	1.397765	0.342011	0.305135
H269	H	0.852928	-0.196165	-0.154857
H270	H	1.352928	0.303835	0.345143
H271	H	0.941239	-0.203636	-0.154831
H272	H	1.441239	0.296364	0.345169
H273	H	0.893771	-0.404936	-0.203469
H274	H	1.393771	0.095064	0.296531
C275	C	0.889218	-0.689454	-0.151872
C276	C	1.389218	-0.189454	0.348128
H277	H	0.888864	-0.711685	-0.194910
H278	H	1.388864	-0.211685	0.305090
H279	H	0.933683	-0.673523	-0.154882
H280	H	1.433683	-0.173523	0.345118
H281	H	0.845371	-0.666050	-0.154876
H282	H	1.345371	-0.166050	0.345124
H283	H	0.892813	-0.464727	-0.203474
H284	H	1.392813	0.035273	0.296526
H285	H	0.887637	-0.788131	-0.131223
H286	H	1.387637	-0.288131	0.368777
C287	C	0.889184	-0.689507	0.151675
C288	C	1.389184	-0.189507	0.651675
H289	H	0.888833	-0.711753	0.194707
H290	H	1.388833	-0.211753	0.694707
H291	H	0.845347	-0.666100	0.154694
H292	H	1.345347	-0.166100	0.654694
H293	H	0.933658	-0.673581	0.154678
H294	H	1.433658	-0.173581	0.654678
H295	H	0.893707	-0.404991	0.203318
H296	H	1.393707	0.095009	0.703318
C297	C	0.895279	-0.306334	0.223968
C298	C	1.395279	0.193666	0.723968
H299	H	0.894921	-0.328577	0.267004
H300	H	1.394921	0.171423	0.767004
H301	H	0.851442	-0.282926	0.226977
H302	H	1.351442	0.217074	0.726977
H303	H	0.939753	-0.290409	0.226976
H304	H	1.439753	0.209591	0.726976
H305	H	0.897461	-0.173085	0.131068
H306	H	1.397461	0.326915	0.631068
H307	H	0.898929	-0.081613	0.131069
H308	H	1.398929	0.418387	0.631069
H309	H	0.891295	-0.556244	0.203295
H310	H	1.391295	-0.056244	0.703295
