data_functionalizedCrystal
_audit_creation_method	'MofGen! by Chris Wilmer'
_symmetry_space_group_name_H-M	'P1'
_symmetry_Int_Tables_number	1
_symmetry_cell_setting	triclinic
loop_
_symmetry_equiv_pos_as_xyz
  x,y,z
_cell_length_a	14.519709
_cell_length_b	14.048226
_cell_length_c	14.971494
_cell_angle_alpha	89.995286
_cell_angle_beta	83.648851
_cell_angle_gamma	89.999158
loop_
_atom_site_label
_atom_site_type_symbol
_atom_site_fract_x
_atom_site_fract_y
_atom_site_fract_z
O1	O	1.223803	-0.079033	0.117252
O2	O	1.557137	0.254300	0.450585
O3	O	1.890470	0.587634	0.783919
O4	O	0.955319	-0.079062	0.131060
O5	O	1.288652	0.254272	0.464393
O6	O	1.621985	0.587605	0.797727
O7	O	1.096753	-0.079044	-0.006039
O8	O	1.430086	0.254289	0.327294
O9	O	1.763420	0.587622	0.660627
O10	O	1.082369	-0.079050	0.254352
O11	O	1.415702	0.254283	0.587685
O12	O	1.749036	0.587617	0.921018
O13	O	1.096736	0.079277	-0.006048
O14	O	1.430069	0.412610	0.327286
O15	O	1.763403	0.745944	0.660619
O16	O	0.955302	0.079260	0.131052
O17	O	1.288635	0.412593	0.464385
O18	O	1.621968	0.745926	0.797719
O19	O	1.223786	0.079288	0.117244
O20	O	1.557120	0.412622	0.450577
O21	O	1.890453	0.745955	0.783911
Zn22	Zn	1.089541	0.104411	0.124147
Zn23	Zn	1.422875	0.437744	0.457480
Zn24	Zn	1.756208	0.771078	0.790813
Zn25	Zn	1.089564	-0.104184	0.124157
Zn26	Zn	1.422897	0.229149	0.457491
Zn27	Zn	1.756230	0.562482	0.790824
O28	O	1.082352	0.079271	0.254343
O29	O	1.415685	0.412605	0.587677
O30	O	1.749019	0.745938	0.921010
C31	C	0.920951	0.000095	0.130412
C32	C	1.254284	0.333429	0.463746
C33	C	1.587617	0.666762	0.797079
C34	C	0.818571	0.000084	0.128484
C35	C	1.151904	0.333418	0.461817
C36	C	1.485237	0.666751	0.795151
N37	N	1.089533	0.246772	0.124139
N38	N	1.422866	0.580105	0.457472
N39	N	1.756199	0.913438	0.790805
N40	N	1.089580	-0.246545	0.124158
N41	N	1.422913	0.086788	0.457491
N42	N	1.756246	0.420122	0.790825
C43	C	0.443679	0.000128	0.121385
C44	C	0.777012	0.333461	0.454718
C45	C	1.110346	0.666794	0.788052
C46	C	0.547986	0.000115	0.123356
C47	C	0.881319	0.333449	0.456690
C48	C	1.214652	0.666782	0.790023
C49	C	0.631121	0.000105	0.124934
C50	C	0.964455	0.333439	0.458268
C51	C	1.297788	0.666772	0.791601
C52	C	0.735435	0.000095	0.126906
C53	C	1.068768	0.333428	0.460239
C54	C	1.402102	0.666761	0.793573
C55	C	1.258154	0.000129	0.117892
C56	C	1.591488	0.333463	0.451225
C57	C	1.924821	0.666796	0.784558
C58	C	1.360535	0.000134	0.119820
C59	C	1.693868	0.333467	0.453153
C60	C	2.027201	0.666801	0.786487
C61	C	1.096100	0.000115	-0.039368
C62	C	1.429433	0.333448	0.293965
C63	C	1.762767	0.666781	0.627298
C64	C	1.094168	0.000110	-0.138666
C65	C	1.427501	0.333443	0.194667
C66	C	1.760835	0.666777	0.528000
C67	C	1.152180	0.296597	0.063456
C68	C	1.485513	0.629931	0.396790
C69	C	1.818846	0.963264	0.730123
C70	C	1.152186	0.396255	0.063456
C71	C	1.485519	0.729588	0.396789
C72	C	1.818853	1.062922	0.730122
C73	C	1.089549	0.446085	0.124143
C74	C	1.422882	0.779418	0.457476
C75	C	1.756216	1.112752	0.790809
C76	C	1.026895	0.396252	0.184828
C77	C	1.360229	0.729586	0.518162
C78	C	1.693562	1.062919	0.851495
C79	C	1.026885	0.296597	0.184824
C80	C	1.360219	0.629930	0.518157
C81	C	1.693552	0.963263	0.851490
C82	C	1.026922	0.603967	0.184835
C83	C	1.360255	0.937300	0.518168
C84	C	1.693589	1.270633	0.851501
C85	C	1.026933	0.703629	0.184841
C86	C	1.360266	1.036963	0.518174
C87	C	1.693599	1.370296	0.851507
C88	C	1.152222	0.703625	0.063467
C89	C	1.485556	1.036958	0.396800
C90	C	1.818889	1.370292	0.730134
C91	C	1.152212	0.603969	0.063462
C92	C	1.485546	0.937303	0.396796
C93	C	1.818879	1.270636	0.730129
C94	C	1.089560	0.554143	0.124149
C95	C	1.422893	0.887477	0.457482
C96	C	1.756226	1.220810	0.790816
C97	C	1.093272	-0.086192	-0.185307
C98	C	1.426605	0.247141	0.148026
C99	C	1.759939	0.580475	0.481360
C100	C	1.091451	-0.086193	-0.278607
C101	C	1.424784	0.247140	0.054726
C102	C	1.758117	0.580473	0.388060
C103	C	1.090532	0.000108	-0.325265
C104	C	1.423866	0.333442	0.008068
C105	C	1.757199	0.666775	0.341401
C106	C	1.091426	0.086417	-0.278618
C107	C	1.424759	0.419751	0.054716
C108	C	1.758093	0.753084	0.388049
C109	C	1.093240	0.086418	-0.185319
C110	C	1.426574	0.419751	0.148015
C111	C	1.759907	0.753084	0.481348
C112	C	1.087646	0.086410	-0.473083
C113	C	1.420979	0.419744	-0.139750
C114	C	1.754313	0.753077	0.193584
C115	C	1.085833	0.086410	-0.566389
C116	C	1.419167	0.419744	-0.233056
C117	C	1.752500	0.753077	0.100278
C118	C	1.085856	-0.086201	-0.566372
C119	C	1.419190	0.247133	-0.233038
C120	C	1.752523	0.580466	0.100295
C121	C	1.087671	-0.086200	-0.473072
C122	C	1.421004	0.247133	-0.139739
C123	C	1.754338	0.580466	0.193594
C124	C	1.088566	0.000109	-0.426431
C125	C	1.421899	0.333442	-0.093098
C126	C	1.755233	0.666776	0.240235
C127	C	1.083005	0.000110	0.287672
C128	C	1.416338	0.333443	0.621006
C129	C	1.749672	0.666777	0.954339
C130	C	1.084937	0.000108	0.386970
C131	C	1.418270	0.333442	0.720304
C132	C	1.751604	0.666775	1.053637
H133	H	1.203190	0.256032	0.014042
H134	H	1.536523	0.589366	0.347375
H135	H	1.869856	0.922699	0.680708
C136	C	1.094282	-0.181132	-0.133991
C137	C	1.427615	0.152201	0.199342
C138	C	1.760949	0.485534	0.532675
N139	N	1.095038	-0.252645	-0.095342
N140	N	1.428372	0.080689	0.237991
N141	N	1.761705	0.414022	0.571324
H142	H	1.090725	-0.156469	-0.316578
H143	H	1.424058	0.176864	0.016755
H144	H	1.757392	0.510197	0.350088
C145	C	1.088685	-0.181136	-0.421750
C146	C	1.422018	0.152197	-0.088417
C147	C	1.755352	0.485530	0.244916
N148	N	1.089446	-0.252644	-0.383094
N149	N	1.422779	0.080689	-0.049761
N150	N	1.756113	0.414023	0.283572
H151	H	1.203197	0.436823	0.014043
H152	H	1.536530	0.770156	0.347376
H153	H	1.869864	1.103489	0.680710
C154	C	0.957976	0.241789	0.251586
C155	C	1.291310	0.575122	0.584920
C156	C	1.624643	0.908456	0.918253
N157	N	0.906072	0.200509	0.301875
N158	N	1.239406	0.533842	0.635208
N159	N	1.572739	0.867176	0.968541
C160	C	1.221138	0.758435	-0.003293
C161	C	1.554471	1.091769	0.330041
C162	C	1.887804	1.425102	0.663374
N163	N	1.273044	0.799723	-0.053572
N164	N	1.606378	1.133056	0.279761
N165	N	1.939711	1.466389	0.613094
C166	C	0.958024	0.758441	0.251594
C167	C	1.291357	1.091774	0.584927
C168	C	1.624690	1.425107	0.918261
N169	N	0.906119	0.799725	0.301873
N170	N	1.239452	1.133058	0.635206
N171	N	1.572786	1.466391	0.968539
C172	C	1.084866	-0.181142	-0.617678
C173	C	1.418199	0.152192	-0.284344
C174	C	1.751533	0.485525	0.048989
N175	N	1.084122	-0.252649	-0.656326
N176	N	1.417456	0.080685	-0.322993
N177	N	1.750789	0.414018	0.010341
C178	C	1.221116	0.549158	-0.003296
C179	C	1.554450	0.882491	0.330037
C180	C	1.887783	1.215825	0.663370
N181	N	1.273013	0.507874	-0.053583
N182	N	1.606347	0.841208	0.279751
N183	N	1.939680	1.174541	0.613084
H184	H	1.085078	0.156685	-0.604375
H185	H	1.418411	0.490018	-0.271041
H186	H	1.751744	0.823352	0.062292
C187	C	0.957985	0.451069	0.251576
C188	C	1.291319	0.784403	0.584910
C189	C	1.624652	1.117736	0.918243
N190	N	0.906080	0.492356	0.301852
N191	N	1.239414	0.825690	0.635185
N192	N	1.572747	1.159023	0.968519
C193	C	1.088634	0.181356	-0.421781
C194	C	1.421968	0.514689	-0.088447
C195	C	1.755301	0.848022	0.244886
N196	N	1.089385	0.252867	-0.383140
N197	N	1.422718	0.586200	-0.049807
N198	N	1.756052	0.919534	0.283526
C199	C	1.094229	0.181357	-0.134015
C200	C	1.427562	0.514690	0.199319
C201	C	1.760896	0.848023	0.532652
N202	N	1.094971	0.252868	-0.095373
N203	N	1.428305	0.586201	0.237960
N204	N	1.761638	0.919535	0.571293
H205	H	1.090673	0.156686	-0.316614
H206	H	1.424006	0.490019	0.016720
H207	H	1.757339	0.823352	0.350053
H208	H	0.975900	0.563402	0.234250
H209	H	1.309234	0.896735	0.567583
H210	H	1.642567	1.230069	0.900916
