data_functionalizedCrystal
_audit_creation_method	'MofGen! by Chris Wilmer'
_symmetry_space_group_name_H-M	'P1'
_symmetry_Int_Tables_number	1
_symmetry_cell_setting	triclinic
loop_
_symmetry_equiv_pos_as_xyz
  x,y,z
_cell_length_a	14.519731
_cell_length_b	18.266242
_cell_length_c	14.519709
_cell_angle_alpha	89.993935
_cell_angle_beta	96.315501
_cell_angle_gamma	90.009033
loop_
_atom_site_label
_atom_site_type_symbol
_atom_site_fract_x
_atom_site_fract_y
_atom_site_fract_z
O1	O	1.223861	0.060884	-0.120985
O2	O	0.955387	0.060885	-0.135201
O3	O	1.096742	0.060878	0.006145
O4	O	1.082506	0.060891	-0.262331
O5	O	1.096718	-0.060884	0.006149
O6	O	0.955363	-0.060877	-0.135197
O7	O	1.223837	-0.060878	-0.120981
Zn8	Zn	1.089596	-0.080210	-0.128088
Zn9	Zn	1.089628	0.080217	-0.128093
O10	O	1.082482	-0.060871	-0.262326
C11	C	0.921016	0.000005	-0.134532
C12	C	0.818635	0.000005	-0.132536
C13	C	0.735491	0.000008	-0.130915
C14	C	0.631182	0.000008	-0.128888
C15	C	0.548043	0.000008	-0.127280
C16	C	0.443728	0.000009	-0.125253
N17	N	1.089581	-0.189696	-0.128084
C18	C	1.145596	-0.227997	-0.184151
C19	C	1.145612	-0.304642	-0.184149
C20	C	1.089595	-0.342983	-0.128089
C21	C	1.033576	-0.304674	-0.072010
C22	C	1.033569	-0.228031	-0.072007
N23	N	1.008816	-0.463336	-0.125431
N24	N	1.008825	-0.536144	-0.125439
C25	C	1.089613	-0.573906	-0.128093
N26	N	1.170393	-0.536109	-0.130756
N27	N	1.170383	-0.463294	-0.130753
C28	C	1.089596	-0.426090	-0.128086
C29	C	1.145650	-0.695313	-0.184161
C30	C	1.145667	-0.771959	-0.184152
C31	C	1.033623	-0.771990	-0.072018
C32	C	1.033614	-0.695346	-0.072022
C33	C	1.089626	-0.657011	-0.128098
C34	C	1.258209	0.000005	-0.121649
C35	C	1.360589	0.000009	-0.123645
C36	C	1.096067	-0.000003	0.040507
C37	C	1.094079	-0.000003	0.142889
N38	N	1.089650	0.189704	-0.128090
C39	C	1.083157	0.000012	-0.296688
C40	C	1.085146	0.000017	-0.399070
C41	C	1.086759	0.000016	0.517785
C42	C	1.088792	0.000010	0.413477
C43	C	1.090419	0.000005	0.330340
C44	C	1.092452	0.000001	0.226025
H45	H	1.191226	-0.335832	-0.229808
H46	H	0.987953	-0.196847	-0.026349
C47	C	0.972004	-0.814157	-0.010354
H48	H	0.980026	-0.865289	-0.018389
H49	H	0.989034	-0.801600	0.052708
H50	H	0.908931	-0.801607	-0.027352
H51	H	0.987968	-0.335897	-0.026365
H52	H	1.191287	-0.803142	-0.229806
H53	H	1.191258	-0.664100	-0.229821
C54	C	1.207215	-0.185830	-0.245821
H55	H	1.199187	-0.134697	-0.237795
H56	H	1.270284	-0.198384	-0.228833
H57	H	1.190176	-0.198385	-0.308887
H58	H	0.987996	-0.664161	-0.026369
