data_functionalizedCrystal
_audit_creation_method	'MofGen! by Chris Wilmer'
_symmetry_space_group_name_H-M	'P1'
_symmetry_Int_Tables_number	1
_symmetry_cell_setting	triclinic
loop_
_symmetry_equiv_pos_as_xyz
  x,y,z
_cell_length_a	16.992694
_cell_length_b	16.974959
_cell_length_c	15.455313
_cell_angle_alpha	96.307475
_cell_angle_beta	87.142206
_cell_angle_gamma	87.028296
loop_
_atom_site_label
_atom_site_type_symbol
_atom_site_fract_x
_atom_site_fract_y
_atom_site_fract_z
O1	O	1.043106	0.164928	-0.060460
O2	O	0.814829	0.163082	-0.060615
O3	O	0.935708	0.048945	-0.068597
O4	O	0.922227	0.279065	-0.052478
O5	O	0.928796	0.055443	0.076119
O6	O	0.807917	0.169580	0.084101
O7	O	1.036193	0.171426	0.084256
Cu8	Cu	0.921424	0.171097	0.097393
Cu9	Cu	0.929599	0.163412	-0.073752
O10	O	0.915315	0.285564	0.092238
C11	C	0.782171	0.163957	0.011573
C12	C	0.695158	0.156875	0.011067
C13	C	0.931865	0.022612	0.001687
C14	C	0.930701	-0.065532	-0.004493
C15	C	0.644621	0.225204	0.015854
C16	C	0.562863	0.218546	0.015400
C17	C	0.531644	0.143558	0.010152
C18	C	0.582188	0.075224	0.005368
C19	C	0.663944	0.081883	0.005828
C20	C	0.288165	0.115958	0.008242
C21	C	0.206402	0.109304	0.007779
C22	C	0.187083	0.252627	0.017813
C23	C	0.268842	0.259279	0.018268
C24	C	0.319378	0.190945	0.013488
N25	N	0.448074	0.136750	0.009685
N26	N	0.402946	0.197754	0.013962
C27	C	0.924633	-0.562077	-0.047845
C28	C	0.925717	-0.479255	-0.042021
C29	C	0.922486	-0.434318	0.039777
C30	C	0.918177	-0.472207	0.115755
C31	C	0.917098	-0.555028	0.109929
C32	C	0.925314	-0.186242	0.065659
C33	C	0.926391	-0.103415	0.071479
C34	C	0.933932	-0.110469	-0.086298
C35	C	0.932848	-0.193291	-0.092116
C36	C	0.928544	-0.231173	-0.016138
N37	N	0.923592	-0.349660	0.045733
N38	N	0.927443	-0.315830	-0.022095
C39	C	1.068852	0.170551	0.012066
C40	C	1.155865	0.177633	0.012566
C41	C	0.919158	0.311896	0.021952
C42	C	0.920322	0.400040	0.028127
N43	N	0.915680	0.176502	0.217766
N44	N	0.935349	0.158001	-0.194126
C45	C	0.967051	0.128032	0.259771
C46	C	0.962715	0.132127	0.350865
C47	C	0.907010	0.184697	0.399953
C48	C	0.855634	0.233168	0.357943
C49	C	0.859967	0.229068	0.266850
C50	C	0.888306	0.202372	0.672771
C51	C	0.883978	0.206470	0.763870
C52	C	0.991058	0.105428	0.756786
C53	C	0.995390	0.101336	0.665692
C54	C	0.944011	0.149804	0.623689
N55	N	0.902578	0.188886	0.493066
N56	N	0.948440	0.145611	0.530577
H57	H	0.521718	0.274187	0.019297
C58	C	0.302852	0.340644	0.024072
C59	C	0.345711	0.352003	0.099058
C60	C	0.377068	0.426939	0.104410
H61	H	0.261132	0.380472	0.026900
H62	H	0.336784	0.343936	-0.025991
H63	H	0.311781	0.348718	0.149108
H64	H	0.387442	0.312194	0.096247
H65	H	0.411000	0.430232	0.054348
H66	H	0.335344	0.466761	0.107235
H67	H	0.406157	0.434653	0.155283
H68	H	1.032888	0.065966	0.790993
H69	H	0.329302	0.060315	0.004351
C70	C	0.928255	-0.610961	-0.136604
C71	C	0.995279	-0.663370	-0.144875
C72	C	0.998637	-0.708416	-0.226627
H73	H	0.931020	-0.576625	-0.181089
H74	H	0.882304	-0.640317	-0.141958
H75	H	1.041219	-0.634016	-0.139530
H76	H	0.992528	-0.697722	-0.100410
H77	H	0.952685	-0.737772	-0.231981
H78	H	1.001400	-0.674073	-0.271105
H79	H	1.044108	-0.743985	-0.232247
H80	H	0.929229	-0.448414	-0.103885
H81	H	0.145928	0.308260	0.021706
H82	H	0.180988	0.048236	0.003505
C83	C	0.548146	-0.006124	-0.000368
C84	C	0.465731	0.002665	0.000228
C85	C	0.434348	-0.072257	-0.005069
H86	H	0.563024	-0.032277	0.048094
H87	H	0.567876	-0.036755	-0.052841
H88	H	0.446008	0.033283	0.052695
H89	H	0.450831	0.028804	-0.048231
H90	H	0.454078	-0.102888	-0.057542
H91	H	0.449232	-0.098404	0.043394
H92	H	0.378427	-0.066304	-0.004674
H93	H	0.670032	0.286267	0.020127
C94	C	0.920476	-0.227440	0.148088
C95	C	0.852198	-0.270140	0.149639
C96	C	0.847703	-0.308104	0.225563
H97	H	0.918647	-0.188884	0.197690
H98	H	0.965571	-0.262797	0.148928
H99	H	0.807114	-0.234786	0.148808
H100	H	0.854011	-0.308709	0.100054
H101	H	0.892798	-0.343462	0.226402
H102	H	0.845877	-0.269543	0.275159
H103	H	0.801381	-0.337087	0.226621
H104	H	1.040749	0.058530	0.625725
H105	H	0.705092	0.026242	0.001930
C106	C	0.936457	-0.241945	-0.181007
C107	C	0.940508	-0.191043	-0.246296
C108	C	0.943863	-0.235837	-0.328194
H109	H	0.890519	-0.271287	-0.186508
H110	H	0.981937	-0.277510	-0.186779
H111	H	0.895033	-0.155492	-0.240528
H112	H	0.986444	-0.161700	-0.240824
H113	H	0.989343	-0.271402	-0.333966
H114	H	0.897924	-0.265177	-0.333686
H115	H	0.946619	-0.201307	-0.372503
H116	H	0.923735	-0.066828	0.138091
C117	C	0.938484	-0.069229	-0.168713
C118	C	0.871897	-0.017236	-0.169657
C119	C	0.876069	0.020773	-0.245563
H120	H	0.940218	-0.107765	-0.218327
H121	H	0.984748	-0.040162	-0.169941
H122	H	0.825646	-0.046301	-0.168437
H123	H	0.870150	0.021315	-0.120061
H124	H	0.922333	0.049839	-0.246791
H125	H	0.877805	-0.017769	-0.295171
H126	H	0.830895	0.056059	-0.246210
C127	C	0.912373	-0.596012	0.192515
C128	C	0.909752	-0.538933	0.265398
C129	C	0.905392	-0.576656	0.341493
H130	H	0.957487	-0.631314	0.193433
H131	H	0.866066	-0.625011	0.193783
H132	H	0.956054	-0.509947	0.264131
H133	H	0.864640	-0.503628	0.264510
H134	H	0.859086	-0.605655	0.342761
H135	H	0.950507	-0.611956	0.342401
H136	H	0.903606	-0.537933	0.390953
C137	C	1.027560	0.070876	0.206630
C138	C	1.071605	0.029290	0.262917
C139	C	1.127345	-0.023380	0.213997
H140	H	1.061831	0.099806	0.173221
H141	H	1.001218	0.034414	0.168680
H142	H	1.097947	0.065746	0.300851
H143	H	1.037356	0.000344	0.296326
H144	H	1.101002	-0.059841	0.176047
H145	H	1.161611	0.005556	0.180590
H146	H	1.157232	-0.051607	0.252180
H147	H	0.915551	-0.435613	0.182356
H148	H	1.004545	0.092659	0.385064
C149	C	0.832486	0.255092	0.627339
C150	C	0.782793	0.302023	0.689830
C151	C	0.731367	0.350609	0.648008
H152	H	0.801594	0.222964	0.589672
H153	H	0.862205	0.288357	0.594255
H154	H	0.753076	0.268762	0.722899
H155	H	0.813663	0.334168	0.727500
H156	H	0.761086	0.383874	0.614923
H157	H	0.700481	0.318474	0.610342
H158	H	0.697649	0.382462	0.690401
C159	C	0.795110	0.290119	0.411341
C160	C	0.744841	0.247154	0.460494
C161	C	0.689085	0.299593	0.509703
H162	H	0.765053	0.318421	0.373379
H163	H	0.821450	0.326528	0.449355
H164	H	0.718503	0.210759	0.422484
H165	H	0.774876	0.218854	0.498472
H166	H	0.715425	0.336002	0.547717
H167	H	0.659033	0.327893	0.471734
H168	H	0.654975	0.270450	0.543065
H169	H	0.838614	0.249282	0.803834
H170	H	0.818134	0.268536	0.232651
