data_functionalizedCrystal
_audit_creation_method	'MofGen! by Chris Wilmer'
_symmetry_space_group_name_H-M	'P1'
_symmetry_Int_Tables_number	1
_symmetry_cell_setting	triclinic
loop_
_symmetry_equiv_pos_as_xyz
  x,y,z
_cell_length_a	10.489741
_cell_length_b	10.489741
_cell_length_c	9.565339
_cell_angle_alpha	89.999484
_cell_angle_beta	89.999100
_cell_angle_gamma	95.460826
loop_
_atom_site_label
_atom_site_type_symbol
_atom_site_fract_x
_atom_site_fract_y
_atom_site_fract_z
O1	O	1.694053	-0.179959	-0.116173
O2	O	1.322857	-0.196852	-0.116194
O3	O	1.516901	-0.002807	-0.116175
O4	O	1.500009	-0.374003	-0.116192
O5	O	1.516886	-0.002819	0.116345
O6	O	1.322842	-0.196864	0.116326
O7	O	1.694038	-0.179971	0.116347
Zn8	Zn	1.508437	-0.188419	0.153254
Zn9	Zn	1.508458	-0.188403	-0.153101
O10	O	1.499993	-0.374015	0.116328
C11	C	1.275318	-0.195582	0.000063
C12	C	1.133688	-0.191765	0.000055
C13	C	1.515618	0.044718	0.000084
C14	C	1.511801	0.186348	0.000082
C15	C	1.065548	-0.068300	0.000074
C16	C	0.973429	-0.126617	-0.114571
C17	C	0.973448	-0.126659	0.114676
C18	C	1.043435	-0.250133	-0.114684
C19	C	1.043463	-0.250157	0.114665
C20	C	0.951371	-0.308564	-0.000007
C21	C	1.741577	-0.181241	0.000087
C22	C	1.883206	-0.185058	0.000086
C23	C	1.501277	-0.421541	0.000066
C24	C	1.505094	-0.563170	0.000059
N25	N	1.508433	-0.188429	0.362334
C26	C	1.388336	0.254488	0.000064
C27	C	1.446652	0.346604	0.114712
C28	C	1.446696	0.346591	-0.114534
C29	C	1.570168	0.276599	0.114824
C30	C	1.570195	0.276576	-0.114525
C31	C	1.628600	0.368665	0.000150
N32	N	1.508472	-0.188383	-0.362180
C33	C	1.418666	-0.278138	0.453528
C34	C	1.534163	-0.303949	0.546712
C35	C	1.392986	-0.162629	0.546704
C36	C	1.623988	-0.214298	0.453466
C37	C	1.482735	-0.072928	0.453451
C38	C	1.598314	-0.098690	0.546593
H39	H	1.115238	0.033196	-0.000065
H40	H	1.286824	0.204837	0.000174
O41	O	0.932329	-0.057420	-0.242945
H42	H	0.978468	0.042295	-0.242706
H43	H	0.901947	-0.410168	-0.000074
O44	O	1.084265	-0.319224	-0.243251
H45	H	1.189838	-0.321457	-0.242292
O46	O	1.377478	0.387645	-0.242915
H47	H	1.443337	0.453881	-0.305932
O48	O	1.084590	-0.319303	0.243052
H49	H	1.132428	-0.404547	0.210795
O50	O	1.377462	0.387679	0.243104
H51	H	1.277750	0.341533	0.242868
O52	O	1.639292	0.235770	0.243368
H53	H	1.641539	0.130198	0.242397
O54	O	1.562949	-0.433314	0.600986
H55	H	1.658069	-0.455389	0.562035
O56	O	0.932411	-0.057457	0.243077
H57	H	0.978580	0.042246	0.242829
H58	H	1.295338	-0.140828	0.587664
H59	H	1.730204	0.418089	0.000220
O60	O	1.753367	-0.243326	0.399451
H61	H	1.817673	-0.257681	0.489075
O62	O	1.453864	0.056393	0.399145
H63	H	1.535689	0.098443	0.335314
O64	O	1.698991	0.001828	0.600411
H65	H	1.794687	-0.019880	0.562869
H66	H	1.622398	0.245536	-0.211451
H67	H	1.342823	-0.354073	0.412665
