data_functionalizedCrystal
_audit_creation_method	'MofGen! by Chris Wilmer'
_symmetry_space_group_name_H-M	'P1'
_symmetry_Int_Tables_number	1
_symmetry_cell_setting	triclinic
loop_
_symmetry_equiv_pos_as_xyz
  x,y,z
_cell_length_a	12.759401
_cell_length_b	12.759400
_cell_length_c	18.215399
_cell_angle_alpha	90.022773
_cell_angle_beta	90.017882
_cell_angle_gamma	90.016745
loop_
_atom_site_label
_atom_site_type_symbol
_atom_site_fract_x
_atom_site_fract_y
_atom_site_fract_z
Zn1	Zn	1.606231	-0.418234	0.416104
Zn2	Zn	1.606130	-0.593932	0.293049
Zn3	Zn	1.430539	-0.418272	0.293056
Zn4	Zn	1.430520	-0.593876	0.416078
O5	O	1.518355	-0.506079	0.354572
O6	O	1.753238	-0.441548	0.399789
O7	O	1.582803	-0.570669	0.190065
O8	O	1.453895	-0.271246	0.309392
O9	O	1.753164	-0.570632	0.309381
O10	O	1.582975	-0.271218	0.399795
O11	O	1.453797	-0.441613	0.190070
O12	O	1.283515	-0.441559	0.309367
O13	O	1.453863	-0.570538	0.519066
O14	O	1.283501	-0.570575	0.399751
O15	O	1.582957	-0.441495	0.519085
O16	O	1.582784	-0.740945	0.309355
O17	O	1.453765	-0.740905	0.399744
C18	C	1.245388	-0.506066	0.354557
C19	C	1.128611	-0.506086	0.354568
C20	C	1.518290	-0.779046	0.354562
C21	C	1.518358	-0.895823	0.354583
C22	C	1.451228	-1.060433	0.401623
C23	C	1.451165	-0.950709	0.401613
C24	C	1.585626	-0.950666	0.307566
C25	C	1.585694	-1.060388	0.307580
C26	C	1.413465	-0.800720	0.488362
C27	C	1.346187	-0.745880	0.535370
C28	C	1.243686	-0.781574	0.546611
C29	C	1.208440	-0.872106	0.510832
C30	C	1.275712	-0.926940	0.463818
C31	C	1.378228	-0.891248	0.452591
C32	C	1.623384	-1.210379	0.220830
C33	C	1.690651	-1.265215	0.173812
C34	C	1.793154	-1.229523	0.162564
C35	C	1.828395	-1.138988	0.198330
C36	C	1.761128	-1.084152	0.245348
C37	C	1.658626	-1.119851	0.256597
C38	C	1.073769	-0.573366	0.401557
C39	C	0.964045	-0.573370	0.401572
C40	C	0.964014	-0.438810	0.307602
C41	C	1.073736	-0.438801	0.307592
C42	C	0.814142	-0.611082	0.488333
C43	C	0.759297	-0.678379	0.535316
C44	C	0.794893	-0.780911	0.546489
C45	C	0.885332	-0.816168	0.510669
C46	C	0.940172	-0.748876	0.463681
C47	C	0.904578	-0.646329	0.452522
C48	C	1.223641	-0.401101	0.220829
C49	C	1.278483	-0.333814	0.173837
C50	C	1.242889	-0.231280	0.162656
C51	C	1.152446	-0.196027	0.198463
C52	C	1.097604	-0.263314	0.245455
C53	C	1.133206	-0.365847	0.256637
C54	C	1.792388	-0.506092	0.354587
C55	C	1.909165	-0.506098	0.354593
C56	C	1.518419	-0.506006	0.546525
C57	C	1.518446	-0.505975	0.628324
C58	C	1.518449	-0.232045	0.354597
C59	C	1.518489	-0.115269	0.354608
C60	C	1.518352	-0.506075	0.163365
C61	C	1.518528	-0.505810	0.081567
C62	C	1.585690	-0.438720	0.816529
C63	C	1.585702	-0.438689	0.893388
C64	C	1.451277	-0.573069	0.893356
C65	C	1.451260	-0.573093	0.816499
C66	C	1.518472	-0.505920	0.778087
C67	C	1.518502	-0.505865	0.931803
C68	C	1.518515	-0.505832	1.015137
C69	C	1.518458	-0.505951	0.694748
H70	H	1.396512	-1.105113	0.439921
H71	H	0.750230	-0.835705	0.584744
N72	N	1.652639	-1.362861	0.135231
H73	H	1.631142	-1.416837	0.172875
H74	H	1.710843	-1.392089	0.103735
N75	N	1.237704	-1.024576	0.425229
H76	H	1.216188	-1.078548	0.462870
H77	H	1.295914	-1.053812	0.393742
H78	H	1.396557	-0.627761	0.924641
N79	N	1.799147	-0.986507	0.283928
H80	H	1.794620	-0.996867	0.338803
H81	H	1.753976	-0.925066	0.269104
N82	N	0.661753	-0.640359	0.573948
H83	H	0.647528	-0.565187	0.559749
H84	H	0.672255	-0.645038	0.628807
H85	H	1.124974	-0.901164	0.519991
H86	H	1.640436	-0.383966	0.924683
N87	N	1.171117	-0.722424	0.597305
H88	H	1.208994	-0.659656	0.618261
H89	H	1.148188	-0.769988	0.638597
N90	N	1.114041	-0.085439	0.186404
H91	H	1.162507	-0.048161	0.151203
H92	H	1.112930	-0.046855	0.234820
H93	H	1.252637	-0.484590	0.229935
H94	H	1.396516	-0.627815	0.785199
H95	H	1.013806	-0.777581	0.434517
H96	H	1.118445	-0.628151	0.439810
H97	H	1.374894	-0.672168	0.564501
H98	H	1.496934	-0.771658	0.479223
H99	H	1.640342	-0.905972	0.269276
H100	H	1.911861	-1.109923	0.189168
N101	N	1.302030	-0.158706	0.111964
H102	H	1.364723	-0.196595	0.090969
H103	H	1.326427	-0.095210	0.140347
N104	N	0.775749	-0.500489	0.476283
H105	H	0.774644	-0.461829	0.524672
H106	H	0.702678	-0.502430	0.454994
N107	N	0.904820	-0.366271	0.256921
H108	H	0.859311	-0.317643	0.286880
H109	H	0.859339	-0.409008	0.222787
N110	N	1.865700	-1.288664	0.111843
H111	H	1.875175	-1.362578	0.130520
H112	H	1.935940	-1.252230	0.110166
N113	N	1.512825	-1.248883	0.232970
H114	H	1.500705	-1.314552	0.203173
H115	H	1.461603	-1.192954	0.217125
N116	N	0.923712	-0.926768	0.522707
H117	H	0.875248	-0.964047	0.557908
H118	H	0.996818	-0.924849	0.543938
H119	H	1.023966	-0.234600	0.274616
H120	H	1.640415	-0.384020	0.785256
N121	N	1.376031	-0.371833	0.135212
H122	H	1.390267	-0.446997	0.149429
H123	H	1.437523	-0.326653	0.150006
