data_functionalizedCrystal
_audit_creation_method	'MofGen! by Chris Wilmer'
_symmetry_space_group_name_H-M	'P1'
_symmetry_Int_Tables_number	1
_symmetry_cell_setting	triclinic
loop_
_symmetry_equiv_pos_as_xyz
  x,y,z
_cell_length_a	11.792241
_cell_length_b	11.792254
_cell_length_c	7.540329
_cell_angle_alpha	89.996229
_cell_angle_beta	90.001242
_cell_angle_gamma	84.196007
loop_
_atom_site_label
_atom_site_type_symbol
_atom_site_fract_x
_atom_site_fract_y
_atom_site_fract_z
O1	O	1.506913	0.155565	-0.147311
O2	O	1.840247	0.488899	0.186022
O3	O	2.173580	0.822232	0.519356
O4	O	1.176573	0.171598	-0.147352
O5	O	1.509906	0.504931	0.185981
O6	O	1.843240	0.838265	0.519314
O7	O	1.349752	-0.001588	-0.147318
O8	O	1.683086	0.331745	0.186015
O9	O	2.016419	0.665079	0.519348
O10	O	1.333734	0.328751	-0.147345
O11	O	1.667068	0.662085	0.185988
O12	O	2.000401	0.995418	0.519321
O13	O	1.349742	-0.001590	0.147647
O14	O	1.683075	0.331743	0.480980
O15	O	2.016409	0.665077	0.814314
O16	O	1.176563	0.171596	0.147613
O17	O	1.509896	0.504929	0.480946
O18	O	1.843229	0.838263	0.814279
O19	O	1.506903	0.155563	0.147654
O20	O	1.840236	0.488896	0.480987
O21	O	2.173570	0.822230	0.814321
Cu22	Cu	1.341732	0.163579	0.174566
Cu23	Cu	1.675065	0.496913	0.507899
Cu24	Cu	2.008399	0.830246	0.841233
Cu25	Cu	1.341744	0.163582	-0.174264
Cu26	Cu	1.675078	0.496915	0.159069
Cu27	Cu	2.008411	0.830249	0.492402
O28	O	1.333724	0.328749	0.147620
O29	O	1.667057	0.662082	0.480953
O30	O	2.000391	0.995416	0.814286
C31	C	1.134277	0.170590	0.000125
C32	C	1.467610	0.503923	0.333458
C33	C	1.800944	0.837257	0.666792
C34	C	1.008263	0.167576	0.000109
C35	C	1.341596	0.500909	0.333443
C36	C	1.674930	0.834242	0.666776
C37	C	1.348738	-0.043880	0.000164
C38	C	1.682071	0.289454	0.333497
C39	C	2.015405	0.622787	0.666830
C40	C	1.345718	-0.169893	0.000162
C41	C	1.679051	0.163441	0.333495
C42	C	2.012385	0.496774	0.666828
C43	C	0.777551	0.162033	0.000161
C44	C	1.110884	0.495366	0.333494
C45	C	1.444217	0.828699	0.666827
C46	C	0.905936	0.165112	0.000133
C47	C	1.239269	0.498446	0.333466
C48	C	1.572603	0.831779	0.666799
C49	C	1.343264	-0.272229	0.000155
C50	C	1.676597	0.061104	0.333488
C51	C	2.009931	0.394437	0.666822
C52	C	1.340196	-0.400616	0.000138
C53	C	1.673529	-0.067283	0.333472
C54	C	2.006862	0.266051	0.666805
C55	C	1.549199	0.156571	0.000173
C56	C	1.882533	0.489905	0.333506
C57	C	2.215866	0.823238	0.666839
C58	C	1.675213	0.159586	0.000177
C59	C	2.008546	0.492919	0.333510
C60	C	2.341880	0.826252	0.666843
C61	C	1.334738	0.371041	0.000134
C62	C	1.668071	0.704374	0.333467
C63	C	2.001405	1.037708	0.666801
C64	C	1.337758	0.497054	0.000124
C65	C	1.671092	0.830387	0.333458
C66	C	2.004425	1.163721	0.666791
N67	N	1.341732	0.163577	0.419914
N68	N	1.675065	0.496910	0.753248
N69	N	2.008398	0.830244	1.086581
N70	N	1.341754	0.163575	-0.419613
N71	N	1.675087	0.496909	-0.086280
N72	N	2.008420	0.830242	0.247054
