data_functionalizedCrystal
_audit_creation_method	'MofGen! by Chris Wilmer'
_symmetry_space_group_name_H-M	'P1'
_symmetry_Int_Tables_number	1
_symmetry_cell_setting	triclinic
loop_
_symmetry_equiv_pos_as_xyz
  x,y,z
_cell_length_a	14.853567
_cell_length_b	10.654550
_cell_length_c	13.330367
_cell_angle_alpha	90.002214
_cell_angle_beta	89.995281
_cell_angle_gamma	95.940069
loop_
_atom_site_label
_atom_site_type_symbol
_atom_site_fract_x
_atom_site_fract_y
_atom_site_fract_z
O1	O	1.197247	-0.163956	-0.083354
O2	O	0.934892	-0.183488	-0.083371
O3	O	1.072102	0.009080	-0.083356
O4	O	1.060038	-0.356524	-0.083369
O5	O	1.072081	0.009076	0.083491
O6	O	0.934871	-0.183492	0.083476
O7	O	1.197226	-0.163960	0.083493
Cu8	Cu	1.066047	-0.173726	0.098719
Cu9	Cu	1.066072	-0.173721	-0.098597
O10	O	1.060017	-0.356528	0.083478
C11	C	0.901288	-0.182605	0.000050
C12	C	0.801190	-0.179953	0.000044
C13	C	1.071205	0.055867	0.000067
C14	C	1.068555	0.195283	0.000065
N15	N	1.066036	-0.173729	0.237501
C16	C	0.387984	-0.054353	0.000071
C17	C	0.367928	-0.283127	0.000061
C18	C	0.461975	-0.285621	0.000058
C19	C	0.519031	-0.172479	0.000060
C20	C	0.482040	-0.056843	0.000065
C21	C	0.498973	-0.401255	0.000043
C22	C	0.593026	-0.403753	0.000039
C23	C	0.650083	-0.290609	0.000047
C24	C	0.613087	-0.174969	0.000053
C25	C	0.670143	-0.061826	0.000055
C26	C	0.633149	0.053816	0.000068
C27	C	0.539098	0.056301	0.000073
C28	C	0.744134	-0.293095	0.000042
C29	C	0.764199	-0.064317	0.000049
C30	C	1.230830	-0.164843	0.000069
C31	C	1.330928	-0.167495	0.000069
C32	C	1.060913	-0.403314	0.000053
C33	C	1.063563	-0.542730	0.000048
C34	C	1.149342	0.275608	0.000070
C35	C	1.146846	0.406602	0.000058
C36	C	0.982770	0.376935	0.000040
C37	C	0.985267	0.245942	0.000045
N38	N	1.066090	-0.173709	-0.237379
C39	C	1.010887	-0.097421	0.290025
C40	C	1.121196	-0.250030	0.290004
C41	C	1.121206	-0.250029	0.395023
C42	C	1.066057	-0.173722	0.447547
C43	C	1.010898	-0.097415	0.395053
C44	C	1.176371	-0.326325	0.447525
C45	C	1.176385	-0.326326	0.552549
C46	C	1.121231	-0.250024	0.605076
C47	C	1.066068	-0.173716	0.552575
C48	C	1.010919	-0.097408	0.605099
C49	C	0.955751	-0.021106	0.552601
C50	C	0.955743	-0.021114	0.447579
C51	C	1.121239	-0.250016	0.710097
C52	C	1.010930	-0.097402	0.710127
H53	H	0.679616	0.145936	0.000063
H54	H	0.810649	0.027819	0.000054
H55	H	0.914959	0.418198	0.000025
O56	O	0.629071	-0.515999	0.000155
C57	C	0.723580	-0.651619	0.086594
C58	C	0.682830	-0.524449	0.086579
H59	H	0.767038	-0.658504	0.156471
H60	H	0.767172	-0.658504	0.016811
H61	H	0.666635	-0.732042	0.086538
H62	H	0.739717	-0.443953	0.086670
H63	H	0.639215	-0.517674	0.156356
O64	O	0.957332	-0.023159	0.760992
C65	C	0.847872	0.128145	0.749932
C66	C	0.908542	0.044150	0.692204
H67	H	0.808396	0.182567	0.694342
H68	H	0.891741	0.197486	0.799060
H69	H	0.798515	0.066487	0.799143
H70	H	0.957909	0.105707	0.642939
H71	H	0.864617	-0.025198	0.643139
H72	H	0.357859	0.039800	0.000085
O73	O	0.503012	0.168517	0.000035
C74	C	0.367007	0.273734	0.000099
C75	C	0.407758	0.146566	0.000122
H76	H	0.289989	0.256031	0.000191
H77	H	0.390382	0.329674	-0.069741
H78	H	0.390492	0.329652	0.069910
H79	H	0.384292	0.090546	-0.069641
H80	H	0.384387	0.090722	0.070009
H81	H	0.919476	0.180538	0.000038
H82	H	1.166159	-0.312136	0.752837
H83	H	0.452512	-0.493369	0.000032
O84	O	0.312544	-0.393059	-0.000121
C85	C	0.266658	-0.587863	-0.086537
C86	C	0.329423	-0.463394	-0.086467
H87	H	0.280295	-0.644775	-0.156329
H88	H	0.193066	-0.566290	-0.086600
H89	H	0.280189	-0.644710	-0.016681
H90	H	0.315972	-0.406486	-0.156310
H91	H	0.402994	-0.485056	-0.086351
H92	H	0.910853	0.041029	0.595380
H93	H	0.774251	-0.387249	0.000033
O94	O	0.902253	0.052983	0.396427
C95	C	0.853336	0.120578	0.234641
C96	C	0.913964	0.036618	0.292449
H97	H	0.862769	0.107357	0.150565
H98	H	0.872804	0.223675	0.255218
H99	H	0.779494	0.092792	0.255354
H100	H	0.987824	0.064292	0.271767
H101	H	0.894420	-0.066458	0.271867
H102	H	0.965968	-0.035301	0.247276
H103	H	1.166101	-0.312148	0.247233
H104	H	1.217161	0.234365	0.000085
O105	O	1.230095	-0.400379	0.603429
C106	C	1.382134	-0.449759	0.635575
C107	C	1.321415	-0.365823	0.577873
H108	H	1.455980	-0.421833	0.614950
H109	H	1.362749	-0.552843	0.614902
H110	H	1.372622	-0.436682	0.719655
H111	H	1.330895	-0.378790	0.493780
H112	H	1.340814	-0.262769	0.598630
O113	O	1.229862	-0.400400	0.396350
C114	C	1.278778	-0.467967	0.234541
C115	C	1.218135	-0.384038	0.292377
H116	H	1.269332	-0.454747	0.150469
H117	H	1.259335	-0.571069	0.255115
H118	H	1.352619	-0.440150	0.255232
H119	H	1.144277	-0.411743	0.271716
H120	H	1.237655	-0.280956	0.271798
H121	H	1.212631	0.471999	0.000060
