data_functionalizedCrystal
_audit_creation_method	'MofGen! by Chris Wilmer'
_symmetry_space_group_name_H-M	'P1'
_symmetry_Int_Tables_number	1
_symmetry_cell_setting	triclinic
loop_
_symmetry_equiv_pos_as_xyz
  x,y,z
_cell_length_a	12.759395
_cell_length_b	25.639240
_cell_length_c	12.759387
_cell_angle_alpha	90.043601
_cell_angle_beta	90.021028
_cell_angle_gamma	90.033519
loop_
_atom_site_label
_atom_site_type_symbol
_atom_site_fract_x
_atom_site_fract_y
_atom_site_fract_z
Zn1	Zn	1.606137	-0.208113	0.593926
Zn2	Zn	1.605972	-0.295558	0.418207
Zn3	Zn	1.430435	-0.208140	0.418261
Zn4	Zn	1.430372	-0.295520	0.593845
O5	O	1.518229	-0.251833	0.506060
O6	O	1.753136	-0.219717	0.570628
O7	O	1.582644	-0.283990	0.271193
O8	O	1.453838	-0.134971	0.441620
O9	O	1.753015	-0.283963	0.441528
O10	O	1.582925	-0.134951	0.570681
O11	O	1.453678	-0.219764	0.271233
O12	O	1.283406	-0.219726	0.441542
O13	O	1.453730	-0.283898	0.740877
O14	O	1.283359	-0.283924	0.570542
O15	O	1.582864	-0.219680	0.740937
O16	O	1.582583	-0.368719	0.441449
O17	O	1.453570	-0.368690	0.570489
C18	C	1.245262	-0.251825	0.506039
C19	C	1.128485	-0.251834	0.506056
C20	C	1.518081	-0.387675	0.505978
C21	C	1.518113	-0.445789	0.505978
C22	C	0.909176	-0.185054	0.640739
C23	C	0.964105	-0.151653	0.708051
C24	C	1.073827	-0.151644	0.708033
C25	C	1.128622	-0.185041	0.640698
C26	C	1.073692	-0.218442	0.573386
C27	C	0.963968	-0.218446	0.573409
C28	C	1.073556	-0.285235	0.438744
C29	C	0.963834	-0.285242	0.438755
C30	C	1.128350	-0.318631	0.371408
C31	C	1.073421	-0.352031	0.304090
C32	C	0.963693	-0.352038	0.304110
C33	C	0.908905	-0.318643	0.371443
C34	C	1.585478	-0.806103	0.573383
C35	C	1.585509	-0.860708	0.573404
O36	O	1.642609	-0.888903	0.630630
N37	N	1.518375	-0.888072	0.506161
C38	C	1.451197	-0.860829	0.438901
O39	O	1.394097	-0.889118	0.381708
C40	C	1.451162	-0.806225	0.438885
C41	C	1.518308	-0.778864	0.506125
C42	C	1.652618	-0.778742	0.640618
C43	C	1.652588	-0.724142	0.640595
C44	C	1.585418	-0.696902	0.573337
C45	C	1.518278	-0.724264	0.506102
C46	C	1.383980	-0.778983	0.371631
C47	C	1.383950	-0.724376	0.371622
C48	C	1.451096	-0.697015	0.438861
C49	C	1.451079	-0.642424	0.438821
N50	N	1.518213	-0.615060	0.506064
C51	C	1.585383	-0.642299	0.573322
C52	C	1.451276	-0.975499	0.438939
C53	C	1.451316	-1.030102	0.438948
C54	C	1.585626	-1.029977	0.573453
C55	C	1.585591	-0.975374	0.573438
C56	C	1.518410	-0.948135	0.506182
C57	C	1.585316	-0.527634	0.573267
C58	C	1.585283	-0.473029	0.573235
C59	C	1.450969	-0.473158	0.438735
C60	C	1.451005	-0.527759	0.438762
C61	C	1.518182	-0.554995	0.506037
O62	O	1.394005	-0.614194	0.381627
O63	O	1.642464	-0.614003	0.630514
C64	C	1.792262	-0.251841	0.506081
C65	C	1.909039	-0.251845	0.506090
C66	C	1.518308	-0.251781	0.780094
C67	C	1.518342	-0.251760	0.896870
C68	C	1.518407	-0.115460	0.506166
C69	C	1.518482	-0.057346	0.506211
C70	C	1.518210	-0.251846	0.233092
C71	C	1.518380	-0.251721	0.116316
C72	C	1.652818	-0.184894	0.896952
C73	C	1.720071	-0.151453	0.951854
C74	C	1.720096	-0.151434	1.061576
C75	C	1.652860	-0.184858	1.116398
C76	C	1.585607	-0.218299	1.061496
C77	C	1.585591	-0.218316	0.951772
C78	C	1.451128	-0.285161	1.061414
C79	C	1.451106	-0.285184	0.951693
C80	C	1.383891	-0.318585	1.116237
C81	C	1.316642	-0.352029	1.061335
C82	C	1.316620	-0.352048	0.951607
C83	C	1.383853	-0.318624	0.896791
H84	H	0.819835	-0.185046	0.640738
H85	H	1.774853	-0.124201	1.106277
O86	O	1.251178	-0.384460	0.898236
C87	C	1.109332	-0.391513	0.774288
C88	C	1.183364	-0.354745	0.834674
H89	H	1.054500	-0.367504	0.722868
H90	H	1.061212	-0.415386	0.832281
H91	H	1.157536	-0.418878	0.722955
H92	H	1.135241	-0.327349	0.886009
H93	H	1.231486	-0.330910	0.776626
H94	H	0.919479	-0.124463	0.762876
H95	H	0.918976	-0.379239	0.249301
H96	H	1.329240	-0.702201	0.316854
O97	O	1.385740	-0.554399	0.373586
C98	C	1.243889	-0.616089	0.359355
C99	C	1.317759	-0.585965	0.433277
H100	H	1.188893	-0.641609	0.407586
H101	H	1.292110	-0.641697	0.304494
H102	H	1.195928	-0.587231	0.311250
H103	H	1.365736	-0.614786	0.481450
H104	H	1.269478	-0.560350	0.488069
O105	O	1.785417	-0.118938	0.898762
C106	C	1.918857	-0.052640	0.910425
C107	C	1.844892	-0.089428	0.970676
H108	H	1.966977	-0.028779	0.968541
H109	H	1.870705	-0.025270	0.859099
H110	H	1.973700	-0.076666	0.859016
H111	H	1.790034	-0.065444	1.022142
H112	H	1.893109	-0.116800	1.021936
O113	O	1.385681	-0.446773	0.373313
C114	C	1.252388	-0.452644	0.239981
C115	C	1.326302	-0.482591	0.313988
H116	H	1.204345	-0.481590	0.192013
H117	H	1.300575	-0.427095	0.185006
H118	H	1.197471	-0.427071	0.288197
H119	H	1.381234	-0.508193	0.265856
H120	H	1.278050	-0.508107	0.368966
H121	H	1.118044	-0.379222	0.249276
O122	O	1.383919	-0.318664	1.222820
C123	C	1.410929	-0.368761	1.380232
C124	C	1.410911	-0.368745	1.259528
H125	H	1.432771	-0.409244	1.409947
H126	H	1.329589	-0.357934	1.410079
H127	H	1.470517	-0.339100	1.410031
H128	H	1.351374	-0.398407	1.229640
H129	H	1.492288	-0.379549	1.229752
H130	H	1.396572	-0.953324	0.384162
O131	O	1.653042	-0.184787	1.222981
C132	C	1.726804	-0.148043	1.380482
C133	C	1.726725	-0.148079	1.259778
H134	H	1.786354	-0.118360	1.410269
H135	H	1.748612	-0.188512	1.410305
H136	H	1.645436	-0.137206	1.410233
H137	H	1.808068	-0.158894	1.229937
H138	H	1.704857	-0.107605	1.230026
H139	H	1.118550	-0.124447	0.762846
H140	H	1.217963	-0.185035	0.640698
H141	H	0.819564	-0.318639	0.371453
H142	H	1.217692	-0.318625	0.371405
H143	H	1.639965	-0.450753	0.627990
H144	H	1.640010	-0.549804	0.628056
H145	H	1.707261	-0.701867	0.695350
H146	H	1.707316	-0.800915	0.695393
H147	H	1.640267	-0.953099	0.628191
O148	O	1.650772	-1.056524	0.638763
C149	C	1.710369	-1.140595	0.698350
C150	C	1.636527	-1.110595	0.624358
H151	H	1.698894	-1.184316	0.686713
H152	H	1.691863	-1.129869	0.783069
H153	H	1.795081	-1.129803	0.679991
H154	H	1.551791	-1.121370	0.642621
H155	H	1.655124	-1.121323	0.539660
H156	H	1.396650	-1.052374	0.384184
H157	H	1.329303	-0.801251	0.316876
H158	H	1.652814	-0.184911	0.807611
H159	H	1.261898	-0.379238	1.105980
H160	H	1.383846	-0.318638	0.807450
