data_functionalizedCrystal
_audit_creation_method	'MofGen! by Chris Wilmer'
_symmetry_space_group_name_H-M	'P1'
_symmetry_Int_Tables_number	1
_symmetry_cell_setting	triclinic
loop_
_symmetry_equiv_pos_as_xyz
  x,y,z
_cell_length_a	15.995350
_cell_length_b	10.540539
_cell_length_c	14.472311
_cell_angle_alpha	89.995936
_cell_angle_beta	89.994208
_cell_angle_gamma	95.991067
loop_
_atom_site_label
_atom_site_type_symbol
_atom_site_fract_x
_atom_site_fract_y
_atom_site_fract_z
O1	O	0.117987	-1.684270	0.076792
O2	O	0.129105	-1.314704	0.076803
O3	O	0.001719	-1.509590	0.076797
O4	O	0.245373	-1.489385	0.076799
O5	O	0.001736	-1.509563	-0.076885
O6	O	0.129122	-1.314678	-0.076879
O7	O	0.118004	-1.684244	-0.076890
Cu8	Cu	0.123564	-1.499459	-0.090917
Cu9	Cu	0.123545	-1.499490	0.090830
O10	O	0.245390	-1.489359	-0.076883
C11	C	-0.029472	-1.508741	-0.000043
C12	C	-0.122438	-1.506237	-0.000037
C13	C	0.128280	-1.267400	-0.000036
C14	C	0.125785	-1.126486	-0.000032
C15	C	0.118829	-1.731549	-0.000048
C16	C	0.121324	-1.872462	-0.000046
C17	C	-0.460239	-1.497244	-0.000040
C18	C	-0.413635	-1.358450	0.000309
C19	C	-0.316930	-1.360955	-0.000038
C20	C	-0.292652	-1.501705	-0.000038
C21	C	-0.333310	-1.570148	-0.087798
C22	C	-0.429967	-1.566661	-0.087872
C23	C	-0.430327	-1.569558	0.086893
C24	C	-0.333382	-1.569525	0.088053
C25	C	-0.197939	-1.504233	-0.000040
C26	C	-0.554952	-1.494719	-0.000044
C27	C	0.276581	-1.490207	-0.000042
C28	C	0.369547	-1.492711	-0.000041
N29	N	0.123578	-1.499446	-0.218747
C30	C	0.030202	-0.944373	-0.000392
C31	C	0.032730	-1.090956	-0.000036
C32	C	0.170557	-1.064213	0.087725
C33	C	0.167382	-0.917712	0.087789
C34	C	0.169294	-0.917168	-0.086976
C35	C	0.170151	-1.064138	-0.088127
C36	C	0.123560	-1.499468	-0.407248
C37	C	0.191696	-1.395172	-0.446474
C38	C	0.191507	-1.394815	-0.553562
C39	C	0.123543	-1.499490	-0.592839
C40	C	0.035902	-1.471103	-0.553948
C41	C	0.036311	-1.470342	-0.446827
C42	C	0.142277	-1.632472	-0.446710
C43	C	0.144246	-1.631593	-0.553839
C44	C	0.123528	-1.499505	-0.697727
C45	C	0.123569	-1.499451	-0.302359
N46	N	0.123525	-1.499512	0.218661
H47	H	-0.288836	-1.307153	0.062872
H48	H	0.137443	-1.105539	-0.153049
H49	H	0.134277	-0.889968	0.153388
H50	H	-0.461605	-1.668561	-0.091854
H51	H	0.237994	-1.087431	-0.093425
H52	H	0.179425	-1.296113	-0.579204
H53	H	-0.461476	-1.671890	0.087483
H54	H	-0.318566	-1.673552	-0.091062
F55	F	-0.438297	-1.285950	0.082570
F56	F	0.254853	-0.853808	0.092997
F57	F	-0.013318	-1.147279	-0.082260
F58	F	0.176132	-1.266875	-0.411309
H59	H	-0.448560	-1.516730	-0.153474
H60	H	-0.305206	-1.522589	-0.153106
H61	H	0.238894	-1.085627	0.090991
F62	F	0.276611	-1.416805	-0.587936
H63	H	-0.433552	-1.303211	-0.062272
H64	H	-0.006553	-0.916282	-0.063327
F65	F	0.257145	-0.854233	-0.087751
F66	F	0.129888	-1.120448	0.173092
H67	H	0.208731	-1.653134	-0.579243
H68	H	0.257026	-1.411711	-0.420725
H69	H	0.139186	-0.886024	-0.153495
H70	H	-0.016074	-1.545079	-0.579386
H71	H	0.019990	-1.373360	-0.421855
F72	F	-0.032029	-1.565890	-0.412903
H73	H	0.019203	-1.375246	-0.580797
H74	H	0.204885	-1.659871	-0.419702
H75	H	0.097920	-1.712812	-0.580574
F76	F	0.077350	-1.733914	-0.413545
F77	F	-0.013471	-1.146140	0.082461
F78	F	-0.457529	-1.510251	0.173837
F79	F	-0.297775	-1.504622	0.172925
F80	F	-0.280919	-1.290127	-0.082400
H81	H	-0.317407	-1.672167	0.093352
F82	F	-0.017659	-0.905556	0.081405
