data_functionalizedCrystal
_audit_creation_method	'MofGen! by Chris Wilmer'
_symmetry_space_group_name_H-M	'P1'
_symmetry_Int_Tables_number	1
_symmetry_cell_setting	triclinic
loop_
_symmetry_equiv_pos_as_xyz
  x,y,z
_cell_length_a	12.759401
_cell_length_b	18.101395
_cell_length_c	12.759393
_cell_angle_alpha	89.966555
_cell_angle_beta	89.980387
_cell_angle_gamma	90.031335
loop_
_atom_site_label
_atom_site_type_symbol
_atom_site_fract_x
_atom_site_fract_y
_atom_site_fract_z
Zn1	Zn	1.606136	-0.294781	-0.593999
Zn2	Zn	1.605980	-0.418643	-0.418313
Zn3	Zn	1.430438	-0.294820	-0.418335
Zn4	Zn	1.430376	-0.418586	-0.593951
O5	O	1.518232	-0.356708	-0.506150
O6	O	1.753136	-0.311219	-0.570705
O7	O	1.582654	-0.402258	-0.271295
O8	O	1.453835	-0.191182	-0.441666
O9	O	1.753021	-0.402220	-0.441629
O10	O	1.582920	-0.191154	-0.570726
O11	O	1.453684	-0.311286	-0.271311
O12	O	1.283408	-0.311231	-0.441620
O13	O	1.453730	-0.402123	-0.740979
O14	O	1.283363	-0.402161	-0.570645
O15	O	1.582860	-0.311164	-0.741014
O16	O	1.582594	-0.522268	-0.441583
O17	O	1.453579	-0.522227	-0.570624
C18	C	1.245265	-0.356694	-0.506130
C19	C	1.128488	-0.356706	-0.506147
C20	C	1.518092	-0.549118	-0.506119
C21	C	1.518128	-0.631432	-0.506141
C22	C	1.073570	-0.404014	-0.438845
C23	C	0.963846	-0.404027	-0.438863
C24	C	0.963968	-0.309417	-0.573487
C25	C	1.073690	-0.309409	-0.573474
C26	C	1.128369	-0.451312	-0.371518
C27	C	1.073450	-0.498623	-0.304211
C28	C	0.963726	-0.498636	-0.304229
C29	C	0.908920	-0.451337	-0.371555
C30	C	1.518358	-0.930523	-0.506197
C31	C	1.437374	-0.899203	-0.587587
C32	C	1.436989	-0.813585	-0.587333
C33	C	1.518244	-0.782141	-0.506170
C34	C	1.488263	-0.813301	-0.395444
C35	C	1.487741	-0.898946	-0.395932
C36	C	1.629501	-0.898864	-0.534558
C37	C	1.628847	-0.813213	-0.536986
C38	C	1.518181	-0.698281	-0.506148
C39	C	1.518418	-1.014383	-0.506212
C40	C	1.792265	-0.356722	-0.506170
C41	C	1.909042	-0.356728	-0.506178
C42	C	1.518306	-0.356633	-0.780183
C43	C	1.518337	-0.356601	-0.896960
C44	C	1.518402	-0.163546	-0.506204
C45	C	1.518474	-0.081232	-0.506227
C46	C	1.585584	-0.309234	-0.951842
C47	C	1.585609	-0.309208	-1.061566
C48	C	1.451137	-0.403921	-1.061516
C49	C	1.451108	-0.403943	-0.951794
C50	C	1.652814	-0.261892	-0.897007
C51	C	1.720068	-0.214522	-0.951889
C52	C	1.720093	-0.214495	-1.061613
C53	C	1.652864	-0.261839	-1.116456
C54	C	1.518219	-0.356729	-0.233182
C55	C	1.518392	-0.356552	-0.116406
H56	H	1.217711	-0.451305	-0.371494
O57	O	1.653054	-0.261881	-1.223042
C58	C	1.753746	-0.280879	-1.259701
H59	H	1.797136	-0.313178	-1.196461
H60	H	1.746210	-0.316375	-1.333090
H61	H	1.799312	-0.228447	-1.279198
O62	O	1.459329	-0.923736	-0.685883
C63	C	1.373176	-0.964102	-0.724734
H64	H	1.298958	-0.946510	-0.681721
H65	H	1.363794	-0.952799	-0.812133
H66	H	1.387111	-1.025637	-0.711765
O67	O	1.385943	-0.449889	-1.114949
C68	C	1.400373	-0.439700	-1.223562
H69	H	1.481478	-0.415445	-1.238560
H70	H	1.393215	-0.495163	-1.265238
H71	H	1.338098	-0.400255	-1.254714
H72	H	1.774846	-0.175919	-1.106295
H73	H	1.355493	-0.920791	-0.569038
O74	O	0.802334	-0.451216	-0.371572
C75	C	0.765699	-0.380227	-0.344747
H76	H	0.828961	-0.337577	-0.362793
H77	H	0.692324	-0.367113	-0.392179
H78	H	0.746189	-0.378589	-0.257580
O79	O	1.385774	-0.450040	-0.898637
C80	C	1.326440	-0.491820	-0.970561
H81	H	1.369479	-0.494356	-1.048785
H82	H	1.315205	-0.550179	-0.938839
H83	H	1.246660	-0.464711	-0.982218
O84	O	1.785329	-0.168601	-0.898458
C85	C	1.770870	-0.178765	-0.789845
H86	H	1.736410	-0.235920	-0.774834
H87	H	1.849560	-0.173753	-0.748155
H88	H	1.714950	-0.134844	-0.758721
H89	H	1.544168	-0.919668	-0.333222
H90	H	1.407879	-0.791918	-0.370989
O91	O	1.126846	-0.544499	-0.238851
C92	C	1.235467	-0.534358	-0.253282
H93	H	1.250503	-0.477233	-0.287832
H94	H	1.277124	-0.539312	-0.174567
H95	H	1.266607	-0.578328	-0.309116
H96	H	1.545393	-0.792935	-0.333149
O97	O	1.704779	-0.787725	-0.471541
C98	C	1.802537	-0.816969	-0.502017
H99	H	1.799399	-0.833462	-0.588172
H100	H	1.866096	-0.773473	-0.490256
H101	H	1.821168	-0.867619	-0.452267
O102	O	0.910540	-0.544617	-0.238755
C103	C	0.982439	-0.586372	-0.179352
H104	H	1.060668	-0.556027	-0.175782
H105	H	0.950693	-0.594204	-0.096559
H106	H	0.994096	-0.642649	-0.217679
H107	H	1.652803	-0.261910	-0.807664
H108	H	1.656833	-0.920406	-0.613923
O109	O	1.655691	-0.788817	-0.634187
C110	C	1.574828	-0.743881	-0.674225
H111	H	1.526619	-0.720700	-0.606588
H112	H	1.610383	-0.696410	-0.721030
H113	H	1.522096	-0.778193	-0.727432
H114	H	0.919336	-0.270908	-0.628299
O115	O	1.701363	-0.923124	-0.463785
C116	C	1.651510	-0.968456	-0.388945
H117	H	1.576181	-0.991876	-0.423640
H118	H	1.705970	-1.015749	-0.366308
H119	H	1.632069	-0.934402	-0.316370
H120	H	1.118405	-0.270885	-0.628274
H121	H	1.455746	-0.792514	-0.669435
H122	H	1.354607	-0.793163	-0.568547
O123	O	1.390818	-0.922953	-0.367427
C124	C	1.347559	-0.965638	-0.449078
H125	H	1.413308	-0.988409	-0.500206
H126	H	1.300745	-1.013401	-0.414336
H127	H	1.293646	-0.929622	-0.498717
