data_functionalizedCrystal
_audit_creation_method	'MofGen! by Chris Wilmer'
_symmetry_space_group_name_H-M	'P1'
_symmetry_Int_Tables_number	1
_symmetry_cell_setting	triclinic
loop_
_symmetry_equiv_pos_as_xyz
  x,y,z
_cell_length_a	6.817900
_cell_length_b	19.551823
_cell_length_c	17.982968
_cell_angle_alpha	96.138236
_cell_angle_beta	102.451960
_cell_angle_gamma	101.663376
loop_
_atom_site_label
_atom_site_type_symbol
_atom_site_fract_x
_atom_site_fract_y
_atom_site_fract_z
V1	V	-4.006028	-0.097330	-0.237907
O2	O	-4.003194	0.004004	-0.233012
O3	O	-3.948782	-0.192342	-0.236633
O4	O	-3.952647	-0.096129	-0.341506
O5	O	-3.999303	-0.092876	-0.127413
V6	V	-4.491447	-0.085175	-0.224648
O7	O	-4.263126	-0.123995	-0.266992
O8	O	-4.684546	-0.058510	-0.195564
O9	O	-4.325487	0.009837	-0.225923
O10	O	-4.611677	-0.186509	-0.229544
O11	O	-4.615569	-0.089629	-0.335143
O12	O	-4.321622	-0.086376	-0.121050
C13	C	-3.791792	-0.215495	-0.232970
C14	C	-3.826240	-0.293170	-0.232619
C15	C	-3.796721	-0.092764	-0.366746
C16	C	-3.834301	-0.092410	-0.451440
C17	C	-4.024006	-0.333225	-0.236264
C18	C	-4.056379	-0.406211	-0.235941
C19	C	-3.890965	-0.439135	-0.231958
C20	C	-3.693173	-0.399071	-0.228317
C21	C	-3.660811	-0.326088	-0.228648
C22	C	-3.780059	-0.545490	-0.183645
C23	C	-3.812426	-0.618470	-0.183311
C24	C	-3.990776	-0.664238	-0.230943
C25	C	-4.136784	-0.637015	-0.278900
C26	C	-4.104421	-0.564033	-0.279231
C27	C	-3.926037	-0.518272	-0.231600
C28	C	-4.223657	-0.783433	-0.234239
C29	C	-4.256025	-0.856420	-0.233921
C30	C	-3.892810	-0.849278	-0.226289
C31	C	-3.860452	-0.776293	-0.226615
C32	C	-4.025881	-0.743375	-0.230586
C33	C	-4.033551	-0.095746	-0.495124
C34	C	-4.068850	-0.095413	-0.574704
C35	C	-3.904899	-0.091750	-0.610599
C36	C	-3.705632	-0.088412	-0.566908
C37	C	-3.670333	-0.088740	-0.487330
C38	C	-3.847982	-0.087089	-0.887841
C39	C	-3.883298	-0.086763	-0.967426
C40	C	-4.246499	-0.093762	-0.975215
C41	C	-4.211200	-0.094089	-0.895636
C42	C	-4.011936	-0.090748	-0.851952
C43	C	-3.973662	-0.091108	-0.765663
C44	C	-3.943172	-0.091395	-0.696887
C45	C	-4.145818	0.032986	-0.229583
C46	C	-4.090608	0.110660	-0.229939
C47	C	-4.140889	-0.089743	-0.095806
C48	C	-4.082548	-0.090094	-0.011110
H49	H	-4.158718	-0.306429	-0.239503
C50	C	-4.288021	-0.099085	-0.622757
H51	H	-4.285564	-0.098358	-0.675291
H52	H	-4.378411	-0.141534	-0.618427
H53	H	-4.335292	-0.059618	-0.604204
H54	H	-3.634811	-0.508231	-0.144860
H55	H	-4.417076	-0.889034	-0.236894
C56	C	-4.405613	-0.747218	-0.238616
H57	H	-4.358010	-0.698013	-0.238280
H58	H	-4.508480	-0.767149	-0.284790
H59	H	-4.462581	-0.754141	-0.195465
C60	C	-3.651824	-0.648410	-0.130562
H61	H	-3.540951	-0.610702	-0.102252
H62	H	-3.714781	-0.672978	-0.095798
H63	H	-3.600622	-0.680012	-0.161099
H64	H	-3.558495	-0.425883	-0.225076
H65	H	-4.344711	-0.097076	-0.866415
C66	C	-3.710850	-0.885484	-0.221900
H67	H	-3.758442	-0.934687	-0.222219
H68	H	-3.653858	-0.878564	-0.265042
H69	H	-3.607996	-0.865547	-0.175718
C70	C	-3.443254	-0.282024	-0.224629
H71	H	-3.349368	-0.312082	-0.222207
H72	H	-3.446020	-0.259906	-0.269255
H73	H	-3.400139	-0.246902	-0.179931
C74	C	-3.451161	-0.085075	-0.439278
H75	H	-3.358575	-0.082854	-0.472053
H76	H	-3.408276	-0.044103	-0.400962
H77	H	-3.451412	-0.126019	-0.415184
H78	H	-3.572140	-0.085425	-0.596140
H79	H	-3.749777	-0.083779	-0.996648
C80	C	-4.273929	-0.450280	-0.239944
H81	H	-4.367812	-0.420221	-0.242352
H82	H	-4.317065	-0.485408	-0.284631
H83	H	-4.271124	-0.472387	-0.195306
C84	C	-4.265000	-0.534086	-0.331982
H85	H	-4.220182	-0.484065	-0.325350
H86	H	-4.279850	-0.553370	-0.384210
H87	H	-4.394036	-0.546337	-0.318917
H88	H	-3.699408	-0.743678	-0.223642
H89	H	-4.408752	-0.096479	-1.010791
C90	C	-3.628809	-0.083422	-0.839800
H91	H	-3.536234	-0.081203	-0.872579
H92	H	-3.585912	-0.042450	-0.801484
H93	H	-3.629058	-0.124366	-0.815706
H94	H	-4.167066	-0.098733	-0.465906
C95	C	-4.332952	-0.687351	-0.331311
H96	H	-4.331304	-0.734717	-0.324258
H97	H	-4.451398	-0.675693	-0.318370
H98	H	-4.337145	-0.682707	-0.383645
