data_functionalizedCrystal
_audit_creation_method	'MofGen! by Chris Wilmer'
_symmetry_space_group_name_H-M	'P1'
_symmetry_Int_Tables_number	1
_symmetry_cell_setting	triclinic
loop_
_symmetry_equiv_pos_as_xyz
  x,y,z
_cell_length_a	10.967874
_cell_length_b	10.967829
_cell_length_c	18.366186
_cell_angle_alpha	77.865925
_cell_angle_beta	77.862272
_cell_angle_gamma	82.165976
loop_
_atom_site_label
_atom_site_type_symbol
_atom_site_fract_x
_atom_site_fract_y
_atom_site_fract_z
O1	O	1.657253	0.175044	-0.290450
O2	O	1.294090	0.191795	-0.246987
O3	O	1.484043	0.001840	-0.246983
O4	O	1.467300	0.364999	-0.290455
O5	O	1.484010	0.001831	-0.125878
O6	O	1.294057	0.191786	-0.125882
O7	O	1.657220	0.175035	-0.169346
Zn8	Zn	1.475634	0.183409	-0.128386
Zn9	Zn	1.475677	0.183421	-0.287947
O10	O	1.467267	0.364990	-0.169350
C11	C	1.247572	0.190571	-0.180447
C12	C	1.109014	0.186922	-0.162604
C13	C	1.482806	-0.044665	-0.180443
C14	C	1.479154	-0.183222	-0.162602
C15	C	1.047257	0.185300	-0.217385
C16	C	0.904050	0.181529	-0.198946
C17	C	1.477542	-0.244984	-0.217385
C18	C	1.473768	-0.388190	-0.198946
C19	C	1.703738	0.176259	-0.235887
C20	C	1.842296	0.179908	-0.253735
C21	C	1.468504	0.411495	-0.235891
C22	C	1.472157	0.550052	-0.253737
N23	N	1.475613	0.183399	-0.019491
N24	N	1.475707	0.183421	-0.396841
C25	C	1.559753	0.099329	0.018602
C26	C	1.559760	0.099323	0.094830
C27	C	1.475641	0.183410	0.132957
C28	C	1.391486	0.267486	0.094855
C29	C	1.391472	0.267481	0.018632
C30	C	1.460267	0.296924	0.241401
C31	C	1.460290	0.296931	0.317622
C32	C	1.475677	0.183426	0.368058
C33	C	1.491067	0.069908	0.342260
C34	C	1.491053	0.069903	0.266036
C35	C	1.475646	0.183424	0.215609
C36	C	1.559829	0.099343	0.488806
C37	C	1.559828	0.099335	0.565037
C38	C	1.391560	0.267509	0.565058
C39	C	1.391555	0.267505	0.488832
C40	C	1.475696	0.183424	0.450709
H41	H	1.100405	0.186711	-0.277938
Br42	Br	1.673958	-0.014783	0.146538
H43	H	0.895437	0.181320	-0.314291
H44	H	1.478952	-0.191840	-0.277936
H45	H	1.473557	-0.396810	-0.314291
H46	H	1.503596	-0.022519	0.383324
Br47	Br	1.511928	-0.084148	0.231027
H48	H	1.477731	-0.236364	-0.102050
Br49	Br	1.673936	-0.014783	-0.033135
Br50	Br	0.815481	0.179205	-0.098016
Br51	Br	1.277313	0.381596	0.146598
H52	H	1.628338	0.030874	0.457767
H53	H	1.055864	0.185526	-0.102054
Br54	Br	1.471394	-0.476744	-0.098013
H55	H	1.628341	0.030869	0.596054
Br56	Br	1.277383	0.381614	0.616799
H57	H	1.323045	0.335968	0.457813
H58	H	1.447766	0.389364	0.338619
H59	H	1.447716	0.389360	0.200343
H60	H	1.322954	0.335942	-0.012385
