data_functionalizedCrystal
_audit_creation_method	'MofGen! by Chris Wilmer'
_symmetry_space_group_name_H-M	'P1'
_symmetry_Int_Tables_number	1
_symmetry_cell_setting	triclinic
loop_
_symmetry_equiv_pos_as_xyz
  x,y,z
_cell_length_a	21.295419
_cell_length_b	21.295417
_cell_length_c	21.295411
_cell_angle_alpha	89.978356
_cell_angle_beta	89.975461
_cell_angle_gamma	90.045308
loop_
_atom_site_label
_atom_site_type_symbol
_atom_site_fract_x
_atom_site_fract_y
_atom_site_fract_z
Zn1	Zn	0.962356	-0.250432	-0.355911
Zn2	Zn	1.462356	0.249568	0.144089
Zn3	Zn	0.962258	-0.355684	-0.250637
Zn4	Zn	1.462258	0.144316	0.249363
Zn5	Zn	0.857079	-0.250460	-0.250656
Zn6	Zn	1.357079	0.249540	0.249344
Zn7	Zn	0.857048	-0.355695	-0.355868
Zn8	Zn	1.357048	0.144305	0.144132
O9	O	0.909685	-0.303068	-0.303268
O10	O	1.409685	0.196932	0.196732
O11	O	1.050432	-0.264378	-0.341956
O12	O	1.550432	0.235622	0.158044
O13	O	0.948278	-0.341733	-0.162550
O14	O	1.448278	0.158267	0.337450
O15	O	0.871098	-0.162367	-0.264645
O16	O	1.371098	0.337633	0.235355
O17	O	1.050360	-0.341706	-0.264611
O18	O	1.550360	0.158294	0.235389
O19	O	0.948444	-0.162347	-0.341975
O20	O	1.448444	0.337653	0.158025
O21	O	0.871003	-0.264425	-0.162564
O22	O	1.371003	0.235575	0.337436
O23	O	0.768985	-0.264436	-0.264603
O24	O	1.268985	0.235564	0.235397
O25	O	0.871045	-0.341724	-0.443963
O26	O	1.371045	0.158276	0.056037
O27	O	0.768963	-0.341751	-0.341902
O28	O	1.268963	0.158249	0.158098
O29	O	0.948414	-0.264388	-0.443995
O30	O	1.448414	0.235612	0.056005
O31	O	0.948248	-0.443775	-0.264570
O32	O	1.448248	0.056225	0.235430
O33	O	0.870951	-0.443783	-0.341883
O34	O	1.370951	0.056217	0.158117
C35	C	0.909603	-0.466619	-0.303233
C36	C	1.409603	0.033381	0.196767
C37	C	0.909625	-0.536588	-0.303239
C38	C	1.409625	-0.036588	0.196761
C39	C	0.746133	-0.303098	-0.303250
C40	C	1.246133	0.196902	0.196750
C41	C	0.676165	-0.303126	-0.303258
C42	C	1.176165	0.196874	0.196742
C43	C	0.949909	-0.569429	-0.263024
C44	C	1.449909	-0.069429	0.236976
C45	C	0.949939	-0.635172	-0.263038
C46	C	1.449939	-0.135172	0.236962
C47	C	0.909673	-0.668070	-0.303261
C48	C	1.409673	-0.168070	0.196739
C49	C	0.869385	-0.635220	-0.343485
C50	C	1.369385	-0.135220	0.156515
C51	C	0.869361	-0.569479	-0.343474
C52	C	1.369361	-0.069479	0.156526
N53	N	0.854606	-0.771351	-0.308054
N54	N	1.354606	-0.271351	0.191946
N55	N	0.854630	-0.833802	-0.308061
N56	N	1.354630	-0.333802	0.191939
C57	C	0.909743	-0.866145	-0.303297
C58	C	1.409743	-0.366145	0.196703
N59	N	0.964832	-0.833676	-0.298514
N60	N	1.464832	-0.333676	0.201486
N61	N	0.964807	-0.771219	-0.298504
N62	N	1.464807	-0.271219	0.201496
C63	C	0.909694	-0.739355	-0.303278
C64	C	1.409694	-0.239355	0.196722
C65	C	0.950063	-0.970272	-0.263095
C66	C	1.450063	-0.470272	0.236905
C67	C	0.950093	-1.036016	-0.263113
C68	C	1.450093	-0.536016	0.236887
C69	C	0.869534	-1.036063	-0.343557
C70	C	1.369534	-0.536063	0.156443
C71	C	0.869510	-0.970321	-0.343541
C72	C	1.369510	-0.470321	0.156459
C73	C	0.909773	-0.937429	-0.303307
C74	C	1.409773	-0.437429	0.196693
C75	C	0.643358	-0.262927	-0.343593
C76	C	1.143358	0.237073	0.156407
C77	C	0.577616	-0.262910	-0.343596
C78	C	1.077616	0.237090	0.156404
C79	C	0.544683	-0.303104	-0.303269
C80	C	1.044683	0.196896	0.196731
C81	C	0.577498	-0.343305	-0.262926
C82	C	1.077498	0.156695	0.237074
C83	C	0.643239	-0.343317	-0.262920
C84	C	1.143239	0.156683	0.237080
N85	N	0.441407	-0.358181	-0.298349
N86	N	0.941407	0.141819	0.201651
N87	N	0.378956	-0.358168	-0.298359
N88	N	0.878956	0.141832	0.201641
C89	C	0.346608	-0.303071	-0.303283
C90	C	0.846608	0.196929	0.196717
N91	N	0.379071	-0.247985	-0.308210
N92	N	0.879071	0.252015	0.191790
N93	N	0.441528	-0.247999	-0.308205
N94	N	0.941528	0.252001	0.191795
C95	C	0.473397	-0.303095	-0.303271
C96	C	0.973397	0.196905	0.196729
C97	C	0.242516	-0.262850	-0.343624
C98	C	0.742516	0.237150	0.156376
C99	C	0.176772	-0.262832	-0.343622
C100	C	0.676772	0.237168	0.156378
C101	C	0.176655	-0.343233	-0.262955
C102	C	0.676655	0.156767	0.237045
C103	C	0.242397	-0.343245	-0.262953
C104	C	0.742397	0.156755	0.237047
C105	C	0.275324	-0.303055	-0.303291
C106	C	0.775324	0.196945	0.196709
C107	C	1.073875	-0.303038	-0.303286
C108	C	1.573875	0.196962	0.196714
C109	C	1.143843	-0.303025	-0.303294
C110	C	1.643843	0.196975	0.196706
C111	C	0.909737	-0.303055	-0.467458
C112	C	1.409737	0.196945	0.032542
C113	C	0.909760	-0.303049	-0.537426
C114	C	1.409760	0.196951	-0.037426
C115	C	0.909785	-0.138878	-0.303317
C116	C	1.409785	0.361122	0.196683
C117	C	0.909828	-0.068909	-0.303338
C118	C	1.409828	0.431091	0.196662
C119	C	0.950044	-0.262778	-0.570311
C120	C	1.450044	0.237222	-0.070311
C121	C	0.950043	-0.262751	-0.636053
C122	C	1.450043	0.237249	-0.136053
C123	C	0.909764	-0.303006	-0.668909
C124	C	1.409764	0.196994	-0.168909
C125	C	0.869472	-0.343279	-0.636017
C126	C	1.369472	0.156721	-0.136017
C127	C	0.869470	-0.343301	-0.570276
C128	C	1.369470	0.156699	-0.070276
N129	N	0.904908	-0.358075	-0.772124
N130	N	1.404908	0.141925	-0.272124
N131	N	0.904914	-0.358052	-0.834576
N132	N	1.404914	0.141948	-0.334576
C133	C	0.909768	-0.302942	-0.866984
C134	C	1.409768	0.197058	-0.366984
N135	N	0.914629	-0.247853	-0.834581
N136	N	1.414629	0.252147	-0.334581
N137	N	0.914626	-0.247876	-0.772124
N138	N	1.414626	0.252124	-0.272124
C139	C	0.909762	-0.302986	-0.740194
C140	C	1.409762	0.197014	-0.240194
C141	C	0.950054	-0.262638	-0.971154
C142	C	1.450054	0.237362	-0.471154
C143	C	0.950049	-0.262610	-1.036897
C144	C	1.450049	0.237390	-0.536897
C145	C	0.869481	-0.343143	-1.036860
C146	C	1.369481	0.156857	-0.536860
C147	C	0.869483	-0.343166	-0.971118
C148	C	1.369483	0.156834	-0.471118
C149	C	0.909773	-0.302914	-0.938268
C150	C	1.409773	0.197086	-0.438268
C151	C	0.909669	-0.303036	-0.139716
C152	C	1.409669	0.196964	0.360284
C153	C	0.909769	-0.302864	-0.069749
C154	C	1.409769	0.197136	0.430251
H155	H	0.982696	-0.542651	-0.230264
H156	H	1.482696	-0.042651	0.269736
C157	C	0.825180	-0.387427	-1.072994
C158	C	1.325180	0.112573	-0.572994
H159	H	0.830954	-0.381651	-1.116857
H160	H	1.330954	0.118349	-0.616857
H161	H	0.782889	-0.378231	-1.062205
H162	H	1.282889	0.121769	-0.562205
H163	H	0.834375	-0.429725	-1.062220
H164	H	1.334375	0.070275	-0.562220
C165	C	0.994400	-1.072145	-0.218867
C166	C	1.494400	-0.572145	0.281133
H167	H	0.988652	-1.116009	-0.224638
H168	H	1.488652	-0.616009	0.275362
H169	H	0.985193	-1.061402	-0.176565
H170	H	1.485193	-0.561402	0.323435
H171	H	1.036692	-1.061319	-0.228109
H172	H	1.536692	-0.561319	0.271891
H173	H	0.836752	-1.062848	-0.376310
H174	H	1.336752	-0.562848	0.123690
H175	H	0.836703	-0.943579	-0.376286
H176	H	1.336703	-0.443579	0.123714
H177	H	0.982850	-0.230001	-0.543569
H178	H	1.482850	0.269999	-0.043569
C179	C	0.541274	-0.387519	-0.218570
C180	C	1.041274	0.112481	0.281430
H181	H	0.497422	-0.381760	-0.224355
H182	H	0.997422	0.118240	0.275645
H183	H	0.552033	-0.378248	-0.176291
H184	H	1.052033	0.121752	0.323709
H185	H	0.552014	-0.429831	-0.227709
H186	H	1.052014	0.070169	0.272291
H187	H	0.669950	-0.376052	-0.230073
H188	H	1.169950	0.123948	0.269927
H189	H	0.982857	-0.229859	-0.944406
H190	H	1.482857	0.270141	-0.444406
H191	H	0.670163	-0.230200	-0.376439
H192	H	1.170163	0.269800	0.123561
C193	C	0.825094	-0.671403	-0.387731
C194	C	1.325094	-0.171403	0.112269
H195	H	0.801101	-0.642425	-0.411685
H196	H	1.301101	-0.142425	0.088315
H197	H	0.797686	-0.697093	-0.363632
H198	H	1.297686	-0.197093	0.136368
H199	H	0.849175	-0.697005	-0.415186
H200	H	1.349175	-0.197005	0.084814
C201	C	0.825170	-0.387561	-0.672156
C202	C	1.325170	0.112439	-0.172156
H203	H	0.830946	-0.381785	-0.716019
H204	H	1.330946	0.118215	-0.216019
H205	H	0.782879	-0.378361	-0.661368
H206	H	1.282879	0.121639	-0.161368
H207	H	0.834362	-0.429859	-0.661381
H208	H	1.334362	0.070141	-0.161381
H209	H	0.269326	-0.230121	-0.376465
H210	H	0.769326	0.269879	0.123535
H211	H	0.550899	-0.230172	-0.376441
H212	H	1.050899	0.269828	0.123559
H213	H	0.836556	-0.542739	-0.376223
H214	H	1.336556	-0.042739	0.123777
H215	H	0.150062	-0.230094	-0.376467
H216	H	0.650062	0.269906	0.123533
C217	C	0.825164	-0.387609	-0.534102
C218	C	1.325164	0.112391	-0.034102
H219	H	0.801178	-0.411584	-0.563083
H220	H	1.301178	0.088416	-0.063083
H221	H	0.797751	-0.363549	-0.508440
H222	H	1.297751	0.136451	-0.008440
H223	H	0.849238	-0.415042	-0.508471
H224	H	1.349238	0.084958	-0.008471
C225	C	0.994248	-0.671305	-0.218794
C226	C	1.494248	-0.171305	0.281206
H227	H	1.018220	-0.642300	-0.194828
H228	H	1.518220	-0.142300	0.305172
H229	H	1.021675	-0.696910	-0.242898
H230	H	1.521675	-0.196910	0.257102
H231	H	0.970179	-0.696990	-0.191350
H232	H	1.470179	-0.196990	0.308650
H233	H	0.836683	-0.375963	-0.944343
H234	H	1.336683	0.124037	-0.444343
C235	C	0.994364	-0.218310	-1.073070
C236	C	1.494364	0.281690	-0.573070
H237	H	1.018361	-0.194347	-1.044088
H238	H	1.518361	0.305653	-0.544088
H239	H	0.970305	-0.190875	-1.098707
H240	H	1.470305	0.309125	-0.598707
H241	H	1.021777	-0.242384	-1.098726
H242	H	1.521777	0.257616	-0.598726
H243	H	0.269109	-0.375982	-0.230110
H244	H	0.769109	0.124018	0.269890
C245	C	0.994356	-0.934088	-0.218846
C246	C	1.494356	-0.434088	0.281154
H247	H	1.018361	-0.963066	-0.194903
H248	H	1.518361	-0.463066	0.305097
H249	H	0.970282	-0.908486	-0.191390
H250	H	1.470282	-0.408486	0.308610
H251	H	1.021763	-0.908398	-0.242952
H252	H	1.521763	-0.408398	0.257048
C253	C	0.140439	-0.387444	-0.218593
C254	C	0.640439	0.112556	0.281407
H255	H	0.169397	-0.411386	-0.194567
H256	H	0.669397	0.088614	0.305433
H257	H	0.114777	-0.414902	-0.242621
H258	H	0.614777	0.085098	0.257379
H259	H	0.114806	-0.363313	-0.191209
H260	H	0.614806	0.136687	0.308791
H261	H	0.982846	-0.229954	-0.662833
H262	H	1.482846	0.270046	-0.162833
