data_functionalizedCrystal
_audit_creation_method	'MofGen! by Chris Wilmer'
_symmetry_space_group_name_H-M	'P1'
_symmetry_Int_Tables_number	1
_symmetry_cell_setting	triclinic
loop_
_symmetry_equiv_pos_as_xyz
  x,y,z
_cell_length_a	12.759401
_cell_length_b	21.295417
_cell_length_c	12.759393
_cell_angle_alpha	89.962952
_cell_angle_beta	89.980324
_cell_angle_gamma	90.030129
loop_
_atom_site_label
_atom_site_type_symbol
_atom_site_fract_x
_atom_site_fract_y
_atom_site_fract_z
Zn1	Zn	1.606157	-0.250572	-0.593937
Zn2	Zn	2.106157	0.249428	-0.093937
Zn3	Zn	1.606002	-0.355854	-0.418237
Zn4	Zn	2.106002	0.144146	0.081763
Zn5	Zn	1.430456	-0.250603	-0.418276
Zn6	Zn	1.930456	0.249397	0.081724
Zn7	Zn	1.430401	-0.355808	-0.593878
Zn8	Zn	1.930401	0.144192	-0.093878
O9	O	1.518254	-0.303209	-0.506082
O10	O	2.018254	0.196791	-0.006082
O11	O	1.753157	-0.264544	-0.570638
O12	O	2.253157	0.235456	-0.070638
O13	O	1.582673	-0.341924	-0.271221
O14	O	2.082673	0.158076	0.228779
O15	O	1.453850	-0.162509	-0.441619
O16	O	1.953850	0.337491	0.058381
O17	O	1.753043	-0.341894	-0.441552
O18	O	2.253043	0.158106	0.058448
O19	O	1.582937	-0.162486	-0.570676
O20	O	2.082937	0.337514	-0.070676
O21	O	1.453700	-0.264597	-0.271250
O22	O	1.953700	0.235403	0.228750
O23	O	1.283427	-0.264553	-0.441562
O24	O	1.783427	0.235447	0.058438
O25	O	1.453758	-0.341815	-0.740907
O26	O	1.953758	0.158185	-0.240907
O27	O	1.283388	-0.341846	-0.570576
O28	O	1.783388	0.158154	-0.070576
O29	O	1.582885	-0.264499	-0.740950
O30	O	2.082885	0.235501	-0.240950
O31	O	1.582621	-0.443937	-0.441495
O32	O	2.082621	0.056063	0.058505
O33	O	1.453608	-0.443903	-0.570538
O34	O	1.953608	0.056097	-0.070538
C35	C	1.245287	-0.303198	-0.506067
C36	C	1.745287	0.196802	-0.006067
C37	C	1.128510	-0.303209	-0.506086
C38	C	1.628510	0.196791	-0.006086
C39	C	1.073708	-0.263005	-0.573404
C40	C	1.573708	0.236995	-0.073404
C41	C	0.963984	-0.263012	-0.573411
C42	C	1.463984	0.236988	-0.073411
C43	C	0.963874	-0.343430	-0.438778
C44	C	1.463874	0.156570	0.061222
C45	C	1.073596	-0.343420	-0.438766
C46	C	1.573596	0.156580	0.061234
C47	C	1.518120	-0.466761	-0.506029
C48	C	2.018120	0.033239	-0.006029
C49	C	1.518159	-0.536729	-0.506041
C50	C	2.018159	-0.036729	-0.006041
C51	C	1.585336	-0.569526	-0.573289
C52	C	2.085336	-0.069526	-0.073289
C53	C	1.585373	-0.635269	-0.573315
C54	C	2.085373	-0.135269	-0.073315
C55	C	1.518244	-0.668211	-0.506074
C56	C	2.018244	-0.168211	-0.006074
C57	C	1.451054	-0.635406	-0.438821
C58	C	1.951054	-0.135406	0.061179
C59	C	1.451011	-0.569665	-0.438805
C60	C	1.951011	-0.069665	0.061195
N61	N	1.510303	-0.771479	-0.414128
N62	N	2.010303	-0.271479	0.085872
N63	N	1.510350	-0.833931	-0.414146
N64	N	2.010350	-0.333931	0.085854
C65	C	1.518367	-0.866286	-0.506122
C66	C	2.018367	-0.366286	-0.006122
N67	N	1.526356	-0.833830	-0.598079
N68	N	2.026356	-0.333830	-0.098079
N69	N	1.526315	-0.771373	-0.598060
N70	N	2.026315	-0.271373	-0.098060
C71	C	1.518282	-0.739497	-0.506085
C72	C	2.018282	-0.239497	-0.006085
C73	C	1.585588	-0.970369	-0.573404
C74	C	2.085588	-0.470369	-0.073404
C75	C	1.585617	-1.036113	-0.573431
C76	C	2.085617	-0.536113	-0.073431
C77	C	1.451304	-1.036248	-0.438928
C78	C	1.951304	-0.536248	0.061072
C79	C	1.451268	-0.970506	-0.438910
C80	C	1.951268	-0.470506	0.061090
C81	C	1.518416	-0.937570	-0.506146
C82	C	2.018416	-0.437570	-0.006146
C83	C	1.792287	-0.303220	-0.506097
C84	C	2.292287	0.196780	-0.006097
C85	C	1.909064	-0.303225	-0.506104
C86	C	2.409064	0.196775	-0.006104
C87	C	1.518333	-0.303149	-0.780115
C88	C	2.018333	0.196851	-0.280115
C89	C	1.518366	-0.303123	-0.896892
C90	C	2.018366	0.196877	-0.396892
C91	C	1.518417	-0.139019	-0.506158
C92	C	2.018417	0.360981	-0.006158
C93	C	1.518486	-0.069051	-0.506191
C94	C	2.018486	0.430949	-0.006191
C95	C	1.585607	-0.262858	-0.951778
C96	C	2.085607	0.237142	-0.451778
C97	C	1.585625	-0.262831	-1.061502
C98	C	2.085625	0.237169	-0.561502
C99	C	1.451157	-0.343339	-1.061445
C100	C	1.951157	0.156661	-0.561445
C101	C	1.451135	-0.343363	-0.951722
C102	C	1.951135	0.156637	-0.451722
C103	C	1.518236	-0.303224	-0.233115
C104	C	2.018236	0.196776	0.266885
C105	C	1.518406	-0.303072	-0.116338
C106	C	2.018406	0.196928	0.383662
H107	H	1.118416	-0.230260	-0.628217
H108	H	1.618416	0.269740	-0.128217
H109	H	1.396571	-0.943801	-0.384145
H110	H	1.896571	-0.443801	0.115855
H111	H	1.396306	-0.542960	-0.384042
H112	H	1.896306	-0.042960	0.115958
H113	H	0.919149	-0.376170	-0.383970
H114	H	1.419149	0.123830	0.116030
H115	H	1.640378	-0.230042	-1.106186
H116	H	2.140378	0.269958	-0.606186
Br117	Br	0.889613	-0.208445	-0.664772
Br118	Br	1.389613	0.291555	-0.164772
Br119	Br	1.359863	-0.398007	-0.877227
Br120	Br	1.859863	0.101993	-0.377227
H121	H	1.396639	-1.063070	-0.384186
H122	H	1.896639	-0.563070	0.115814
Br123	Br	1.359939	-0.680112	-0.347575
Br124	Br	1.859939	-0.180112	0.152425
H125	H	1.640068	-0.661978	-0.628089
H126	H	2.140068	-0.161978	-0.128089
Br127	Br	1.147977	-0.397978	-0.347384
Br128	Br	1.647977	0.102022	0.152616
Br129	Br	1.359924	-0.397950	-1.135864
Br130	Br	1.859924	0.102050	-0.635864
Br131	Br	1.676711	-0.925666	-0.664653
Br132	Br	2.176711	-0.425666	-0.164653
H133	H	1.640321	-1.062815	-0.628198
H134	H	2.140321	-0.562815	-0.128198
Br135	Br	1.676459	-0.524830	-0.664543
Br136	Br	2.176459	-0.024830	-0.164543
H137	H	1.640348	-0.230090	-0.907139
H138	H	2.140348	0.269910	-0.407139
