data_functionalizedCrystal
_audit_creation_method	'MofGen! by Chris Wilmer'
_symmetry_space_group_name_H-M	'P1'
_symmetry_Int_Tables_number	1
_symmetry_cell_setting	triclinic
loop_
_symmetry_equiv_pos_as_xyz
  x,y,z
_cell_length_a	10.654541
_cell_length_b	14.519709
_cell_length_c	9.730217
_cell_angle_alpha	89.995799
_cell_angle_beta	89.999932
_cell_angle_gamma	84.082037
loop_
_atom_site_label
_atom_site_type_symbol
_atom_site_fract_x
_atom_site_fract_y
_atom_site_fract_z
O1	O	1.666593	0.129520	-0.114251
O2	O	1.300995	0.141863	-0.114263
O3	O	1.493488	0.001504	-0.114245
O4	O	1.474101	0.269880	-0.114270
O5	O	1.493482	0.001502	0.114335
O6	O	1.300990	0.141862	0.114317
O7	O	1.666587	0.129519	0.114329
Zn8	Zn	1.483787	0.135690	0.150615
Zn9	Zn	1.483795	0.135692	-0.150549
O10	O	1.474095	0.269879	0.114310
C11	C	1.254203	0.140957	0.000025
C12	C	1.114786	0.138247	0.000021
C13	C	1.085201	0.306085	-0.000012
C14	C	1.004912	0.388727	-0.000034
C15	C	0.873919	0.386175	-0.000035
C16	C	0.823213	0.300972	-0.000010
C17	C	0.903502	0.218330	0.000012
C18	C	1.034496	0.220891	0.000009
C19	C	0.933086	0.050493	0.000055
C20	C	1.064080	0.053043	0.000046
C21	C	0.882380	-0.034710	0.000080
C22	C	0.962669	-0.117354	0.000092
C23	C	1.093670	-0.114798	0.000091
C24	C	1.144369	-0.029599	0.000068
C25	C	1.492581	-0.032862	0.000046
C26	C	1.489874	-0.135257	0.000046
C27	C	1.479906	-0.510204	0.000010
C28	C	1.482674	-0.405882	0.000021
C29	C	1.484890	-0.322734	0.000030
C30	C	1.487658	-0.218405	0.000037
C31	C	1.713380	0.130425	0.000037
C32	C	1.852797	0.133135	0.000033
C33	C	1.475002	0.304244	0.000017
C34	C	1.477709	0.406639	0.000007
N35	N	1.483791	0.135689	0.356151
N36	N	1.483801	0.135686	-0.356086
C37	C	1.654312	0.011436	0.356159
C38	C	1.739581	-0.050687	0.428102
C39	C	1.739594	-0.050688	0.571982
C40	C	1.654326	0.011440	0.643921
C41	C	1.569057	0.073564	0.571978
C42	C	1.569056	0.073559	0.428095
C43	C	1.398532	0.197810	0.571971
C44	C	1.398523	0.197816	0.428091
C45	C	1.313264	0.259938	0.643910
C46	C	1.227999	0.322067	0.571967
C47	C	1.227991	0.322066	0.428078
C48	C	1.313254	0.259940	0.356147
H49	H	1.046212	0.458098	-0.000051
C50	C	1.152295	0.377228	0.792522
C51	C	1.134283	0.390352	0.651043
H52	H	1.094443	0.419391	0.841341
H53	H	1.138526	0.315589	0.816093
H54	H	1.236131	0.387819	0.816083
H55	H	1.050450	0.379754	0.627480
H56	H	1.148042	0.452006	0.627462
C57	C	0.832513	-0.217598	-0.117381
C58	C	0.906933	-0.211002	0.000117
H59	H	0.798108	-0.275416	-0.117369
H60	H	0.765959	-0.168750	-0.117374
H61	H	0.883008	-0.213117	-0.197088
H62	H	0.856435	-0.215476	0.079824
H63	H	0.973496	-0.259864	0.000122
H64	H	0.716550	0.298901	0.000005
C65	C	1.059432	0.444883	0.442537
C66	C	1.134261	0.390357	0.349003
H67	H	1.001573	0.487048	0.393720
H68	H	1.014189	0.406179	0.498656
H69	H	1.111788	0.478414	0.498654
H70	H	1.081905	0.356821	0.292892
H71	H	1.179507	0.429066	0.292860
H72	H	1.654332	0.011428	0.761076
C73	C	0.808355	0.528436	-0.117584
C74	C	0.785654	0.477013	-0.000065
H75	H	0.753857	0.584512	-0.117605
H76	H	0.893613	0.542156	-0.117573
H77	H	0.792969	0.493518	-0.197276
H78	H	0.801049	0.511929	0.079628
H79	H	0.700376	0.463295	-0.000064
C80	C	1.406088	0.192284	0.150050
C81	C	1.313245	0.259934	0.197992
H82	H	1.406075	0.192276	0.052411
H83	H	1.486362	0.205469	0.182585
H84	H	1.388776	0.133225	0.182624
H85	H	1.330562	0.318995	0.165427
H86	H	1.232952	0.246756	0.165443
C87	C	0.702779	-0.084051	0.117594
C88	C	0.738390	-0.037519	0.000077
H89	H	0.613885	-0.085781	0.117589
H90	H	0.743337	-0.145454	0.117603
H91	H	0.726949	-0.052462	0.197288
H92	H	0.714229	-0.069112	-0.079617
H93	H	0.697818	0.023895	0.000055
H94	H	1.654321	0.011438	0.239004
C95	C	1.109744	-0.280959	0.000127
C96	C	1.181920	-0.205644	0.000108
H97	H	1.164225	-0.337043	0.000127
H98	H	1.058043	-0.278459	0.079836
H99	H	1.058028	-0.278461	-0.079587
H100	H	1.233629	-0.208139	0.079827
H101	H	1.233642	-0.208145	-0.079609
H102	H	1.251028	-0.027510	0.000051
H103	H	1.809004	-0.101273	0.369517
C104	C	1.908151	-0.173513	0.557553
C105	C	1.833315	-0.118978	0.651071
H106	H	1.966011	-0.215669	0.606382
H107	H	1.855808	-0.207044	0.501444
H108	H	1.953403	-0.134807	0.501424
H109	H	1.788056	-0.157683	0.707193
H110	H	1.885665	-0.085444	0.707203
H111	H	1.313273	0.259931	0.761065
H112	H	1.191861	0.308172	-0.000042
