data_functionalizedCrystal
_audit_creation_method	'MofGen! by Chris Wilmer'
_symmetry_space_group_name_H-M	'P1'
_symmetry_Int_Tables_number	1
_symmetry_cell_setting	triclinic
loop_
_symmetry_equiv_pos_as_xyz
  x,y,z
_cell_length_a	14.519709
_cell_length_b	14.044220
_cell_length_c	12.996460
_cell_angle_alpha	89.993022
_cell_angle_beta	90.000034
_cell_angle_gamma	88.434511
loop_
_atom_site_label
_atom_site_type_symbol
_atom_site_fract_x
_atom_site_fract_y
_atom_site_fract_z
O1	O	1.233893	0.124273	-0.085435
O2	O	1.567226	0.457606	0.247899
O3	O	1.900559	0.790939	0.581232
O4	O	0.966596	0.138907	-0.085466
O5	O	1.299929	0.472241	0.247867
O6	O	1.633263	0.805574	0.581200
O7	O	1.096232	-0.006401	-0.085441
O8	O	1.429566	0.326932	0.247892
O9	O	1.762899	0.660265	0.581226
O10	O	1.104256	0.269581	-0.085460
O11	O	1.437590	0.602915	0.247873
O12	O	1.770923	0.936248	0.581206
O13	O	1.096217	-0.006409	0.085693
O14	O	1.429550	0.326924	0.419026
O15	O	1.762884	0.660257	0.752360
O16	O	0.966581	0.138899	0.085667
O17	O	1.299914	0.472233	0.419001
O18	O	1.633247	0.805566	0.752334
O19	O	1.233877	0.124265	0.085699
O20	O	1.567211	0.457598	0.419032
O21	O	1.900544	0.790931	0.752366
Cu22	Cu	1.100228	0.131581	0.101309
Cu23	Cu	1.433561	0.464915	0.434642
Cu24	Cu	1.766894	0.798248	0.767976
Cu25	Cu	1.100246	0.131591	-0.101076
Cu26	Cu	1.433579	0.464924	0.232257
Cu27	Cu	1.766912	0.798257	0.565590
O28	O	1.104241	0.269573	0.085674
O29	O	1.437574	0.602907	0.419007
O30	O	1.770908	0.936240	0.752340
C31	C	0.932174	0.138221	0.000097
C32	C	1.265507	0.471555	0.333430
C33	C	1.598840	0.804888	0.666763
C34	C	0.829628	0.136177	0.000085
C35	C	1.162961	0.469511	0.333418
C36	C	1.496294	0.802844	0.666751
C37	C	0.454125	0.128653	0.000132
C38	C	0.787458	0.461987	0.333465
C39	C	1.120791	0.795320	0.666799
C40	C	0.558601	0.130743	0.000119
C41	C	0.891935	0.464076	0.333452
C42	C	1.225268	0.797409	0.666785
C43	C	0.641873	0.132415	0.000107
C44	C	0.975206	0.465749	0.333441
C45	C	1.308540	0.799082	0.666774
C46	C	0.746356	0.134505	0.000096
C47	C	1.079689	0.467838	0.333429
C48	C	1.413023	0.801172	0.666763
C49	C	1.092712	-0.041726	0.000126
C50	C	1.426045	0.291608	0.333459
C51	C	1.759379	0.624941	0.666793
C52	C	1.082235	-0.146969	0.000126
C53	C	1.415568	0.186364	0.333459
C54	C	1.748902	0.519697	0.666793
C55	C	1.063081	-0.339663	0.000109
C56	C	1.396414	-0.006330	0.333442
C57	C	1.729747	0.327004	0.666776
C58	C	1.137389	-0.397170	0.000115
C59	C	1.470722	-0.063837	0.333448
C60	C	1.804055	0.269496	0.666781
C61	C	1.126731	-0.504392	0.000105
C62	C	1.460064	-0.171059	0.333438
C63	C	1.793398	0.162275	0.666772
C64	C	1.073737	-0.232432	0.000118
C65	C	1.407070	0.100902	0.333452
C66	C	1.740404	0.434235	0.666785
C67	C	1.268300	0.124951	0.000134
C68	C	1.601633	0.458284	0.333467
C69	C	1.934966	0.791617	0.666801
C70	C	1.370846	0.126995	0.000139
C71	C	1.704179	0.460328	0.333472
C72	C	2.037512	0.793661	0.666806
C73	C	1.107761	0.304898	0.000104
C74	C	1.441095	0.638231	0.333438
C75	C	1.774428	0.971564	0.666771
C76	C	1.118238	0.410141	0.000098
C77	C	1.451572	0.743475	0.333431
C78	C	1.784905	1.076808	0.666764
N79	N	1.100221	0.131574	0.243656
N80	N	1.433555	0.464907	0.576990
N81	N	1.766888	0.798241	0.910323
N82	N	1.100259	0.131591	-0.243424
N83	N	1.433592	0.464924	0.089910
N84	N	1.766925	0.798257	0.423243
C85	C	1.100245	0.131592	0.663470
C86	C	1.433578	0.464925	0.996804
C87	C	1.766911	0.798258	1.330137
C88	C	1.100236	0.131590	0.546665
C89	C	1.433569	0.464923	0.879999
C90	C	1.766902	0.798257	1.213332
C91	C	1.100233	0.131584	0.453567
C92	C	1.433567	0.464917	0.786900
C93	C	1.766900	0.798250	1.120234
C94	C	1.100224	0.131580	0.336754
C95	C	1.433557	0.464914	0.670088
C96	C	1.766890	0.798247	1.003421
H97	H	1.209010	-0.365878	0.000054
H98	H	1.542343	-0.032545	0.333387
H99	H	1.875677	0.300789	0.666721
F100	F	0.969472	-0.380562	0.000092
F101	F	1.302805	-0.047229	0.333426
F102	F	1.636139	0.286105	0.666759
