data_functionalizedCrystal
_audit_creation_method	'MofGen! by Chris Wilmer'
_symmetry_space_group_name_H-M	'P1'
_symmetry_Int_Tables_number	1
_symmetry_cell_setting	triclinic
loop_
_symmetry_equiv_pos_as_xyz
  x,y,z
_cell_length_a	27.731994
_cell_length_b	16.109301
_cell_length_c	15.186229
_cell_angle_alpha	89.994833
_cell_angle_beta	90.002739
_cell_angle_gamma	83.041008
loop_
_atom_site_label
_atom_site_type_symbol
_atom_site_fract_x
_atom_site_fract_y
_atom_site_fract_z
O1	O	0.641357	0.098711	-0.073106
O2	O	0.500623	0.113799	-0.073136
O3	O	0.574856	-0.014825	-0.073111
O4	O	0.567124	0.227335	-0.073131
O5	O	0.574851	-0.014827	0.073346
O6	O	0.500618	0.113798	0.073322
O7	O	0.641352	0.098709	0.073351
Zn8	Zn	0.570984	0.106253	0.096590
Zn9	Zn	0.570991	0.106255	-0.096374
O10	O	0.567119	0.227333	0.073327
C11	C	0.574540	-0.045797	0.000118
C12	C	0.573601	-0.138080	0.000119
C13	C	0.482612	0.113489	0.000089
C14	C	0.428951	0.112556	0.000078
C15	C	0.615466	-0.360885	0.000114
C16	C	0.614580	-0.447594	0.000107
C17	C	0.526505	-0.426600	0.000091
C18	C	0.527392	-0.339892	0.000093
C19	C	0.571874	-0.307038	0.000108
C20	C	0.570101	-0.480454	0.000100
C21	C	0.569140	-0.574468	0.000092
C22	C	0.572835	-0.213018	0.000115
C23	C	0.096206	0.106680	0.079947
C24	C	-0.105467	0.103134	0.079957
O25	O	-0.131544	0.102639	0.147852
N26	N	-0.130681	0.102695	0.000123
C27	C	-0.105474	0.103137	-0.079719
O28	O	-0.131546	0.102673	-0.147622
C29	C	0.096199	0.106676	-0.079728
C30	C	0.121410	0.107124	0.000111
C31	C	0.121416	0.107127	0.159779
C32	C	0.171831	0.108018	0.159776
C33	C	0.197035	0.108462	0.079940
C34	C	0.171825	0.108015	0.000107
C35	C	0.121406	0.107112	-0.159569
C36	C	0.171828	0.107995	-0.159565
C37	C	0.197038	0.108443	-0.079726
C38	C	0.247443	0.109350	-0.079732
N39	N	0.272657	0.109790	0.000102
C40	C	0.247453	0.109346	0.079938
C41	C	-0.211355	0.101280	-0.079708
C42	C	-0.261773	0.100396	-0.079706
C43	C	-0.261763	0.100393	0.079970
C44	C	-0.211344	0.101282	0.079967
C45	C	-0.186141	0.101719	0.000125
C46	C	0.353328	0.111218	0.079925
C47	C	0.403747	0.112112	0.079914
C48	C	0.403733	0.112111	-0.079761
C49	C	0.353318	0.111221	-0.079751
C50	C	0.328117	0.110772	0.000099
O51	O	0.273552	0.109836	-0.147592
O52	O	0.273536	0.109791	0.147831
C53	C	0.045791	0.105789	0.079950
C54	C	0.020580	0.105342	0.000118
C55	C	0.045784	0.105786	-0.079718
C56	C	-0.029838	0.104459	0.000120
C57	C	-0.055042	0.104015	0.079956
C58	C	-0.029828	0.104454	0.159789
C59	C	0.020587	0.105345	0.159786
C60	C	0.020570	0.105347	-0.159552
C61	C	-0.029845	0.104457	-0.159542
C62	C	-0.055049	0.104013	-0.079706
C63	C	0.659363	0.099019	0.000124
C64	C	0.713023	0.099952	0.000130
C65	C	0.567434	0.258305	0.000096
C66	C	0.568373	0.350589	0.000089
N67	N	0.570983	0.106251	0.228282
N68	N	0.570995	0.106251	-0.228067
C69	C	0.603865	0.049315	0.454016
C70	C	0.603866	0.049313	0.546206
C71	C	0.538110	0.163190	0.546193
C72	C	0.538107	0.163187	0.454005
C73	C	0.570987	0.106250	0.407919
C74	C	0.570992	0.106251	0.592297
C75	C	0.570993	0.106249	0.692253
C76	C	0.570985	0.106251	0.307957
H77	H	0.651686	-0.334138	0.000125
H78	H	0.630637	0.002953	0.416495
H79	H	-0.050359	0.104097	0.224795
H80	H	0.630638	0.002950	0.583736
C81	C	0.093687	0.106601	-0.247394
H82	H	0.115926	0.106978	-0.294933
H83	H	0.070318	0.154750	-0.250740
H84	H	0.077722	0.057741	-0.250698
H85	H	-0.050368	0.104099	-0.224562
C86	C	0.501934	0.225798	0.596886
H87	H	0.482345	0.259694	0.556227
H88	H	0.519302	0.260206	0.632857
H89	H	0.481823	0.196107	0.632839
C90	C	-0.289509	0.100110	0.167787
H91	H	-0.323151	0.099578	0.156346
H92	H	-0.284904	0.148816	0.200453
H93	H	-0.277600	0.051807	0.200731
C94	C	0.662532	-0.506823	0.000118
H95	H	0.689149	-0.474834	0.000134
H96	H	0.664020	-0.541079	-0.050955
H97	H	0.664014	-0.541088	0.051197
H98	H	0.511331	0.209551	0.416470
C99	C	0.479437	-0.280656	0.000089
H100	H	0.452819	-0.312640	0.000092
H101	H	0.477954	-0.246390	-0.050983
H102	H	0.477954	-0.246402	0.051169
C103	C	0.477579	-0.462744	0.000086
H104	H	0.483293	-0.522096	0.000096
H105	H	0.459629	-0.444218	-0.050987
H106	H	0.459632	-0.444223	0.051165
H107	H	0.332815	0.110859	0.144946
C108	C	0.431477	0.112594	0.167740
H109	H	0.409244	0.112191	0.215286
H110	H	0.447449	0.161440	0.171063
H111	H	0.454841	0.064431	0.171058
C112	C	0.093699	0.106646	0.247606
H113	H	0.115941	0.107045	0.295143
H114	H	0.077724	0.057803	0.250947
H115	H	0.070338	0.154812	0.250922
C116	C	0.199560	0.108499	0.247597
H117	H	0.233198	0.109096	0.236173
H118	H	0.194991	0.059851	0.280399
H119	H	0.187599	0.156860	0.280396
C120	C	-0.183615	0.101753	0.167789
H121	H	-0.205851	0.101354	0.215332
H122	H	-0.167638	0.150593	0.171117
H123	H	-0.160256	0.053584	0.171105
H124	H	-0.282296	0.100045	-0.144719
H125	H	0.041086	0.105706	-0.224565
H126	H	0.192346	0.108351	-0.224583
C127	C	0.325583	0.110756	-0.167571
H128	H	0.347817	0.111151	-0.215118
H129	H	0.302218	0.158912	-0.170883
H130	H	0.309613	0.061903	-0.170898
C131	C	0.431465	0.112592	-0.167574
H132	H	0.465102	0.113176	-0.156134
H133	H	0.419508	0.160943	-0.200393
H134	H	0.426899	0.063935	-0.200363
C135	C	-0.183637	0.101771	-0.167540
H136	H	-0.205880	0.101391	-0.215078
H137	H	-0.160273	0.053616	-0.170868
H138	H	-0.167668	0.150625	-0.170864
H139	H	0.041109	0.105710	0.224799
