data_functionalizedCrystal
_audit_creation_method	'MofGen! by Chris Wilmer'
_symmetry_space_group_name_H-M	'P1'
_symmetry_Int_Tables_number	1
_symmetry_cell_setting	triclinic
loop_
_symmetry_equiv_pos_as_xyz
  x,y,z
_cell_length_a	19.805407
_cell_length_b	16.120444
_cell_length_c	19.805399
_cell_angle_alpha	87.128215
_cell_angle_beta	90.017803
_cell_angle_gamma	92.923874
loop_
_atom_site_label
_atom_site_type_symbol
_atom_site_fract_x
_atom_site_fract_y
_atom_site_fract_z
Zn1	Zn	1.021068	-0.331988	0.396351
Zn2	Zn	1.015243	-0.471406	0.288901
Zn3	Zn	0.907882	-0.332004	0.283180
Zn4	Zn	0.902108	-0.471356	0.402049
O5	O	0.961575	-0.401688	0.342621
O6	O	1.115011	-0.350496	0.382108
O7	O	1.000980	-0.452943	0.193427
O8	O	0.927750	-0.215336	0.293414
O9	O	1.110732	-0.452927	0.303164
O10	O	1.010908	-0.215324	0.376560
O11	O	0.922102	-0.350524	0.189224
O12	O	0.812400	-0.350475	0.298939
O13	O	0.917910	-0.452840	0.496009
O14	O	0.808158	-0.452856	0.386272
O15	O	1.005309	-0.350447	0.491823
O16	O	0.995381	-0.588066	0.308690
O17	O	0.912262	-0.588029	0.391819
C18	C	0.785720	-0.401662	0.342603
C19	C	0.710488	-0.401671	0.342612
C20	C	0.677369	-0.348430	0.383788
C21	C	0.606680	-0.348435	0.383791
C22	C	0.569112	-0.401685	0.342621
C23	C	0.602236	-0.454928	0.301441
C24	C	0.672923	-0.454919	0.301435
C25	C	0.317161	-0.454966	0.301463
C26	C	0.246468	-0.454973	0.301474
C27	C	0.250918	-0.348481	0.383819
C28	C	0.321605	-0.348472	0.383813
C29	C	0.354723	-0.401712	0.342631
C30	C	0.431372	-0.401706	0.342627
C31	C	0.492464	-0.401696	0.342628
C32	C	0.952581	-0.618298	0.351508
C33	C	0.948796	-0.710964	0.355333
C34	C	0.981379	-0.921905	0.322925
C35	C	0.941897	-0.880621	0.362323
C36	C	0.945736	-0.786215	0.358433
C37	C	0.977540	-1.016319	0.326815
C38	C	1.138117	-0.401715	0.342639
C39	C	1.213348	-0.401727	0.342646
C40	C	0.961615	-0.401636	0.519161
C41	C	0.961632	-0.401614	0.594392
C42	C	0.970623	-0.184234	0.333713
C43	C	0.974478	-0.091567	0.329917
C44	C	0.961577	-0.401681	0.166764
C45	C	0.961700	-0.401468	0.091524
C46	C	1.007142	-0.348295	0.627558
C47	C	1.007150	-0.348271	0.698245
C48	C	0.961651	-0.401570	0.735766
C49	C	0.916136	-0.454891	0.702596
C50	C	0.916126	-0.454910	0.631910
C51	C	0.916178	-0.454813	0.987666
C52	C	0.916193	-0.454792	1.058357
C53	C	1.007202	-0.348174	1.054002
C54	C	1.007192	-0.348193	0.983315
C55	C	0.961675	-0.401511	0.950151
C56	C	0.961666	-0.401535	0.873504
C57	C	0.961663	-0.401550	0.812413
H58	H	0.579718	-0.305082	0.417321
H59	H	0.879061	-0.498320	0.604907
N60	N	0.895860	-0.925206	0.408298
N61	N	0.858731	-0.886444	0.445337
H62	H	0.826216	-0.917934	0.477804
H63	H	1.018062	-0.886352	0.286275
H64	H	1.044195	-0.304895	0.597013
H65	H	1.044210	-0.304855	0.725245
H66	H	1.044244	-0.304794	0.952769
H67	H	1.044262	-0.304757	1.081012
N68	N	0.869707	-0.509241	1.096675
N69	N	0.829069	-0.556838	1.067057
H70	H	0.796239	-0.595291	1.094119
N71	N	0.869681	-0.509279	0.953807
N72	N	0.829064	-0.556864	0.987318
H73	H	0.796223	-0.595335	0.963403
H74	H	0.707952	-0.305070	0.417315
N75	N	0.869659	-0.509324	0.740930
N76	N	0.869674	-0.509300	0.804042
H77	H	0.836849	-0.547745	0.831116
H78	H	0.352190	-0.305113	0.417340
H79	H	0.223945	-0.305128	0.417349
N80	N	0.208103	-0.509364	0.259404
N81	N	0.216205	-0.503723	0.196724
H82	H	0.189111	-0.542135	0.167012
H83	H	0.571642	-0.498282	0.267917
N84	N	0.350982	-0.509343	0.259393
N85	N	0.343290	-0.503713	0.196715
H86	H	0.367178	-0.542120	0.167000
N87	N	0.706745	-0.509303	0.259366
N88	N	0.673197	-0.556842	0.222608
H89	H	0.697082	-0.595249	0.192891
