data_functionalizedCrystal
_audit_creation_method	'MofGen! by Chris Wilmer'
_symmetry_space_group_name_H-M	'P1'
_symmetry_Int_Tables_number	1
_symmetry_cell_setting	triclinic
loop_
_symmetry_equiv_pos_as_xyz
  x,y,z
_cell_length_a	18.101398
_cell_length_b	21.395361
_cell_length_c	21.395355
_cell_angle_alpha	90.021511
_cell_angle_beta	90.029870
_cell_angle_gamma	90.025974
loop_
_atom_site_label
_atom_site_type_symbol
_atom_site_fract_x
_atom_site_fract_y
_atom_site_fract_z
Zn1	Zn	1.132164	-0.249590	0.354337
Zn2	Zn	1.632164	0.250410	0.854337
Zn3	Zn	1.132048	-0.354350	0.249554
Zn4	Zn	1.632048	0.145650	0.749554
Zn5	Zn	1.008310	-0.249582	0.249564
Zn6	Zn	1.508310	0.250418	0.749564
Zn7	Zn	1.008274	-0.354325	0.354285
Zn8	Zn	1.508274	0.145675	0.854285
O9	O	1.070199	-0.301962	0.301935
O10	O	1.570199	0.198038	0.801935
O11	O	1.235781	-0.263501	0.340455
O12	O	1.735781	0.236499	0.840455
O13	O	1.115601	-0.340459	0.161878
O14	O	1.615601	0.159541	0.661878
O15	O	1.024803	-0.161905	0.263489
O16	O	1.524803	0.338095	0.763489
O17	O	1.235696	-0.340467	0.263472
O18	O	1.735696	0.159533	0.763472
O19	O	1.115798	-0.161911	0.340465
O20	O	1.615798	0.338089	0.840465
O21	O	1.024692	-0.263486	0.161885
O22	O	1.524692	0.236514	0.661885
O23	O	0.904673	-0.263462	0.263438
O24	O	1.404673	0.236538	0.763438
O25	O	1.024741	-0.340425	0.441970
O26	O	1.524741	0.159575	0.941970
O27	O	0.904646	-0.340417	0.340376
O28	O	1.404646	0.159583	0.840376
O29	O	1.115762	-0.263477	0.442008
O30	O	1.615762	0.236523	0.942008
O31	O	1.115566	-0.442025	0.263421
O32	O	1.615566	0.057975	0.763421
O33	O	1.024629	-0.442006	0.340366
O34	O	1.524629	0.057994	0.840366
C35	C	1.070101	-0.464749	0.301900
C36	C	1.570101	0.035251	0.801900
C37	C	1.070127	-0.534391	0.301906
C38	C	1.570127	-0.034391	0.801906
C39	C	0.877789	-0.301936	0.301902
C40	C	1.377789	0.198064	0.801902
C41	C	0.795474	-0.301941	0.301903
C42	C	1.295474	0.198059	0.801903
C43	C	1.117520	-0.567092	0.261882
C44	C	1.617520	-0.067092	0.761882
C45	C	1.117554	-0.632528	0.261896
C46	C	1.617554	-0.132528	0.761896
C47	C	1.070183	-0.665259	0.301928
C48	C	1.570183	-0.165259	0.801928
C49	C	1.022787	-0.632549	0.341960
C50	C	1.522787	-0.132549	0.841960
C51	C	1.022759	-0.567115	0.341949
C52	C	1.522759	-0.067115	0.841949
C53	C	1.003502	-0.768969	0.306832
C54	C	1.503502	-0.268969	0.806832
C55	C	1.003529	-0.834402	0.306839
C56	C	1.503529	-0.334402	0.806839
C57	C	1.070269	-0.867080	0.301965
C58	C	1.570269	-0.367080	0.801965
C59	C	1.136985	-0.834316	0.297071
C60	C	1.636985	-0.334316	0.797071
C61	C	1.136957	-0.768882	0.297060
C62	C	1.636957	-0.268882	0.797060
C63	C	1.070208	-0.736211	0.301944
C64	C	1.570208	-0.236211	0.801944
C65	C	1.117703	-0.970734	0.261953
C66	C	1.617703	-0.470734	0.761953
C67	C	1.117739	-1.036171	0.261972
C68	C	1.617739	-0.536171	0.761972
C69	C	1.022965	-1.036191	0.342032
C70	C	1.522965	-0.536191	0.842032
C71	C	1.022936	-0.970755	0.342017
C72	C	1.522936	-0.470755	0.842017
C73	C	1.070304	-0.938031	0.301974
C74	C	1.570304	-0.438031	0.801974
C75	C	0.496383	-0.301980	0.301956
C76	C	0.996383	0.198020	0.801956
C77	C	0.527701	-0.253320	0.253785
C78	C	1.027701	0.246680	0.753785
C79	C	0.613319	-0.253450	0.253579
C80	C	1.113319	0.246550	0.753579
C81	C	0.644766	-0.301960	0.301930
C82	C	1.144766	0.198040	0.801930
C83	C	0.613646	-0.367957	0.283884
C84	C	1.113646	0.132043	0.783884
C85	C	0.528001	-0.367687	0.283549
C86	C	1.028001	0.132313	0.783549
C87	C	0.528006	-0.285215	0.368286
C88	C	1.028006	0.214785	0.868286
C89	C	0.613656	-0.283746	0.367925
C90	C	1.113656	0.216254	0.867925
C91	C	0.728626	-0.301953	0.301916
C92	C	1.228626	0.198047	0.801916
C93	C	0.412524	-0.301991	0.301968
C94	C	0.912524	0.198009	0.801968
C95	C	1.263361	-0.301988	0.301968
C96	C	1.763361	0.198012	0.801968
C97	C	1.345675	-0.301999	0.301982
C98	C	1.845675	0.198001	0.801982
C99	C	1.070261	-0.301949	0.465358
C100	C	1.570261	0.198051	0.965358
C101	C	1.070287	-0.301944	0.535000
C102	C	1.570287	0.198056	1.035000
C103	C	1.070317	-0.138538	0.301984
C104	C	1.570317	0.361462	0.801984
C105	C	1.070368	-0.068897	0.302005
C106	C	1.570368	0.431103	0.802005
C107	C	1.070180	-0.301929	0.139148
C108	C	1.570180	0.198071	0.639148
C109	C	1.070298	-0.301758	0.069507
C110	C	1.570298	0.198242	0.569507
C111	C	1.117679	-0.261875	0.567734
C112	C	1.617679	0.238125	1.067734
C113	C	1.117678	-0.261848	0.633169
C114	C	1.617678	0.238152	1.133169
C115	C	1.070293	-0.301901	0.665868
C116	C	1.570293	0.198099	1.165868
C117	C	1.022891	-0.341973	0.633126
C118	C	1.522891	0.158027	1.133126
C119	C	1.022888	-0.341994	0.567692
C120	C	1.522888	0.158006	1.067692
C121	C	1.064411	-0.358316	0.769530
C122	C	1.564411	0.141684	1.269530
C123	C	1.064419	-0.358296	0.834963
C124	C	1.564419	0.141704	1.334963
C125	C	1.070297	-0.301835	0.867689
C126	C	1.570297	0.198165	1.367689
C127	C	1.076183	-0.245393	0.834974
C128	C	1.576183	0.254607	1.334974
C129	C	1.076180	-0.245414	0.769540
C130	C	1.576180	0.254586	1.269540
C131	C	1.070290	-0.301882	0.736821
C132	C	1.570290	0.198118	1.236821
C133	C	1.117691	-0.261734	0.971376
C134	C	1.617691	0.238266	1.471376
C135	C	1.117685	-0.261706	1.036812
C136	C	1.617685	0.238294	1.536812
C137	C	1.022901	-0.341836	1.036768
C138	C	1.522901	0.158164	1.536768
C139	C	1.022904	-0.341858	0.971332
C140	C	1.522904	0.158142	1.471332
C141	C	1.070302	-0.301808	0.938640
C142	C	1.570302	0.198192	1.438640
H143	H	1.156091	-0.540450	0.229278
H144	H	1.656091	-0.040450	0.729278
C145	C	0.642562	-0.387498	0.219079
C146	C	1.142562	0.112502	0.719079
N147	N	0.664338	-0.402212	0.170265
N148	N	1.164338	0.097788	0.670265
H149	H	0.634360	-0.204510	0.264892
H150	H	1.134360	0.295490	0.764892
H151	H	1.080970	-0.199457	0.742905
H152	H	1.580970	0.300543	1.242905
C153	C	0.970857	-1.072191	0.386069
C154	C	1.470857	-0.572191	0.886069
N155	N	0.931609	-1.099310	0.419240
N156	N	1.431609	-0.599310	0.919240
H157	H	1.156282	-0.229119	0.944756
H158	H	1.656282	0.270881	1.444756
C159	C	0.930076	-0.733031	0.312180
C160	C	1.430076	-0.233031	0.812180
N161	N	0.874773	-0.705963	0.316202
N162	N	1.374773	-0.205963	0.816202
H163	H	1.156150	-0.659159	0.229304
H164	H	1.656150	-0.159159	0.729304
H165	H	0.507753	-0.320657	0.404178
H166	H	1.007753	0.179343	0.904178
H167	H	1.191279	-0.742207	0.293077
H168	H	1.691279	-0.242207	0.793077
C169	C	1.210406	-0.870256	0.291714
C170	C	1.710406	-0.370256	0.791714
N171	N	1.265705	-0.897329	0.287680
N172	N	1.765705	-0.397329	0.787680
C173	C	0.930141	-0.870436	0.312220
C174	C	1.430141	-0.370436	0.812220
N175	N	0.874862	-0.897575	0.316275
N176	N	1.374862	-0.397575	0.816275
H177	H	1.059426	-0.404281	0.742891
H178	H	1.559426	0.095719	1.242891
H179	H	0.506435	-0.237928	0.384693
H180	H	1.006435	0.262072	0.884693
C181	C	0.970752	-0.386076	0.531683
C182	C	1.470752	0.113924	1.031683
N183	N	0.931483	-0.419280	0.504560
N184	N	1.431483	0.080720	1.004560
C185	C	0.642573	-0.328141	0.419011
C186	C	1.142573	0.171859	0.919011
N187	N	0.664351	-0.361587	0.457488
N188	N	1.164351	0.138413	0.957488
H189	H	0.634002	-0.235179	0.381532
H190	H	1.134002	0.264821	0.881532
C191	C	1.169810	-0.217810	0.531777
C192	C	1.669810	0.282190	1.031777
N193	N	1.209072	-0.184617	0.504692
N194	N	1.709072	0.315383	1.004692
C195	C	0.498570	-0.268112	0.187773
C196	C	0.998570	0.231888	0.687773
N197	N	0.476626	-0.279254	0.138053
N198	N	0.976626	0.220746	0.638053
H199	H	1.156270	-0.229216	0.659827
H200	H	1.656270	0.270784	1.159827
H201	H	0.984311	-0.374441	1.063390
H202	H	1.484311	0.125559	1.563390
H203	H	1.156275	-0.944089	0.229350
H204	H	1.656275	-0.444089	0.729350
H205	H	1.080970	-0.199417	0.861618
H206	H	1.580970	0.300583	1.361618
C207	C	1.169877	-1.072142	0.217939
C208	C	1.669877	-0.572142	0.717939
N209	N	1.209146	-1.099237	0.184771
N210	N	1.709146	-0.599237	0.684771
H211	H	0.984341	-0.944128	0.374606
H212	H	1.484341	-0.444128	0.874606
C213	C	1.169822	-0.217623	1.072820
C214	C	1.669822	0.282377	1.572820
N215	N	1.209094	-0.184420	1.099941
N216	N	1.709094	0.315580	1.599941
C217	C	0.970770	-0.385940	0.935323
C218	C	1.470770	0.114060	1.435323
N219	N	0.931499	-0.419143	0.908202
N220	N	1.431499	0.080857	1.408202
C221	C	0.970676	-0.668555	0.385993
C222	C	1.470676	-0.168555	0.885993
N223	N	0.931425	-0.695674	0.419160
N224	N	1.431425	-0.195674	0.919160
H225	H	1.059631	-0.404254	0.861595
H226	H	1.559631	0.095746	1.361595
H227	H	0.984306	-0.374582	0.659754
H228	H	1.484306	0.125418	1.159754
C229	C	0.970631	-0.531142	0.385989
C230	C	1.470631	-0.031142	0.885989
N231	N	0.931370	-0.504046	0.419163
N232	N	1.431370	-0.004046	0.919163
H233	H	0.507131	-0.204230	0.264973
H234	H	1.007131	0.295770	0.764973
C235	C	0.500957	-0.386888	0.218037
C236	C	1.000957	0.113112	0.718037
N237	N	0.480591	-0.401348	0.168691
N238	N	0.980591	0.098652	0.668691
H239	H	0.633767	-0.264532	0.204429
H240	H	1.133767	0.235468	0.704429
H241	H	0.507283	-0.405169	0.317104
H242	H	1.007283	0.094831	0.817104
H243	H	0.634015	-0.405183	0.317871
H244	H	1.134015	0.094817	0.817871
