data_functionalizedCrystal
_audit_creation_method	'MofGen! by Chris Wilmer'
_symmetry_space_group_name_H-M	'P1'
_symmetry_Int_Tables_number	1
_symmetry_cell_setting	triclinic
loop_
_symmetry_equiv_pos_as_xyz
  x,y,z
_cell_length_a	11.792241
_cell_length_b	10.654550
_cell_length_c	9.730223
_cell_angle_alpha	90.003749
_cell_angle_beta	90.001500
_cell_angle_gamma	84.339159
loop_
_atom_site_label
_atom_site_type_symbol
_atom_site_fract_x
_atom_site_fract_y
_atom_site_fract_z
O1	O	-0.159415	-1.667383	-0.114404
O2	O	-0.174603	-1.301862	-0.114382
O3	O	-0.001859	-1.493493	-0.114383
O4	O	-0.332159	-1.475752	-0.114402
O5	O	-0.001863	-1.493490	0.114196
O6	O	-0.174608	-1.301859	0.114198
O7	O	-0.159419	-1.667381	0.114176
Zn8	Zn	-0.167014	-1.484620	0.150479
Zn9	Zn	-0.167008	-1.484623	-0.150685
O10	O	-0.332163	-1.475750	0.114178
C11	C	-0.173490	-1.255066	-0.000089
C12	C	-0.170154	-1.115632	-0.000080
C13	C	0.040432	-1.492377	-0.000094
C14	C	0.166454	-1.489042	-0.000095
C15	C	-0.374455	-1.476865	-0.000114
C16	C	-0.500476	-1.480201	-0.000122
C17	C	0.397180	-1.482908	-0.000118
C18	C	0.268787	-1.486316	-0.000105
C19	C	-0.160532	-1.714177	-0.000120
C20	C	-0.163869	-1.853611	-0.000137
N21	N	-0.167017	-1.484627	0.356016
C22	C	-0.271863	-1.035858	-0.000106
C23	C	-0.268721	-0.904847	-0.000129
C24	C	-0.062152	-0.933394	-0.000107
C25	C	-0.065295	-1.064404	-0.000074
C26	C	-0.376722	-1.087087	-0.000112
C27	C	-0.478439	-1.007312	-0.000139
C28	C	-0.475297	-0.876300	-0.000163
C29	C	-0.370438	-0.825063	-0.000159
N30	N	-0.166996	-1.484625	-0.356221
C31	C	-0.090552	-1.569503	0.427941
C32	C	-0.090539	-1.569500	0.571824
C33	C	-0.243465	-1.399740	0.571844
C34	C	-0.243472	-1.399739	0.427963
C35	C	-0.014098	-1.654391	0.355993
C36	C	0.062373	-1.739275	0.427919
C37	C	0.062387	-1.739272	0.571802
C38	C	-0.014070	-1.654385	0.643759
H39	H	-0.379291	-1.193762	-0.000099
H40	H	-0.305714	-1.330630	0.630441
H41	H	-0.558120	-0.811350	-0.000171
Cl42	Cl	-0.610254	-1.071723	-0.000128
H43	H	0.017526	-1.129358	-0.000057
Cl44	Cl	-0.014115	-1.654405	0.175112
Cl45	Cl	0.158494	-1.845974	0.337462
H46	H	-0.367888	-0.718383	-0.000157
H47	H	-0.305736	-1.330623	0.369401
Cl48	Cl	0.158527	-1.845970	0.662221
Cl49	Cl	0.069661	-0.868979	-0.000110
Cl50	Cl	-0.014038	-1.654376	0.824643
