data_functionalizedCrystal
_audit_creation_method	'MofGen! by Chris Wilmer'
_symmetry_space_group_name_H-M	'P1'
_symmetry_Int_Tables_number	1
_symmetry_cell_setting	triclinic
loop_
_symmetry_equiv_pos_as_xyz
  x,y,z
_cell_length_a	12.759401
_cell_length_b	12.645330
_cell_length_c	12.759393
_cell_angle_alpha	89.961554
_cell_angle_beta	90.018567
_cell_angle_gamma	89.981659
loop_
_atom_site_label
_atom_site_type_symbol
_atom_site_fract_x
_atom_site_fract_y
_atom_site_fract_z
Zn1	Zn	1.606222	0.422004	0.593933
Zn2	Zn	1.606102	0.599308	0.418232
Zn3	Zn	1.430524	0.422056	0.418272
Zn4	Zn	1.430498	0.599223	0.593873
O5	O	1.518336	0.510648	0.506078
O6	O	1.753227	0.445537	0.570634
O7	O	1.582772	0.575852	0.271216
O8	O	1.453891	0.273702	0.441616
O9	O	1.753139	0.575802	0.441547
O10	O	1.582976	0.273664	0.570673
O11	O	1.453775	0.445626	0.271246
O12	O	1.283499	0.445544	0.441558
O13	O	1.453848	0.575657	0.740902
O14	O	1.283481	0.575707	0.570571
O15	O	1.582951	0.445455	0.740946
O16	O	1.582747	0.747644	0.441489
O17	O	1.453732	0.747581	0.570532
C18	C	1.245369	0.510623	0.506063
C19	C	1.128592	0.510638	0.506082
C20	C	1.073769	0.442937	0.573401
C21	C	0.964045	0.442957	0.573408
C22	C	0.963977	0.578388	0.438772
C23	C	1.073699	0.578362	0.438761
C24	C	1.073808	0.364750	0.651135
C25	C	0.964084	0.364770	0.651142
C26	C	1.518252	0.786077	0.506023
C27	C	1.518312	0.903907	0.506035
C28	C	1.599326	1.071467	0.424671
C29	C	1.599604	0.948906	0.424883
C30	C	1.548335	0.948280	0.616774
C31	C	1.548964	1.070878	0.616329
C32	C	1.407200	1.071236	0.477710
C33	C	1.407747	0.948631	0.475239
C34	C	1.792370	0.510673	0.506093
C35	C	1.909146	0.510684	0.506099
C36	C	1.518410	0.510541	0.780111
C37	C	1.518441	0.510495	0.896888
C38	C	1.518421	1.234142	0.506128
C39	C	1.518383	1.116312	0.506080
C40	C	1.518324	0.510678	0.233110
C41	C	1.518496	0.510425	0.116334
C42	C	1.585675	0.442692	0.951774
C43	C	1.585700	0.442654	1.061499
C44	C	1.451255	0.578230	1.061440
C45	C	1.451226	0.578262	0.951718
C46	C	1.663299	0.364422	0.951809
C47	C	1.663324	0.364384	1.061533
H48	H	1.580820	0.918910	0.342771
H49	H	1.744692	0.386374	1.091309
H50	H	1.492591	1.100539	0.679075
O51	O	1.574878	1.111492	0.315858
H52	H	1.494981	1.085706	0.292841
O53	O	1.132835	0.651365	0.366138
H54	H	1.076228	0.698462	0.319334
H55	H	1.630233	1.099390	0.640363
H56	H	1.740568	0.393855	0.917770
H57	H	1.396528	0.633402	1.106096
O58	O	0.904773	0.651435	0.366167
H59	H	0.819265	0.640083	0.377485
H60	H	1.103581	0.282613	0.629491
O61	O	1.624791	0.261054	1.106662
H62	H	1.604347	0.206298	1.041855
O63	O	0.924664	0.394040	0.758868
H64	H	0.953678	0.474004	0.779883
H65	H	1.107871	0.394246	0.728370
H66	H	1.681961	0.919498	0.443655
H67	H	1.681234	1.102197	0.443226
O68	O	1.472644	0.909662	0.699295
H69	H	1.412684	0.858306	0.662166
O70	O	0.918984	0.261427	0.612737
H71	H	0.945903	0.196182	0.664390
O72	O	1.654785	0.907518	0.649154
H73	H	1.686479	0.855669	0.586562
O74	O	1.371023	1.112297	0.372592
H75	H	1.431892	1.165298	0.339394
H76	H	1.385109	0.919642	0.393744
O77	O	1.323556	0.908068	0.548026
H78	H	1.285191	0.975864	0.587751
O79	O	1.327352	1.109871	0.556182
H80	H	1.349760	1.082612	0.635805
O81	O	1.378657	0.651336	0.892513
H82	H	1.331915	0.698440	0.949076
O83	O	1.634478	0.255677	0.912395
H84	H	1.555268	0.234292	0.941415
