data_functionalizedCrystal
_audit_creation_method	'MofGen! by Chris Wilmer'
_symmetry_space_group_name_H-M	'P1'
_symmetry_Int_Tables_number	1
_symmetry_cell_setting	triclinic
loop_
_symmetry_equiv_pos_as_xyz
  x,y,z
_cell_length_a	12.594516
_cell_length_b	12.759401
_cell_length_c	12.759393
_cell_angle_alpha	89.982620
_cell_angle_beta	89.970672
_cell_angle_gamma	90.016214
loop_
_atom_site_label
_atom_site_type_symbol
_atom_site_fract_x
_atom_site_fract_y
_atom_site_fract_z
Zn1	Zn	-0.423673	1.606234	-0.593999
Zn2	Zn	-0.601693	1.606128	-0.418327
Zn3	Zn	-0.423729	1.430539	-0.418339
Zn4	Zn	-0.601610	1.430520	-0.593968
O5	O	-0.512676	1.518355	-0.506158
O6	O	-0.447298	1.753241	-0.570704
O7	O	-0.578143	1.582799	-0.271307
O8	O	-0.274776	1.453898	-0.441658
O9	O	-0.578089	1.753163	-0.441638
O10	O	-0.274734	1.582980	-0.570715
O11	O	-0.447394	1.453795	-0.271316
O12	O	-0.447314	1.283516	-0.441628
O13	O	-0.577948	1.453866	-0.740993
O14	O	-0.578003	1.283502	-0.570663
O15	O	-0.447218	1.582962	-0.741016
O16	O	-0.750627	1.582780	-0.441608
O17	O	-0.750567	1.453763	-0.570651
C18	C	-0.512656	1.245388	-0.506144
C19	C	-0.512674	1.128611	-0.506163
C20	C	-0.580832	1.073770	-0.573240
C21	C	-0.580846	0.964045	-0.573251
C22	C	-0.444539	0.964015	-0.439099
C23	C	-0.444521	1.073737	-0.439094
C24	C	-0.659531	1.073786	-0.650688
C25	C	-0.659544	0.964062	-0.650700
C26	C	-0.789217	1.518286	-0.506148
C27	C	-0.907522	1.518353	-0.506179
C28	C	-0.976781	1.448174	-0.576316
C29	C	-1.047652	1.422576	-0.480449
C30	C	-1.047451	1.544046	-0.602062
C31	C	-0.976835	1.492705	-0.410261
C32	C	-0.976627	1.614220	-0.531938
C33	C	-1.047466	1.588659	-0.436006
C34	C	-0.235055	1.518453	-0.506192
C35	C	-0.116750	1.518495	-0.506206
C36	C	-0.512568	1.518424	-0.780192
C37	C	-0.512521	1.518453	-0.896968
C38	C	-0.512696	1.792389	-0.506173
C39	C	-0.512705	1.909165	-0.506179
C40	C	-0.444428	1.451309	-0.951841
C41	C	-0.444396	1.451341	-1.061565
C42	C	-0.580555	1.585669	-1.061534
C43	C	-0.580591	1.585631	-0.951812
C44	C	-0.365814	1.373758	-0.951860
C45	C	-0.365783	1.373790	-1.061584
C46	C	-0.512707	1.518348	-0.233191
C47	C	-0.512454	1.518522	-0.116415
H48	H	-0.630120	0.930064	-0.728050
C49	C	-1.089143	1.668917	-0.355808
C50	C	-1.158943	1.760959	-0.392459
C51	C	-1.200623	1.841211	-0.312259
C52	C	-1.172502	1.829421	-0.195409
C53	C	-1.102698	1.737375	-0.158753
C54	C	-1.061019	1.657123	-0.238952
H55	H	-1.179763	1.769689	-0.478963
H56	H	-1.252297	1.909349	-0.339395
H57	H	-1.203356	1.888828	-0.136040
H58	H	-1.081878	1.728644	-0.072248
H59	H	-1.009345	1.588985	-0.211816
H60	H	-0.945944	1.470937	-0.329163
H61	H	-1.078470	1.565721	-0.683138
C62	C	-0.934441	1.723628	-0.561401
C63	C	-0.962200	1.771796	-0.668614
C64	C	-0.920011	1.881204	-0.698091
C65	C	-0.850063	1.942443	-0.620356
C66	C	-0.822301	1.894275	-0.513136
C67	C	-0.864490	1.784867	-0.483659
H68	H	-1.013983	1.726462	-0.726164
H69	H	-0.940563	1.916860	-0.777462
H70	H	-0.818833	2.023433	-0.642177
H71	H	-0.770518	1.939609	-0.455586
H72	H	-0.843938	1.749211	-0.404288
C73	C	-0.629827	1.114066	-0.760655
C74	C	-0.605892	1.035679	-0.849313
C75	C	-0.576187	1.075958	-0.959276
C76	C	-0.570418	1.194625	-0.980581
C77	C	-0.594354	1.273019	-0.891921
C78	C	-0.624058	1.232740	-0.781958
H79	H	-0.610162	0.947828	-0.833544
H80	H	-0.558468	1.017925	-1.024908
H81	H	-0.548428	1.224442	-1.061983
H82	H	-0.590083	1.360870	-0.907690
H83	H	-0.641777	1.290773	-0.716326
H84	H	-0.287524	1.402924	-0.917840
H85	H	-0.389051	0.919322	-0.384496
H86	H	-0.395290	1.296492	-1.095611
H87	H	-0.636055	1.640291	-0.907139
H88	H	-0.635974	1.640364	-1.106202
C89	C	-1.089805	1.313140	-0.451020
C90	C	-1.061946	1.217723	-0.519591
C91	C	-1.104094	1.108285	-0.490170
C92	C	-1.174103	1.094264	-0.392177
C93	C	-1.201966	1.189684	-0.323600
C94	C	-1.159817	1.299122	-0.353021
H95	H	-1.010118	1.228100	-0.592136
H96	H	-1.083468	1.037650	-0.540936
H97	H	-1.205304	1.013252	-0.370398
H98	H	-1.253793	1.179307	-0.251054
H99	H	-1.180443	1.369757	-0.302255
H100	H	-0.741959	0.934265	-0.628771
H101	H	-0.283335	1.395609	-1.091378
C102	C	-0.395646	1.263814	-0.911622
C103	C	-0.419665	1.175218	-0.990042
C104	C	-0.449497	1.065278	-0.949804
C105	C	-0.455310	1.043933	-0.831145
C106	C	-0.431289	1.132532	-0.752717
C107	C	-0.401458	1.242472	-0.792956
H108	H	-0.415363	1.191016	-1.077887
H109	H	-0.467279	0.999691	-1.007862
H110	H	-0.477393	0.962549	-0.801359
H111	H	-0.435592	1.116734	-0.664873
H112	H	-0.383676	1.308058	-0.734897
H113	H	-0.389013	1.118385	-0.384480
H114	H	-0.737794	1.107799	-0.621407
H115	H	-0.945744	1.388719	-0.635542
