data_functionalizedCrystal
_audit_creation_method	'MofGen! by Chris Wilmer'
_symmetry_space_group_name_H-M	'P1'
_symmetry_Int_Tables_number	1
_symmetry_cell_setting	triclinic
loop_
_symmetry_equiv_pos_as_xyz
  x,y,z
_cell_length_a	15.944551
_cell_length_b	9.130313
_cell_length_c	10.654550
_cell_angle_alpha	89.999890
_cell_angle_beta	83.991821
_cell_angle_gamma	90.004256
loop_
_atom_site_label
_atom_site_type_symbol
_atom_site_fract_x
_atom_site_fract_y
_atom_site_fract_z
O1	O	1.115457	-0.121643	0.161961
O2	O	0.871023	-0.121679	0.181929
O3	O	0.998860	-0.121654	-0.010867
O4	O	0.987620	-0.121667	0.354757
O5	O	0.998858	0.121944	-0.010862
O6	O	0.871021	0.121920	0.181935
O7	O	1.115455	0.121956	0.161966
Cu8	Cu	0.993238	0.144181	0.171951
Cu9	Cu	0.993240	-0.143903	0.171945
O10	O	0.987618	0.121932	0.354762
C11	C	0.839723	0.000116	0.181103
C12	C	0.746463	0.000102	0.178618
N13	N	0.993243	0.346803	0.171954
N14	N	0.993242	-0.346526	0.171931
C15	C	0.530880	0.000135	0.053173
C16	C	0.470198	-0.119974	0.111423
C17	C	0.575711	0.000120	0.174122
C18	C	0.470219	0.120195	0.111457
C19	C	0.410773	0.000143	0.169770
C20	C	0.516257	-0.120088	0.232405
C21	C	0.516284	0.120189	0.232421
C22	C	0.455620	0.000050	0.290759
C23	C	0.670728	0.000105	0.176625
C24	C	0.315757	0.000147	0.167276
C25	C	1.146755	0.000158	0.162792
C26	C	1.240015	0.000162	0.165278
C27	C	0.998034	0.000143	-0.057652
C28	C	0.995565	0.000138	-0.197063
C29	C	1.049864	0.423466	0.086613
C30	C	1.049861	0.576803	0.086598
C31	C	0.936615	0.576801	0.257277
C32	C	0.936614	0.423467	0.257285
C33	C	1.115248	0.423468	-0.011924
C34	C	1.115246	0.576805	-0.011939
C35	C	1.070833	0.000153	-0.277522
C36	C	1.068508	0.000143	-0.408513
C37	C	0.915639	0.000107	-0.378572
C38	C	0.917965	0.000107	-0.247584
C39	C	1.159090	0.000180	-0.294810
C40	C	1.156765	0.000169	-0.425801
C41	C	0.988444	0.000131	0.401547
C42	C	0.990913	0.000127	0.540958
H43	H	0.563632	-0.000010	-0.047204
H44	H	1.179794	0.618431	0.008744
H45	H	0.423043	-0.000020	0.391240
H46	H	0.852460	0.000081	-0.419722
O47	O	0.836780	0.000069	-0.160806
H48	H	0.851431	0.000058	-0.061233
H49	H	1.193612	-0.101754	-0.265901
O50	O	0.443218	0.254702	0.043679
H51	H	0.462569	0.354292	0.092994
O52	O	1.200819	0.135190	-0.481713
H53	H	1.155783	0.201279	-0.530801
H54	H	0.449792	-0.221514	0.060264
O55	O	0.543122	-0.254746	0.300108
H56	H	0.486739	-0.321605	0.331945
O57	O	1.088223	0.639829	-0.132412
H58	H	1.139888	0.708248	-0.179277
H59	H	1.183439	-0.105006	-0.471791
O60	O	1.196329	0.139490	-0.248080
H61	H	1.214194	0.213347	-0.329238
H62	H	0.536711	0.221734	0.283537
H63	H	0.890501	0.361049	0.326765
H64	H	0.890508	0.639237	0.326750
H65	H	1.100907	0.381849	-0.108271
H66	H	1.176233	0.375918	0.017876
