data_functionalizedCrystal
_audit_creation_method	'MofGen! by Chris Wilmer'
_symmetry_space_group_name_H-M	'P1'
_symmetry_Int_Tables_number	1
_symmetry_cell_setting	triclinic
loop_
_symmetry_equiv_pos_as_xyz
  x,y,z
_cell_length_a	14.908979
_cell_length_b	13.897448
_cell_length_c	14.908308
_cell_angle_alpha	86.732812
_cell_angle_beta	83.628929
_cell_angle_gamma	93.319350
loop_
_atom_site_label
_atom_site_type_symbol
_atom_site_fract_x
_atom_site_fract_y
_atom_site_fract_z
Zn1	Zn	1.354255	-0.327024	0.432038
Zn2	Zn	1.854255	0.172976	0.932038
Zn3	Zn	1.362900	-0.478470	0.280686
Zn4	Zn	1.862900	0.021530	0.780686
Zn5	Zn	1.211629	-0.327071	0.289418
Zn6	Zn	1.711629	0.172929	0.789418
Zn7	Zn	1.202871	-0.498163	0.440718
Zn8	Zn	1.702871	0.001837	0.940718
O9	O	1.282914	-0.407682	0.360715
O10	O	1.782914	0.092318	0.860715
O11	O	1.482064	-0.338853	0.404675
O12	O	1.982064	0.161147	0.904675
O13	O	1.350116	-0.450164	0.155183
O14	O	1.850116	0.049836	0.655183
O15	O	1.230596	-0.192081	0.308359
O16	O	1.730596	0.307919	0.808359
O17	O	1.488415	-0.450119	0.293477
O18	O	1.988415	0.049881	0.793477
O19	O	1.335383	-0.192047	0.413141
O20	O	1.835383	0.307953	0.913141
O21	O	1.238978	-0.338931	0.161598
O22	O	1.738978	0.161069	0.661598
O23	O	1.083805	-0.358028	0.316775
O24	O	1.583805	0.141972	0.816775
O25	O	1.215670	-0.483684	0.566228
O26	O	1.715670	0.016316	1.066228
O27	O	1.077371	-0.483729	0.427934
O28	O	1.577371	0.016271	0.927934
O29	O	1.326891	-0.357949	0.559851
O30	O	1.826891	0.142051	1.059851
O31	O	1.341624	-0.616065	0.301893
O32	O	1.841624	-0.116065	0.801893
O33	O	1.224052	-0.630534	0.419467
O34	O	1.724052	-0.130534	0.919467
C35	C	1.047745	-0.423021	0.374244
C36	C	1.547745	0.076979	0.874244
C37	C	0.947138	-0.429607	0.380054
C38	C	1.447138	0.070393	0.880054
C39	C	0.802017	-0.504424	0.446012
C40	C	1.302017	-0.004424	0.946012
C41	C	0.896546	-0.498236	0.440562
C42	C	1.396546	0.001764	0.940562
C43	C	0.903195	-0.367164	0.324990
C44	C	1.403195	0.132836	0.824990
C45	C	0.808666	-0.373352	0.330441
C46	C	1.308666	0.126648	0.830441
C47	C	0.758080	-0.441983	0.390955
C48	C	1.258080	0.058017	0.890955
C49	C	0.663549	-0.448166	0.396409
C50	C	1.163549	0.051834	0.896409
C51	C	0.670200	-0.317099	0.280834
C52	C	1.170200	0.182901	0.780834
C53	C	0.764729	-0.310911	0.275383
C54	C	1.264729	0.189089	0.775383
C55	C	1.282849	-0.658299	0.360693
C56	C	1.782849	-0.158299	0.860693
C57	C	1.282903	-0.765510	0.360709
C58	C	1.782903	-0.265510	0.860709
C59	C	1.282994	-0.961803	0.360760
C60	C	1.782994	-0.461803	0.860760
C61	C	1.282941	-0.852572	0.360734
C62	C	1.782941	-0.352572	0.860734
C63	C	1.519000	-0.392284	0.347133
C64	C	2.019000	0.107716	0.847133
C65	C	1.619606	-0.385722	0.341346
C66	C	2.119606	0.114278	0.841346
C67	C	1.269340	-0.423008	0.596799
C68	C	1.769340	0.076992	1.096799
C69	C	1.263555	-0.429539	0.697404
C70	C	1.763555	0.070461	1.197404
C71	C	1.283002	-0.156086	0.360756
C72	C	1.783002	0.343914	0.860756
C73	C	1.283040	-0.048871	0.360773
C74	C	1.783040	0.451129	0.860773
C75	C	1.296487	-0.392343	0.125546
C76	C	1.796487	0.107657	0.625546
C77	C	1.302447	-0.385528	0.024931
C78	C	1.802447	0.114472	0.524931
C79	C	1.368498	-0.310861	0.879814
C80	C	1.868498	0.189139	1.379814
C81	C	1.363065	-0.316994	0.974341
C82	C	1.863065	0.183006	1.474341
C83	C	1.247255	-0.447932	0.980988
C84	C	1.747255	0.052068	1.480988
C85	C	1.252687	-0.441799	0.886461
C86	C	1.752687	0.058201	1.386461
C87	C	1.313311	-0.373263	0.835877
C88	C	1.813311	0.126737	1.335877
C89	C	1.318747	-0.367135	0.741348
C90	C	1.818747	0.132865	1.241348
C91	C	1.202933	-0.498068	0.747997
C92	C	1.702933	0.001932	1.247997
C93	C	1.197500	-0.504201	0.842524
C94	C	1.697500	-0.004201	1.342524
H95	H	0.622363	-0.504045	0.445686
H96	H	1.122363	-0.004045	0.945686
H97	H	0.760828	-0.560298	0.495293
H98	H	1.260828	-0.060298	0.995293
F99	F	1.182733	-0.520862	1.034838
F100	F	1.682733	-0.020862	1.534838
H101	H	0.805930	-0.255036	0.226112
H102	H	1.305930	0.244964	0.726112
F103	F	0.943303	-0.564696	0.499159
F104	F	1.443303	-0.064696	0.999159
F105	F	0.957047	-0.294133	0.260587
F106	F	1.457047	0.205867	0.760587
H107	H	1.417865	-0.255060	0.838627
H108	H	1.917865	0.244940	1.338627
F109	F	0.623433	-0.250638	0.222237
F110	F	1.123433	0.249362	0.722237
F111	F	1.383271	-0.294195	0.687514
F112	F	1.883271	0.205805	1.187514
F113	F	1.132982	-0.577137	0.896369
F114	F	1.632982	-0.077137	1.396369
H115	H	1.157998	-0.548882	0.712213
H116	H	1.657998	-0.048882	1.212213
H117	H	1.408002	-0.266178	1.010111
H118	H	1.908002	0.233822	1.510111
