data_functionalizedCrystal
_audit_creation_method	'MofGen! by Chris Wilmer'
_symmetry_space_group_name_H-M	'P1'
_symmetry_Int_Tables_number	1
_symmetry_cell_setting	triclinic
loop_
_symmetry_equiv_pos_as_xyz
  x,y,z
_cell_length_a	10.654562
_cell_length_b	14.044220
_cell_length_c	9.130313
_cell_angle_alpha	89.997493
_cell_angle_beta	89.996930
_cell_angle_gamma	88.839490
loop_
_atom_site_label
_atom_site_type_symbol
_atom_site_fract_x
_atom_site_fract_y
_atom_site_fract_z
O1	O	1.681219	0.133285	-0.121901
O2	O	1.317016	0.145966	-0.121883
O3	O	1.493651	0.001605	-0.121878
O4	O	1.504584	0.277646	-0.121907
O5	O	1.493649	0.001609	0.121721
O6	O	1.317014	0.145970	0.121715
O7	O	1.681217	0.133289	0.121698
Cu8	Cu	1.499115	0.139630	0.143949
Cu9	Cu	1.499118	0.139625	-0.144135
O10	O	1.504582	0.277650	0.121692
C11	C	1.270124	0.145034	-0.000082
C12	C	1.130401	0.142241	-0.000074
C13	C	1.064738	0.140940	0.132700
C14	C	0.933453	0.138323	0.132676
C15	C	0.933504	0.138312	-0.132909
C16	C	1.064788	0.140922	-0.132883
C17	C	1.130351	0.142259	0.265509
C18	C	1.064688	0.140960	0.398294
C19	C	0.933403	0.138343	0.398270
C20	C	0.867781	0.137025	0.265461
C21	C	1.488864	-0.033739	-0.000077
C22	C	1.474588	-0.139059	-0.000075
C23	C	1.448490	-0.331893	-0.000095
C24	C	1.549738	-0.388857	-0.000104
C25	C	1.535216	-0.496157	-0.000115
C26	C	1.463010	-0.224584	-0.000084
C27	C	1.728109	0.134221	-0.000107
C28	C	1.867832	0.137014	-0.000124
C29	C	1.509369	0.312994	-0.000112
C30	C	1.523645	0.418315	-0.000124
N31	N	1.499123	0.139633	0.346572
N32	N	1.499119	0.139615	-0.346757
C33	C	1.577361	0.075731	0.423226
C34	C	1.577356	0.075720	0.576563
C35	C	1.420873	0.203519	0.576577
C36	C	1.420872	0.203525	0.423243
C37	C	1.655612	0.011839	0.346555
C38	C	1.733857	-0.052067	0.423209
C39	C	1.733852	-0.052079	0.576546
C40	C	1.655603	0.011816	0.653228
H41	H	0.760880	0.134892	0.265452
H42	H	1.357166	0.255541	0.639022
N43	N	1.326075	-0.371801	-0.000044
N44	N	1.251744	-0.353785	0.102664
H45	H	1.165289	-0.381980	0.102711
N46	N	1.655644	0.011844	0.189927
N47	N	1.725518	-0.045201	0.121483
H48	H	1.725544	-0.045194	0.010864
H49	H	1.797558	-0.104093	0.360767
H50	H	1.797553	-0.104119	0.638957
N51	N	1.131733	0.142291	0.533935
N52	N	1.248949	0.144624	0.533943
H53	H	1.296300	0.145563	0.629742
H54	H	1.357162	0.255559	0.360831
H55	H	0.880064	0.137242	-0.241036
H56	H	1.647325	-0.357041	-0.000207
H57	H	1.655596	0.011795	0.778086
H58	H	1.237250	0.144393	0.265544
H59	H	1.118251	0.141986	-0.241000
N60	N	0.866352	0.137022	0.533914
N61	N	0.876918	0.204068	0.622810
H62	H	0.829567	0.203141	0.718616
