data_functionalizedCrystal
_audit_creation_method	'MofGen! by Chris Wilmer'
_symmetry_space_group_name_H-M	'P1'
_symmetry_Int_Tables_number	1
_symmetry_cell_setting	triclinic
loop_
_symmetry_equiv_pos_as_xyz
  x,y,z
_cell_length_a	16.625548
_cell_length_b	29.839131
_cell_length_c	29.839126
_cell_angle_alpha	90.021998
_cell_angle_beta	90.025994
_cell_angle_gamma	90.042488
loop_
_atom_site_label
_atom_site_type_symbol
_atom_site_fract_x
_atom_site_fract_y
_atom_site_fract_z
Zn1	Zn	1.232617	-0.178884	0.254008
Zn2	Zn	1.232463	-0.254002	0.178878
Zn3	Zn	1.097766	-0.178888	0.178891
Zn4	Zn	1.097705	-0.253990	0.253979
O5	O	1.165138	-0.216441	0.216439
O6	O	1.345429	-0.188853	0.244049
O7	O	1.214557	-0.244045	0.116013
O8	O	1.115745	-0.116021	0.188872
O9	O	1.345316	-0.244041	0.188851
O10	O	1.214819	-0.116018	0.244061
O11	O	1.115595	-0.188859	0.116022
O12	O	0.984926	-0.188847	0.188844
O13	O	1.115640	-0.244020	0.316850
O14	O	0.984881	-0.244024	0.244012
O15	O	1.214760	-0.188840	0.316872
O16	O	1.214497	-0.316868	0.188823
O17	O	1.115491	-0.316858	0.244000
C18	C	0.955647	-0.216435	0.216427
C19	C	0.866026	-0.216443	0.216432
C20	C	0.537850	-0.216446	0.216451
C21	C	0.629159	-0.216444	0.216444
C22	C	0.701935	-0.216445	0.216441
C23	C	0.793250	-0.216442	0.216435
C24	C	1.164992	-0.333164	0.216417
C25	C	1.165004	-0.383098	0.216422
C26	C	1.216784	-0.692734	0.187751
C27	C	1.216884	-0.880407	0.187768
O28	O	1.260794	-0.904665	0.163373
N29	N	1.165305	-0.903883	0.216473
C30	C	1.113702	-0.880438	0.245178
O31	O	1.069839	-0.904713	0.269597
C32	C	1.113607	-0.692766	0.245162
C33	C	1.165183	-0.669292	0.216452
C34	C	1.268357	-0.669260	0.159043
C35	C	1.268329	-0.622344	0.159038
C36	C	1.216727	-0.598903	0.187739
C37	C	1.165155	-0.622377	0.216446
C38	C	1.062008	-0.669323	0.273869
C39	C	1.061990	-0.622401	0.273863
C40	C	1.113567	-0.598927	0.245153
C41	C	1.113525	-0.552020	0.245142
N42	N	1.165104	-0.528544	0.216437
C43	C	1.216705	-0.551985	0.187736
C44	C	1.113754	-0.978969	0.245183
C45	C	1.113777	-1.025887	0.245187
C46	C	1.216960	-1.025852	0.187777
C47	C	1.216933	-0.978933	0.187772
C48	C	1.165333	-0.955493	0.216478
C49	C	1.216641	-0.453459	0.187725
C50	C	1.216605	-0.406540	0.187721
C51	C	1.113425	-0.406579	0.245131
C52	C	1.113457	-0.453494	0.245134
C53	C	1.165071	-0.476933	0.216430
O54	O	1.069644	-0.527733	0.269528
O55	O	1.260574	-0.527702	0.163327
C56	C	1.216813	-0.739649	0.187756
C57	C	1.165240	-0.763123	0.216464
C58	C	1.113639	-0.739682	0.245165
C59	C	1.165263	-0.810041	0.216467
C60	C	1.216864	-0.833482	0.187766
C61	C	1.268443	-0.810006	0.159061
C62	C	1.268414	-0.763090	0.159055
C63	C	1.062060	-0.763158	0.273870
C64	C	1.062092	-0.810074	0.273873
C65	C	1.113694	-0.833515	0.245172
C66	C	1.375447	-0.216448	0.216452
C67	C	1.465068	-0.216451	0.216457
C68	C	1.165210	-0.216428	0.333617
C69	C	1.165241	-0.216423	0.383552
C70	C	1.165306	-0.099263	0.216471
C71	C	1.165378	-0.049328	0.216485
C72	C	1.165112	-0.216422	0.099717
C73	C	1.165238	-0.216300	0.049782
C74	C	1.216759	-0.245098	0.740138
C75	C	1.216761	-0.245129	0.552464
O76	O	1.260555	-0.269581	0.528198
N77	N	1.165238	-0.216401	0.528997
C78	C	1.113707	-0.187665	0.552451
O79	O	1.069877	-0.163234	0.528184
C80	C	1.113702	-0.187636	0.740123
C81	C	1.165234	-0.216363	0.763588
C82	C	1.268287	-0.273823	0.763602
C83	C	1.268289	-0.273813	0.810518
C84	C	1.216764	-0.245079	0.833968
C85	C	1.165236	-0.216354	0.810504
C86	C	1.062167	-0.158903	0.763576
C87	C	1.062169	-0.158899	0.810497
C88	C	1.113702	-0.187626	0.833962
C89	C	1.113713	-0.187609	0.880870
N90	N	1.165237	-0.216337	0.904337
C91	C	1.216762	-0.245072	0.880886
C92	C	1.113714	-0.187682	0.453920
C93	C	1.113716	-0.187688	0.407003
C94	C	1.216769	-0.245153	0.407019
C95	C	1.216771	-0.245144	0.453938
C96	C	1.165237	-0.216410	0.477388
C97	C	1.216763	-0.245049	0.979412
C98	C	1.216763	-0.245035	1.026332
C99	C	1.113707	-0.187572	1.026311
C100	C	1.113710	-0.187584	0.979396
C101	C	1.165240	-0.216326	0.955947
O102	O	1.069935	-0.163174	0.905165
O103	O	1.260572	-0.269507	0.905161
C104	C	1.216757	-0.245108	0.693222
C105	C	1.165230	-0.216383	0.669757
C106	C	1.113704	-0.187648	0.693208
C107	C	1.165232	-0.216390	0.622839
C108	C	1.216757	-0.245124	0.599389
C109	C	1.268280	-0.273853	0.622856
C110	C	1.268282	-0.273843	0.669771
C111	C	1.062181	-0.158920	0.669741
C112	C	1.062184	-0.158932	0.622825
C113	C	1.113709	-0.187667	0.599374
H114	H	1.258605	-0.387428	0.164340
O115	O	1.272347	-0.276134	0.479240
H116	H	1.313406	-0.256029	0.500630
H117	H	1.258724	-0.268549	0.387918
O118	O	1.006382	-0.694631	0.304839
H119	H	0.965373	-0.716038	0.284720
O120	O	1.006382	-0.737883	0.304822
H121	H	1.020170	-0.746866	0.340090
O122	O	1.058140	-1.051205	0.276146
H123	H	1.071940	-1.042178	0.311411
O124	O	1.006600	-0.127942	0.597522
H125	H	1.015251	-0.132771	0.560956
O126	O	1.006322	-0.597122	0.304821
H127	H	1.020121	-0.606105	0.340088
O128	O	1.272572	-0.953614	0.156815
H129	H	1.258787	-0.962643	0.121548
O130	O	1.272302	-0.478737	0.156763
H131	H	1.308148	-0.454526	0.136799
O132	O	1.323969	-0.597028	0.128079
H133	H	1.359858	-0.621217	0.108129
H134	H	1.020203	-0.135511	0.744479
O135	O	1.058077	-0.953689	0.276136
H136	H	1.022210	-0.977900	0.296088
H137	H	1.310456	-0.829100	0.135690
O138	O	1.324012	-0.694540	0.128081
H139	H	1.359859	-0.670327	0.108120
O140	O	1.323859	-0.304842	0.597555
H141	H	1.359699	-0.324816	0.621750
H142	H	1.020086	-0.829182	0.297252
O143	O	1.272354	-0.276043	0.954128
H144	H	1.258489	-0.311301	0.963128
O145	O	1.323864	-0.304807	0.835816
H146	H	1.364931	-0.284706	0.857206
O147	O	1.323860	-0.304834	0.695071
H148	H	1.364925	-0.284730	0.716459
O149	O	1.272633	-1.051138	0.156828
H150	H	1.263987	-1.087706	0.161661
H151	H	1.020204	-0.135500	0.829588
O152	O	1.272348	-0.276022	1.051638
H153	H	1.263704	-0.271187	1.088203
H154	H	1.071759	-0.164186	0.960290
H155	H	1.310246	-0.297224	0.744514
H156	H	1.071762	-0.164291	0.387901
H157	H	1.071759	-0.164176	1.045413
O158	O	1.057829	-0.478817	0.276098
H159	H	1.021946	-0.454633	0.296056
H160	H	1.071409	-0.387485	0.268498
O161	O	1.058138	-0.156683	0.479211
H162	H	1.022323	-0.136706	0.455006
H163	H	1.020221	-0.135521	0.688829
H164	H	1.310412	-0.743981	0.135677
