data_functionalizedCrystal
_audit_creation_method	'MofGen! by Chris Wilmer'
_symmetry_space_group_name_H-M	'P1'
_symmetry_Int_Tables_number	1
_symmetry_cell_setting	triclinic
loop_
_symmetry_equiv_pos_as_xyz
  x,y,z
_cell_length_a	16.992694
_cell_length_b	15.538191
_cell_length_c	15.455313
_cell_angle_alpha	91.603349
_cell_angle_beta	87.142206
_cell_angle_gamma	68.970158
loop_
_atom_site_label
_atom_site_type_symbol
_atom_site_fract_x
_atom_site_fract_y
_atom_site_fract_z
O1	O	0.989241	0.191780	-0.072014
O2	O	0.761568	0.189633	-0.072040
O3	O	0.919723	0.056913	-0.072026
O4	O	0.831085	0.324499	-0.072028
O5	O	0.910688	0.064469	0.072235
O6	O	0.752533	0.197189	0.072222
O7	O	0.980206	0.199336	0.072247
Cu8	Cu	0.865545	0.198952	0.085407
Cu9	Cu	0.876229	0.190016	-0.085199
O10	O	0.822051	0.332055	0.072233
C11	C	0.728624	0.190651	0.000088
C12	C	0.643924	0.182416	0.000078
C13	C	0.571070	0.261869	0.000078
C14	C	0.491487	0.254127	0.000090
C15	C	0.484758	0.166930	0.000095
C16	C	0.557620	0.087471	0.000098
C17	C	0.637201	0.095214	0.000092
C18	C	0.250294	0.134837	0.000119
C19	C	0.170704	0.127099	0.000122
C20	C	0.104576	0.293756	0.000116
C21	C	0.184162	0.301491	0.000105
C22	C	0.257016	0.222033	0.000112
N23	N	0.403412	0.159014	0.000105
N24	N	0.338360	0.229950	0.000108
C25	C	0.924480	0.026294	0.000103
C26	C	0.952104	-0.076201	0.000097
C27	C	0.677671	-0.384652	0.000085
C28	C	0.703646	-0.480962	0.000090
C29	C	0.849754	-0.492404	0.000106
C30	C	0.823791	-0.396094	0.000097
C31	C	0.737748	-0.342224	0.000087
C32	C	0.883868	-0.353667	0.000099
C33	C	0.857907	-0.257364	0.000095
C34	C	0.771868	-0.203488	0.000088
C35	C	0.711786	-0.245922	0.000083
C36	C	0.969911	-0.407537	0.000115
C37	C	1.029988	-0.365110	0.000117
C38	C	1.004027	-0.268806	0.000106
C39	C	0.917988	-0.214930	0.000099
C40	C	1.064108	-0.226373	0.000111
C41	C	1.038146	-0.130070	0.000107
C42	C	0.892026	-0.118628	0.000095
C43	C	1.013150	0.198318	0.000118
C44	C	1.097851	0.206553	0.000122
C45	C	0.817294	0.362675	0.000103
C46	C	0.789671	0.465169	0.000103
N47	N	0.858036	0.205237	0.205401
N48	N	0.883746	0.183724	-0.205194
C49	C	0.925237	0.148877	0.250801
C50	C	0.919563	0.153639	0.341609
C51	C	0.846689	0.214767	0.387015
C52	C	0.779482	0.271130	0.341608
C53	C	0.785154	0.266362	0.250803
C54	C	0.822212	0.235320	0.658594
C55	C	0.816545	0.240085	0.749406
C56	C	0.956626	0.122592	0.749400
C57	C	0.962294	0.117834	0.658593
C58	C	0.895085	0.174194	0.613194
N59	N	0.840889	0.219638	0.479834
N60	N	0.900884	0.169317	0.520376
H61	H	0.045251	0.358447	0.000112
H62	H	0.750731	-0.125072	0.000089
O63	O	0.808459	-0.066190	0.000196
C64	C	0.784383	-0.006242	0.074918
H65	H	0.842365	0.004521	0.099838
H66	H	0.736261	0.063020	0.058107
H67	H	0.755053	-0.037788	0.127231
O68	O	0.190850	0.386121	0.000032
C69	C	0.276713	0.375917	0.000030
H70	H	0.317702	0.303917	-0.027250
H71	H	0.288460	0.429855	-0.041892
H72	H	0.293409	0.385729	0.069228
H73	H	0.607606	-0.340788	0.000071
O74	O	0.164317	0.042322	0.000165
C75	C	0.245686	-0.026152	0.000147
H76	H	0.291016	0.005221	0.027461
H77	H	0.243193	-0.084472	0.042030
H78	H	0.268645	-0.054577	-0.069061
H79	H	0.309604	0.070135	0.000125
H80	H	0.730432	0.312256	0.213839
O81	O	0.933333	-0.544688	0.000265
C82	C	0.966767	-0.520701	0.074966
H83	H	0.913617	-0.488144	0.127187
H84	H	1.015414	-0.585313	0.100047
H85	H	0.998307	-0.469253	0.058070
O86	O	0.984940	0.098865	0.385576
C87	C	1.050472	0.043883	0.326028
H88	H	1.044608	0.078361	0.261292
H89	H	1.114125	0.035867	0.352253
H90	H	1.045674	-0.027037	0.316385
H91	H	1.100044	-0.408983	0.000128
H92	H	0.552135	0.016474	0.000115
O93	O	1.147686	-0.278754	-0.000028
C94	C	1.171751	-0.338743	-0.074723
H95	H	1.125742	-0.309217	-0.126953
H96	H	1.238235	-0.346217	-0.099794
H97	H	1.170736	-0.409303	-0.057823
H98	H	0.696521	0.030515	0.000091
O99	O	0.628223	-0.193552	-0.000085
C100	C	0.613527	-0.141403	-0.074791
H101	H	0.666081	-0.176414	-0.127004
H102	H	0.550185	-0.136555	-0.099880
H103	H	0.612429	-0.069072	-0.057898
O104	O	0.577449	0.346646	0.000110
C105	C	0.496079	0.415111	0.000092
H106	H	0.447339	0.386592	0.027408
H107	H	0.493328	0.477821	0.041972
H108	H	0.481771	0.436282	-0.069117
O109	O	0.645174	-0.522030	0.000041
C110	C	0.563665	-0.453827	0.000053
H111	H	0.568289	-0.388287	-0.027256
H112	H	0.522694	-0.479845	-0.041837
H113	H	0.534104	-0.438201	0.069260
H114	H	1.087068	-0.095525	0.000110
O115	O	0.995103	-0.501091	-0.000038
C116	C	0.968370	-0.534042	-0.074749
H117	H	0.957967	-0.481380	-0.126969
H118	H	1.018793	-0.602245	-0.099823
H119	H	0.906736	-0.545146	-0.057869
H120	H	0.984580	0.099104	0.213838
H121	H	1.021633	0.068059	0.621625
H122	H	1.011344	0.076706	0.786372
H123	H	0.757200	0.289866	0.786371
O124	O	0.420681	0.331286	0.000235
C125	C	0.367987	0.335706	0.074940
H126	H	0.407467	0.293501	0.127167
H127	H	0.336268	0.410633	0.100007
H128	H	0.317615	0.306560	0.058056
O129	O	0.756868	0.290164	0.614636
C130	C	0.691328	0.345123	0.674188
H131	H	0.718459	0.351952	0.738910
H132	H	0.660291	0.416509	0.647947
H133	H	0.642237	0.311352	0.683861
H134	H	0.720144	0.320898	0.378583
