data_functionalizedCrystal
_audit_creation_method	'MofGen! by Chris Wilmer'
_symmetry_space_group_name_H-M	'P1'
_symmetry_Int_Tables_number	1
_symmetry_cell_setting	triclinic
loop_
_symmetry_equiv_pos_as_xyz
  x,y,z
_cell_length_a	15.944493
_cell_length_b	19.188930
_cell_length_c	15.021413
_cell_angle_alpha	89.998889
_cell_angle_beta	89.993251
_cell_angle_gamma	83.309913
loop_
_atom_site_label
_atom_site_type_symbol
_atom_site_fract_x
_atom_site_fract_y
_atom_site_fract_z
O1	O	1.114223	0.089846	-0.074030
O2	O	1.447556	0.423179	0.259303
O3	O	1.780890	0.756512	0.592636
O4	O	0.869625	0.100990	-0.074036
O5	O	1.202958	0.434323	0.259297
O6	O	1.536292	0.767657	0.592631
O7	O	0.998983	-0.006221	-0.074016
O8	O	1.332316	0.327113	0.259318
O9	O	1.665649	0.660446	0.592651
O10	O	0.984865	0.197057	-0.074051
O11	O	1.318199	0.530390	0.259282
O12	O	1.651532	0.863723	0.592616
O13	O	0.998962	-0.006205	0.074048
O14	O	1.332295	0.327128	0.407382
O15	O	1.665629	0.660461	0.740715
O16	O	0.869604	0.101005	0.074028
O17	O	1.202938	0.434339	0.407361
O18	O	1.536271	0.767672	0.740695
O19	O	1.114202	0.089861	0.074034
O20	O	1.447536	0.423194	0.407367
O21	O	1.780869	0.756528	0.740700
Zn22	Zn	0.991900	0.095436	0.097539
Zn23	Zn	1.325234	0.428769	0.430873
Zn24	Zn	1.658567	0.762102	0.764206
Zn25	Zn	0.991927	0.095416	-0.097542
Zn26	Zn	1.325261	0.428749	0.235792
Zn27	Zn	1.658594	0.762082	0.569125
O28	O	0.984845	0.197072	0.074013
O29	O	1.318178	0.530405	0.407347
O30	O	1.651512	0.863739	0.740680
C31	C	0.838322	0.100542	-0.000004
C32	C	1.171655	0.433876	0.333329
C33	C	1.504988	0.767209	0.666662
C34	C	0.745078	0.099177	-0.000006
C35	C	1.078412	0.432510	0.333327
C36	C	1.411745	0.765843	0.666661
C37	C	0.998515	-0.032225	0.000019
C38	C	1.331848	0.301108	0.333352
C39	C	1.665182	0.634442	0.666686
C40	C	0.997143	-0.109733	0.000027
C41	C	1.330476	0.223600	0.333360
C42	C	1.663809	0.556934	0.666693
C43	C	0.509082	0.162283	-0.000017
C44	C	0.842415	0.495617	0.333316
C45	C	1.175749	0.828950	0.666649
C46	C	0.458641	0.128260	0.072996
C47	C	0.791974	0.461593	0.406329
C48	C	1.125308	0.794927	0.739662
C49	C	0.574367	0.096646	-0.000004
C50	C	0.907700	0.429980	0.333330
C51	C	1.241033	0.763313	0.666663
C52	C	0.458666	0.128229	-0.072984
C53	C	0.791999	0.461563	0.260349
C54	C	1.125333	0.794896	0.593683
C55	C	0.409466	0.094207	-0.000005
C56	C	0.742799	0.427541	0.333328
C57	C	1.076133	0.760874	0.666661
C58	C	0.525154	0.062641	0.073070
C59	C	0.858487	0.395974	0.406403
C60	C	1.191820	0.729307	0.739736
C61	C	0.525182	0.062620	-0.072976
C62	C	0.858515	0.395953	0.260358
C63	C	1.191848	0.729286	0.593691
C64	C	0.474774	0.028548	0.000055
C65	C	0.808107	0.361881	0.333389
C66	C	1.141440	0.695215	0.666722
C67	C	0.669361	0.098053	-0.000002
C68	C	1.002695	0.431387	0.333331
C69	C	1.336028	0.764720	0.666665
C70	C	0.314474	0.092795	-0.000001
C71	C	0.647808	0.426128	0.333332
C72	C	0.981141	0.759462	0.666666
C73	C	1.073046	-0.154474	0.000033
C74	C	1.406379	0.178860	0.333366
C75	C	1.739712	0.512193	0.666699
C76	C	1.071756	-0.227301	0.000018
C77	C	1.405090	0.106033	0.333352
C78	C	1.738423	0.439366	0.666685
C79	C	0.994560	-0.255384	0.000016
C80	C	1.327893	0.077950	0.333349
C81	C	1.661227	0.411283	0.666682
C82	C	0.918647	-0.210633	0.000005
C83	C	1.251980	0.122701	0.333338
C84	C	1.585314	0.456034	0.666671
C85	C	0.919939	-0.137808	0.000010
C86	C	1.253272	0.195526	0.333343
C87	C	1.586605	0.528859	0.666677
N88	N	0.935545	-0.363526	0.050404
N89	N	1.268879	-0.030192	0.383737
N90	N	1.602212	0.303141	0.717070
N91	N	0.934324	-0.432707	0.050400
N92	N	1.267657	-0.099374	0.383734
N93	N	1.600991	0.233960	0.717067
C94	C	0.990664	-0.474802	-0.000002
C95	C	1.323998	-0.141468	0.333331
C96	C	1.657331	0.191865	0.666664
N97	N	1.048285	-0.445102	-0.050390
N98	N	1.381619	-0.111769	0.282943
N99	N	1.714952	0.221564	0.616276
N100	N	1.049509	-0.375915	-0.050383
N101	N	1.382843	-0.042581	0.282950
N102	N	1.716176	0.290752	0.616283
C103	C	0.993151	-0.334349	0.000009
C104	C	1.326484	-0.001016	0.333343
C105	C	1.659818	0.332317	0.666676
C106	C	1.065174	-0.598510	-0.000013
C107	C	1.398508	-0.265177	0.333320
C108	C	1.731841	0.068156	0.666654
C109	C	1.063882	-0.671338	-0.000033
C110	C	1.397215	-0.338005	0.333301
C111	C	1.730548	-0.004671	0.666634
C112	C	0.910770	-0.654669	-0.000037
C113	C	1.244104	-0.321335	0.333296
C114	C	1.577437	0.011998	0.666629
C115	C	0.912065	-0.581842	-0.000026
C116	C	1.245398	-0.248509	0.333307
C117	C	1.578732	0.084824	0.666640
C118	C	0.989269	-0.553768	-0.000010
C119	C	1.322603	-0.220434	0.333323
C120	C	1.655936	0.112899	0.666657
C121	C	1.145506	0.090309	0.000000
C122	C	1.478839	0.423642	0.333333
C123	C	1.812173	0.756976	0.666667
C124	C	1.238749	0.091675	-0.000004
C125	C	1.572083	0.425008	0.333329
C126	C	1.905416	0.758341	0.666662
C127	C	0.985312	0.223076	-0.000023
C128	C	1.318646	0.556410	0.333310
C129	C	1.651979	0.889743	0.666643
C130	C	0.986685	0.300584	-0.000037
C131	C	1.320018	0.633918	0.333297
C132	C	1.653351	0.967251	0.666630
N133	N	0.991888	0.095449	0.230677
N134	N	1.325221	0.428782	0.564010
N135	N	1.658554	0.762116	0.897344
N136	N	0.991946	0.095397	-0.230679
N137	N	1.325280	0.428730	0.102654
N138	N	1.658613	0.762063	0.435987
C139	C	0.932064	0.145000	0.470351
C140	C	1.265397	0.478333	0.803684
C141	C	1.598730	0.811667	1.137017
C142	C	1.007916	0.158542	0.529684
C143	C	1.341249	0.491875	0.863017
C144	C	1.674582	0.825208	1.196351
C145	C	0.991909	0.095432	0.412284
C146	C	1.325243	0.428765	0.745617
C147	C	1.658576	0.762098	1.078950
C148	C	0.916078	0.081906	0.529692
C149	C	1.249411	0.415239	0.863026
C150	C	1.582745	0.748572	1.196359
C151	C	0.991923	0.095416	0.587708
C152	C	1.325257	0.428750	0.921041
C153	C	1.658590	0.762083	1.254375
C154	C	1.067799	0.109005	0.470311
C155	C	1.401133	0.442338	0.803644
C156	C	1.734466	0.775671	1.136977
C157	C	0.975912	0.032341	0.470314
C158	C	1.309245	0.365674	0.803647
C159	C	1.642579	0.699008	1.136980
C160	C	1.051819	0.045856	0.529620
C161	C	1.385152	0.379189	0.862953
C162	C	1.718485	0.712523	1.196287
C163	C	0.991900	0.095442	0.311226
C164	C	1.325233	0.428776	0.644560
C165	C	1.658567	0.762109	0.977893
C166	C	0.991941	0.095405	0.688763
C167	C	1.325275	0.428739	1.022096
C168	C	1.658608	0.762072	1.355430
H169	H	0.524494	0.218823	0.000041
H170	H	0.857828	0.552156	0.333374
H171	H	1.191161	0.885489	0.666708
H172	H	1.021459	0.211889	0.555762
H173	H	1.354792	0.545222	0.889096
H174	H	1.688126	0.878556	1.222429
Br175	Br	1.174722	0.128164	0.427026
Br176	Br	1.508055	0.461497	0.760360
Br177	Br	1.841388	0.794831	1.093693
H178	H	1.102489	0.003928	0.555480
H179	H	1.435823	0.337262	0.888814
H180	H	1.769156	0.670595	1.222147
Br181	Br	0.816919	-0.077083	-0.000000
Br182	Br	1.150253	0.256250	0.333333
Br183	Br	1.483586	0.589583	0.666666
H184	H	0.962345	-0.020989	0.444215
H185	H	1.295678	0.312344	0.777548
H186	H	1.629012	0.645677	1.110881
Br187	Br	0.573354	0.016478	0.176056
Br188	Br	0.906687	0.349811	0.509389
Br189	Br	1.240020	0.683144	0.842722
H190	H	0.855793	-0.233502	0.000001
H191	H	1.189127	0.099831	0.333334
H192	H	1.522460	0.433164	0.666668
H193	H	1.128039	-0.575651	-0.000004
H194	H	1.461372	-0.242317	0.333330
H195	H	1.794705	0.091016	0.666663
H196	H	0.847916	-0.677533	-0.000044
H197	H	1.181249	-0.344199	0.333290
H198	H	1.514582	-0.010866	0.666623
H199	H	0.851943	0.070472	0.555778
H200	H	1.185277	0.403806	0.889111
H201	H	1.518610	0.737139	1.222445
Br202	Br	1.174774	-0.288032	0.000023
Br203	Br	1.508108	0.045301	0.333356
Br204	Br	1.841441	0.378634	0.666689
H205	H	0.850257	-0.545413	-0.000026
H206	H	1.183590	-0.212080	0.333307
H207	H	1.516923	0.121254	0.666640
H208	H	1.125694	-0.707766	-0.000033
H209	H	1.459027	-0.374433	0.333300
H210	H	1.792360	-0.041100	0.666634
H211	H	0.429591	0.155986	0.134712
H212	H	0.762925	0.489319	0.468045
H213	H	1.096258	0.822653	0.801379
H214	H	0.459520	-0.028034	0.000107
H215	H	0.792853	0.305299	0.333441
H216	H	1.126186	0.638633	0.666774
Br217	Br	0.573630	0.016449	-0.175846
Br218	Br	0.906964	0.349783	0.157487
Br219	Br	1.240297	0.683116	0.490821
H220	H	0.429632	0.155956	-0.134702
H221	H	0.762966	0.489289	0.198631
H222	H	1.096299	0.822622	0.531965
H223	H	0.881505	0.186952	0.444327
H224	H	1.214839	0.520286	0.777661
H225	H	1.548172	0.853619	1.110994
Br226	Br	1.177822	-0.116376	0.000030
Br227	Br	1.511155	0.216958	0.333363
Br228	Br	1.844489	0.550291	0.666697
