data_functionalizedCrystal
_audit_creation_method	'MofGen! by Chris Wilmer'
_symmetry_space_group_name_H-M	'P1'
_symmetry_Int_Tables_number	1
_symmetry_cell_setting	triclinic
loop_
_symmetry_equiv_pos_as_xyz
  x,y,z
_cell_length_a	13.635800
_cell_length_b	17.078472
_cell_length_c	17.284586
_cell_angle_alpha	97.039373
_cell_angle_beta	103.038781
_cell_angle_gamma	80.693980
loop_
_atom_site_label
_atom_site_type_symbol
_atom_site_fract_x
_atom_site_fract_y
_atom_site_fract_z
V1	V	1.856031	-0.094535	-0.245696
O2	O	1.863452	0.020222	-0.241100
O3	O	1.822605	-0.202527	-0.243937
O4	O	1.767887	-0.086202	-0.352888
O5	O	1.918549	-0.096909	-0.131395
V6	V	2.107326	-0.081622	-0.232034
O7	O	1.965747	-0.122862	-0.275664
O8	O	2.222709	-0.053295	-0.202066
O9	O	2.029150	0.026370	-0.233793
O10	O	2.158604	-0.196379	-0.236629
O11	O	2.103507	-0.079248	-0.346334
O12	O	2.083868	-0.089956	-0.124842
V13	V	2.356031	-0.094535	-0.245696
O14	O	2.363452	0.020222	-0.241100
O15	O	2.322605	-0.202527	-0.243937
O16	O	2.267887	-0.086202	-0.352888
O17	O	2.418549	-0.096909	-0.131395
V18	V	2.607326	-0.081622	-0.232034
O19	O	2.465747	-0.122862	-0.275664
O20	O	2.722709	-0.053295	-0.202066
O21	O	2.529150	0.026370	-0.233793
O22	O	2.658604	-0.196379	-0.236629
O23	O	2.603507	-0.079248	-0.346334
O24	O	2.583868	-0.089956	-0.124842
C25	C	1.744929	-0.229068	-0.240041
C26	C	1.757816	-0.317309	-0.239317
C27	C	1.852191	-0.362561	-0.242906
C28	C	1.864292	-0.445473	-0.242231
C29	C	1.782019	-0.483130	-0.237961
C30	C	1.687636	-0.437871	-0.234374
C31	C	1.675534	-0.354962	-0.235055
C32	C	1.808741	-0.730686	-0.235509
C33	C	1.820851	-0.813601	-0.234826
C34	C	1.997506	-0.821197	-0.242684
C35	C	1.985398	-0.738285	-0.243360
C36	C	1.891015	-0.693035	-0.239777
N37	N	1.794387	-0.567878	-0.237269
N38	N	1.878646	-0.608288	-0.240476
C39	C	1.675132	-0.080682	-0.379017
C40	C	1.643645	-0.074583	-0.466647
C41	C	1.938497	0.052907	-0.237687
C42	C	1.915226	0.141146	-0.238415
C43	C	2.008296	-0.095478	-0.098708
C44	C	2.029403	-0.101573	-0.011078
C45	C	2.175132	-0.080682	-0.379017
C46	C	2.143645	-0.074583	-0.466647
C47	C	1.717145	-0.075426	-0.511814
C48	C	1.687573	-0.069684	-0.594150
C49	C	1.584499	-0.063106	-0.631318
C50	C	1.510994	-0.062262	-0.586145
C51	C	1.540566	-0.067997	-0.503810
C52	C	2.149960	-0.143672	0.480974
C53	C	2.130132	-0.137933	0.398639
C54	C	2.103982	-0.063103	0.368683
C55	C	2.097669	0.005991	0.421069
C56	C	2.117504	0.000251	0.503403
C57	C	2.042926	-0.038219	0.123642
C58	C	2.023088	-0.032484	0.041301
C59	C	2.055554	-0.176409	0.018877
C60	C	2.075382	-0.182142	0.101214
C61	C	2.069073	-0.113048	0.153592
N62	N	2.083711	-0.057234	0.284523
N63	N	2.089351	-0.118917	0.237751
C64	C	2.244929	-0.229068	-0.240041
C65	C	2.257816	-0.317309	-0.239317
C66	C	2.438497	0.052907	-0.237687
C67	C	2.415226	0.141146	-0.238415
C68	C	2.508296	-0.095478	-0.098708
C69	C	2.529403	-0.101573	-0.011078
C70	C	2.352197	-0.362549	-0.242913
C71	C	2.364316	-0.445462	-0.242245
C72	C	2.282054	-0.483132	-0.237976
C73	C	2.187665	-0.437887	-0.234383
C74	C	2.175546	-0.354976	-0.235056
C75	C	2.493338	0.186386	-0.234821
C76	C	2.471488	0.269299	-0.235493
C77	C	2.371526	0.306970	-0.239764
C78	C	2.293409	0.261724	-0.243355
C79	C	2.315260	0.178814	-0.242678
C80	C	2.450235	-0.108141	0.026071
C81	C	2.470051	-0.113858	0.108410
C82	C	2.569037	-0.113014	0.153598
C83	C	2.648211	-0.106444	0.116444
C84	C	2.628393	-0.100720	0.034108
H85	H	1.941140	-0.482315	-0.245155
O86	O	2.744378	-0.105774	0.160358
C87	C	2.776561	-0.177229	0.197594
H88	H	2.730812	-0.225387	0.163053
H89	H	2.764148	-0.167108	0.261318
C90	C	2.946472	-0.144754	0.241270
C91	C	2.890288	-0.203904	0.198843
H92	H	3.016625	-0.161207	0.242045
H93	H	2.924790	-0.096612	0.216187
H94	H	2.936117	-0.136325	0.294370
H95	H	2.900634	-0.212325	0.145742
H96	H	2.911975	-0.252049	0.223918
H97	H	1.427070	-0.056906	-0.616421
O98	O	2.089250	-0.865107	-0.246032
C99	C	2.162947	-0.840632	-0.180023
H100	H	2.123957	-0.811066	-0.129976
H101	H	2.205811	-0.796347	-0.198375
C102	C	2.286102	-0.949971	-0.212203
C103	C	2.238215	-0.913664	-0.150731
H104	H	2.332534	-0.995019	-0.194136
H105	H	2.236453	-0.966459	-0.256676
H106	H	2.321814	-0.913059	-0.227491
H107	H	2.202494	-0.950572	-0.135452
H108	H	2.287860	-0.897183	-0.106255
H109	H	1.753843	-0.844260	-0.231367
H110	H	2.441179	-0.482289	-0.245170
H111	H	2.291936	-0.550644	-0.237428
H112	H	2.692867	-0.095378	0.003868
O113	O	2.354122	-0.109094	-0.017870
C114	C	2.352729	-0.174361	-0.076394
H115	H	2.420025	-0.221776	-0.056750
H116	H	2.358141	-0.153570	-0.135314
C117	C	2.170333	-0.151456	-0.111393
C118	C	2.252983	-0.209695	-0.087263
H119	H	2.108804	-0.173250	-0.118101
H120	H	2.171271	-0.107482	-0.071966
H121	H	2.174857	-0.134135	-0.160490
H122	H	2.248465	-0.227007	-0.038162
H123	H	2.252042	-0.253672	-0.126682
O124	O	2.547263	0.313361	-0.231981
C125	C	2.506553	0.394619	-0.233510
H126	H	2.432053	0.405077	-0.211902
H127	H	2.491900	0.412295	-0.297043
C128	C	2.674021	0.432529	-0.205086
C129	C	2.582522	0.445375	-0.178540
H130	H	2.720883	0.463840	-0.171181
H131	H	2.701449	0.377785	-0.204059
H132	H	2.661796	0.447259	-0.258029
H133	H	2.594747	0.430636	-0.125601
H134	H	2.555098	0.500119	-0.179557
O135	O	2.393028	-0.120278	0.144357
C136	C	2.301415	-0.119787	0.086813
H137	H	2.319054	-0.139611	0.025412
H138	H	2.257622	-0.056989	0.086673
C139	C	2.215008	-0.152955	0.182498
C140	C	2.236672	-0.177309	0.107085
H141	H	2.175068	-0.188434	0.195004
H142	H	2.276728	-0.153283	0.221268
H143	H	2.178518	-0.100623	0.182371
H144	H	2.273172	-0.229636	0.107215
H145	H	2.174956	-0.176991	0.068315
O146	O	1.583801	-0.311116	-0.231526
C147	C	1.513772	-0.362130	-0.227630
H148	H	1.556668	-0.419964	-0.203226
H149	H	1.466677	-0.375814	-0.289875
C150	C	1.390264	-0.250216	-0.202228
C151	C	1.442949	-0.321246	-0.172249
H152	H	1.346573	-0.224996	-0.168070
H153	H	1.437442	-0.215846	-0.204856
H154	H	1.351026	-0.261629	-0.254099
H155	H	1.482196	-0.309831	-0.120384
H156	H	1.395776	-0.355613	-0.169611
O157	O	2.036985	0.028886	0.174550
C158	C	2.132114	0.033391	0.226660
H159	H	2.194493	-0.003263	0.198147
H160	H	2.132379	0.008925	0.285194
C161	C	2.074793	0.165891	0.278049
C162	C	2.151409	0.120878	0.243025
H163	H	2.086694	0.219857	0.288147
H164	H	2.010701	0.162855	0.242944
H165	H	2.075022	0.145494	0.326823
H166	H	2.151171	0.141269	0.194247
H167	H	2.215501	0.123919	0.278123
O168	O	2.107880	-0.474608	-0.230198
C169	C	2.138826	-0.557489	-0.230391
H170	H	2.224767	-0.569677	-0.208617
H171	H	2.116848	-0.586871	-0.293538
C172	C	1.980672	-0.576898	-0.201459
C173	C	2.086225	-0.591868	-0.174709
H174	H	1.948222	-0.598107	-0.167115
H175	H	1.959821	-0.521061	-0.201332
H176	H	1.962371	-0.601384	-0.254081
H177	H	2.104525	-0.567374	-0.122092
H178	H	2.107078	-0.647702	-0.174826
O179	O	2.083806	-0.311149	-0.231513
C180	C	2.013804	-0.362187	-0.227618
H181	H	2.056725	-0.420020	-0.203229
H182	H	1.966701	-0.375867	-0.289861
C183	C	1.890269	-0.250304	-0.202183
C184	C	1.942985	-0.321333	-0.172221
H185	H	1.846581	-0.225104	-0.168015
H186	H	1.937428	-0.215918	-0.204810
H187	H	1.851025	-0.261715	-0.254052
H188	H	1.982237	-0.309921	-0.120358
H189	H	1.895830	-0.355717	-0.169584
H190	H	1.480707	-0.067312	-0.467041
H191	H	2.001812	0.028455	0.016916
H192	H	2.574738	0.155726	-0.231344
O193	O	2.588262	-0.118723	0.233554
C194	C	2.561409	-0.191032	0.248203
H195	H	2.562344	-0.235448	0.193383
H196	H	2.481956	-0.179897	0.261625
C197	C	2.636991	-0.170505	0.387457
C198	C	2.638148	-0.225061	0.320129
H199	H	2.684324	-0.191495	0.431826
H200	H	2.655080	-0.121788	0.377589
H201	H	2.570777	-0.161231	0.398631
H202	H	2.704358	-0.234326	0.308950
H203	H	2.620072	-0.273780	0.329996
O204	O	2.072152	0.078722	0.392064
C205	C	1.982483	0.117566	0.415182
H206	H	1.973283	0.091759	0.470502
H207	H	1.914307	0.108357	0.364622
C208	C	2.000354	0.238993	0.366063
C209	C	1.989059	0.207301	0.434012
H210	H	2.004407	0.294347	0.377674
H211	H	2.060764	0.212823	0.350484
H212	H	1.943539	0.231311	0.323935
H213	H	2.045880	0.214974	0.476134
H214	H	1.928659	0.233475	0.449597
O215	O	2.100852	-0.254892	0.130180
C216	C	2.102168	-0.314643	0.066292
H217	H	2.114171	-0.288157	0.012275
H218	H	2.026676	-0.339456	0.050572
C219	C	2.174625	-0.414703	0.157055
C220	C	2.189376	-0.382174	0.090711
H221	H	2.228416	-0.456362	0.172117
H222	H	2.173735	-0.374448	0.200098
H223	H	2.111712	-0.435374	0.143945
H224	H	2.252282	-0.361495	0.103824
H225	H	2.190279	-0.422427	0.047670
O226	O	2.111555	0.067349	0.554326
C227	C	2.206681	0.071849	0.606443
H228	H	2.269064	0.035207	0.577927
H229	H	2.206943	0.047369	0.664969
C230	C	2.149348	0.204337	0.657856
C231	C	2.225969	0.159338	0.622829
H232	H	2.161245	0.258304	0.667968
H233	H	2.085258	0.201304	0.622747
H234	H	2.149574	0.183927	0.706624
H235	H	2.225733	0.179741	0.574058
H236	H	2.290059	0.162376	0.657931
O237	O	2.175378	-0.216424	0.509938
C238	C	2.176669	-0.276174	0.446046
H239	H	2.188720	-0.249699	0.392038
H240	H	2.101149	-0.300945	0.430306
C241	C	2.249011	-0.376258	0.536802
C242	C	2.263822	-0.343742	0.470471
H243	H	2.302768	-0.417939	0.551869
H244	H	2.248138	-0.336005	0.579848
H245	H	2.186075	-0.396895	0.523677
H246	H	2.326750	-0.323097	0.483600
H247	H	2.264707	-0.383994	0.427428
H248	H	2.353747	0.374481	-0.240314
H249	H	1.919192	-0.331907	-0.246376
H250	H	2.052394	-0.707632	-0.246843
H251	H	2.419191	-0.331888	-0.246384
H252	H	1.620647	-0.468538	-0.230903
O253	O	1.817313	-0.081772	-0.475838
C254	C	1.875831	-0.081300	-0.533375
H255	H	1.826595	-0.051134	-0.586997
H256	H	1.905562	-0.145161	-0.553231
C257	C	2.026574	-0.072316	-0.431110
C258	C	1.966104	-0.035260	-0.496966
H259	H	2.082262	-0.043920	-0.408651
H260	H	1.987151	-0.072638	-0.392346
H261	H	2.051340	-0.125532	-0.447666
H262	H	1.941329	0.017951	-0.480408
H263	H	2.005525	-0.034929	-0.535727
H264	H	1.731891	-0.693851	-0.232587
H265	H	2.135281	-0.194192	0.355994
H266	H	1.747439	-0.070376	-0.630919
H267	H	1.560433	-0.058437	-0.698362
H268	H	2.212019	0.292408	-0.246832
H269	H	2.060689	-0.232661	-0.023778
H270	H	2.251645	0.141985	-0.245612
