data_functionalizedCrystal
_audit_creation_method	'MofGen! by Chris Wilmer'
_symmetry_space_group_name_H-M	'P1'
_symmetry_Int_Tables_number	1
_symmetry_cell_setting	triclinic
loop_
_symmetry_equiv_pos_as_xyz
  x,y,z
_cell_length_a	19.805407
_cell_length_b	16.959454
_cell_length_c	19.805399
_cell_angle_alpha	89.976206
_cell_angle_beta	89.983114
_cell_angle_gamma	90.020075
loop_
_atom_site_label
_atom_site_type_symbol
_atom_site_fract_x
_atom_site_fract_y
_atom_site_fract_z
Zn1	Zn	1.034748	-0.314689	-0.382744
Zn2	Zn	1.034680	-0.446875	-0.269566
Zn3	Zn	0.921567	-0.314714	-0.269569
Zn4	Zn	0.921538	-0.446829	-0.382713
O5	O	0.978133	-0.380777	-0.326148
O6	O	1.129455	-0.332232	-0.367743
O7	O	1.019660	-0.429373	-0.174850
O8	O	0.936621	-0.204100	-0.284596
O9	O	1.129406	-0.429348	-0.284591
O10	O	1.019774	-0.204081	-0.367745
O11	O	0.936556	-0.332275	-0.174852
O12	O	0.826847	-0.332231	-0.284565
O13	O	0.936572	-0.429271	-0.477434
O14	O	0.826826	-0.429295	-0.367692
O15	O	1.019746	-0.332188	-0.477457
O16	O	1.019631	-0.557479	-0.284561
O17	O	0.936506	-0.557446	-0.367690
C18	C	0.802277	-0.380762	-0.326126
C19	C	0.727045	-0.380774	-0.326133
C20	C	0.978077	-0.586143	-0.326136
C21	C	0.978114	-0.674000	-0.326154
C22	C	0.691708	-0.431392	-0.369347
C23	C	0.621019	-0.431393	-0.369356
C24	C	0.585670	-0.380780	-0.326148
C25	C	0.621012	-0.330157	-0.282932
C26	C	0.691700	-0.330152	-0.282926
C27	C	0.335939	-0.330175	-0.282954
C28	C	0.265247	-0.330185	-0.282962
C29	C	0.265259	-0.431415	-0.369384
C30	C	0.335946	-0.431411	-0.369379
C31	C	0.371282	-0.380785	-0.326166
C32	C	0.447931	-0.380783	-0.326157
C33	C	0.509023	-0.380786	-0.326153
C34	C	0.934913	-1.045488	-0.369428
C35	C	1.021542	-1.045462	-0.282937
C36	C	1.021519	-0.962917	-0.282930
C37	C	0.978191	-0.921652	-0.326173
C38	C	0.934887	-0.962934	-0.369422
C39	C	1.064817	-0.921629	-0.239677
C40	C	1.064795	-0.839078	-0.239669
C41	C	1.021470	-0.797812	-0.282915
C42	C	0.978164	-0.839099	-0.326167
C43	C	0.934837	-0.797835	-0.369409
C44	C	0.891534	-0.839120	-0.412665
C45	C	0.891562	-0.921669	-0.412669
C46	C	1.021442	-0.715264	-0.282911
C47	C	0.934810	-0.715281	-0.369403
C48	C	1.154676	-0.380792	-0.326170
C49	C	1.229908	-0.380799	-0.326180
C50	C	0.978163	-0.380722	-0.502691
C51	C	0.978176	-0.380698	-0.577923
C52	C	0.978209	-0.174608	-0.326174
C53	C	0.978241	-0.086752	-0.326186
C54	C	0.934916	-0.330135	-0.613267
C55	C	0.934925	-0.330119	-0.683956
C56	C	0.978198	-0.380664	-0.719298
C57	C	1.021460	-0.431233	-0.683949
C58	C	1.021447	-0.431252	-0.613262
C59	C	1.021513	-0.431160	-0.969022
C60	C	1.021525	-0.431135	-1.039714
C61	C	0.934992	-0.330027	-1.039716
C62	C	0.934979	-0.330046	-0.969029
C63	C	0.978238	-0.380617	-0.933686
C64	C	0.978226	-0.380634	-0.857037
C65	C	0.978214	-0.380644	-0.795946
C66	C	0.978143	-0.380774	-0.150292
C67	C	0.978261	-0.380575	-0.075060
H68	H	0.720484	-0.472609	-0.404530
H69	H	1.056678	-0.472420	-0.584485
H70	H	0.899744	-0.288884	-0.940257
F71	F	0.888862	-0.276333	-0.575659
F72	F	0.729308	-0.276276	-0.236934
F73	F	1.067510	-0.485032	-0.721565
F74	F	0.888697	-0.671371	-0.415432
F75	F	1.110885	-0.795146	-0.193638
F76	F	0.888950	-0.276206	-1.077337
F77	F	0.373538	-0.276292	-0.236965
F78	F	0.845420	-0.795194	-0.458682
F79	F	0.583413	-0.485267	-0.415351
H80	H	0.364724	-0.472627	-0.404561
H81	H	1.056695	-0.681653	-0.247691
F82	F	0.888857	-0.276332	-0.721569
F83	F	0.888833	-1.089426	-0.415464
F84	F	0.227627	-0.276312	-0.236972
H85	H	0.592225	-0.288944	-0.247754
F86	F	0.227646	-0.485296	-0.415376
F87	F	0.845480	-0.965612	-0.458699
H88	H	1.056814	-1.079065	-0.247726
F89	F	1.110929	-0.965548	-0.193661
F90	F	1.067583	-0.484936	-1.077327
H91	H	1.056730	-0.472347	-0.940254
