data_functionalizedCrystal
_audit_creation_method	'MofGen! by Chris Wilmer'
_symmetry_space_group_name_H-M	'P1'
_symmetry_Int_Tables_number	1
_symmetry_cell_setting	triclinic
loop_
_symmetry_equiv_pos_as_xyz
  x,y,z
_cell_length_a	15.995350
_cell_length_b	16.992695
_cell_length_c	16.053802
_cell_angle_alpha	92.741074
_cell_angle_beta	87.422378
_cell_angle_gamma	87.080299
loop_
_atom_site_label
_atom_site_type_symbol
_atom_site_fract_x
_atom_site_fract_y
_atom_site_fract_z
O1	O	1.121056	0.097771	-0.069359
O2	O	0.878117	0.110251	-0.069376
O3	O	0.998613	-0.010132	-0.069361
O4	O	1.000561	0.218153	-0.069374
O5	O	0.991978	-0.003533	0.069497
O6	O	0.871483	0.116849	0.069482
O7	O	1.114422	0.104370	0.069499
Zn8	Zn	0.991899	0.111657	0.091537
Zn9	Zn	1.000640	0.102963	-0.091414
O10	O	0.993927	0.224752	0.069484
C11	C	0.843571	0.113034	0.000051
C12	C	0.750517	0.111487	0.000044
C13	C	0.992790	-0.036045	0.000068
C14	C	0.985314	-0.123089	0.000067
C15	C	1.057449	-0.173329	0.000073
C16	C	1.050419	-0.255116	0.000065
C17	C	0.971254	-0.286661	0.000056
C18	C	0.899114	-0.236415	0.000048
C19	C	0.906144	-0.154630	0.000050
C20	C	0.942116	-0.530260	0.000043
C21	C	0.935091	-0.612051	0.000043
C22	C	1.086398	-0.630747	0.000058
C23	C	1.093421	-0.548959	0.000066
C24	C	1.021281	-0.498720	0.000053
N25	N	0.964067	-0.370260	0.000050
N26	N	1.028469	-0.415123	0.000053
C27	C	0.412397	0.105932	0.000062
C28	C	0.454079	0.020213	0.000377
C29	C	0.550888	0.021745	0.000058
C30	C	0.580143	0.108688	0.000054
C31	C	0.545673	0.147206	-0.079240
C32	C	0.448896	0.145050	-0.079301
C33	C	0.441132	0.154325	0.078607
C34	C	0.538026	0.154355	0.079649
C35	C	0.674945	0.110249	0.000046
C36	C	0.317595	0.104373	0.000064
C37	C	1.148969	0.101586	0.000071
C38	C	1.242022	0.103133	0.000072
C39	C	0.999750	0.250665	0.000054
C40	C	1.007226	0.337709	0.000049
N41	N	0.985940	0.117590	0.216397
N42	N	1.006606	0.097024	-0.216274
C43	C	1.037232	0.066386	0.260097
C44	C	1.033072	0.070544	0.347504
C45	C	0.977623	0.125910	0.391208
C46	C	0.926325	0.177117	0.347501
C47	C	0.930482	0.172955	0.260097
C48	C	0.959465	0.144068	0.652615
C49	C	0.955314	0.148228	0.740026
C50	C	1.062060	0.041653	0.740022
C51	C	1.066215	0.037499	0.652616
C52	C	1.014914	0.088703	0.608917
N53	N	0.973371	0.130163	0.480551
N54	N	1.019162	0.084446	0.519575
H55	H	1.109160	-0.296019	0.000071
N56	N	1.122990	-0.019000	0.608068
N57	N	1.116692	-0.091030	0.617845
H58	H	1.156845	-0.130906	0.586413
H59	H	0.574902	0.115031	-0.138249
H60	H	0.910158	0.193318	0.775606
H61	H	0.421032	0.207824	-0.082902
H62	H	1.145130	-0.671660	0.000067
N63	N	0.568918	0.227163	-0.082961
N64	N	0.513563	0.281830	-0.082702
H65	H	0.529979	0.338301	-0.085330
N66	N	0.426888	0.102811	-0.153641
N67	N	0.386918	0.041752	-0.148708
H68	H	0.371378	0.011917	-0.201212
H69	H	0.557405	0.217983	0.084436
N70	N	0.818240	-0.268618	0.000035
N71	N	0.771165	-0.255999	-0.058498
H72	H	0.714044	-0.278739	-0.058504
N73	N	0.832452	-0.103319	0.000033
N74	N	0.761773	-0.131492	0.000021
H75	H	0.709725	-0.095256	0.000004
N76	N	0.409409	0.122743	0.154000
N77	N	0.365231	0.064178	0.150756
H78	H	0.342824	0.041866	0.203999
H79	H	0.434905	-0.016587	-0.056171
N80	N	0.580349	-0.016574	0.071363
N81	N	0.529387	-0.044640	0.121710
H82	H	0.550189	-0.071710	0.172069
H83	H	0.870621	-0.637730	0.000049
H84	H	0.883374	-0.489364	0.000032
N85	N	1.085440	0.018235	0.392164
N86	N	1.136745	0.045438	0.440952
H87	H	1.173717	0.008487	0.472503
N88	N	1.114440	-0.010652	0.784673
N89	N	1.082297	-0.057014	0.833458
H90	H	1.119290	-0.093960	0.864994
H91	H	0.917695	0.185762	0.617042
N92	N	1.138321	-0.141123	0.000093
N93	N	1.202720	-0.185994	0.000099
H94	H	1.259840	-0.163251	0.000112
N95	N	0.869672	0.233660	0.392143
N96	N	0.813718	0.211072	0.440928
H97	H	0.773705	0.251006	0.472457
N98	N	0.586434	-0.023631	-0.071371
N99	N	0.539734	-0.056526	-0.121146
H100	H	0.564837	-0.088574	-0.171598
N101	N	0.566176	0.119110	0.153235
N102	N	0.617066	0.060580	0.147146
H103	H	0.636952	0.035686	0.199114
N104	N	0.424562	-0.019343	0.071747
N105	N	0.348187	-0.030057	0.082601
H106	H	0.327342	-0.057978	0.133022
H107	H	0.413574	0.217562	0.079140
N108	N	1.093830	0.009783	0.215471
N109	N	1.139585	-0.035963	0.254505
H110	H	1.179538	-0.075960	0.222990
N111	N	0.878079	0.225262	0.215468
N112	N	0.828573	0.274693	0.254497
H113	H	0.791558	0.311635	0.222979
H114	H	1.157885	-0.523282	0.000073
