data_functionalizedCrystal
_audit_creation_method	'MofGen! by Chris Wilmer'
_symmetry_space_group_name_H-M	'P1'
_symmetry_Int_Tables_number	1
_symmetry_cell_setting	triclinic
loop_
_symmetry_equiv_pos_as_xyz
  x,y,z
_cell_length_a	15.298206
_cell_length_b	15.296118
_cell_length_c	12.759393
_cell_angle_alpha	80.281079
_cell_angle_beta	99.668792
_cell_angle_gamma	91.653272
loop_
_atom_site_label
_atom_site_type_symbol
_atom_site_fract_x
_atom_site_fract_y
_atom_site_fract_z
Zn1	Zn	1.278653	-0.580332	-0.218764
Zn2	Zn	1.253203	-0.726862	-0.018651
Zn3	Zn	1.132179	-0.555049	-0.077772
Zn4	Zn	1.106827	-0.701478	-0.228962
O5	O	1.192715	-0.640930	-0.136037
O6	O	1.397836	-0.620974	-0.163208
O7	O	1.237108	-0.704112	0.120528
O8	O	1.172870	-0.435798	-0.116949
O9	O	1.379138	-0.728628	-0.016186
O10	O	1.280484	-0.454373	-0.220535
O11	O	1.148192	-0.577882	0.077092
O12	O	1.006257	-0.553269	-0.126838
O13	O	1.129661	-0.685366	-0.374630
O14	O	0.987631	-0.660850	-0.237917
O15	O	1.255901	-0.596361	-0.367138
O16	O	1.212525	-0.846099	-0.026075
O17	O	1.104983	-0.827450	-0.180590
C18	C	0.965166	-0.601562	-0.189900
C19	C	0.867816	-0.584741	-0.212964
C20	C	0.831807	-0.520875	-0.300442
C21	C	0.740343	-0.505063	-0.322115
C22	C	0.684878	-0.553120	-0.256319
C23	C	0.720886	-0.616991	-0.168845
C24	C	0.812359	-0.632800	-0.147164
C25	C	0.665430	-0.665045	-0.103041
C26	C	0.701438	-0.728916	-0.015567
C27	C	0.792903	-0.744723	0.006110
C28	C	0.848368	-0.696666	-0.059687
C29	C	0.573956	-0.649236	-0.124723
C30	C	0.554508	-0.761161	0.028555
C31	C	0.645972	-0.776973	0.050229
C32	C	1.153265	-0.868569	-0.098041
C33	C	1.136468	-0.965967	-0.081802
C34	C	1.072577	-1.002140	-0.020170
C35	C	1.056799	-1.093651	-0.004917
C36	C	1.104905	-1.148998	-0.051302
C37	C	1.168793	-1.112826	-0.112942
C38	C	1.184578	-1.021306	-0.128189
C39	C	1.216906	-1.168165	-0.159322
C40	C	1.280794	-1.131993	-0.220962
C41	C	1.296575	-1.040482	-0.236207
C42	C	1.248469	-0.985134	-0.189822
C43	C	1.201121	-1.259685	-0.144074
C44	C	1.313122	-1.278852	-0.252094
C45	C	1.328900	-1.187340	-0.267347
C46	C	1.421153	-0.680453	-0.081964
C47	C	1.518500	-0.697295	-0.058922
C48	C	1.192792	-0.640852	-0.410071
C49	C	1.192825	-0.640819	-0.526848
C50	C	1.232344	-0.412407	-0.174199
C51	C	1.249231	-0.315024	-0.190462
C52	C	1.258566	-0.594470	-0.577809
C53	C	1.258593	-0.594442	-0.687534
C54	C	1.127132	-0.687120	-0.695325
C55	C	1.127103	-0.687142	-0.585604
C56	C	1.334467	-0.540966	-0.573310
C57	C	1.334493	-0.540938	-0.683035
C58	C	1.192700	-0.640953	0.136932
C59	C	1.192880	-0.640769	0.253707
H60	H	0.822218	-0.796724	0.077345
Cl61	Cl	1.120807	-1.305148	-0.066588
Cl62	Cl	1.409212	-1.141855	-0.344837
H63	H	1.328063	-0.469972	-0.559174
H64	H	1.352296	-1.323916	-0.289863
H65	H	0.675303	-0.828978	0.121452
H66	H	1.033419	-0.957071	0.017598
H67	H	0.922844	-0.709548	-0.042056
Cl68	Cl	1.044441	-0.745395	-0.521548
Cl69	Cl	1.085260	-1.264076	-0.031852
H70	H	0.509348	-0.800293	0.082131
Cl71	Cl	1.044515	-0.745351	-0.769198
Cl72	Cl	0.569893	-0.533243	-0.283571
Cl73	Cl	1.267983	-0.870032	-0.209451
H74	H	1.394672	-0.576432	-0.519965
Cl75	Cl	0.976486	-1.139119	0.072568
Cl76	Cl	1.376900	-0.995011	-0.313684
H77	H	1.321381	-0.472267	-0.733587
H78	H	0.544648	-0.597229	-0.195944
Cl79	Cl	0.901538	-0.460465	-0.383141
Cl80	Cl	0.695082	-0.424774	-0.432081
Cl81	Cl	1.434366	-0.587096	-0.699544
