data_functionalizedCrystal
_audit_creation_method	'MofGen! by Chris Wilmer'
_symmetry_space_group_name_H-M	'P1'
_symmetry_Int_Tables_number	1
_symmetry_cell_setting	triclinic
loop_
_symmetry_equiv_pos_as_xyz
  x,y,z
_cell_length_a	34.571875
_cell_length_b	34.571051
_cell_length_c	34.567439
_cell_angle_alpha	60.004367
_cell_angle_beta	60.008842
_cell_angle_gamma	59.994195
loop_
_atom_site_label
_atom_site_type_symbol
_atom_site_fract_x
_atom_site_fract_y
_atom_site_fract_z
O1	O	0.053721	-0.565181	0.472559
O2	O	0.020283	-0.440038	0.380761
O3	O	0.099534	-0.519209	0.380676
O4	O	-0.025530	-0.486010	0.472643
O5	O	0.125831	-0.492917	0.406885
O6	O	0.046580	-0.413746	0.406969
O7	O	0.080018	-0.538889	0.498767
Zn8	Zn	0.067475	-0.472143	0.457030
Zn9	Zn	0.032827	-0.506784	0.422498
O10	O	0.000767	-0.459718	0.498852
N11	N	0.091122	-0.448505	0.480598
N12	N	0.009184	-0.530426	0.398930
C13	C	0.124402	-0.415465	0.717633
C14	C	0.328327	-0.415388	0.513477
C15	C	0.124221	-0.415437	0.513630
C16	C	0.124201	-0.211364	0.513624
C17	C	0.157075	-0.309853	0.546423
C18	C	0.157084	-0.382601	0.546423
C19	C	0.175289	-0.364414	0.564591
C20	C	0.254624	-0.350722	0.522790
C21	C	0.304220	-0.367243	0.506229
C22	C	0.304249	-0.447494	0.536832
C23	C	0.254655	-0.430972	0.553394
C24	C	0.169014	-0.285043	0.497667
C25	C	0.152454	-0.235444	0.481153
C26	C	0.112020	-0.235469	0.562154
C27	C	0.128580	-0.285068	0.578668
C28	C	0.108321	-0.370634	0.558439
C29	C	0.091776	-0.387168	0.541918
C30	C	0.172754	-0.427637	0.501375
C31	C	0.189301	-0.411103	0.517891
C32	C	0.108399	-0.370649	0.643978
C33	C	0.091911	-0.387197	0.693575
C34	C	0.172928	-0.427676	0.693511
C35	C	0.189415	-0.411128	0.643912
C36	C	0.157149	-0.382613	0.619147
C37	C	0.229844	-0.382585	0.546371
C38	C	0.105624	-0.433333	0.772186
C39	C	0.382878	-0.432925	0.495007
C40	C	0.105380	-0.433313	0.495792
C41	C	0.105683	-0.156808	0.496094
C42	C	-0.023527	-0.563458	0.161535
C43	C	-0.023851	-0.767445	0.365663
C44	C	-0.023821	-0.563448	0.365756
C45	C	-0.227785	-0.563229	0.365355
C46	C	-0.129302	-0.596153	0.332678
C47	C	-0.056593	-0.596234	0.332823
C48	C	-0.074746	-0.614396	0.314578
C49	C	-0.088477	-0.693710	0.356299
C50	C	-0.071982	-0.743310	0.372851
C51	C	0.008266	-0.743392	0.342376
C52	C	-0.008230	-0.693794	0.325823
C53	C	-0.154162	-0.608103	0.381422
C54	C	-0.203757	-0.591517	0.397874
C55	C	-0.203630	-0.551037	0.316836
C56	C	-0.154034	-0.567623	0.300384
C57	C	-0.068543	-0.547475	0.320829
C58	C	-0.052041	-0.530969	0.337421
C59	C	-0.011639	-0.611977	0.377990
C60	C	-0.028141	-0.628485	0.361404
C61	C	-0.068417	-0.547482	0.235199
C62	C	-0.051814	-0.530977	0.185602
C63	C	-0.011349	-0.611990	0.185649
C64	C	-0.027951	-0.628493	0.235248
C65	C	-0.056486	-0.596238	0.260022
C66	C	-0.056602	-0.668955	0.332787
C67	C	-0.005599	-0.544662	0.106983
C68	C	-0.006342	-0.821999	0.384121
C69	C	-0.005979	-0.544649	0.383673
C70	C	-0.282336	-0.544682	0.382817
N71	N	0.427518	-0.448428	0.480350
O72	O	0.589573	-0.456297	0.363634
O73	O	0.589761	-0.548399	0.488643
O74	O	0.589681	-0.548188	0.409364
O75	O	0.589654	-0.456508	0.442913
O76	O	0.510890	-0.521988	0.435708
O77	O	0.510970	-0.522199	0.514987
O78	O	0.510782	-0.430098	0.389978
Zn79	Zn	0.498366	-0.471989	0.456665
Zn80	Zn	0.602177	-0.506508	0.421956
O81	O	0.510862	-0.430308	0.469257
N82	N	0.673025	-0.530068	0.398267
N83	N	0.091092	-0.112167	0.480590
O84	O	-0.025539	0.049976	0.472612
O85	O	0.099472	0.050011	0.380491
O86	O	0.020155	0.049979	0.380751
O87	O	0.053778	0.050009	0.472352
O88	O	0.046458	-0.028818	0.407008
O89	O	0.125775	-0.028785	0.406748
O90	O	0.000764	-0.028821	0.498869
Zn91	Zn	0.067445	-0.041314	0.456977
Zn92	Zn	0.032791	0.062504	0.422382
O93	O	0.080081	-0.028788	0.498609
N94	N	0.009138	0.133358	0.398771
N95	N	0.091421	-0.448552	0.816827
O96	O	0.083469	-0.565164	0.978960
O97	O	-0.008614	-0.440110	0.979002
O98	O	-0.008399	-0.519410	0.978978
O99	O	0.083253	-0.485863	0.978984
O100	O	0.017837	-0.493128	0.900185
O101	O	0.017621	-0.413827	0.900208
O102	O	0.109704	-0.538881	0.900167
Zn103	Zn	0.067828	-0.472181	0.887677
Zn104	Zn	0.033262	-0.506810	0.991491
O105	O	0.109489	-0.459581	0.900191
N106	N	0.009668	-0.530444	1.062341
C107	C	0.030297	-0.411123	0.381218
C108	C	0.128439	-0.509167	0.381113
C109	C	0.070004	-0.567805	0.498310
C110	C	-0.028138	-0.469761	0.498415
C111	C	0.550388	-0.547982	0.517564
C112	C	0.550290	-0.547721	0.419387
C113	C	0.550153	-0.430514	0.361058
C114	C	0.550253	-0.430775	0.459234
C115	C	0.128339	0.010714	0.380902
C116	C	0.030148	0.010577	0.381256
C117	C	-0.028136	0.010574	0.498426
C118	C	0.070089	0.010613	0.498104
C119	C	-0.008178	-0.411214	0.939610
C120	C	-0.007906	-0.509413	0.939566
C121	C	0.109268	-0.567777	0.939558
C122	C	0.109002	-0.469572	0.939586
H123	H	0.082121	-0.347425	0.623816
O124	O	0.078518	-0.610726	0.532665
C125	C	0.089655	-0.646407	0.516400
H126	H	0.074380	-0.630245	0.486971
H127	H	0.129773	-0.663061	0.502144
C128	C	0.087021	-0.704567	0.593792
C129	C	0.068257	-0.684718	0.557649
H130	H	0.073824	-0.728200	0.619235
H131	H	0.079519	-0.680529	0.604750
H132	H	0.120452	-0.718442	0.581905
H133	H	0.034827	-0.670838	0.569534
H134	H	0.075752	-0.708754	0.546694
H135	H	0.138179	-0.603691	0.939539
O136	O	0.143310	-0.460926	0.939560
C137	C	0.126047	-0.414357	0.939585
H138	H	0.095625	-0.391941	0.924679
H139	H	0.112847	-0.415060	0.977389
C140	C	0.203482	-0.420354	0.926990
C141	C	0.166119	-0.392820	0.908678
H142	H	0.228200	-0.407069	0.907926
H143	H	0.215112	-0.451728	0.926974
H144	H	0.192475	-0.420937	0.958492
H145	H	0.177125	-0.392242	0.877178
H146	H	0.154492	-0.361445	0.908687
H147	H	0.164166	0.010943	0.351910
O148	O	-0.071000	0.010592	0.532867
C149	C	-0.100500	0.010568	0.515840
H150	H	-0.087690	0.025479	0.475484
H151	H	-0.099215	-0.027237	0.527895
C152	C	-0.167493	0.023157	0.585035
C153	C	-0.151763	0.041474	0.535469
H154	H	-0.199116	0.042219	0.597145
H155	H	-0.147619	0.023171	0.596507
H156	H	-0.166419	-0.008348	0.595075
H157	H	-0.152832	0.072975	0.525430
H158	H	-0.171639	0.041466	0.523995
H159	H	0.550303	-0.576522	0.412207
O160	O	0.171256	-0.517531	0.346599
C161	C	0.171288	-0.476779	0.305785
H162	H	0.133295	-0.454221	0.306311
H163	H	0.188247	-0.455360	0.305196
C164	C	0.246401	-0.519378	0.260638
C165	C	0.199737	-0.491673	0.261283
H166	H	0.263952	-0.528565	0.233188
H167	H	0.246381	-0.546833	0.288136
H168	H	0.260527	-0.501524	0.260150
H169	H	0.185610	-0.509529	0.261778
H170	H	0.199756	-0.464221	0.233785
O171	O	-0.042624	-0.368349	0.939646
C172	C	-0.025567	-0.338861	0.939641
H173	H	0.004854	-0.361642	0.954551
H174	H	-0.012426	-0.314930	0.901842
C175	C	-0.103142	-0.280224	0.952241
C176	C	-0.065782	-0.308204	0.970557
H177	H	-0.127949	-0.261311	0.971310
H178	H	-0.114634	-0.300089	0.952243
H179	H	-0.092185	-0.260286	0.920743
H180	H	-0.076738	-0.328146	1.002053
H181	H	-0.054293	-0.288341	0.970562
H182	H	-0.036687	-0.516580	0.939532
H183	H	0.550436	-0.576894	0.553469
O184	O	0.044536	-0.375505	0.717618
C185	C	0.019598	-0.346798	0.685121
H186	H	0.043228	-0.328760	0.649757
H187	H	0.008894	-0.369678	0.679857
C188	C	-0.054130	-0.331053	0.747939
C189	C	-0.025108	-0.308895	0.704505
H190	H	-0.081707	-0.307675	0.759896
H191	H	-0.037329	-0.350395	0.769833
H192	H	-0.063044	-0.350120	0.743546
H193	H	-0.016189	-0.289834	0.708899
H194	H	-0.041908	-0.289549	0.682612
O195	O	0.550103	-0.396073	0.318197
C196	C	0.550070	-0.413127	0.288724
H197	H	0.565031	-0.453483	0.301531
H198	H	0.512257	-0.401116	0.290048
C199	C	0.562526	-0.343902	0.221714
C200	C	0.580906	-0.393467	0.237441
H201	H	0.581545	-0.331773	0.190079
H202	H	0.562547	-0.332411	0.241570
H203	H	0.531016	-0.333899	0.222821
H204	H	0.612413	-0.403469	0.236339
H205	H	0.580891	-0.404959	0.217583
O206	O	0.021725	-0.368259	0.346805
C207	C	-0.016647	-0.359805	0.335925
H208	H	-0.020411	-0.394999	0.346379
H209	H	-0.050607	-0.336995	0.356320
C210	C	-0.002984	-0.290618	0.269527
C211	C	-0.007604	-0.333845	0.282364
H212	H	0.002593	-0.274603	0.236489
H213	H	0.022867	-0.296312	0.276858
H214	H	-0.031285	-0.271615	0.286527
H215	H	0.020699	-0.352849	0.265368
H216	H	-0.033450	-0.328154	0.275029
O217	O	0.204336	-0.455379	0.717491
C218	C	0.250899	-0.462375	0.684937
H219	H	0.250777	-0.456830	0.649593
H220	H	0.265099	-0.435967	0.679650
C221	C	0.282894	-0.519993	0.747670
C222	C	0.282745	-0.513186	0.704262
H223	H	0.302539	-0.551334	0.759591
H224	H	0.251524	-0.515278	0.769603
H225	H	0.294727	-0.497982	0.743258
H226	H	0.270907	-0.535192	0.708675
H227	H	0.314114	-0.517906	0.682330
O228	O	0.044403	-0.375605	0.553671
C229	C	0.023848	-0.392577	0.603351
H230	H	0.052115	-0.423162	0.619310
H231	H	0.008192	-0.362829	0.618051
C232	C	-0.050355	-0.372423	0.596600
C233	C	-0.015639	-0.409990	0.616202
H234	H	-0.074715	-0.383162	0.604528
H235	H	-0.036508	-0.360986	0.563130
H236	H	-0.063397	-0.347636	0.608853
H237	H	-0.002594	-0.434774	0.603944
H238	H	-0.029485	-0.421431	0.649670
O239	O	0.204115	-0.455304	0.473651
C240	C	0.250701	-0.462330	0.466603
H241	H	0.250613	-0.432428	0.472144
H242	H	0.264940	-0.497665	0.492985
C243	C	0.282584	-0.499393	0.408976
C244	C	0.282476	-0.462664	0.415778
H245	H	0.302186	-0.499601	0.377626
H246	H	0.251199	-0.494661	0.413725
H247	H	0.294449	-0.528835	0.430964
H248	H	0.270607	-0.433223	0.393794
H249	H	0.313861	-0.467392	0.411024
O250	O	0.021494	0.010534	0.346985
C251	C	-0.025076	0.010523	0.364263
H252	H	-0.037519	-0.004382	0.404617
H253	H	-0.049604	0.048318	0.352279
C254	C	-0.010722	-0.002100	0.295246
C255	C	-0.026003	-0.020411	0.344811
H256	H	-0.011295	-0.021180	0.283246
H257	H	0.020653	-0.002091	0.283605
H258	H	-0.031164	0.029395	0.285266
H259	H	-0.005558	-0.051903	0.354790
H260	H	-0.057375	-0.020426	0.356453
H261	H	0.229113	-0.420876	0.623698
O262	O	-0.071009	-0.461239	0.532824
C263	C	-0.100461	-0.414693	0.515702
H264	H	-0.077654	-0.392190	0.485270
H265	H	-0.124394	-0.415418	0.502558
C266	C	-0.159123	-0.420906	0.593243
C267	C	-0.131111	-0.393266	0.555868
H268	H	-0.178032	-0.407689	0.618019
H269	H	-0.139282	-0.452266	0.604779
H270	H	-0.179064	-0.421508	0.582283
H271	H	-0.111168	-0.392670	0.566827
H272	H	-0.150950	-0.361905	0.544335
H273	H	0.550247	-0.401977	0.466412
O274	O	0.078726	0.010531	0.532456
C275	C	0.117116	-0.030266	0.543307
H276	H	0.120842	-0.058790	0.532902
H277	H	0.151076	-0.021029	0.522852
C278	C	0.103566	-0.013746	0.609627
C279	C	0.108140	-0.048780	0.596851
H280	H	0.098031	-0.025166	0.642655
H281	H	0.077703	0.013741	0.602316
H282	H	0.131867	-0.006051	0.592577
H283	H	0.079836	-0.056470	0.613897
H284	H	0.133998	-0.076269	0.604167
O285	O	0.230655	-0.461987	0.576272
C286	C	0.263191	-0.508238	0.578924
H287	H	0.298528	-0.506342	0.549614
H288	H	0.268500	-0.527174	0.614856
C289	C	0.200423	-0.538071	0.608877
C290	C	0.243824	-0.535742	0.572875
H291	H	0.188477	-0.555038	0.605147
H292	H	0.178503	-0.506912	0.607092
H293	H	0.204853	-0.553850	0.638816
H294	H	0.239393	-0.519959	0.542937
H295	H	0.265744	-0.566900	0.574655
O296	O	0.328377	-0.494482	0.543564
C297	C	0.357044	-0.501212	0.499286
H298	H	0.342066	-0.469812	0.470704
H299	H	0.394633	-0.504131	0.490674
C300	C	0.376212	-0.585603	0.536267
C301	C	0.357813	-0.547039	0.501163
H302	H	0.376689	-0.613872	0.537424
H303	H	0.356900	-0.581069	0.566098
H304	H	0.407535	-0.588029	0.529086
H305	H	0.326489	-0.544609	0.508347
H306	H	0.377120	-0.551573	0.471333
H307	H	0.082085	-0.347427	0.581670
H308	H	0.229008	-0.420842	0.508101
H309	H	0.234427	-0.311322	0.517070
O310	O	0.328270	-0.336260	0.483250
C311	C	0.316102	-0.302583	0.442382
H312	H	0.302456	-0.317870	0.430998
H313	H	0.287311	-0.269154	0.450505
C314	C	0.376896	-0.271529	0.416126
C315	C	0.360139	-0.290306	0.402142
H316	H	0.404059	-0.263954	0.391305
H317	H	0.385093	-0.294216	0.443661
H318	H	0.352899	-0.243674	0.422895
H319	H	0.384134	-0.318164	0.395379
H320	H	0.351947	-0.267623	0.374606
O321	O	0.196669	-0.309047	0.466282
C322	C	0.203659	-0.276510	0.419706
H323	H	0.173747	-0.241162	0.419818
H324	H	0.238986	-0.271223	0.405469
C325	C	0.240719	-0.339278	0.387773
C326	C	0.203978	-0.295864	0.387909
H327	H	0.240918	-0.351217	0.368158
H328	H	0.236011	-0.361199	0.419152
H329	H	0.270154	-0.334866	0.375910
H330	H	0.174543	-0.300277	0.399777
H331	H	0.208681	-0.273944	0.356531
H332	H	0.162174	-0.215242	0.441450
H333	H	0.088825	-0.215289	0.588411
H334	H	0.118851	-0.305270	0.618371
H335	H	-0.061536	-0.491273	0.165398
H336	H	-0.091654	-0.521212	0.255368
H337	H	-0.018232	-0.668197	0.255455
O338	O	0.016307	-0.643370	0.161640
C339	C	-0.008756	-0.671997	0.173702
H340	H	-0.037666	-0.672445	0.209682
H341	H	-0.025538	-0.657067	0.145738
C342	C	0.061096	-0.722279	0.131856
C343	C	0.025591	-0.722832	0.176050
H344	H	0.082283	-0.753636	0.133303
H345	H	0.077981	-0.702992	0.123728
H346	H	0.047106	-0.709835	0.108558
H347	H	0.039581	-0.735270	0.199346
H348	H	0.008709	-0.742122	0.184182
O349	O	-0.096195	-0.516082	0.293091
C350	C	-0.103196	-0.469507	0.286058
H351	H	-0.097703	-0.469600	0.315996
H352	H	-0.076757	-0.455330	0.250758
C353	C	-0.160725	-0.437539	0.248848
C354	C	-0.153982	-0.437653	0.285621
H355	H	-0.192051	-0.417889	0.248577
H356	H	-0.156007	-0.468917	0.253585
H357	H	-0.138689	-0.425726	0.219435
H358	H	-0.176014	-0.449471	0.315034
H359	H	-0.158705	-0.406276	0.280890
H360	H	0.011532	-0.638242	0.401256
O361	O	-0.063557	-0.483616	0.325753
C362	C	-0.021860	-0.471693	0.300850
H363	H	0.009265	-0.504407	0.309855
H364	H	-0.014831	-0.458091	0.261142
C365	C	-0.066083	-0.392670	0.304062
C366	C	-0.027855	-0.432850	0.315126
H367	H	-0.069781	-0.368709	0.312866
H368	H	-0.094176	-0.400702	0.320839
H369	H	-0.060220	-0.381341	0.270972
H370	H	-0.033720	-0.444182	0.348216
H371	H	0.000237	-0.424819	0.298355
H372	H	0.017729	-0.673638	0.306677
O373	O	-0.016554	-0.675858	0.373118
C374	C	-0.033589	-0.696451	0.422788
H375	H	-0.038467	-0.672956	0.440182
H376	H	-0.069034	-0.700094	0.433936
C377	C	0.008262	-0.774617	0.417128
C378	C	0.002275	-0.745762	0.438491
H379	H	0.030384	-0.805035	0.426814
H380	H	0.019738	-0.760744	0.383664
H381	H	-0.021278	-0.777648	0.426420
H382	H	0.031813	-0.742727	0.429194
H383	H	-0.009195	-0.759636	0.471954
O384	O	0.055271	-0.767504	0.335531
C385	C	0.080919	-0.755408	0.286577
H386	H	0.056589	-0.741750	0.266031
H387	H	0.095174	-0.726644	0.275525
C388	C	0.152428	-0.816272	0.301019
C389	C	0.122546	-0.799501	0.275784
H390	H	0.178107	-0.843470	0.294361
H391	H	0.135149	-0.824420	0.334000
H392	H	0.164302	-0.792298	0.291807
H393	H	0.110668	-0.823472	0.285001
H394	H	0.139824	-0.791358	0.242804
O395	O	-0.103008	-0.767284	0.395669
C396	C	-0.126216	-0.755163	0.365293
H397	H	-0.125006	-0.719185	0.337025
H398	H	-0.107733	-0.783114	0.347583
C399	C	-0.179658	-0.796953	0.428943
C400	C	-0.178175	-0.752762	0.394225
H401	H	-0.211708	-0.795474	0.446789
H402	H	-0.164022	-0.805120	0.449407
H403	H	-0.164253	-0.820241	0.414179
H404	H	-0.193575	-0.729476	0.408990
H405	H	-0.193816	-0.744591	0.373763
O406	O	-0.130209	-0.635795	0.412855
C407	C	-0.162788	-0.642790	0.459407
H408	H	-0.198120	-0.612858	0.459262
H409	H	-0.168089	-0.678103	0.473603
C410	C	-0.100091	-0.679924	0.491456
C411	C	-0.143485	-0.643159	0.491278
H412	H	-0.088184	-0.680154	0.511116
H413	H	-0.078142	-0.675213	0.460093
H414	H	-0.104515	-0.709348	0.503285
H415	H	-0.139060	-0.613735	0.479443
H416	H	-0.165433	-0.647865	0.522640
H417	H	-0.127865	-0.673490	0.361973
H418	H	-0.223768	-0.527810	0.290539
O419	O	-0.227963	-0.603142	0.445216
C420	C	-0.256650	-0.628079	0.457138
H421	H	-0.264022	-0.619127	0.424414
H422	H	-0.237573	-0.667783	0.470782
C423	C	-0.294745	-0.624775	0.536127
C424	C	-0.303802	-0.613776	0.495936
H425	H	-0.323830	-0.615955	0.560060
H426	H	-0.275417	-0.607976	0.528095
H427	H	-0.278846	-0.657861	0.547491
H428	H	-0.319695	-0.580690	0.484569
H429	H	-0.323134	-0.630569	0.503966
H430	H	-0.133793	-0.557888	0.260690
