data_functionalizedCrystal
_audit_creation_method	'MofGen! by Chris Wilmer'
_symmetry_space_group_name_H-M	'P1'
_symmetry_Int_Tables_number	1
_symmetry_cell_setting	triclinic
loop_
_symmetry_equiv_pos_as_xyz
  x,y,z
_cell_length_a	12.759401
_cell_length_b	12.759400
_cell_length_c	12.759401
_cell_angle_alpha	90.006787
_cell_angle_beta	90.006742
_cell_angle_gamma	90.012280
loop_
_atom_site_label
_atom_site_type_symbol
_atom_site_fract_x
_atom_site_fract_y
_atom_site_fract_z
Zn1	Zn	1.606132	-0.418474	0.594022
Zn2	Zn	1.606071	-0.594121	0.418346
Zn3	Zn	1.430474	-0.418454	0.418358
Zn4	Zn	1.430428	-0.594109	0.593984
O5	O	1.518276	-0.506290	0.506178
O6	O	1.753145	-0.441788	0.570730
O7	O	1.582772	-0.570814	0.271327
O8	O	1.453821	-0.271435	0.441682
O9	O	1.753100	-0.570834	0.441661
O10	O	1.582876	-0.271451	0.570741
O11	O	1.453761	-0.441752	0.271336
O12	O	1.283447	-0.441741	0.441644
O13	O	1.453742	-0.570815	0.741010
O14	O	1.283413	-0.570795	0.570676
O15	O	1.582831	-0.441777	0.741038
O16	O	1.582727	-0.741140	0.441623
O17	O	1.453682	-0.741132	0.570664
C18	C	1.245309	-0.506265	0.506158
C19	C	1.128532	-0.506280	0.506174
C20	C	1.073657	-0.438994	0.439111
C21	C	0.963933	-0.439019	0.439124
C22	C	0.963969	-0.573619	0.573273
C23	C	1.073691	-0.573599	0.573253
C24	C	1.128498	-0.371675	0.372032
C25	C	1.073623	-0.304382	0.304964
C26	C	0.963899	-0.304407	0.304977
C27	C	0.909050	-0.371725	0.372058
C28	C	1.518221	-0.779257	0.506161
C29	C	1.518294	-0.896034	0.506189
C30	C	1.585459	-0.950824	0.573445
C31	C	1.585508	-1.060548	0.573471
C32	C	1.451223	-1.060682	0.438975
C33	C	1.451170	-0.950960	0.438955
C34	C	1.652583	-0.895898	0.640679
C35	C	1.719755	-0.950688	0.707940
C36	C	1.719804	-1.060412	0.707966
C37	C	1.652681	-1.115346	0.640730
C38	C	1.792310	-0.506315	0.506198
C39	C	1.909086	-0.506325	0.506207
C40	C	1.518288	-0.506297	0.780211
C41	C	1.518293	-0.506300	0.896987
C42	C	1.518360	-0.232256	0.506217
C43	C	1.518396	-0.115480	0.506234
C44	C	1.585501	-0.439121	0.951866
C45	C	1.585492	-0.439119	1.061590
C46	C	1.451063	-0.573484	1.061547
C47	C	1.451068	-0.573480	0.951825
C48	C	1.518264	-0.506306	1.233210
C49	C	1.518279	-0.506302	1.116434
H50	H	0.819705	-0.371744	0.372059
O51	O	0.910429	-0.239166	0.239842
C52	C	0.741383	-0.179545	0.180410
C53	C	0.801803	-0.253495	0.254222
H54	H	0.653549	-0.191088	0.192026
H55	H	0.762872	-0.197879	0.095645
H56	H	0.763010	-0.094857	0.198968
H57	H	0.780209	-0.338208	0.235759
H58	H	0.780309	-0.235070	0.338965
O59	O	1.386129	-1.114203	0.373695
C60	C	1.326659	-1.283298	0.314162
C61	C	1.400447	-1.222818	0.388130
H62	H	1.338194	-1.371123	0.325823
H63	H	1.345164	-1.261815	0.229435
H64	H	1.241929	-1.261718	0.332522
H65	H	1.485202	-1.244365	0.369866
H66	H	1.381852	-1.244305	0.472836
O67	O	0.910530	-0.638902	0.638404
C68	C	0.741511	-0.698622	0.697846
C69	C	0.801897	-0.624622	0.624045
H70	H	0.653671	-0.687118	0.686246
H71	H	0.763031	-0.680300	0.782612
H72	H	0.763136	-0.783294	0.679261
H73	H	0.780305	-0.539925	0.642535
H74	H	0.780371	-0.643034	0.539300
H75	H	1.652553	-0.806555	0.640664
O76	O	1.126841	-0.638989	0.638501
C77	C	1.115308	-0.772536	0.771522
C78	C	1.054985	-0.698514	0.697702
H79	H	1.057238	-0.820697	0.819389
H80	H	1.166665	-0.724426	0.826598
H81	H	1.166690	-0.827337	0.723165
H82	H	1.003545	-0.643698	0.745974
H83	H	1.003693	-0.746690	0.642622
O84	O	1.784804	-0.897214	0.773303
C85	C	1.798770	-0.773324	0.915176
C86	C	1.724985	-0.833796	0.841199
H87	H	1.750435	-0.722053	0.970102
H88	H	1.853702	-0.721863	0.867034
H89	H	1.846805	-0.831353	0.963206
H90	H	1.676882	-0.775843	0.793153
H91	H	1.670122	-0.885272	0.889400
H92	H	1.396476	-0.906349	0.384190
O93	O	1.650827	-0.373759	0.898758
C94	C	1.784199	-0.240525	0.910386
C95	C	1.710255	-0.314481	0.970656
H96	H	1.832281	-0.192595	0.968490
H97	H	1.736033	-0.185512	0.859046
H98	H	1.839078	-0.288779	0.858990
H99	H	1.655361	-0.266311	1.022110
H100	H	1.758486	-0.369496	1.021930
H101	H	1.640219	-0.384413	1.106267
O102	O	1.385869	-0.638711	1.114982
C103	C	1.326240	-0.698224	1.283995
C104	C	1.400143	-0.624316	1.223616
H105	H	1.337739	-0.686596	1.371836
H106	H	1.344662	-0.782965	1.262489
H107	H	1.241542	-0.679774	1.262349
H108	H	1.484865	-0.642672	1.245229
H109	H	1.381630	-0.539597	1.245127
H110	H	1.774490	-1.105019	0.762741
H111	H	1.652714	-1.204691	0.640769
H112	H	1.396331	-0.628185	0.907142
H113	H	1.118288	-0.249581	0.250343
H114	H	1.217841	-0.371644	0.372016
