data_functionalizedCrystal
_audit_creation_method	'MofGen! by Chris Wilmer'
_symmetry_space_group_name_H-M	'P1'
_symmetry_Int_Tables_number	1
_symmetry_cell_setting	triclinic
loop_
_symmetry_equiv_pos_as_xyz
  x,y,z
_cell_length_a	23.532407
_cell_length_b	23.532357
_cell_length_c	15.021413
_cell_angle_alpha	89.998468
_cell_angle_beta	89.998075
_cell_angle_gamma	82.838485
loop_
_atom_site_label
_atom_site_type_symbol
_atom_site_fract_x
_atom_site_fract_y
_atom_site_fract_z
O1	O	0.755250	0.069129	-0.073932
O2	O	1.255250	0.569129	0.426068
O3	O	0.589385	0.079132	-0.073959
O4	O	1.089385	0.579132	0.426041
O5	O	0.677334	-0.008803	-0.073926
O6	O	1.177334	0.491197	0.426074
O7	O	0.667301	0.157064	-0.073965
O8	O	1.167301	0.657064	0.426035
O9	O	0.677320	-0.008791	0.074138
O10	O	1.177320	0.491209	0.574138
O11	O	0.589371	0.079145	0.074105
O12	O	1.089371	0.579145	0.574105
O13	O	0.755236	0.069141	0.074133
O14	O	1.255236	0.569141	0.574133
Zn15	Zn	0.672302	0.074145	0.097627
Zn16	Zn	1.172302	0.574145	0.597627
Zn17	Zn	0.672320	0.074129	-0.097454
Zn18	Zn	1.172320	0.574129	0.402546
O19	O	0.667287	0.157077	0.074100
O20	O	1.167287	0.657077	0.574100
C21	C	0.568162	0.078884	0.000070
C22	C	1.068162	0.578884	0.500070
C23	C	0.504945	0.078118	0.000060
C24	C	1.004945	0.578118	0.500060
C25	C	0.677076	-0.030013	0.000109
C26	C	1.177076	0.469987	0.500109
C27	C	0.676322	-0.093232	0.000117
C28	C	1.176322	0.406768	0.500117
C29	C	0.671593	-0.485250	-0.080642
C30	C	1.171593	0.014750	0.419358
C31	C	0.670875	-0.544650	-0.080647
C32	C	1.170875	-0.044650	0.419353
O33	O	0.670492	-0.575372	-0.149288
O34	O	1.170492	-0.075372	0.350712
N35	N	0.670512	-0.574354	0.000062
N36	N	1.170512	-0.074354	0.500062
C37	C	0.670860	-0.544655	0.080781
C38	C	1.170860	-0.044655	0.580781
O39	O	0.670485	-0.575375	0.149429
O40	O	1.170485	-0.075375	0.649429
C41	C	0.671573	-0.485256	0.080785
C42	C	1.171573	0.014744	0.580785
C43	C	0.671943	-0.455556	0.000071
C44	C	1.171943	0.044444	0.500071
C45	C	0.671961	-0.455550	-0.161349
C46	C	1.171961	0.044450	0.338651
C47	C	0.672679	-0.396154	-0.161344
C48	C	1.172679	0.103846	0.338656
C49	C	0.673029	-0.366460	-0.080631
C50	C	1.173029	0.133540	0.419369
C51	C	0.672661	-0.396160	0.000077
C52	C	1.172661	0.103840	0.500077
C53	C	0.671917	-0.455558	0.161503
C54	C	1.171917	0.044442	0.661503
C55	C	0.672630	-0.396155	0.161500
C56	C	1.172630	0.103845	0.661500
C57	C	0.672999	-0.366454	0.080787
C58	C	1.172999	0.133546	0.580787
C59	C	0.673729	-0.307071	0.080795
C60	C	1.173729	0.192929	0.580795
N61	N	0.674092	-0.277366	0.000086
N62	N	1.174092	0.222634	0.500086
C63	C	0.673742	-0.307061	-0.080627
C64	C	1.173742	0.192939	0.419373
C65	C	0.669362	-0.669397	0.080766
C66	C	1.169362	-0.169397	0.580766
C67	C	0.668653	-0.728795	0.080762
C68	C	1.168653	-0.228795	0.580762
C69	C	0.668667	-0.728785	-0.080666
C70	C	1.168667	-0.228785	0.419334
C71	C	0.669380	-0.669386	-0.080662
C72	C	1.169380	-0.169386	0.419338
C73	C	0.669725	-0.639692	0.000057
C74	C	1.169725	-0.139692	0.500057
C75	C	0.675251	-0.182327	-0.080609
C76	C	1.175251	0.317673	0.419391
C77	C	0.675972	-0.122927	-0.080596
C78	C	1.175972	0.377073	0.419404
C79	C	0.675955	-0.122941	0.080831
C80	C	1.175955	0.377059	0.580831
C81	C	0.675237	-0.182336	0.080819
C82	C	1.175237	0.317664	0.580819
C83	C	0.674883	-0.212027	0.000092
C84	C	1.174883	0.287973	0.500092
O85	O	0.674111	-0.276310	0.149401
O86	O	1.174111	0.223690	0.649401
O87	O	0.674110	-0.276332	-0.149263
O88	O	1.174110	0.223668	0.350737
C89	C	0.105834	0.125353	0.000089
C90	C	0.605834	0.625353	0.500089
C91	C	0.046434	0.124641	0.000095
C92	C	0.546434	0.624641	0.500095
O93	O	0.009681	0.168428	0.000117
O94	O	0.509681	0.668428	0.500117
N95	N	0.023817	0.072364	0.000106
N96	N	0.523817	0.572364	0.500106
C97	C	0.060604	0.020794	0.000120
C98	C	0.560604	0.520794	0.500120
O99	O	0.035912	-0.023737	0.000130
O100	O	0.535912	0.476263	0.500130
C101	C	0.120003	0.021506	0.000120
C102	C	0.620003	0.521506	0.500120
C103	C	0.142616	0.073787	0.000101
C104	C	0.642616	0.573787	0.500101
C105	C	0.128448	0.177629	0.000071
C106	C	0.628448	0.677629	0.500071
C107	C	0.187844	0.178341	0.000063
C108	C	0.687844	0.678341	0.500063
C109	C	0.224626	0.126775	0.000075
C110	C	0.724626	0.626775	0.500075
C111	C	0.202012	0.074498	0.000093
C112	C	0.702012	0.574498	0.500093
C113	C	0.156788	-0.030063	0.000141
C114	C	0.656788	0.469937	0.500141
C115	C	0.216191	-0.029346	0.000142
C116	C	0.716191	0.470654	0.500142
C117	C	0.238804	0.022935	0.000122
C118	C	0.738804	0.522935	0.500122
C119	C	0.298190	0.023644	0.000097
C120	C	0.798190	0.523644	0.500097
N121	N	0.320807	0.075922	0.000087
N122	N	0.820807	0.575922	0.500087
C123	C	0.284025	0.127487	0.000076
C124	C	0.784025	0.627487	0.500076
C125	C	-0.064139	0.019303	0.000119
C126	C	0.435861	0.519303	0.500119
C127	C	-0.123536	0.018590	0.000112
C128	C	0.376464	0.518590	0.500112
C129	C	-0.137702	0.122437	0.000089
C130	C	0.362298	0.622437	0.500089
C131	C	-0.078303	0.123149	0.000090
C132	C	0.421697	0.623149	0.500090
C133	C	-0.041522	0.071580	0.000109
C134	C	0.458478	0.571580	0.500109
C135	C	0.408761	0.128977	0.000060
C136	C	0.908761	0.628977	0.500060
C137	C	0.468163	0.129684	0.000049
C138	C	0.968163	0.629684	0.500049
C139	C	0.482324	0.025837	0.000076
C140	C	0.982324	0.525837	0.500076
C141	C	0.422927	0.025130	0.000082
C142	C	0.922927	0.525130	0.500082
C143	C	0.386147	0.076704	0.000077
C144	C	0.886147	0.576704	0.500077
O145	O	0.334977	-0.020120	0.000079
O146	O	0.834977	0.479880	0.500079
O147	O	0.308725	0.172011	0.000077
O148	O	0.808725	0.672011	0.500077
C149	C	0.776459	0.069390	0.000102
C150	C	1.276459	0.569390	0.500102
C151	C	0.839676	0.070156	0.000106
C152	C	1.339676	0.570156	0.500106
C153	C	0.667545	0.178287	0.000063
C154	C	1.167545	0.678287	0.500063
C155	C	0.668300	0.241506	0.000049
C156	C	1.168300	0.741506	0.500049
N157	N	0.672293	0.074156	0.230765
N158	N	1.172293	0.574156	0.730765
N159	N	0.672333	0.074113	-0.230591
N160	N	1.172333	0.574113	0.269409
C161	C	0.631619	0.114798	0.470433
C162	C	1.131619	0.614798	0.970433
C163	C	0.683017	0.125561	0.529773
C164	C	1.183017	0.625561	1.029773
C165	C	0.672308	0.074142	0.412372
C166	C	1.172308	0.574142	0.912372
C167	C	0.620924	0.063392	0.529773
C168	C	1.120924	0.563392	1.029773
C169	C	0.672317	0.074129	0.587796
C170	C	1.172317	0.574129	1.087796
C171	C	0.723731	0.084930	0.470405
C172	C	1.223731	0.584930	0.970405
C173	C	0.661605	0.022738	0.470401
C174	C	1.161605	0.522738	0.970401
C175	C	0.713039	0.033479	0.529714
C176	C	1.213039	0.533479	1.029714
C177	C	0.672301	0.074150	0.311314
C178	C	1.172301	0.574150	0.811314
C179	C	0.672330	0.074120	0.688851
C180	C	1.172330	0.574120	1.188851
H181	H	0.676274	-0.098747	-0.146326
H182	H	1.176274	0.401253	0.353674
H183	H	-0.167662	0.164425	0.000084
H184	H	0.332338	0.664425	0.500084
H185	H	0.671674	-0.479720	-0.227079
H186	H	1.171674	0.020280	0.272921
H187	H	0.674960	-0.206494	-0.146345
H188	H	1.174960	0.293506	0.353655
O189	O	0.669708	-0.640622	-0.159146
O190	O	1.169708	-0.140622	0.340854
C191	C	0.669263	-0.679578	-0.230379
C192	C	1.169263	-0.179578	0.269621
H193	H	0.650721	-0.719459	-0.206716
H194	H	1.150721	-0.219459	0.293284
H195	H	0.641820	-0.658645	-0.286837
H196	H	1.141820	-0.158645	0.213163
H197	H	0.714886	-0.692130	-0.255187
H198	H	1.214886	-0.192130	0.244813
O199	O	0.209828	0.229115	-0.000118
O200	O	0.709828	0.729115	0.499882
C201	C	0.243769	0.232627	-0.076798
C202	C	0.743769	0.732627	0.423202
H203	H	0.229899	0.202932	-0.130379
H204	H	0.729899	0.702932	0.369621
H205	H	0.238161	0.278553	-0.102559
H206	H	0.738161	0.778553	0.397441
H207	H	0.290693	0.219235	-0.059463
H208	H	0.790693	0.719235	0.440537
H209	H	0.674942	-0.206520	0.146543
H210	H	1.174942	0.293480	0.646543
O211	O	0.668394	-0.757685	0.159142
O212	O	1.168394	-0.257685	0.659142
C213	C	0.717298	-0.798794	0.163982
C214	C	1.217298	-0.298794	0.663982
H215	H	0.752005	-0.785605	0.118197
H216	H	1.252005	-0.285605	0.618197
H217	H	0.733833	-0.801732	0.235376
H218	H	1.233833	-0.301732	0.735376
H219	H	0.705600	-0.842286	0.142290
H220	H	1.205600	-0.342286	0.642290
O221	O	0.673005	-0.367391	-0.239829
O222	O	1.173005	0.132609	0.260171
C223	C	0.672554	-0.406349	-0.311060
C224	C	1.172554	0.093651	0.188940
H225	H	0.654013	-0.446229	-0.287390
H226	H	1.154013	0.053771	0.212610
H227	H	0.645109	-0.385417	-0.367514
H228	H	1.145109	0.114583	0.132486
H229	H	0.718176	-0.418904	-0.335874
H230	H	1.218176	0.081096	0.164126
H231	H	0.597245	0.149208	0.444404
H232	H	1.097245	0.649208	0.944404
O233	O	0.754209	-0.007488	0.560538
O234	O	1.254209	0.492512	1.060538
C235	C	0.808281	0.004051	0.530105
C236	C	1.308281	0.504051	1.030105
H237	H	0.806375	0.051526	0.513540
H238	H	1.306375	0.551526	1.013540
H239	H	0.841646	-0.007607	0.584252
H240	H	1.341646	0.492393	1.084252
H241	H	0.820547	-0.022437	0.467915
H242	H	1.320547	0.477563	0.967915
H243	H	0.668380	-0.752973	-0.146387
H244	H	1.168380	-0.252973	0.353613
H245	H	0.669644	-0.645223	0.146500
H246	H	1.169644	-0.145223	0.646500
H247	H	0.671618	-0.479730	0.227229
H248	H	1.171618	0.020270	0.727229
O249	O	0.650676	-0.029075	0.439297
O250	O	1.150676	0.470925	0.939297
C251	C	0.596434	-0.040241	0.469511
C252	C	1.096434	0.459759	0.969511
H253	H	0.569157	0.001901	0.486191
H254	H	1.069157	0.501901	0.986191
H255	H	0.574479	-0.063382	0.415187
H256	H	1.074479	0.436618	0.915187
H257	H	0.601805	-0.068271	0.531586
H258	H	1.101805	0.431729	1.031586
O259	O	0.134901	-0.080886	0.000048
O260	O	0.634901	0.419114	0.500048
C261	C	0.153721	-0.112304	-0.076633
C262	C	0.653721	0.387696	0.423367
H263	H	0.194828	-0.097017	-0.102212
H264	H	0.694828	0.402983	0.397788
H265	H	0.162247	-0.159776	-0.059362
H266	H	0.662247	0.340224	0.440638
H267	H	0.119307	-0.105527	-0.130328
H268	H	0.619307	0.394473	0.369672
H269	H	0.672903	-0.371979	0.227233
H270	H	1.172903	0.128021	0.727233
H271	H	0.246136	-0.071341	0.000158
H272	H	0.746136	0.428659	0.500158
H273	H	0.692078	0.169027	0.555852
H274	H	1.192078	0.669027	1.055852
H275	H	0.767199	0.094069	0.444437
H276	H	1.267199	0.594069	0.944437
H277	H	0.676242	-0.098753	0.146546
H278	H	1.176242	0.401247	0.646546
O279	O	0.401052	-0.025705	0.000129
O280	O	0.901052	0.474295	0.500129
C281	C	0.446257	-0.071065	0.000107
C282	C	0.946257	0.428935	0.500107
H283	H	0.486523	-0.055333	0.028127
H284	H	0.986523	0.444667	0.528127
H285	H	0.434054	-0.107583	0.043103
H286	H	0.934054	0.392417	0.543103
H287	H	0.454749	-0.086958	-0.070926
H288	H	0.954749	0.413042	0.429074
H289	H	0.486571	0.172259	0.000032
H290	H	0.986571	0.672259	0.500032
O291	O	-0.028353	-0.030758	0.000004
O292	O	0.471647	0.469242	0.500004
C293	C	0.006420	-0.033468	-0.076693
C294	C	0.506420	0.466532	0.423307
H295	H	0.009175	0.011717	-0.102264
H296	H	0.509175	0.511717	0.397736
H297	H	0.051186	-0.054949	-0.059446
H298	H	0.551186	0.445051	0.440554
H299	H	-0.012980	-0.059364	-0.130385
H300	H	0.487020	0.440636	0.369615
O301	O	0.373119	0.179128	0.000009
O302	O	0.873119	0.679128	0.500009
C303	C	0.405827	0.225415	0.000011
C304	C	0.905827	0.725415	0.500011
H305	H	0.450244	0.210689	-0.028016
H306	H	0.950244	0.710689	0.471984
H307	H	0.383717	0.261521	-0.042990
H308	H	0.883717	0.761521	0.457010
H309	H	0.409966	0.241466	0.071038
H310	H	0.909966	0.741466	0.571038
O311	O	0.092803	0.227777	0.000017
O312	O	0.592803	0.727777	0.500017
C313	C	0.125513	0.274063	0.000025
C314	C	0.625513	0.774063	0.500025
H315	H	0.169932	0.259335	-0.027997
H316	H	0.669932	0.759335	0.472003
H317	H	0.103407	0.310169	-0.042978
H318	H	0.603407	0.810169	0.457022
H319	H	0.129650	0.290113	0.071053
H320	H	0.629650	0.790113	0.571053
H321	H	-0.059896	0.165721	0.000079
H322	H	0.440104	0.665721	0.500079
O323	O	0.518141	-0.024200	0.000129
O324	O	1.018141	0.475800	0.500129
C325	C	0.575415	-0.012354	0.000102
C326	C	1.075415	0.487646	0.500102
H327	H	0.577431	0.032372	0.028114
H328	H	1.077431	0.532372	0.528114
H329	H	0.602516	-0.045234	0.043104
H330	H	1.102516	0.454766	0.543104
H331	H	0.592610	-0.014623	-0.070931
H332	H	1.092610	0.485377	0.429069
O333	O	-0.145404	-0.032246	0.000160
O334	O	0.354596	0.467754	0.500160
C335	C	-0.100195	-0.077602	0.000144
C336	C	0.399805	0.422398	0.500144
H337	H	-0.059933	-0.061866	0.028168
H338	H	0.440067	0.438134	0.528168
H339	H	-0.112397	-0.114121	0.043141
H340	H	0.387603	0.385879	0.543141
H341	H	-0.091699	-0.093496	-0.070887
H342	H	0.408301	0.406504	0.429113
H343	H	0.577466	0.054305	0.555854
H344	H	1.077466	0.554305	1.055854
