data_functionalizedCrystal
_audit_creation_method	'MofGen! by Chris Wilmer'
_symmetry_space_group_name_H-M	'P1'
_symmetry_Int_Tables_number	1
_symmetry_cell_setting	triclinic
loop_
_symmetry_equiv_pos_as_xyz
  x,y,z
_cell_length_a	14.560438
_cell_length_b	18.426585
_cell_length_c	14.560438
_cell_angle_alpha	60.001119
_cell_angle_beta	90.000977
_cell_angle_gamma	60.000512
loop_
_atom_site_label
_atom_site_type_symbol
_atom_site_fract_x
_atom_site_fract_y
_atom_site_fract_z
Zr1	Zr	0.884747	0.794364	-0.120474
O2	O	0.738100	0.945763	-0.267118
O3	O	0.929703	0.642964	-0.075525
O4	O	0.929702	0.794366	-0.267122
O5	O	0.738101	0.794359	0.075620
O6	O	1.080840	0.794368	-0.267120
O7	O	0.738101	0.794361	-0.075521
O8	O	1.080842	0.523538	0.075613
O9	O	0.738099	1.065189	-0.267113
O10	O	1.061668	0.705238	-0.056347
O11	O	0.948876	0.705235	0.056446
O12	O	0.948874	0.883492	-0.169135
O13	O	0.836082	0.883489	-0.056342
Zr14	Zr	1.125796	0.794364	0.120582
Zr15	Zr	1.125795	0.794367	-0.120470
Zr16	Zr	0.884748	0.794360	0.120578
Zr17	Zr	0.884746	0.984835	-0.120465
Zr18	Zr	1.125797	0.603892	0.120573
O19	O	1.080840	0.945763	0.075632
O20	O	1.080839	0.945768	-0.267113
O21	O	0.738100	0.945758	0.075627
O22	O	1.272443	0.642964	0.267226
O23	O	1.272443	0.642969	-0.075520
O24	O	0.929704	0.642959	0.267220
O25	O	1.272442	0.794368	-0.075512
O26	O	1.080841	0.794361	0.267230
O27	O	0.929703	0.794359	0.267227
O28	O	1.272442	0.794366	0.075628
O29	O	0.929700	1.065192	-0.267109
O30	O	1.080843	0.523535	0.267217
O31	O	1.272444	0.523538	0.267220
O32	O	1.272444	0.523540	0.075616
O33	O	0.738100	1.065187	-0.075508
O34	O	0.929701	1.065189	-0.075505
O35	O	1.061669	0.705235	0.169242
O36	O	1.174461	0.705238	0.056450
O37	O	1.061667	0.883492	-0.056339
O38	O	0.948875	0.883489	0.056454
C39	C	0.703757	0.794359	0.000049
C40	C	0.601426	0.794358	0.000047
C41	C	1.005273	0.556113	0.000042
C42	C	1.005274	0.475253	0.000039
C43	C	0.612225	0.701313	0.058921
C44	C	0.516070	0.701318	0.058931
C45	C	0.398320	0.887421	-0.058816
C46	C	0.494474	0.887415	-0.058818
C47	C	0.680206	0.593868	0.126897
C48	C	0.584051	0.593873	0.126908
C49	C	1.005267	0.179143	0.000071
C50	C	1.005266	0.261530	0.000065
C51	C	1.005269	0.327196	0.000054
C52	C	1.005270	0.409587	0.000049
C53	C	1.306786	0.794368	0.000059
C54	C	1.409117	0.794369	0.000060
C55	C	1.005271	0.794368	-0.301466
C56	C	1.005271	0.794369	-0.403799
C57	C	1.005270	1.032614	0.000065
C58	C	1.005270	1.113474	0.000069
C59	C	0.946389	0.887414	-0.510749
C60	C	0.946393	0.887409	-0.606898
C61	C	1.064161	0.701306	-0.489132
C62	C	1.064164	0.701312	-0.392986
C63	C	0.878392	0.994859	-0.578741
C64	C	0.878396	0.994854	-0.674890
C65	C	1.005272	0.794359	0.301573
C66	C	1.005272	0.794358	0.403906
C67	C	1.306787	0.556117	0.000047
C68	C	1.409119	0.475258	0.000045
C69	C	1.005273	0.556109	0.301562
C70	C	1.005274	0.475247	0.403891
C71	C	1.306788	0.556113	0.301567
C72	C	1.409120	0.475253	0.403898
C73	C	0.703755	1.032614	-0.301459
C74	C	0.601424	1.113474	-0.403790
C75	C	0.703756	1.032610	0.000060
C76	C	0.601424	1.113469	0.000062
C77	C	1.005270	1.032618	-0.301455
C78	C	1.005269	1.113480	-0.403784
C79	C	1.398298	0.437286	-0.058845
C80	C	1.494441	0.361321	-0.058869
C81	C	1.601403	0.323325	0.000003
C82	C	1.612221	0.361304	0.058895
C83	C	1.516080	0.437273	0.058912
C84	C	1.064151	0.437274	0.510835
C85	C	1.064147	0.361306	0.606993
C86	C	1.005273	0.323309	0.596205
C87	C	0.946388	0.361290	0.489250
C88	C	0.946386	0.437261	0.393095
C89	C	1.516062	0.437281	0.393076
C90	C	1.612223	0.361315	0.489218
C91	C	1.601439	0.323317	0.596179
C92	C	1.494485	0.361295	0.606998
C93	C	1.398326	0.437265	0.510858
C94	C	0.494481	1.151455	-0.392969
C95	C	0.398320	1.227445	-0.489111
C96	C	0.409104	1.265447	-0.596072
C97	C	0.516058	1.227464	-0.606891
C98	C	0.612217	1.151481	-0.510751
C99	C	0.612245	1.151449	0.058942
C100	C	0.516102	1.227435	0.058940
C101	C	0.409140	1.265434	0.000064
C102	C	0.398322	1.227451	-0.058823
C103	C	0.494463	1.151472	-0.058827
C104	C	1.064155	1.151454	-0.392960
C105	C	1.064177	1.227421	-0.489100
C106	C	1.005305	1.265419	-0.596062
C107	C	0.946417	1.227438	-0.606884
C108	C	0.946402	1.151467	-0.510745
H109	H	0.485673	0.963181	-0.106755
Br110	Br	0.866492	0.309710	0.474629
Br111	Br	1.731870	0.220223	-0.000032
Br112	Br	1.253148	0.488839	-0.138756
H113	H	1.524865	0.468209	0.305992
Br114	Br	0.530811	1.278965	0.138867
H115	H	0.699292	1.120558	-0.519575
H116	H	0.731113	0.560535	0.082030
Br117	Br	1.731952	0.220213	0.726646
Br118	Br	0.569506	0.538306	0.271999
H119	H	0.699330	1.120516	0.106893
Br120	Br	0.728350	1.063601	-0.761893
Br121	Br	0.278673	1.368550	0.000081
Br122	Br	1.144097	1.278955	-0.474387
H123	H	1.005325	1.327281	-0.674336
H124	H	0.311231	0.963184	-0.106742
Br125	Br	0.866513	1.279027	-0.752057
Br126	Br	0.479757	1.099932	-0.138737
Br127	Br	0.941415	1.063627	-0.578765
Br128	Br	1.144069	0.309776	0.752131
H129	H	1.112096	1.120527	-0.305874
Br130	Br	0.733332	1.050328	-0.564121
H131	H	1.485720	0.330346	0.694099
H132	H	1.112124	0.625546	-0.305905
H133	H	0.898445	1.120557	-0.519574
H134	H	1.485610	0.330407	-0.106825
H135	H	0.311221	1.258401	-0.106758
Br136	Br	1.757393	0.309724	0.138792
H137	H	0.311243	1.258358	-0.480280
Br138	Br	1.144084	0.575021	-0.474467
H139	H	1.112094	0.468203	0.519640
Br140	Br	0.953140	1.050440	-0.759783
H141	H	1.699301	0.330401	0.480389
Br142	Br	1.253193	0.488784	0.525564
Br143	Br	0.584017	0.525153	0.063837
H144	H	1.524906	0.468180	0.106874
Br145	Br	1.005287	0.220204	0.726716
Br146	Br	0.767224	0.525101	0.276942
H147	H	0.485678	1.120517	-0.305884
Br148	Br	0.278591	1.368569	-0.726539
Br149	Br	0.866478	0.488783	0.247960
H150	H	0.524826	1.258415	-0.693990
