data_functionalizedCrystal
_audit_creation_method	'MofGen! by Chris Wilmer'
_symmetry_space_group_name_H-M	'P1'
_symmetry_Int_Tables_number	1
_symmetry_cell_setting	triclinic
loop_
_symmetry_equiv_pos_as_xyz
  x,y,z
_cell_length_a	17.699083
_cell_length_b	9.130313
_cell_length_c	17.699083
_cell_angle_alpha	90.002131
_cell_angle_beta	83.283015
_cell_angle_gamma	89.994200
loop_
_atom_site_label
_atom_site_type_symbol
_atom_site_fract_x
_atom_site_fract_y
_atom_site_fract_z
O1	O	1.004072	0.121597	0.095708
O2	O	0.783693	0.121645	0.108160
O3	O	0.900109	0.121607	-0.008255
O4	O	0.887656	0.121635	0.212123
O5	O	0.900107	-0.121992	-0.008252
O6	O	0.783692	-0.121954	0.108163
O7	O	1.004070	-0.122002	0.095711
Cu8	Cu	0.893881	-0.144220	0.101937
Cu9	Cu	0.893882	0.143864	0.101934
O10	O	0.887655	-0.121963	0.212126
C11	C	0.755495	-0.000148	0.107716
C12	C	0.671477	-0.000130	0.106377
N13	N	0.893885	-0.346843	0.101940
C14	C	0.622856	-0.000122	0.174710
C15	C	0.543913	-0.000141	0.173448
C16	C	0.513592	-0.000158	0.103852
C17	C	0.562219	-0.000171	0.035513
C18	C	0.641161	-0.000162	0.036776
C19	C	0.243856	-0.000207	0.030418
C20	C	0.164908	-0.000212	0.029160
C21	C	0.146608	-0.000186	0.167090
C22	C	0.225550	-0.000178	0.168353
C23	C	0.274170	-0.000198	0.100015
C24	C	0.359769	-0.000180	0.101384
C25	C	0.427995	-0.000165	0.102481
C26	C	0.945447	-0.423512	0.050408
C27	C	0.945445	-0.576849	0.050399
C28	C	0.842317	-0.576834	0.153460
C29	C	0.842316	-0.423500	0.153464
C30	C	0.997016	-0.346855	-0.001117
C31	C	1.048583	-0.423524	-0.052652
C32	C	1.048581	-0.576861	-0.052661
C33	C	0.997012	-0.653528	-0.001135
C34	C	1.032268	-0.000205	0.096156
C35	C	1.116286	-0.000214	0.097494
C36	C	0.899662	-0.000193	-0.036451
C37	C	0.898323	-0.000193	-0.120469
N38	N	0.893884	0.346486	0.101926
C39	C	0.966656	-0.000210	-0.169090
C40	C	0.965394	-0.000197	-0.248033
C41	C	0.895798	-0.000177	-0.278354
C42	C	0.827459	-0.000156	-0.229727
C43	C	0.828722	-0.000158	-0.150785
C44	C	0.822364	-0.000143	-0.548090
C45	C	0.821106	-0.000144	-0.627038
C46	C	0.959036	-0.000181	-0.645338
C47	C	0.960299	-0.000184	-0.566396
C48	C	0.891961	-0.000155	-0.517776
C49	C	0.893330	-0.000166	-0.432177
C50	C	0.894427	-0.000176	-0.363951
C51	C	0.888102	-0.000161	0.240322
C52	C	0.889440	-0.000151	0.324340
H53	H	0.504328	-0.000132	0.229092
C54	C	0.694644	-0.000157	-0.038390
H55	H	0.665282	-0.000152	-0.080021
H56	H	0.725829	-0.085099	-0.040766
H57	H	0.725810	0.084808	-0.040763
H58	H	1.016971	-0.000207	-0.541714
C59	C	0.997019	-0.178190	-0.001104
H60	H	0.958928	-0.143507	0.036970
H61	H	0.986760	-0.143484	-0.049465
H62	H	1.045373	-0.143526	0.009207
C63	C	0.753558	-0.000139	-0.097298
H64	H	0.764277	-0.000128	-0.045941
H65	H	0.725009	-0.085077	-0.106474
H66	H	0.725019	0.084831	-0.106475
C67	C	0.131557	-0.000245	-0.047400
H68	H	0.171819	-0.000271	-0.087919
H69	H	0.101136	0.084699	-0.050764
H70	H	0.101148	-0.085208	-0.050749
H71	H	1.014680	-0.000197	-0.684934
H72	H	0.647537	-0.000107	0.231384
C73	C	0.785599	-0.339152	0.210144
H74	H	0.792980	-0.236853	0.202760
H75	H	0.793716	-0.364276	0.260650
H76	H	0.735104	-0.364272	0.201977
H77	H	1.090564	-0.361093	-0.094607
C78	C	0.744546	-0.000103	-0.660389
H79	H	0.704027	-0.000070	-0.620127
H80	H	0.741181	-0.085048	-0.690806
H81	H	0.741198	0.084859	-0.690802
C82	C	0.528869	-0.000187	-0.041041
H83	H	0.474890	-0.000175	-0.032008
H84	H	0.545572	-0.085137	-0.069172
H85	H	0.545562	0.084771	-0.069170
H86	H	0.766718	-0.000119	-0.508512
C87	C	0.258899	-0.000165	0.244909
H88	H	0.218635	-0.000177	0.285426
H89	H	0.289309	0.084783	0.248270
H90	H	0.289318	-0.085124	0.248265
C91	C	0.997005	-0.822196	-0.001145
H92	H	0.958907	-0.856870	0.036919
H93	H	1.045355	-0.856902	0.009150
H94	H	0.986733	-0.856869	-0.049513
H95	H	0.107012	-0.000177	0.222734
H96	H	0.800332	-0.639267	0.195411
H97	H	0.283434	-0.000225	-0.025228
C98	C	1.105299	-0.661193	-0.109346
H99	H	1.136012	-0.593574	-0.140026
H100	H	1.078138	-0.721002	-0.140825
H101	H	1.136752	-0.721016	-0.082154
C102	C	1.043214	-0.000232	-0.135744
H103	H	1.083729	-0.000226	-0.176010
H104	H	1.046575	-0.085180	-0.105331
H105	H	1.046573	0.084727	-0.105328
H106	H	0.770792	-0.000130	-0.254420
H107	H	1.021038	-0.000214	-0.287618
