data_functionalizedCrystal
_audit_creation_method	'MofGen! by Chris Wilmer'
_symmetry_space_group_name_H-M	'P1'
_symmetry_Int_Tables_number	1
_symmetry_cell_setting	triclinic
loop_
_symmetry_equiv_pos_as_xyz
  x,y,z
_cell_length_a	17.699083
_cell_length_b	9.565339
_cell_length_c	17.699103
_cell_angle_alpha	90.004726
_cell_angle_beta	83.287038
_cell_angle_gamma	89.997515
loop_
_atom_site_label
_atom_site_type_symbol
_atom_site_fract_x
_atom_site_fract_y
_atom_site_fract_z
O1	O	1.004082	0.116079	0.095705
O2	O	0.783705	0.116127	0.108157
O3	O	0.900112	0.116075	-0.008257
O4	O	0.887675	0.116131	0.212119
O5	O	0.900103	-0.116445	-0.008250
O6	O	0.783695	-0.116393	0.108164
O7	O	1.004073	-0.116441	0.095712
Zn8	Zn	0.893883	-0.153334	0.101939
Zn9	Zn	0.893895	0.153021	0.101930
O10	O	0.887666	-0.116389	0.212126
C11	C	0.755503	-0.000127	0.107715
C12	C	0.671485	-0.000110	0.106376
N13	N	0.893880	-0.362414	0.101946
C14	C	0.622869	-0.000093	0.174709
C15	C	0.543925	-0.000112	0.173447
C16	C	0.513600	-0.000137	0.103851
C17	C	0.562222	-0.000158	0.035513
C18	C	0.641164	-0.000150	0.036776
C19	C	0.243859	-0.000194	0.030418
C20	C	0.164910	-0.000198	0.029160
C21	C	0.146620	-0.000156	0.167088
C22	C	0.225562	-0.000147	0.168351
C23	C	0.274177	-0.000176	0.100014
C24	C	0.359777	-0.000159	0.101383
C25	C	0.428002	-0.000144	0.102480
C26	C	0.840029	-0.453593	0.155766
C27	C	0.908398	-0.546782	0.170326
C28	C	0.825541	-0.546780	0.087391
C29	C	0.962283	-0.453551	0.116540
C30	C	0.879381	-0.453541	0.033575
C31	C	0.947799	-0.546688	0.048106
C32	C	1.032275	-0.000183	0.096155
C33	C	1.116293	-0.000191	0.097493
C34	C	0.899659	-0.000189	-0.036450
C35	C	0.898315	-0.000200	-0.120467
N36	N	0.893904	0.362100	0.101918
C37	C	0.890095	0.126640	-0.636183
C38	C	0.891358	0.126627	-0.557240
C39	C	0.891982	-0.000128	-0.517777
C40	C	0.891352	-0.126879	-0.557263
C41	C	0.890095	-0.126865	-0.636206
C42	C	0.896422	-0.126938	-0.238897
C43	C	0.897677	-0.126943	-0.159948
C44	C	0.897684	0.126554	-0.159931
C45	C	0.896428	0.126568	-0.238873
C46	C	0.895802	-0.000182	-0.278353
C47	C	0.894434	-0.000167	-0.363952
C48	C	0.893344	-0.000145	-0.432178
C49	C	0.888119	-0.000122	0.240320
C50	C	0.889463	-0.000101	0.324337
H51	H	0.504345	-0.000096	0.229090
H52	H	0.889580	-0.230071	-0.668350
N53	N	0.889429	0.263359	-0.678741
H54	H	0.888536	0.244141	-0.734742
H55	H	0.842752	0.318722	-0.658720
H56	H	0.867081	-0.412553	-0.024213
H57	H	0.993399	-0.587307	0.002578
N58	N	0.898365	-0.263666	-0.117387
H59	H	0.899255	-0.244436	-0.061387
H60	H	0.851248	-0.319019	-0.124972
H61	H	0.140223	-0.000221	-0.027517
H62	H	0.794531	-0.412718	0.201321
N63	N	0.898320	0.263239	-0.117316
H64	H	0.945727	0.268911	-0.090760
H65	H	0.897685	0.343491	-0.154315
N66	N	0.895747	-0.263640	-0.281473
H67	H	0.896331	-0.343937	-0.244492
H68	H	0.848326	-0.269152	-0.308012
N69	N	0.094195	-0.000146	0.240805
H70	H	0.061025	0.086042	0.243359
H71	H	0.061091	-0.086406	0.243322
H72	H	0.920677	-0.587738	0.228133
N73	N	0.748980	-0.601040	0.071096
H74	H	0.708337	-0.567177	0.111797
H75	H	0.737667	-0.565659	0.019844
H76	H	0.891866	-0.230085	-0.525127
N77	N	0.892042	0.263326	-0.514657
H78	H	0.891451	0.343626	-0.551634
H79	H	0.845665	0.268849	-0.475683
N80	N	0.296294	-0.000199	-0.043282
H81	H	0.329458	-0.086392	-0.045832
H82	H	0.265054	-0.000154	-0.087521
H83	H	1.020098	-0.412772	0.128907
H84	H	0.537525	-0.000199	-0.021153
N85	N	0.693599	-0.000176	-0.036928
H86	H	0.683859	0.086008	-0.067305
H87	H	0.748188	-0.000226	-0.025508
N88	N	0.655574	-0.000049	0.249774
H89	H	0.612794	-0.000042	0.292870
H90	H	0.687935	-0.086240	0.253308
H91	H	0.250248	-0.000120	0.225023
H92	H	0.895915	0.229785	-0.270999
