data_functionalizedCrystal
_audit_creation_method	'MofGen! by Chris Wilmer'
_symmetry_space_group_name_H-M	'P1'
_symmetry_Int_Tables_number	1
_symmetry_cell_setting	triclinic
loop_
_symmetry_equiv_pos_as_xyz
  x,y,z
_cell_length_a	14.971482
_cell_length_b	14.971494
_cell_length_c	13.448316
_cell_angle_alpha	89.995115
_cell_angle_beta	89.993798
_cell_angle_gamma	83.615083
loop_
_atom_site_label
_atom_site_type_symbol
_atom_site_fract_x
_atom_site_fract_y
_atom_site_fract_z
O1	O	1.186953	0.116548	-0.082675
O2	O	0.926553	0.130511	-0.082679
O3	O	1.063728	-0.006670	-0.082675
O4	O	1.049777	0.253729	-0.082680
O5	O	1.063711	-0.006679	0.082709
O6	O	0.926536	0.130502	0.082704
O7	O	1.186936	0.116540	0.082709
Cu8	Cu	1.056734	0.123520	0.097807
Cu9	Cu	1.056754	0.123530	-0.097778
O10	O	1.049760	0.253721	0.082704
C11	C	0.893219	0.129883	0.000012
C12	C	0.793922	0.128013	0.000010
C13	C	0.747268	0.127128	0.090162
C14	C	0.653969	0.125357	0.090163
C15	C	0.607326	0.124478	0.000011
C16	C	0.653987	0.125361	-0.090148
C17	C	0.747284	0.127125	-0.090148
C18	C	0.459525	0.121685	-0.090141
C19	C	0.366220	0.119923	-0.090141
C20	C	0.366210	0.119918	0.090170
C21	C	0.459507	0.121682	0.090169
C22	C	0.506162	0.122566	0.000010
C23	C	1.063094	-0.039999	0.000015
C24	C	1.061221	-0.139296	0.000011
C25	C	1.060352	-0.185936	-0.090141
C26	C	1.058586	-0.279235	-0.090142
C27	C	1.057695	-0.325893	0.000009
C28	C	1.058561	-0.279246	0.090168
C29	C	1.060321	-0.185948	0.090168
C30	C	1.054895	-0.473709	0.090161
C31	C	1.053137	-0.567014	0.090162
C32	C	1.053160	-0.566996	-0.090149
C33	C	1.054920	-0.473698	-0.090149
C34	C	1.055787	-0.427057	0.000010
C35	C	1.220269	0.117168	0.000015
C36	C	1.319566	0.119037	0.000010
C37	C	1.050394	0.287050	0.000012
C38	C	1.052268	0.386346	0.000010
N39	N	1.056726	0.123513	0.235372
N40	N	1.056769	0.123531	-0.235342
C41	C	1.117486	0.062794	0.287414
C42	C	1.117492	0.062793	0.391517
C43	C	1.056741	0.123516	0.443576
C44	C	0.995974	0.184238	0.391527
C45	C	0.995965	0.184234	0.287425
C46	C	0.995999	0.184244	0.608507
C47	C	0.996009	0.184250	0.712615
C48	C	1.117526	0.062804	0.712599
C49	C	1.117517	0.062799	0.608497
C50	C	1.056751	0.123522	0.556455
H51	H	0.497508	0.122405	-0.163558
F52	F	0.931313	0.248861	0.446932
H53	H	0.616003	0.124638	-0.163551
H54	H	0.615990	0.124622	0.163574
F55	F	0.316581	0.118985	-0.186091
H56	H	0.785269	0.127847	-0.163558
H57	H	1.061082	-0.147954	-0.163553
H58	H	1.057882	-0.317205	-0.163553
H59	H	1.055652	-0.435712	-0.163559
F60	F	0.931321	0.248870	0.553124
F61	F	0.796901	0.128070	0.186115
H62	H	1.061015	-0.147973	0.163579
F63	F	0.509146	0.122627	0.186119
H64	H	0.946487	0.233676	0.245053
H65	H	1.166961	0.013350	0.245034
H66	H	1.166967	0.013351	0.433890
F67	F	0.316556	0.118977	0.186124
H68	H	1.167003	0.013361	0.754978
H69	H	1.166989	0.013359	0.566111
F70	F	0.931348	0.248878	0.768013
H71	H	1.052451	-0.604975	-0.163560
F72	F	1.052189	-0.616669	0.186111
H73	H	1.057830	-0.317241	0.163571
F74	F	1.055820	-0.424073	0.186120
