data_functionalizedCrystal
_audit_creation_method	'MofGen! by Chris Wilmer'
_symmetry_space_group_name_H-M	'P1'
_symmetry_Int_Tables_number	1
_symmetry_cell_setting	triclinic
loop_
_symmetry_equiv_pos_as_xyz
  x,y,z
_cell_length_a	17.699083
_cell_length_b	10.065918
_cell_length_c	17.699104
_cell_angle_alpha	99.852191
_cell_angle_beta	96.712734
_cell_angle_gamma	80.148594
loop_
_atom_site_label
_atom_site_type_symbol
_atom_site_fract_x
_atom_site_fract_y
_atom_site_fract_z
O1	O	-1.013957	0.113305	0.105576
O2	O	-0.793583	0.113350	0.118032
O3	O	-0.909987	0.113314	0.001615
O4	O	-0.897553	0.113341	0.221993
O5	O	-0.890197	-0.113673	-0.018153
O6	O	-0.773793	-0.113637	0.098264
O7	O	-0.994166	-0.113682	0.085808
Zn8	Zn	-0.880838	-0.149698	0.088898
Zn9	Zn	-0.906912	0.149366	0.114943
O10	O	-0.877763	-0.113646	0.202226
C11	C	-0.755491	-0.000138	0.107703
C12	C	-0.671475	-0.000121	0.106365
N13	N	-0.863048	-0.353802	0.071122
C14	C	-1.032258	-0.000191	0.096138
C15	C	-1.116276	-0.000199	0.097476
C16	C	-0.899643	-0.000180	-0.036466
C17	C	-0.898298	-0.000180	-0.120483
C18	C	-0.622860	-0.000113	0.174699
C19	C	-0.543915	-0.000131	0.173435
C20	C	-0.513587	-0.000147	0.103838
C21	C	-0.562208	-0.000159	0.035499
C22	C	-0.641151	-0.000151	0.036763
C23	C	-0.243842	-0.000193	0.030401
C24	C	-0.164893	-0.000197	0.029143
C25	C	-0.146606	-0.000173	0.167073
C26	C	-0.225548	-0.000165	0.168337
C27	C	-0.274162	-0.000184	0.099998
C28	C	-0.359762	-0.000168	0.101369
C29	C	-0.427989	-0.000154	0.102467
C30	C	-0.887038	-0.578747	0.095076
C31	C	-0.900723	-0.421581	0.108764
N32	N	-0.924707	0.353470	0.132712
C33	C	-0.959044	-0.000154	-0.645352
C34	C	-0.960303	-0.000166	-0.566409
C35	C	-0.891968	-0.000155	-0.517791
C36	C	-0.822370	-0.000146	-0.548120
C37	C	-0.821112	-0.000143	-0.627062
C38	C	-0.827442	-0.000158	-0.229755
C39	C	-0.828706	-0.000157	-0.150807
C40	C	-0.966633	-0.000181	-0.169102
C41	C	-0.965375	-0.000178	-0.248044
C42	C	-0.895776	-0.000176	-0.278367
C43	C	-0.894413	-0.000165	-0.363966
C44	C	-0.893332	-0.000156	-0.432192
C45	C	-0.888106	-0.000149	0.240306
C46	C	-0.889452	-0.000140	0.324325
H47	H	-0.504335	-0.000123	0.229079
O48	O	-0.762287	0.000026	-0.103639
C49	C	-0.730275	0.117602	-0.107107
H50	H	-0.752381	0.156792	-0.163611
H51	H	-0.664837	0.091164	-0.103741
H52	H	-0.747720	0.199923	-0.056775
H53	H	-0.967091	-0.588207	0.175064
O54	O	-0.759901	0.000044	-0.259273
C55	C	-0.765287	0.117622	-0.294128
H56	H	-0.828392	0.156795	-0.310489
H57	H	-0.732900	0.091195	-0.348068
H58	H	-0.738924	0.199952	-0.252014
H59	H	-0.844660	-0.637070	0.052718
H60	H	-0.820665	-0.412118	0.028764
H61	H	-0.680733	-0.000157	-0.018881
H62	H	-1.014691	-0.000151	-0.684931
H63	H	-0.943109	-0.363264	0.151119
H64	H	-0.647545	-0.000099	0.231373
O65	O	-1.027976	-0.000121	-0.537074
C66	C	-1.088016	-0.000158	-0.596916
H67	H	-1.070648	0.042830	-0.646760
H68	H	-1.142359	0.065727	-0.574760
H69	H	-1.099593	-0.109059	-0.617617
H70	H	-0.764442	-0.000143	-0.651750
H71	H	-1.021020	-0.000180	-0.287626
O72	O	-1.034170	-0.000258	-0.139526
C73	C	-1.020636	-0.000229	-0.059422
H74	H	-0.957793	-0.043197	-0.044524
H75	H	-1.059417	-0.066136	-0.041006
H76	H	-1.033754	0.108666	-0.027964
O77	O	-0.755957	0.000050	-0.500954
C78	C	-0.723955	0.117635	-0.504425
H79	H	-0.746067	0.156819	-0.560930
H80	H	-0.658516	0.091212	-0.501061
H81	H	-0.741403	0.199954	-0.454093
O82	O	-0.254876	-0.000211	0.236004
C83	C	-0.195040	-0.000176	0.296051
H84	H	-0.137705	-0.043155	0.271191
H85	H	-0.205713	-0.066071	0.338910
H86	H	-0.193318	0.108722	0.326608
O87	O	-0.291162	-0.000251	-0.035915
C88	C	-0.367347	-0.000207	-0.019880
H89	H	-0.366530	-0.043182	0.035816
H90	H	-0.397450	-0.066100	-0.069190
H91	H	-0.399665	0.108694	-0.013302
O92	O	-0.099267	-0.000228	0.233384
C93	C	-0.023088	-0.000210	0.217353
H94	H	-0.016421	-0.043200	0.154169
H95	H	0.018492	-0.066103	0.255184
H96	H	-0.009736	0.108685	0.229744
H97	H	-0.140204	-0.000212	-0.027535
O98	O	-0.532630	-0.000116	-0.032037
C99	C	-0.452525	-0.000152	-0.018504
H100	H	-0.437626	0.042831	0.044336
H101	H	-0.434106	0.065739	-0.057292
H102	H	-0.421071	-0.109051	-0.031614
