data_functionalizedCrystal
_audit_creation_method	'MofGen! by Chris Wilmer'
_symmetry_space_group_name_H-M	'P1'
_symmetry_Int_Tables_number	1
_symmetry_cell_setting	triclinic
loop_
_symmetry_equiv_pos_as_xyz
  x,y,z
_cell_length_a	17.699083
_cell_length_b	9.065218
_cell_length_c	7.540329
_cell_angle_alpha	90.003038
_cell_angle_beta	89.995522
_cell_angle_gamma	95.850550
loop_
_atom_site_label
_atom_site_type_symbol
_atom_site_fract_x
_atom_site_fract_y
_atom_site_fract_z
O1	O	0.110973	-1.957110	-0.147491
O2	O	0.610973	-1.457110	0.352509
O3	O	0.120075	-1.527555	-0.147494
O4	O	0.620075	-1.027555	0.352506
O5	O	0.005430	-1.754468	-0.147477
O6	O	0.505430	-1.254468	0.352523
O7	O	0.225619	-1.730196	-0.147508
O8	O	0.725619	-1.230196	0.352492
O9	O	0.005428	-1.754455	0.147488
O10	O	0.505428	-1.254455	0.647488
O11	O	0.120074	-1.527542	0.147471
O12	O	0.620074	-1.027542	0.647471
O13	O	0.110971	-1.957096	0.147474
O14	O	0.610971	-1.457096	0.647474
Cu15	Cu	0.115522	-1.742318	0.174405
Cu16	Cu	0.615522	-1.242318	0.674405
Cu17	Cu	0.115524	-1.742334	-0.174425
Cu18	Cu	0.615524	-1.242334	0.325575
O19	O	0.225617	-1.730183	0.147457
O20	O	0.725617	-1.230183	0.647457
C21	C	0.119200	-1.472588	-0.000012
C22	C	0.619200	-0.972588	0.499988
C23	C	0.116584	-1.308822	-0.000012
C24	C	0.616584	-0.808822	0.499988
C25	C	-0.022775	-1.753592	0.000006
C26	C	0.477225	-1.253592	0.500006
C27	C	-0.106813	-1.750983	0.000007
C28	C	0.393187	-1.250983	0.500007
N29	N	0.115521	-1.742317	0.419754
N30	N	0.615521	-1.242317	0.919754
C31	C	-0.154396	-1.884176	0.000010
C32	C	0.345604	-1.384176	0.500010
C33	C	-0.233358	-1.881716	-0.000006
C34	C	0.266642	-1.381716	0.499994
C35	C	-0.264737	-1.746060	-0.000012
C36	C	0.235263	-1.246060	0.499988
C37	C	-0.217149	-1.612857	-0.000021
C38	C	0.282851	-1.112857	0.499979
C39	C	-0.138188	-1.615319	-0.000018
C40	C	0.361812	-1.115319	0.499982
C41	C	-0.535589	-1.602925	-0.000035
C42	C	-0.035589	-1.102925	0.499965
C43	C	-0.614556	-1.600474	-0.000033
C44	C	-0.114556	-1.100474	0.499967
C45	C	-0.630760	-1.869322	-0.000023
C46	C	-0.130760	-1.369322	0.499977
C47	C	-0.551799	-1.871784	-0.000020
C48	C	-0.051799	-1.371784	0.499980
C49	C	-0.504217	-1.738581	-0.000038
C50	C	-0.004217	-1.238581	0.499962
C51	C	-0.418597	-1.741251	-0.000025
C52	C	0.081403	-1.241251	0.499975
C53	C	-0.350355	-1.743390	-0.000013
C54	C	0.149645	-1.243390	0.499987
C55	C	0.253822	-1.731059	-0.000030
C56	C	0.753822	-1.231059	0.499970
C57	C	0.337860	-1.733669	-0.000042
C58	C	0.837860	-1.233669	0.499958
C59	C	0.111847	-2.012064	-0.000012
C60	C	0.611847	-1.512064	0.499988
C61	C	0.114463	-2.175829	-0.000023
C62	C	0.614463	-1.675829	0.499977
N63	N	0.115520	-1.742346	-0.419774
N64	N	0.615520	-1.242346	0.080226
H65	H	-0.128854	-1.994642	0.000026
H66	H	0.371146	-1.494642	0.500026
H67	H	-0.526255	-1.982248	-0.000006
H68	H	-0.026255	-1.482248	0.499994
N69	N	-0.086863	-1.471662	-0.000032
N70	N	0.413137	-0.971662	0.499968
H71	H	-0.118721	-1.385350	-0.000035
H72	H	0.381279	-0.885350	0.499965
H73	H	-0.053750	-1.466817	0.109312
H74	H	0.446250	-0.966817	0.609312
N75	N	-0.682077	-2.013001	-0.000033
N76	N	-0.182077	-1.513001	0.499967
H77	H	-0.671881	-2.072186	0.109318
H78	H	-0.171881	-1.572186	0.609318
H79	H	-0.736840	-1.990749	-0.000111
H80	H	-0.236840	-1.490749	0.499889
N81	N	-0.284680	-2.025373	0.000008
N82	N	0.215320	-1.525373	0.500008
H83	H	-0.252820	-2.111683	0.000029
H84	H	0.247180	-1.611683	0.500029
H85	H	-0.317797	-2.030190	0.109356
H86	H	0.182203	-1.530190	0.609356
N87	N	-0.648403	-1.454154	-0.000030
N88	N	-0.148403	-0.954154	0.499970
H89	H	-0.606279	-1.370142	-0.000042
H90	H	-0.106279	-0.870142	0.499958
H91	H	-0.680812	-1.447289	-0.109372
H92	H	-0.180812	-0.947289	0.390628
H93	H	-0.496857	-1.494463	-0.000050
H94	H	0.003143	-0.994463	0.499950
H95	H	-0.242703	-1.502404	-0.000037
H96	H	0.257297	-1.002404	0.499963
