data_functionalizedCrystal
_audit_creation_method	'MofGen! by Chris Wilmer'
_symmetry_space_group_name_H-M	'P1'
_symmetry_Int_Tables_number	1
_symmetry_cell_setting	triclinic
loop_
_symmetry_equiv_pos_as_xyz
  x,y,z
_cell_length_a	27.732025
_cell_length_b	27.732048
_cell_length_c	26.809956
_cell_angle_alpha	89.996742
_cell_angle_beta	89.981157
_cell_angle_gamma	97.361939
loop_
_atom_site_label
_atom_site_type_symbol
_atom_site_fract_x
_atom_site_fract_y
_atom_site_fract_z
O1	O	0.057511	-0.640926	0.041400
O2	O	0.557511	-0.140926	0.541400
O3	O	0.066256	-0.500132	0.041413
O4	O	0.566256	-0.000132	0.541413
O5	O	-0.008514	-0.574908	0.041422
O6	O	0.491486	-0.074908	0.541422
O7	O	0.132281	-0.566151	0.041392
O8	O	0.632281	-0.066151	0.541392
O9	O	-0.008503	-0.574894	-0.041538
O10	O	0.491497	-0.074894	0.458462
O11	O	0.066268	-0.500118	-0.041546
O12	O	0.566268	-0.000118	0.458454
O13	O	0.057522	-0.640912	-0.041559
O14	O	0.557522	-0.140912	0.458441
Zn15	Zn	0.061897	-0.570513	-0.054724
Zn16	Zn	0.561897	-0.070513	0.445276
Zn17	Zn	0.061882	-0.570531	0.054578
Zn18	Zn	0.561882	-0.070531	0.554578
O19	O	0.132293	-0.566137	-0.041567
O20	O	0.632293	-0.066137	0.458433
C21	C	0.066079	-0.482118	-0.000064
C22	C	0.566079	0.017882	0.499936
C23	C	0.065526	-0.428463	-0.000059
C24	C	0.565526	0.071537	0.499941
C25	C	-0.026515	-0.574719	-0.000053
C26	C	0.473485	-0.074719	0.499947
C27	C	-0.080171	-0.574170	-0.000038
C28	C	0.419829	-0.074170	0.499962
C29	C	0.057700	-0.658926	-0.000080
C30	C	0.557700	-0.158926	0.499920
C31	C	0.058253	-0.712581	-0.000083
C32	C	0.558253	-0.212581	0.499917
C33	C	-0.463343	-0.570281	0.045154
C34	C	0.036657	-0.070281	0.545154
C35	C	-0.261683	-0.572334	0.045170
C36	C	0.238317	-0.072334	0.545170
O37	O	-0.235621	-0.572625	0.083630
O38	O	0.264379	-0.072625	0.583630
N39	N	-0.236456	-0.572582	-0.000050
N40	N	0.263544	-0.072582	0.499950
C41	C	-0.261647	-0.572321	-0.045277
C42	C	0.238353	-0.072321	0.454723
O43	O	-0.235563	-0.572585	-0.083739
O44	O	0.264437	-0.072585	0.416261
C45	C	-0.463306	-0.570272	-0.045292
C46	C	0.036694	-0.070272	0.454708
C47	C	-0.488530	-0.570019	-0.000069
C48	C	0.011470	-0.070019	0.499931
C49	C	-0.488567	-0.570028	0.090373
C50	C	0.011433	-0.070028	0.590373
C51	C	-0.538978	-0.569512	0.090369
C52	C	-0.038978	-0.069512	0.590369
C53	C	-0.564165	-0.569250	0.045145
C54	C	-0.064165	-0.069250	0.545145
C55	C	-0.538941	-0.569503	-0.000074
C56	C	-0.038941	-0.069503	0.499926
C57	C	-0.488496	-0.570015	-0.090518
C58	C	0.011504	-0.070015	0.409482
C59	C	-0.538914	-0.569504	-0.090518
C60	C	-0.038914	-0.069504	0.409482
C61	C	-0.564138	-0.569250	-0.045296
C62	C	-0.064138	-0.069250	0.454704
C63	C	-0.614540	-0.568725	-0.045302
C64	C	-0.114540	-0.068725	0.454698
N65	N	-0.639767	-0.568476	-0.000082
N66	N	-0.139767	-0.068476	0.499918
C67	C	-0.614580	-0.568738	0.045142
C68	C	-0.114580	-0.068738	0.545142
C69	C	-0.155773	-0.573396	-0.045265
C70	C	0.344227	-0.073396	0.454735
C71	C	-0.105358	-0.573908	-0.045262
C72	C	0.394642	-0.073908	0.454738
C73	C	-0.105398	-0.573921	0.045185
C74	C	0.394602	-0.073921	0.545185
C75	C	-0.155813	-0.573406	0.045181
C76	C	0.344187	-0.073406	0.545181
C77	C	-0.181000	-0.573147	-0.000046
C78	C	0.319000	-0.073147	0.499954
C79	C	-0.720448	-0.567655	0.045129
C80	C	-0.220448	-0.067655	0.545129
C81	C	-0.770863	-0.567137	0.045120
C82	C	-0.270863	-0.067137	0.545120
C83	C	-0.770819	-0.567126	-0.045326
C84	C	-0.270819	-0.067126	0.454674
C85	C	-0.720408	-0.567642	-0.045318
C86	C	-0.220408	-0.067642	0.454682
C87	C	-0.695223	-0.567907	-0.000086
C88	C	-0.195223	-0.067907	0.499914
O89	O	-0.640634	-0.568438	-0.083741
O90	O	-0.140634	-0.068438	0.416259
O91	O	-0.640674	-0.568485	0.083598
O92	O	-0.140674	-0.068485	0.583598
C93	C	-0.412931	-0.570797	0.045159
C94	C	0.087069	-0.070797	0.545159
C95	C	-0.387707	-0.571050	-0.000060
C96	C	0.112293	-0.071050	0.499940
C97	C	-0.412894	-0.570788	-0.045284
C98	C	0.087106	-0.070788	0.454716
C99	C	-0.337292	-0.571561	-0.000057
C100	C	0.162708	-0.071561	0.499943
C101	C	-0.312105	-0.571824	0.045167
C102	C	0.187895	-0.071824	0.545167
C103	C	-0.337332	-0.571575	0.090386
C104	C	0.162668	-0.071575	0.590386
C105	C	-0.387744	-0.571059	0.090382
C106	C	0.112256	-0.071059	0.590382
C107	C	-0.387667	-0.571036	-0.090504
C108	C	0.112333	-0.071036	0.409496
C109	C	-0.337255	-0.571552	-0.090496
C110	C	0.162745	-0.071552	0.409504
C111	C	-0.312068	-0.571814	-0.045272
C112	C	0.187932	-0.071814	0.454728
C113	C	0.150294	-0.566326	-0.000091
C114	C	0.650294	-0.066326	0.499909
C115	C	0.203949	-0.566874	-0.000103
C116	C	0.703949	-0.066874	0.499897
C117	C	0.106230	-0.089645	-0.000089
C118	C	0.606230	0.410355	0.499911
C119	C	0.104179	0.112014	-0.000093
C120	C	0.604179	0.612014	0.499907
O121	O	0.141400	0.143273	-0.000122
O122	O	0.641400	0.643273	0.499878
N123	N	0.059843	0.131135	-0.000083
N124	N	0.559843	0.631135	0.499917
C125	C	0.016017	0.099836	-0.000075
C126	C	0.516017	0.599836	0.499925
O127	O	-0.021740	0.120726	-0.000071
O128	O	0.478260	0.620726	0.499929
C129	C	0.018069	-0.101822	-0.000074
C130	C	0.518069	0.398178	0.499926
C131	C	0.062407	-0.120939	-0.000079
C132	C	0.562407	0.379061	0.499921
C133	C	0.150565	-0.108763	-0.000095
C134	C	0.650565	0.391237	0.499905
C135	C	0.151077	-0.159175	-0.000091
C136	C	0.651077	0.340825	0.499909
C137	C	0.107255	-0.190469	-0.000081
C138	C	0.607255	0.309531	0.499919
C139	C	0.062920	-0.171351	-0.000076
C140	C	0.562920	0.328649	0.499924
C141	C	-0.025757	-0.133119	-0.000070
C142	C	0.474243	0.366881	0.499930
C143	C	-0.025240	-0.183537	-0.000071
C144	C	0.474760	0.316463	0.499929
C145	C	0.019099	-0.202654	-0.000076
C146	C	0.519099	0.297346	0.499924
C147	C	0.019609	-0.253057	-0.000063
C148	C	0.519609	0.246943	0.499937
N149	N	0.063945	-0.272177	-0.000073
N150	N	0.563945	0.227823	0.499927
C151	C	0.107768	-0.240883	-0.000082
C152	C	0.607768	0.259117	0.499918
C153	C	0.014943	0.205710	-0.000074
C154	C	0.514943	0.705710	0.499926
C155	C	0.014430	0.256125	-0.000073
C156	C	0.514430	0.756125	0.499927
C157	C	0.102592	0.268299	-0.000092
C158	C	0.602592	0.768299	0.499908
C159	C	0.103105	0.217884	-0.000089
C160	C	0.603105	0.717884	0.499911
C161	C	0.059279	0.186590	-0.000084
C162	C	0.559279	0.686590	0.499916
C163	C	0.108840	-0.346752	-0.000074
C164	C	0.608840	0.153248	0.499926
C165	C	0.109348	-0.397169	-0.000068
C166	C	0.609348	0.102831	0.499932
C167	C	0.021187	-0.409339	-0.000052
C168	C	0.521187	0.090661	0.499948
C169	C	0.020678	-0.358927	-0.000055
C170	C	0.520678	0.141073	0.499945
C171	C	0.064509	-0.327634	-0.000068
C172	C	0.564509	0.172366	0.499932
O173	O	-0.017592	-0.284344	-0.000039
O174	O	0.482408	0.215656	0.499961
O175	O	0.145519	-0.261783	-0.000097
O176	O	0.645519	0.238217	0.499903
C177	C	0.105718	-0.039233	-0.000093
C178	C	0.605718	0.460767	0.499907
C179	C	0.061383	-0.020115	-0.000087
C180	C	0.561383	0.479885	0.499913
C181	C	0.017560	-0.051410	-0.000077
C182	C	0.517560	0.448590	0.499923
C183	C	0.060870	0.030299	-0.000086
C184	C	0.560870	0.530299	0.499914
C185	C	0.104692	0.061593	-0.000095
C186	C	0.604692	0.561593	0.499905
C187	C	0.149028	0.042473	-0.000106
C188	C	0.649028	0.542473	0.499894
C189	C	0.149540	-0.007939	-0.000102
C190	C	0.649540	0.492061	0.499898
C191	C	-0.026776	-0.032289	-0.000067
C192	C	0.473224	0.467711	0.499933
C193	C	-0.027284	0.018123	-0.000070
C194	C	0.472716	0.518123	0.499930
C195	C	0.016538	0.049417	-0.000080
C196	C	0.516538	0.549417	0.499920
N197	N	0.061907	-0.570504	-0.129320
N198	N	0.561907	-0.070504	0.370680
C199	C	0.028782	-0.603638	-0.473942
C200	C	0.528782	-0.103638	0.026058
C201	C	0.028774	-0.603649	-0.682820
C202	C	0.528774	-0.103649	-0.182820
O203	O	0.000613	-0.631801	-0.709821
O204	O	0.500613	-0.131801	-0.209821
N205	N	0.061871	-0.570534	-0.708947
N206	N	0.561871	-0.070534	-0.208947
C207	C	0.094970	-0.537412	-0.682852
C208	C	0.594970	-0.037412	-0.182852
O209	O	0.123118	-0.509242	-0.709867
O210	O	0.623118	-0.009242	-0.209867
C211	C	0.094975	-0.537398	-0.473975
C212	C	0.594975	-0.037398	0.026025
C213	C	0.061879	-0.570519	-0.447850
C214	C	0.561879	-0.070519	0.052150
C215	C	-0.004312	-0.636755	-0.447818
C216	C	0.495688	-0.136755	0.052182
C217	C	-0.004308	-0.636754	-0.395602
C218	C	0.495692	-0.136754	0.104398
C219	C	0.028790	-0.603635	-0.369510
C220	C	0.528790	-0.103635	0.130490
C221	C	0.061883	-0.570517	-0.395634
C222	C	0.561883	-0.070517	0.104366
C223	C	0.128071	-0.504274	-0.447880
C224	C	0.628071	-0.004274	0.052120
C225	C	0.128069	-0.504273	-0.395658
C226	C	0.628069	-0.004273	0.104342
C227	C	0.094973	-0.537393	-0.369533
C228	C	0.594973	-0.037393	0.130467
C229	C	0.094984	-0.537397	-0.317326
C230	C	0.594984	-0.037397	0.182674
N231	N	0.061887	-0.570512	-0.291199
N232	N	0.561887	-0.070512	0.208801
C233	C	0.028790	-0.603631	-0.317291
C234	C	0.528790	-0.103631	0.182709
C235	C	0.094966	-0.537422	-0.792515
C236	C	0.594966	-0.037422	-0.292515
C237	C	0.094965	-0.537426	-0.844734
C238	C	0.594965	-0.037426	-0.344734
C239	C	0.028769	-0.603663	-0.844699
C240	C	0.528769	-0.103663	-0.344699
C241	C	0.028772	-0.603661	-0.792479
C242	C	0.528772	-0.103661	-0.292479
C243	C	0.061869	-0.570537	-0.766388
C244	C	0.561869	-0.070537	-0.266388
C245	C	0.028801	-0.603626	-0.207633
C246	C	0.528801	-0.103626	0.292367
C247	C	0.028809	-0.603623	-0.155412
C248	C	0.528809	-0.103623	0.344588
C249	C	0.095004	-0.537384	-0.155452
C250	C	0.595004	-0.037384	0.344548
C251	C	0.094998	-0.537389	-0.207668
C252	C	0.594998	-0.037389	0.292332
C253	C	0.061892	-0.570511	-0.233757
C254	C	0.561892	-0.070511	0.266243
O255	O	0.123127	-0.509256	-0.290293
O256	O	0.623127	-0.009256	0.209707
O257	O	0.000640	-0.631789	-0.290266
O258	O	0.500640	-0.131789	0.209734
C259	C	0.028778	-0.603639	-0.526159
C260	C	0.528778	-0.103639	-0.026159
C261	C	0.061871	-0.570522	-0.552283
C262	C	0.561871	-0.070522	-0.052283
C263	C	0.094969	-0.537403	-0.526191
C264	C	0.594969	-0.037403	-0.026191
C265	C	0.061871	-0.570526	-0.604502
C266	C	0.561871	-0.070526	-0.104502
C267	C	0.028773	-0.603645	-0.630594
C268	C	0.528773	-0.103645	-0.130594
C269	C	-0.004324	-0.636760	-0.604467
C270	C	0.495676	-0.136760	-0.104467
C271	C	-0.004320	-0.636758	-0.552251
C272	C	0.495680	-0.136758	-0.052251
C273	C	0.128066	-0.504288	-0.552318
C274	C	0.628066	-0.004288	-0.052318
C275	C	0.128059	-0.504292	-0.604535
C276	C	0.628059	-0.004292	-0.104535
C277	C	0.094962	-0.537411	-0.630626
C278	C	0.594962	-0.037411	-0.130626
N279	N	0.061868	-0.570544	0.129174
N280	N	0.561868	-0.070544	0.629174
H281	H	-0.791398	-0.566928	0.081948
H282	H	-0.291398	-0.066928	0.581948
N283	N	-0.694728	-0.567934	0.091331
N284	N	-0.194728	-0.067934	0.591331
N285	N	-0.705085	-0.601966	0.121608
N286	N	-0.205085	-0.101966	0.621608
H287	H	-0.686920	-0.602162	0.154238
H288	H	-0.186920	-0.102162	0.654238
N289	N	-0.564733	-0.569253	0.136568
N290	N	-0.064733	-0.069253	0.636568
N291	N	-0.542230	-0.569489	0.176939
N292	N	-0.042230	-0.069489	0.676939
H293	H	-0.560416	-0.569308	0.209570
H294	H	-0.060416	-0.069308	0.709570
N295	N	-0.029827	0.173748	-0.000054
N296	N	0.470173	0.673748	0.499946
N297	N	-0.039383	0.144257	0.034919
N298	N	0.460617	0.644257	0.534919
H299	H	-0.071002	0.121685	0.034936
H300	H	0.428998	0.621685	0.534936
N301	N	-0.005051	-0.637480	-0.871359
N302	N	0.494949	-0.137480	-0.371359
N303	N	-0.034947	-0.622357	-0.900483
N304	N	0.465053	-0.122357	-0.400483
H305	H	-0.058836	-0.646235	-0.919313
H306	H	0.441164	-0.146235	-0.419313
N307	N	0.161877	-0.470450	-0.525678
N308	N	0.661877	0.029550	-0.025678
N309	N	0.191421	-0.440887	-0.549017
N310	N	0.691421	0.059113	-0.049017
H311	H	0.215304	-0.416988	-0.530205
H312	H	0.715304	0.083012	-0.030205
H313	H	-0.176275	-0.573186	-0.082096
H314	H	0.323725	-0.073186	0.417904
H315	H	0.184710	0.067962	-0.000111
H316	H	0.684710	0.567962	0.499889
N317	N	-0.071053	-0.113608	-0.000062
N318	N	0.428947	0.386392	0.499938
N319	N	-0.110172	-0.141564	-0.000057
N320	N	0.389828	0.358436	0.499943
H321	H	-0.142166	-0.127786	-0.000052
H322	H	0.357834	0.372214	0.499948
N323	N	-0.070009	-0.215501	-0.000054
N324	N	0.429991	0.284499	0.499946
N325	N	-0.079567	-0.244990	0.034921
N326	N	0.420433	0.255010	0.534921
H327	H	-0.111186	-0.267564	0.034935
H328	H	0.388814	0.232436	0.534935
N329	N	-0.071542	-0.064252	-0.000045
N330	N	0.428458	0.435748	0.499955
N331	N	-0.081097	-0.093739	0.034932
N332	N	0.418903	0.406261	0.534932
H333	H	-0.112716	-0.116311	0.034951
H334	H	0.387284	0.383689	0.534951
N335	N	-0.462852	-0.570299	0.136577
N336	N	0.037148	-0.070299	0.636577
N337	N	-0.485389	-0.570074	0.176943
N338	N	0.014611	-0.070074	0.676943
H339	H	-0.467231	-0.570263	0.209578
H340	H	0.032769	-0.070263	0.709578
N341	N	0.128775	-0.503603	-0.871424
N342	N	0.628775	-0.003603	-0.371424
N343	N	0.158677	-0.518710	-0.900571
N344	N	0.658677	-0.018710	-0.400571
H345	H	0.182554	-0.494821	-0.919421
H346	H	0.682554	0.005179	-0.419421
H347	H	-0.015426	-0.343361	-0.000043
H348	H	0.484574	0.156639	0.499957
H349	H	-0.084882	-0.574131	0.082008
H350	H	0.415118	-0.074131	0.582008
N351	N	-0.311591	-0.571839	0.136577
N352	N	0.188409	-0.071839	0.636577
N353	N	-0.266579	-0.572299	0.136568
N354	N	0.233421	-0.072299	0.636568
H355	H	-0.248396	-0.572487	0.169188
H356	H	0.251604	-0.072487	0.669188
N357	N	-0.462746	-0.570274	-0.136718
N358	N	0.037254	-0.070274	0.363282
N359	N	-0.485251	-0.570044	-0.177088
N360	N	0.014749	-0.070044	0.322912
H361	H	-0.467066	-0.570228	-0.209720
H362	H	0.032934	-0.070228	0.290280
H363	H	-0.031270	-0.663728	-0.530984
H364	H	0.468730	-0.163728	-0.030984
N365	N	-0.181569	-0.573145	0.091379
N366	N	0.318431	-0.073145	0.591379
N367	N	-0.159068	-0.573377	0.131751
N368	N	0.340932	-0.073377	0.631751
H369	H	-0.177256	-0.573193	0.164381
H370	H	0.322744	-0.073193	0.664381
N371	N	0.194836	-0.027454	-0.000116
N372	N	0.694836	0.472546	0.499884
N373	N	0.224296	-0.017737	-0.035093
N374	N	0.724296	0.482263	0.464907
H375	H	0.256289	-0.031515	-0.035104
H376	H	0.756289	0.468485	0.464896
N377	N	-0.030861	0.275648	-0.000074
N378	N	0.469139	0.775648	0.499926
N379	N	-0.040979	0.302420	-0.035045
N380	N	0.459021	0.802420	0.464955
H381	H	-0.072968	0.316206	-0.035050
H382	H	0.427032	0.816206	0.464950
N383	N	-0.311484	-0.571805	-0.136689
N384	N	0.188516	-0.071805	0.363311
N385	N	-0.278638	-0.538008	-0.146781
N386	N	0.221362	-0.038008	0.353219
H387	H	-0.260438	-0.538190	-0.179404
H388	H	0.239562	-0.038190	0.320596
N389	N	0.153607	-0.314786	-0.000089
N390	N	0.653607	0.185214	0.499911
N391	N	0.163167	-0.285295	-0.035062
N392	N	0.663167	0.214705	0.464938
H393	H	0.194783	-0.262717	-0.035071
H394	H	0.694783	0.237283	0.464929
N395	N	-0.079601	-0.574156	-0.091460
N396	N	0.420399	-0.074156	0.408540
N397	N	-0.102102	-0.573921	-0.131833
N398	N	0.397898	-0.073921	0.368167
H399	H	-0.083913	-0.574098	-0.164462
H400	H	0.416087	-0.074098	0.335538
N401	N	-0.038120	-0.670588	-0.474470
N402	N	0.461880	-0.170588	0.025530
N403	N	-0.022996	-0.700480	-0.503611
N404	N	0.477004	-0.200480	-0.003611
H405	H	-0.046874	-0.724375	-0.522434
H406	H	0.453126	-0.224375	-0.022434
H407	H	-0.408169	-0.570824	-0.127331
H408	H	0.091831	-0.070824	0.372669
H409	H	0.145456	-0.412731	-0.000072
H410	H	0.645456	0.087269	0.499928
H411	H	-0.014493	-0.434828	-0.000042
H412	H	0.485507	0.065172	0.499958
N413	N	-0.564634	-0.569241	-0.136722
N414	N	-0.064634	-0.069241	0.363278
N415	N	-0.542102	-0.569468	-0.177092
N416	N	-0.042102	-0.069468	0.322908
H417	H	-0.560265	-0.569281	-0.209724
H418	H	-0.060265	-0.069281	0.290276
N419	N	-0.694642	-0.567907	-0.091512
N420	N	-0.194642	-0.067907	0.408488
N421	N	-0.671223	-0.602284	-0.101602
N422	N	-0.171223	-0.102284	0.398398
H423	H	-0.653029	-0.602477	-0.134228
H424	H	-0.153029	-0.102477	0.365772
N425	N	-0.005010	-0.637448	-0.128731
N426	N	0.494990	-0.137448	0.371269
N427	N	-0.049686	-0.637116	-0.134549
N428	N	0.450314	-0.137116	0.365451
H429	H	-0.073573	-0.661002	-0.115707
H430	H	0.426427	-0.161002	0.384293
H431	H	0.121953	-0.510420	-0.134199
H432	H	0.621953	-0.010420	0.365801
H433	H	0.187182	-0.174735	-0.000095
H434	H	0.687182	0.325265	0.499905
N435	N	-0.005044	-0.637470	-0.765781
N436	N	0.494956	-0.137470	-0.265781
N437	N	-0.034936	-0.622339	-0.736639
N438	N	0.465064	-0.122339	-0.236639
H439	H	-0.058822	-0.646213	-0.717780
H440	H	0.441178	-0.146213	-0.217780
H441	H	0.121919	-0.510447	-0.771275
H442	H	0.621919	-0.010447	-0.271275
H443	H	-0.031271	-0.663728	-0.625719
H444	H	0.468729	-0.163728	-0.125719
N445	N	-0.072579	0.037646	-0.000077
N446	N	0.427421	0.537646	0.499923
N447	N	-0.082695	0.064413	-0.035052
N448	N	0.417305	0.564413	0.464948
H449	H	-0.114684	0.078200	-0.035062
H450	H	0.385316	0.578200	0.464938
H451	H	0.001843	-0.630597	-0.228869
H452	H	0.501843	-0.130597	0.271131
N453	N	-0.796553	-0.566849	-0.091518
N454	N	-0.296553	-0.066849	0.408482
N455	N	-0.819972	-0.532475	-0.101607
N456	N	-0.319972	-0.032475	0.398393
H457	H	-0.838149	-0.532281	-0.134230
H458	H	-0.338149	-0.032281	0.365770
N459	N	-0.413498	-0.570798	0.136581
N460	N	0.086502	-0.070798	0.636581
N461	N	-0.390995	-0.571032	0.176952
N462	N	0.109005	-0.071032	0.676952
H463	H	-0.409181	-0.570848	0.209583
H464	H	0.090819	-0.070848	0.709583
N465	N	0.195337	-0.076808	-0.000107
N466	N	0.695337	0.423192	0.499893
N467	N	0.234915	-0.093894	-0.000114
N468	N	0.734915	0.406106	0.499886
H469	H	0.266539	-0.071329	-0.000120
H470	H	0.766539	0.428671	0.499880
H471	H	0.139209	0.202323	-0.000096
H472	H	0.639209	0.702323	0.499904
H473	H	-0.031259	-0.663722	-0.374334
H474	H	0.468741	-0.163722	0.125666
N475	N	0.161885	-0.470441	-0.474549
N476	N	0.661885	0.029559	0.025451
N477	N	0.191430	-0.440876	-0.451237
N478	N	0.691430	0.059124	0.048763
H479	H	0.215314	-0.416980	-0.470070
H480	H	0.715314	0.083020	0.029930
N481	N	0.147352	0.300278	-0.000105
N482	N	0.647352	0.800278	0.499895
N483	N	0.146882	0.345288	-0.000108
N484	N	0.646882	0.845288	0.499892
H485	H	0.178492	0.367875	-0.000122
H486	H	0.678492	0.867875	0.499878
N487	N	0.161879	-0.470431	-0.369015
N488	N	0.661879	0.029569	0.130985
N489	N	0.191423	-0.440864	-0.392351
N490	N	0.691423	0.059136	0.107649
H491	H	0.215303	-0.416964	-0.373536
H492	H	0.715303	0.083036	0.126464
N493	N	0.128809	-0.503556	-0.234349
N494	N	0.628809	-0.003556	0.265651
N495	N	0.158357	-0.473988	-0.211043
N496	N	0.658357	0.026012	0.288957
H497	H	0.182233	-0.450089	-0.229883
H498	H	0.682233	0.049911	0.270117
H499	H	0.155014	-0.477322	-0.625801
H500	H	0.655014	0.022678	-0.125801
