data_functionalizedCrystal
_audit_creation_method	'MofGen! by Chris Wilmer'
_symmetry_space_group_name_H-M	'P1'
_symmetry_Int_Tables_number	1
_symmetry_cell_setting	triclinic
loop_
_symmetry_equiv_pos_as_xyz
  x,y,z
_cell_length_a	10.654553
_cell_length_b	16.109301
_cell_length_c	9.730223
_cell_angle_alpha	90.001446
_cell_angle_beta	90.003316
_cell_angle_gamma	83.973829
loop_
_atom_site_label
_atom_site_type_symbol
_atom_site_fract_x
_atom_site_fract_y
_atom_site_fract_z
O1	O	1.666252	0.116781	0.114310
O2	O	1.300624	0.127903	0.114310
O3	O	1.493482	0.001371	0.114296
O4	O	1.473394	0.243313	0.114324
O5	O	1.493470	0.001378	-0.114284
O6	O	1.300611	0.127910	-0.114270
O7	O	1.666240	0.116788	-0.114270
Zn8	Zn	1.483424	0.122350	-0.150562
Zn9	Zn	1.483440	0.122341	0.150602
O10	O	1.473381	0.243320	-0.114256
C11	C	1.253831	0.127090	0.000020
C12	C	1.114421	0.124645	0.000019
C13	C	1.492662	-0.029605	0.000005
C14	C	1.490223	-0.121915	0.000003
C15	C	0.917921	0.121197	-0.124570
C16	C	1.048910	0.123499	-0.124578
C17	C	1.048933	0.123496	0.124632
C18	C	0.917945	0.121200	0.124639
C19	C	0.917909	0.121195	-0.268450
C20	C	1.048898	0.123497	-0.268458
C21	C	1.598989	-0.343540	0.000025
C22	C	1.596687	-0.430274	0.000037
C23	C	1.367866	-0.411762	0.000031
C24	C	1.370170	-0.325030	0.000030
C25	C	1.485735	-0.290921	0.000020
C26	C	1.481129	-0.464388	0.000033
C27	C	1.478632	-0.558429	0.000045
C28	C	1.488232	-0.196874	0.000010
C29	C	1.713033	0.117601	0.000023
C30	C	1.852443	0.120046	0.000033
C31	C	1.474201	0.274296	0.000038
C32	C	1.476641	0.366606	0.000049
N33	N	1.483422	0.122356	-0.356098
C34	C	1.559561	0.173247	-0.428031
C35	C	1.559580	0.173231	-0.571914
C36	C	1.407310	0.071432	-0.571918
C37	C	1.407298	0.071444	-0.428038
C38	C	1.647469	0.232022	-0.428030
C39	C	1.647488	0.232007	-0.571913
N40	N	1.483452	0.122329	0.356139
H41	H	0.864636	0.120274	0.226103
C42	C	1.775736	0.196670	-0.632180
N43	N	1.872322	0.170038	-0.677575
H44	H	0.889156	0.060560	-0.313096
C45	C	1.323571	0.015437	-0.651066
N46	N	1.260494	-0.026738	-0.710678
H47	H	1.077638	0.184138	-0.313098
H48	H	1.102281	0.124437	0.226082
C49	C	0.854345	0.198681	-0.343450
N50	N	0.806479	0.256994	-0.400075
C51	C	1.592921	0.316596	-0.367755
N52	N	1.551836	0.380298	-0.322356
C53	C	1.112481	0.045876	-0.343083
N54	N	1.160371	-0.012588	-0.399284
C55	C	1.245575	-0.267145	0.000030
N56	N	1.151734	-0.223546	0.000036
H57	H	1.746797	0.211596	-0.388967
C58	C	1.726113	-0.306024	0.000030
N59	N	1.821867	-0.277770	0.000039
C60	C	1.721275	-0.488152	0.000031
N61	N	1.815121	-0.531745	0.000023
C62	C	1.240752	-0.449290	0.000015
N63	N	1.145006	-0.477555	-0.000007
C64	C	1.323549	0.015454	-0.348917
N65	N	1.260465	-0.026719	-0.289323
H66	H	1.615666	0.297566	-0.610979
