data_functionalizedCrystal
_audit_creation_method	'MofGen! by Chris Wilmer'
_symmetry_space_group_name_H-M	'P1'
_symmetry_Int_Tables_number	1
_symmetry_cell_setting	triclinic
loop_
_symmetry_equiv_pos_as_xyz
  x,y,z
_cell_length_a	19.288840
_cell_length_b	17.038272
_cell_length_c	17.766277
_cell_angle_alpha	89.993732
_cell_angle_beta	89.983415
_cell_angle_gamma	87.118786
loop_
_atom_site_label
_atom_site_type_symbol
_atom_site_fract_x
_atom_site_fract_y
_atom_site_fract_z
O1	O	0.927392	0.097420	-0.062722
O2	O	1.260725	0.430753	0.270612
O3	O	1.594058	0.764087	0.603945
O4	O	0.725944	0.110595	-0.062696
O5	O	1.059277	0.443928	0.270638
O6	O	1.392610	0.777262	0.603971
O7	O	0.825470	-0.009804	-0.062703
O8	O	1.158804	0.323530	0.270631
O9	O	1.492137	0.656863	0.603964
O10	O	0.827865	0.217819	-0.062715
O11	O	1.161198	0.551152	0.270619
O12	O	1.494532	0.884486	0.603952
O13	O	0.825451	-0.009810	0.062486
O14	O	1.158785	0.323523	0.395819
O15	O	1.492118	0.656857	0.729153
O16	O	0.725925	0.110589	0.062493
O17	O	1.059258	0.443922	0.395826
O18	O	1.392591	0.777256	0.729159
O19	O	0.927373	0.097414	0.062467
O20	O	1.260706	0.430747	0.395800
O21	O	1.594039	0.764081	0.729134
Cu22	Cu	0.826647	0.104001	0.073911
Cu23	Cu	1.159980	0.437334	0.407244
Cu24	Cu	1.493314	0.770668	0.740577
Cu25	Cu	0.826669	0.104008	-0.074139
Cu26	Cu	1.160003	0.437341	0.259194
Cu27	Cu	1.493336	0.770675	0.592527
O28	O	0.827846	0.217813	0.062474
O29	O	1.161179	0.551146	0.395807
O30	O	1.494513	0.884480	0.729140
C31	C	0.700031	0.110171	-0.000098
C32	C	1.033365	0.443505	0.333235
C33	C	1.366698	0.776838	0.666569
C34	C	0.622849	0.108909	-0.000088
C35	C	0.956182	0.442242	0.333245
C36	C	1.289515	0.775575	0.666579
C37	C	0.586618	0.108305	-0.068330
C38	C	0.919951	0.441639	0.265003
C39	C	1.253285	0.774972	0.598337
C40	C	0.514097	0.107110	-0.068339
C41	C	0.847431	0.440443	0.264994
C42	C	1.180764	0.773777	0.598327
C43	C	0.477811	0.106502	-0.000102
C44	C	0.811144	0.439836	0.333231
C45	C	1.144477	0.773169	0.666564
C46	C	0.514050	0.107110	0.068149
C47	C	0.847383	0.440444	0.401482
C48	C	1.180717	0.773777	0.734815
C49	C	0.586569	0.108313	0.068156
C50	C	0.919902	0.441647	0.401489
C51	C	1.253236	0.774980	0.734823
C52	C	0.365524	0.058808	0.052169
C53	C	0.698858	0.392142	0.385502
C54	C	1.032191	0.725475	0.718835
C55	C	0.293007	0.057601	0.052159
C56	C	0.626340	0.390934	0.385492
C57	C	0.959674	0.724267	0.718825
C58	C	0.254138	0.102795	-0.000122
C59	C	0.587471	0.436129	0.333211
C60	C	0.920804	0.769462	0.666545
C61	C	0.287795	0.149188	-0.052405
C62	C	0.621129	0.482521	0.280928
C63	C	0.954462	0.815855	0.614262
C64	C	0.360314	0.150391	-0.052398
C65	C	0.693648	0.483724	0.280936
C66	C	1.026981	0.817058	0.614269
C67	C	0.399176	0.105198	-0.000103
C68	C	0.732509	0.438532	0.333231
C69	C	1.065843	0.771865	0.666564
C70	C	0.139272	0.100897	-0.068379
C71	C	0.472605	0.434230	0.264955
C72	C	0.805938	0.767564	0.598288
C73	C	0.066749	0.099707	-0.068385
C74	C	0.400082	0.433040	0.264948
C75	C	0.733416	0.766373	0.598282
C76	C	0.066704	0.099699	0.068105
C77	C	0.400037	0.433032	0.401438
C78	C	0.733370	0.766366	0.734772
C79	C	0.139224	0.100897	0.068109
C80	C	0.472558	0.434231	0.401443
C81	C	0.805891	0.767564	0.734776
C82	C	0.175504	0.101493	-0.000135
C83	C	0.508837	0.434826	0.333199
C84	C	0.842171	0.768159	0.666532
C85	C	0.823283	-0.038928	-0.000108
C86	C	1.156616	0.294405	0.333225
C87	C	1.489950	0.627739	0.666559
C88	C	0.816785	-0.125699	-0.000107
C89	C	1.150119	0.207634	0.333226
C90	C	1.483452	0.540968	0.666559
C91	C	0.876442	-0.176012	-0.000114
C92	C	1.209775	0.157322	0.333219
C93	C	1.543108	0.490655	0.666552
C94	C	0.870332	-0.257542	-0.000121
C95	C	1.203666	0.075791	0.333213
C96	C	1.536999	0.409125	0.666546
C97	C	0.804566	-0.288758	-0.000115
C98	C	1.137899	0.044575	0.333219
C99	C	1.471233	0.377909	0.666552
C100	C	0.744905	-0.238439	-0.000110
C101	C	1.078238	0.094895	0.333223
C102	C	1.411572	0.428228	0.666556
C103	C	0.751015	-0.156910	-0.000109
C104	C	1.084348	0.176423	0.333224
C105	C	1.417682	0.509756	0.666557
C106	C	0.782980	-0.534444	-0.000122
C107	C	1.116314	-0.201111	0.333211
C108	C	1.449647	0.132223	0.666544
C109	C	0.776875	-0.615979	-0.000121
C110	C	1.110208	-0.282646	0.333212
C111	C	1.443541	0.050688	0.666546
C112	C	0.902303	-0.635077	-0.000133
C113	C	1.235636	-0.301743	0.333200
C114	C	1.568969	0.031590	0.666534
C115	C	0.908407	-0.553546	-0.000127
C116	C	1.241740	-0.220212	0.333206
C117	C	1.575073	0.113121	0.666539
C118	C	0.848746	-0.503234	-0.000127
C119	C	1.182079	-0.169900	0.333207
C120	C	1.515413	0.163433	0.666540
C121	C	0.798320	-0.372095	-0.000119
C122	C	1.131653	-0.038761	0.333214
C123	C	1.464986	0.294572	0.666548
C124	C	0.854993	-0.419899	-0.000128
C125	C	1.188326	-0.086565	0.333205
C126	C	1.521660	0.246768	0.666539
C127	C	0.953285	0.097838	-0.000132
C128	C	1.286618	0.431171	0.333201
C129	C	1.619952	0.764504	0.666534
C130	C	1.030468	0.099101	-0.000147
C131	C	1.363801	0.432434	0.333186
C132	C	1.697134	0.765767	0.666519
C133	C	0.830033	0.246937	-0.000122
C134	C	1.163367	0.580270	0.333211
C135	C	1.496700	0.913604	0.666544
C136	C	0.836531	0.333708	-0.000128
C137	C	1.169864	0.667042	0.333205
C138	C	1.503198	1.000375	0.666539
N139	N	0.826636	0.103995	0.178041
N140	N	1.159969	0.437329	0.511374
N141	N	1.493303	0.770662	0.844708
N142	N	0.826685	0.104007	-0.178270
N143	N	1.160019	0.437341	0.155064
N144	N	1.493352	0.770674	0.488397
C145	C	0.870723	0.050709	0.217425
C146	C	1.204057	0.384042	0.550758
C147	C	1.537390	0.717376	0.884091
C148	C	0.870727	0.050705	0.296227
C149	C	1.204060	0.384039	0.629560
C150	C	1.537394	0.717372	0.962893
C151	C	0.826651	0.104002	0.335641
C152	C	1.159984	0.437335	0.668975
C153	C	1.493318	0.770668	1.002308
C154	C	0.782555	0.157292	0.296248
C155	C	1.115888	0.490626	0.629581
C156	C	1.449222	0.823959	0.962915
C157	C	0.782548	0.157289	0.217448
C158	C	1.115881	0.490622	0.550781
C159	C	1.449214	0.823956	0.884114
C160	C	0.821759	0.175226	0.460476
C161	C	1.155092	0.508559	0.793810
C162	C	1.488426	0.841892	1.127143
C163	C	0.821771	0.175230	0.539275
C164	C	1.155105	0.508563	0.872609
C165	C	1.488438	0.841896	1.205942
C166	C	0.826670	0.104011	0.578688
C167	C	1.160003	0.437344	0.912021
C168	C	1.493337	0.770678	1.245354
C169	C	0.831571	0.032785	0.539292
C170	C	1.164905	0.366118	0.872625
C171	C	1.498238	0.699452	1.205959
C172	C	0.831564	0.032782	0.460492
C173	C	1.164897	0.366115	0.793825
C174	C	1.498230	0.699448	1.127158
C175	C	0.826654	0.104011	0.421087
C176	C	1.159987	0.437344	0.754420
C177	C	1.493321	0.770677	1.087754
C178	C	0.870764	0.050716	0.703518
C179	C	1.204097	0.384049	1.036851
C180	C	1.537431	0.717383	1.370184
C181	C	0.870763	0.050711	0.782321
C182	C	1.204096	0.384045	1.115654
C183	C	1.537429	0.717378	1.448988
C184	C	0.782595	0.157305	0.782341
C185	C	1.115928	0.490639	1.115674
C186	C	1.449261	0.823972	1.449007
C187	C	0.782592	0.157303	0.703539
C188	C	1.115925	0.490636	1.036872
C189	C	1.449259	0.823970	1.370206
C190	C	0.826680	0.104009	0.664132
C191	C	1.160014	0.437343	0.997466
C192	C	1.493347	0.770676	1.330799
H193	H	0.037251	0.099220	-0.123958
H194	H	0.370584	0.432554	0.209375
H195	H	0.703918	0.765887	0.542708
H196	H	0.906662	0.007315	0.814388
H197	H	1.239995	0.340648	1.147721
H198	H	1.573328	0.673982	1.481054
N199	N	0.735048	0.214785	0.824841
N200	N	1.068382	0.548118	1.158174
N201	N	1.401715	0.881452	1.491507
H202	H	0.741740	0.206700	0.880738
H203	H	1.075074	0.540034	1.214071
H204	H	1.408407	0.873367	1.547404
H205	H	0.746342	0.270216	0.811056
H206	H	1.079675	0.603549	1.144389
H207	H	1.413008	0.936883	1.477723
H208	H	0.746695	0.200697	0.671471
H209	H	1.080028	0.534030	1.004804
H210	H	1.413362	0.867364	1.338137
H211	H	0.265609	0.019821	0.094727
H212	H	0.598942	0.353154	0.428060
H213	H	0.932275	0.686488	0.761394
H214	H	0.484592	0.106620	-0.123912
H215	H	0.817926	0.439953	0.209421
H216	H	1.151259	0.773287	0.542755
H217	H	0.616067	0.108805	0.123729
H218	H	0.949401	0.442139	0.457062
H219	H	1.282734	0.775472	0.790395
N220	N	0.178403	0.101549	-0.141983
N221	N	0.511736	0.434882	0.191351
N222	N	0.845069	0.768216	0.524684
H223	H	0.205720	0.150492	-0.145023
H224	H	0.539053	0.483825	0.188310
H225	H	0.872386	0.817159	0.521644
H226	H	0.211226	0.053566	-0.144977
H227	H	0.544560	0.386900	0.188356
H228	H	0.877893	0.720233	0.521690
N229	N	0.686678	-0.102632	-0.000099
N230	N	1.020011	0.230701	0.333235
N231	N	1.353344	0.564035	0.666568
H232	H	0.658203	-0.112636	-0.046502
H233	H	0.991536	0.220697	0.286831
H234	H	1.324869	0.554031	0.620164
H235	H	0.658243	-0.112671	0.046343
H236	H	0.991576	0.220662	0.379677
H237	H	1.324909	0.553996	0.713010
N238	N	0.727385	-0.405761	-0.000106
N239	N	1.060719	-0.072427	0.333227
N240	N	1.394052	0.260906	0.666561
H241	H	0.722063	-0.439156	-0.046513
H242	H	1.055396	-0.105822	0.286820
H243	H	1.388729	0.227511	0.620153
H244	H	0.722098	-0.439130	0.046332
H245	H	1.055431	-0.105797	0.379666
H246	H	1.388764	0.227537	0.712999
N247	N	0.816481	0.252047	0.581764
N248	N	1.149815	0.585380	0.915097
N249	N	1.483148	0.918714	1.248430
H250	H	0.813365	0.297163	0.544841
H251	H	1.146698	0.630496	0.878174
H252	H	1.480032	0.963830	1.211507
H253	H	0.773600	0.253799	0.614474
H254	H	1.106933	0.587133	0.947807
H255	H	1.440266	0.920466	1.281141
H256	H	0.387715	0.188167	-0.094967
H257	H	0.721049	0.521501	0.238367
H258	H	1.054382	0.854834	0.571700
H259	H	0.906629	0.007311	0.328299
H260	H	1.239963	0.340645	0.661632
H261	H	1.573296	0.673978	0.994966
H262	H	0.817758	0.233224	0.428393
H263	H	1.151091	0.566558	0.761726
H264	H	1.484424	0.899891	1.095060
N265	N	0.407444	0.010063	0.108563
N266	N	0.740778	0.343396	0.441896
N267	N	1.074111	0.676729	0.775229
H268	H	0.375121	-0.019513	0.141677
H269	H	0.708454	0.313820	0.475010
H270	H	1.041787	0.647153	0.808343
H271	H	0.439783	-0.028544	0.081012
H272	H	0.773117	0.304789	0.414346
H273	H	1.106450	0.638122	0.747679
N274	N	0.474777	0.106073	0.141644
N275	N	0.808110	0.439406	0.474978
N276	N	1.141443	0.772739	0.808311
H277	H	0.441770	0.153888	0.144817
H278	H	0.775103	0.487222	0.478150
H279	H	1.108436	0.820555	0.811483
H280	H	0.447642	0.056971	0.144266
H281	H	0.780975	0.390304	0.477600
H282	H	1.114309	0.723638	0.810933
H283	H	0.929996	-0.150603	-0.000115
H284	H	1.263329	0.182731	0.333219
H285	H	1.596662	0.516064	0.666552
H286	H	0.906621	0.007312	0.185342
H287	H	1.239954	0.340646	0.518675
H288	H	1.573288	0.673979	0.852009
N289	N	0.934676	-0.311809	-0.000124
N290	N	1.268009	0.021525	0.333210
N291	N	1.601342	0.354858	0.666543
H292	H	0.977265	-0.279662	-0.000121
H293	H	1.310598	0.053671	0.333213
H294	H	1.643932	0.387004	0.666546
H295	H	0.934859	-0.346056	0.046285
H296	H	1.268192	-0.012723	0.379619
H297	H	1.601526	0.320610	0.712952
N298	N	0.735011	0.214773	0.338754
N299	N	1.068345	0.548106	0.672087
N300	N	1.401678	0.881440	1.005421
H301	H	0.741707	0.206691	0.394651
H302	H	1.075040	0.540024	0.727984
H303	H	1.408373	0.873357	1.061317
H304	H	0.746303	0.270204	0.324966
H305	H	1.079636	0.603537	0.658300
H306	H	1.412970	0.936870	0.991633
H307	H	0.961961	-0.528136	-0.000132
H308	H	1.295294	-0.194803	0.333201
H309	H	1.628627	0.138530	0.666535
H310	H	0.037160	0.099209	0.123665
H311	H	0.370493	0.432543	0.456998
H312	H	0.703826	0.765876	0.790332
H313	H	0.950875	-0.676049	-0.000135
H314	H	1.284208	-0.342716	0.333198
H315	H	1.617541	-0.009382	0.666532
H316	H	0.723317	-0.641391	-0.000104
H317	H	1.056650	-0.308058	0.333229
H318	H	1.389984	0.025275	0.666563
N319	N	0.718634	-0.480186	-0.000117
N320	N	1.051968	-0.146853	0.333216
N321	N	1.385301	0.186481	0.666550
H322	H	0.690163	-0.490201	-0.046520
H323	H	1.023496	-0.156867	0.286813
H324	H	1.356829	0.176466	0.620146
H325	H	0.690202	-0.490232	0.046325
H326	H	1.023535	-0.156899	0.379659
H327	H	1.356869	0.176434	0.712992
N328	N	0.836864	-0.044040	0.581783
N329	N	1.170198	0.289293	0.915116
N330	N	1.503531	0.622626	1.248449
H331	H	0.794418	-0.048567	0.614494
H332	H	1.127752	0.284767	0.947827
H333	H	1.461085	0.618100	1.281161
H334	H	0.839993	-0.089106	0.544814
H335	H	1.173326	0.244228	0.878147
H336	H	1.506659	0.577561	1.211481
N337	N	0.836847	-0.044033	0.417999
N338	N	1.170181	0.289301	0.751332
N339	N	1.503514	0.622634	1.084665
H340	H	0.839953	-0.089153	0.454918
H341	H	1.173286	0.244181	0.788251
H342	H	1.506619	0.577514	1.121585
H343	H	0.794387	-0.048471	0.385323
H344	H	1.127720	0.284863	0.718657
H345	H	1.461053	0.618196	1.051990
H346	H	0.256149	0.185993	-0.094974
H347	H	0.589483	0.519326	0.238359
H348	H	0.922816	0.852660	0.571692
N349	N	0.925924	-0.386232	-0.000126
N350	N	1.259257	-0.052898	0.333207
N351	N	1.592590	0.280435	0.666541
H352	H	0.962794	-0.430473	-0.000127
H353	H	1.296127	-0.097140	0.333206
H354	H	1.629460	0.236193	0.666540
H355	H	0.931200	-0.352814	-0.046534
H356	H	1.264533	-0.019481	0.286799
H357	H	1.597867	0.313852	0.620133
N358	N	0.673970	-0.272103	-0.000109
N359	N	1.007303	0.061231	0.333225
N360	N	1.340637	0.394564	0.666558
H361	H	0.679150	-0.331385	-0.000108
H362	H	1.012484	0.001948	0.333226
H363	H	1.345817	0.335281	0.666559
H364	H	0.647645	-0.253685	0.046303
H365	H	0.980978	0.079649	0.379636
H366	H	1.314312	0.412982	0.712970
N367	N	0.734992	0.214762	0.174964
N368	N	1.068325	0.548095	0.508297
N369	N	1.401659	0.881429	0.841630
H370	H	0.707067	0.248524	0.211887
H371	H	1.040400	0.581857	0.545220
H372	H	1.373733	0.915190	0.878554
H373	H	0.763614	0.249242	0.142253
H374	H	1.096947	0.582576	0.475586
H375	H	1.430280	0.915909	0.808919
N376	N	0.918311	-0.006763	0.661007
N377	N	1.251644	0.326570	0.994341
N378	N	1.584978	0.659904	1.327674
H379	H	0.946238	-0.040526	0.697918
H380	H	1.279571	0.292807	1.031251
H381	H	1.612904	0.626141	1.364584
H382	H	0.889683	-0.041241	0.628326
H383	H	1.223016	0.292092	0.961660
H384	H	1.556350	0.625425	1.294993
N385	N	0.625741	0.108948	-0.141938
N386	N	0.959074	0.442281	0.191396
N387	N	1.292407	0.775615	0.524729
H388	H	0.610352	0.157184	-0.171777
H389	H	0.943685	0.490518	0.161556
H390	H	1.277019	0.823851	0.494889
H391	H	0.677170	0.109770	-0.131524
H392	H	1.010503	0.443103	0.201809
H393	H	1.343837	0.776437	0.535143
N394	N	0.178307	0.101547	0.141714
N395	N	0.511641	0.434881	0.475047
N396	N	0.844974	0.768214	0.808381
H397	H	0.144318	0.100982	0.184942
H398	H	0.477651	0.434315	0.518275
H399	H	0.810984	0.767649	0.851609
H400	H	0.211172	0.053600	0.144694
H401	H	0.544506	0.386933	0.478027
H402	H	0.877839	0.720266	0.811361
