data_functionalizedCrystal
_audit_creation_method	'MofGen! by Chris Wilmer'
_symmetry_space_group_name_H-M	'P1'
_symmetry_Int_Tables_number	1
_symmetry_cell_setting	triclinic
loop_
_symmetry_equiv_pos_as_xyz
  x,y,z
_cell_length_a	17.699083
_cell_length_b	17.699092
_cell_length_c	16.776229
_cell_angle_alpha	89.995030
_cell_angle_beta	89.998886
_cell_angle_gamma	83.284691
loop_
_atom_site_label
_atom_site_type_symbol
_atom_site_fract_x
_atom_site_fract_y
_atom_site_fract_z
O1	O	1.004081	0.095713	-0.066173
O2	O	0.783703	0.108165	-0.066199
O3	O	0.900115	-0.008250	-0.066184
O4	O	0.887669	0.212128	-0.066189
O5	O	0.900100	-0.008257	0.066393
O6	O	0.783688	0.108158	0.066377
O7	O	1.004066	0.095705	0.066403
Zn8	Zn	0.893874	0.101931	0.087440
Zn9	Zn	0.893895	0.101940	-0.087236
O10	O	0.887654	0.212120	0.066388
C11	C	0.755499	0.107715	0.000086
C12	C	0.671480	0.106377	0.000076
C13	C	0.622862	0.174710	0.000074
C14	C	0.543918	0.173448	0.000085
C15	C	0.513595	0.103851	0.000091
C16	C	0.562220	0.035513	0.000095
C17	C	0.641162	0.036776	0.000090
C18	C	0.243857	0.030418	0.000114
C19	C	0.164909	0.029160	0.000117
C20	C	0.146613	0.167089	0.000109
C21	C	0.225555	0.168352	0.000105
C22	C	0.274173	0.100014	0.000113
C23	C	0.359772	0.101384	0.000103
C24	C	0.427998	0.102481	0.000095
C25	C	0.899661	-0.036450	0.000103
C26	C	0.898319	-0.120468	0.000099
C27	C	0.897700	-0.159932	-0.072169
C28	C	0.896435	-0.238875	-0.072170
C29	C	0.895795	-0.278353	0.000098
C30	C	0.896413	-0.238884	0.072372
C31	C	0.897672	-0.159942	0.072372
C32	C	0.891332	-0.557249	0.072373
C33	C	0.890075	-0.636197	0.072367
C34	C	0.890095	-0.636182	-0.072170
C35	C	0.891354	-0.557240	-0.072170
C36	C	0.891968	-0.517777	0.000104
C37	C	0.893338	-0.432178	0.000104
C38	C	0.894430	-0.363952	0.000099
C39	C	1.032271	0.096155	0.000116
C40	C	1.116289	0.097494	0.000121
C41	C	0.888109	0.240321	0.000099
C42	C	0.889450	0.324339	0.000097
N43	N	0.893866	0.101924	0.206651
N44	N	0.893909	0.101941	-0.206447
C45	C	0.945429	0.050396	0.248375
C46	C	0.945433	0.050396	0.331827
C47	C	0.893878	0.101927	0.373554
C48	C	0.842309	0.153457	0.331824
C49	C	0.842302	0.153453	0.248373
C50	C	0.842337	0.153471	0.668371
C51	C	0.842349	0.153472	0.751828
C52	C	0.945468	0.050414	0.751825
C53	C	0.945461	0.050410	0.668374
C54	C	0.893890	0.101937	0.626652
C55	C	0.893885	0.101936	0.536163
C56	C	0.893885	0.101932	0.464040
H57	H	0.283433	-0.025227	0.000121
O58	O	0.786736	0.209056	0.796832
H59	H	0.795414	0.200406	0.861869
O60	O	1.001094	-0.005165	0.796825
H61	H	0.991570	-0.064157	0.780810
H62	H	0.898224	-0.127794	-0.131018
O63	O	0.895728	-0.281437	-0.150116
H64	H	0.896380	-0.240722	-0.200368
H65	H	0.891879	-0.525101	-0.131018
O66	O	0.491476	0.247149	0.000084
H67	H	0.525824	0.295755	0.000069
O68	O	0.529521	-0.039555	0.000104
H69	H	0.466460	-0.028955	0.000100
H70	H	0.987415	0.008437	0.214406
H71	H	0.800347	0.195428	0.634407
O72	O	0.892004	-0.514701	0.150327
H73	H	0.841008	-0.471902	0.153791
H74	H	0.889591	-0.668322	-0.131019
O75	O	0.786703	0.209042	0.376823
H76	H	0.795376	0.200396	0.441862
H77	H	0.140224	-0.027517	0.000123
O78	O	1.001061	-0.005179	0.623373
H79	H	0.992394	0.003476	0.558335
H80	H	0.250239	0.225025	0.000096
H81	H	0.895887	-0.271033	0.131214
H82	H	0.898166	-0.127810	0.131221
O83	O	0.786692	0.209032	0.203364
H84	H	0.750848	0.244871	0.246398
O85	O	1.001063	-0.005172	0.376822
H86	H	0.991546	-0.064166	0.360808
O87	O	0.655566	0.249775	0.000076
H88	H	0.608493	0.297078	0.000087
O89	O	0.693607	-0.036925	0.000089
H90	H	0.659261	-0.085533	0.000087
H91	H	0.889552	-0.668338	0.131220
O92	O	0.094176	0.240802	0.000118
H93	H	0.034188	0.228236	0.000134
