data_functionalizedCrystal
_audit_creation_method	'MofGen! by Chris Wilmer'
_symmetry_space_group_name_H-M	'P1'
_symmetry_Int_Tables_number	1
_symmetry_cell_setting	triclinic
loop_
_symmetry_equiv_pos_as_xyz
  x,y,z
_cell_length_a	10.654554
_cell_length_b	10.654551
_cell_length_c	9.730223
_cell_angle_alpha	90.001469
_cell_angle_beta	89.999614
_cell_angle_gamma	84.486102
loop_
_atom_site_label
_atom_site_type_symbol
_atom_site_fract_x
_atom_site_fract_y
_atom_site_fract_z
O1	O	1.667831	0.176421	-0.114286
O2	O	1.302354	0.193221	-0.114287
O3	O	1.493495	0.002082	-0.114287
O4	O	1.476690	0.367560	-0.114286
O5	O	1.493492	0.002087	0.114293
O6	O	1.302351	0.193226	0.114293
O7	O	1.667829	0.176426	0.114294
Zn8	Zn	1.485090	0.184827	0.150585
Zn9	Zn	1.485093	0.184821	-0.150579
O10	O	1.476688	0.367565	0.114294
C11	C	1.255555	0.191989	0.000003
C12	C	1.116112	0.188295	0.000002
C13	C	1.492259	-0.044713	-0.000001
C14	C	1.488567	-0.184156	-0.000010
C15	C	0.933549	0.068808	-0.000010
C16	C	1.064571	0.072279	0.000000
C17	C	1.036623	0.300848	0.000008
C18	C	0.905604	0.297376	0.000008
C19	C	0.882016	-0.047215	-0.000026
C20	C	0.961496	-0.159769	-0.000030
C21	C	1.092517	-0.156299	-0.000020
C22	C	1.144059	-0.040274	-0.000006
C23	C	1.486836	-0.249671	-0.124606
C24	C	1.483356	-0.380691	-0.124600
C25	C	1.483343	-0.380672	0.124610
C26	C	1.486814	-0.249653	0.124603
C27	C	1.488589	-0.184175	-0.249219
C28	C	1.486859	-0.249690	-0.373825
C29	C	1.483379	-0.380710	-0.373819
C30	C	1.481628	-0.446216	-0.249206
C31	C	1.714628	0.177659	0.000001
C32	C	1.854071	0.181353	-0.000008
C33	C	1.477923	0.414361	0.000004
C34	C	1.481616	0.553804	0.000004
N35	N	1.485097	0.184831	0.356122
N36	N	1.485095	0.184807	-0.356115
C37	C	1.569756	0.100223	0.428047
C38	C	1.569753	0.100208	0.571930
C39	C	1.400427	0.269419	0.571949
C40	C	1.400425	0.269427	0.428069
C41	C	1.654428	0.015627	0.356100
C42	C	1.739095	-0.068986	0.428026
C43	C	1.739092	-0.069002	0.571909
C44	C	1.654421	0.015597	0.643866
H45	H	0.919521	-0.254231	-0.000052
C46	C	1.374548	-0.407875	-0.586241
C47	C	1.481471	-0.452724	-0.510782
H48	H	1.373381	-0.452328	-0.670802
H49	H	1.300880	-0.420410	-0.535050
H50	H	1.376884	-0.320470	-0.604065
H51	H	1.479131	-0.540127	-0.492949
H52	H	1.555158	-0.440200	-0.561984
H53	H	0.840890	0.389020	0.000016
C54	C	1.382928	-0.089113	0.269129
C55	C	1.488711	-0.177616	0.261553
H56	H	1.384091	-0.044643	0.353680
H57	H	1.384472	-0.031374	0.194914
H58	H	1.308477	-0.131308	0.263953
H59	H	1.563162	-0.135421	0.266718
H60	H	1.487178	-0.235364	0.335788
H61	H	1.654417	0.015568	0.761026
H62	H	1.488273	-0.196345	-0.475280
H63	H	1.654441	0.015634	0.238944
C64	C	1.814216	-0.144170	0.207458
C65	C	1.832107	-0.162027	0.348937
H66	H	1.871629	-0.201623	0.158637
H67	H	1.730273	-0.158542	0.183912
H68	H	1.828633	-0.060236	0.183875
H69	H	1.817680	-0.245959	0.372522
H70	H	1.916070	-0.147665	0.372493
C71	C	1.385790	0.016696	-0.181397
C72	C	1.492408	-0.040156	-0.249226
H73	H	1.388155	0.105606	-0.181394
H74	H	1.311914	-0.004003	-0.227429
H75	H	1.385007	-0.012946	-0.089356
H76	H	1.493186	-0.010520	-0.341271
H77	H	1.566303	-0.019446	-0.203196
C78	C	1.764874	-0.239699	0.733683
C79	C	1.832149	-0.162011	0.650971
H80	H	1.822331	-0.297123	0.782482
H81	H	1.714466	-0.189322	0.797122
H82	H	1.712215	-0.285357	0.677531
H83	H	1.884802	-0.116347	0.707125
H84	H	1.882578	-0.212395	0.587525
H85	H	1.331493	0.338296	0.630546
C86	C	1.368845	-0.620685	-0.181330
C87	C	1.477783	-0.590234	-0.249178
H88	H	1.366470	-0.709594	-0.181316
H89	H	1.369646	-0.591030	-0.089307
H90	H	1.296537	-0.582097	-0.227370
H91	H	1.550092	-0.628815	-0.203132
H92	H	1.476993	-0.619904	-0.341218
H93	H	1.481918	-0.434017	0.226064
C94	C	1.233068	0.436699	0.442528
C95	C	1.307375	0.362435	0.348997
H96	H	1.175626	0.494121	0.393709
H97	H	1.187441	0.383998	0.498638
H98	H	1.285747	0.482358	0.498654
H99	H	1.254696	0.316769	0.292877
H100	H	1.353005	0.415143	0.292863
H101	H	1.157227	-0.247945	-0.000010
H102	H	0.775334	-0.050054	-0.000038
H103	H	1.078600	0.395309	0.000018
H104	H	1.250747	-0.037458	0.000015
