data_functionalizedCrystal
_audit_creation_method	'MofGen! by Chris Wilmer'
_symmetry_space_group_name_H-M	'P1'
_symmetry_Int_Tables_number	1
_symmetry_cell_setting	triclinic
loop_
_symmetry_equiv_pos_as_xyz
  x,y,z
_cell_length_a	22.610064
_cell_length_b	10.654550
_cell_length_c	10.654560
_cell_angle_alpha	95.512905
_cell_angle_beta	89.994089
_cell_angle_gamma	89.988170
loop_
_atom_site_label
_atom_site_type_symbol
_atom_site_fract_x
_atom_site_fract_y
_atom_site_fract_z
O1	O	0.049231	-1.667857	0.176381
O2	O	0.049221	-1.302379	0.193187
O3	O	0.049225	-1.493514	0.002045
O4	O	0.049227	-1.476722	0.367522
O5	O	-0.049144	-1.493480	0.002073
O6	O	-0.049148	-1.302345	0.193215
O7	O	-0.049138	-1.667823	0.176409
Zn8	Zn	-0.064762	-1.485078	0.184816
Zn9	Zn	0.064844	-1.485123	0.184779
O10	O	-0.049142	-1.476688	0.367550
C11	C	0.000035	-1.255564	0.191967
C12	C	0.000032	-1.116120	0.188275
N13	N	-0.153214	-1.485057	0.184840
C14	C	0.000041	-1.492261	-0.044738
C15	C	0.000044	-1.488564	-0.184181
C16	C	-0.561854	-1.569762	0.100155
C17	C	-0.623774	-1.569768	0.100146
O18	O	-0.655791	-1.641733	0.028162
N19	N	-0.654751	-1.485122	0.184753
C20	C	-0.623806	-1.400455	0.269367
O21	O	-0.655840	-1.328457	0.341330
C22	C	-0.561887	-1.400444	0.269369
C23	C	-0.530912	-1.485104	0.184764
C24	C	-0.530879	-1.654414	0.015557
C25	C	-0.468964	-1.654409	0.015568
C26	C	-0.438022	-1.569751	0.100177
C27	C	-0.468997	-1.485099	0.184775
C28	C	-0.530942	-1.315772	0.353975
C29	C	-0.469019	-1.315767	0.353969
C30	C	-0.438045	-1.400428	0.269365
C31	C	-0.376140	-1.400436	0.269396
N32	N	-0.345162	-1.485083	0.184788
C33	C	-0.376104	-1.569740	0.100179
C34	C	-0.753839	-1.400484	0.269355
C35	C	-0.815757	-1.400501	0.269360
C36	C	-0.815721	-1.569812	0.100137
C37	C	-0.753802	-1.569801	0.100139
C38	C	-0.722862	-1.485130	0.184747
C39	C	-0.246076	-1.569724	0.100209
C40	C	-0.184155	-1.569715	0.100231
C41	C	-0.184197	-1.400399	0.269449
C42	C	-0.246113	-1.400412	0.269432
C43	C	-0.277051	-1.485079	0.184802
O44	O	-0.344083	-1.328504	0.341340
O45	O	-0.344062	-1.641715	0.028217
N46	N	0.153296	-1.485154	0.184745
C47	C	0.000049	-1.714638	0.177629
C48	C	0.000056	-1.854081	0.181321
C49	C	0.000041	-1.036639	0.300816
C50	C	0.000051	-0.905618	0.297339
C51	C	0.000045	-0.933573	0.068771
C52	C	0.000031	-1.064591	0.072249
C53	C	0.000042	-1.088168	0.416842
C54	C	0.000051	-1.008686	0.529392
C55	C	0.000062	-0.877665	0.525916
C56	C	0.000062	-0.826126	0.409889
C57	C	-0.053578	-1.483354	-0.380705
C58	C	-0.053578	-1.486813	-0.249682
C59	C	0.053669	-1.486843	-0.249709
C60	C	0.053669	-1.483376	-0.380728
C61	C	-0.107203	-1.481617	-0.446200
C62	C	-0.160829	-1.483335	-0.380681
C63	C	-0.160829	-1.486793	-0.249658
C64	C	-0.107204	-1.488534	-0.184154
C65	C	0.000043	-1.477940	0.414334
C66	C	0.000044	-1.481638	0.553777
H67	H	-0.271259	-1.638666	0.031294
N68	N	-0.435646	-1.224451	0.445232
H69	H	-0.409960	-1.168426	0.396723
H70	H	-0.464704	-1.170912	0.498802
H71	H	-0.443748	-1.723343	-0.053328
H72	H	0.000046	-1.050657	0.623857
H73	H	0.000036	-1.194850	0.419686
N74	N	0.000052	-0.877976	-0.056357
H75	H	0.036514	-0.906922	-0.105726
H76	H	-0.036441	-0.906861	-0.105606
N77	N	-0.849101	-1.661131	0.008887
H78	H	-0.820087	-1.714768	-0.044709
H79	H	-0.874783	-1.717059	0.057508
N80	N	-0.107207	-1.477889	-0.587516
H81	H	-0.086158	-1.399345	-0.609592
H82	H	-0.086160	-1.554833	-0.628474
H83	H	-0.204489	-1.481906	-0.434022
H84	H	0.000025	-1.129307	-0.019392
N85	N	-0.218664	-1.488635	-0.178986
H86	H	-0.252633	-1.487009	-0.240362
H87	H	-0.220996	-1.567791	-0.134121
N88	N	0.111502	-1.481501	-0.451404
H89	H	0.145474	-1.483132	-0.390034
H90	H	0.113845	-1.557775	-0.515273
H91	H	0.097329	-1.488260	-0.196365
N92	N	-0.849162	-1.309196	0.360618
H93	H	-0.820159	-1.255568	0.414211
H94	H	-0.874852	-1.253259	0.312011
H95	H	-0.556066	-1.723352	-0.053348
N96	N	-0.107208	-1.492260	-0.042836
H97	H	-0.086153	-1.570817	-0.020773
H98	H	-0.086169	-1.415330	-0.001879
N99	N	-0.150747	-1.661034	0.008980
H100	H	-0.179748	-1.714659	-0.044622
H101	H	-0.125057	-1.612473	-0.046989
H102	H	0.000061	-0.719439	0.407067
N103	N	-0.720396	-1.661111	0.008889
H104	H	-0.749398	-1.714740	-0.044704
H105	H	-0.694710	-1.612549	-0.047088
N106	N	-0.720470	-1.309159	0.360620
H107	H	-0.749494	-1.255545	0.414212
H108	H	-0.694776	-1.357710	0.416597
N109	N	-0.564340	-1.224439	0.445207
H110	H	-0.535335	-1.170804	0.498786
H111	H	-0.590027	-1.168511	0.396583
H112	H	-0.271332	-1.331487	0.338336
H113	H	-0.158995	-1.331476	0.338340
N114	N	0.000034	-0.791934	0.647300
H115	H	0.000022	-0.844464	0.721324
H116	H	0.036496	-0.736964	0.650868
