data_functionalizedCrystal
_audit_creation_method	'MofGen! by Chris Wilmer'
_symmetry_space_group_name_H-M	'P1'
_symmetry_Int_Tables_number	1
_symmetry_cell_setting	triclinic
loop_
_symmetry_equiv_pos_as_xyz
  x,y,z
_cell_length_a	12.827893
_cell_length_b	18.050590
_cell_length_c	12.827885
_cell_angle_alpha	89.965317
_cell_angle_beta	89.980728
_cell_angle_gamma	90.018523
loop_
_atom_site_label
_atom_site_type_symbol
_atom_site_fract_x
_atom_site_fract_y
_atom_site_fract_z
Zn1	Zn	1.597649	-0.295624	-0.590808
Zn2	Zn	2.097649	0.204376	-0.090808
Zn3	Zn	1.597532	-0.419832	-0.416053
Zn4	Zn	2.097532	0.080168	0.083947
Zn5	Zn	1.422889	-0.295660	-0.416082
Zn6	Zn	1.922889	0.204340	0.083918
Zn7	Zn	1.422866	-0.419777	-0.590754
Zn8	Zn	1.922866	0.080223	-0.090754
O9	O	1.510234	-0.357723	-0.503424
O10	O	2.010234	0.142277	-0.003424
O11	O	1.743869	-0.312108	-0.567637
O12	O	2.243869	0.187892	-0.067637
O13	O	1.574327	-0.403399	-0.269821
O14	O	2.074327	0.096601	0.230179
O15	O	1.446130	-0.191731	-0.439294
O16	O	1.946130	0.308269	0.060706
O17	O	1.743784	-0.403363	-0.439245
O18	O	2.243784	0.096637	0.060755
O19	O	1.574525	-0.191704	-0.567665
O20	O	2.074525	0.308296	-0.067665
O21	O	1.446018	-0.312170	-0.269842
O22	O	1.946018	0.187830	0.230158
O23	O	1.276650	-0.312117	-0.439242
O24	O	1.776650	0.187883	0.060758
O25	O	1.446090	-0.403269	-0.736997
O26	O	1.946090	0.096731	-0.236997
O27	O	1.276633	-0.403304	-0.567573
O28	O	1.776633	0.096696	-0.067573
O29	O	1.574502	-0.312055	-0.737037
O30	O	2.074502	0.187945	-0.237037
O31	O	1.574304	-0.523749	-0.439193
O32	O	2.074304	-0.023749	0.060807
O33	O	1.445977	-0.523709	-0.567545
O34	O	1.945977	-0.023709	-0.067545
C35	C	1.238724	-0.357709	-0.503405
C36	C	1.738724	0.142291	-0.003405
C37	C	1.122571	-0.357721	-0.503422
C38	C	1.622571	0.142279	-0.003422
C39	C	1.070744	-0.402807	-0.439805
C40	C	1.570744	0.097193	0.060195
C41	C	0.950694	-0.402820	-0.439821
C42	C	1.450694	0.097180	0.060179
C43	C	1.510154	-0.550675	-0.503383
C44	C	2.010154	-0.050675	-0.003383
C45	C	1.510215	-0.633221	-0.503400
C46	C	2.010215	-0.133221	-0.003400
C47	C	1.580144	-0.832667	-0.433699
C48	C	2.080144	-0.332667	0.066301
C49	C	1.605674	-0.881992	-0.529074
C50	C	2.105674	-0.381992	-0.029074
C51	C	1.510274	-0.784351	-0.503441
C52	C	2.010274	-0.284351	-0.003441
C53	C	1.484851	-0.882108	-0.408109
C54	C	1.984851	-0.382108	0.091891
C55	C	1.510334	-0.930337	-0.503473
C56	C	2.010334	-0.430337	-0.003473
C57	C	1.535853	-0.832589	-0.598866
C58	C	2.035853	-0.332589	-0.098866
C59	C	1.414985	-0.832701	-0.477837
C60	C	1.914985	-0.332701	0.022163
C61	C	1.440479	-0.882004	-0.573278
C62	C	1.940479	-0.382004	-0.073278
C63	C	1.510243	-0.700253	-0.503422
C64	C	2.010243	-0.200253	-0.003422
C65	C	1.510365	-1.014433	-0.503504
C66	C	2.010365	-0.514433	-0.003504
C67	C	1.782804	-0.357738	-0.503444
C68	C	2.282804	0.142262	-0.003444
C69	C	1.898957	-0.357744	-0.503452
C70	C	2.398957	0.142256	-0.003452
C71	C	1.510306	-0.357652	-0.775994
C72	C	2.010306	0.142348	-0.275994
C73	C	1.510337	-0.357622	-0.892148
C74	C	2.010337	0.142378	-0.392148
C75	C	1.510343	-0.164018	-0.503489
C76	C	2.010343	0.335982	-0.003489
C77	C	1.510390	-0.081472	-0.503516
C78	C	2.010390	0.418528	-0.003516
C79	C	1.573866	-0.402713	-1.063966
C80	C	2.073866	0.097287	-0.563966
C81	C	1.573835	-0.402746	-0.943916
C82	C	2.073835	0.097254	-0.443916
C83	C	1.510222	-0.357741	-0.231914
C84	C	2.010222	0.142259	0.268086
C85	C	1.510394	-0.357562	-0.115762
C86	C	2.010394	0.142438	0.384238
H87	H	1.078065	-0.319133	-0.557901
H88	H	1.578065	0.180867	-0.057901
H89	H	1.455998	-0.318960	-0.936684
H90	H	1.955998	0.181040	-0.436684
N91	N	1.129684	-0.453929	-0.367642
N92	N	1.629684	0.046071	0.132358
H93	H	1.207089	-0.446673	-0.377859
H94	H	1.707089	0.053327	0.122141
H95	H	1.110627	-0.442319	-0.293024
H96	H	1.610627	0.057681	0.206976
H97	H	0.906124	-0.441419	-0.385355
H98	H	1.406124	0.058581	0.114645
H99	H	1.334399	-0.811031	-0.456132
H100	H	1.834399	-0.311031	0.043868
H101	H	1.381418	-0.903530	-0.632338
H102	H	1.881418	-0.403530	-0.132338
H103	H	1.456029	-0.318932	-1.071229
H104	H	1.956029	0.181068	-0.571229
H105	H	0.943520	-0.319139	-0.557915
H106	H	1.443520	0.180861	-0.057915
H107	H	1.639251	-0.811003	-0.374782
H108	H	2.139251	-0.311003	0.125218
H109	H	1.463323	-0.903858	-0.327475
H110	H	1.963323	-0.403858	0.172525
H111	H	1.686284	-0.903646	-0.550751
H112	H	2.186284	-0.403646	-0.050751
H113	H	1.557301	-0.810931	-0.679570
H114	H	2.057301	-0.310931	-0.179570
N115	N	1.645868	-0.453898	-1.122942
N116	N	2.145868	0.046102	-0.622942
H117	H	1.635678	-0.446623	-1.200342
H118	H	2.135678	0.053377	-0.700342
H119	H	1.720523	-0.442365	-1.103933
H120	H	2.220523	0.057635	-0.603933
N121	N	1.645826	-0.453948	-0.884924
N122	N	2.145826	0.046052	-0.384924
H123	H	1.635570	-0.446732	-0.807527
H124	H	2.135570	0.053268	-0.307527
H125	H	1.629582	-0.506993	-0.903958
H126	H	2.129582	-0.006993	-0.403958
