data_functionalizedCrystal
_audit_creation_method	'MofGen! by Chris Wilmer'
_symmetry_space_group_name_H-M	'P1'
_symmetry_Int_Tables_number	1
_symmetry_cell_setting	triclinic
loop_
_symmetry_equiv_pos_as_xyz
  x,y,z
_cell_length_a	6.817900
_cell_length_b	9.582860
_cell_length_c	9.514088
_cell_angle_alpha	87.272217
_cell_angle_beta	118.843545
_cell_angle_gamma	111.206767
loop_
_atom_site_label
_atom_site_type_symbol
_atom_site_fract_x
_atom_site_fract_y
_atom_site_fract_z
V1	V	-4.257817	-0.209707	-0.500445
V2	V	-3.757817	0.290293	-0.000445
O3	O	-4.199949	0.007347	-0.491221
O4	O	-3.699949	0.507347	0.008779
O5	O	-4.247171	-0.413188	-0.496731
O6	O	-3.747171	0.086812	0.003269
O7	O	-4.292205	-0.207679	-0.718839
O8	O	-3.792205	0.292321	-0.218839
O9	O	-4.154602	-0.199584	-0.267576
O10	O	-3.654602	0.300416	0.232424
V11	V	-4.725826	-0.183603	-0.472627
V12	V	-4.225826	0.316397	0.027373
O13	O	-4.553108	-0.266968	-0.561465
O14	O	-4.053108	0.233032	-0.061465
O15	O	-4.880733	-0.126343	-0.411607
O16	O	-4.380733	0.373657	0.088393
O17	O	-4.513266	0.019878	-0.476341
O18	O	-4.013266	0.519878	0.023659
O19	O	-4.901091	-0.400658	-0.481851
O20	O	-4.401091	0.099342	0.018149
O21	O	-4.946438	-0.193726	-0.705497
O22	O	-4.446438	0.306274	-0.205497
O23	O	-4.468232	-0.185631	-0.254233
O24	O	-3.968232	0.314369	0.245767
C25	C	-4.098677	-0.462755	-0.488761
C26	C	-3.598677	0.037245	0.011239
C27	C	-4.171811	-0.629111	-0.487180
C28	C	-3.671811	-0.129111	0.012820
C29	C	-4.156121	-0.200606	-0.772080
C30	C	-3.656121	0.299394	-0.272080
C31	C	-4.265770	-0.200295	-0.950617
C32	C	-3.765770	0.299705	-0.450617
C33	C	-4.325101	0.069437	-0.484307
C34	C	-3.825101	0.569437	0.015693
C35	C	-4.231210	0.235792	-0.485898
C36	C	-3.731210	0.735792	0.014102
C37	C	-4.267656	-0.192709	-0.200984
C38	C	-3.767656	0.307291	0.299016
C39	C	-4.137243	-0.193013	-0.022446
C40	C	-3.637243	0.306987	0.477554
H41	H	-3.943329	-0.187032	-0.947358
H42	H	-3.443329	0.312968	-0.447358
H43	H	-4.459708	-0.206293	-1.025715
H44	H	-3.959708	0.293707	-0.525715
