data_functionalizedCrystal
_audit_creation_method	'MofGen! by Chris Wilmer'
_symmetry_space_group_name_H-M	'P1'
_symmetry_Int_Tables_number	1
_symmetry_cell_setting	triclinic
loop_
_symmetry_equiv_pos_as_xyz
  x,y,z
_cell_length_a	12.827893
_cell_length_b	14.908178
_cell_length_c	12.827885
_cell_angle_alpha	93.331370
_cell_angle_beta	90.019272
_cell_angle_gamma	93.313970
loop_
_atom_site_label
_atom_site_type_symbol
_atom_site_fract_x
_atom_site_fract_y
_atom_site_fract_z
Zn1	Zn	1.573645	-0.359146	0.566802
Zn2	Zn	1.563445	-0.510043	0.381959
Zn3	Zn	1.398883	-0.359190	0.392073
Zn4	Zn	1.388782	-0.509976	0.556664
O5	O	1.481189	-0.434588	0.474374
O6	O	1.718527	-0.379172	0.542293
O7	O	1.541574	-0.490078	0.237062
O8	O	1.430562	-0.232929	0.423727
O9	O	1.711033	-0.490036	0.406489
O10	O	1.558959	-0.232896	0.552100
O11	O	1.420672	-0.379247	0.244492
O12	O	1.251308	-0.379182	0.413896
O13	O	1.413346	-0.489921	0.704248
O14	O	1.243887	-0.489964	0.534820
O15	O	1.549164	-0.379107	0.711696
O16	O	1.531779	-0.636289	0.396659
O17	O	1.403455	-0.636240	0.525013
C18	C	1.209680	-0.434571	0.474356
C19	C	1.093526	-0.434585	0.474371
C20	C	1.038091	-0.489489	0.534105
C21	C	0.918039	-0.489505	0.534122
C22	C	1.465443	-0.669001	0.458661
C23	C	1.458802	-0.769284	0.451974
C24	C	1.579922	-0.957542	0.573225
C25	C	1.573686	-1.051766	0.566946
C26	C	1.440090	-1.051959	0.433140
C27	C	1.446326	-0.957734	0.439420
C28	C	1.516245	-0.910529	0.509464
C29	C	1.522485	-0.816303	0.515738
C30	C	1.388885	-0.816497	0.381938
C31	C	1.382649	-0.910722	0.375658
C32	C	1.753758	-0.434607	0.474394
C33	C	1.869910	-0.434614	0.474402
C34	C	1.481266	-0.434502	0.746951
C35	C	1.481298	-0.434465	0.863106
C36	C	1.497025	-0.199261	0.490172
C37	C	1.503773	-0.098978	0.496904
C38	C	1.481177	-0.434610	0.202863
C39	C	1.481363	-0.434392	0.086725
C40	C	1.548513	-0.379620	0.918578
C41	C	1.548549	-0.379580	1.038631
H42	H	1.052109	-0.387588	0.423248
Cl43	Cl	1.610385	-0.756960	0.603789
Cl44	Cl	1.637404	-0.307087	1.112254
H45	H	1.636860	-0.919107	0.630251
H46	H	1.325721	-0.949169	0.318633
H47	H	1.337038	-0.778209	0.330016
Cl48	Cl	1.653737	-1.110865	0.647109
H49	H	1.423773	-0.481385	0.904494
H50	H	1.606028	-0.332691	0.877190
H51	H	1.383160	-1.090409	0.376119
H52	H	0.870380	-0.536513	0.585258
H53	H	1.079508	-0.536479	0.585236
Cl54	Cl	0.943479	-0.362040	0.395433
H55	H	1.423819	-0.481353	1.039042
