data_functionalizedCrystal
_audit_creation_method	'MofGen! by Chris Wilmer'
_symmetry_space_group_name_H-M	'P1'
_symmetry_Int_Tables_number	1
_symmetry_cell_setting	triclinic
loop_
_symmetry_equiv_pos_as_xyz
  x,y,z
_cell_length_a	10.686220
_cell_length_b	19.121063
_cell_length_c	10.685314
_cell_angle_alpha	96.571402
_cell_angle_beta	98.357559
_cell_angle_gamma	96.652836
loop_
_atom_site_label
_atom_site_type_symbol
_atom_site_fract_x
_atom_site_fract_y
_atom_site_fract_z
Zn1	Zn	1.866746	-0.224825	-0.587630
Zn2	Zn	2.366746	0.275175	-0.087630
Zn3	Zn	1.873842	-0.333323	-0.384384
Zn4	Zn	2.373842	0.166677	0.115616
Zn5	Zn	1.670751	-0.224884	-0.391670
Zn6	Zn	2.170751	0.275116	0.108330
Zn7	Zn	1.643794	-0.352915	-0.614444
Zn8	Zn	2.143794	0.147085	-0.114444
O9	O	1.763783	-0.283987	-0.494532
O10	O	2.263783	0.216013	0.005468
O11	O	2.045988	-0.230994	-0.546398
O12	O	2.545988	0.269006	-0.046398
O13	O	1.861153	-0.310763	-0.207059
O14	O	2.361153	0.189237	0.292941
O15	O	1.705062	-0.125888	-0.409492
O16	O	2.205062	0.374112	0.090508
O17	O	2.051201	-0.310707	-0.397074
O18	O	2.551201	0.189293	0.102926
O19	O	1.849058	-0.125845	-0.553463
O20	O	2.349058	0.374155	-0.053463
O21	O	1.711943	-0.231094	-0.212412
O22	O	2.211943	0.268906	0.287588
O23	O	1.488874	-0.250091	-0.435493
O24	O	1.988874	0.249909	0.064507
O25	O	1.659117	-0.344098	-0.789179
O26	O	2.159117	0.155902	-0.289179
O27	O	1.469069	-0.344155	-0.599164
O28	O	1.969069	0.155845	-0.099164
O29	O	1.822919	-0.249992	-0.769478
O30	O	2.322919	0.250008	-0.269478
O31	O	1.835014	-0.434910	-0.423075
O32	O	2.335014	0.065090	0.076925
O33	O	1.665998	-0.449304	-0.592099
O34	O	2.165998	0.050696	-0.092099
C35	C	1.432740	-0.299256	-0.521030
C36	C	1.932740	0.200744	-0.021030
C37	C	1.291115	-0.305807	-0.532397
C38	C	1.791115	0.194193	-0.032397
C39	C	1.748383	-0.467773	-0.509731
C40	C	2.248383	0.032227	-0.009731
C41	C	1.741908	-0.546394	-0.516266
C42	C	2.241908	-0.046394	-0.016266
C43	C	1.826922	-0.575813	-0.431397
C44	C	2.326922	-0.075813	0.068603
C45	C	1.820839	-0.649687	-0.437550
C46	C	2.320839	-0.149687	0.062450
C47	C	1.729736	-0.694140	-0.528568
C48	C	2.229736	-0.194140	-0.028568
C49	C	1.644719	-0.664716	-0.613446
C50	C	2.144719	-0.164716	-0.113446
C51	C	1.650808	-0.590844	-0.607298
C52	C	2.150808	-0.090844	-0.107298
C53	C	1.706950	-0.917562	-0.551537
C54	C	2.206950	-0.417562	-0.051537
C55	C	1.700864	-0.991439	-0.557677
C56	C	2.200864	-0.491439	-0.057677
C57	C	1.876987	-0.976404	-0.381782
C58	C	2.376987	-0.476404	0.118218
C59	C	1.883063	-0.902531	-0.375637
C60	C	2.383063	-0.402531	0.124363
C61	C	1.798050	-0.873114	-0.460519
C62	C	2.298050	-0.373114	0.039481
C63	C	1.723514	-0.769650	-0.534857
C64	C	2.223514	-0.269650	-0.034857
C65	C	1.804279	-0.797605	-0.454235
C66	C	2.304279	-0.297605	0.045765
C67	C	2.096119	-0.268658	-0.467932
C68	C	2.596119	0.231342	0.032068
C69	C	2.237740	-0.262126	-0.456597
C70	C	2.737740	0.237874	0.043403
C71	C	1.737219	-0.299224	-0.826850
C72	C	2.237219	0.200776	-0.326850
C73	C	1.725899	-0.305717	-0.968464
C74	C	2.225899	0.194283	-0.468464
C75	C	1.779276	-0.099482	-0.479299
C76	C	2.279276	0.400518	0.020701
C77	C	1.785877	-0.020858	-0.472808
C78	C	2.285877	0.479142	0.027192
C79	C	1.790321	-0.268754	-0.163497
C80	C	2.290321	0.231246	0.336503
C81	C	1.801904	-0.262050	-0.021848
C82	C	2.301904	0.237950	0.478152
H83	H	1.228457	-0.348221	-0.605987
H84	H	1.728457	0.151779	-0.105987
Cl85	Cl	1.612057	-0.371113	-1.065169
Cl86	Cl	2.112057	0.128887	-0.565169
H87	H	1.300392	-0.219719	-0.383003
H88	H	1.800392	0.280281	0.116997
H89	H	1.901102	-0.539623	-0.357276
H90	H	2.401102	-0.039623	0.142724
Cl91	Cl	1.530195	-0.720600	-0.727876
Cl92	Cl	2.030195	-0.220600	-0.227876
H93	H	1.637727	-0.893617	-0.620650
H94	H	2.137727	-0.393617	-0.120650
H95	H	1.946201	-1.000364	-0.312677
H96	H	2.446201	-0.500364	0.187323
H97	H	1.890065	-0.673635	-0.368440
H98	H	2.390065	-0.173635	0.131560
H99	H	1.875624	-0.219692	-0.959213
H100	H	2.375624	0.280308	-0.459213
H101	H	1.957246	-0.866338	-0.301523
H102	H	2.457246	-0.366338	0.198477
H103	H	1.649335	-0.805852	-0.608962
H104	H	2.149335	-0.305852	-0.108962
Cl105	Cl	1.586311	-1.047323	-0.672093
Cl106	Cl	2.086311	-0.547323	-0.172093
H107	H	1.878460	-0.761409	-0.380132
H108	H	2.378460	-0.261409	0.119868
Cl109	Cl	1.543933	-0.553860	-0.713999
Cl110	Cl	2.043933	-0.053860	-0.213999
