data_functionalizedCrystal
_audit_creation_method	'MofGen! by Chris Wilmer'
_symmetry_space_group_name_H-M	'P1'
_symmetry_Int_Tables_number	1
_symmetry_cell_setting	triclinic
loop_
_symmetry_equiv_pos_as_xyz
  x,y,z
_cell_length_a	17.038272
_cell_length_b	17.666332
_cell_length_c	17.038272
_cell_angle_alpha	89.993620
_cell_angle_beta	88.888444
_cell_angle_gamma	90.003567
loop_
_atom_site_label
_atom_site_type_symbol
_atom_site_fract_x
_atom_site_fract_y
_atom_site_fract_z
O1	O	1.048760	0.062854	-0.170538
O2	O	1.548760	0.562854	0.329462
O3	O	0.820948	0.062877	-0.167831
O4	O	1.320948	0.562877	0.332169
O5	O	0.933500	0.062860	-0.055279
O6	O	1.433500	0.562860	0.444721
O7	O	0.936208	0.062871	-0.283090
O8	O	1.436208	0.562871	0.216910
O9	O	0.933479	-0.063037	-0.055271
O10	O	1.433479	0.436963	0.444729
O11	O	0.820927	-0.063020	-0.167823
O12	O	1.320927	0.436980	0.332177
O13	O	1.048738	-0.063042	-0.170531
O14	O	1.548738	0.436958	0.329469
Cu15	Cu	0.934831	-0.074527	-0.169176
Cu16	Cu	1.434831	0.425473	0.330824
Cu17	Cu	0.934856	0.074361	-0.169185
Cu18	Cu	1.434856	0.574361	0.330815
O19	O	0.936187	-0.063025	-0.283082
O20	O	1.436187	0.436975	0.216918
C21	C	0.791645	-0.000069	-0.165364
C22	C	1.291645	0.499931	0.334636
C23	C	0.704361	-0.000061	-0.158016
C24	C	1.204361	0.499939	0.341984
N25	N	0.934818	-0.179246	-0.169169
N26	N	1.434818	0.320754	0.330831
C27	C	0.658752	-0.000058	-0.225479
C28	C	1.158752	0.499942	0.274521
C29	C	0.576740	-0.000069	-0.218570
C30	C	1.076740	0.499931	0.281430
C31	C	0.540339	-0.000077	-0.144197
C32	C	1.040339	0.499923	0.355803
C33	C	0.585954	-0.000082	-0.076728
C34	C	1.085954	0.499918	0.423272
C35	C	0.667965	-0.000077	-0.083638
C36	C	1.167965	0.499923	0.416362
C37	C	0.292951	-0.000098	-0.119787
C38	C	0.792951	0.499902	0.380213
C39	C	0.210935	-0.000101	-0.112882
C40	C	0.710935	0.499899	0.387118
C41	C	0.201726	-0.000089	-0.254725
C42	C	0.701726	0.499911	0.245275
C43	C	0.283739	-0.000080	-0.261628
C44	C	0.783739	0.499920	0.238372
C45	C	0.329347	-0.000089	-0.194159
C46	C	0.829347	0.499911	0.305841
C47	C	0.456510	-0.000086	-0.137133
C48	C	0.956510	0.499914	0.362867
C49	C	0.413174	-0.000085	-0.201224
C50	C	0.913174	0.499915	0.298776
C51	C	0.984675	-0.218863	-0.119359
C52	C	1.484675	0.281137	0.380641
C53	C	0.984680	-0.298111	-0.119355
C54	C	1.484680	0.201889	0.380645
C55	C	0.934835	-0.337738	-0.169176
C56	C	1.434835	0.162262	0.330824
C57	C	0.884969	-0.298111	-0.218990
C58	C	1.384969	0.201889	0.281010
C59	C	0.884960	-0.218865	-0.218987
C60	C	1.384960	0.281135	0.281013
N61	N	0.929461	-0.462153	-0.238001
N62	N	1.429461	0.037847	0.261999
N63	N	0.929474	-0.537433	-0.238002
N64	N	1.429474	-0.037433	0.261998
C65	C	0.934857	-0.576502	-0.169189
C66	C	1.434857	-0.076502	0.330811
N67	N	0.940242	-0.537447	-0.100373
N68	N	1.440242	-0.037447	0.399627
N69	N	0.940234	-0.462160	-0.100373
N70	N	1.440234	0.037840	0.399627
C71	C	0.934839	-0.423667	-0.169185
C72	C	1.434839	0.076333	0.330815
C73	C	0.984721	-0.702049	-0.119370
C74	C	1.484721	-0.202049	0.380630
C75	C	0.984720	-0.781298	-0.119365
C76	C	1.484720	-0.281298	0.380635
C77	C	0.885013	-0.781297	-0.219008
C78	C	1.385013	-0.281297	0.280992
C79	C	0.885010	-0.702049	-0.219005
C80	C	1.385010	-0.202049	0.280995
C81	C	0.934868	-0.662430	-0.169188
C82	C	1.434868	-0.162430	0.330812
C83	C	1.078042	-0.000095	-0.172997
C84	C	1.578042	0.499905	0.327003
C85	C	1.165326	-0.000099	-0.180346
C86	C	1.665326	0.499901	0.319654
C87	C	0.931027	-0.000088	-0.025982
C88	C	1.431027	0.499912	0.474018
C89	C	0.923679	-0.000088	0.061301
C90	C	1.423679	0.499912	0.561301
N91	N	0.934874	0.179080	-0.169186
N92	N	1.434874	0.679080	0.330814
C93	C	0.938660	-0.000076	-0.312379
C94	C	1.438660	0.499924	0.187621
C95	C	0.946008	-0.000072	-0.399663
C96	C	1.446008	0.499928	0.100337
C97	C	0.991142	-0.000095	0.106911
C98	C	1.491142	0.499905	0.606911
C99	C	0.984233	-0.000087	0.188923
C100	C	1.484233	0.499913	0.688923
C101	C	0.909860	-0.000077	0.225324
C102	C	1.409860	0.499923	0.725324
C103	C	0.842391	-0.000068	0.179708
C104	C	1.342391	0.499932	0.679708
C105	C	0.849301	-0.000070	0.097698
C106	C	1.349301	0.499930	0.597698
C107	C	0.885449	-0.000065	0.472712
C108	C	1.385449	0.499935	0.972712
C109	C	0.878545	-0.000064	0.554728
C110	C	1.378545	0.499936	1.054728
C111	C	1.020387	-0.000082	0.563937
C112	C	1.520387	0.499918	1.063937
C113	C	1.027291	-0.000089	0.481924
C114	C	1.527291	0.499911	0.981924
C115	C	0.959822	-0.000076	0.436316
C116	C	1.459822	0.499924	0.936316
C117	C	0.902796	-0.000072	0.309153
C118	C	1.402796	0.499928	0.809153
C119	C	0.966886	-0.000076	0.352488
C120	C	1.466886	0.499924	0.852488
H121	H	0.539608	-0.000065	-0.273507
H122	H	1.039608	0.499935	0.226493
C123	C	1.029075	-0.580568	-0.075216
C124	C	1.529075	-0.080568	0.424784
C125	C	1.039577	-0.658492	-0.064667
C126	C	1.539577	-0.158492	0.435333
H127	H	1.062963	-0.553681	-0.041465
H128	H	1.562963	-0.053681	0.458535
H129	H	0.976122	-0.567562	-0.063113
H130	H	1.476122	-0.067562	0.436887
H131	H	1.041033	-0.567612	-0.128223
H132	H	1.541033	-0.067612	0.371777
H133	H	1.027614	-0.671449	-0.011660
H134	H	1.527614	-0.171449	0.488340
H135	H	1.092542	-0.671503	-0.076765
H136	H	1.592542	-0.171503	0.423235
C137	C	1.081196	-0.064827	0.020044
C138	C	1.581196	0.435173	0.520044
C139	C	1.072898	-0.000106	0.066905
C140	C	1.572898	0.499894	0.566905
H141	H	1.131672	-0.064833	-0.004648
H142	H	1.631672	0.435167	0.495352
H143	H	1.042013	-0.064820	-0.018857
H144	H	1.542013	0.435180	0.481143
H145	H	1.075543	-0.108724	0.051860
H146	H	1.575543	0.391276	0.551860
H147	H	1.078545	0.043791	0.035087
H148	H	1.578545	0.543791	0.535087
H149	H	1.112091	-0.000107	0.105810
H150	H	1.612091	0.499893	0.605810
H151	H	0.688384	-0.000051	-0.286042
H152	H	1.188384	0.499949	0.213958
H153	H	0.426863	-0.000114	-0.076578
H154	H	0.926863	0.499886	0.423422
C155	C	0.788510	0.064666	0.641619
C156	C	1.288510	0.564666	1.141619
C157	C	0.796790	-0.000051	0.594748
C158	C	1.296790	0.499949	1.094748
H159	H	0.738044	0.064669	0.666330
H160	H	1.238044	0.564669	1.166330
H161	H	0.794156	0.108561	0.609813
H162	H	1.294156	0.608561	1.109813
H163	H	0.827711	0.064649	0.680512
H164	H	1.327711	0.564649	1.180512
H165	H	0.757593	-0.000031	0.555851
H166	H	1.257593	0.499969	1.055851
H167	H	0.791137	-0.043957	0.626556
H168	H	1.291137	0.456043	1.126556
H169	H	0.842241	-0.000065	0.338800
H170	H	1.342241	0.499935	0.838800
H171	H	1.025317	-0.813555	-0.078799
H172	H	1.525317	-0.313555	0.421201
H173	H	1.025271	-0.186608	-0.078792
H174	H	1.525271	0.313392	0.421208
H175	H	0.844426	-0.813561	-0.259570
H176	H	1.344426	-0.313561	0.240430
C177	C	1.083240	-0.290160	-0.020868
C178	C	1.583240	0.209840	0.479132
C179	C	1.039484	-0.341671	-0.064597
C180	C	1.539484	0.158329	0.435403
H181	H	1.117074	-0.317052	0.012935
H182	H	1.617074	0.182948	0.512935
H183	H	1.048672	-0.259262	0.009576
H184	H	1.548672	0.240738	0.509576
H185	H	1.113659	-0.259241	-0.055460
H186	H	1.613659	0.240759	0.444540
H187	H	1.009060	-0.372586	-0.030005
H188	H	1.509060	0.127414	0.469995
H189	H	1.074056	-0.372582	-0.095043
H190	H	1.574056	0.127418	0.404957
H191	H	0.844383	-0.330380	-0.259554
H192	H	1.344383	0.169620	0.240446
H193	H	0.313370	-0.000064	-0.322190
H194	H	0.813370	0.499936	0.177810
H195	H	0.442816	-0.000083	-0.261778
H196	H	0.942816	0.499917	0.238222
H197	H	0.844360	-0.186608	-0.259549
H198	H	1.344360	0.313392	0.240451
C199	C	0.708403	-0.000058	0.096828
C200	C	1.208403	0.499942	0.596828
C201	C	0.775143	-0.000064	0.047561
C202	C	1.275143	0.499936	0.547561
H203	H	0.662621	-0.000056	0.065874
H204	H	1.162621	0.499944	0.565874
H205	H	0.708667	0.043842	0.129000
H206	H	1.208667	0.543842	0.629000
H207	H	0.708654	-0.043964	0.129013
H208	H	1.208654	0.456036	0.629013
H209	H	0.774895	0.043846	0.015380
H210	H	1.274895	0.543846	0.515380
H211	H	0.774878	-0.043968	0.015375
H212	H	1.274878	0.456032	0.515375
C213	C	0.797772	-0.000078	-0.031250
C214	C	1.297772	0.499922	0.468750
C215	C	0.718103	-0.000079	-0.009481
C216	C	1.218103	0.499921	0.490519
H217	H	0.828723	-0.000087	0.014534
H218	H	1.328723	0.499913	0.514534
H219	H	0.809317	0.043826	-0.061516
H220	H	1.309317	0.543826	0.438484
H221	H	0.809309	-0.043981	-0.061522
H222	H	1.309309	0.456019	0.438478
H223	H	0.706565	0.043826	0.020787
H224	H	1.206565	0.543826	0.520787
H225	H	0.706554	-0.043988	0.020798
H226	H	1.206554	0.456012	0.520798
H227	H	0.844415	-0.669791	-0.259569
H228	H	1.344415	-0.169791	0.240431
H229	H	1.039170	-0.000095	0.226054
H230	H	1.539170	0.499905	0.726054
H231	H	1.087853	-0.000097	0.452293
H232	H	1.587853	0.499903	0.952293
H233	H	1.075316	-0.000092	0.601079
H234	H	1.575316	0.499908	1.101079
C235	C	0.293804	-0.000105	0.021110
C236	C	0.793804	0.499895	0.521110
C237	C	0.343077	-0.000102	-0.045625
C238	C	0.843077	0.499898	0.454375
H239	H	0.324754	-0.000103	0.066895
H240	H	0.824754	0.499897	0.566895
H241	H	0.261625	-0.044006	0.020855
H242	H	0.761625	0.455994	0.520855
H243	H	0.261626	0.043800	0.020845
H244	H	0.761626	0.543800	0.520845
H245	H	0.375251	-0.044011	-0.045363
H246	H	0.875251	0.455989	0.454637
H247	H	0.375269	0.043803	-0.045369
H248	H	0.875269	0.543803	0.454631
C249	C	0.104152	0.064626	-0.329244
C250	C	0.604152	0.564626	0.170756
C251	C	0.151590	-0.000088	-0.328882
C252	C	0.651590	0.499912	0.171118
H253	H	0.073197	0.064621	-0.375026
H254	H	0.573197	0.564621	0.124974
H255	H	0.136336	0.108523	-0.328999
H256	H	0.636336	0.608523	0.171001
H257	H	0.070740	0.064614	-0.283958
H258	H	0.570740	0.564614	0.216042
H259	H	0.185006	-0.000073	-0.374165
H260	H	0.685006	0.499927	0.125835
H261	H	0.119403	-0.043996	-0.329135
H262	H	0.619403	0.456004	0.170865
C263	C	0.744553	-0.000064	0.471859
C264	C	1.244553	0.499936	0.971859
C265	C	0.811288	-0.000064	0.422586
C266	C	1.311288	0.499936	0.922586
H267	H	0.698767	-0.000071	0.440909
H268	H	1.198767	0.499929	0.940909
H269	H	0.744813	0.043838	0.504028
H270	H	1.244813	0.543838	1.004028
H271	H	0.744813	-0.043969	0.504047
H272	H	1.244813	0.456031	1.004047
H273	H	0.811031	0.043843	0.390402
H274	H	1.311031	0.543843	0.890402
H275	H	0.811027	-0.043971	0.390404
H276	H	1.311027	0.456029	0.890404
C277	C	0.768818	-0.000065	0.301334
C278	C	1.268818	0.499935	0.801334
C279	C	0.760638	-0.000060	0.219719
C280	C	1.260638	0.499940	0.719719
H281	H	0.718345	-0.000067	0.326031
H282	H	1.218345	0.499933	0.826031
H283	H	0.796826	0.043833	0.316658
H284	H	1.296826	0.543833	0.816658
H285	H	0.796820	-0.043973	0.316663
H286	H	1.296820	0.456027	0.816663
H287	H	0.732641	0.043852	0.204389
H288	H	1.232641	0.543852	0.704389
H289	H	0.732618	-0.043962	0.204388
H290	H	1.232618	0.456038	0.704388
H291	H	0.181300	-0.000107	-0.052315
H292	H	0.681300	0.499893	0.447685
C293	C	1.106400	-0.000089	0.369827
C294	C	1.606400	0.499911	0.869827
C295	C	1.048637	-0.000083	0.312480
C296	C	1.548637	0.499917	0.812480
H297	H	1.156869	-0.000090	0.345120
H298	H	1.656869	0.499910	0.845120
H299	H	1.100751	-0.043990	0.401625
H300	H	1.600751	0.456010	0.901625
H301	H	1.100762	0.043817	0.401620
H302	H	1.600762	0.543817	0.901620
H303	H	1.054272	-0.043992	0.280690
H304	H	1.554272	0.456008	0.780690
H305	H	1.054289	0.043822	0.280668
H306	H	1.554289	0.543822	0.780668
C307	C	0.464329	-0.000088	-0.003155
C308	C	0.964329	0.499912	0.496845
C309	C	0.545944	-0.000090	0.005025
C310	C	1.045944	0.499910	0.505025
H311	H	0.439631	-0.000087	0.047318
H312	H	0.939631	0.499913	0.547318
H313	H	0.448999	-0.043987	-0.031154
H314	H	0.948999	0.456013	0.468846
H315	H	0.449006	0.043819	-0.031166
H316	H	0.949006	0.543819	0.468834
H317	H	0.561268	-0.044000	0.033031
H318	H	1.061268	0.456000	0.533031
H319	H	0.561280	0.043814	0.033036
H320	H	1.061280	0.543814	0.533036
