data_functionalizedCrystal
_audit_creation_method	'MofGen! by Chris Wilmer'
_symmetry_space_group_name_H-M	'P1'
_symmetry_Int_Tables_number	1
_symmetry_cell_setting	triclinic
loop_
_symmetry_equiv_pos_as_xyz
  x,y,z
_cell_length_a	16.120566
_cell_length_b	16.120484
_cell_length_c	16.120297
_cell_angle_alpha	95.614431
_cell_angle_beta	90.125018
_cell_angle_gamma	90.168070
loop_
_atom_site_label
_atom_site_type_symbol
_atom_site_fract_x
_atom_site_fract_y
_atom_site_fract_z
Zn1	Zn	-1.224984	0.422255	0.554879
Zn2	Zn	-0.724984	0.922255	1.054879
Zn3	Zn	-1.224880	0.554939	0.422184
Zn4	Zn	-0.724880	1.054939	0.922184
Zn5	Zn	-1.093724	0.408172	0.408115
Zn6	Zn	-0.593724	0.908172	0.908115
Zn7	Zn	-1.078877	0.554173	0.554109
Zn8	Zn	-0.578877	1.054173	1.054109
O9	O	-1.155616	0.484885	0.484822
O10	O	-0.655616	0.984885	0.984822
O11	O	-1.341006	0.446070	0.543487
O12	O	-0.841006	0.946070	1.043487
O13	O	-1.213651	0.529897	0.303685
O14	O	-0.713651	1.029897	0.803685
O15	O	-1.117393	0.293409	0.422018
O16	O	-0.617393	0.793409	0.922018
O17	O	-1.340929	0.543553	0.445997
O18	O	-0.840929	1.043553	0.945997
O19	O	-1.213829	0.303756	0.529845
O20	O	-0.713829	0.803756	1.029845
O21	O	-1.117292	0.422067	0.293349
O22	O	-0.617292	0.922067	0.793349
O23	O	-0.975719	0.421324	0.421271
O24	O	-0.475719	0.921324	0.921271
O25	O	-1.092089	0.542247	0.670843
O26	O	-0.592089	1.042247	1.170843
O27	O	-0.964811	0.528591	0.528532
O28	O	-0.464811	1.028591	1.028532
O29	O	-1.199433	0.445327	0.671409
O30	O	-0.699433	0.945327	1.171409
O31	O	-1.199255	0.671468	0.445250
O32	O	-0.699255	1.171468	0.945250
O33	O	-1.091988	0.670905	0.542174
O34	O	-0.591988	1.170905	1.042174
C35	C	-0.940178	0.473347	0.473291
C36	C	-0.440178	0.973347	0.973291
C37	C	-0.848011	0.468432	0.468379
C38	C	-0.348011	0.968432	0.968379
C39	C	-1.144021	0.701429	0.495174
C40	C	-0.644021	1.201429	0.995174
C41	C	-1.139134	0.794074	0.499635
C42	C	-0.639134	1.294074	0.999635
C43	C	-0.679260	0.459439	0.459418
C44	C	-0.179260	0.959439	0.959418
C45	C	-0.632809	0.510402	0.510236
C46	C	-0.132809	1.010402	1.010236
C47	C	-0.538910	0.505398	0.505249
C48	C	-0.038910	1.005398	1.005249
C49	C	-0.773167	0.464442	0.464403
C50	C	-0.273167	0.964442	0.964403
C51	C	-0.371896	0.496470	0.496384
C52	C	0.128104	0.996470	0.996384
C53	C	-0.464063	0.501412	0.501277
C54	C	0.035937	1.001412	1.001277
C55	C	-1.167279	0.267496	0.474448
C56	C	-0.667279	0.767496	0.974448
C57	C	-1.172249	0.174858	0.470027
C58	C	-0.672249	0.674858	0.970027
C59	C	-1.144117	0.495272	0.702213
C60	C	-0.644117	0.995272	1.202213
C61	C	-1.139216	0.499699	0.794853
C62	C	-0.639216	0.999699	1.294853
C63	C	-1.130217	0.963697	0.507797
C64	C	-0.630217	1.463697	1.007797
C65	C	-1.181163	1.005240	0.461868
C66	C	-0.681163	1.505240	0.961868
C67	C	-1.176202	1.099624	0.466409
C68	C	-0.676202	1.599624	0.966409
C69	C	-1.135178	0.869304	0.503257
C70	C	-0.635178	1.369304	1.003257
C71	C	-1.167122	0.474480	0.268275
C72	C	-0.667122	0.974480	0.768275
C73	C	-1.172196	0.469827	0.175634
C74	C	-0.672196	0.969827	0.675634
C75	C	-1.130240	0.507761	0.964463
C76	C	-0.630240	1.007761	1.464463
C77	C	-1.181169	0.461767	1.006028
C78	C	-0.681169	0.961767	1.506028
C79	C	-1.176175	0.466253	1.100406
C80	C	-0.676175	0.966253	1.600406
C81	C	-1.135233	0.503276	0.870078
C82	C	-0.635233	1.003276	1.370078
H83	H	-0.663561	0.557789	0.557488
H84	H	-0.163561	1.057789	1.057488
H85	H	-0.648509	0.412055	0.412169
H86	H	-0.148509	0.912055	0.912169
H87	H	-1.228521	0.419021	0.970734
H88	H	-0.728521	0.919021	1.470734
F89	F	-1.068353	0.563631	1.010593
F90	F	-0.568353	1.063631	1.510593
H91	H	-1.228505	0.969921	0.419135
H92	H	-0.728505	1.469921	0.919135
H93	H	-1.082878	0.999013	0.550525
H94	H	-0.582878	1.499013	1.050525
