data_functionalizedCrystal
_audit_creation_method	'MofGen! by Chris Wilmer'
_symmetry_space_group_name_H-M	'P1'
_symmetry_Int_Tables_number	1
_symmetry_cell_setting	triclinic
loop_
_symmetry_equiv_pos_as_xyz
  x,y,z
_cell_length_a	12.827893
_cell_length_b	14.908520
_cell_length_c	12.827885
_cell_angle_alpha	93.263516
_cell_angle_beta	89.980728
_cell_angle_gamma	93.320575
loop_
_atom_site_label
_atom_site_type_symbol
_atom_site_fract_x
_atom_site_fract_y
_atom_site_fract_z
Zn1	Zn	1.573615	-0.359115	-0.614817
Zn2	Zn	2.073615	0.140885	-0.114817
Zn3	Zn	1.563402	-0.509998	-0.450147
Zn4	Zn	2.063402	-0.009998	0.049853
Zn5	Zn	1.398853	-0.359159	-0.440093
Zn6	Zn	1.898853	0.140841	0.059907
Zn7	Zn	1.388739	-0.509931	-0.624843
Zn8	Zn	1.888739	-0.009931	-0.124843
O9	O	1.481152	-0.434551	-0.532475
O10	O	1.981152	0.065449	-0.032475
O11	O	1.718495	-0.379139	-0.592984
O12	O	2.218495	0.120861	-0.092984
O13	O	1.541533	-0.490036	-0.302580
O14	O	2.041533	0.009964	0.197420
O15	O	1.430542	-0.232908	-0.454867
O16	O	1.930542	0.267092	0.045133
O17	O	1.710992	-0.489993	-0.472002
O18	O	2.210992	0.010007	0.027998
O19	O	1.558939	-0.232876	-0.583236
O20	O	2.058939	0.267124	-0.083236
O21	O	1.420640	-0.379214	-0.295194
O22	O	1.920640	0.120786	0.204806
O23	O	1.251276	-0.379149	-0.464589
O24	O	1.751276	0.120851	0.035411
O25	O	1.413304	-0.489879	-0.769746
O26	O	1.913304	0.010121	-0.269746
O27	O	1.243845	-0.489921	-0.600323
O28	O	1.743845	0.010079	-0.100323
O29	O	1.549132	-0.379074	-0.762380
O30	O	2.049132	0.120926	-0.262380
O31	O	1.531726	-0.636234	-0.481724
O32	O	2.031726	-0.136234	0.018276
O33	O	1.403401	-0.636184	-0.610072
O34	O	1.903401	-0.136184	-0.110072
C35	C	1.209643	-0.434533	-0.532454
C36	C	1.709643	0.065467	-0.032454
C37	C	1.093489	-0.434548	-0.532471
C38	C	1.593489	0.065452	-0.032471
C39	C	1.038049	-0.489447	-0.599545
C40	C	1.538049	0.010553	-0.099545
C41	C	0.917998	-0.489463	-0.599564
C42	C	1.417998	0.010537	-0.099564
C43	C	1.465386	-0.668943	-0.548100
C44	C	1.965386	-0.168943	-0.048100
C45	C	1.458737	-0.769217	-0.554820
C46	C	1.958737	-0.269217	-0.054820
C47	C	1.580004	-0.957632	-0.433905
C48	C	2.080004	-0.457632	0.066095
C49	C	1.573760	-1.051849	-0.440215
C50	C	2.073760	-0.551849	0.059785
C51	C	1.440011	-1.051867	-0.573755
C52	C	1.940011	-0.551867	-0.073755
C53	C	1.446255	-0.957651	-0.567444
C54	C	1.946255	-0.457651	-0.067444
C55	C	1.516253	-0.910537	-0.497516
C56	C	2.016253	-0.410537	0.002484
C57	C	1.522491	-0.816319	-0.491201
C58	C	2.022491	-0.316319	0.008799
C59	C	1.388748	-0.816339	-0.624745
C60	C	1.888748	-0.316339	-0.124745
C61	C	1.382504	-0.910555	-0.631056
C62	C	1.882504	-0.410555	-0.131056
C63	C	1.753721	-0.434569	-0.532497
C64	C	2.253721	0.065431	-0.032497
C65	C	1.869874	-0.434576	-0.532506
C66	C	2.369874	0.065424	-0.032506
C67	C	1.481229	-0.434464	-0.805039
C68	C	1.981229	0.065536	-0.305039
C69	C	1.481262	-0.434427	-0.921190
C70	C	1.981262	0.065573	-0.421190
C71	C	1.497008	-0.199243	-0.516811
C72	C	1.997008	0.300757	-0.016811
C73	C	1.503765	-0.098969	-0.510137
C74	C	2.003765	0.401031	-0.010137
C75	C	1.548481	-0.379587	-0.969329
C76	C	2.048481	0.120413	-0.469329
C77	C	1.548517	-0.379547	-1.089377
C78	C	2.048517	0.120453	-0.589377
C79	C	1.481140	-0.434572	-0.260966
C80	C	1.981140	0.065428	0.239034
C81	C	1.481327	-0.434355	-0.144799
C82	C	1.981327	0.065645	0.355201
H83	H	0.917530	-0.387576	-0.475075
H84	H	1.417530	0.112424	0.024925
Cl85	Cl	1.637378	-0.307060	-1.153309
Cl86	Cl	2.137378	0.192940	-0.653309
H87	H	1.052076	-0.387555	-0.475065
H88	H	1.552076	0.112445	0.024935
Cl89	Cl	1.392441	-0.506869	-0.994766
Cl90	Cl	1.892441	-0.006869	-0.494766
Cl91	Cl	1.653910	-1.111052	-0.360246
Cl92	Cl	2.153910	-0.611052	0.139754
H93	H	1.079463	-0.536433	-0.656958
H94	H	1.579463	-0.036433	-0.156958
H95	H	0.870335	-0.536467	-0.656985
H96	H	1.370335	-0.036467	-0.156985
Cl97	Cl	1.610482	-0.757091	-0.403289
Cl98	Cl	2.110482	-0.257091	0.096711
H99	H	1.636991	-0.919271	-0.376960
H100	H	2.136991	-0.419271	0.123040
H101	H	1.383030	-1.090244	-0.630693
H102	H	1.883030	-0.590244	-0.130693
H103	H	1.325517	-0.948929	-0.687992
H104	H	1.825517	-0.448929	-0.187992
Cl105	Cl	1.308585	-0.757128	-0.704705
Cl106	Cl	1.808585	-0.257128	-0.204705
Cl107	Cl	1.637272	-0.307117	-0.895751
Cl108	Cl	2.137272	0.192883	-0.395751
Cl109	Cl	1.392473	-0.506855	-1.080875
Cl110	Cl	1.892473	-0.006855	-0.580875
