data_functionalizedCrystal
_audit_creation_method	'MofGen! by Chris Wilmer'
_symmetry_space_group_name_H-M	'P1'
_symmetry_Int_Tables_number	1
_symmetry_cell_setting	triclinic
loop_
_symmetry_equiv_pos_as_xyz
  x,y,z
_cell_length_a	17.699083
_cell_length_b	17.699083
_cell_length_c	8.965430
_cell_angle_alpha	89.991253
_cell_angle_beta	90.002817
_cell_angle_gamma	83.283015
loop_
_atom_site_label
_atom_site_type_symbol
_atom_site_fract_x
_atom_site_fract_y
_atom_site_fract_z
O1	O	-1.004074	-0.095715	0.123833
O2	O	-0.504074	0.404285	0.623833
O3	O	-0.783696	-0.108167	0.123882
O4	O	-0.283696	0.391833	0.623882
O5	O	-0.900111	0.008248	0.123843
O6	O	-0.400111	0.508248	0.623843
O7	O	-0.887659	-0.212130	0.123872
O8	O	-0.387659	0.287870	0.623872
O9	O	-0.900105	0.008259	-0.124236
O10	O	-0.400105	0.508259	0.375764
O11	O	-0.783689	-0.108156	-0.124196
O12	O	-0.283689	0.391844	0.375804
O13	O	-1.004068	-0.095704	-0.124246
O14	O	-0.504068	0.404296	0.375754
Cu15	Cu	-0.893878	-0.101929	-0.146873
Cu16	Cu	-0.393878	0.398071	0.353127
Cu17	Cu	-0.893885	-0.101942	0.146509
Cu18	Cu	-0.393885	0.398058	0.646509
O19	O	-0.887652	-0.212119	-0.124207
O20	O	-0.387652	0.287881	0.375793
C21	C	-0.755495	-0.107716	-0.000151
C22	C	-0.255495	0.392284	0.499849
C23	C	-0.671477	-0.106377	-0.000132
C24	C	-0.171477	0.393623	0.499868
C25	C	-0.899662	0.036451	-0.000196
C26	C	-0.399662	0.536451	0.499804
C27	C	-0.898323	0.120469	-0.000197
C28	C	-0.398323	0.620469	0.499803
C29	C	-1.032268	-0.096156	-0.000209
C30	C	-0.532268	0.403844	0.499791
C31	C	-1.116286	-0.097494	-0.000218
C32	C	-0.616286	0.402506	0.499782
C33	C	-0.888102	-0.240322	-0.000164
C34	C	-0.388102	0.259678	0.499836
C35	C	-0.889440	-0.324340	-0.000154
C36	C	-0.389440	0.175660	0.499846
C37	C	-0.622856	-0.174710	-0.000124
C38	C	-0.122856	0.325290	0.499876
C39	C	-0.543913	-0.173448	-0.000143
C40	C	-0.043913	0.326552	0.499857
C41	C	-0.513592	-0.103852	-0.000161
C42	C	-0.013592	0.396148	0.499839
C43	C	-0.562219	-0.035513	-0.000174
C44	C	-0.062219	0.464487	0.499826
C45	C	-0.641161	-0.036776	-0.000165
C46	C	-0.141161	0.463224	0.499835
C47	C	-0.243856	-0.030418	-0.000211
C48	C	0.256144	0.469582	0.499789
C49	C	-0.164908	-0.029160	-0.000216
C50	C	0.335092	0.470840	0.499784
C51	C	-0.146608	-0.167090	-0.000190
C52	C	0.353392	0.332910	0.499810
C53	C	-0.225550	-0.168353	-0.000181
C54	C	0.274450	0.331647	0.499819
C55	C	-0.274170	-0.100015	-0.000202
C56	C	0.225830	0.399985	0.499798
C57	C	-0.359769	-0.101384	-0.000183
C58	C	0.140231	0.398616	0.499817
C59	C	-0.427995	-0.102481	-0.000168
C60	C	0.072005	0.397519	0.499832
C61	C	-0.966656	0.169090	-0.000214
C62	C	-0.466656	0.669090	0.499786
C63	C	-0.965394	0.248033	-0.000200
C64	C	-0.465394	0.748033	0.499800
C65	C	-0.895798	0.278354	-0.000180
C66	C	-0.395798	0.778354	0.499820
C67	C	-0.827459	0.229727	-0.000158
C68	C	-0.327459	0.729727	0.499842
C69	C	-0.828722	0.150785	-0.000161
C70	C	-0.328722	0.650785	0.499839
C71	C	-0.822364	0.548090	-0.000145
C72	C	-0.322364	1.048090	0.499855
C73	C	-0.821106	0.627038	-0.000147
C74	C	-0.321106	1.127038	0.499853
C75	C	-0.959036	0.645338	-0.000184
C76	C	-0.459036	1.145338	0.499816
C77	C	-0.960299	0.566396	-0.000187
C78	C	-0.460299	1.066396	0.499813
C79	C	-0.891961	0.517776	-0.000157
C80	C	-0.391961	1.017776	0.499843
C81	C	-0.893330	0.432177	-0.000169
C82	C	-0.393330	0.932177	0.499831
C83	C	-0.894427	0.363951	-0.000179
C84	C	-0.394427	0.863951	0.499821
N85	N	-0.893878	-0.101920	-0.353222
N86	N	-0.393878	0.398080	0.146778
C87	C	-0.947304	-0.047666	-0.549910
C88	C	-0.447304	0.452334	-0.049910
C89	C	-0.962474	-0.115819	-0.450428
C90	C	-0.462474	0.384181	0.049572
C91	C	-0.878742	-0.033772	-0.450496
C92	C	-0.378742	0.466228	0.049504
C93	C	-0.909095	-0.170133	-0.549848
C94	C	-0.409095	0.329867	-0.049848
C95	C	-0.825333	-0.088041	-0.549925
C96	C	-0.325333	0.411959	-0.049925
C97	C	-0.840474	-0.156244	-0.450488
C98	C	-0.340474	0.343756	0.049512
N99	N	-0.893891	-0.101946	0.352858
N100	N	-0.393891	0.398054	0.852858
H101	H	-0.647537	-0.231384	-0.000109
H102	H	-0.147537	0.268616	0.499891
O103	O	-0.748568	-0.072441	-0.607871
O104	O	-0.248568	0.427559	-0.107871
H105	H	-0.723474	-0.121450	-0.675923
H106	H	-0.223474	0.378550	-0.175923
O107	O	-0.491469	-0.247150	-0.000135
O108	O	0.008531	0.252850	0.499865
H109	H	-0.525815	-0.295756	-0.000103
H110	H	-0.025815	0.204244	0.499897
O111	O	-0.258256	-0.243417	-0.000184
O112	O	0.241744	0.256583	0.499816
H113	H	-0.211183	-0.290723	-0.000203
H114	H	0.288817	0.209277	0.499797
O115	O	-0.132207	0.045911	-0.000248
O116	O	0.367793	0.545911	0.499752
H117	H	-0.069146	0.035305	-0.000234
H118	H	0.430854	0.535305	0.499766
H119	H	-0.865934	0.023871	-0.406852
H120	H	-0.365934	0.523871	0.093148
H121	H	-0.107012	-0.222734	-0.000181
H122	H	0.392988	0.277266	0.499819
H123	H	-0.283434	0.025228	-0.000230
H124	H	0.216566	0.525228	0.499770
O125	O	-0.746035	0.659739	-0.000125
O126	O	-0.246035	1.159739	0.499875
H127	H	-0.756641	0.722800	-0.000149
H128	H	-0.256641	1.222800	0.499851
H129	H	-0.795297	-0.202184	-0.407110
H130	H	-0.295297	0.297816	0.092890
O131	O	-0.752392	0.262425	-0.000132
O132	O	-0.252392	0.762425	0.499868
H133	H	-0.719559	0.242884	-0.101230
H134	H	-0.219559	0.742884	0.398770
H135	H	-0.537526	0.021154	-0.000209
H136	H	-0.037526	0.521154	0.499791
O137	O	-0.693608	0.036925	-0.000170
O138	O	-0.193608	0.536925	0.499830
H139	H	-0.659264	0.085533	-0.000170
H140	H	-0.159264	0.585533	0.499830
O141	O	-1.041725	0.136394	-0.000237
O142	O	-0.541725	0.636394	0.499763
H143	H	-1.031126	0.073332	-0.000249
H144	H	-0.531126	0.573332	0.499751
O145	O	-0.926164	-0.246502	-0.607396
O146	O	-0.426164	0.253498	-0.107396
H147	H	-0.877794	-0.272254	-0.676376
H148	H	-0.377794	0.227746	-0.176376
H149	H	-1.016971	0.541714	-0.000211
H150	H	-0.516971	1.041714	0.499789
O151	O	-1.039096	0.300477	-0.000244
O152	O	-0.539096	0.800477	0.499756
H153	H	-1.087702	0.266131	-0.000286
H154	H	-0.587702	0.766131	0.499714
O155	O	-1.032749	0.697777	-0.000204
O156	O	-0.532749	1.197777	0.499796
H157	H	-1.020183	0.757765	-0.000183
H158	H	-0.520183	1.257765	0.499817
H159	H	-0.773078	0.111198	-0.000147
H160	H	-0.273078	0.611198	0.499853
O161	O	-0.748660	0.495653	-0.000151
O162	O	-0.248660	0.995653	0.499849
H163	H	-0.700056	0.530002	-0.000164
H164	H	-0.200056	1.030002	0.499836
H165	H	-0.992509	-0.001826	-0.593562
H166	H	-0.492509	0.498174	-0.093562
O167	O	-1.039258	-0.131394	-0.392512
O168	O	-0.539258	0.368606	0.107488
H169	H	-1.083505	-0.086273	-0.432317
H170	H	-0.583505	0.413727	0.067683
