data_functionalizedCrystal
_audit_creation_method	'MofGen! by Chris Wilmer'
_symmetry_space_group_name_H-M	'P1'
_symmetry_Int_Tables_number	1
_symmetry_cell_setting	triclinic
loop_
_symmetry_equiv_pos_as_xyz
  x,y,z
_cell_length_a	19.288859
_cell_length_b	16.053789
_cell_length_c	19.288865
_cell_angle_alpha	87.098675
_cell_angle_beta	96.865014
_cell_angle_gamma	92.897197
loop_
_atom_site_label
_atom_site_type_symbol
_atom_site_fract_x
_atom_site_fract_y
_atom_site_fract_z
O1	O	0.923956	0.069456	-0.089232
O2	O	1.423956	0.569456	0.410768
O3	O	0.721695	0.069455	-0.100925
O4	O	1.221695	0.569455	0.399075
O5	O	0.828669	0.069439	0.006053
O6	O	1.328669	0.569439	0.506053
O7	O	0.816982	0.069472	-0.196209
O8	O	1.316982	0.569472	0.303791
O9	O	0.823452	-0.069421	0.011263
O10	O	1.323452	0.430579	0.511263
O11	O	0.716477	-0.069405	-0.095715
O12	O	1.216477	0.430595	0.404285
O13	O	0.918739	-0.069404	-0.084021
O14	O	1.418739	0.430596	0.415979
Zn15	Zn	0.816780	-0.091452	-0.089041
Zn16	Zn	1.316780	0.408548	0.410959
Zn17	Zn	0.823654	0.091503	-0.095906
Zn18	Zn	1.323654	0.591503	0.404094
O19	O	0.811764	-0.069388	-0.190999
O20	O	1.311764	0.430612	0.309001
C21	C	0.693210	0.000025	-0.097944
C22	C	1.193210	0.500025	0.402056
C23	C	0.616106	0.000024	-0.096817
C24	C	1.116106	0.500024	0.403183
C25	C	0.052065	0.000034	-0.151961
C26	C	0.552065	0.500034	0.348039
C27	C	0.124512	0.000039	-0.153026
C28	C	0.624512	0.500039	0.346974
C29	C	0.169218	0.000027	-0.090256
C30	C	0.669218	0.500027	0.409744
C31	C	0.141474	0.000032	-0.026417
C32	C	0.641474	0.500032	0.473583
C33	C	0.069028	0.000036	-0.025354
C34	C	0.569028	0.500036	0.474646
C35	C	0.288660	-0.048633	-0.041618
C36	C	0.788660	0.451367	0.458382
C37	C	0.361104	-0.048642	-0.042683
C38	C	0.861104	0.451358	0.457317
C39	C	0.392664	0.000019	-0.093534
C40	C	0.892664	0.500019	0.406466
C41	C	0.351770	0.048678	-0.143329
C42	C	0.851770	0.548678	0.356671
C43	C	0.279325	0.048681	-0.142266
C44	C	0.779325	0.548681	0.357734
C45	C	0.247774	0.000023	-0.091402
C46	C	0.747774	0.500023	0.408598
C47	C	0.498956	0.000025	-0.158524
C48	C	0.998956	0.500025	0.341476
C49	C	0.571404	0.000034	-0.159587
C50	C	1.071404	0.500034	0.340413
C51	C	0.588364	0.000019	-0.032976
C52	C	1.088364	0.500019	0.467024
C53	C	0.515917	0.000018	-0.031915
C54	C	1.015917	0.500018	0.468085
C55	C	0.471217	0.000017	-0.094691
C56	C	0.971217	0.500017	0.405309
N57	N	0.812093	-0.216313	-0.084355
N58	N	1.312093	0.283687	0.415645
C59	C	0.852447	-0.259996	-0.124737
C60	C	1.352447	0.240004	0.375263
C61	C	0.849178	-0.347404	-0.121455
C62	C	1.349178	0.152596	0.378545
C63	C	0.805551	-0.391127	-0.077794
C64	C	1.305551	0.108873	0.422206
C65	C	0.765196	-0.347437	-0.037407
C66	C	1.265196	0.152563	0.462593
C67	C	0.768469	-0.260031	-0.040686
C68	C	1.268469	0.239969	0.459314
C69	C	0.791264	-0.652540	-0.063478
C70	C	1.291264	-0.152540	0.436522
C71	C	0.787992	-0.739952	-0.060204
C72	C	1.287992	-0.239952	0.439796
C73	C	0.871975	-0.739913	-0.144251
C74	C	1.371975	-0.239913	0.355749
C75	C	0.875241	-0.652505	-0.147529
C76	C	1.375241	-0.152505	0.352471
C77	C	0.834889	-0.608824	-0.107140
C78	C	1.334889	-0.108824	0.392860
N79	N	0.802208	-0.480471	-0.074440
N80	N	1.302208	0.019529	0.425560
N81	N	0.838237	-0.519481	-0.110491
N82	N	1.338237	-0.019481	0.389509
C83	C	0.947224	0.000028	-0.087002
C84	C	1.447224	0.500028	0.412998
C85	C	1.024328	0.000035	-0.088130
C86	C	1.524328	0.500035	0.411870
C87	C	0.825684	0.000007	0.034534
C88	C	1.325684	0.500007	0.534534
C89	C	0.824555	-0.000001	0.111638
C90	C	1.324555	0.499999	0.611638
N91	N	0.828346	0.216364	-0.100586
N92	N	1.328346	0.716364	0.399414
C93	C	0.814749	0.000046	-0.219481
C94	C	1.314749	0.500046	0.280519
C95	C	0.815879	0.000059	-0.296585
C96	C	1.315879	0.500059	0.203415
C97	C	0.887323	-0.000005	0.156336
C98	C	1.387323	0.499995	0.656336
C99	C	0.886263	0.000009	0.228783
C100	C	1.386263	0.500009	0.728783
C101	C	0.822430	0.000009	0.256529
C102	C	1.322430	0.500009	0.756529
C103	C	0.759654	0.000017	0.211821
C104	C	1.259654	0.500017	0.711821
C105	C	0.760717	0.000013	0.139376
C106	C	1.260717	0.500013	0.639376
C107	C	0.770423	-0.048631	0.366640
C108	C	1.270423	0.451369	0.866640
C109	C	0.769363	-0.048631	0.439085
C110	C	1.269363	0.451369	0.939085
C111	C	0.819151	0.000028	0.479974
C112	C	1.319151	0.500028	0.979974
C113	C	0.870011	0.048676	0.448411
C114	C	1.370011	0.548676	0.948411
C115	C	0.871073	0.048671	0.375966
C116	C	1.371073	0.548671	0.875966
C117	C	0.821271	0.000015	0.335083
C118	C	1.321271	0.500015	0.835083
C119	C	0.880774	0.000039	0.603227
C120	C	1.380774	0.500039	1.103227
C121	C	0.879712	0.000058	0.675674
C122	C	1.379712	0.500058	1.175674
C123	C	0.753101	0.000058	0.658711
C124	C	1.253101	0.500058	1.158711
C125	C	0.754166	0.000048	0.586265
C126	C	1.254166	0.500048	1.086265
C127	C	0.818004	0.000035	0.558528
C128	C	1.318004	0.500035	1.058528
H129	H	0.015674	0.000037	-0.203078
H130	H	0.515674	0.500037	0.296922
F131	F	0.748295	-0.606062	-0.020513
F132	F	1.248295	-0.106062	0.479487
F133	F	0.718767	-0.393973	0.009062
F134	F	1.218767	0.106027	0.509062
F135	F	0.953072	0.000006	0.276362
F136	F	1.453072	0.500006	0.776362
F137	F	0.898879	-0.213471	-0.171209
F138	F	1.398879	0.286529	0.328791
F139	F	0.715237	-0.100410	0.472669
F140	F	1.215237	0.399590	0.972669
F141	F	0.404618	-0.100435	0.010309
F142	F	0.904618	0.399565	0.510309
F143	F	0.955266	-0.000001	0.126820
F144	F	1.455266	0.499999	0.626820
F145	F	0.892128	-0.393891	-0.164436
F146	F	1.392128	0.106109	0.335564
F147	F	0.921651	-0.605979	-0.194022
F148	F	1.421651	-0.105979	0.305978
H149	H	0.735609	-0.224466	-0.007803
H150	H	1.235609	0.275534	0.492197
H151	H	0.701128	0.000062	0.681301
H152	H	1.201128	0.500062	1.181301
H153	H	0.262971	-0.088260	-0.000205
H154	H	0.762971	0.411740	0.499795
H155	H	0.493334	0.000013	0.020063
H156	H	0.993334	0.500013	0.520063
F157	F	0.925197	0.100449	0.342377
F158	F	1.425197	0.600449	0.842377
H159	H	0.910553	0.088299	0.481702
H160	H	1.410553	0.588299	0.981702
H161	H	0.904828	-0.775488	-0.177133
H162	H	1.404828	-0.275488	0.322867
F163	F	0.741557	-0.786484	-0.013731
F164	F	1.241557	-0.286484	0.486269
H165	H	0.703053	0.000047	0.549871
H166	H	1.203053	0.500047	1.049871
F167	F	0.451380	0.000026	-0.225335
F168	F	0.951380	0.500026	0.274665
F169	F	0.948715	0.000021	0.573704
F170	F	1.448715	0.500021	1.073704
H171	H	0.729878	-0.088259	0.333354
H172	H	1.229878	0.411741	0.833354
H173	H	0.930827	0.000059	0.712067
H174	H	1.430827	0.500059	1.212067
F175	F	0.691720	0.000023	0.241351
F176	F	1.191720	0.500023	0.741351
F177	F	0.693907	0.000017	0.091803
F178	F	1.193907	0.500017	0.591803
F179	F	0.189054	0.000022	0.040387
F180	F	0.689054	0.500022	0.540387
H181	H	0.147100	0.000031	-0.205006
H182	H	0.647100	0.500031	0.294994
H183	H	0.377464	0.088300	-0.184738
H184	H	0.877464	0.588300	0.315262
F185	F	0.235806	0.100470	-0.195258
F186	F	0.735806	0.600470	0.304742
H187	H	0.593986	0.000041	-0.211568
H188	H	1.093986	0.500041	0.288432
H189	H	0.624764	0.000016	0.018132
H190	H	1.124764	0.500016	0.518132
H191	H	0.046446	0.000036	0.026626
H192	H	0.546446	0.500036	0.526626
