data_functionalizedCrystal
_audit_creation_method	'MofGen! by Chris Wilmer'
_symmetry_space_group_name_H-M	'P1'
_symmetry_Int_Tables_number	1
_symmetry_cell_setting	triclinic
loop_
_symmetry_equiv_pos_as_xyz
  x,y,z
_cell_length_a	14.560438
_cell_length_b	21.606444
_cell_length_c	21.606444
_cell_angle_alpha	59.990220
_cell_angle_beta	90.000308
_cell_angle_gamma	60.003196
loop_
_atom_site_label
_atom_site_type_symbol
_atom_site_fract_x
_atom_site_fract_y
_atom_site_fract_z
Zr1	Zr	0.884775	0.677501	-0.081316
O2	O	0.738128	0.806635	-0.180167
O3	O	0.929729	0.548369	-0.050998
O4	O	0.929731	0.677502	-0.180141
O5	O	0.738125	0.677499	0.050830
O6	O	1.080872	0.677500	-0.180137
O7	O	0.738126	0.677502	-0.051024
O8	O	1.080868	0.446505	0.050876
O9	O	0.738129	0.908495	-0.180184
O10	O	1.061697	0.601480	-0.038083
O11	O	0.948902	0.601480	0.037926
O12	O	0.948904	0.753518	-0.114123
O13	O	0.836109	0.753517	-0.038114
Zr14	Zr	1.125826	0.677494	0.081134
Zr15	Zr	1.125827	0.677497	-0.081310
Zr16	Zr	0.884773	0.677497	0.081128
Zr17	Zr	0.884776	0.839956	-0.081343
Zr18	Zr	1.125824	0.515038	0.081161
O19	O	1.080871	0.806625	0.050816
O20	O	1.080873	0.806631	-0.180159
O21	O	0.738126	0.806629	0.050808
O22	O	1.272473	0.548359	0.179984
O23	O	1.272475	0.548365	-0.050990
O24	O	0.929727	0.548363	0.179977
O25	O	1.272476	0.677495	-0.051012
O26	O	1.080869	0.677492	0.179958
O27	O	0.929728	0.677494	0.179955
O28	O	1.272475	0.677492	0.050841
O29	O	0.929733	0.908493	-0.180179
O30	O	1.080867	0.446501	0.179997
O31	O	1.272472	0.446499	0.180001
O32	O	1.272473	0.446502	0.050880
O33	O	0.738128	0.908492	-0.051062
O34	O	0.929732	0.908490	-0.051058
O35	O	1.061696	0.601477	0.113941
O36	O	1.174491	0.601477	0.037931
O37	O	1.061699	0.753514	-0.038109
O38	O	0.948903	0.753514	0.037901
C39	C	1.005299	0.474290	-0.000057
C40	C	1.005298	0.405324	-0.000046
C41	C	0.922031	0.429061	-0.056175
C42	C	0.922033	0.364272	-0.056191
C43	C	1.005300	0.275746	-0.000073
C44	C	1.088576	0.252009	0.056059
C45	C	1.088577	0.316798	0.056071
C46	C	1.088575	-0.009278	0.056012
C47	C	1.088566	-0.074066	0.055997
C48	C	0.922032	0.038197	-0.056250
C49	C	0.922033	0.102985	-0.056238
C50	C	1.005312	0.079243	-0.000109
C51	C	1.005309	0.149496	-0.000093
C52	C	1.005299	0.205494	-0.000085
C53	C	0.703780	0.677501	-0.000098
C54	C	0.601447	0.677502	-0.000100
C55	C	0.553365	0.677505	-0.056210
C56	C	0.457219	0.677497	-0.056200
C57	C	0.457245	0.677487	0.056034
C58	C	0.553393	0.677489	0.056026
C59	C	0.601419	0.677519	-0.112337
C60	C	0.553335	0.677522	-0.168452
C61	C	0.457189	0.677514	-0.168442
C62	C	0.409127	0.677502	-0.112316
C63	C	1.306820	0.677493	-0.000084
C64	C	1.409153	0.677492	-0.000082
C65	C	1.005302	0.677502	-0.203284
C66	C	1.005303	0.677504	-0.272246
C67	C	1.005302	0.880704	-0.000125
C68	C	1.005302	0.949670	-0.000137
C69	C	1.088567	0.677504	-0.304642
C70	C	1.088571	0.677498	-0.369435
C71	C	1.005304	0.677497	-0.401834
C72	C	0.922035	0.677494	-0.369431
C73	C	0.922037	0.677494	-0.304636
C74	C	0.922025	0.677493	-0.630741
C75	C	0.922028	0.677496	-0.695542
C76	C	1.088559	0.677497	-0.695540
C77	C	1.088561	0.677497	-0.630745
C78	C	1.005296	0.677489	-0.598346
C79	C	1.005295	0.677494	-0.528089
C80	C	1.005300	0.677499	-0.472092
C81	C	1.005298	0.677492	0.203102
C82	C	1.005298	0.677491	0.272063
C83	C	1.306818	0.474287	-0.000050
C84	C	1.409151	0.405319	-0.000037
C85	C	1.005297	0.474286	0.203136
C86	C	1.005296	0.405317	0.272109
C87	C	1.306816	0.474282	0.203142
C88	C	1.409148	0.405312	0.272118
C89	C	0.703784	0.880712	-0.203324
C90	C	0.601452	0.949682	-0.272300
C91	C	0.703782	0.880708	-0.000132
C92	C	0.601450	0.949675	-0.000146
C93	C	1.005304	0.880709	-0.203318
C94	C	1.005305	0.949677	-0.272291
C95	C	1.398330	0.372932	-0.039716
C96	C	1.494473	0.308139	-0.039718
C97	C	1.601436	0.275728	-0.000036
C98	C	1.612255	0.308121	0.039644
C99	C	1.516113	0.372918	0.039641
C100	C	1.064172	0.372928	0.344185
C101	C	1.064167	0.308134	0.408999
C102	C	1.005291	0.275727	0.401735
C103	C	0.946407	0.308123	0.329651
C104	C	0.946406	0.372920	0.264839
C105	C	1.516093	0.372924	0.264833
C106	C	1.612254	0.308129	0.329637
C107	C	1.601468	0.275719	0.401724
C108	C	1.494512	0.308114	0.409007
C109	C	1.398354	0.372912	0.344204
C110	C	0.494508	0.982078	-0.265016
C111	C	0.398347	1.046893	-0.329819
C112	C	0.409133	1.079307	-0.401907
C113	C	0.516088	1.046908	-0.409190
C114	C	0.612247	0.982098	-0.344387
C115	C	0.612271	0.982068	0.039527
C116	C	0.516128	1.046880	0.039511
C117	C	0.409165	1.079293	-0.000173
C118	C	0.398346	1.046897	-0.039850
C119	C	0.494488	0.982091	-0.039838
C120	C	1.064193	0.982063	-0.265003
C121	C	1.064216	1.046858	-0.329804
C122	C	1.005344	1.079269	-0.401893
C123	C	0.946454	1.046875	-0.409180
C124	C	0.946439	0.982078	-0.344379
H125	H	0.854226	0.057523	-0.101957
H126	H	1.005300	0.222965	0.454516
Br127	Br	1.757428	0.264123	0.093497
H128	H	0.524857	1.073307	-0.467891
H129	H	1.156371	0.677498	-0.395811
H130	H	0.854225	0.175066	-0.101933
Br131	Br	1.144092	0.416890	0.354064
H132	H	0.898471	0.281727	0.323748
Br133	Br	0.731896	0.677538	-0.112357
H134	H	1.679775	0.222956	0.454485
Br135	Br	0.530837	1.090830	0.093364
H136	H	0.592543	0.677485	0.101717
H137	H	1.156361	0.677502	-0.604370
H138	H	0.330889	1.132062	-0.000176
Br139	Br	1.201578	-0.194214	0.132162
H140	H	0.418105	0.677478	0.101729
Br141	Br	1.201594	0.284581	0.132245
H142	H	0.699323	0.955721	-0.350327
Br143	Br	1.530762	0.416899	0.167009
Br144	Br	1.253178	0.416906	-0.093578
Br145	Br	1.005375	1.167210	-0.489831
H146	H	0.311244	1.073297	-0.072160
Br147	Br	0.253208	1.090848	-0.319917
Br148	Br	1.530819	0.416858	0.093502
Br149	Br	1.201572	0.677514	-0.260684
H150	H	0.898465	0.399283	0.206154
Br151	Br	1.201566	0.677506	-0.739512
H152	H	0.898522	1.073274	-0.467883
H153	H	1.112169	1.073225	-0.323857
Br154	Br	0.809025	0.677485	-0.586776
Br155	Br	1.479893	0.264120	0.506846
Br156	Br	1.479764	0.264189	-0.093572
Br157	Br	1.731904	0.187788	-0.000040
H158	H	0.854219	0.677495	-0.721919
H159	H	1.311278	0.399275	0.350146
Br160	Br	1.757393	0.264176	0.319735
Br161	Br	0.391943	0.677505	-0.244589
Br162	Br	0.479839	0.938101	-0.167191
Br163	Br	0.757423	0.938097	0.093388
Br164	Br	1.144089	0.264180	0.506817
Br165	Br	0.278619	1.167264	-0.489847
H166	H	0.330845	0.677487	-0.112308
Br167	Br	0.809034	0.677484	-0.413393
H168	H	1.112133	0.955684	-0.206310
H169	H	0.485662	0.955718	-0.072142
H170	H	0.854214	0.501141	-0.101865
Br171	Br	0.809021	0.396492	-0.132369
Br172	Br	0.809036	0.677485	-0.260665
Br173	Br	0.866501	0.938139	-0.354284
Br174	Br	1.201589	-0.041507	0.132193
H175	H	0.592478	0.677525	-0.214144
Br176	Br	1.201587	0.131866	0.132217
