data_functionalizedCrystal
_audit_creation_method	'MofGen! by Chris Wilmer'
_symmetry_space_group_name_H-M	'P1'
_symmetry_Int_Tables_number	1
_symmetry_cell_setting	triclinic
loop_
_symmetry_equiv_pos_as_xyz
  x,y,z
_cell_length_a	18.101395
_cell_length_b	19.077253
_cell_length_c	19.076919
_cell_angle_alpha	94.673785
_cell_angle_beta	92.272317
_cell_angle_gamma	87.737952
loop_
_atom_site_label
_atom_site_type_symbol
_atom_site_fract_x
_atom_site_fract_y
_atom_site_fract_z
Zn1	Zn	-0.354648	1.061621	-0.355187
Zn2	Zn	-0.021314	1.394954	-0.021854
Zn3	Zn	0.312019	1.728288	0.311479
Zn4	Zn	-0.473704	1.066263	-0.237309
Zn5	Zn	-0.140371	1.399596	0.096024
Zn6	Zn	0.192962	1.732929	0.429358
Zn7	Zn	-0.345113	0.948479	-0.242064
Zn8	Zn	-0.011780	1.281812	0.091269
Zn9	Zn	0.321553	1.615145	0.424602
Zn10	Zn	-0.473676	0.943693	-0.359902
Zn11	Zn	-0.140343	1.277026	-0.026569
Zn12	Zn	0.192990	1.610360	0.306764
O13	O	-0.411785	1.005014	-0.298616
O14	O	-0.078452	1.338347	0.034718
O15	O	0.254881	1.671681	0.368051
O16	O	-0.374443	1.160883	-0.335587
O17	O	-0.041110	1.494217	-0.002254
O18	O	0.292224	1.827550	0.331079
O19	O	-0.452668	1.054584	-0.139292
O20	O	-0.119335	1.387917	0.194042
O21	O	0.213998	1.721250	0.527375
O22	O	-0.242748	0.963548	-0.257087
O23	O	0.090585	1.296881	0.076246
O24	O	0.423918	1.630214	0.409579
O25	O	-0.461913	1.164293	-0.248983
O26	O	-0.128580	1.497627	0.084351
O27	O	0.204753	1.830960	0.417684
O28	O	-0.249753	1.046673	-0.340198
O29	O	0.083580	1.380006	-0.006865
O30	O	0.416913	1.713340	0.326468
O31	O	-0.358193	0.968048	-0.142786
O32	O	-0.024859	1.301382	0.190548
O33	O	0.308474	1.634715	0.523881
O34	O	-0.358165	0.849198	-0.261659
O35	O	-0.024832	1.182531	0.071674
O36	O	0.308501	1.515864	0.405007
O37	O	-0.461865	0.955391	-0.457925
O38	O	-0.128532	1.288724	-0.124592
O39	O	0.204801	1.622058	0.208742
O40	O	-0.452620	0.845681	-0.348234
O41	O	-0.119287	1.179015	-0.014901
O42	O	0.214047	1.512348	0.318432
O43	O	-0.374416	1.042032	-0.454461
O44	O	-0.041082	1.375366	-0.121128
O45	O	0.292251	1.708699	0.212206
O46	O	-0.577330	1.049943	-0.253554
O47	O	-0.243997	1.383277	0.079779
O48	O	0.089336	1.716610	0.413112
O49	O	-0.577310	0.959892	-0.343623
O50	O	-0.243976	1.293225	-0.010290
O51	O	0.089357	1.626558	0.323044
C52	C	-0.604191	1.004920	-0.298599
C53	C	-0.270858	1.338254	0.034734
C54	C	0.062475	1.671587	0.368068
C55	C	-0.686507	1.004944	-0.298613
C56	C	-0.353174	1.338277	0.034721
C57	C	-0.019840	1.671611	0.368054
C58	C	-0.404356	0.821862	-0.305975
C59	C	-0.071022	1.155195	0.027359
C60	C	0.262311	1.488528	0.360692
C61	C	-0.401196	0.743508	-0.309140
C62	C	-0.067862	1.076841	0.024194
C63	C	0.265471	1.410174	0.357527
C64	C	-0.419201	0.997660	-0.482486
C65	C	-0.085867	1.330993	-0.149153
C66	C	0.247466	1.664327	0.184180
C67	C	-0.422361	0.994526	-0.560841
C68	C	-0.089027	1.327860	-0.227508
C69	C	0.244306	1.661193	0.105825
C70	C	-0.985606	1.005097	-0.298644
C71	C	-0.652272	1.338430	0.034689
C72	C	-0.318939	1.671764	0.368022
C73	C	-0.954309	0.948560	-0.355443
C74	C	-0.620976	1.281893	-0.022110
C75	C	-0.287642	1.615227	0.311223
C76	C	-0.868674	0.948309	-0.355283
C77	C	-0.535340	1.281642	-0.021950
C78	C	-0.202007	1.614975	0.311384
C79	C	-0.837219	1.005021	-0.298629
C80	C	-0.503886	1.338354	0.034704
C81	C	-0.170553	1.671688	0.368037
C82	C	-0.864539	0.987896	-0.225144
C83	C	-0.531206	1.321230	0.108190
C84	C	-0.197872	1.654563	0.441523
C85	C	-0.950183	0.987533	-0.225485
C86	C	-0.616850	1.320866	0.107849
C87	C	-0.283517	1.654200	0.441182
C88	C	-0.957741	1.078904	-0.314672
C89	C	-0.624408	1.412237	0.018661
C90	C	-0.291075	1.745571	0.351994
C91	C	-0.872139	1.078400	-0.316319
C92	C	-0.538805	1.411733	0.017014
C93	C	-0.205472	1.745067	0.350347
C94	C	-0.753358	1.004979	-0.298616
C95	C	-0.420024	1.338313	0.034717
C96	C	-0.086691	1.671646	0.368051
C97	C	-1.069467	1.005137	-0.298653
C98	C	-0.736134	1.338470	0.034681
C99	C	-0.402801	1.671804	0.368014
C100	C	-0.218630	1.005126	-0.298647
C101	C	0.114704	1.338460	0.034686
C102	C	0.448037	1.671793	0.368019
C103	C	-0.136318	1.005174	-0.298661
C104	C	0.197015	1.338508	0.034672
C105	C	0.530349	1.671841	0.368006
C106	C	-0.419245	1.188881	-0.291228
C107	C	-0.085912	1.522215	0.042105
C108	C	0.247422	1.855548	0.375438
C109	C	-0.422424	1.267235	-0.288080
C110	C	-0.089090	1.600568	0.045253
C111	C	0.244243	1.933901	0.378586
C112	C	-0.378379	1.302271	-0.331690
C113	C	-0.045045	1.635604	0.001643
C114	C	0.288288	1.968938	0.334976
C115	C	-0.381375	1.375892	-0.328736
C116	C	-0.048042	1.709225	0.004598
C117	C	0.285291	2.042559	0.337931
C118	C	-0.428413	1.414476	-0.282167
C119	C	-0.095080	1.747809	0.051166
C120	C	0.238253	2.081142	0.384499
C121	C	-0.472463	1.379434	-0.238556
C122	C	-0.139130	1.712768	0.094778
C123	C	0.194203	2.046101	0.428111
C124	C	-0.469470	1.305814	-0.241514
C125	C	-0.136137	1.639148	0.091819
C126	C	0.197196	1.972481	0.425152
C127	C	-0.442252	1.634846	-0.268487
C128	C	-0.108919	1.968180	0.064846
C129	C	0.224414	2.301513	0.398180
C130	C	-0.445241	1.708471	-0.265530
C131	C	-0.111907	2.041805	0.067803
C132	C	0.221426	2.375138	0.401137
C133	C	-0.354153	1.704924	-0.355711
C134	C	-0.020820	2.038257	-0.022378
C135	C	0.312514	2.371591	0.310955
C136	C	-0.351161	1.631303	-0.358663
C137	C	-0.017827	1.964636	-0.025329
C138	C	0.315506	2.297969	0.308004
C139	C	-0.395214	1.596268	-0.315054
C140	C	-0.061880	1.929601	0.018279
C141	C	0.271453	2.262934	0.351613
N142	N	-0.431476	1.489729	-0.279144
N143	N	-0.098143	1.823062	0.054189
N144	N	0.235191	2.156395	0.387522
N145	N	-0.392155	1.521016	-0.318081
N146	N	-0.058821	1.854349	0.015253
N147	N	0.274512	2.187683	0.348586
C148	C	-0.378317	1.038161	-0.595850
C149	C	-0.044984	1.371495	-0.262517
C150	C	0.288350	1.704828	0.070817
C151	C	-0.381283	1.035208	-0.669473
C152	C	-0.047950	1.368542	-0.336140
C153	C	0.285384	1.701875	-0.002806
C154	C	-0.428297	0.988623	-0.708086
C155	C	-0.094964	1.321957	-0.374752
C156	C	0.238370	1.655290	-0.041419
C157	C	-0.472343	0.944984	-0.673072
C158	C	-0.139009	1.278317	-0.339738
C159	C	0.194324	1.611650	-0.006405
C160	C	-0.469372	0.947934	-0.599450
C161	C	-0.136039	1.281267	-0.266117
C162	C	0.197294	1.614600	0.067216
C163	C	-0.442059	0.974960	-0.928464
C164	C	-0.108726	1.308294	-0.595130
C165	C	0.224607	1.641627	-0.261797
C166	C	-0.445028	0.972015	-1.002090
C167	C	-0.111695	1.305348	-0.668757
C168	C	0.221639	1.638682	-0.335423
C169	C	-0.353967	1.062239	-0.998486
C170	C	-0.020634	1.395572	-0.665153
C171	C	0.312700	1.728906	-0.331820
C172	C	-0.351004	1.065188	-0.924864
C173	C	-0.017671	1.398521	-0.591530
C174	C	0.315663	1.731855	-0.258197
C175	C	-0.395047	1.021546	-0.889856
C176	C	-0.061713	1.354879	-0.556523
C177	C	0.271620	1.688212	-0.223190
N178	N	-0.431332	0.985605	-0.783340
N179	N	-0.097998	1.318939	-0.450007
N180	N	0.235335	1.652272	-0.116673
N181	N	-0.392008	1.024561	-0.814603
N182	N	-0.058674	1.357894	-0.481270
N183	N	0.274659	1.691227	-0.147937
C184	C	-0.404347	1.012380	-0.115459
C185	C	-0.071014	1.345713	0.217874
C186	C	0.262319	1.679046	0.551208
C187	C	-0.400984	1.015650	-0.037099
C188	C	-0.067651	1.348983	0.296234
C189	C	0.265683	1.682317	0.629568
H190	H	-0.850356	0.958677	-0.409866
H191	H	-0.517023	1.292010	-0.076532
H192	H	-0.183690	1.625343	0.256801
O193	O	-0.489562	0.927872	-0.890735
O194	O	-0.156228	1.261205	-0.557402
O195	O	0.177105	1.594538	-0.224068
H196	H	-0.527177	0.960719	-0.855911
H197	H	-0.193844	1.294052	-0.522577
H198	H	0.139490	1.627385	-0.189244
H199	H	-0.483548	1.739884	-0.227607
H200	H	-0.150214	2.073218	0.105726
H201	H	0.183119	2.406551	0.439060
O202	O	-0.306645	1.742709	-0.402750
O203	O	0.026688	2.076043	-0.069417
O204	O	0.360021	2.409376	0.263916
H205	H	-0.316631	1.800384	-0.392876
H206	H	0.016702	2.133717	-0.059543
H207	H	0.350035	2.467050	0.273791
H208	H	-0.478121	1.606330	-0.232975
H209	H	-0.144788	1.939663	0.100358
H210	H	0.188545	2.272996	0.433691
H211	H	-0.845501	0.893541	-0.344903
H212	H	-0.512167	1.226874	-0.011570
H213	H	-0.178834	1.560207	0.321764
O214	O	-0.979270	0.876445	-0.341887
O215	O	-0.645937	1.209778	-0.008554
O216	O	-0.312604	1.543111	0.324780
H217	H	-1.013869	0.880694	-0.294870
H218	H	-0.680536	1.214027	0.038463
H219	H	-0.347202	1.547360	0.371796
O220	O	-0.985168	0.962115	-0.427990
O221	O	-0.651834	1.295448	-0.094656
O222	O	-0.318501	1.628782	0.238677
H223	H	-0.962281	0.921571	-0.467109
H224	H	-0.628948	1.254904	-0.133776
H225	H	-0.295614	1.588238	0.199557
H226	H	-0.967365	0.933669	-0.211559
H227	H	-0.634031	1.267002	0.121775
H228	H	-0.300698	1.600336	0.455108
O229	O	-0.977402	1.039914	-0.167723
O230	O	-0.644069	1.373247	0.165610
O231	O	-0.310735	1.706580	0.498943
H232	H	-0.929391	1.065388	-0.139667
H233	H	-0.596058	1.398721	0.193666
H234	H	-0.262724	1.732055	0.526999
O235	O	-0.837365	1.040893	-0.167724
O236	O	-0.504031	1.374226	0.165609
O237	O	-0.170698	1.707560	0.498943
H238	H	-0.804016	1.080092	-0.191009
H239	H	-0.470683	1.413426	0.142324
H240	H	-0.137349	1.746759	0.475658
O241	O	-0.495733	0.921763	-1.043741
O242	O	-0.162399	1.255096	-0.710408
O243	O	0.170934	1.588430	-0.377075
H244	H	-0.525854	0.891906	-1.007031
H245	H	-0.192521	1.225239	-0.673698
H246	H	0.140813	1.558572	-0.340364
H247	H	-0.312722	1.103124	-0.893430
H248	H	0.020611	1.436458	-0.560097
H249	H	0.353944	1.769791	-0.226763
H250	H	-0.510620	0.907051	-0.704516
H251	H	-0.177286	1.240384	-0.371183
H252	H	0.156047	1.573717	-0.037849
H253	H	-0.510766	1.410855	-0.200641
H254	H	-0.177433	1.744188	0.132692
H255	H	0.155901	2.077522	0.466025
O256	O	-0.832448	0.917326	-0.206277
O257	O	-0.499114	1.250660	0.127056
O258	O	-0.165781	1.583993	0.460389
H259	H	-0.797041	0.894340	-0.249119
H260	H	-0.463708	1.227673	0.084214
H261	H	-0.130374	1.561007	0.417547
O262	O	-0.327609	1.088407	-0.554204
O263	O	0.005724	1.421740	-0.220871
O264	O	0.339058	1.755073	0.112462
H265	H	-0.297476	1.118248	-0.590920
H266	H	0.035857	1.451581	-0.257587
H267	H	0.369191	1.784914	0.075746
O268	O	-0.516970	1.268020	-0.194474
O269	O	-0.183636	1.601353	0.138860
O270	O	0.149697	1.934686	0.472193
H271	H	-0.550175	1.307216	-0.161589
H272	H	-0.216842	1.640550	0.171745
H273	H	0.116491	1.973883	0.505078
H274	H	-0.345420	1.070742	-0.697974
H275	H	-0.012086	1.404075	-0.364640
H276	H	0.321247	1.737409	-0.031307
O277	O	-0.844095	1.136844	-0.265204
O278	O	-0.510761	1.470178	0.068130
O279	O	-0.177428	1.803511	0.401463
H280	H	-0.891424	1.163690	-0.237539
H281	H	-0.558091	1.497024	0.095794
H282	H	-0.224757	1.830357	0.429127
H283	H	-0.854610	1.091368	-0.370386
H284	H	-0.521277	1.424702	-0.037053
H285	H	-0.187944	1.758035	0.296281
O286	O	-0.327645	1.260656	-0.381918
O287	O	0.005689	1.593989	-0.048585
O288	O	0.339022	1.927323	0.284748
H289	H	-0.297527	1.297391	-0.411751
H290	H	0.035807	1.630724	-0.078418
H291	H	0.369140	1.964057	0.254916
H292	H	-0.318109	1.097769	-1.026997
H293	H	0.015224	1.431103	-0.693664
H294	H	0.348558	1.764436	-0.360331
O295	O	-0.990119	1.100357	-0.384239
O296	O	-0.656785	1.433690	-0.050905
O297	O	-0.323452	1.767023	0.282428
H298	H	-1.051382	1.103504	-0.382437
H299	H	-0.718048	1.436838	-0.049104
H300	H	-0.384715	1.770171	0.284229
O301	O	-0.516865	0.900862	-0.561685
O302	O	-0.183532	1.234195	-0.228352
O303	O	0.149801	1.567528	0.104981
H304	H	-0.550057	0.867973	-0.600902
H305	H	-0.216724	1.201306	-0.267569
H306	H	0.116609	1.534639	0.065765
O307	O	-0.984594	1.134721	-0.259895
O308	O	-0.651261	1.468054	0.073438
O309	O	-0.317928	1.801387	0.406772
H310	H	-1.019489	1.174880	-0.285952
H311	H	-0.686156	1.508213	0.047381
H312	H	-0.352823	1.841546	0.380715
H313	H	-0.312860	1.599893	-0.396586
H314	H	0.020473	1.933226	-0.063253
H315	H	0.353807	2.266559	0.270080
O316	O	-0.333859	1.413685	-0.375761
O317	O	-0.000526	1.747018	-0.042428
O318	O	0.332808	2.080351	0.290906
H319	H	-0.300637	1.374487	-0.408630
H320	H	0.032696	1.707820	-0.075297
H321	H	0.366029	2.041154	0.258037
