data_functionalizedCrystal
_audit_creation_method	'MofGen! by Chris Wilmer'
_symmetry_space_group_name_H-M	'P1'
_symmetry_Int_Tables_number	1
_symmetry_cell_setting	triclinic
loop_
_symmetry_equiv_pos_as_xyz
  x,y,z
_cell_length_a	10.489741
_cell_length_b	9.016244
_cell_length_c	10.540539
_cell_angle_alpha	89.999933
_cell_angle_beta	84.532333
_cell_angle_gamma	89.995333
loop_
_atom_site_label
_atom_site_type_symbol
_atom_site_fract_x
_atom_site_fract_y
_atom_site_fract_z
O1	O	1.694038	-0.123241	0.179097
O2	O	1.322840	-0.123263	0.195909
O3	O	1.516908	-0.123250	0.002798
O4	O	1.499970	-0.123254	0.372209
O5	O	1.516879	0.123431	0.002802
O6	O	1.322812	0.123417	0.195913
O7	O	1.694009	0.123440	0.179102
Cu8	Cu	1.508408	0.145953	0.187508
Cu9	Cu	1.508442	-0.145776	0.187503
O10	O	1.499942	0.123426	0.372213
C11	C	1.275294	0.000074	0.194641
C12	C	1.133665	0.000065	0.190843
C13	C	1.515623	0.000088	-0.044503
C14	C	1.511823	0.000080	-0.185452
N15	N	1.508393	0.351139	0.187511
C16	C	1.065540	0.000081	0.067971
C17	C	0.973420	-0.121543	0.126012
C18	C	0.973426	0.121665	0.126046
C19	C	1.043411	-0.121659	0.248934
C20	C	1.043426	0.121658	0.248951
C21	C	0.951334	0.000004	0.307081
C22	C	1.741555	0.000099	0.180369
C23	C	1.883184	0.000098	0.184168
N24	N	1.508466	-0.350962	0.187490
C25	C	1.404261	0.586164	0.290466
C26	C	1.404492	0.414273	0.290852
C27	C	1.641758	0.413485	0.217660
C28	C	1.641189	0.585430	0.218389
C29	C	1.480485	0.585682	0.054069
C30	C	1.477425	0.413728	0.054933
C31	C	1.366206	-0.000483	-0.368896
C32	C	1.370058	0.000073	-0.222277
C33	C	1.580030	0.140951	-0.247099
C34	C	1.575192	0.141069	-0.393644
C35	C	1.578108	-0.139453	-0.394167
C36	C	1.579414	-0.141315	-0.247185
C37	C	1.501226	0.000085	0.419514
C38	C	1.505026	0.000084	0.560463
H39	H	1.115242	-0.000070	-0.033036
O40	O	1.347460	0.359782	0.024656
H41	H	1.305091	0.288679	0.103689
H42	H	1.532238	-0.246224	-0.425727
H43	H	1.682772	-0.149816	-0.222951
H44	H	0.942424	-0.224368	0.074021
O45	O	1.571312	0.356851	-0.051458
H46	H	1.641831	0.282759	-0.011323
H47	H	1.529507	-0.245528	-0.206334
H48	H	1.315988	0.101217	-0.180526
O49	O	1.674904	0.356454	0.345149
H50	H	1.596609	0.283724	0.387234
H51	H	1.305399	0.372123	0.272709
H52	H	1.680504	-0.140394	-0.441380
H53	H	0.942443	0.224489	0.074036
H54	H	1.074245	-0.224599	0.300881
O55	O	0.885856	-0.000055	0.441021
H56	H	0.913900	-0.101108	0.491703
H57	H	1.074454	0.224488	0.300899
O58	O	1.272584	0.641002	0.266833
H59	H	1.279996	0.713663	0.181445
O60	O	1.673598	0.638543	0.347327
H61	H	1.761843	0.707047	0.335532
H62	H	1.721195	0.372586	0.144706
O63	O	1.427768	0.643356	0.420851
H64	H	1.513349	0.716363	0.412632
O65	O	1.581091	0.639643	-0.047443
H66	H	1.534484	0.704312	-0.119818
O67	O	1.508390	0.280543	-0.431017
H68	H	1.421910	0.250375	-0.478338
O69	O	1.717930	0.147928	-0.217466
H70	H	1.739364	0.050834	-0.158341
H71	H	1.422478	0.373126	0.389838
H72	H	1.721216	0.627018	0.146409
H73	H	1.316388	-0.100909	-0.179682
O74	O	1.354368	0.643165	0.016069
H75	H	1.276002	0.608711	0.088252
O76	O	1.292014	-0.134271	-0.406807
H77	H	1.353283	-0.201793	-0.476408
H78	H	1.310422	0.099966	-0.399108
H79	H	1.677147	0.147466	-0.441600
O80	O	1.517253	0.279816	-0.190685
H81	H	1.437484	0.248857	-0.118760
