data_functionalizedCrystal
_audit_creation_method	'MofGen! by Chris Wilmer'
_symmetry_space_group_name_H-M	'P1'
_symmetry_Int_Tables_number	1
_symmetry_cell_setting	triclinic
loop_
_symmetry_equiv_pos_as_xyz
  x,y,z
_cell_length_a	19.077105
_cell_length_b	19.120786
_cell_length_c	19.076919
_cell_angle_alpha	90.269320
_cell_angle_beta	89.923776
_cell_angle_gamma	90.063747
loop_
_atom_site_label
_atom_site_type_symbol
_atom_site_fract_x
_atom_site_fract_y
_atom_site_fract_z
Zn1	Zn	1.044393	-0.338642	0.425365
Zn2	Zn	1.544393	0.161358	0.925365
Zn3	Zn	1.044421	-0.451190	0.302856
Zn4	Zn	1.544421	0.048810	0.802856
Zn5	Zn	0.931995	-0.329265	0.303575
Zn6	Zn	1.431995	0.170735	0.803575
Zn7	Zn	0.922260	-0.450768	0.415627
Zn8	Zn	1.422260	0.049232	0.915627
O9	O	0.985768	-0.392466	0.361856
O10	O	1.485768	0.107534	0.861856
O11	O	1.142561	-0.357673	0.412888
O12	O	1.642561	0.142327	0.912888
O13	O	1.033594	-0.431269	0.204786
O14	O	1.533594	0.068731	0.704786
O15	O	0.950968	-0.232557	0.324108
O16	O	1.450968	0.267443	0.824108
O17	O	1.142581	-0.440361	0.322881
O18	O	1.642581	0.059639	0.822881
O19	O	1.033546	-0.239446	0.413586
O20	O	1.533546	0.260554	0.913586
O21	O	0.950995	-0.341691	0.205315
O22	O	1.450995	0.158309	0.705315
O23	O	0.832540	-0.341281	0.314665
O24	O	1.332540	0.158719	0.814665
O25	O	0.934376	-0.439642	0.515084
O26	O	1.434376	0.060358	1.015084
O27	O	0.825388	-0.430549	0.396989
O28	O	1.325388	0.069451	0.896989
O29	O	1.024106	-0.357263	0.522238
O30	O	1.524106	0.142737	1.022238
O31	O	1.024154	-0.549086	0.313438
O32	O	1.524154	-0.049086	0.813438
O33	O	0.934403	-0.548776	0.396291
O34	O	1.434403	-0.048776	0.896291
C35	C	0.803511	-0.384853	0.354849
C36	C	1.303511	0.115147	0.854849
C37	C	0.725540	-0.381613	0.351867
C38	C	1.225540	0.118387	0.851867
C39	C	0.685204	-0.426633	0.393254
C40	C	1.185204	0.073367	0.893254
C41	C	0.611941	-0.423580	0.390456
C42	C	1.111941	0.076420	0.890456
C43	C	0.579017	-0.375510	0.346267
C44	C	1.079017	0.124490	0.846267
C45	C	0.619359	-0.330485	0.304878
C46	C	1.119359	0.169515	0.804878
C47	C	0.692620	-0.333535	0.307680
C48	C	1.192620	0.166465	0.807680
C49	C	0.360308	-0.361393	0.333302
C50	C	0.860308	0.138607	0.833302
C51	C	0.287042	-0.358348	0.330501
C52	C	0.787042	0.141652	0.830501
C53	C	0.279630	-0.451442	0.416081
C54	C	0.779630	0.048558	0.916081
C55	C	0.352892	-0.454491	0.418876
C56	C	0.852892	0.045509	0.918876
C57	C	0.393228	-0.409464	0.377490
C58	C	0.893228	0.090536	0.877490
N59	N	0.504131	-0.372389	0.343404
N60	N	1.004131	0.127611	0.843404
N61	N	0.468112	-0.412581	0.380357
N62	N	0.968112	0.087419	0.880357
C63	C	0.978243	-0.574330	0.353746
C64	C	1.478243	-0.074330	0.853746
C65	C	0.975088	-0.652136	0.350302
C66	C	1.475088	-0.152136	0.850302
C67	C	1.016564	-0.692215	0.395306
C68	C	1.516564	-0.192215	0.895306
C69	C	1.013596	-0.765322	0.392072
C70	C	1.513596	-0.265322	0.892072
C71	C	0.969155	-0.798347	0.343829
C72	C	1.469155	-0.298347	0.843829
C73	C	0.927673	-0.758262	0.298823
C74	C	1.427673	-0.258262	0.798823
C75	C	0.930638	-0.685157	0.302062
C76	C	1.430638	-0.185157	0.802062
C77	C	0.958050	-1.018902	0.331722
C78	C	1.458050	-0.518902	0.831722
C79	C	0.955090	-1.092012	0.328486
C80	C	1.455090	-0.592012	0.828486
C81	C	1.041012	-1.099067	0.421736
C82	C	1.541012	-0.599067	0.921736
C83	C	1.043976	-1.025960	0.424967
C84	C	1.543976	-0.525960	0.924967
C85	C	1.002492	-0.985881	0.379963
C86	C	1.502492	-0.485881	0.879963
C87	C	0.966121	-0.873074	0.340521
C88	C	1.466121	-0.373074	0.840521
C89	C	1.005522	-0.911156	0.383276
C90	C	1.505522	-0.411156	0.883276
C91	C	1.168736	-0.400110	0.368891
C92	C	1.668736	0.099890	0.868891
C93	C	1.246706	-0.403367	0.371889
C94	C	1.746706	0.096633	0.871889
C95	C	0.978152	-0.399452	0.544826
C96	C	1.478152	0.100548	1.044826
C97	C	0.974907	-0.402428	0.622796
C98	C	1.474907	0.097572	1.122796
C99	C	0.993340	-0.209894	0.370014
C100	C	1.493340	0.290106	0.870014
C101	C	0.996567	-0.132092	0.373490
C102	C	1.496567	0.367908	0.873490
C103	C	0.993396	-0.385459	0.179602
C104	C	1.493396	0.114541	0.679602
C105	C	0.996785	-0.382291	0.101645
C106	C	1.496785	0.117709	0.601645
C107	C	1.020097	-0.360938	0.663153
C108	C	1.520097	0.139062	1.163153
C109	C	1.017040	-0.363732	0.736415
C110	C	1.517040	0.136268	1.236415
C111	C	0.968794	-0.408020	0.769318
C112	C	1.468794	0.091980	1.269318
C113	C	0.923598	-0.449512	0.728956
C114	C	1.423598	0.050488	1.228956
C115	C	0.926653	-0.446714	0.655696
C116	C	1.426653	0.053286	1.155696
C117	C	0.954645	-0.420984	0.988023
C118	C	1.454645	0.079016	1.488023
C119	C	0.951595	-0.423781	1.061289
C120	C	1.451595	0.076219	1.561289
C121	C	1.045036	-0.338000	1.068742
C122	C	1.545036	0.162000	1.568742
C123	C	1.048089	-0.335209	0.995480
C124	C	1.548089	0.164791	1.495480
C125	C	1.002891	-0.376698	0.955125
C126	C	1.502891	0.123302	1.455125
N127	N	0.965669	-0.410879	0.844203
N128	N	1.465669	0.089121	1.344203
N129	N	1.006013	-0.373835	0.880241
N130	N	1.506013	0.126165	1.380241
H131	H	0.579102	-0.460240	0.424158
H132	H	1.079102	0.039760	0.924158
H133	H	0.260238	-0.319195	0.294522
H134	H	0.760238	0.180805	0.794522
C135	C	0.721413	-0.479514	0.441866
C136	C	1.221413	0.020486	0.941866
N137	N	0.748684	-0.519345	0.478484
N138	N	1.248684	-0.019345	0.978484
C139	C	0.404668	-0.311865	0.287771
C140	C	0.904668	0.188135	0.787771
N141	N	0.438082	-0.274560	0.253473
N142	N	0.938082	0.225440	0.753473
C143	C	1.054408	-0.874826	0.436340
C144	C	1.554408	-0.374826	0.936340
N145	N	1.091232	-0.847455	0.476305
N146	N	1.591232	-0.347455	0.976305
H147	H	0.912305	-0.459847	1.088076
H148	H	1.412305	0.040153	1.588076
C149	C	0.389103	-0.507375	0.467484
C150	C	0.889103	-0.007375	0.967484
N151	N	0.416377	-0.547211	0.504093
N152	N	0.916377	-0.047211	1.004093
H153	H	0.929939	-0.899972	0.301240
H154	H	1.429939	-0.399972	0.801240
H155	H	1.087378	-0.299147	0.968696
H156	H	1.587378	0.200853	1.468696
C157	C	0.235255	-0.500963	0.461608
C158	C	0.735255	-0.000963	0.961608
N159	N	0.201832	-0.538263	0.495903
N160	N	0.701832	-0.038263	0.995903
C161	C	0.583139	-0.277605	0.256271
C162	C	1.083139	0.222395	0.756271
N163	N	0.555860	-0.237777	0.219658
N164	N	1.055860	0.262223	0.719658
H165	H	1.047376	-0.797952	0.428714
H166	H	1.547376	-0.297952	0.928714
H167	H	0.891485	-0.785157	0.259546
H168	H	1.391485	-0.285157	0.759546
C169	C	0.736990	-0.284011	0.262149
C170	C	1.236990	0.215989	0.762149
N171	N	0.770408	-0.246707	0.227855
N172	N	1.270408	0.253293	0.727855
H173	H	1.052756	-0.665331	0.434587
H174	H	1.552756	-0.165331	0.934587
H175	H	1.080164	-0.999072	0.464250
H176	H	1.580164	-0.499072	0.964250
H177	H	1.074785	-1.131707	0.458376
H178	H	1.574785	-0.631707	0.958376
C179	C	0.906196	-1.128338	0.275416
C180	C	1.406196	-0.628338	0.775416
N181	N	0.869371	-1.155699	0.235445
N182	N	1.369371	-0.655699	0.735445
C183	C	0.912400	-0.974824	0.282232
C184	C	1.412400	-0.474824	0.782232
N185	N	0.878007	-0.941623	0.244959
N186	N	1.378007	-0.441623	0.744959
H187	H	0.896863	-0.652524	0.265416
H188	H	1.396863	-0.152524	0.765416
H189	H	1.059387	-0.324877	0.636369
H190	H	1.559387	0.175123	1.136369
C191	C	1.094742	-0.292357	1.113139
C192	C	1.594742	0.207643	1.613139
N193	N	1.132179	-0.257973	1.146580
N194	N	1.632179	0.242027	1.646580
H195	H	1.053841	-0.329949	0.769270
H196	H	1.553841	0.170051	1.269270
C197	C	0.904923	-0.466621	0.943641
C198	C	1.404923	0.033379	1.443641
N199	N	0.867469	-0.500996	0.910210
N200	N	1.367469	-0.000996	1.410210
C201	C	0.876941	-0.492357	0.611303
C202	C	1.376941	0.007643	1.111303
N203	N	0.839494	-0.526736	0.577868
N204	N	1.339494	-0.026736	1.077868
C205	C	0.870521	-0.498222	0.765152
C206	C	1.370521	0.001778	1.265152
N207	N	0.830541	-0.534911	0.792415
N208	N	1.330541	-0.034911	1.292415
