data_functionalizedCrystal
_audit_creation_method	'MofGen! by Chris Wilmer'
_symmetry_space_group_name_H-M	'P1'
_symmetry_Int_Tables_number	1
_symmetry_cell_setting	triclinic
loop_
_symmetry_equiv_pos_as_xyz
  x,y,z
_cell_length_a	17.000383
_cell_length_b	15.500227
_cell_length_c	17.000383
_cell_angle_alpha	87.396892
_cell_angle_beta	75.600303
_cell_angle_gamma	92.622316
loop_
_atom_site_label
_atom_site_type_symbol
_atom_site_fract_x
_atom_site_fract_y
_atom_site_fract_z
O1	O	1.058066	0.072003	0.024855
O2	O	0.824302	0.071991	0.053883
O3	O	0.955698	0.071994	-0.077513
O4	O	0.926671	0.072000	0.156251
O5	O	0.947726	-0.071894	-0.069568
O6	O	0.816331	-0.071898	0.061827
O7	O	1.050095	-0.071886	0.032799
Cu8	Cu	0.932485	-0.085030	0.048039
Cu9	Cu	0.941912	0.085135	0.038644
O10	O	0.918699	-0.071889	0.164195
C11	C	0.790554	0.000045	0.059414
C12	C	0.701871	0.000041	0.064050
N13	N	0.925860	-0.204715	0.054645
C14	C	0.199561	0.000073	0.093982
C15	C	0.282889	0.000073	0.089620
C16	C	0.339181	0.000064	0.013907
C17	C	0.312143	0.000066	-0.057448
C18	C	0.228817	0.000073	-0.053086
C19	C	0.591506	0.000049	-0.002943
C20	C	0.674837	0.000039	-0.007300
C21	C	0.645577	0.000048	0.139769
C22	C	0.562250	0.000050	0.144125
C23	C	0.535219	0.000055	0.072769
C24	C	0.424356	0.000061	0.009447
C25	C	0.450046	0.000065	0.077230
C26	C	0.981554	-0.249990	-0.001014
C27	C	0.976551	-0.340563	0.003990
C28	C	0.915857	-0.385859	0.064657
C29	C	0.860157	-0.340578	0.120319
C30	C	0.865158	-0.250007	0.115311
C31	C	0.897844	-0.659327	0.082684
C32	C	0.892850	-0.749904	0.087689
C33	C	1.009243	-0.749884	-0.028641
C34	C	1.014241	-0.659311	-0.033641
C35	C	0.958539	-0.614037	0.022018
C36	C	0.910743	-0.478440	0.069774
C37	C	0.963650	-0.521458	0.016897
C38	C	1.083843	0.000062	0.027268
C39	C	1.172527	0.000072	0.022632
C40	C	0.953271	0.000051	-0.103303
C41	C	0.957907	0.000054	-0.191986
N42	N	0.948543	0.204820	0.032030
C43	C	0.987841	0.000059	-0.694298
C44	C	0.983478	0.000054	-0.610970
C45	C	0.907765	0.000054	-0.554677
C46	C	0.836410	0.000051	-0.581715
C47	C	0.840772	0.000050	-0.665042
C48	C	0.890914	0.000050	-0.302351
C49	C	0.886557	0.000054	-0.219020
C50	C	1.033626	0.000055	-0.248280
C51	C	1.037982	0.000059	-0.331608
C52	C	0.966626	0.000052	-0.358639
C53	C	0.903305	0.000051	-0.469501
C54	C	0.971087	0.000048	-0.443812
C55	C	0.921126	0.000056	0.189985
C56	C	0.916490	0.000059	0.278668
H57	H	0.153731	0.000074	0.155636
F58	F	0.764831	0.000045	-0.693812
F59	F	0.805969	0.000051	-0.159109
F60	F	1.046157	-0.201791	-0.065581
F61	F	0.562749	0.000071	-0.078888
F62	F	0.390134	0.000079	0.157805
F63	F	0.755829	0.000047	-0.521801
F64	F	1.118566	0.000057	-0.391514
H65	H	0.206808	0.000073	-0.111187
F66	F	1.051664	0.000042	-0.503724
H67	H	0.304895	0.000082	0.147720
F68	F	1.035825	-0.388749	-0.055249
H69	H	1.013064	-0.484576	-0.032501
H70	H	0.819805	-0.213144	0.160633
F71	F	1.078838	-0.611104	-0.098208
F72	F	0.846149	-0.526652	0.134341
H73	H	0.843423	-0.786780	0.137095
H74	H	1.054592	-0.786754	-0.073957
F75	F	1.068426	0.000065	-0.754204
H76	H	1.091720	0.000068	-0.226263
F77	F	0.814970	0.000048	-0.331109
H78	H	0.852491	-0.622472	0.128005
H79	H	0.470199	0.000051	-0.052198
F80	F	1.059421	0.000071	-0.582204
F81	F	0.795558	-0.388786	0.184882
H82	H	0.516421	0.000059	0.205778
F83	F	0.674352	0.000046	0.215705
F84	F	0.822728	0.000056	-0.409584
H85	H	0.720670	0.000037	-0.068958
H86	H	0.357984	0.000064	-0.119096
