data_functionalizedCrystal
_audit_creation_method	'MofGen! by Chris Wilmer'
_symmetry_space_group_name_H-M	'P1'
_symmetry_Int_Tables_number	1
_symmetry_cell_setting	triclinic
loop_
_symmetry_equiv_pos_as_xyz
  x,y,z
_cell_length_a	15.944551
_cell_length_b	15.944493
_cell_length_c	13.596369
_cell_angle_alpha	89.999885
_cell_angle_beta	89.999164
_cell_angle_gamma	83.486891
loop_
_atom_site_label
_atom_site_type_symbol
_atom_site_fract_x
_atom_site_fract_y
_atom_site_fract_z
O1	O	1.114502	0.108336	-0.081676
O2	O	1.614502	0.608336	0.418324
O3	O	0.869950	0.121693	-0.081699
O4	O	1.369950	0.621693	0.418301
O5	O	0.998930	-0.007263	-0.081695
O6	O	1.498930	0.492737	0.418305
O7	O	0.985523	0.237293	-0.081680
O8	O	1.485523	0.737293	0.418320
O9	O	0.998917	-0.007270	0.081888
O10	O	1.498917	0.492730	0.581888
O11	O	0.869937	0.121686	0.081884
O12	O	1.369937	0.621686	0.581884
O13	O	1.114490	0.108330	0.081907
O14	O	1.614490	0.608330	0.581907
Zn15	Zn	0.992211	0.115007	0.107868
Zn16	Zn	1.492211	0.615007	0.607868
Zn17	Zn	0.992228	0.115016	-0.107660
Zn18	Zn	1.492228	0.615016	0.392340
O19	O	0.985510	0.237286	0.081903
O20	O	1.485510	0.737286	0.581903
C21	C	0.838650	0.121135	0.000090
C22	C	1.338650	0.621135	0.500090
C23	C	0.745404	0.119473	0.000080
C24	C	1.245404	0.619473	0.500080
C25	C	0.530565	0.035566	0.000094
C26	C	1.030565	0.535566	0.500094
C27	C	0.469543	0.074533	-0.080558
C28	C	0.969543	0.574533	0.419442
C29	C	0.574679	0.116465	0.000092
C30	C	1.074679	0.616465	0.500092
C31	C	0.469553	0.074545	0.080721
C32	C	0.969553	0.574545	0.580721
C33	C	0.409767	0.113555	0.000107
C34	C	0.909767	0.613555	0.500107
C35	C	0.514885	0.155454	-0.080628
C36	C	1.014885	0.655454	0.419372
C37	C	0.514901	0.155456	0.080725
C38	C	1.014901	0.655456	0.580725
C39	C	0.453897	0.194481	0.000053
C40	C	0.953897	0.694481	0.500053
C41	C	0.669681	0.118140	0.000082
C42	C	1.169681	0.618140	0.500082
C43	C	0.314766	0.111886	0.000110
C44	C	0.814766	0.611886	0.500110
C45	C	0.998375	-0.038562	0.000092
C46	C	1.498375	0.461438	0.500092
C47	C	0.996733	-0.131810	0.000080
C48	C	1.496733	0.368190	0.500080
C49	C	1.072653	-0.367570	0.000105
C50	C	1.572653	0.132430	0.500105
C51	C	1.031718	-0.418135	-0.080553
C52	C	1.531718	0.081865	0.419447
C53	C	0.993688	-0.302531	0.000092
C54	C	1.493688	0.197469	0.500092
C55	C	1.031687	-0.418118	0.080727
C56	C	1.531687	0.081882	0.580727
C57	C	0.990754	-0.467441	0.000107
C58	C	1.490754	0.032559	0.500107
C59	C	0.952775	-0.351868	-0.080633
C60	C	1.452775	0.148132	0.419367
C61	C	0.952756	-0.351847	0.080719
C62	C	1.452756	0.148153	0.580719
C63	C	0.911763	-0.402379	0.000041
C64	C	1.411763	0.097621	0.500041
C65	C	0.995381	-0.207531	0.000082
C66	C	1.495381	0.292469	0.500082
C67	C	0.989055	-0.562438	0.000110
C68	C	1.489055	-0.062438	0.500110
C69	C	1.145790	0.108887	0.000117
C70	C	1.645790	0.608887	0.500117
C71	C	1.239036	0.110550	0.000120
C72	C	1.739036	0.610550	0.500120
C73	C	0.986064	0.268584	0.000114
C74	C	1.486064	0.768584	0.500114
C75	C	0.987707	0.361833	0.000120
C76	C	1.487707	0.861833	0.500120
N77	N	0.992206	0.115000	0.254960
N78	N	1.492206	0.615000	0.754960
N79	N	0.992240	0.115016	-0.254751
N80	N	1.492240	0.615016	0.245249
C81	C	0.992227	0.115017	0.656251
C82	C	1.492227	0.615017	1.156251
C83	C	0.992219	0.115015	0.544599
C84	C	1.492219	0.615015	1.044599
C85	C	0.992217	0.115009	0.455609
C86	C	1.492217	0.615009	0.955609
C87	C	0.992208	0.115006	0.343950
C88	C	1.492208	0.615006	0.843950
H89	H	0.535020	0.189641	0.148918
H90	H	1.035020	0.689641	0.648918
H91	H	0.843692	-0.417845	-0.000009
H92	H	1.343692	0.082155	0.499991
H93	H	1.140671	-0.351942	0.000031
H94	H	1.640671	0.148058	0.500031
H95	H	0.919431	-0.322889	0.148907
H96	H	1.419431	0.177111	0.648907
H97	H	0.919452	-0.323045	-0.148896
H98	H	1.419452	0.176955	0.351104
H99	H	0.449468	0.040310	0.148904
H100	H	0.949468	0.540310	0.648904
H101	H	0.563912	-0.031574	-0.000010
H102	H	1.063912	0.468426	0.499990
H103	H	0.449445	0.040319	-0.148749
H104	H	0.949445	0.540319	0.351251
H105	H	1.065046	-0.447052	0.148913
H106	H	1.565046	0.052948	0.648913
H107	H	0.534871	0.189649	-0.148887
H108	H	1.034871	0.689649	0.351113
H109	H	0.420724	0.261690	0.000012
H110	H	0.920724	0.761690	0.500012
H111	H	1.065071	-0.447078	-0.148738
H112	H	1.565071	0.052922	0.351262
