data_functionalizedCrystal
_audit_creation_method	'MofGen! by Chris Wilmer'
_symmetry_space_group_name_H-M	'P1'
_symmetry_Int_Tables_number	1
_symmetry_cell_setting	triclinic
loop_
_symmetry_equiv_pos_as_xyz
  x,y,z
_cell_length_a	18.101395
_cell_length_b	10.685940
_cell_length_c	10.685453
_cell_angle_alpha	90.338927
_cell_angle_beta	85.610525
_cell_angle_gamma	94.405349
loop_
_atom_site_label
_atom_site_type_symbol
_atom_site_fract_x
_atom_site_fract_y
_atom_site_fract_z
Zn1	Zn	-0.172470	1.863188	-0.856309
Zn2	Zn	-0.305014	1.879164	-0.646514
Zn3	Zn	-0.191353	1.669553	-0.630470
Zn4	Zn	-0.306453	1.653323	-0.840162
O5	O	-0.243823	1.766307	-0.743364
O6	O	-0.181548	2.040859	-0.841952
O7	O	-0.297237	1.864837	-0.468829
O8	O	-0.085209	1.695345	-0.660471
O9	O	-0.278927	2.052597	-0.687816
O10	O	-0.071336	1.837608	-0.826394
O11	O	-0.213731	1.710837	-0.457042
O12	O	-0.215126	1.491848	-0.644814
O13	O	-0.281380	1.667684	-1.017861
O14	O	-0.299690	1.479924	-0.798874
O15	O	-0.182944	1.821871	-1.029724
O16	O	-0.408844	1.849100	-0.672159
O17	O	-0.409902	1.683176	-0.814432
C18	C	-0.259614	1.440368	-0.718352
C19	C	-0.266386	1.300927	-0.707681
C20	C	-0.436243	1.766142	-0.743314
C21	C	-0.518554	1.766183	-0.743344
C22	C	-0.230216	1.741185	-1.070585
C23	C	-0.224418	1.730479	-1.210027
C24	C	-0.817629	1.766453	-0.743432
C25	C	-0.786979	1.662264	-0.833204
C26	C	-0.701396	1.661828	-0.832865
C27	C	-0.669254	1.766319	-0.743390
C28	C	-0.707616	1.740707	-0.608431
C29	C	-0.793267	1.740038	-0.608965
C30	C	-0.778135	1.896556	-0.787471
C31	C	-0.692402	1.895552	-0.790311
C32	C	-0.585399	1.766246	-0.743357
C33	C	-0.901484	1.766524	-0.743456
C34	C	-0.050648	1.766505	-0.743444
C35	C	0.031671	1.766589	-0.743478
C36	C	-0.227970	2.093519	-0.768475
C37	C	-0.221215	2.232958	-0.779176
C38	C	-0.257319	1.791404	-0.417422
C39	C	-0.262897	1.802352	-0.277999
H40	H	-0.802379	1.676863	-0.933257
N41	N	-0.309569	1.890087	-0.217205
N42	N	-0.282187	1.975395	-0.150453
H43	H	-0.315147	2.037361	-0.107518
H44	H	-0.310225	2.252444	-0.638282
N45	N	-0.166210	2.293795	-0.866224
N46	N	-0.160611	2.410780	-0.875084
H47	H	-0.121764	2.453749	-0.936560
N48	N	-0.177731	1.642792	-0.270842
N49	N	-0.173110	1.633727	-0.387814
H50	H	-0.140136	1.571798	-0.430774
H51	H	-0.797822	1.974055	-0.722211
H52	H	-0.675186	1.676673	-0.932617
H53	H	-0.814223	1.566200	-0.803559
H54	H	-0.686671	1.565188	-0.802892
H55	H	-0.819202	1.645237	-0.572840
H56	H	-0.687017	1.814654	-0.539276
N57	N	-0.819044	1.831774	-0.521480
N58	N	-0.773775	1.896080	-0.460220
H59	H	-0.791978	1.960854	-0.398420
H60	H	-0.692094	1.646972	-0.571871
N61	N	-0.798241	1.928329	-0.909508
N62	N	-0.749248	1.944771	-0.998070
H63	H	-0.763447	1.967196	-1.084264
N64	N	-0.660158	1.920004	-0.914972
N65	N	-0.620270	1.842604	-0.969133
H66	H	-0.597495	1.859868	-1.057176
H67	H	-0.670028	1.976467	-0.730501
