data_functionalizedCrystal
_audit_creation_method	'MofGen! by Chris Wilmer'
_symmetry_space_group_name_H-M	'P1'
_symmetry_Int_Tables_number	1
_symmetry_cell_setting	triclinic
loop_
_symmetry_equiv_pos_as_xyz
  x,y,z
_cell_length_a	14.971491
_cell_length_b	9.065215
_cell_length_c	13.448316
_cell_angle_alpha	89.994392
_cell_angle_beta	89.991393
_cell_angle_gamma	84.315466
loop_
_atom_site_label
_atom_site_type_symbol
_atom_site_fract_x
_atom_site_fract_y
_atom_site_fract_z
O1	O	1.188376	0.192298	-0.082732
O2	O	1.688376	0.692298	0.417268
O3	O	0.928148	0.215314	-0.082725
O4	O	1.428148	0.715314	0.417275
O5	O	1.063643	-0.010946	-0.082725
O6	O	1.563643	0.489054	0.417275
O7	O	1.052882	0.418557	-0.082733
O8	O	1.552882	0.918557	0.417267
O9	O	1.063625	-0.010960	0.082659
O10	O	1.563625	0.489040	0.582659
O11	O	0.928131	0.215300	0.082659
O12	O	1.428131	0.715300	0.582659
O13	O	1.188359	0.192284	0.082651
O14	O	1.688359	0.692284	0.582651
Cu15	Cu	1.058243	0.203791	0.097756
Cu16	Cu	1.558243	0.703791	0.597756
Cu17	Cu	1.058264	0.203807	-0.097829
Cu18	Cu	1.558264	0.703807	0.402171
O19	O	1.052865	0.418544	0.082651
O20	O	1.552865	0.918544	0.582651
C21	C	0.894807	0.214276	-0.000032
C22	C	1.394807	0.714276	0.499968
C23	C	0.795488	0.211187	-0.000029
C24	C	1.295488	0.711187	0.499971
C25	C	0.367692	0.197868	-0.090203
C26	C	0.867692	0.697868	0.409797
C27	C	0.461014	0.200765	-0.090199
C28	C	0.961014	0.700765	0.409801
C29	C	0.507661	0.202216	-0.000045
C30	C	1.007661	0.702216	0.499955
C31	C	0.460983	0.200754	0.090112
C32	C	0.960983	0.700754	0.590112
C33	C	0.367663	0.197846	0.090107
C34	C	0.867663	0.697846	0.590107
C35	C	0.655490	0.206819	0.090115
C36	C	1.155490	0.706819	0.590115
C37	C	0.748815	0.209730	0.090120
C38	C	1.248815	0.709730	0.590120
C39	C	0.748840	0.209738	-0.090191
C40	C	1.248840	0.709738	0.409809
C41	C	0.655521	0.206830	-0.090195
C42	C	1.155521	0.706830	0.409805
C43	C	0.608849	0.205371	-0.000039
C44	C	1.108849	0.705371	0.499961
C45	C	1.062600	-0.065918	-0.000034
C46	C	1.562600	0.434082	0.499966
C47	C	1.059510	-0.229699	-0.000037
C48	C	1.559510	0.270301	0.499963
C49	C	1.221700	0.193322	-0.000044
C50	C	1.721700	0.693322	0.499956
C51	C	1.321020	0.196410	-0.000053
C52	C	1.821020	0.696410	0.499947
C53	C	1.053907	0.473516	-0.000042
C54	C	1.553907	0.973516	0.499958
C55	C	1.056997	0.637297	-0.000046
C56	C	1.556997	1.137297	0.499954
N57	N	1.058236	0.203778	0.235320
N58	N	1.558236	0.703778	0.735320
N59	N	1.058279	0.203808	-0.235394
N60	N	1.558279	0.703808	0.264606
C61	C	1.118252	0.103632	0.287361
C62	C	1.618252	0.603632	0.787361
C63	C	1.118257	0.103630	0.391464
C64	C	1.618257	0.603630	0.891464
C65	C	1.058250	0.203784	0.443525
C66	C	1.558250	0.703784	0.943525
C67	C	0.998228	0.303935	0.391477
C68	C	1.498228	0.803935	0.891477
C69	C	0.998219	0.303928	0.287376
C70	C	1.498219	0.803928	0.787376
C71	C	0.998253	0.303945	0.608457
C72	C	1.498253	0.803945	1.108457
C73	C	0.998263	0.303954	0.712566
C74	C	1.498263	0.803954	1.212566
C75	C	1.118291	0.103647	0.712545
C76	C	1.618291	0.603647	1.212545
C77	C	1.118282	0.103640	0.608444
C78	C	1.618282	0.603640	1.108444
C79	C	1.058260	0.203794	0.556404
C80	C	1.558260	0.703794	1.056404
H81	H	0.786845	0.210928	-0.163599
H82	H	1.286845	0.710928	0.336401
H83	H	0.617491	0.205649	0.163530
H84	H	1.117491	0.705649	0.663530
Br85	Br	0.592213	0.204880	-0.212549
Br86	Br	1.092213	0.704880	0.287451
Br87	Br	0.812123	0.211691	0.212474
Br88	Br	1.312123	0.711691	0.712474
Br89	Br	0.524289	0.202715	0.212466
Br90	Br	1.024289	0.702715	0.712466
Br91	Br	1.199705	-0.032290	0.462094
Br92	Br	1.699705	0.467710	0.962094
Br93	Br	1.199701	-0.032289	0.216718
Br94	Br	1.699701	0.467711	0.716718
Br95	Br	0.304323	0.195847	0.212457
Br96	Br	0.804323	0.695847	0.712457
Br97	Br	1.199752	-0.032266	0.783175
Br98	Br	1.699752	0.467734	1.283175
H99	H	0.949365	0.385477	0.433871
H100	H	1.449365	0.885477	0.933871
Br101	Br	0.524353	0.202729	-0.212550
Br102	Br	1.024353	0.702729	0.287450
H103	H	1.167148	0.022095	0.566056
H104	H	1.667148	0.522095	1.066056
H105	H	0.949374	0.385496	0.566089
H106	H	1.449374	0.885496	1.066089
H107	H	0.949398	0.385508	0.754948
H108	H	1.449398	0.885508	1.254948
H109	H	0.329718	0.196697	-0.163617
H110	H	0.829718	0.696697	0.336383
Br111	Br	0.916759	0.439838	0.216749
Br112	Br	1.416759	0.939838	0.716749
