data_functionalizedCrystal
_audit_creation_method	'MofGen! by Chris Wilmer'
_symmetry_space_group_name_H-M	'P1'
_symmetry_Int_Tables_number	1
_symmetry_cell_setting	triclinic
loop_
_symmetry_equiv_pos_as_xyz
  x,y,z
_cell_length_a	23.532407
_cell_length_b	23.532409
_cell_length_c	22.010155
_cell_angle_alpha	90.007292
_cell_angle_beta	89.994271
_cell_angle_gamma	82.849153
loop_
_atom_site_label
_atom_site_type_symbol
_atom_site_fract_x
_atom_site_fract_y
_atom_site_fract_z
O1	O	0.755264	0.069127	-0.050483
O2	O	1.255264	0.569127	0.449517
O3	O	0.589401	0.079130	-0.050492
O4	O	1.089401	0.579130	0.449508
O5	O	0.677334	-0.008803	-0.050488
O6	O	1.177334	0.491197	0.449512
O7	O	0.667332	0.157060	-0.050487
O8	O	1.167332	0.657060	0.449513
O9	O	0.677318	-0.008790	0.050562
O10	O	1.177318	0.491210	0.550562
O11	O	0.589385	0.079144	0.050558
O12	O	1.089385	0.579144	0.550558
O13	O	0.755248	0.069140	0.050567
O14	O	1.255248	0.569140	0.550567
Cu15	Cu	0.672315	0.074143	0.059790
Cu16	Cu	1.172315	0.574143	0.559790
Cu17	Cu	0.672334	0.074128	-0.059714
Cu18	Cu	1.172334	0.574128	0.440286
O19	O	0.667316	0.157074	0.050563
O20	O	1.167316	0.657074	0.550563
C21	C	0.568177	0.078882	0.000032
C22	C	1.068177	0.578882	0.500032
C23	C	0.504960	0.078116	0.000028
C24	C	1.004960	0.578116	0.500028
C25	C	0.238792	0.022921	0.000045
C26	C	0.738792	0.522921	0.500045
C27	C	0.298192	0.023632	0.000044
C28	C	0.798192	0.523632	0.500044
O29	O	0.334936	-0.020153	0.000065
O30	O	0.834936	0.479847	0.500065
N31	N	0.320819	0.075909	0.000041
N32	N	0.820819	0.575909	0.500041
C33	C	0.284042	0.127477	0.000043
C34	C	0.784042	0.627477	0.500043
O35	O	0.308742	0.172007	0.000040
O36	O	0.808742	0.672007	0.500040
C37	C	0.224643	0.126765	0.000048
C38	C	0.724643	0.626765	0.500048
C39	C	0.202020	0.074485	0.000045
C40	C	0.702020	0.574485	0.500045
C41	C	0.216168	-0.029354	0.000043
C42	C	0.716168	0.470646	0.500043
C43	C	0.156772	-0.030066	0.000042
C44	C	0.656772	0.469934	0.500042
C45	C	0.120000	0.021499	0.000043
C46	C	0.620000	0.521499	0.500043
C47	C	0.142623	0.073774	0.000044
C48	C	0.642623	0.573774	0.500044
C49	C	0.187867	0.178332	0.000054
C50	C	0.687867	0.678332	0.500054
C51	C	0.128464	0.177616	0.000059
C52	C	0.628464	0.677616	0.500059
C53	C	0.105841	0.125336	0.000057
C54	C	0.605841	0.625336	0.500057
C55	C	0.046455	0.124627	0.000044
C56	C	0.546455	0.624627	0.500044
N57	N	0.023828	0.072351	0.000048
N58	N	0.523828	0.572351	0.500048
C59	C	0.060601	0.020787	0.000047
C60	C	0.560601	0.520787	0.500047
C61	C	0.408784	0.128968	0.000035
C62	C	0.908784	0.628968	0.500035
C63	C	0.468182	0.129681	0.000026
C64	C	0.968182	0.629681	0.500026
C65	C	0.482329	0.025836	0.000028
C66	C	0.982329	0.525836	0.500028
C67	C	0.422930	0.025124	0.000033
C68	C	0.922930	0.525124	0.500033
C69	C	0.386158	0.076692	0.000039
C70	C	0.886158	0.576692	0.500039
C71	C	-0.064136	0.019297	0.000045
C72	C	0.435864	0.519297	0.500045
C73	C	-0.123538	0.018590	0.000041
C74	C	0.376462	0.518590	0.500041
C75	C	-0.137680	0.122435	0.000042
C76	C	0.362320	0.622435	0.500042
C77	C	-0.078283	0.123142	0.000042
C78	C	0.421717	0.623142	0.500042
C79	C	-0.041512	0.071568	0.000046
C80	C	0.458488	0.571568	0.500046
O81	O	0.009676	0.168390	0.000026
O82	O	0.509676	0.668390	0.500026
O83	O	0.035892	-0.023736	0.000058
O84	O	0.535892	0.476264	0.500058
C85	C	0.677071	-0.030012	0.000036
C86	C	1.177071	0.469988	0.500036
C87	C	0.676304	-0.093229	0.000031
C88	C	1.176304	0.406771	0.500031
C89	C	0.673054	-0.366481	-0.055054
C90	C	1.173054	0.133519	0.444946
C91	C	0.673766	-0.307081	-0.055054
C92	C	1.173766	0.192919	0.444946
O93	O	0.674161	-0.276363	-0.101898
O94	O	1.174161	0.223637	0.398102
N95	N	0.674109	-0.277372	0.000029
N96	N	1.174109	0.222628	0.500029
C97	C	0.673747	-0.307067	0.055116
C98	C	1.173747	0.192933	0.555116
O99	O	0.674105	-0.276342	0.101969
O100	O	1.174105	0.223658	0.601969
C101	C	0.673039	-0.366466	0.055116
C102	C	1.173039	0.133534	0.555116
C103	C	0.672690	-0.396172	0.000029
C104	C	1.172690	0.103828	0.500029
C105	C	0.672705	-0.396187	-0.110137
C106	C	1.172705	0.103813	0.389863
C107	C	0.671993	-0.455583	-0.110136
C108	C	1.171993	0.044417	0.389864
C109	C	0.671629	-0.485273	-0.055054
C110	C	1.171629	0.014727	0.444946
C111	C	0.671977	-0.455568	0.000029
C112	C	1.171977	0.044432	0.500029
C113	C	0.672681	-0.396161	0.110202
C114	C	1.172681	0.103839	0.610202
C115	C	0.671974	-0.455564	0.110197
C116	C	1.171974	0.044436	0.610197
C117	C	0.671625	-0.485270	0.055110
C118	C	1.171625	0.014730	0.555110
C119	C	0.670901	-0.544654	0.055112
C120	C	1.170901	-0.044654	0.555112
N121	N	0.670557	-0.574363	0.000029
N122	N	1.170557	-0.074363	0.500029
C123	C	0.670921	-0.544673	-0.055054
C124	C	1.170921	-0.044673	0.444946
C125	C	0.675234	-0.182323	0.055113
C126	C	1.175234	0.317677	0.555113
C127	C	0.675937	-0.122924	0.055115
C128	C	1.175937	0.377076	0.555115
C129	C	0.675957	-0.122943	-0.055056
C130	C	1.175957	0.377057	0.444944
C131	C	0.675249	-0.182343	-0.055057
C132	C	1.175249	0.317657	0.444943
C133	C	0.674890	-0.212033	0.000030
C134	C	1.174890	0.287967	0.500030
C135	C	0.669424	-0.669409	-0.055049
C136	C	1.169424	-0.169409	0.444951
C137	C	0.668709	-0.728810	-0.055044
C138	C	1.168709	-0.228810	0.444956
C139	C	0.668692	-0.728786	0.055126
C140	C	1.168692	-0.228786	0.555126
C141	C	0.669404	-0.669390	0.055122
C142	C	1.169404	-0.169390	0.555122
C143	C	0.669772	-0.639703	0.000029
C144	C	1.169772	-0.139703	0.500029
O145	O	0.670507	-0.575411	0.101932
O146	O	1.170507	-0.075411	0.601932
O147	O	0.670570	-0.575406	-0.101899
O148	O	1.170570	-0.075406	0.398101
C149	C	0.776472	0.069389	0.000042
C150	C	1.276472	0.569389	0.500042
C151	C	0.839689	0.070154	0.000042
C152	C	1.339689	0.570154	0.500042
C153	C	0.667578	0.178283	0.000038
C154	C	1.167578	0.678283	0.500038
C155	C	0.668345	0.241500	0.000039
C156	C	1.168345	0.741500	0.500039
N157	N	0.672306	0.074154	0.143842
N158	N	1.172306	0.574154	0.643842
N159	N	0.672348	0.074112	-0.143767
N160	N	1.172348	0.574112	0.356233
C161	C	0.711273	0.035196	0.563623
C162	C	1.211273	0.535196	1.063623
C163	C	0.711275	0.035192	0.627231
C164	C	1.211275	0.535192	1.127231
O165	O	0.744383	0.002077	0.660124
O166	O	1.244383	0.502077	1.160124
N167	N	0.672334	0.074116	0.659049
N168	N	1.172334	0.574116	1.159049
C169	C	0.633383	0.113042	0.627257
C170	C	1.133383	0.613042	1.127257
O171	O	0.600260	0.146148	0.660161
O172	O	1.100260	0.646148	1.160161
C173	C	0.633378	0.113042	0.563650
C174	C	1.133378	0.613042	1.063650
C175	C	0.672326	0.074120	0.531835
C176	C	1.172326	0.574120	1.031835
C177	C	0.750217	-0.003723	0.531808
C178	C	1.250217	0.496277	1.031808
C179	C	0.750215	-0.003718	0.468205
C180	C	1.250215	0.496282	0.968205
C181	C	0.711269	0.035206	0.436417
C182	C	1.211269	0.535206	0.936417
C183	C	0.672324	0.074125	0.468232
C184	C	1.172324	0.574125	0.968232
C185	C	0.594425	0.151965	0.531859
C186	C	1.094425	0.651965	1.031859
C187	C	0.594423	0.151962	0.468248
C188	C	1.094423	0.651962	0.968248
C189	C	0.633371	0.113040	0.436433
C190	C	1.133371	0.613040	0.936433
C191	C	0.633375	0.113054	0.372841
C192	C	1.133375	0.613054	0.872841
N193	N	0.672317	0.074131	0.341022
N194	N	1.172317	0.574131	0.841022
C195	C	0.711264	0.035207	0.372810
C196	C	1.211264	0.535207	0.872810
C197	C	0.633396	0.113036	0.760834
C198	C	1.133396	0.613036	1.260834
C199	C	0.633403	0.113039	0.824440
C200	C	1.133403	0.613039	1.324440
C201	C	0.711295	0.035189	0.824410
C202	C	1.211295	0.535189	1.324410
C203	C	0.711290	0.035189	0.760803
C204	C	1.211290	0.535189	1.260803
C205	C	0.672337	0.074113	0.729016
C206	C	1.172337	0.574113	1.229016
C207	C	0.711257	0.035220	0.239239
C208	C	1.211257	0.535220	0.739239
C209	C	0.711253	0.035230	0.175630
C210	C	1.211253	0.535230	0.675630
C211	C	0.633359	0.113078	0.175666
C212	C	1.133359	0.613078	0.675666
C213	C	0.633365	0.113070	0.239269
C214	C	1.133365	0.613070	0.739269
C215	C	0.672316	0.074136	0.271054
C216	C	1.172316	0.574136	0.771054
O217	O	0.600283	0.146151	0.339907
O218	O	1.100283	0.646151	0.839907
O219	O	0.744376	0.002101	0.339898
O220	O	1.244376	0.502101	0.839898
H221	H	-0.167630	0.164417	0.000039
H222	H	0.332370	0.664417	0.500039
C223	C	0.674828	-0.214976	0.115717
C224	C	1.174828	0.285024	0.615717
N225	N	0.674521	-0.239566	0.161364
N226	N	1.174521	0.260434	0.661364
C227	C	0.668289	-0.761457	0.115715
C228	C	1.168289	-0.261457	0.615715
N229	N	0.667989	-0.786066	0.161350
N230	N	1.167989	-0.286066	0.661350
H231	H	0.601694	0.144739	0.850339
H232	H	1.101694	0.644739	1.350339
H233	H	0.671682	-0.479735	0.155056
H234	H	1.171682	0.020265	0.655056
H235	H	0.676211	-0.098742	0.099972
H236	H	1.176211	0.401258	0.599972
H237	H	0.743004	0.003496	0.734903
H238	H	1.243004	0.503496	1.234903
C239	C	0.674878	-0.215015	-0.115656
C240	C	1.174878	0.284985	0.384344
N241	N	0.674603	-0.239621	-0.161303
N242	N	1.174603	0.260379	0.338697
H243	H	0.601677	0.144737	0.734956
H244	H	1.101677	0.644737	1.234956
C245	C	0.676363	-0.090273	-0.115649
C246	C	1.176363	0.409727	0.384351
N247	N	0.676670	-0.065664	-0.161285
N248	N	1.176670	0.434336	0.338715
H249	H	0.742971	0.003535	0.149728
H250	H	1.242971	0.503535	0.649728
C251	C	0.673103	-0.363537	-0.170738
C252	C	1.173103	0.136463	0.329262
N253	N	0.673398	-0.338948	-0.216387
N254	N	1.173398	0.161052	0.283613
H255	H	0.562710	0.183659	0.557754
H256	H	1.062710	0.683659	1.057754
H257	H	0.672972	-0.371985	0.155060
H258	H	1.172972	0.128015	0.655060
C259	C	0.131895	-0.087578	0.000054
C260	C	0.631895	0.412422	0.500054
N261	N	0.113162	-0.130899	0.000069
N262	N	0.613162	0.369101	0.500069
C263	C	0.754106	-0.007608	0.274193
C264	C	1.254106	0.492392	0.774193
N265	N	0.786383	-0.039863	0.300520
N266	N	1.286383	0.460137	0.800520
C267	C	0.793056	-0.046542	0.433217
C268	C	1.293056	0.453458	0.933217
N269	N	0.825323	-0.078802	0.406867
N270	N	1.325323	0.421198	0.906867
C271	C	0.551577	0.194788	0.433286
C272	C	1.051577	0.694788	0.933286
N273	N	0.519308	0.227048	0.406954
N274	N	1.019308	0.727048	0.906954
C275	C	0.088018	0.234346	0.000064
C276	C	0.588018	0.734346	0.500064
N277	N	0.057555	0.277075	0.000065
N278	N	0.557555	0.777075	0.500065
H279	H	0.601655	0.144769	0.265173
H280	H	1.101655	0.644769	0.765173
C281	C	-0.053397	0.180651	0.000038
C282	C	0.446603	0.680651	0.500038
N283	N	-0.034657	0.223969	0.000040
N284	N	0.465343	0.723969	0.500040
H285	H	0.601651	0.144771	0.149774
H286	H	1.101651	0.644771	0.649774
H287	H	0.743006	0.003494	0.850303
H288	H	1.243006	0.503494	1.350303
H289	H	0.668422	-0.752993	-0.099905
H290	H	1.168422	-0.252993	0.400095
C291	C	0.669785	-0.636713	0.115720
C292	C	1.169785	-0.136713	0.615720
N293	N	0.670079	-0.612105	0.161364
N294	N	1.170079	-0.112105	0.661364
H295	H	0.669724	-0.645245	-0.099911
H296	H	1.169724	-0.145245	0.400089
C297	C	0.793061	-0.046551	0.566765
C298	C	1.293061	0.453449	1.066765
N299	N	0.825335	-0.078810	0.593090
N300	N	1.325335	0.421190	1.093090
H301	H	0.671712	-0.479764	-0.154994
H302	H	1.171712	0.020236	0.345006
H303	H	-0.141954	-0.023984	0.000038
H304	H	0.358046	0.476016	0.500038
C305	C	-0.023697	-0.037437	0.000044
C306	C	0.476303	0.462563	0.500044
N307	N	0.006762	-0.080169	0.000038
N308	N	0.506762	0.419831	0.500038
H309	H	0.246103	-0.071347	0.000044
H310	H	0.746103	0.428653	0.500044
H311	H	0.404514	-0.017447	0.000031
H312	H	0.904514	0.482553	0.500031
H313	H	0.512280	-0.016150	0.000028
H314	H	1.012280	0.483850	0.500028
H315	H	0.378847	0.170964	0.000035
H316	H	0.878847	0.670964	0.500035
C317	C	0.212738	0.235845	0.000067
C318	C	0.712738	0.735845	0.500067
N319	N	0.231470	0.279167	0.000081
N320	N	0.731470	0.779167	0.500081
C321	C	0.493060	0.187192	0.000023
C322	C	0.993060	0.687192	0.500023
N323	N	0.511796	0.230512	0.000026
N324	N	1.011796	0.730512	0.500026
