data_functionalizedCrystal
_audit_creation_method	'MofGen! by Chris Wilmer'
_symmetry_space_group_name_H-M	'P1'
_symmetry_Int_Tables_number	1
_symmetry_cell_setting	triclinic
loop_
_symmetry_equiv_pos_as_xyz
  x,y,z
_cell_length_a	13.635800
_cell_length_b	11.353959
_cell_length_c	17.982968
_cell_angle_alpha	74.284753
_cell_angle_beta	102.451960
_cell_angle_gamma	72.473377
loop_
_atom_site_label
_atom_site_type_symbol
_atom_site_fract_x
_atom_site_fract_y
_atom_site_fract_z
V1	V	2.027275	-0.182254	0.261726
O2	O	2.000599	0.007497	0.232032
O3	O	2.022335	-0.360166	0.283703
O4	O	2.000285	-0.180004	0.365031
O5	O	2.022802	-0.173912	0.150141
V6	V	2.266954	-0.159492	0.245492
O7	O	2.162470	-0.232184	0.297336
O8	O	2.356858	-0.109562	0.209883
O9	O	2.160291	0.018420	0.223515
O10	O	2.352328	-0.349243	0.275186
O11	O	2.330126	-0.167834	0.357077
O12	O	2.182341	-0.161742	0.142188
V13	V	2.527275	-0.182254	0.261726
O14	O	2.500599	0.007497	0.232032
O15	O	2.522335	-0.360166	0.283703
O16	O	2.500285	-0.180004	0.365031
O17	O	2.522802	-0.173912	0.150141
V18	V	2.766954	-0.159492	0.245492
O19	O	2.662470	-0.232184	0.297336
O20	O	2.856858	-0.109562	0.209883
O21	O	2.660291	0.018420	0.223515
O22	O	2.852328	-0.349243	0.275186
O23	O	2.830126	-0.167834	0.357077
O24	O	2.682341	-0.161742	0.142188
C25	C	1.949611	-0.403519	0.285707
C26	C	1.986196	-0.548968	0.304364
C27	C	1.983054	-0.595716	0.243975
C28	C	2.020866	-0.746044	0.263256
C29	C	1.921483	-0.173703	0.389447
C30	C	1.940185	-0.173041	0.474055
C31	C	2.064687	0.061767	0.221511
C32	C	2.017721	0.207214	0.202858
C33	C	2.092814	-0.168047	0.117768
C34	C	2.063731	-0.168703	0.033158
C35	C	2.449611	-0.403519	0.285707
C36	C	2.486196	-0.548968	0.304364
C37	C	2.421483	-0.173703	0.389447
C38	C	2.440185	-0.173041	0.474055
C39	C	2.040641	-0.179286	0.518555
C40	C	2.058208	-0.178663	0.598053
C41	C	1.975319	-0.171804	0.633052
C42	C	1.874854	-0.165554	0.588545
C43	C	1.857286	-0.166168	0.509046
C44	C	1.945699	-0.163076	0.909153
C45	C	1.963276	-0.162467	0.988658
C46	C	2.146621	-0.175571	0.998160
C47	C	2.129053	-0.176185	0.918662
C48	C	2.028588	-0.169928	0.874160
C49	C	2.009541	-0.170602	0.787959
C50	C	1.994367	-0.171140	0.719254
C51	C	2.564687	0.061767	0.221511
C52	C	2.517721	0.207214	0.202858
C53	C	2.592814	-0.168047	0.117768
C54	C	2.563731	-0.168703	0.033158
C55	C	2.595074	-0.623964	0.317820
C56	C	2.629468	-0.760633	0.335362
C57	C	2.554980	-0.822302	0.339443
C58	C	2.446093	-0.747297	0.325988
C59	C	2.411703	-0.610632	0.308451
C60	C	2.540645	-0.179273	0.518540
C61	C	2.558227	-0.178634	0.598035
C62	C	2.475350	-0.171771	0.633046
C63	C	2.374881	-0.165534	0.588555
C64	C	2.357298	-0.166164	0.509059
C65	C	2.581336	0.282209	0.189405
C66	C	2.537214	0.418877	0.171866
C67	C	2.429479	0.480546	0.167787
C68	C	2.365859	0.405542	0.181240
C69	C	2.409978	0.268878	0.198773
C70	C	2.464375	-0.175550	-0.001836
C71	C	2.437029	-0.176151	-0.081338
C72	C	2.509043	-0.169913	-0.125844
C73	C	2.608406	-0.163061	-0.090846
C74	C	2.635748	-0.162451	-0.011347
H75	H	1.952375	-0.524445	0.177999
H76	H	2.486773	-0.170427	-0.190573
Cl77	Cl	2.230419	0.483090	0.176105
Cl78	Cl	2.698933	-0.155236	-0.146804
H79	H	2.307409	-0.159947	0.617073
Cl80	Cl	2.068247	-0.856067	0.365127
H81	H	2.358170	0.207825	0.209733
H82	H	1.987040	-0.721521	0.136878
Cl83	Cl	2.033577	-0.658995	0.406230
Cl84	Cl	2.760668	-0.153863	0.032639
Cl85	Cl	2.144855	-0.187919	0.474568
Cl86	Cl	2.184505	-0.186532	0.653997
Cl87	Cl	2.598232	-0.994112	0.361488
Cl88	Cl	2.231000	-0.158347	0.453149
Cl89	Cl	2.233263	-0.184815	0.874670
Cl90	Cl	1.859063	-0.153840	1.032654
Cl91	Cl	2.272921	-0.183430	1.054109
Cl92	Cl	2.497474	-0.170986	0.732987
Cl93	Cl	2.352463	-0.824843	0.331116
Cl94	Cl	1.819412	-0.155247	0.853227
Cl95	Cl	2.688740	-0.546469	0.312702
H96	H	1.807363	-0.159961	0.617045
H97	H	2.323043	-0.549579	0.297492
Cl98	Cl	2.716778	0.204713	0.194527
Cl99	Cl	2.617213	0.513139	0.154959
H100	H	2.718132	-0.821683	0.346313
Cl101	Cl	1.730990	-0.158304	0.453100
H102	H	2.608140	-0.184865	0.490045
Cl103	Cl	2.684539	-0.186486	0.653953
H104	H	2.393567	0.591827	0.153509
Cl105	Cl	2.373822	-0.183390	0.054098
Cl106	Cl	2.312117	-0.184777	-0.125316
