data_functionalizedCrystal
_audit_creation_method	'MofGen! by Chris Wilmer'
_symmetry_space_group_name_H-M	'P1'
_symmetry_Int_Tables_number	1
_symmetry_cell_setting	triclinic
loop_
_symmetry_equiv_pos_as_xyz
  x,y,z
_cell_length_a	12.759401
_cell_length_b	12.759399
_cell_length_c	10.685986
_cell_angle_alpha	94.405452
_cell_angle_beta	85.650052
_cell_angle_gamma	90.012458
loop_
_atom_site_label
_atom_site_type_symbol
_atom_site_fract_x
_atom_site_fract_y
_atom_site_fract_z
Zn1	Zn	-1.560745	0.372655	-0.713466
Zn2	Zn	-1.574100	0.561859	-0.502480
Zn3	Zn	-1.398506	0.386188	-0.502486
Zn4	Zn	-1.385039	0.548289	-0.713430
O5	O	-1.479598	0.467248	-0.607965
O6	O	-1.709537	0.397768	-0.685491
O7	O	-1.562032	0.549898	-0.325901
O8	O	-1.420074	0.237371	-0.530490
O9	O	-1.719349	0.536775	-0.530480
O10	O	-1.539270	0.227428	-0.685497
O11	O	-1.433024	0.420834	-0.325906
O12	O	-1.249699	0.407676	-0.530455
O13	O	-1.397122	0.513649	-0.890014
O14	O	-1.239806	0.526771	-0.685435
O15	O	-1.526212	0.384611	-0.890041
O16	O	-1.548974	0.707081	-0.530445
O17	O	-1.410072	0.697112	-0.685429
C18	C	-1.206632	0.467221	-0.607942
C19	C	-1.089854	0.467232	-0.607963
C20	C	-1.029876	0.394963	-0.688800
C21	C	-0.920151	0.394969	-0.688806
C22	C	-0.930393	0.539523	-0.527134
C23	C	-1.040116	0.539512	-0.527122
C24	C	-1.479538	0.740216	-0.607960
C25	C	-1.479605	0.856990	-0.608000
C26	C	-1.458675	0.446107	-0.937092
C27	C	-1.449760	0.437097	-1.077347
C28	C	-0.753630	0.467266	-0.607984
C29	C	-0.870407	0.467250	-0.607981
C30	C	-1.552003	0.917002	-0.527396
C31	C	-1.552069	1.026722	-0.527448
C32	C	-1.407330	1.016409	-0.688711
C33	C	-1.407270	0.906690	-0.688664
C34	C	-1.479687	1.193211	-0.608020
C35	C	-1.479731	1.076429	-0.608098
C36	C	-1.500499	0.488231	-0.280119
C37	C	-1.509618	0.496944	-0.139865
H38	H	-1.088952	0.598364	-0.461288
Br39	Br	-1.650333	1.108163	-0.418059
Br40	Br	-1.352981	0.340206	-1.166970
Br41	Br	-1.650172	0.849553	-0.417925
H42	H	-1.348436	1.056889	-0.754383
H43	H	-1.348315	0.857825	-0.754308
Br44	Br	-0.838756	0.296881	-0.798515
H45	H	-1.567694	0.555069	-1.086084
H46	H	-1.070369	0.336106	-0.754621
H47	H	-0.889883	0.598371	-0.461318
