data_functionalizedCrystal
_audit_creation_method	'MofGen! by Chris Wilmer'
_symmetry_space_group_name_H-M	'P1'
_symmetry_Int_Tables_number	1
_symmetry_cell_setting	triclinic
loop_
_symmetry_equiv_pos_as_xyz
  x,y,z
_cell_length_a	12.759395
_cell_length_b	12.594516
_cell_length_c	12.594509
_cell_angle_alpha	89.973452
_cell_angle_beta	90.017549
_cell_angle_gamma	89.973424
loop_
_atom_site_label
_atom_site_type_symbol
_atom_site_fract_x
_atom_site_fract_y
_atom_site_fract_z
Zn1	Zn	1.606161	0.423715	0.601765
Zn2	Zn	1.606021	0.601725	0.423792
Zn3	Zn	1.430465	0.423760	0.423806
Zn4	Zn	1.430415	0.601651	0.601734
O5	O	1.518266	0.512713	0.512774
O6	O	1.753164	0.447340	0.578164
O7	O	1.582695	0.578167	0.274848
O8	O	1.453852	0.274808	0.447431
O9	O	1.753061	0.578123	0.447408
O10	O	1.582935	0.274775	0.578178
O11	O	1.453715	0.447418	0.274858
O12	O	1.283438	0.447346	0.447401
O13	O	1.453766	0.577997	0.750684
O14	O	1.283401	0.578042	0.578124
O15	O	1.582886	0.447268	0.750707
O16	O	1.582647	0.750661	0.447377
O17	O	1.453630	0.750607	0.578110
C18	C	1.245298	0.512691	0.512761
C19	C	1.128521	0.512708	0.512781
C20	C	1.128610	0.376743	0.649157
C21	C	1.073793	0.308774	0.717354
C22	C	0.964071	0.308793	0.717367
C23	C	0.909164	0.376786	0.649174
C24	C	0.963981	0.444756	0.580977
C25	C	1.073705	0.444732	0.580974
C26	C	0.963892	0.580713	0.444597
C27	C	1.073614	0.580701	0.444587
C28	C	0.908985	0.648707	0.376404
C29	C	0.963802	0.716683	0.308211
C30	C	1.073530	0.716662	0.308201
C31	C	1.128431	0.648671	0.376391
C32	C	1.518146	0.789254	0.512762
C33	C	1.518191	0.907559	0.512792
C34	C	1.447999	0.976821	0.583848
C35	C	1.422388	1.047687	0.486726
C36	C	1.543859	1.047493	0.609930
C37	C	1.492529	0.976866	0.415619
C38	C	1.614045	0.976666	0.538888
C39	C	1.588470	1.047499	0.441700
C40	C	1.792299	0.512735	0.512788
C41	C	1.909076	0.512744	0.512794
C42	C	1.518336	0.512619	0.790395
C43	C	1.518366	0.512580	0.908701
C44	C	1.518368	1.235092	0.512808
C45	C	1.518294	1.116786	0.512819
C46	C	1.518256	0.512729	0.236233
C47	C	1.518430	0.512469	0.117928
C48	C	1.448160	0.583643	0.977941
C49	C	1.544020	0.609649	1.048726
C50	C	1.422580	0.486509	1.048715
C51	C	1.614277	0.538637	0.977927
C52	C	1.492772	0.415452	0.977910
C53	C	1.588699	0.441421	1.048663
H54	H	0.919087	0.772033	0.252689
F55	F	0.792388	0.376791	0.649180
F56	F	0.792209	0.648721	0.376415
F57	F	1.316493	1.088459	0.457879
H58	H	1.565703	0.691741	1.079832
H59	H	1.695332	0.560735	0.946963
F60	F	1.464086	0.936488	0.308228
H61	H	1.695039	0.945450	0.560985
F62	F	1.666117	1.087808	0.363086
H63	H	1.118155	0.772008	0.252663
H64	H	1.217772	0.648642	0.376384
H65	H	1.565528	1.078517	0.692067
H66	H	1.388835	0.643832	0.946889
H67	H	1.648166	0.381278	1.079519
F68	F	1.370299	0.936255	0.662276
H69	H	1.341548	0.464505	1.079810
F70	F	1.245385	0.376730	0.649160
F71	F	1.132236	0.236413	0.789925
F72	F	1.464396	0.308182	0.937219
H73	H	0.919440	0.253440	0.772893
