data_functionalizedCrystal
_audit_creation_method	'MofGen! by Chris Wilmer'
_symmetry_space_group_name_H-M	'P1'
_symmetry_Int_Tables_number	1
_symmetry_cell_setting	triclinic
loop_
_symmetry_equiv_pos_as_xyz
  x,y,z
_cell_length_a	14.044220
_cell_length_b	14.044190
_cell_length_c	9.130313
_cell_angle_alpha	89.990619
_cell_angle_beta	90.001436
_cell_angle_gamma	93.190328
loop_
_atom_site_label
_atom_site_type_symbol
_atom_site_fract_x
_atom_site_fract_y
_atom_site_fract_z
O1	O	1.277172	0.230168	-0.121673
O2	O	1.000501	0.221862	-0.121709
O3	O	1.134680	0.087679	-0.121663
O4	O	1.142993	0.364351	-0.121720
O5	O	1.134670	0.087674	0.121936
O6	O	1.000490	0.221857	0.121890
O7	O	1.277162	0.230163	0.121926
Cu8	Cu	1.138825	0.226010	0.144150
Cu9	Cu	1.138838	0.226016	-0.143934
O10	O	1.142983	0.364346	0.121879
C11	C	0.964874	0.218224	0.000086
C12	C	0.858731	0.207380	0.000073
C13	C	0.664392	0.187553	0.000106
C14	C	0.613264	0.264468	0.000097
C15	C	0.505128	0.253436	0.000115
C16	C	0.772539	0.198583	0.000088
C17	C	1.131039	0.052054	0.000140
C18	C	1.120191	-0.054089	0.000152
C19	C	1.177292	-0.299547	0.000102
C20	C	1.100375	-0.248422	0.000102
C21	C	1.111404	-0.140285	0.000130
C22	C	1.166265	-0.407694	0.000074
C23	C	1.312789	0.233801	0.000127
C24	C	1.418932	0.244646	0.000130
C25	C	1.146624	0.399971	0.000073
C26	C	1.157472	0.506114	0.000052
N27	N	1.138824	0.226005	0.346773
N28	N	1.138846	0.226013	-0.346556
C29	C	1.198262	0.166618	0.423445
C30	C	1.198271	0.166619	0.576782
C31	C	1.079401	0.285403	0.576761
C32	C	1.079387	0.285396	0.423427
H33	H	1.026243	-0.285865	0.000084
H34	H	0.626954	0.113425	0.000130
O35	O	1.265657	-0.254735	0.000203
C36	C	1.357350	-0.104520	0.000190
C37	C	1.257222	-0.155162	0.000101
H38	H	1.350564	-0.024007	0.000077
H39	H	1.397807	-0.125996	0.102167
H40	H	1.397810	-0.126076	-0.101724
H41	H	1.216683	-0.133632	0.101946
H42	H	1.216837	-0.133684	-0.101944
H43	H	1.030981	0.333757	0.360996
O44	O	1.021720	0.343230	0.651060
C45	C	0.979839	0.504479	0.697984
C46	C	1.045211	0.439095	0.613731
H47	H	0.998820	0.582000	0.667859
H48	H	0.902306	0.485599	0.667823
H49	H	0.990038	0.494237	0.820741
H50	H	1.035095	0.449302	0.490955
H51	H	1.122719	0.457991	0.644014
O52	O	0.657809	0.352964	-0.000143
C53	C	0.681691	0.503053	-0.126471
C54	C	0.631166	0.402872	-0.126352
H55	H	0.660184	0.543425	-0.228515
H56	H	0.660149	0.543575	-0.024610
H57	H	0.762208	0.496297	-0.126417
H58	H	0.550640	0.409540	-0.126458
H59	H	0.652785	0.362387	-0.228204
O60	O	1.255882	0.108763	0.349081
C61	C	1.297799	-0.052502	0.302393
C62	C	1.232470	0.012923	0.386647
H63	H	1.278908	-0.130001	0.332757
H64	H	1.287595	-0.042417	0.179603
H65	H	1.375314	-0.033510	0.332522
H66	H	1.154930	-0.006028	0.356641
H67	H	1.242756	0.002828	0.509417
H68	H	1.246670	0.118259	0.639204
