data_functionalizedCrystal
_audit_creation_method	'MofGen! by Chris Wilmer'
_symmetry_space_group_name_H-M	'P1'
_symmetry_Int_Tables_number	1
_symmetry_cell_setting	triclinic
loop_
_symmetry_equiv_pos_as_xyz
  x,y,z
_cell_length_a	19.288864
_cell_length_b	16.109301
_cell_length_c	17.766277
_cell_angle_alpha	89.992214
_cell_angle_beta	89.976791
_cell_angle_gamma	83.298863
loop_
_atom_site_label
_atom_site_type_symbol
_atom_site_fract_x
_atom_site_fract_y
_atom_site_fract_z
O1	O	0.921601	0.103716	-0.062838
O2	O	1.421601	0.603716	0.437162
O3	O	0.719373	0.117707	-0.062787
O4	O	1.219373	0.617707	0.437213
O5	O	0.826042	-0.010338	-0.062806
O6	O	1.326042	0.489662	0.437194
O7	O	0.814932	0.231761	-0.062819
O8	O	1.314932	0.731761	0.437181
O9	O	0.826024	-0.010345	0.062382
O10	O	1.326024	0.489655	0.562382
O11	O	0.719355	0.117701	0.062402
O12	O	1.219355	0.617701	0.562402
O13	O	0.921582	0.103710	0.062351
O14	O	1.421582	0.603710	0.562351
Cu15	Cu	0.820467	0.110704	0.073807
Cu16	Cu	1.320467	0.610704	0.573807
Cu17	Cu	0.820489	0.110712	-0.074243
Cu18	Cu	1.320489	0.610712	0.425757
O19	O	0.814913	0.231755	0.062370
O20	O	1.314913	0.731755	0.562370
C21	C	0.693487	0.117254	-0.000186
C22	C	1.193487	0.617254	0.499814
C23	C	0.616380	0.115902	-0.000166
C24	C	1.116380	0.615902	0.499834
C25	C	0.825583	-0.041315	-0.000211
C26	C	1.325583	0.458685	0.499789
C27	C	0.824234	-0.133606	-0.000210
C28	C	1.324234	0.366394	0.499790
C29	C	0.571863	0.191034	-0.000182
C30	C	1.071863	0.691034	0.499818
C31	C	0.499413	0.189764	-0.000190
C32	C	0.999413	0.689764	0.499810
C33	C	0.471483	0.113359	-0.000198
C34	C	0.971483	0.613359	0.499802
C35	C	0.516009	0.038218	-0.000178
C36	C	1.016009	0.538218	0.499822
C37	C	0.588458	0.039489	-0.000162
C38	C	1.088458	0.539489	0.499838
C39	C	0.363084	0.053298	-0.044079
C40	C	0.863084	0.553298	0.455921
C41	C	0.290636	0.052029	-0.044100
C42	C	0.790636	0.552029	0.455900
C43	C	0.248028	0.109433	-0.000243
C44	C	0.748028	0.609433	0.499757
C45	C	0.277874	0.168120	0.043624
C46	C	0.777874	0.668120	0.543624
C47	C	0.350323	0.169391	0.043640
C48	C	0.850323	0.669391	0.543640
C49	C	0.392925	0.111971	-0.000214
C50	C	0.892925	0.611971	0.499786
C51	C	0.124952	0.183193	-0.000267
C52	C	0.624952	0.683193	0.499733
C53	C	0.052501	0.181920	-0.000270
C54	C	0.552501	0.681920	0.499730
C55	C	0.069099	0.030372	-0.000266
C56	C	0.569099	0.530372	0.499734
C57	C	0.141548	0.031647	-0.000254
C58	C	0.641548	0.531647	0.499746
C59	C	0.169470	0.108060	-0.000259
C60	C	0.669470	0.608060	0.499741
C61	C	0.884391	-0.356084	-0.000237
C62	C	1.384391	0.143916	0.499763
C63	C	0.883118	-0.442800	-0.000243
C64	C	1.383118	0.057200	0.499757
C65	C	0.756559	-0.422493	-0.000208
C66	C	1.256559	0.077507	0.499792
C67	C	0.757833	-0.335778	-0.000208
C68	C	1.257833	0.164222	0.499792
C69	C	0.821751	-0.302577	-0.000218
C70	C	1.321751	0.197423	0.499782
C71	C	0.819204	-0.476007	-0.000225
C72	C	1.319204	0.023993	0.499775
C73	C	0.817823	-0.570028	-0.000231
C74	C	1.317823	-0.070028	0.499769
C75	C	0.823133	-0.208549	-0.000213
C76	C	1.323133	0.291451	0.499787
C77	C	0.947469	0.104163	-0.000252
C78	C	1.447469	0.604163	0.499748
C79	C	1.024576	0.105514	-0.000277
C80	C	1.524576	0.605514	0.499723
C81	C	0.815372	0.262732	-0.000227
C82	C	1.315372	0.762732	0.499773
C83	C	0.816722	0.355022	-0.000233
C84	C	1.316722	0.855022	0.499767
N85	N	0.820456	0.110699	0.177937
N86	N	1.320456	0.610699	0.677937
N87	N	0.820505	0.110711	-0.178373
N88	N	1.320505	0.610711	0.321627
C89	C	0.867704	0.054028	0.217315
C90	C	1.367704	0.554028	0.717315
C91	C	0.867708	0.054024	0.296117
C92	C	1.367708	0.554024	0.796117
C93	C	0.820471	0.110705	0.335538
C94	C	1.320471	0.610705	0.835538
C95	C	0.773214	0.167380	0.296150
C96	C	1.273214	0.667380	0.796150
C97	C	0.773206	0.167377	0.217350
C98	C	1.273206	0.667377	0.717350
C99	C	0.811353	0.186459	0.460373
C100	C	1.311353	0.686459	0.960373
C101	C	0.811365	0.186463	0.539172
C102	C	1.311365	0.686463	1.039172
C103	C	0.820489	0.110715	0.578584
C104	C	1.320489	0.610715	1.078584
C105	C	0.829616	0.034960	0.539188
C106	C	1.329616	0.534960	1.039188
C107	C	0.829609	0.034956	0.460387
C108	C	1.329609	0.534956	0.960387
C109	C	0.820473	0.110715	0.420983
C110	C	1.320473	0.610715	0.920983
C111	C	0.867745	0.054035	0.703408
C112	C	1.367745	0.554035	1.203408
C113	C	0.867744	0.054030	0.782212
C114	C	1.367744	0.554030	1.282212
C115	C	0.773252	0.167394	0.782243
C116	C	1.273252	0.667394	1.282243
C117	C	0.773250	0.167392	0.703441
C118	C	1.273250	0.667392	1.203441
C119	C	0.820500	0.110713	0.664028
C120	C	1.320500	0.610713	1.164028
H121	H	0.594592	0.253255	-0.000187
H122	H	1.094592	0.753255	0.499813
C123	C	0.450435	0.272411	-0.000219
C124	C	0.950435	0.772411	0.499781
H125	H	0.477441	0.318101	-0.000226
H126	H	0.977441	0.818101	0.499774
H127	H	0.421798	0.275072	0.043426
H128	H	0.921798	0.775072	0.543426
H129	H	0.421859	0.275053	-0.043891
H130	H	0.921859	0.775053	0.456109
C131	C	0.686255	-0.459018	-0.000186
C132	C	1.186255	0.040982	0.499814
H133	H	0.694466	-0.518326	-0.000180
H134	H	1.194466	-0.018326	0.499820
H135	H	0.660466	-0.440631	-0.043833
H136	H	1.160466	0.059369	0.456167
H137	H	0.660463	-0.440639	0.043485
H138	H	1.160463	0.059361	0.543485
C139	C	0.919670	-0.008325	0.173966
C140	C	1.419670	0.491675	0.673966
H141	H	0.947806	-0.042082	0.208709
H142	H	1.447806	0.457918	0.708709
H143	H	0.948571	0.021490	0.143201
H144	H	1.448571	0.521490	0.643201
H145	H	0.894686	-0.042864	0.143250
H146	H	1.394686	0.457136	0.643250
H147	H	0.734788	0.213542	0.814338
H148	H	1.234788	0.713542	1.314338
H149	H	0.046359	-0.031839	-0.000318
H150	H	0.546359	0.468161	0.499682
C151	C	0.954696	-0.319560	-0.000255
C152	C	1.454696	0.180440	0.499745
H153	H	0.946486	-0.260252	-0.000244
H154	H	1.446486	0.239748	0.499756
H155	H	0.980493	-0.337936	-0.043918
H156	H	1.480493	0.162064	0.456082
H157	H	0.980481	-0.337951	0.043399
H158	H	1.480481	0.162049	0.543399
C159	C	0.801327	0.269787	0.582505
C160	C	1.301327	0.769787	1.082505
H161	H	0.802647	0.258942	0.635079
H162	H	1.302647	0.758942	1.135079
H163	H	0.757511	0.299563	0.569611
H164	H	1.257511	0.799563	1.069611
H165	H	0.837642	0.302257	0.569563
H166	H	1.337642	0.802257	1.069563
C167	C	0.839648	-0.048368	0.582530
C168	C	1.339648	0.451632	1.082530
H169	H	0.838336	-0.037520	0.635102
H170	H	1.338336	0.462480	1.135102
H171	H	0.883459	-0.078153	0.569600
H172	H	1.383459	0.421847	1.069600
H173	H	0.803325	-0.080831	0.569635
H174	H	1.303325	0.419169	1.069635
H175	H	0.734751	0.213530	0.328250
H176	H	1.234751	0.713530	0.828250
C177	C	0.919709	-0.008315	0.660052
C178	C	1.419709	0.491685	1.160052
H179	H	0.947843	-0.042077	0.694793
H180	H	1.447843	0.457923	1.194793
H181	H	0.948612	0.021502	0.629291
H182	H	1.448612	0.521502	1.129291
H183	H	0.894725	-0.042851	0.629331
H184	H	1.394725	0.457149	1.129331
H185	H	0.147687	0.245413	-0.000259
H186	H	0.647687	0.745413	0.499741
H187	H	0.493264	-0.023992	-0.000194
H188	H	0.993264	0.476008	0.499806
C189	C	0.383156	0.233933	0.091893
C190	C	0.883156	0.733933	0.591893
H191	H	0.432405	0.226470	0.085615
H192	H	0.932405	0.726470	0.585615
H193	H	0.372056	0.226416	0.143358
H194	H	0.872056	0.726416	0.643358
H195	H	0.365270	0.288737	0.076465
H196	H	0.865270	0.788737	0.576465
C197	C	0.231014	0.231272	0.091864
C198	C	0.731014	0.731272	0.591864
H199	H	0.183592	0.222107	0.085579
H200	H	0.683592	0.722107	0.585579
H201	H	0.236872	0.286485	0.076439
H202	H	0.736872	0.786485	0.576439
H203	H	0.243660	0.224171	0.143337
H204	H	0.743660	0.724171	0.643337
H205	H	0.934126	-0.486363	-0.000260
H206	H	1.434126	0.013637	0.499740
C207	C	0.919685	-0.008315	0.339443
C208	C	1.419685	0.491685	0.839443
H209	H	0.947825	-0.042068	0.304684
H210	H	1.447825	0.457932	0.804684
H211	H	0.894715	-0.042848	0.370204
H212	H	1.394715	0.457152	0.870204
H213	H	0.948591	0.021518	0.370159
H214	H	1.448591	0.521518	0.870159
C215	C	0.919721	-0.008309	0.825528
C216	C	1.419721	0.491691	1.325528
H217	H	0.947863	-0.042057	0.790766
H218	H	1.447863	0.457943	1.290766
H219	H	0.894754	-0.042847	0.856287
H220	H	1.394754	0.457153	1.356287
H221	H	0.948626	0.021523	0.856247
H222	H	1.448626	0.521523	1.356247
C223	C	0.721283	0.229740	0.660122
C224	C	1.221283	0.729740	1.160122
H225	H	0.693154	0.263502	0.694884
H226	H	1.193154	0.763502	1.194884
H227	H	0.692377	0.199921	0.629401
H228	H	1.192377	0.699921	1.129401
H229	H	0.746263	0.264274	0.629366
H230	H	1.246263	0.764274	1.129366
H231	H	0.803911	0.248146	0.428290
H232	H	1.303911	0.748146	0.928290
H233	H	0.177795	-0.029534	-0.000246
H234	H	0.677795	0.470466	0.499754
H235	H	0.016255	0.243104	-0.000279
H236	H	0.516255	0.743104	0.499721
H237	H	0.266341	0.004247	-0.079822
H238	H	0.766341	0.504247	0.420178
C239	C	0.721236	0.229723	0.174032
C240	C	1.221236	0.729723	0.674032
H241	H	0.693104	0.263485	0.208792
H242	H	1.193104	0.763485	0.708792
H243	H	0.692331	0.199905	0.143308
H244	H	1.192331	0.699905	0.643308
H245	H	0.746216	0.264260	0.143277
H246	H	1.246216	0.764260	0.643277
H247	H	0.837038	-0.026726	0.428314
H248	H	1.337038	0.473274	0.928314
C249	C	0.409946	-0.009844	-0.092331
C250	C	0.909946	0.490156	0.407669
H251	H	0.381795	-0.044966	-0.118468
H252	H	0.881795	0.455034	0.381532
H253	H	0.441872	-0.042923	-0.060712
H254	H	0.941872	0.457077	0.439288
H255	H	0.435074	0.019411	-0.127594
H256	H	0.935074	0.519411	0.372406
H257	H	0.624704	-0.021694	-0.000150
H258	H	1.124704	0.478306	0.499850
C259	C	0.688926	-0.276916	-0.000185
C260	C	1.188926	0.223084	0.499815
H261	H	0.650676	-0.309108	-0.000167
H262	H	1.150676	0.190892	0.499833
H263	H	0.686798	-0.242660	-0.043839
H264	H	1.186798	0.257340	0.456161
H265	H	0.686790	-0.242675	0.043478
H266	H	1.186790	0.257325	0.543478
