data_functionalizedCrystal
_audit_creation_method	'MofGen! by Chris Wilmer'
_symmetry_space_group_name_H-M	'P1'
_symmetry_Int_Tables_number	1
_symmetry_cell_setting	triclinic
loop_
_symmetry_equiv_pos_as_xyz
  x,y,z
_cell_length_a	13.032721
_cell_length_b	13.032951
_cell_length_c	13.033109
_cell_angle_alpha	103.335629
_cell_angle_beta	105.143326
_cell_angle_gamma	89.099524
loop_
_atom_site_label
_atom_site_type_symbol
_atom_site_fract_x
_atom_site_fract_y
_atom_site_fract_z
Zn1	Zn	-0.734713	-1.617275	-0.889218
Zn2	Zn	-0.884038	-1.577769	-0.728422
Zn3	Zn	-0.683875	-1.422831	-0.683379
Zn4	Zn	-0.883938	-1.422795	-0.883450
O5	O	-0.796641	-1.510167	-0.796117
O6	O	-0.775838	-1.758267	-0.889153
O7	O	-0.836252	-1.540698	-0.571422
O8	O	-0.544399	-1.465172	-0.694248
O9	O	-0.885547	-1.729243	-0.771016
O10	O	-0.581749	-1.608030	-0.845477
O11	O	-0.689194	-1.426865	-0.538330
O12	O	-0.689097	-1.276593	-0.688655
O13	O	-0.885377	-1.465111	-1.035239
O14	O	-0.836082	-1.276567	-0.835646
O15	O	-0.775741	-1.607995	-1.039477
O16	O	-1.030245	-1.540663	-0.765423
O17	O	-1.030171	-1.426804	-0.879321
C18	C	-0.757063	-1.238663	-0.756637
C19	C	-0.740160	-1.122512	-0.739776
C20	C	-0.805438	-1.070721	-0.804900
C21	C	-0.787969	-0.950673	-0.787475
C22	C	-1.068129	-1.479474	-0.826661
C23	C	-1.184291	-1.466442	-0.839778
C24	C	-1.236097	-1.517029	-0.789328
C25	C	-1.356157	-1.503562	-0.802884
C26	C	-0.524101	-1.541012	-0.765482
C27	C	-0.407960	-1.554156	-0.752427
C28	C	-0.836219	-1.540956	-1.077612
C29	C	-0.853084	-1.554076	-1.197569
C30	C	-0.836362	-0.782732	-0.835744
C31	C	-0.853256	-0.898885	-0.852608
C32	C	-0.787842	-1.503603	-1.234675
C33	C	-0.805272	-1.517163	-1.358656
C34	C	-0.757151	-1.479567	-0.515718
C35	C	-0.740020	-1.466683	-0.395758
H36	H	-0.874253	-1.115256	-0.873559
H37	H	-1.191570	-1.570314	-0.736105
H38	H	-0.874038	-1.570415	-1.418671
O39	O	-0.657935	-1.069463	-0.657972
C40	C	-0.467936	-1.050261	-0.580982
C41	C	-0.560954	-1.110408	-0.673705
H42	H	-0.389506	-1.083356	-0.593657
H43	H	-0.468391	-0.962906	-0.581520
H44	H	-0.477061	-1.060039	-0.499070
H45	H	-0.551891	-1.100715	-0.755663
H46	H	-0.560469	-1.197739	-0.673069
H47	H	-1.363435	-1.607444	-0.699200
O48	O	-0.658008	-1.403224	-1.324023
C49	C	-0.565927	-1.331763	-1.135043
C50	C	-0.658829	-1.403680	-1.216162
H51	H	-0.566574	-1.332091	-1.047820
H52	H	-0.487397	-1.362043	-1.150249
H53	H	-0.575079	-1.247846	-1.147016
H54	H	-0.649779	-1.487616	-1.204236
H55	H	-0.737324	-1.373312	-1.200935
O56	O	-0.705992	-0.897486	-0.705447
C57	C	-0.653423	-0.759746	-0.540397
C58	C	-0.746355	-0.819908	-0.633218
H59	H	-0.686020	-0.696996	-0.481989
H60	H	-0.606999	-0.817359	-0.493992
H61	H	-0.598435	-0.720294	-0.576547
H62	H	-0.801418	-0.859363	-0.597160
H63	H	-0.792697	-0.762247	-0.679612
O64	O	-0.935337	-0.952153	-0.934443
C65	C	-1.027516	-1.120390	-1.026499
C66	C	-0.934538	-1.060191	-0.933765
H67	H	-1.026888	-1.207753	-1.025996
H68	H	-1.106006	-1.087466	-1.013814
H69	H	-1.018444	-1.110520	-1.108399
H70	H	-0.943508	-1.070037	-0.851825
H71	H	-0.856084	-1.093128	-0.946546
H72	H	-0.719085	-1.450349	-1.174657
O73	O	-1.409412	-1.440133	-0.866478
C74	C	-1.551116	-1.428178	-1.023981
C75	C	-1.490912	-1.500120	-0.952040
H76	H	-1.617008	-1.476653	-1.093188
H77	H	-1.587441	-1.362468	-0.972254
H78	H	-1.493407	-1.392157	-1.059802
H79	H	-1.548553	-1.536216	-0.916205
H80	H	-1.454570	-1.565770	-1.003817
H81	H	-1.228824	-1.413167	-0.893010
O82	O	-0.935034	-1.617605	-1.269311
C83	C	-1.027186	-1.688965	-1.458289
C84	C	-0.934322	-1.617001	-1.377166
H85	H	-1.026654	-1.688483	-1.545508
H86	H	-1.018042	-1.772935	-1.446468
H87	H	-1.105665	-1.658691	-1.442937
H88	H	-0.855799	-1.647179	-1.392469
H89	H	-0.943560	-1.533043	-1.389006
