data_functionalizedCrystal
_audit_creation_method	'MofGen! by Chris Wilmer'
_symmetry_space_group_name_H-M	'P1'
_symmetry_Int_Tables_number	1
_symmetry_cell_setting	triclinic
loop_
_symmetry_equiv_pos_as_xyz
  x,y,z
_cell_length_a	8.559649
_cell_length_b	15.944551
_cell_length_c	7.088929
_cell_angle_alpha	83.774879
_cell_angle_beta	95.325015
_cell_angle_gamma	76.638701
loop_
_atom_site_label
_atom_site_type_symbol
_atom_site_fract_x
_atom_site_fract_y
_atom_site_fract_z
O1	O	2.103727	-0.018804	-0.158956
O2	O	1.638526	0.024575	-0.158968
O3	O	1.883832	-0.120210	-0.158944
O4	O	1.858421	0.125981	-0.158979
O5	O	1.916614	-0.139599	0.159034
O6	O	1.671309	0.005187	0.159010
O7	O	2.136509	-0.038193	0.159023
Cu8	Cu	1.906902	-0.018273	0.188050
Cu9	Cu	1.868133	0.004656	-0.187996
O10	O	1.891203	0.106593	0.158999
C11	C	1.595388	0.018169	0.000020
C12	C	1.418008	0.027954	0.000015
C13	C	1.899168	-0.161130	0.000045
C14	C	1.896006	-0.254172	0.000046
C15	C	1.736394	-0.458727	0.000015
C16	C	1.826675	-0.534087	0.156800
C17	C	1.890284	-0.424528	0.000031
C18	C	1.794391	-0.514957	-0.156702
C19	C	1.884745	-0.589082	0.000009
C20	C	1.980621	-0.498671	0.156945
C21	C	1.948300	-0.479525	-0.156697
C22	C	2.038697	-0.554877	0.000126
C23	C	1.893471	-0.329732	0.000046
C24	C	1.881571	-0.683878	0.000008
C25	C	2.179647	-0.031786	0.000031
C26	C	2.357025	-0.041571	0.000022
C27	C	1.875866	0.147513	0.000005
C28	C	1.879027	0.240556	-0.000008
N29	N	1.934182	-0.034401	0.452541
N30	N	1.840866	0.020776	-0.452487
H31	H	1.608676	-0.417185	0.000169
O32	O	1.765064	-0.562631	0.314784
C33	C	1.605707	-0.512897	0.314252
H34	H	1.552894	-0.482954	0.161683
H35	H	1.606915	-0.458945	0.407168
C36	C	1.566208	-0.608674	0.581641
C37	C	1.501337	-0.571904	0.394250
H38	H	1.501828	-0.645071	0.630995
H39	H	1.673572	-0.642179	0.582005
H40	H	1.567211	-0.563707	0.659048
H41	H	1.500353	-0.616871	0.316843
H42	H	1.393970	-0.538408	0.393875
O43	O	1.725678	0.089025	0.449902
C44	C	1.799539	0.142292	0.334129
H45	H	1.921441	0.102532	0.304319
H46	H	1.818452	0.198986	0.411148
C47	C	1.540281	0.226438	0.180504
C48	C	1.689997	0.177602	0.143878
H49	H	1.472709	0.248222	0.063152
H50	H	1.490518	0.190553	0.258508
H51	H	1.556064	0.273676	0.244692
H52	H	1.674215	0.130359	0.079713
H53	H	1.739755	0.213479	0.065859
H54	H	1.440515	-0.108579	0.000023
H55	H	2.059335	-0.490968	0.289640
O56	O	2.191285	-0.604163	-0.000026
C57	C	2.255838	-0.575248	-0.163887
H58	H	2.190279	-0.504783	-0.218003
H59	H	2.239204	-0.617653	-0.280104
C60	C	2.517904	-0.668113	-0.046321
C61	C	2.437392	-0.581564	-0.112778
H62	H	2.629896	-0.672012	-0.014800
H63	H	2.474412	-0.687596	0.064072
H64	H	2.504025	-0.703441	-0.143180
H65	H	2.451255	-0.546240	-0.015912
H66	H	2.480890	-0.562075	-0.223155
O67	O	2.009329	-0.450863	-0.315020
C68	C	1.910789	-0.458397	-0.480004
H69	H	1.784393	-0.459045	-0.442444
H70	H	1.965327	-0.521449	-0.537204
C71	C	2.055461	-0.379780	-0.679823
C72	C	1.900214	-0.380569	-0.633695
H73	H	2.048942	-0.331775	-0.774631
H74	H	2.121853	-0.374707	-0.568672
H75	H	2.100892	-0.432328	-0.727479
H76	H	1.854794	-0.328027	-0.586018
H77	H	1.833813	-0.385631	-0.744842
H78	H	1.715616	-0.522750	-0.289260
O79	O	2.049694	-0.102646	0.549656
C80	C	2.132005	-0.151353	0.418587
H81	H	2.119282	-0.108404	0.275842
H82	H	2.077769	-0.209075	0.397385
C83	C	2.327994	-0.237351	0.672200
C84	C	2.312380	-0.184598	0.496883
H85	H	2.439256	-0.257862	0.720498
H86	H	2.272537	-0.204539	0.760506
H87	H	2.282787	-0.285446	0.654509
H88	H	2.357567	-0.136499	0.514581
H89	H	2.367849	-0.217403	0.408582
O90	O	1.318188	0.107836	0.000081
C91	C	1.157358	0.100159	0.000022
H92	H	1.157318	0.030902	0.060232
H93	H	1.093439	0.115723	-0.152533
C94	C	1.068125	0.249365	0.050751
C95	C	1.068076	0.164305	0.124717
H96	H	1.013048	0.288936	0.127660
H97	H	1.176478	0.254539	0.050783
H98	H	1.014862	0.262323	-0.076377
H99	H	1.121356	0.151345	0.251833
H100	H	0.959730	0.159130	0.124709
