data_functionalizedCrystal
_audit_creation_method	'MofGen! by Chris Wilmer'
_symmetry_space_group_name_H-M	'P1'
_symmetry_Int_Tables_number	1
_symmetry_cell_setting	triclinic
loop_
_symmetry_equiv_pos_as_xyz
  x,y,z
_cell_length_a	14.853569
_cell_length_b	14.853559
_cell_length_c	9.482900
_cell_angle_alpha	99.349447
_cell_angle_beta	80.699168
_cell_angle_gamma	83.633509
loop_
_atom_site_label
_atom_site_type_symbol
_atom_site_fract_x
_atom_site_fract_y
_atom_site_fract_z
O1	O	1.210386	0.103622	-0.120821
O2	O	0.947928	0.117640	-0.120838
O3	O	1.086171	-0.020599	-0.120828
O4	O	1.072142	0.241861	-0.120832
O5	O	1.058091	0.007593	0.120963
O6	O	0.919848	0.145832	0.120952
O7	O	1.182306	0.131814	0.120969
Cu8	Cu	1.048513	0.141397	0.143038
Cu9	Cu	1.081721	0.108056	-0.142907
O10	O	1.044062	0.270053	0.120959
C11	C	0.900300	0.131100	0.000055
C12	C	0.800217	0.129195	0.000048
C13	C	0.763843	0.046183	0.000045
C14	C	0.742547	0.210418	0.000058
C15	C	0.648513	0.208632	0.000060
C16	C	0.612139	0.125620	0.000056
C17	C	0.669800	0.044395	0.000051
C18	C	0.590843	0.289857	0.000080
C19	C	0.496803	0.288075	0.000084
C20	C	0.460429	0.205061	0.000069
C21	C	0.518096	0.123832	0.000062
C22	C	0.481722	0.040820	0.000058
C23	C	0.539389	-0.040411	0.000041
C24	C	0.633426	-0.038619	0.000036
C25	C	0.366392	0.203269	0.000074
C26	C	0.387679	0.039032	0.000064
C27	C	1.071497	-0.040092	0.000065
C28	C	1.069598	-0.140177	0.000057
C29	C	1.076840	-0.578720	-0.131744
C30	C	1.046226	-0.547979	0.131865
C31	C	1.048019	-0.453945	0.131866
C32	C	1.064222	-0.422295	0.000061
C33	C	1.078631	-0.484678	-0.131747
C34	C	1.033601	-0.391554	0.263671
C35	C	1.035393	-0.297514	0.263678
C36	C	1.051602	-0.265863	0.131870
C37	C	1.066013	-0.328253	0.000058
C38	C	1.082216	-0.296603	-0.131748
C39	C	1.096634	-0.358992	-0.263562
C40	C	1.094841	-0.453027	-0.263554
C41	C	1.053395	-0.171828	0.131863
C42	C	1.084007	-0.202561	-0.131751
C43	C	1.229935	0.118353	0.000073
C44	C	1.330018	0.120257	0.000070
C45	C	1.058737	0.289546	0.000063
C46	C	1.060638	0.389630	0.000062
N47	N	1.025163	0.164847	0.344157
N48	N	1.105078	0.084600	-0.344025
C49	C	1.074827	0.114968	0.416359
C50	C	1.055406	0.134486	0.583775
H51	H	0.680386	-0.104752	0.000025
H52	H	1.161977	0.027441	0.593854
H53	H	1.033029	-0.573754	0.239175
C54	C	1.022918	-0.150887	0.392427
C55	C	1.037531	-0.103249	0.276737
H56	H	1.013124	-0.108547	0.481870
H57	H	0.970335	-0.181399	0.386917
H58	H	1.075393	-0.195011	0.386963
H59	H	0.985052	-0.059129	0.282195
H60	H	1.090118	-0.072722	0.282250
C61	C	0.418177	-0.123132	0.000048
C62	C	0.347701	-0.052219	0.000062
H63	H	0.393493	-0.179464	0.000055
H64	H	0.464194	-0.128845	-0.084270
H65	H	0.444628	-0.109185	0.084366
H66	H	0.321254	-0.066164	-0.084262
H67	H	0.301668	-0.046507	0.084389
C68	C	0.698679	0.372662	-0.124184
C69	C	0.630830	0.381098	0.000110
H70	H	0.723364	0.428995	-0.124161
H71	H	0.746467	0.324543	-0.124194
H72	H	0.672212	0.358742	-0.208493
H73	H	0.657298	0.395012	0.084420
H74	H	0.583033	0.429233	0.000133
H75	H	0.968261	0.221995	0.406282
C76	C	1.125211	-0.473960	-0.524131
C77	C	1.110629	-0.521597	-0.408435
H78	H	1.134946	-0.516295	-0.613571
H79	H	1.072758	-0.429809	-0.518601
H80	H	1.177831	-0.443482	-0.518694
H81	H	1.058005	-0.552069	-0.413866
H82	H	1.163088	-0.565765	-0.413968
H83	H	1.023656	-0.246724	0.371009
H84	H	0.810800	-0.019954	0.000024
C85	C	0.850380	0.293218	-0.124219
C86	C	0.782528	0.301661	0.000073
H87	H	0.875060	0.349553	-0.124209
H88	H	0.898172	0.245106	-0.124211
H89	H	0.823919	0.279284	-0.208530
H90	H	0.808991	0.315589	0.084385
H91	H	0.734728	0.349789	0.000079
C92	C	0.485210	0.450596	0.000084
C93	C	0.433422	0.377359	0.000085
H94	H	0.446080	0.505713	0.000072
H95	H	0.512536	0.457708	0.084400
H96	H	0.532126	0.438039	-0.084236
H97	H	0.386510	0.389912	0.084412
H98	H	0.406082	0.370247	-0.084239
H99	H	1.088582	-0.629522	-0.239064
C100	C	0.233859	0.311021	0.124396
C101	C	0.303008	0.292550	0.000097
H102	H	0.194734	0.366147	0.124410
H103	H	0.198742	0.261333	0.124374
H104	H	0.261209	0.318126	0.208702
H105	H	0.275658	0.285438	-0.084210
H106	H	0.338129	0.342251	0.000106
C107	C	1.114088	-0.242395	-0.392324
C108	C	1.101815	-0.167775	-0.276640
H109	H	1.125076	-0.220916	-0.481770
H110	H	1.165283	-0.285237	-0.386836
H111	H	1.060220	-0.271627	-0.386833
H112	H	1.155687	-0.138547	-0.282125
H113	H	1.050615	-0.124916	-0.282131
H114	H	0.509763	-0.108000	0.000028
C115	C	1.193846	-0.004578	0.431279
C116	C	1.151639	0.037811	0.332507
H117	H	1.241263	-0.052217	0.379512
H118	H	1.219582	0.039791	0.490633
H119	H	1.149318	-0.030071	0.490664
H120	H	1.196166	0.063309	0.273129
H121	H	1.125903	-0.006566	0.273129
H122	H	1.020405	-0.417331	0.370981
H123	H	0.998501	0.191638	0.645896
H124	H	1.109819	-0.333209	-0.370879
