data_functionalizedCrystal
_audit_creation_method	'MofGen! by Chris Wilmer'
_symmetry_space_group_name_H-M	'P1'
_symmetry_Int_Tables_number	1
_symmetry_cell_setting	triclinic
loop_
_symmetry_equiv_pos_as_xyz
  x,y,z
_cell_length_a	14.044220
_cell_length_b	14.044220
_cell_length_c	12.503552
_cell_angle_alpha	93.855848
_cell_angle_beta	86.158090
_cell_angle_gamma	93.188878
loop_
_atom_site_label
_atom_site_type_symbol
_atom_site_fract_x
_atom_site_fract_y
_atom_site_fract_z
O1	O	-1.272128	-0.235220	-0.089212
O2	O	-0.938795	0.098113	0.244121
O3	O	-0.605461	0.431446	0.577455
O4	O	-0.995455	-0.226916	-0.089239
O5	O	-0.662122	0.106417	0.244094
O6	O	-0.328788	0.439750	0.577428
O7	O	-1.129639	-0.092732	-0.089215
O8	O	-0.796306	0.240601	0.244118
O9	O	-0.462972	0.573935	0.577451
O10	O	-1.137944	-0.369405	-0.089236
O11	O	-0.804610	-0.036071	0.244097
O12	O	-0.471277	0.297262	0.577431
O13	O	-1.139719	-0.082608	0.089429
O14	O	-0.806385	0.250725	0.422762
O15	O	-0.473052	0.584059	0.756096
O16	O	-1.005534	-0.216792	0.089405
O17	O	-0.672201	0.116541	0.422738
O18	O	-0.338868	0.449874	0.756072
O19	O	-1.282207	-0.225097	0.089432
O20	O	-0.948874	0.108237	0.422766
O21	O	-0.615541	0.441570	0.756099
Cu22	Cu	-1.144791	-0.220020	0.105730
Cu23	Cu	-0.811458	0.113313	0.439064
Cu24	Cu	-0.478125	0.446647	0.772397
Cu25	Cu	-1.132871	-0.231993	-0.105537
Cu26	Cu	-0.799538	0.101341	0.227796
Cu27	Cu	-0.466204	0.434674	0.561129
O28	O	-1.148023	-0.359281	0.089408
O29	O	-0.814690	-0.025947	0.422742
O30	O	-0.481357	0.307386	0.756075
C31	C	-0.964873	-0.218219	0.000080
C32	C	-0.631539	0.115114	0.333413
C33	C	-0.298206	0.448448	0.666746
C34	C	-0.858729	-0.207375	0.000070
C35	C	-0.525396	0.125958	0.333403
C36	C	-0.192063	0.459292	0.666736
C37	C	-1.131043	-0.052048	0.000107
C38	C	-0.797710	0.281285	0.333440
C39	C	-0.464377	0.614618	0.666773
C40	C	-1.120199	0.054095	0.000107
C41	C	-0.786865	0.387428	0.333440
C42	C	-0.453532	0.720761	0.666774
N43	N	-1.124487	-0.240407	-0.254132
N44	N	-0.791154	0.092927	0.079202
N45	N	-0.457820	0.426260	0.412535
C46	C	-1.312790	-0.233794	0.000111
C47	C	-0.979456	0.099539	0.333444
C48	C	-0.646123	0.432873	0.666778
C49	C	-1.418932	-0.244638	0.000114
C50	C	-1.085599	0.088695	0.333447
C51	C	-0.752266	0.422028	0.666781
C52	C	-0.664393	-0.187547	0.000092
C53	C	-0.331060	0.145786	0.333426
C54	C	0.002274	0.479119	0.666759
C55	C	-0.613263	-0.264462	0.000091
C56	C	-0.279930	0.068872	0.333425
C57	C	0.053404	0.402205	0.666758
C58	C	-0.505127	-0.253429	0.000104
C59	C	-0.171794	0.079904	0.333437
C60	C	0.161539	0.413237	0.666771
C61	C	-0.772538	-0.198578	0.000080
C62	C	-0.439205	0.134755	0.333413
C63	C	-0.105872	0.468088	0.666746
C64	C	-1.146619	-0.399965	0.000084
C65	C	-0.813286	-0.066631	0.333417
C66	C	-0.479952	0.266702	0.666751
C67	C	-1.157463	-0.506108	0.000077
C68	C	-0.824130	-0.172775	0.333410
C69	C	-0.490796	0.160559	0.666743
C70	C	-1.100371	0.248431	0.000090
C71	C	-0.767038	0.581765	0.333423
C72	C	-0.433705	0.915098	0.666756
C73	C	-1.177286	0.299561	0.000094
C74	C	-0.843953	0.632895	0.333427
C75	C	-0.510619	0.966228	0.666761
C76	C	-1.166254	0.407697	0.000084
C77	C	-0.832921	0.741030	0.333418
C78	C	-0.499587	1.074364	0.666751
C79	C	-1.111402	0.140286	0.000099
C80	C	-0.778069	0.473619	0.333433
C81	C	-0.444735	0.806952	0.666766
C82	C	-1.165519	-0.199227	-0.526557
C83	C	-0.832186	0.134106	-0.193224
C84	C	-0.498852	0.467440	0.140109
C85	C	-1.112153	-0.252776	-0.473243
C86	C	-0.778820	0.080557	-0.139909
C87	C	-0.445487	0.413891	0.193424
C88	C	-1.119018	-0.245892	-0.351318
C89	C	-0.785684	0.087441	-0.017985
C90	C	-0.452351	0.420775	0.315349
C91	C	-1.158656	-0.206110	-0.648493
C92	C	-0.825322	0.127223	-0.315160
C93	C	-0.491989	0.460557	0.018173
N94	N	-1.153182	-0.211599	0.254325
N95	N	-0.819849	0.121734	0.587658
N96	N	-0.486516	0.455067	0.920991
H97	H	-0.650702	-0.338596	0.000081
H98	H	-0.317368	-0.005263	0.333414
H99	H	0.015965	0.328071	0.666747
O100	O	-1.002180	0.298022	0.000092
O101	O	-0.668847	0.631355	0.333425
O102	O	-0.335514	0.964689	0.666758
H103	H	-0.958738	0.272894	-0.072722
H104	H	-0.625404	0.606228	0.260611
H105	H	-0.292071	0.939561	0.593944
O106	O	-1.044787	-0.320339	-0.534061
O107	O	-0.711454	0.012995	-0.200728
O108	O	-0.378120	0.346328	0.132605
H109	H	-1.049883	-0.315203	-0.621670
H110	H	-0.716550	0.018131	-0.288337
H111	H	-0.383217	0.351464	0.044997
H112	H	-1.251416	0.262118	0.000029
H113	H	-0.918083	0.595452	0.333362
H114	H	-0.584749	0.928785	0.666696
O115	O	-0.614805	-0.089354	0.000103
O116	O	-0.281472	0.243979	0.333436
O117	O	0.051861	0.577312	0.666769
H118	H	-0.668939	-0.034706	0.000107
H119	H	-0.335606	0.298628	0.333440
H120	H	-0.002273	0.631961	0.666774
H121	H	-1.216358	-0.148215	-0.480638
H122	H	-0.883024	0.185118	-0.147305
H123	H	-0.549691	0.518452	0.186029
