data_functionalizedCrystal
_audit_creation_method	'MofGen! by Chris Wilmer'
_symmetry_space_group_name_H-M	'P1'
_symmetry_Int_Tables_number	1
_symmetry_cell_setting	triclinic
loop_
_symmetry_equiv_pos_as_xyz
  x,y,z
_cell_length_a	19.188933
_cell_length_b	27.731996
_cell_length_c	26.809956
_cell_angle_alpha	89.974654
_cell_angle_beta	89.980971
_cell_angle_gamma	82.883478
loop_
_atom_site_label
_atom_site_type_symbol
_atom_site_fract_x
_atom_site_fract_y
_atom_site_fract_z
O1	O	0.925757	0.060362	-0.041469
O2	O	1.259090	0.393695	0.291864
O3	O	1.592424	0.727029	0.625197
O4	O	0.722392	0.068485	-0.041475
O5	O	1.055725	0.401818	0.291858
O6	O	1.389059	0.735152	0.625192
O7	O	0.830410	-0.005956	-0.041461
O8	O	1.163743	0.327378	0.291872
O9	O	1.497076	0.660711	0.625205
O10	O	0.817740	0.134803	-0.041483
O11	O	1.151073	0.468136	0.291850
O12	O	1.484406	0.801469	0.625183
O13	O	0.830371	-0.005976	0.041498
O14	O	1.163705	0.327358	0.374831
O15	O	1.497038	0.660691	0.708165
O16	O	0.722354	0.068465	0.041484
O17	O	1.055687	0.401798	0.374818
O18	O	1.389020	0.735132	0.708151
O19	O	0.925719	0.060342	0.041490
O20	O	1.259052	0.393675	0.374823
O21	O	1.592386	0.727009	0.708156
Zn22	Zn	0.824030	0.064400	0.054659
Zn23	Zn	1.157364	0.397733	0.387992
Zn24	Zn	1.490697	0.731067	0.721325
Zn25	Zn	0.824081	0.064427	-0.054644
Zn26	Zn	1.157414	0.397760	0.278690
Zn27	Zn	1.490747	0.731094	0.612023
O28	O	0.817701	0.134783	0.041476
O29	O	1.151035	0.468116	0.374809
O30	O	1.484368	0.801449	0.708143
C31	C	0.696364	0.068212	0.000004
C32	C	1.029697	0.401545	0.333337
C33	C	1.363030	0.734878	0.666671
C34	C	0.618865	0.067422	0.000002
C35	C	0.952198	0.400755	0.333336
C36	C	1.285531	0.734088	0.666669
C37	C	0.065667	0.061794	-0.045212
C38	C	0.399001	0.395127	0.288121
C39	C	0.732334	0.728460	0.621454
C40	C	0.138487	0.062533	-0.045214
C41	C	0.471820	0.395866	0.288119
C42	C	0.805153	0.729200	0.621452
C43	C	0.174880	0.062894	0.000006
C44	C	0.508214	0.396227	0.333340
C45	C	0.841547	0.729561	0.666673
C46	C	0.138451	0.062503	0.045233
C47	C	0.471785	0.395836	0.378566
C48	C	0.805118	0.729170	0.711899
C49	C	0.065634	0.061759	0.045234
C50	C	0.398968	0.395092	0.378567
C51	C	0.732301	0.728425	0.711900
N52	N	0.283694	0.091561	0.033662
N53	N	0.617028	0.424894	0.366995
N54	N	0.950361	0.758228	0.700329
N55	N	0.352867	0.092269	0.033658
N56	N	0.686200	0.425602	0.366992
N57	N	1.019534	0.758936	0.700325
C58	C	0.394274	0.065136	0.000007
C59	C	0.727608	0.398469	0.333340
C60	C	1.060941	0.731802	0.666674
N61	N	0.363894	0.037273	-0.033648
N62	N	0.697227	0.370607	0.299685
N63	N	1.030561	0.703940	0.633019
N64	N	0.294714	0.036567	-0.033646
N65	N	0.628048	0.369901	0.299688
N66	N	0.961381	0.703234	0.633021
C67	C	0.253838	0.063701	0.000011
C68	C	0.587172	0.397034	0.333344
C69	C	0.920505	0.730367	0.666677
C70	C	0.509654	0.066325	-0.045219
C71	C	0.842988	0.399658	0.288115
C72	C	1.176321	0.732992	0.621448
C73	C	0.582476	0.067062	-0.045219
C74	C	0.915809	0.400395	0.288114
C75	C	1.249142	0.733728	0.621448
C76	C	0.582438	0.067036	0.045230
C77	C	0.915771	0.400370	0.378563
C78	C	1.249104	0.733703	0.711896
C79	C	0.509619	0.066295	0.045228
C80	C	0.842952	0.399628	0.378562
C81	C	1.176285	0.732962	0.711895
C82	C	0.473231	0.065942	0.000003
C83	C	0.806564	0.399275	0.333336
C84	C	1.139898	0.732608	0.666670
C85	C	0.830130	-0.023974	0.000020
C86	C	1.163464	0.309359	0.333353
C87	C	1.496797	0.642693	0.666687
C88	C	0.829346	-0.077633	0.000025
C89	C	1.162680	0.255701	0.333358
C90	C	1.496013	0.589034	0.666692
C91	C	0.824435	-0.410353	-0.045220
C92	C	1.157768	-0.077019	0.288113
C93	C	1.491102	0.256314	0.621446
C94	C	0.821458	-0.612020	-0.045229
C95	C	1.154791	-0.278687	0.288104
C96	C	1.488125	0.054646	0.621437
O97	O	0.821061	-0.638083	-0.083688
O98	O	1.154394	-0.304749	0.249645
O99	O	1.487727	0.028584	0.582978
N100	N	0.821067	-0.637249	-0.000009
N101	N	1.154401	-0.303916	0.333325
N102	N	1.487734	0.029417	0.666658
C103	C	0.821416	-0.612058	0.045217
C104	C	1.154750	-0.278725	0.378551
C105	C	1.488083	0.054608	0.711884
O106	O	0.821009	-0.638144	0.083680
O107	O	1.154342	-0.304811	0.417013
O108	O	1.487675	0.028522	0.750347
C109	C	0.824388	-0.410392	0.045226
C110	C	1.157722	-0.077058	0.378559
C111	C	1.491055	0.256275	0.711892
C112	C	0.824786	-0.385166	0.000002
C113	C	1.158119	-0.051832	0.333335
C114	C	1.491453	0.281501	0.666669
C115	C	0.824832	-0.385127	-0.090440
C116	C	1.158165	-0.051793	0.242893
C117	C	1.491498	0.281540	0.576226
C118	C	0.825580	-0.334713	-0.090438
C119	C	1.158913	-0.001380	0.242896
C120	C	1.492246	0.331953	0.576229
C121	C	0.825931	-0.309526	-0.045215
C122	C	1.159264	0.023807	0.288118
C123	C	1.492598	0.357141	0.621452
C124	C	0.825534	-0.334752	0.000005
C125	C	1.158867	-0.001419	0.333338
C126	C	1.492201	0.331915	0.666671
C127	C	0.824732	-0.385201	0.090451
C128	C	1.158066	-0.051868	0.423785
C129	C	1.491399	0.281466	0.757118
C130	C	0.825474	-0.334781	0.090449
C131	C	1.158807	-0.001448	0.423783
C132	C	1.492140	0.331886	0.757116
C133	C	0.825871	-0.309555	0.045226
C134	C	1.159205	0.023778	0.378559
C135	C	1.492538	0.357112	0.711892
C136	C	0.826633	-0.259151	0.045230
C137	C	1.159967	0.074182	0.378563
C138	C	1.493300	0.407515	0.711897
N139	N	0.827024	-0.233922	0.000009
N140	N	1.160357	0.099411	0.333343
N141	N	1.493690	0.432745	0.666676
C142	C	0.826673	-0.259109	-0.045213
C143	C	1.160006	0.074224	0.288120
C144	C	1.493339	0.407557	0.621453
C145	C	0.819858	-0.717937	0.045210
C146	C	1.153191	-0.384603	0.378543
C147	C	1.486524	-0.051270	0.711877
C148	C	0.819116	-0.768353	0.045208
C149	C	1.152449	-0.435020	0.378541
C150	C	1.485782	-0.101687	0.711875
C151	C	0.819156	-0.768311	-0.045239
C152	C	1.152489	-0.434978	0.288094
C153	C	1.485823	-0.101645	0.621428
C154	C	0.819903	-0.717894	-0.045237
C155	C	1.153236	-0.384561	0.288097
C156	C	1.486569	-0.051228	0.621430
C157	C	0.820248	-0.692707	-0.000011
C158	C	1.153581	-0.359374	0.333323
C159	C	1.486915	-0.026041	0.666656
C160	C	0.828244	-0.153237	-0.045204
C161	C	1.161577	0.180096	0.288129
C162	C	1.494911	0.513429	0.621463
C163	C	0.828995	-0.102820	-0.045197
C164	C	1.162328	0.230514	0.288136
C165	C	1.495662	0.563847	0.621469
C166	C	0.828951	-0.102866	0.045249
C167	C	1.162284	0.230468	0.378582
C168	C	1.495618	0.563801	0.711916
C169	C	0.828204	-0.153279	0.045243
C170	C	1.161537	0.180054	0.378576
C171	C	1.494871	0.513387	0.711909
C172	C	0.827848	-0.178464	0.000012
C173	C	1.161181	0.154870	0.333345
C174	C	1.494515	0.488203	0.666679
O175	O	0.827023	-0.233057	0.083669
O176	O	1.160356	0.100276	0.417002
O177	O	1.493690	0.433610	0.750336
O178	O	0.827065	-0.233013	-0.083670
O179	O	1.160398	0.100320	0.249663
O180	O	1.493732	0.433653	0.582996
C181	C	0.823687	-0.460766	-0.045223
C182	C	1.157020	-0.127433	0.288110
C183	C	1.490354	0.205900	0.621444
C184	C	0.823290	-0.485992	-0.000003
C185	C	1.156623	-0.152659	0.333330
C186	C	1.489957	0.180674	0.666663
C187	C	0.823641	-0.460805	0.045219
C188	C	1.156974	-0.127472	0.378553
C189	C	1.490308	0.205862	0.711886
C190	C	0.822548	-0.536409	-0.000005
C191	C	1.155882	-0.203076	0.333328
C192	C	1.489215	0.130258	0.666662
C193	C	0.822197	-0.561596	-0.045228
C194	C	1.155530	-0.228263	0.288106
C195	C	1.488864	0.105070	0.621439
C196	C	0.822588	-0.536367	-0.090448
C197	C	1.155921	-0.203034	0.242885
C198	C	1.489254	0.130300	0.576218
C199	C	0.823336	-0.485954	-0.090446
C200	C	1.156669	-0.152620	0.242888
C201	C	1.490002	0.180713	0.576221
C202	C	0.823251	-0.486034	0.090440
C203	C	1.156584	-0.152701	0.423773
C204	C	1.489917	0.180632	0.757107
C205	C	0.822503	-0.536448	0.090434
C206	C	1.155837	-0.203115	0.423767
C207	C	1.489170	0.130219	0.757100
C208	C	0.822152	-0.561635	0.045211
C209	C	1.155485	-0.228302	0.378544
C210	C	1.488819	0.105031	0.711878
C211	C	0.951747	0.060615	0.000010
C212	C	1.285081	0.393949	0.333343
C213	C	1.618414	0.727282	0.666676
C214	C	1.029246	0.061405	0.000008
C215	C	1.362580	0.394739	0.333341
C216	C	1.695913	0.728072	0.666675
C217	C	0.817981	0.152801	-0.000006
C218	C	1.151314	0.486134	0.333327
C219	C	1.484647	0.819467	0.666660
C220	C	0.818765	0.206459	-0.000015
C221	C	1.152098	0.539793	0.333319
C222	C	1.485431	0.873126	0.666652
N223	N	0.824001	0.064382	0.129255
N224	N	1.157334	0.397715	0.462588
N225	N	1.490668	0.731048	0.795921
N226	N	0.824116	0.064442	-0.129240
N227	N	1.157449	0.397775	0.204094
N228	N	1.490782	0.731108	0.537427
C229	C	0.782049	0.035158	0.526151
C230	C	1.115382	0.368491	0.859485
C231	C	1.448716	0.701825	1.192818
C232	C	0.782016	0.035145	0.317274
C233	C	1.115349	0.368478	0.650607
C234	C	1.448683	0.701811	0.983940
O235	O	0.746300	0.010257	0.290284
O236	O	1.079633	0.343590	0.623618
O237	O	1.412966	0.676924	0.956951
N238	N	0.824029	0.064389	0.291133
N239	N	1.157362	0.397722	0.624466
N240	N	1.490696	0.731056	0.957800
C241	C	0.866057	0.093637	0.317215
C242	C	1.199390	0.426970	0.650549
C243	C	1.532724	0.760303	0.983882
O244	O	0.901796	0.118507	0.290188
O245	O	1.235130	0.451840	0.623522
O246	O	1.568463	0.785173	0.956855
C247	C	0.866093	0.093647	0.526092
C248	C	1.199427	0.426980	0.859425
C249	C	1.532760	0.760314	1.192759
C250	C	0.824072	0.064404	0.552230
C251	C	1.157405	0.397738	0.885563
C252	C	1.490739	0.731071	1.218896
C253	C	0.740032	0.005917	0.552289
C254	C	1.073365	0.339251	0.885623
C255	C	1.406698	0.672584	1.218956
C256	C	0.740037	0.005923	0.604505
C257	C	1.073371	0.339256	0.937839
C258	C	1.406704	0.672590	1.271172
C259	C	0.782060	0.035169	0.630584
C260	C	1.115394	0.368503	0.963917
C261	C	1.448727	0.701836	1.297251
C262	C	0.824078	0.064410	0.604446
C263	C	1.157411	0.397743	0.937779
C264	C	1.490744	0.731077	1.271113
C265	C	0.908124	0.122891	0.552173
C266	C	1.241458	0.456225	0.885507
C267	C	1.574791	0.789558	1.218840
C268	C	0.908131	0.122891	0.604396
C269	C	1.241464	0.456224	0.937729
C270	C	1.574798	0.789557	1.271062
C271	C	0.866110	0.093648	0.630533
C272	C	1.199443	0.426981	0.963867
C273	C	1.532776	0.760315	1.297200
C274	C	0.866107	0.093662	0.682741
C275	C	1.199440	0.426995	1.016074
C276	C	1.532773	0.760329	1.349408
N277	N	0.824093	0.064417	0.708881
N278	N	1.157427	0.397751	1.042215
N279	N	1.490760	0.731084	1.375548
C280	C	0.782070	0.035171	0.682803
C281	C	1.115404	0.368505	1.016136
C282	C	1.448737	0.701838	1.349470
C283	C	0.866034	0.093630	0.207552
C284	C	1.199367	0.426963	0.540885
C285	C	1.532701	0.760296	0.874219
C286	C	0.866024	0.093628	0.155333
C287	C	1.199357	0.426961	0.488666
C288	C	1.532691	0.760295	0.822000
C289	C	0.781984	0.035135	0.155395
C290	C	1.115317	0.368469	0.488728
C291	C	1.448650	0.701802	0.822062
C292	C	0.781990	0.035140	0.207615
C293	C	1.115324	0.368473	0.540948
C294	C	1.448657	0.701807	0.874282
C295	C	0.824021	0.064385	0.233692
C296	C	1.157354	0.397719	0.567026
C297	C	1.490687	0.731052	0.900359
C298	C	0.782085	0.035186	0.792461
C299	C	1.115419	0.368519	1.125794
C300	C	1.448752	0.701852	1.459128
C301	C	0.782093	0.035195	0.844682
C302	C	1.115426	0.368529	1.178015
C303	C	1.448759	0.701862	1.511348
C304	C	0.866135	0.093686	0.844615
C305	C	1.199469	0.427019	1.177949
C306	C	1.532802	0.760352	1.511282
C307	C	0.866125	0.093678	0.792399
C308	C	1.199459	0.427012	1.125732
C309	C	1.532792	0.760345	1.459066
C310	C	0.824098	0.064424	0.766323
C311	C	1.157432	0.397758	1.099656
C312	C	1.490765	0.731091	1.432990
O313	O	0.901810	0.118533	0.709762
O314	O	1.235143	0.451866	1.043096
O315	O	1.568477	0.785199	1.376429
O316	O	0.746348	0.010297	0.709839
O317	O	1.079681	0.343630	1.043172
O318	O	1.413015	0.676963	1.376505
C319	C	0.782043	0.035152	0.473935
C320	C	1.115376	0.368486	0.807268
C321	C	1.448710	0.701819	1.140602
C322	C	0.824060	0.064393	0.447797
C323	C	1.157394	0.397726	0.781131
C324	C	1.490727	0.731060	1.114464
C325	C	0.866083	0.093639	0.473876
C326	C	1.199417	0.426973	0.807209
C327	C	1.532750	0.760306	1.140542
C328	C	0.824050	0.064391	0.395578
C329	C	1.157384	0.397725	0.728912
C330	C	1.490717	0.731058	1.062245
C331	C	0.782027	0.035145	0.369500
C332	C	1.115361	0.368478	0.702833
C333	C	1.448694	0.701812	1.036166
C334	C	0.740014	0.005901	0.395640
C335	C	1.073348	0.339234	0.728974
C336	C	1.406681	0.672567	1.062307
C337	C	0.740020	0.005906	0.447857
C338	C	1.073353	0.339240	0.781190
C339	C	1.406687	0.672573	1.114523
C340	C	0.908097	0.122884	0.447735
C341	C	1.241430	0.456217	0.781069
C342	C	1.574763	0.789550	1.114402
C343	C	0.908087	0.122876	0.395519
C344	C	1.241420	0.456209	0.728852
C345	C	1.574753	0.789543	1.062186
C346	C	0.866064	0.093630	0.369440
C347	C	1.199397	0.426963	0.702774
C348	C	1.532730	0.760297	1.036107
H349	H	0.480026	0.066036	-0.082044
H350	H	0.813360	0.399369	0.251289
H351	H	1.146693	0.732702	0.584623
N352	N	0.827880	-0.178966	-0.091400
N353	N	1.161213	0.154367	0.241933
N354	N	1.494547	0.487701	0.575266
N355	N	0.778236	-0.202531	-0.101501
N356	N	1.111570	0.130802	0.231832
N357	N	1.444903	0.464136	0.565166
H358	H	0.777983	-0.220703	-0.134126
H359	H	1.111316	0.112630	0.199207
H360	H	1.444649	0.445963	0.532540
H361	H	0.035980	0.061444	0.082058
H362	H	0.369314	0.394778	0.415392
H363	H	0.702647	0.728111	0.748725
N364	N	0.697110	-0.023965	0.525656
N365	N	1.030444	0.309368	0.858989
N366	N	1.363777	0.642702	1.192323
N367	N	0.705967	-0.069028	0.531513
N368	N	1.039300	0.264306	0.864846
N369	N	1.372634	0.597639	1.198179
H370	H	0.675648	-0.090132	0.512706
H371	H	1.008982	0.243201	0.846039
H372	H	1.342315	0.576534	1.179372
H373	H	0.818871	-0.788827	-0.082061
H374	H	1.152204	-0.455494	0.251272
H375	H	1.485537	-0.122161	0.584606
H376	H	0.942344	0.146703	0.530901
H377	H	1.275677	0.480036	0.864234
H378	H	1.609011	0.813370	1.197567
H379	H	0.168088	0.062796	0.082052
H380	H	0.501421	0.396129	0.415385
H381	H	0.834754	0.729463	0.748719
N382	N	0.619672	0.067452	-0.091418
N383	N	0.953005	0.400785	0.241916
N384	N	1.286338	0.734119	0.575249
N385	N	0.587171	0.067135	-0.131791
N386	N	0.920504	0.400468	0.201543
N387	N	1.253838	0.733802	0.534876
H388	H	0.613441	0.067411	-0.164420
H389	H	0.946774	0.400744	0.168913
H390	H	1.280107	0.734077	0.502247
N391	N	0.697087	-0.023968	0.368989
N392	N	1.030421	0.309366	0.702322
N393	N	1.363754	0.642699	1.035655
N394	N	0.697093	-0.023963	0.322365
N395	N	1.030427	0.309371	0.655698
N396	N	1.363760	0.642704	0.989032
H397	H	0.666780	-0.045057	0.303539
H398	H	1.000113	0.288276	0.636872
H399	H	1.333447	0.621609	0.970206
N400	N	0.619616	0.067399	0.091418
N401	N	0.952949	0.400732	0.424751
N402	N	1.286282	0.734066	0.758085
N403	N	0.684631	0.068060	0.091412
N404	N	1.017964	0.401394	0.424746
N405	N	1.351298	0.734727	0.758079
H406	H	0.710892	0.068314	0.124034
H407	H	1.044226	0.401648	0.457367
H408	H	1.377559	0.734981	0.790701
N409	N	0.175695	0.062946	-0.091409
N410	N	0.509028	0.396279	0.241924
N411	N	0.842361	0.729612	0.575258
N412	N	0.209510	0.097435	-0.101495
N413	N	0.542843	0.430769	0.231838
N414	N	0.876176	0.764102	0.565171
H415	H	0.235785	0.097730	-0.134121
H416	H	0.569119	0.431063	0.199212
H417	H	0.902452	0.764396	0.532546
H418	H	0.747871	0.011382	0.865961
H419	H	1.081204	0.344716	1.199294
H420	H	1.414537	0.678049	1.532627
N421	N	0.951012	0.152757	0.368831
N422	N	1.284345	0.486090	0.702164
N423	N	1.617678	0.819423	1.035498
N424	N	0.988527	0.178865	0.392128
N425	N	1.321861	0.512199	0.725461
N426	N	1.655194	0.845532	1.058794
H427	H	1.018846	0.199966	0.373281
H428	H	1.352179	0.533299	0.706615
H429	H	1.685512	0.866633	1.039948
N430	N	0.739060	0.005275	0.234312
N431	N	1.072393	0.338608	0.567645
N432	N	1.405727	0.671942	0.900979
N433	N	0.673930	0.011178	0.228497
N434	N	1.007264	0.344511	0.561830
N435	N	1.340597	0.677844	0.895164
H436	H	0.643608	-0.009916	0.247350
H437	H	0.976942	0.323418	0.580683
H438	H	1.310275	0.656751	0.914017
N439	N	0.739164	0.005293	0.765838
N440	N	1.072497	0.338626	1.099171
N441	N	1.405831	0.671960	1.432504
N442	N	0.701661	-0.020815	0.789190
N443	N	1.034994	0.312519	1.122523
N444	N	1.368328	0.645852	1.455856
H445	H	0.671348	-0.041927	0.770388
H446	H	1.004682	0.291406	1.103721
H447	H	1.338015	0.624739	1.437054
H448	H	0.479964	0.065981	0.082052
H449	H	0.813297	0.399314	0.415385
H450	H	1.146631	0.732647	0.748718
N451	N	0.829385	-0.077051	-0.091395
N452	N	1.162718	0.256282	0.241939
N453	N	1.496052	0.589615	0.575272
N454	N	0.780571	-0.044352	-0.101487
N455	N	1.113904	0.288982	0.231847
N456	N	1.447237	0.622315	0.565180
H457	H	0.780844	-0.026153	-0.134112
H458	H	1.114177	0.307180	0.199221
H459	H	1.447511	0.640513	0.532554
N460	N	0.908933	0.123503	0.128630
N461	N	1.242266	0.456836	0.461963
N462	N	1.575600	0.790170	0.795296
N463	N	0.881315	0.155510	0.099483
N464	N	1.214648	0.488843	0.432817
N465	N	1.547981	0.822177	0.766150
H466	H	0.911623	0.176608	0.080625
H467	H	1.244956	0.509942	0.413958
H468	H	1.578289	0.843275	0.747291
N469	N	0.825983	-0.308957	-0.136638
N470	N	1.159317	0.024377	0.196696
N471	N	1.492650	0.357710	0.530029
N472	N	0.825667	-0.331459	-0.177008
N473	N	1.159000	0.001874	0.156326
N474	N	1.492334	0.335207	0.489659
H475	H	0.825949	-0.313272	-0.209639
H476	H	1.159283	0.020062	0.123694
H477	H	1.492616	0.353395	0.457027
H478	H	0.825744	-0.314275	0.127279
H479	H	1.159078	0.019058	0.460612
H480	H	1.492411	0.352391	0.793945
N481	N	0.824469	-0.410842	-0.136643
N482	N	1.157802	-0.077508	0.196690
N483	N	1.491135	0.255825	0.530024
N484	N	0.824821	-0.388303	-0.177010
N485	N	1.158154	-0.054969	0.156323
N486	N	1.491487	0.278364	0.489657
H487	H	0.824568	-0.406461	-0.209644
H488	H	1.157902	-0.073127	0.123689
H489	H	1.491235	0.260206	0.457023
H490	H	0.820226	-0.697358	-0.082062
H491	H	1.153559	-0.364025	0.251272
H492	H	1.486892	-0.030692	0.584605
N493	N	0.697111	-0.023952	0.631193
N494	N	1.030444	0.309381	0.964526
N495	N	1.363777	0.642715	1.297859
N496	N	0.659598	-0.050061	0.607894
N497	N	0.992932	0.283272	0.941227
N498	N	1.326265	0.616605	1.274560
H499	H	0.629280	-0.071164	0.626738
H500	H	0.962614	0.262170	0.960071
H501	H	1.295947	0.595503	1.293405
N502	N	0.951032	0.152761	0.474361
N503	N	1.284365	0.486094	0.807695
N504	N	1.617698	0.819427	1.141028
N505	N	0.988539	0.178866	0.451010
N506	N	1.321872	0.512199	0.784343
N507	N	1.655205	0.845533	1.117677
H508	H	1.018863	0.199970	0.469813
H509	H	1.352196	0.533304	0.803146
H510	H	1.685529	0.866637	1.136479
H511	H	0.942359	0.146705	0.625625
H512	H	1.275692	0.480039	0.958959
H513	H	1.609026	0.813372	1.292292
H514	H	0.036045	0.061504	-0.082039
H515	H	0.369379	0.394837	0.251295
H516	H	0.702712	0.728171	0.584628
H517	H	0.818803	-0.788889	0.082034
H518	H	1.152136	-0.455556	0.415367
H519	H	1.485469	-0.122222	0.748700
N520	N	0.820209	-0.692220	0.091415
N521	N	1.153543	-0.358887	0.424748
N522	N	1.486876	-0.025553	0.758081
N523	N	0.819862	-0.714758	0.131783
N524	N	1.153195	-0.381425	0.465116
N525	N	1.486528	-0.048091	0.798450
H526	H	0.820113	-0.696598	0.164416
H527	H	1.153446	-0.363265	0.497749
H528	H	1.486779	-0.029931	0.831083
N529	N	0.739063	0.005251	0.128759
N530	N	1.072396	0.338584	0.462092
N531	N	1.405730	0.671917	0.795426
N532	N	0.701557	-0.020865	0.152097
N533	N	1.034891	0.312468	0.485431
N534	N	1.368224	0.645802	0.818764
H535	H	0.671250	-0.041973	0.133284
H536	H	1.004583	0.291360	0.466618
H537	H	1.337917	0.624694	0.799951
N538	N	0.909065	0.123536	0.765697
N539	N	1.242398	0.456870	1.099031
N540	N	1.575732	0.790203	1.432364
N541	N	0.974193	0.117621	0.771519
N542	N	1.307527	0.450955	1.104852
N543	N	1.640860	0.784288	1.438186
H544	H	1.004530	0.138701	0.752662
H545	H	1.337863	0.472035	1.085995
H546	H	1.671197	0.805368	1.419328
N547	N	0.824332	-0.410953	0.136652
N548	N	1.157666	-0.077620	0.469985
N549	N	1.490999	0.255713	0.803318
N550	N	0.824644	-0.388449	0.177021
N551	N	1.157977	-0.055116	0.510354
N552	N	1.491310	0.278218	0.843688
H553	H	0.824362	-0.406635	0.209653
H554	H	1.157695	-0.073302	0.542987
H555	H	1.491028	0.260031	0.876320
H556	H	0.827887	-0.173820	0.082067
H557	H	1.161220	0.159513	0.415401
H558	H	1.494553	0.492847	0.748734
H559	H	0.829240	-0.082349	0.082068
H560	H	1.162574	0.250984	0.415402
H561	H	1.495907	0.584317	0.748735
H562	H	0.900348	0.117499	0.865858
H563	H	1.233681	0.450832	1.199191
H564	H	1.567014	0.784165	1.532524
N565	N	0.823627	-0.460312	0.136636
N566	N	1.156960	-0.126979	0.469970
N567	N	1.490293	0.206355	0.803303
N568	N	0.873278	-0.436752	0.146731
N569	N	1.206612	-0.103419	0.480064
N570	N	1.539945	0.229914	0.813398
H571	H	0.873549	-0.418587	0.179360
H572	H	1.206882	-0.085254	0.512693
H573	H	1.540215	0.248079	0.846027
H574	H	0.900262	0.117446	0.228780
H575	H	1.233595	0.450780	0.562113
H576	H	1.566928	0.784113	0.895446
N577	N	0.823745	-0.460197	-0.136646
N578	N	1.157078	-0.126864	0.196688
N579	N	1.490411	0.206469	0.530021
N580	N	0.823432	-0.482701	-0.177016
N581	N	1.156765	-0.149367	0.156318
N582	N	1.490098	0.183966	0.489651
H583	H	0.823720	-0.464514	-0.209647
H584	H	1.157053	-0.131180	0.123686
H585	H	1.490387	0.202153	0.457019
N586	N	0.822238	-0.562109	-0.136638
N587	N	1.155572	-0.228776	0.196695
N588	N	1.488905	0.104558	0.530028
N589	N	0.821574	-0.607123	-0.136627
N590	N	1.154908	-0.273790	0.196706
N591	N	1.488241	0.059544	0.530040
H592	H	0.821326	-0.625306	-0.169246
H593	H	1.154660	-0.291973	0.164087
H594	H	1.487993	0.041361	0.497420
N595	N	0.822106	-0.562206	0.136637
N596	N	1.155439	-0.228873	0.469970
N597	N	1.488772	0.104461	0.803303
N598	N	0.822419	-0.539705	0.177008
N599	N	1.155752	-0.206372	0.510342
N600	N	1.489086	0.126962	0.843675
H601	H	0.822134	-0.557894	0.209639
H602	H	1.155467	-0.224561	0.542972
H603	H	1.488800	0.108773	0.876305
H604	H	0.705802	-0.017906	0.469133
H605	H	1.039135	0.315427	0.802467
H606	H	1.372469	0.648760	1.135800
