data_functionalizedCrystal
_audit_creation_method	'MofGen! by Chris Wilmer'
_symmetry_space_group_name_H-M	'P1'
_symmetry_Int_Tables_number	1
_symmetry_cell_setting	triclinic
loop_
_symmetry_equiv_pos_as_xyz
  x,y,z
_cell_length_a	17.766277
_cell_length_b	19.288862
_cell_length_c	19.288857
_cell_angle_alpha	96.865805
_cell_angle_beta	89.991474
_cell_angle_gamma	90.026014
loop_
_atom_site_label
_atom_site_type_symbol
_atom_site_fract_x
_atom_site_fract_y
_atom_site_fract_z
O1	O	-0.062888	-0.921352	0.086641
O2	O	0.437112	-0.421352	0.586641
O3	O	-0.062826	-0.719091	0.098332
O4	O	0.437174	-0.219091	0.598332
O5	O	-0.062850	-0.826068	-0.008644
O6	O	0.437150	-0.326068	0.491356
O7	O	-0.062864	-0.814374	0.193617
O8	O	0.437136	-0.314374	0.693617
O9	O	0.062339	-0.826050	-0.008650
O10	O	0.562339	-0.326050	0.491350
O11	O	0.062362	-0.719072	0.098326
O12	O	0.562362	-0.219072	0.598326
O13	O	0.062300	-0.921333	0.086636
O14	O	0.562300	-0.421333	0.586636
Cu15	Cu	0.073762	-0.820201	0.092481
Cu16	Cu	0.573762	-0.320201	0.592481
Cu17	Cu	-0.074288	-0.820223	0.092487
Cu18	Cu	0.425712	-0.320223	0.592487
O19	O	0.062324	-0.814355	0.193612
O20	O	0.562324	-0.314355	0.693612
C21	C	-0.000224	-0.693205	0.097953
C22	C	0.499776	-0.193205	0.597953
C23	C	-0.000200	-0.616101	0.096825
C24	C	0.499800	-0.116101	0.596825
C25	C	-0.000255	-0.825684	-0.034523
C26	C	0.499745	-0.325684	0.465477
C27	C	-0.000252	-0.824557	-0.111627
C28	C	0.499748	-0.324557	0.388373
N29	N	0.177892	-0.820190	0.092476
N30	N	0.677892	-0.320190	0.592476
N31	N	-0.178418	-0.820239	0.092486
N32	N	0.321582	-0.320239	0.592486
C33	C	0.217269	-0.867575	0.045130
C34	C	0.717269	-0.367575	0.545130
C35	C	0.296071	-0.867579	0.045127
C36	C	0.796071	-0.367579	0.545127
C37	C	0.335493	-0.820205	0.092481
C38	C	0.835493	-0.320205	0.592481
C39	C	0.296107	-0.772811	0.139831
C40	C	0.796107	-0.272811	0.639831
C41	C	0.217307	-0.772804	0.139828
C42	C	0.717307	-0.272804	0.639828
C43	C	0.460328	-0.810904	0.155769
C44	C	0.960328	-0.310904	0.655769
C45	C	0.539127	-0.810916	0.155773
C46	C	1.039127	-0.310916	0.655773
C47	C	0.578539	-0.820223	0.092490
C48	C	1.078539	-0.320223	0.592490
C49	C	0.539143	-0.829533	0.029200
C50	C	1.039143	-0.329533	0.529200
C51	C	0.460343	-0.829526	0.029197
C52	C	0.960343	-0.329526	0.529197
C53	C	0.420939	-0.820207	0.092489
C54	C	0.920939	-0.320207	0.592489
C55	C	0.703362	-0.867615	0.045136
C56	C	1.203362	-0.367615	0.545136
C57	C	0.782165	-0.867615	0.045132
C58	C	1.282165	-0.367615	0.545132
C59	C	0.782200	-0.772850	0.139842
C60	C	1.282200	-0.272850	0.639842
C61	C	0.703398	-0.772847	0.139840
C62	C	1.203398	-0.272847	0.639840
C63	C	0.663984	-0.820234	0.092488
C64	C	1.163984	-0.320234	0.592488
C65	C	-0.000214	-0.571403	0.159593
C66	C	0.499786	-0.071403	0.659593
C67	C	-0.000219	-0.498956	0.158533
C68	C	0.499781	0.001044	0.658533
C69	C	-0.000224	-0.471210	0.094701
C70	C	0.499776	0.028790	0.594701
C71	C	-0.000206	-0.515918	0.031924
C72	C	0.499794	-0.015918	0.531924
C73	C	-0.000194	-0.588363	0.032986
C74	C	0.499806	-0.088363	0.532986
C75	C	-0.044099	-0.362956	0.044525
C76	C	0.455901	0.137044	0.544525
C77	C	-0.044116	-0.290511	0.043465
C78	C	0.455884	0.209489	0.543465
C79	C	-0.000257	-0.247764	0.091423
C80	C	0.499743	0.252236	0.591423
C81	C	0.043607	-0.277469	0.140452
C82	C	0.543607	0.222531	0.640452
C83	C	0.043619	-0.349915	0.141514
C84	C	0.543619	0.150085	0.641514
C85	C	-0.000237	-0.392656	0.093543
C86	C	0.499763	0.107344	0.593543
C87	C	-0.000275	-0.124510	0.153047
C88	C	0.499725	0.375490	0.653047
C89	C	-0.000275	-0.052062	0.151984
C90	C	0.499725	0.447938	0.651984
C91	C	-0.000270	-0.069026	0.025373
C92	C	0.499730	0.430974	0.525373
C93	C	-0.000262	-0.141472	0.026438
C94	C	0.499738	0.358528	0.526438
C95	C	-0.000269	-0.169210	0.090276
C96	C	0.499731	0.330790	0.590276
C97	C	-0.000290	0.052781	0.087017
C98	C	0.499710	0.552781	0.587017
C99	C	-0.000279	-0.024321	0.088151
C100	C	0.499721	0.475679	0.588151
C101	C	-0.068493	-0.824041	-0.147835
C102	C	0.431507	-0.324041	0.352165
C103	C	-0.068498	-0.822972	-0.220281
C104	C	0.431502	-0.322972	0.279719
C105	C	-0.000259	-0.822433	-0.256518
C106	C	0.499741	-0.322433	0.243482
C107	C	0.067990	-0.822945	-0.220302
C108	C	0.567990	-0.322945	0.279698
C109	C	0.067994	-0.824007	-0.147856
C110	C	0.567994	-0.324007	0.352144
C111	C	0.052004	-0.861427	-0.376752
C112	C	0.552004	-0.361427	0.123248
C113	C	0.051998	-0.860370	-0.449197
C114	C	0.551998	-0.360370	0.050803
C115	C	-0.000267	-0.819156	-0.479964
C116	C	0.499733	-0.319156	0.020036
C117	C	-0.052537	-0.779008	-0.438279
C118	C	0.447463	-0.279008	0.061721
C119	C	-0.052534	-0.780069	-0.365833
C120	C	0.447466	-0.280069	0.134167
C121	C	-0.000255	-0.821282	-0.335073
C122	C	0.499745	-0.321282	0.164927
C123	C	-0.068517	-0.817480	-0.594726
C124	C	0.431483	-0.317480	-0.094726
C125	C	-0.068520	-0.816407	-0.667173
C126	C	0.431480	-0.316407	-0.167173
C127	C	0.067970	-0.816387	-0.667193
C128	C	0.567970	-0.316387	-0.167193
C129	C	0.067971	-0.817453	-0.594747
C130	C	0.567971	-0.317453	-0.094747
C131	C	-0.000275	-0.818003	-0.558518
C132	C	0.499725	-0.318003	-0.058518
C133	C	-0.000273	-0.814740	0.219491
C134	C	0.499727	-0.314740	0.719491
C135	C	-0.000280	-0.815867	0.296595
C136	C	0.499720	-0.315867	0.796595
H137	H	0.185180	-0.906158	0.006571
H138	H	0.685180	-0.406158	0.506571
F139	F	-0.000277	-0.154033	0.220988
F140	F	0.499723	0.345967	0.720988
F141	F	-0.000208	-0.486388	-0.036010
F142	F	0.499792	0.013612	0.463990
F143	F	0.337985	-0.918016	-0.005268
F144	F	0.837985	-0.418016	0.494732
H145	H	-0.095093	-0.747378	-0.331895
H146	H	0.404907	-0.247378	0.168105
F147	F	0.140627	-0.824554	-0.109320
F148	F	0.640627	-0.324554	0.390680
F149	F	0.661413	-0.918045	-0.005263
F150	F	1.161413	-0.418045	0.494737
F151	F	0.418417	-0.839428	-0.038158
F152	F	0.918417	-0.339428	0.461842
F153	F	0.107626	-0.903101	-0.493556
F154	F	0.607626	-0.403101	0.006444
H155	H	0.094570	-0.894988	-0.351709
H156	H	0.594570	-0.394988	0.148291
H157	H	-0.000221	-0.593982	0.211576
H158	H	0.499779	-0.093982	0.711576
F159	F	-0.000268	-0.039502	-0.042562
F160	F	0.499732	0.460498	0.457438
H161	H	0.571231	-0.837111	-0.022332
H162	H	1.071231	-0.337111	0.477668
H163	H	-0.079836	-0.266331	0.003546
H164	H	0.420164	0.233669	0.503546
H165	H	0.814297	-0.734274	0.178396
H166	H	1.314297	-0.234274	0.678396
H167	H	-0.124091	-0.815984	-0.696651
H168	H	0.375909	-0.315984	-0.196651
H169	H	0.123532	-0.815943	-0.696696
H170	H	0.623532	-0.315943	-0.196696
F171	F	0.661487	-0.722416	0.190235
F172	F	1.161487	-0.222416	0.690235
H173	H	0.814226	-0.906199	0.006574
H174	H	1.314226	-0.406199	0.506574
F175	F	-0.000179	-0.635937	-0.033824
F176	F	0.499821	-0.135937	0.466176
H177	H	0.571197	-0.803341	0.207307
H178	H	1.071197	-0.303341	0.707307
H179	H	0.428245	-0.803313	0.207305
H180	H	0.928245	-0.303313	0.707305
H181	H	-0.095096	-0.745447	-0.463327
H182	H	0.404904	-0.245447	0.036673
H183	H	-0.124064	-0.824487	-0.118342
H184	H	0.375936	-0.324487	0.381658
F185	F	0.140615	-0.822367	-0.258868
F186	F	0.640615	-0.322367	0.241132
F187	F	-0.090781	-0.408444	-0.006523
F188	F	0.409219	0.091556	0.493477
H189	H	0.123540	-0.817879	-0.565267
H190	H	0.623540	-0.317879	-0.065267
H191	H	0.328209	-0.734237	0.178386
H192	H	0.828209	-0.234237	0.678386
H193	H	0.185246	-0.734216	0.178383
H194	H	0.685246	-0.234216	0.678383
H195	H	-0.000282	-0.015669	0.203100
H196	H	0.499718	0.484331	0.703100
H197	H	0.079338	-0.374097	0.181433
H198	H	0.579338	0.125903	0.681433
F199	F	-0.000232	-0.451376	0.225343
F200	F	0.499768	0.048624	0.725343
H201	H	-0.124069	-0.822548	-0.249766
H202	H	0.375931	-0.322548	0.250234
H203	H	-0.124087	-0.817924	-0.565227
H204	H	0.375913	-0.317924	-0.065227
H205	H	0.079321	-0.242666	0.179504
H206	H	0.579321	0.257334	0.679504
F207	F	-0.000251	-0.189045	-0.040370
F208	F	0.499749	0.310955	0.459630
