data_functionalizedCrystal
_audit_creation_method	'MofGen! by Chris Wilmer'
_symmetry_space_group_name_H-M	'P1'
_symmetry_Int_Tables_number	1
_symmetry_cell_setting	triclinic
loop_
_symmetry_equiv_pos_as_xyz
  x,y,z
_cell_length_a	25.639243
_cell_length_b	25.639239
_cell_length_c	21.395355
_cell_angle_alpha	89.980666
_cell_angle_beta	89.972891
_cell_angle_gamma	90.041410
loop_
_atom_site_label
_atom_site_type_symbol
_atom_site_fract_x
_atom_site_fract_y
_atom_site_fract_z
Zn1	Zn	0.799283	-0.208173	-0.354301
Zn2	Zn	0.799189	-0.295593	-0.249522
Zn3	Zn	0.711842	-0.208178	-0.249533
Zn4	Zn	0.711804	-0.295584	-0.354257
O5	O	0.755529	-0.251882	-0.301903
O6	O	0.872435	-0.219772	-0.340415
O7	O	0.787579	-0.284003	-0.161845
O8	O	0.723496	-0.135012	-0.263453
O9	O	0.872367	-0.283999	-0.263434
O10	O	0.787738	-0.135009	-0.340426
O11	O	0.723405	-0.219779	-0.161853
O12	O	0.638672	-0.219770	-0.263411
O13	O	0.723432	-0.283983	-0.441941
O14	O	0.638644	-0.283987	-0.340352
O15	O	0.787702	-0.219763	-0.441973
O16	O	0.787542	-0.368757	-0.263392
O17	O	0.723341	-0.368750	-0.340341
C18	C	0.619687	-0.251878	-0.301878
C19	C	0.561573	-0.251889	-0.301882
C20	C	0.201240	-0.218492	-0.342054
C21	C	0.146636	-0.218491	-0.342058
O22	O	0.118425	-0.190085	-0.376182
N23	N	0.119290	-0.251880	-0.301920
C24	C	0.146552	-0.285269	-0.261772
O25	O	0.118279	-0.313668	-0.227632
C26	C	0.201155	-0.285266	-0.261765
C27	C	0.228498	-0.251878	-0.301910
C28	C	0.228582	-0.185106	-0.382194
C29	C	0.283183	-0.185107	-0.382191
C30	C	0.310441	-0.218494	-0.342047
C31	C	0.283098	-0.251880	-0.301907
C32	C	0.228416	-0.318651	-0.221614
C33	C	0.283023	-0.318645	-0.221611
C34	C	0.310366	-0.285258	-0.261755
C35	C	0.364957	-0.285267	-0.261759
N36	N	0.392302	-0.251878	-0.301897
C37	C	0.365044	-0.218491	-0.342041
C38	C	0.031882	-0.285271	-0.261788
C39	C	-0.022721	-0.285276	-0.261797
C40	C	-0.022634	-0.218498	-0.342082
C41	C	0.031970	-0.218496	-0.342076
C42	C	0.059227	-0.251882	-0.301925
C43	C	0.479709	-0.218497	-0.342031
C44	C	0.534315	-0.218503	-0.342026
C45	C	0.534223	-0.285279	-0.261739
C46	C	0.479622	-0.285275	-0.261746
C47	C	0.452367	-0.251880	-0.301894
O48	O	0.393203	-0.313657	-0.227651
O49	O	0.393324	-0.190092	-0.376169
C50	C	0.755441	-0.387725	-0.301874
C51	C	0.755452	-0.445839	-0.301883
C52	C	0.789046	-0.806193	-0.261904
C53	C	0.789067	-0.860797	-0.261912
O54	O	0.817539	-0.889026	-0.227889
N55	N	0.755621	-0.888121	-0.301945
C56	C	0.722157	-0.860838	-0.341975
O57	O	0.693712	-0.889093	-0.376027
C58	C	0.722140	-0.806235	-0.341970
C59	C	0.755584	-0.778913	-0.301930
C60	C	0.822488	-0.778871	-0.221869
C61	C	0.822467	-0.724271	-0.221860
C62	C	0.789004	-0.696991	-0.261886
C63	C	0.755563	-0.724313	-0.301921
C64	C	0.688679	-0.778953	-0.382003
C65	C	0.688665	-0.724346	-0.381994
C66	C	0.722109	-0.697024	-0.341955
C67	C	0.722079	-0.642433	-0.341939
N68	N	0.755524	-0.615109	-0.301907
C69	C	0.788987	-0.642388	-0.261880
C70	C	0.722197	-0.975509	-0.341985
C71	C	0.722211	-1.030111	-0.341988
C72	C	0.789121	-1.030066	-0.261926
C73	C	0.789104	-0.975463	-0.261920
C74	C	0.755642	-0.948184	-0.301953
C75	C	0.788940	-0.527723	-0.261864
C76	C	0.788914	-0.473118	-0.261857
C77	C	0.722006	-0.473167	-0.341921
C78	C	0.722030	-0.527768	-0.341926
C79	C	0.755501	-0.555045	-0.301896
O80	O	0.693623	-0.614169	-0.375946
O81	O	0.817433	-0.614126	-0.227840
C82	C	0.891902	-0.251886	-0.301928
C83	C	0.950016	-0.251888	-0.301939
C84	C	0.755573	-0.251871	-0.465326
C85	C	0.755591	-0.251867	-0.534968
C86	C	0.755632	-0.115509	-0.301945
C87	C	0.755676	-0.057395	-0.301964
C88	C	0.789055	-0.218426	-0.567698
C89	C	0.789055	-0.218404	-0.633134
C90	C	0.755595	-0.251831	-0.665836
C91	C	0.722125	-0.285274	-0.633097
C92	C	0.722123	-0.285292	-0.567663
C93	C	0.751437	-0.298909	-0.769500
C94	C	0.751442	-0.298892	-0.834933
C95	C	0.755599	-0.251776	-0.867657
C96	C	0.759760	-0.204676	-0.834939
C97	C	0.759758	-0.204693	-0.769505
C98	C	0.755594	-0.251815	-0.736788
C99	C	0.789064	-0.218308	-0.971340
C100	C	0.789059	-0.218285	-1.036777
C101	C	0.722132	-0.285160	-1.036739
C102	C	0.722134	-0.285179	-0.971304
C103	C	0.755602	-0.251753	-0.938608
C104	C	0.755516	-0.251855	-0.139115
C105	C	0.755599	-0.251712	-0.069475
H106	H	0.305213	-0.345832	-0.188914
Br107	Br	0.745802	-0.362813	-0.879329
H108	H	0.305440	-0.157919	-0.414880
Br109	Br	0.068868	-0.330587	-0.207295
H110	H	0.457359	-0.312468	-0.229065
H111	H	0.694944	-0.953301	-0.374583
Br112	Br	0.571226	-0.330588	-0.207262
Br113	Br	-0.059822	-0.330597	-0.207321
H114	H	0.206163	-0.345839	-0.188924
Br115	Br	0.676703	-0.330679	-0.523240
H116	H	0.747912	-0.337266	-0.742863
Br117	Br	0.834304	-0.436042	-0.207513
Br118	Br	0.643294	-0.816018	-0.436352
H119	H	0.457525	-0.191302	-0.374722
H120	H	0.694799	-0.550014	-0.374531
H121	H	0.661417	-0.702138	-0.414596
H122	H	0.849701	-0.702029	-0.189258
H123	H	0.694884	-0.312372	-1.063365
H124	H	0.849740	-0.801076	-0.189274
H125	H	0.763145	-0.166343	-0.742869
Br126	Br	0.834474	-0.173061	-0.523329
Br127	Br	0.676712	-0.330637	-0.677477
H128	H	0.816304	-0.191169	-0.659788
H129	H	0.206395	-0.157916	-0.414884
Br130	Br	0.765406	-0.140728	-0.879341
H131	H	0.054228	-0.191307	-0.374763
H132	H	0.816313	-0.191088	-0.944718
H133	H	0.694760	-0.450948	-0.374508
Br134	Br	0.834365	-0.564733	-0.207536
Br135	Br	0.834493	-0.938390	-0.207579
H136	H	0.816309	-0.191050	-1.063425
H137	H	-0.044837	-0.191312	-0.374768
H138	H	0.816370	-1.052287	-0.229336
H139	H	0.694973	-1.052351	-0.374586
H140	H	0.556575	-0.191314	-0.374719
Br141	Br	0.676717	-0.330566	-0.926880
