data_functionalizedCrystal
_audit_creation_method	'MofGen! by Chris Wilmer'
_symmetry_space_group_name_H-M	'P1'
_symmetry_Int_Tables_number	1
_symmetry_cell_setting	triclinic
loop_
_symmetry_equiv_pos_as_xyz
  x,y,z
_cell_length_a	15.995355
_cell_length_b	15.072220
_cell_length_c	14.971486
_cell_angle_alpha	90.001330
_cell_angle_beta	96.445833
_cell_angle_gamma	89.991677
loop_
_atom_site_label
_atom_site_type_symbol
_atom_site_fract_x
_atom_site_fract_y
_atom_site_fract_z
O1	O	-1.111109	0.073697	0.115307
O2	O	-0.611109	0.573697	0.615307
O3	O	-0.867348	0.073718	0.129540
O4	O	-0.367348	0.573718	0.629540
O5	O	-0.995762	0.073700	-0.007784
O6	O	-0.495762	0.573700	0.492216
O7	O	-0.982695	0.073714	0.252631
O8	O	-0.482695	0.573714	0.752631
O9	O	-0.995730	-0.073865	-0.007777
O10	O	-0.495730	0.426135	0.492223
O11	O	-0.867317	-0.073847	0.129547
O12	O	-0.367317	0.426153	0.629547
O13	O	-1.111077	-0.073868	0.115314
O14	O	-0.611077	0.426132	0.615314
Zn15	Zn	-0.989192	-0.097287	0.122432
Zn16	Zn	-0.489192	0.402713	0.622432
Zn17	Zn	-0.989234	0.097136	0.122422
Zn18	Zn	-0.489234	0.597136	0.622422
O19	O	-0.982664	-0.073851	0.252638
O20	O	-0.482664	0.426149	0.752638
C21	C	-0.836137	-0.000062	0.128954
C22	C	-0.336137	0.499938	0.628954
C23	C	-0.743185	-0.000055	0.127188
C24	C	-0.243185	0.499945	0.627188
C25	C	-0.572997	-0.000067	0.123982
C26	C	-0.072997	0.499933	0.623982
C27	C	-0.549552	-0.000072	0.024850
C28	C	-0.049552	0.499928	0.524850
C29	C	-0.452873	-0.000413	0.022980
C30	C	0.047127	0.499587	0.522980
C31	C	-0.405435	-0.000078	0.120825
C32	C	0.094565	0.499922	0.620825
C33	C	-0.434558	-0.084175	0.170675
C34	C	0.065442	0.415825	0.670675
C35	C	-0.531351	-0.084240	0.171855
C36	C	-0.031351	0.415760	0.671855
C37	C	-0.531299	0.083575	0.173298
C38	C	-0.031299	0.583575	0.673298
C39	C	-0.434801	0.084675	0.169634
C40	C	0.065199	0.584675	0.669634
C41	C	-0.310735	-0.000088	0.119045
C42	C	0.189265	0.499912	0.619045
C43	C	-0.667696	-0.000064	0.125765
C44	C	-0.167696	0.499936	0.625765
N45	N	-0.989169	-0.229976	0.122438
N46	N	-0.489169	0.270024	0.622438
C47	C	-0.989232	-0.589177	0.122418
C48	C	-0.489232	-0.089177	0.622418
C49	C	-0.920289	-0.551561	0.195651
C50	C	-0.420289	-0.051561	0.695651
C51	C	-0.920448	-0.448735	0.195919
C52	C	-0.420448	0.051265	0.695919
C53	C	-0.989200	-0.410973	0.122428
C54	C	-0.489200	0.089027	0.622428
C55	C	-1.076585	-0.448271	0.142814
C56	C	-0.576585	0.051729	0.642814
C57	C	-1.076199	-0.551129	0.143335
C58	C	-0.576199	-0.051129	0.643335
C59	C	-0.971569	-0.551281	0.028583
C60	C	-0.471569	-0.051281	0.528583
C61	C	-0.969565	-0.448417	0.029209
C62	C	-0.469565	0.051583	0.529209
C63	C	-0.989188	-0.310260	0.122432
C64	C	-0.489188	0.189740	0.622432
C65	C	-0.989250	-0.689891	0.122417
C66	C	-0.489250	-0.189891	0.622417
C67	C	-0.142290	-0.000087	0.115888
C68	C	0.357710	0.499913	0.615888
C69	C	-0.235246	-0.000091	0.117619
C70	C	0.264754	0.499909	0.617619
C71	C	-0.995162	-0.000082	-0.041104
C72	C	-0.495162	0.499918	0.458896
C73	C	-0.993411	-0.000081	-0.140400
C74	C	-0.493411	0.499919	0.359600
N75	N	-0.989263	0.229825	0.122409
N76	N	-0.489263	0.729825	0.622409
C77	C	-1.068850	-0.000088	-0.197710
C78	C	-0.568850	0.499912	0.302290
C79	C	-1.067200	-0.000079	-0.291007
C80	C	-0.567200	0.499921	0.208993
C81	C	-0.990109	-0.000069	-0.326993
C82	C	-0.490109	0.499931	0.173007
C83	C	-0.914664	-0.000059	-0.269675
C84	C	-0.414664	0.499941	0.230325
C85	C	-0.916315	-0.000062	-0.176380
C86	C	-0.416315	0.499938	0.323620
C87	C	-0.911227	-0.000056	-0.464134
C88	C	-0.411227	0.499944	0.035866
C89	C	-0.909575	-0.000055	-0.557436
C90	C	-0.409575	0.499945	-0.057436
C91	C	-1.062112	-0.000073	-0.578762
C92	C	-0.562112	0.499927	-0.078762
C93	C	-1.063763	-0.000075	-0.485466
C94	C	-0.563763	0.499925	0.014534
C95	C	-0.988318	-0.000067	-0.428155
C96	C	-0.488318	0.499933	0.071845
C97	C	-0.983264	-0.000067	0.285958
C98	C	-0.483264	0.499933	0.785958
C99	C	-0.985015	-0.000062	0.385254
C100	C	-0.485015	0.499938	0.885254
H101	H	-0.416221	0.146891	0.133331
H102	H	0.083779	0.646891	0.633331
H103	H	-0.401917	0.090017	0.241027
H104	H	0.098083	0.590017	0.741027
C105	C	-0.829863	-0.000042	-0.309253
C106	C	-0.329863	0.499958	0.190747
H107	H	-0.785170	-0.000028	-0.261756
H108	H	-0.285170	0.499972	0.238244
H109	H	-0.826032	-0.051498	-0.345206
H110	H	-0.326032	0.448502	0.154794
H111	H	-0.826065	0.051427	-0.345201
H112	H	-0.326065	0.551427	0.154799
H113	H	-0.559551	0.147338	0.142020
H114	H	-0.059551	0.647338	0.642020
H115	H	-0.909226	-0.577267	0.008981
H116	H	-0.409226	-0.077267	0.508981
C117	C	-0.588629	-0.081426	-0.026209
C118	C	-0.088629	0.418574	0.473791
H119	H	-0.619168	-0.115390	0.012627
H120	H	-0.119168	0.384610	0.512627
H121	H	-0.625588	-0.062223	-0.076606
H122	H	-0.125588	0.437777	0.423394
H123	H	-0.545233	-0.116867	-0.046130
H124	H	-0.045233	0.383133	0.453870
H125	H	-0.545385	0.084390	0.246265
H126	H	-0.045385	0.584390	0.746265
H127	H	-1.092505	-0.422500	0.210468
H128	H	-0.592505	0.077500	0.710468
H129	H	-0.854884	-0.000056	-0.129718
H130	H	-0.354884	0.499944	0.370282
C131	C	-1.150183	-0.000096	-0.354045
C132	C	-0.650183	0.499904	0.145955
H133	H	-1.196332	-0.000115	-0.319251
H134	H	-0.696332	0.499885	0.180749
H135	H	-1.152729	0.051363	-0.390884
H136	H	-0.652729	0.551363	0.109116
H137	H	-1.152692	-0.051562	-0.390882
H138	H	-0.652692	0.448438	0.109118
C139	C	-0.587349	0.081380	-0.027069
C140	C	-0.087349	0.581380	0.472931
H141	H	-0.572471	0.080138	-0.086731
H142	H	-0.072471	0.580138	0.413269
H143	H	-0.646869	0.080258	-0.028583
H144	H	-0.146869	0.580258	0.471417
H145	H	-0.566012	0.134003	0.002071
H146	H	-0.066012	0.634003	0.502071
H147	H	-1.123543	-0.000076	-0.625429
H148	H	-0.623543	0.499924	-0.125429
C149	C	-0.824778	-0.000024	-0.597020
C150	C	-0.324778	0.499976	-0.097020
H151	H	-0.780082	-0.000002	-0.549527
H152	H	-0.280082	0.499998	-0.049527
H153	H	-0.820940	-0.051477	-0.632975
H154	H	-0.320940	0.448523	-0.132975
H155	H	-0.820993	0.051448	-0.632967
H156	H	-0.320993	0.551448	-0.132967
H157	H	-0.931737	-0.424119	0.265553
H158	H	-0.431737	0.075881	0.765553
H159	H	-0.434384	-0.061053	-0.015853
H160	H	0.065616	0.438947	0.484147
H161	H	-1.091750	-0.575108	0.211768
H162	H	-0.591750	-0.075108	0.711768
H163	H	-0.402783	-0.087063	0.242686
H164	H	0.097217	0.412937	0.742686
H165	H	-0.433827	0.059859	-0.016042
H166	H	0.066173	0.559859	0.483958
H167	H	-0.849791	-0.000047	-0.417473
H168	H	-0.349791	0.499953	0.082527
C169	C	-1.147587	-0.584747	0.074020
C170	C	-0.647587	-0.084747	0.574020
H171	H	-1.176700	-0.535540	0.045674
H172	H	-0.676700	-0.035540	0.545674
H173	H	-1.124521	-0.619777	0.030066
H174	H	-0.624521	-0.119777	0.530066
H175	H	-1.185592	-0.619652	0.103567
H176	H	-0.685592	-0.119652	0.603567
H177	H	-1.131627	-0.000101	-0.168418
H178	H	-0.631627	0.499899	0.331582
H179	H	-0.558089	-0.147346	0.137744
H180	H	-0.058089	0.352654	0.637744
H181	H	-0.545996	-0.087832	0.244552
H182	H	-0.045996	0.412168	0.744552
H183	H	-0.414418	-0.147001	0.136478
H184	H	0.085582	0.352999	0.636478
H185	H	-0.855496	-0.423520	0.183773
H186	H	-0.355496	0.076480	0.683773
H187	H	-0.855128	-0.576318	0.183705
H188	H	-0.355128	-0.076318	0.683705
C189	C	-1.039478	-0.584147	-0.045041
C190	C	-0.539478	-0.084147	0.454959
H191	H	-1.078410	-0.620787	-0.018772
H192	H	-0.578410	-0.120787	0.481228
H193	H	-1.068232	-0.534685	-0.073285
H194	H	-0.568232	-0.034685	0.426715
H195	H	-1.013683	-0.617267	-0.088478
H196	H	-0.513683	-0.117267	0.411522
C197	C	-0.935343	-0.586425	0.289199
C198	C	-0.435343	-0.086425	0.789199
H199	H	-0.893420	-0.563375	0.333050
H200	H	-0.393420	-0.063375	0.833050
H201	H	-0.989304	-0.568019	0.302753
H202	H	-0.489304	-0.068019	0.802753
H203	H	-0.932584	-0.649388	0.289512
H204	H	-0.432584	-0.149388	0.789512
C205	C	-1.147559	-0.415226	0.072685
C206	C	-0.647559	0.084774	0.572685
H207	H	-1.199831	-0.438566	0.086279
H208	H	-0.699831	0.061434	0.586279
H209	H	-1.149560	-0.352254	0.073948
H210	H	-0.649560	0.147746	0.573948
H211	H	-1.137074	-0.434489	0.014557
H212	H	-0.637074	0.065511	0.514557
C213	C	-0.882726	-0.415493	0.008306
C214	C	-0.382726	0.084507	0.508306
H215	H	-0.858533	-0.379074	0.056181
H216	H	-0.358533	0.120926	0.556181
H217	H	-0.847103	-0.464941	0.001715
H218	H	-0.347103	0.035059	0.501715
H219	H	-0.888971	-0.382131	-0.045870
H220	H	-0.388971	0.117869	0.454130
C221	C	-1.032988	-0.413710	-0.047863
C222	C	-0.532988	0.086290	0.452137
H223	H	-1.072452	-0.375764	-0.024091
H224	H	-0.572452	0.124236	0.475909
H225	H	-1.003893	-0.381598	-0.089388
H226	H	-0.503893	0.118402	0.410612
H227	H	-1.061766	-0.462364	-0.077647
H228	H	-0.561766	0.037636	0.422353
H229	H	-1.126537	-0.000090	-0.456170
H230	H	-0.626537	0.499910	0.043830
