data_functionalizedCrystal
_audit_creation_method	'MofGen! by Chris Wilmer'
_symmetry_space_group_name_H-M	'P1'
_symmetry_Int_Tables_number	1
_symmetry_cell_setting	triclinic
loop_
_symmetry_equiv_pos_as_xyz
  x,y,z
_cell_length_a	18.215405
_cell_length_b	16.625547
_cell_length_c	18.215399
_cell_angle_alpha	90.023151
_cell_angle_beta	89.967040
_cell_angle_gamma	89.975929
loop_
_atom_site_label
_atom_site_type_symbol
_atom_site_fract_x
_atom_site_fract_y
_atom_site_fract_z
Zn1	Zn	-0.292990	-1.232636	-0.416227
Zn2	Zn	0.207010	-0.732636	0.083773
Zn3	Zn	-0.416067	-1.232543	-0.293155
Zn4	Zn	0.083933	-0.732543	0.206845
Zn5	Zn	-0.293017	-1.097807	-0.293161
Zn6	Zn	0.206983	-0.597807	0.206839
Zn7	Zn	-0.416018	-1.097762	-0.416166
Zn8	Zn	0.083982	-0.597762	0.083834
O9	O	-0.354523	-1.165187	-0.354677
O10	O	0.145477	-0.665187	0.145323
O11	O	-0.309326	-1.345456	-0.399924
O12	O	0.190674	-0.845456	0.100076
O13	O	-0.399775	-1.214649	-0.190171
O14	O	0.100225	-0.714649	0.309829
O15	O	-0.190029	-1.115750	-0.309513
O16	O	0.309971	-0.615750	0.190487
O17	O	-0.399750	-1.345387	-0.309504
O18	O	0.100250	-0.845387	0.190496
O19	O	-0.190010	-1.214808	-0.399929
O20	O	0.309990	-0.714808	0.100071
O21	O	-0.309371	-1.115659	-0.190175
O22	O	0.190629	-0.615659	0.309825
O23	O	-0.309324	-0.984969	-0.309455
O24	O	0.190676	-0.484969	0.190545
O25	O	-0.399666	-1.115674	-0.519159
O26	O	0.100334	-0.615674	-0.019159
O27	O	-0.399692	-0.984936	-0.399826
O28	O	0.100308	-0.484936	0.100174
O29	O	-0.309279	-1.214765	-0.519203
O30	O	0.190721	-0.714765	-0.019203
O31	O	-0.519045	-1.214606	-0.309445
O32	O	-0.019045	-0.714606	0.190555
O33	O	-0.519009	-1.115584	-0.399821
O34	O	-0.019009	-0.615584	0.100179
C35	C	-0.354506	-0.955696	-0.354635
C36	C	0.145494	-0.455696	0.145365
C37	C	-0.354517	-0.866075	-0.354634
C38	C	0.145483	-0.366075	0.145366
C39	C	-0.545729	-1.165102	-0.354642
C40	C	-0.045729	-0.665102	0.145358
C41	C	-0.627528	-1.165139	-0.354651
C42	C	-0.127528	-0.665139	0.145349
C43	C	-0.354517	-0.793293	-0.354641
C44	C	0.145483	-0.293293	0.145359
C45	C	-0.354520	-0.701984	-0.354656
C46	C	0.145480	-0.201984	0.145344
C47	C	-0.354526	-0.629208	-0.354672
C48	C	0.145474	-0.129208	0.145328
C49	C	-0.354530	-0.537893	-0.354686
C50	C	0.145470	-0.037893	0.145314
C51	C	-0.815716	-1.216821	-0.307679
C52	C	-0.315716	-0.716821	0.192321
C53	C	-0.892575	-1.216857	-0.307697
C54	C	-0.392575	-0.716857	0.192303
C55	C	-0.892578	-1.113656	-0.401728
C56	C	-0.392578	-0.613656	0.098272
C57	C	-0.815720	-1.113624	-0.401713
C58	C	-0.315720	-0.613624	0.098287
C59	C	-0.777292	-1.165206	-0.354685
C60	C	-0.277292	-0.665206	0.145315
C61	C	-0.931008	-1.165273	-0.354717
C62	C	-0.431008	-0.665273	0.145283
C63	C	-1.014341	-1.165312	-0.354737
C64	C	-0.514341	-0.665312	0.145263
C65	C	-0.693953	-1.165169	-0.354666
C66	C	-0.193953	-0.665169	0.145334
C67	C	-0.162570	-1.165294	-0.354729
C68	C	0.337430	-0.665294	0.145271
C69	C	-0.080771	-1.165340	-0.354751
C70	C	0.419229	-0.665340	0.145249
C71	C	-0.354464	-1.165225	-0.546630
C72	C	0.145536	-0.665225	-0.046630
C73	C	-0.354439	-1.165241	-0.628429
C74	C	0.145561	-0.665241	-0.128429
C75	C	-0.354537	-0.375496	-0.354711
C76	C	0.145463	0.124504	0.145289
C77	C	-0.354536	-0.465117	-0.354703
C78	C	0.145464	0.034883	0.145297
C79	C	-0.307334	-1.113741	-0.816626
C80	C	0.192666	-0.613741	-0.316626
C81	C	-0.307319	-1.113755	-0.893485
C82	C	0.192681	-0.613755	-0.393485
C83	C	-0.401457	-1.216838	-0.893470
C84	C	0.098543	-0.716838	-0.393470
C85	C	-0.401475	-1.216819	-0.816613
C86	C	0.098525	-0.716819	-0.316613
C87	C	-0.354409	-1.165272	-0.778193
C88	C	0.145591	-0.665272	-0.278193
C89	C	-0.354376	-1.165305	-0.931909
C90	C	0.145624	-0.665305	-0.431909
C91	C	-0.354360	-1.165320	-1.015243
C92	C	0.145640	-0.665320	-0.515243
C93	C	-0.354426	-1.165255	-0.694854
C94	C	0.145574	-0.665255	-0.194854
C95	C	-0.354528	-1.165195	-0.163471
C96	C	0.145472	-0.665195	0.336529
C97	C	-0.354346	-1.165335	-0.081672
C98	C	0.145654	-0.665335	0.418328
H99	H	-0.784429	-1.258823	-0.269387
H100	H	-0.284429	-0.758823	0.230613
H101	H	-0.269010	-1.071768	-0.785347
H102	H	0.230990	-0.571768	-0.285347
O103	O	-0.452242	-1.272411	-0.775150
O104	O	0.047758	-0.772411	-0.275150
H105	H	-0.484956	-1.308270	-0.814777
H106	H	0.015044	-0.808270	-0.314777
H107	H	-0.268986	-1.071792	-0.924774
H108	H	0.231014	-0.571792	-0.424774
H109	H	-0.439775	-1.258807	-0.924761
H110	H	0.060225	-0.758807	-0.424761
H111	H	-0.923876	-1.071659	-0.440016
H112	H	-0.423876	-0.571659	0.059984
O113	O	-0.934022	-1.272523	-0.256994
O114	O	-0.434022	-0.772523	0.243006
H115	H	-0.894385	-1.308378	-0.224288
H116	H	-0.394385	-0.808378	0.275712
H117	H	-0.784433	-1.071593	-0.439995
H118	H	-0.284433	-0.571593	0.060005
