data_functionalizedCrystal
_audit_creation_method	'MofGen! by Chris Wilmer'
_symmetry_space_group_name_H-M	'P1'
_symmetry_Int_Tables_number	1
_symmetry_cell_setting	triclinic
loop_
_symmetry_equiv_pos_as_xyz
  x,y,z
_cell_length_a	14.044191
_cell_length_b	17.038272
_cell_length_c	13.101039
_cell_angle_alpha	93.604737
_cell_angle_beta	86.337551
_cell_angle_gamma	92.151666
loop_
_atom_site_label
_atom_site_type_symbol
_atom_site_fract_x
_atom_site_fract_y
_atom_site_fract_z
O1	O	1.277888	0.185616	-0.085166
O2	O	1.777888	0.685616	0.414834
O3	O	1.001367	0.178769	-0.085179
O4	O	1.501367	0.678769	0.414821
O5	O	1.137984	0.068263	-0.085165
O6	O	1.637984	0.568263	0.414835
O7	O	1.141271	0.296123	-0.085181
O8	O	1.641271	0.796123	0.414819
O9	O	1.128183	0.076206	0.085264
O10	O	1.628183	0.576206	0.585264
O11	O	0.991566	0.186712	0.085250
O12	O	1.491566	0.686712	0.585250
O13	O	1.268087	0.193559	0.085263
O14	O	1.768087	0.693559	0.585263
Zn15	Zn	1.128270	0.191397	0.112315
Zn16	Zn	1.628270	0.691397	0.612315
Zn17	Zn	1.141184	0.180931	-0.112232
Zn18	Zn	1.641184	0.680931	0.387768
O19	O	1.131470	0.304066	0.085248
O20	O	1.631470	0.804066	0.585248
C21	C	0.960911	0.179746	0.000034
C22	C	1.460911	0.679746	0.500034
C23	C	0.854965	0.170812	0.000029
C24	C	1.354965	0.670812	0.500029
C25	C	0.608470	0.217839	0.000036
C26	C	1.108470	0.717839	0.500036
C27	C	0.660990	0.154492	0.000039
C28	C	1.160990	0.654492	0.500039
C29	C	0.768928	0.163575	0.000033
C30	C	1.268928	0.663575	0.500033
C31	C	0.500523	0.208758	0.000041
C32	C	1.000523	0.708758	0.500041
C33	C	1.130094	0.042897	0.000050
C34	C	1.630094	0.542897	0.500050
C35	C	1.121174	-0.044520	0.000049
C36	C	1.621174	0.455480	0.500049
C37	C	1.203063	-0.088904	0.000054
C38	C	1.703063	0.411096	0.500054
C39	C	1.194677	-0.171042	0.000044
C40	C	1.694677	0.328958	0.500044
C41	C	1.104402	-0.208794	0.000036
C42	C	1.604402	0.291206	0.500036
C43	C	1.022508	-0.164405	0.000028
C44	C	1.522508	0.335595	0.500028
C45	C	1.030895	-0.082269	0.000031
C46	C	1.530895	0.417731	0.500031
C47	C	1.074773	-0.456626	0.000021
C48	C	1.574773	0.043374	0.500021
C49	C	1.066392	-0.538768	0.000021
C50	C	1.566392	-0.038768	0.500021
C51	C	1.238562	-0.545400	0.000035
C52	C	1.738562	-0.045400	0.500035
C53	C	1.246941	-0.463261	0.000043
C54	C	1.746941	0.036739	0.500043
C55	C	1.165047	-0.418879	0.000030
C56	C	1.665047	0.081121	0.500030
C57	C	1.095828	-0.292752	0.000029
C58	C	1.595828	0.207248	0.500029
C59	C	1.173622	-0.334923	0.000030
C60	C	1.673622	0.165077	0.500030
C61	C	1.308543	0.192582	0.000048
C62	C	1.808543	0.692582	0.500048
C63	C	1.414490	0.201516	0.000046
C64	C	1.914490	0.701516	0.500046
C65	C	1.139361	0.329431	0.000032
C66	C	1.639361	0.829431	0.500032
C67	C	1.148280	0.416848	0.000026
C68	C	1.648280	0.916848	0.500026
N69	N	1.119464	0.198539	0.265563
N70	N	1.619464	0.698539	0.765563
N71	N	1.149997	0.173783	-0.265479
N72	N	1.649997	0.673783	0.234521
C73	C	1.107484	0.208264	0.474604
C74	C	1.607484	0.708264	0.974604
C75	C	1.161974	0.164061	0.525486
C76	C	1.661974	0.664061	1.025486
C77	C	1.155308	0.169472	0.641804
C78	C	1.655308	0.669472	1.141804
C79	C	1.114149	0.202854	0.358276
C80	C	1.614149	0.702854	0.858276
H81	H	0.644567	0.278888	0.000029
H82	H	1.144567	0.778888	0.500029
H83	H	1.055832	0.250168	0.518396
H84	H	1.555832	0.750168	1.018396
Br85	Br	1.325584	-0.037676	0.000079
Br86	Br	1.825584	0.462324	0.500079
H87	H	0.624896	0.093435	-0.000029
H88	H	1.124896	0.593435	0.499971
Br89	Br	1.305817	-0.231274	0.000050
Br90	Br	1.805817	0.268726	0.500050
H91	H	1.247125	-0.304183	0.000014
H92	H	1.747125	0.195817	0.500014
H93	H	1.320452	-0.432529	0.000050
H94	H	1.820452	0.067471	0.500050
H95	H	1.213631	0.122155	0.481689
H96	H	1.713631	0.622155	0.981689
H97	H	1.305235	-0.581544	0.000043
H98	H	1.805235	-0.081544	0.500043
Br99	Br	0.963630	-0.396404	-0.000004
Br100	Br	1.463630	0.103596	0.499996
Br101	Br	0.899991	-0.215640	0.000000
Br102	Br	1.399991	0.284360	0.500000
Br103	Br	0.943867	-0.590003	0.000021
Br104	Br	1.443867	-0.090003	0.500021
H105	H	1.022325	-0.323499	0.000025
H106	H	1.522325	0.176501	0.500025
Br107	Br	0.919757	-0.022033	0.000016
Br108	Br	1.419757	0.477967	0.500016
