data_functionalizedCrystal
_audit_creation_method	'MofGen! by Chris Wilmer'
_symmetry_space_group_name_H-M	'P1'
_symmetry_Int_Tables_number	1
_symmetry_cell_setting	triclinic
loop_
_symmetry_equiv_pos_as_xyz
  x,y,z
_cell_length_a	23.532407
_cell_length_b	23.532407
_cell_length_c	22.610064
_cell_angle_alpha	90.000603
_cell_angle_beta	89.997161
_cell_angle_gamma	97.151322
loop_
_atom_site_label
_atom_site_type_symbol
_atom_site_fract_x
_atom_site_fract_y
_atom_site_fract_z
O1	O	0.755263	-0.069127	-0.049117
O2	O	1.255263	0.430873	0.450883
O3	O	0.589400	-0.079130	-0.049135
O4	O	1.089400	0.420870	0.450865
O5	O	0.677333	0.008803	-0.049114
O6	O	1.177333	0.508803	0.450886
O7	O	0.667330	-0.157060	-0.049137
O8	O	1.167330	0.342940	0.450863
O9	O	0.677318	0.008790	0.049255
O10	O	1.177318	0.508790	0.549255
O11	O	0.589385	-0.079143	0.049234
O12	O	1.089385	0.420857	0.549234
O13	O	0.755248	-0.069140	0.049252
O14	O	1.255248	0.430860	0.549252
Zn15	Zn	0.672314	-0.074144	0.064862
Zn16	Zn	1.172314	0.425856	0.564862
Zn17	Zn	0.672334	-0.074127	-0.064744
Zn18	Zn	1.172334	0.425873	0.435256
O19	O	0.667315	-0.157073	0.049232
O20	O	1.167315	0.342927	0.549232
C21	C	0.568176	-0.078882	0.000048
C22	C	1.068176	0.421118	0.500048
C23	C	0.504959	-0.078116	0.000041
C24	C	1.004959	0.421884	0.500041
C25	C	0.105856	-0.125350	0.000061
C26	C	0.605856	0.374650	0.500061
C27	C	0.046456	-0.124638	0.000065
C28	C	0.546456	0.375362	0.500065
O29	O	0.009711	-0.168424	0.000081
O30	O	0.509711	0.331576	0.500081
N31	N	0.023830	-0.072362	0.000071
N32	N	0.523830	0.427638	0.500071
C33	C	0.060607	-0.020794	0.000080
C34	C	0.560607	0.479206	0.500080
O35	O	0.035908	0.023737	0.000086
O36	O	0.535908	0.523737	0.500086
C37	C	0.120006	-0.021506	0.000080
C38	C	0.620006	0.478494	0.500080
C39	C	0.142629	-0.073785	0.000068
C40	C	0.642629	0.426215	0.500068
C41	C	0.128479	-0.177625	0.000050
C42	C	0.628479	0.322375	0.500050
C43	C	0.187876	-0.178336	0.000045
C44	C	0.687876	0.321664	0.500045
C45	C	0.224649	-0.126772	0.000052
C46	C	0.724649	0.373228	0.500052
C47	C	0.202025	-0.074497	0.000063
C48	C	0.702025	0.425503	0.500063
C49	C	0.156783	0.030062	0.000093
C50	C	0.656783	0.530062	0.500093
C51	C	0.216185	0.029345	0.000094
C52	C	0.716185	0.529345	0.500094
C53	C	0.238808	-0.022934	0.000082
C54	C	0.738808	0.477066	0.500082
C55	C	0.298194	-0.023643	0.000065
C56	C	0.798194	0.476357	0.500065
N57	N	0.320820	-0.075920	0.000059
N58	N	0.820820	0.424080	0.500059
C59	C	0.284048	-0.127484	0.000052
C60	C	0.784048	0.372516	0.500052
C61	C	-0.064135	-0.019302	0.000080
C62	C	0.435865	0.480698	0.500080
C63	C	-0.123533	-0.018589	0.000075
C64	C	0.376467	0.481411	0.500075
C65	C	-0.137680	-0.122434	0.000061
C66	C	0.362320	0.377566	0.500061
C67	C	-0.078281	-0.123146	0.000062
C68	C	0.421719	0.376854	0.500062
C69	C	-0.041509	-0.071578	0.000074
C70	C	0.458491	0.428422	0.500074
C71	C	0.408784	-0.128974	0.000042
C72	C	0.908784	0.371026	0.500042
C73	C	0.468186	-0.129680	0.000034
C74	C	0.968186	0.370320	0.500034
C75	C	0.482329	-0.025836	0.000051
C76	C	0.982329	0.474164	0.500051
C77	C	0.422932	-0.025129	0.000055
C78	C	0.922932	0.474871	0.500055
C79	C	0.386160	-0.076702	0.000052
C80	C	0.886160	0.423298	0.500052
O81	O	0.334974	0.020119	0.000052
O82	O	0.834974	0.520119	0.500052
O83	O	0.308755	-0.172007	0.000054
O84	O	0.808755	0.327993	0.500054
C85	C	0.677071	0.030013	0.000072
C86	C	1.177071	0.530013	0.500072
C87	C	0.676305	0.093230	0.000076
C88	C	1.176305	0.593230	0.500076
C89	C	0.776472	-0.069388	0.000069
C90	C	1.276472	0.430612	0.500069
C91	C	0.839689	-0.070154	0.000071
C92	C	1.339689	0.429846	0.500071
C93	C	0.667577	-0.178283	0.000045
C94	C	1.167577	0.321717	0.500045
C95	C	0.668343	-0.241500	0.000036
C96	C	1.168343	0.258500	0.500036
N97	N	0.672304	-0.074155	0.153314
N98	N	1.172304	0.425845	0.653314
C99	C	0.723539	0.492333	0.000049
C100	C	1.223539	0.992333	0.500049
C101	C	0.722827	0.551733	0.000044
C102	C	1.222827	1.051733	0.500044
O103	O	0.766613	0.588478	0.000027
O104	O	1.266613	1.088478	0.500027
N105	N	0.670551	0.574359	0.000039
N106	N	1.170551	1.074359	0.500039
C107	C	0.618983	0.537582	0.000032
C108	C	1.118983	1.037582	0.500032
O109	O	0.574452	0.562281	0.000027
O110	O	1.074452	1.062281	0.500027
C111	C	0.619695	0.478182	0.000033
C112	C	1.119695	0.978182	0.500033
C113	C	0.671974	0.455560	0.000044
C114	C	1.171974	0.955560	0.500044
C115	C	0.775814	0.469710	0.000060
C116	C	1.275814	0.969710	0.500060
C117	C	0.776525	0.410313	0.000065
C118	C	1.276525	0.910313	0.500065
C119	C	0.724961	0.373540	0.000060
C120	C	1.224961	0.873540	0.500060
C121	C	0.672685	0.396164	0.000050
C122	C	1.172685	0.896164	0.500050
C123	C	0.568127	0.441406	0.000022
C124	C	1.068127	0.941406	0.500022
C125	C	0.568844	0.382004	0.000021
C126	C	1.068844	0.882004	0.500021
C127	C	0.621123	0.359381	0.000033
C128	C	1.121123	0.859381	0.500033
C129	C	0.621832	0.299995	0.000050
C130	C	1.121832	0.799995	0.500050
N131	N	0.674109	0.277368	0.000056
N132	N	1.174109	0.777368	0.500056
C133	C	0.725673	0.314141	0.000061
C134	C	1.225673	0.814141	0.500061
C135	C	0.617491	0.662324	0.000031
C136	C	1.117491	1.162324	0.500031
C137	C	0.616778	0.721722	0.000034
C138	C	1.116778	1.221722	0.500034
C139	C	0.720623	0.735869	0.000045
C140	C	1.220623	1.235869	0.500045
C141	C	0.721335	0.676470	0.000046
C142	C	1.221335	1.176470	0.500046
C143	C	0.669767	0.639698	0.000036
C144	C	1.169767	1.139698	0.500036
C145	C	0.727163	0.189405	0.000073
C146	C	1.227163	0.689405	0.500073
C147	C	0.727869	0.130003	0.000081
C148	C	1.227869	0.630003	0.500081
C149	C	0.624025	0.115860	0.000067
C150	C	1.124025	0.615860	0.500067
C151	C	0.623318	0.175257	0.000062
C152	C	1.123318	0.675257	0.500062
C153	C	0.674891	0.212029	0.000063
C154	C	1.174891	0.712029	0.500063
O155	O	0.578070	0.263215	0.000065
O156	O	1.078070	0.763215	0.500065
O157	O	0.770196	0.289433	0.000058
O158	O	1.270196	0.789433	0.500058
N159	N	0.672349	-0.074111	-0.153196
N160	N	1.172349	0.425889	0.346804
C161	C	0.711273	-0.035196	0.561965
C162	C	1.211273	0.464804	1.061965
C163	C	0.711276	-0.035192	0.623884
C164	C	1.211276	0.464808	1.123884
O165	O	0.744384	-0.002076	0.655911
O166	O	1.244384	0.497924	1.155911
N167	N	0.672334	-0.074115	0.654851
N168	N	1.172334	0.425885	1.154851
C169	C	0.633383	-0.113041	0.623895
C170	C	1.133383	0.386959	1.123895
O171	O	0.600259	-0.146147	0.655920
O172	O	1.100259	0.353853	1.155920
C173	C	0.633377	-0.113042	0.561976
C174	C	1.133377	0.386958	1.061976
C175	C	0.672326	-0.074120	0.531013
C176	C	1.172326	0.425880	1.031013
C177	C	0.750218	0.003724	0.531001
C178	C	1.250218	0.503724	1.031001
C179	C	0.750215	0.003719	0.469085
C180	C	1.250215	0.503719	0.969085
C181	C	0.711268	-0.035206	0.438133
C182	C	1.211268	0.464794	0.938133
C183	C	0.672323	-0.074125	0.469097
C184	C	1.172323	0.425875	0.969097
C185	C	0.594424	-0.151965	0.531021
C186	C	1.094424	0.348035	1.031021
C187	C	0.594422	-0.151962	0.469098
C188	C	1.094422	0.348038	0.969098
C189	C	0.633370	-0.113040	0.438134
C190	C	1.133370	0.386960	0.938134
C191	C	0.633374	-0.113054	0.376229
C192	C	1.133374	0.386946	0.876229
N193	N	0.672316	-0.074131	0.345262
N194	N	1.172316	0.425869	0.845262
C195	C	0.711263	-0.035207	0.376214
C196	C	1.211263	0.464793	0.876214
C197	C	0.633396	-0.113035	0.753928
C198	C	1.133396	0.386965	1.253928
C199	C	0.633403	-0.113037	0.815846
C200	C	1.133403	0.386963	1.315846
C201	C	0.711296	-0.035187	0.815831
C202	C	1.211296	0.464813	1.315831
C203	C	0.711291	-0.035188	0.753913
C204	C	1.211291	0.464812	1.253913
C205	C	0.672338	-0.074112	0.722962
C206	C	1.172338	0.425888	1.222962
C207	C	0.711255	-0.035220	0.246187
C208	C	1.211255	0.464780	0.746187
C209	C	0.711251	-0.035230	0.184266
C210	C	1.211251	0.464770	0.684266
C211	C	0.633357	-0.113078	0.184286
C212	C	1.133357	0.386922	0.684286
C213	C	0.633363	-0.113071	0.246202
C214	C	1.133363	0.386929	0.746202
C215	C	0.672314	-0.074137	0.277151
C216	C	1.172314	0.425863	0.777151
O217	O	0.600281	-0.146152	0.344163
O218	O	1.100281	0.353848	0.844163
O219	O	0.744376	-0.002101	0.344182
O220	O	1.244376	0.497899	0.844182
H221	H	-0.141947	0.023982	0.000076
H222	H	0.358053	0.523982	0.500076
H223	H	0.562700	-0.183658	0.443901
H224	H	1.062700	0.316342	0.943901
H225	H	0.246123	0.071339	0.000104
H226	H	0.746123	0.571339	0.500104
H227	H	0.601653	-0.144770	0.271413
H228	H	1.101653	0.355230	0.771413
H229	H	0.575496	0.632386	0.000028
H230	H	1.075496	1.132386	0.500028
C231	C	0.567309	0.075403	0.000058
C232	C	1.067309	0.575403	0.500058
H233	H	0.575224	0.036789	0.000056
H234	H	1.075224	0.536789	0.500056
H235	H	0.545846	0.082227	0.034355
H236	H	1.045846	0.582227	0.534355
H237	H	0.545869	0.082229	-0.034256
H238	H	1.045869	0.582229	0.465744
C239	C	0.551585	-0.194785	0.565067
C240	C	1.051585	0.305215	1.065067
H241	H	0.528390	-0.217960	0.537757
H242	H	1.028390	0.282040	1.037757
H243	H	0.571936	-0.218391	0.589218
H244	H	1.071936	0.281609	1.089218
H245	H	0.527991	-0.174420	0.589225
H246	H	1.027991	0.325580	1.089225
H247	H	0.601648	-0.144772	0.159075
H248	H	1.101648	0.355228	0.659075
H249	H	0.763906	0.658056	0.000054
H250	H	1.263906	1.158056	0.500054
C251	C	0.510620	0.466281	0.000002
C252	C	1.010620	0.966281	0.500002
H253	H	0.517572	0.506924	0.000004
H254	H	1.017572	1.006924	0.500004
H255	H	0.489416	0.453632	-0.034307
H256	H	0.989416	0.953632	0.465693
H257	H	0.489395	0.453638	0.034305
H258	H	0.989395	0.953638	0.534305
H259	H	0.486602	-0.172255	0.000024
H260	H	0.986602	0.327745	0.500024
C261	C	0.522783	0.030882	0.000055
C262	C	1.022783	0.530882	0.500055
H263	H	0.500806	0.062121	0.000057
H264	H	1.000806	0.562121	0.500057
H265	H	0.546249	0.032755	0.034357
H266	H	1.046249	0.532755	0.534357
H267	H	0.546248	0.032764	-0.034254
H268	H	1.046248	0.532764	0.465746
C269	C	0.793066	0.046541	0.565039
C270	C	1.293066	0.546541	1.065039
H271	H	0.816258	0.069713	0.537722
H272	H	1.316258	0.569713	1.037722
H273	H	0.772727	0.070151	0.589199
H274	H	1.272727	0.570151	1.089199
H275	H	0.816661	0.026170	0.589186
H276	H	1.316661	0.526170	1.089186
C277	C	0.793052	0.046540	0.435033
C278	C	1.293052	0.546540	0.935033
H279	H	0.816240	0.069723	0.462342
H280	H	1.316240	0.569723	0.962342
H281	H	0.816644	0.026180	0.410874
H282	H	1.316644	0.526180	0.910874
H283	H	0.772695	0.070146	0.410884
H284	H	1.272695	0.570146	0.910884
C285	C	0.834032	0.385433	0.000074
C286	C	1.334032	0.885433	0.500074
H287	H	0.827078	0.344790	0.000080
H288	H	1.327078	0.844790	0.500080
H289	H	0.855253	0.398077	-0.034227
H290	H	1.355253	0.898077	0.465773
H291	H	0.855240	0.398079	0.034385
H292	H	1.355240	0.898079	0.534385
H293	H	0.742969	-0.003535	0.159057
H294	H	1.242969	0.496465	0.659057
C295	C	0.777344	0.776327	0.000040
C296	C	1.277344	1.276327	0.500040
H297	H	0.769428	0.814942	0.000030
H298	H	1.269428	1.314942	0.500030
H299	H	0.798796	0.769508	0.034343
H300	H	1.298796	1.269508	0.534343
H301	H	0.798793	0.769498	-0.034268
H302	H	1.298793	1.269498	0.465732
H303	H	0.742973	-0.003516	0.271379
H304	H	1.242973	0.496484	0.771379
H305	H	0.601694	-0.144737	0.841052
H306	H	1.101694	0.355263	1.341052
C307	C	0.398045	0.032377	0.000062
C308	C	0.898045	0.532377	0.500062
H309	H	0.428456	0.062984	0.000067
H310	H	0.928456	0.562984	0.500067
H311	H	0.375165	0.034819	-0.034237
H312	H	0.875165	0.534819	0.465763
H313	H	0.375172	0.034809	0.034375
H314	H	0.875172	0.534809	0.534375
H315	H	-0.167632	-0.164421	0.000059
H316	H	0.332368	0.335579	0.500059
H317	H	0.770443	0.111587	0.000092
H318	H	1.270443	0.611587	0.500092
C319	C	0.754129	0.007630	0.719858
C320	C	1.254129	0.507630	1.219858
H321	H	0.777321	0.030812	0.747166
H322	H	1.277321	0.530812	1.247166
H323	H	0.777717	-0.012734	0.695698
H324	H	1.277717	0.487266	1.195698
H325	H	0.733773	0.031238	0.695710
H326	H	1.233773	0.531238	1.195710
H327	H	0.580748	0.193677	0.000069
H328	H	1.080748	0.693677	0.500069
C329	C	0.754132	0.007635	0.849887
C330	C	1.254132	0.507635	1.349887
H331	H	0.748549	0.002063	0.891197
H332	H	1.248549	0.502063	1.391197
H333	H	0.792106	0.001648	0.839740
H334	H	1.292106	0.501648	1.339740
H335	H	0.748156	0.045614	0.839739
H336	H	1.248156	0.545614	1.339739
H337	H	0.769159	0.219337	0.000071
H338	H	1.269159	0.719337	0.500071
C339	C	0.131908	0.087569	0.000105
C340	C	0.631908	0.587569	0.500105
H341	H	0.091265	0.080617	0.000100
H342	H	0.591265	0.580617	0.500100
H343	H	0.144552	0.108779	0.034412
H344	H	0.644552	0.608779	0.534412
H345	H	0.144556	0.108788	-0.034199
H346	H	0.644556	0.608788	0.465801
C347	C	0.832538	0.510154	0.000064
C348	C	1.332538	1.010154	0.500064
H349	H	0.824637	0.548773	0.000058
H350	H	1.324637	1.048773	0.500058
H351	H	0.853981	0.503321	0.034369
H352	H	1.353981	1.003321	0.534369
H353	H	0.853991	0.503321	-0.034242
H354	H	1.353991	1.003321	0.465758
C355	C	0.368344	-0.185703	0.000031
C356	C	0.868344	0.314297	0.500031
H357	H	0.390333	-0.216934	0.000017
H358	H	0.890333	0.283066	0.500017
H359	H	0.344875	-0.187598	0.034333
H360	H	0.844875	0.312402	0.534333
H361	H	0.344883	-0.187578	-0.034278
H362	H	0.844883	0.312422	0.465722
H363	H	0.574207	0.740136	0.000035
H364	H	1.074207	1.240136	0.500035
H365	H	0.526850	0.352066	0.000013
H366	H	1.026850	0.852066	0.500013
H367	H	0.206289	-0.220908	0.000035
H368	H	0.706289	0.279092	0.500035
C369	C	0.088038	-0.234351	0.000037
C370	C	0.588038	0.265649	0.500037
H371	H	0.110027	-0.265581	0.000026
H372	H	0.610027	0.234419	0.500026
H373	H	0.064565	-0.236247	0.034338
H374	H	0.564565	0.263753	0.534338
H375	H	0.064578	-0.236227	-0.034274
H376	H	0.564578	0.263773	0.465726
C377	C	-0.053402	-0.180653	0.000054
C378	C	0.446598	0.319347	0.500054
H379	H	-0.083814	-0.211258	0.000052
H380	H	0.416186	0.288742	0.500052
H381	H	-0.030520	-0.183088	-0.034248
H382	H	0.469480	0.316912	0.465752
H383	H	-0.030530	-0.183096	0.034363
H384	H	0.469470	0.316904	0.534363
C385	C	0.590553	-0.155862	0.719888
C386	C	1.090553	0.344138	1.219888
H387	H	0.567367	-0.179044	0.747202
H388	H	1.067367	0.320956	1.247202
H389	H	0.566957	-0.135502	0.695734
H390	H	1.066957	0.364498	1.195734
H391	H	0.610905	-0.179470	0.695734
H392	H	1.110905	0.320530	1.195734
H393	H	-0.034198	0.022693	0.000084
H394	H	0.465802	0.522693	0.500084
