data_functionalizedCrystal
_audit_creation_method	'MofGen! by Chris Wilmer'
_symmetry_space_group_name_H-M	'P1'
_symmetry_Int_Tables_number	1
_symmetry_cell_setting	triclinic
loop_
_symmetry_equiv_pos_as_xyz
  x,y,z
_cell_length_a	12.811457
_cell_length_b	12.837942
_cell_length_c	16.176319
_cell_angle_alpha	89.994101
_cell_angle_beta	95.424545
_cell_angle_gamma	89.411937
loop_
_atom_site_label
_atom_site_type_symbol
_atom_site_fract_x
_atom_site_fract_y
_atom_site_fract_z
O1	O	1.406625	0.139672	0.036712
O2	O	1.102566	0.154864	0.013914
O3	O	1.247853	-0.003664	0.024812
O4	O	1.261338	0.298200	0.025813
O5	O	1.247830	-0.003674	0.162304
O6	O	1.102542	0.154854	0.151405
O7	O	1.406602	0.139662	0.174203
Cu8	Cu	1.254570	0.147257	0.175358
Cu9	Cu	1.254598	0.147269	0.012759
O10	O	1.261314	0.298190	0.163305
C11	C	1.063365	0.154008	0.079722
C12	C	0.946595	0.151461	0.070966
C13	C	0.727144	0.146643	0.204425
C14	C	0.617427	0.144249	0.196203
C15	C	0.617443	0.144272	0.046301
C16	C	0.727160	0.146666	0.054523
C17	C	0.782006	0.147853	0.133587
C18	C	0.891724	0.150254	0.141809
C19	C	0.891739	0.150269	-0.008092
C20	C	0.782022	0.147875	-0.016314
C21	C	1.243286	-0.042309	0.093216
C22	C	1.229701	-0.157445	0.092196
C23	C	1.393027	-0.397700	0.104425
C24	C	1.380267	-0.505881	0.103467
C25	C	1.191421	-0.481989	0.089316
C26	C	1.204181	-0.373808	0.090274
C27	C	1.304988	-0.331668	0.097830
C28	C	1.317747	-0.223485	0.098794
C29	C	1.128901	-0.199595	0.084637
C30	C	1.116141	-0.307776	0.083679
C31	C	1.445802	0.140518	0.108394
C32	C	1.562573	0.143065	0.117143
C33	C	1.265881	0.336835	0.094899
C34	C	1.279467	0.451971	0.095914
N35	N	1.254558	0.147248	0.289723
N36	N	1.254617	0.147270	-0.101605
C37	C	1.318916	0.077081	0.337815
C38	C	1.318921	0.077079	0.424362
C39	C	1.254574	0.147251	0.462816
C40	C	1.190209	0.217422	0.414718
C41	C	1.190199	0.217417	0.328172
C42	C	1.190246	0.217442	0.763749
C43	C	1.190264	0.217443	0.850302
C44	C	1.318969	0.077104	0.859939
C45	C	1.318959	0.077099	0.773393
C46	C	1.254591	0.147265	0.725302
C47	C	1.254584	0.147264	0.631457
C48	C	1.254585	0.147258	0.556660
H49	H	0.936419	0.151260	-0.065773
C50	C	0.558076	0.142943	-0.039606
C51	C	0.629603	0.144496	-0.099888
C52	C	0.574952	0.143264	-0.179035
H53	H	0.513310	0.202397	-0.046184
H54	H	0.517261	0.081582	-0.045829
H55	H	0.670400	0.205849	-0.093668
H56	H	0.674371	0.085046	-0.093337
H57	H	0.534137	0.081904	-0.185258
H58	H	0.530188	0.202720	-0.185605
H59	H	0.623475	0.144308	-0.219946
H60	H	0.737352	0.146904	-0.080686
C61	C	1.006786	-0.353734	0.075528
C62	C	1.014451	-0.462608	0.076119
C63	C	0.913733	-0.504976	0.068626
H64	H	0.969989	-0.331203	0.024839
H65	H	0.970065	-0.331164	0.120745
H66	H	1.051156	-0.485169	0.030905
H67	H	1.051229	-0.485168	0.126802
H68	H	0.877012	-0.482406	0.113843
H69	H	0.876944	-0.482437	0.017937
H70	H	0.918921	-0.578851	0.069034
C71	C	0.786839	0.147779	0.290210
C72	C	0.852742	0.060053	0.299521
C73	C	0.907759	0.061072	0.378531
H74	H	0.738574	0.146670	0.331301
H75	H	0.827739	0.209087	0.296392
H76	H	0.811846	-0.001239	0.293347
H77	H	0.901028	0.061144	0.258448
H78	H	0.948659	0.122380	0.384714
H79	H	0.859486	0.059966	0.419617
H80	H	0.952488	0.001557	0.384857
H81	H	0.572762	0.143270	0.253886
C82	C	1.388956	0.000860	0.912012
C83	C	1.445326	-0.060573	0.859811
C84	C	1.509815	-0.130808	0.907749
H85	H	1.346982	-0.042594	0.942638
H86	H	1.436455	0.038350	0.949308
H87	H	1.397832	-0.098061	0.822530
H88	H	1.487320	-0.017147	0.829185
H89	H	1.557314	-0.093318	0.945045
H90	H	1.467833	-0.174255	0.938373
H91	H	1.548077	-0.172492	0.872339
H92	H	1.137837	0.274575	0.724600
H93	H	1.399829	-0.189177	0.104949
C94	C	1.388642	0.000700	0.296123
C95	C	1.361382	-0.101277	0.315160
C96	C	1.425578	-0.171681	0.276772
H97	H	1.459879	0.012157	0.315606
H98	H	1.379426	0.010649	0.237679
H99	H	1.370607	-0.111222	0.373591
H100	H	1.290155	-0.112767	0.295675
H101	H	1.416363	-0.161732	0.218328
H102	H	1.496813	-0.160215	0.296258
H103	H	1.407085	-0.240880	0.289676
C104	C	1.502555	-0.352141	0.112593
C105	C	1.576929	-0.433125	0.118146
C106	C	1.677837	-0.391198	0.125659
H107	H	1.511600	-0.310455	0.161204
H108	H	1.511516	-0.310460	0.065297
H109	H	1.567972	-0.474788	0.165437
H110	H	1.567918	-0.474817	0.069541
H111	H	1.686798	-0.349517	0.078363
H112	H	1.686871	-0.349513	0.174270
H113	H	1.728312	-0.446139	0.129420
C114	C	1.475817	-0.577624	0.110456
C115	C	1.474029	-0.640399	0.039573
C116	C	1.562043	-0.706492	0.045975
H117	H	1.474853	-0.620428	0.158273
H118	H	1.537703	-0.537065	0.115049
H119	H	1.412159	-0.680954	0.034988
H120	H	1.475008	-0.597623	-0.008255
H121	H	1.623930	-0.665933	0.050568
H122	H	1.561072	-0.749288	0.093795
H123	H	1.560847	-0.749085	-0.002121
C124	C	1.033343	-0.127853	0.077307
C125	C	1.035141	-0.065052	0.006697
C126	C	0.947125	0.001039	-0.000085
H127	H	1.034297	-0.085067	0.125271
H128	H	0.971458	-0.168413	0.072623
H129	H	1.097010	-0.024494	0.011387
H130	H	1.034172	-0.107809	-0.041280
H131	H	0.885240	-0.039522	-0.004769
H132	H	0.948087	0.043817	0.047883
H133	H	0.948329	0.043650	-0.047998
C134	C	1.388625	0.000779	0.476602
C135	C	1.326360	-0.063008	0.521619
C136	C	1.390537	-0.133322	0.569740
H137	H	1.436082	0.038179	0.513977
H138	H	1.426927	-0.041065	0.441325
H139	H	1.288075	-0.021169	0.556893
H140	H	1.278904	-0.100432	0.484265
H141	H	1.428839	-0.175166	0.534463
H142	H	1.437992	-0.095913	0.607111
H143	H	1.348299	-0.176616	0.600285
C144	C	1.120274	0.293672	0.891896
C145	C	1.063877	0.355100	0.831255
C146	C	0.999386	0.425319	0.869540
H147	H	1.162250	0.337132	0.928795
H148	H	1.072792	0.256170	0.922093
H149	H	1.111353	0.392600	0.801072
H150	H	1.021881	0.311669	0.794353
H151	H	0.951904	0.387817	0.899737
H152	H	1.041370	0.468772	0.906438
H153	H	0.961106	0.467000	0.828401
C154	C	1.120457	0.293565	0.456624
C155	C	1.134261	0.278574	0.542713
C156	C	1.070035	0.348711	0.581342
H157	H	1.049209	0.282028	0.437214
H158	H	1.138789	0.362857	0.443849
H159	H	1.115922	0.209299	0.555481
H160	H	1.205495	0.290120	0.562146
H161	H	1.088368	0.418003	0.568567
H162	H	0.998792	0.337168	0.561926
H163	H	1.079400	0.338556	0.639757
C164	C	1.120291	0.293719	0.276101
C165	C	1.063961	0.355194	0.328301
C166	C	0.999558	0.425502	0.280365
H167	H	1.072760	0.256316	0.238786
H168	H	1.162354	0.337130	0.245498
H169	H	1.021901	0.311788	0.358890
H170	H	1.111465	0.392619	0.365616
H171	H	1.041621	0.468913	0.249762
H172	H	0.952033	0.388091	0.243052
H173	H	0.961337	0.467227	0.315776
H174	H	0.936378	0.151227	0.206187
H175	H	1.371361	0.019962	0.742087
H176	H	1.109349	-0.516319	0.083155
