data_functionalizedCrystal
_audit_creation_method	'MofGen! by Chris Wilmer'
_symmetry_space_group_name_H-M	'P1'
_symmetry_Int_Tables_number	1
_symmetry_cell_setting	triclinic
loop_
_symmetry_equiv_pos_as_xyz
  x,y,z
_cell_length_a	18.050589
_cell_length_b	18.050591
_cell_length_c	18.050582
_cell_angle_alpha	89.977259
_cell_angle_beta	90.018205
_cell_angle_gamma	89.978346
loop_
_atom_site_label
_atom_site_type_symbol
_atom_site_fract_x
_atom_site_fract_y
_atom_site_fract_z
Zn1	Zn	-0.295837	-1.135293	0.420090
Zn2	Zn	-0.045837	-0.885293	0.670090
Zn3	Zn	0.204163	-0.635293	0.920090
Zn4	Zn	0.454163	-0.385293	1.170090
Zn5	Zn	-0.420020	-1.135203	0.295909
Zn6	Zn	-0.170020	-0.885203	0.545909
Zn7	Zn	0.079980	-0.635203	0.795909
Zn8	Zn	0.329980	-0.385203	1.045909
Zn9	Zn	-0.295834	-1.011112	0.295897
Zn10	Zn	-0.045834	-0.761112	0.545897
Zn11	Zn	0.204166	-0.511112	0.795897
Zn12	Zn	0.454166	-0.261112	1.045897
Zn13	Zn	-0.419975	-1.011060	0.420041
Zn14	Zn	-0.169975	-0.761060	0.670041
Zn15	Zn	0.080025	-0.511060	0.920041
Zn16	Zn	0.330025	-0.261060	1.170041
O17	O	-0.357916	-1.073167	0.357984
O18	O	-0.107916	-0.823167	0.607984
O19	O	0.142084	-0.573167	0.857984
O20	O	0.392084	-0.323167	1.107984
O21	O	-0.312330	-1.239205	0.403643
O22	O	-0.062330	-0.989205	0.653643
O23	O	0.187670	-0.739205	0.903643
O24	O	0.437670	-0.489205	1.153643
O25	O	-0.403564	-1.118727	0.191983
O26	O	-0.153564	-0.868727	0.441983
O27	O	0.096436	-0.618727	0.691983
O28	O	0.346436	-0.368727	0.941983
O29	O	-0.191910	-1.027644	0.312387
O30	O	0.058090	-0.777644	0.562387
O31	O	0.308090	-0.527644	0.812387
O32	O	0.558090	-0.277644	1.062387
O33	O	-0.403567	-1.239140	0.312408
O34	O	-0.153567	-0.989140	0.562408
O35	O	0.096433	-0.739140	0.812408
O36	O	0.346433	-0.489140	1.062408
O37	O	-0.191912	-1.118879	0.403631
O38	O	0.058088	-0.868879	0.653631
O39	O	0.308088	-0.618879	0.903631
O40	O	0.558088	-0.368879	1.153631
O41	O	-0.312325	-1.027557	0.191974
O42	O	-0.062325	-0.777557	0.441974
O43	O	0.187675	-0.527557	0.691974
O44	O	0.437675	-0.277557	0.941974
O45	O	-0.312282	-0.907180	0.312339
O46	O	-0.062282	-0.657180	0.562339
O47	O	0.187718	-0.407180	0.812339
O48	O	0.437718	-0.157180	1.062339
O49	O	-0.403490	-1.027555	0.523972
O50	O	-0.153490	-0.777555	0.773972
O51	O	0.096510	-0.527555	1.023972
O52	O	0.346510	-0.277555	1.273972
O53	O	-0.403488	-0.907142	0.403547
O54	O	-0.153488	-0.657142	0.653547
O55	O	0.096512	-0.407142	0.903547
O56	O	0.346512	-0.157142	1.153547
O57	O	-0.312286	-1.118828	0.524008
O58	O	-0.062286	-0.868828	0.774008
O59	O	0.187714	-0.618828	1.024008
O60	O	0.437714	-0.368828	1.274008
O61	O	-0.523939	-1.118676	0.312360
O62	O	-0.273939	-0.868676	0.562360
O63	O	-0.023939	-0.618676	0.812360
O64	O	0.226061	-0.368676	1.062360
O65	O	-0.523906	-1.027468	0.403559
O66	O	-0.273906	-0.777468	0.653559
O67	O	-0.023906	-0.527468	0.903559
O68	O	0.226094	-0.277468	1.153559
C69	C	-0.357880	-0.880215	0.357937
C70	C	-0.107880	-0.630215	0.607937
C71	C	0.142120	-0.380215	0.857937
C72	C	0.392120	-0.130215	1.107937
C73	C	-0.357883	-0.797669	0.357935
C74	C	-0.107883	-0.547669	0.607935
C75	C	0.142117	-0.297669	0.857935
C76	C	0.392117	-0.047669	1.107935
C77	C	-0.308220	-0.548843	0.308440
C78	C	-0.058220	-0.298843	0.558440
C79	C	0.191780	-0.048843	0.808440
C80	C	0.441780	0.201157	1.058440
C81	C	-0.290142	-0.598275	0.376217
C82	C	-0.040142	-0.348275	0.626217
C83	C	0.209858	-0.098275	0.876217
C84	C	0.459858	0.151725	1.126217
C85	C	-0.357905	-0.500548	0.357980
C86	C	-0.107905	-0.250548	0.607980
C87	C	0.142095	-0.000548	0.857980
C88	C	0.392095	0.249452	1.107980
C89	C	-0.375937	-0.598198	0.290184
C90	C	-0.125937	-0.348198	0.540184
C91	C	0.124063	-0.098198	0.790184
C92	C	0.374063	0.151802	1.040184
C93	C	-0.357892	-0.646534	0.357954
C94	C	-0.107892	-0.396534	0.607954
C95	C	0.142108	-0.146534	0.857954
C96	C	0.392108	0.103466	1.107954
C97	C	-0.339791	-0.548893	0.425793
C98	C	-0.089791	-0.298893	0.675793
C99	C	0.160209	-0.048893	0.925793
C100	C	0.410209	0.201107	1.175793
C101	C	-0.425618	-0.548813	0.339714
C102	C	-0.175618	-0.298813	0.589714
C103	C	0.074382	-0.048813	0.839714
C104	C	0.324382	0.201187	1.089714
C105	C	-0.407566	-0.598222	0.407538
C106	C	-0.157566	-0.348222	0.657538
C107	C	0.092434	-0.098222	0.907538
C108	C	0.342434	0.151778	1.157538
C109	C	-0.357910	-0.416450	0.357994
C110	C	-0.107910	-0.166450	0.607994
C111	C	0.142090	0.083550	0.857994
C112	C	0.392090	0.333550	1.107994
C113	C	-0.357887	-0.730630	0.357948
C114	C	-0.107887	-0.480630	0.607948
C115	C	0.142113	-0.230630	0.857948
C116	C	0.392113	0.019370	1.107948
C117	C	-0.550869	-1.073077	0.357972
C118	C	-0.300869	-0.823077	0.607972
C119	C	-0.050869	-0.573077	0.857972
C120	C	0.199131	-0.323077	1.107972
C121	C	-0.633414	-1.073107	0.357992
C122	C	-0.383414	-0.823107	0.607992
C123	C	-0.133414	-0.573107	0.857992
C124	C	0.116586	-0.323107	1.107992
C125	C	-0.832874	-1.023557	0.407568
C126	C	-0.582874	-0.773557	0.657568
C127	C	-0.332874	-0.523557	0.907568
C128	C	-0.082874	-0.273557	1.157568
C129	C	-0.882306	-1.005459	0.339798
C130	C	-0.632306	-0.755459	0.589798
C131	C	-0.382306	-0.505459	0.839798
C132	C	-0.132306	-0.255459	1.089798
C133	C	-0.784545	-1.073180	0.358001
C134	C	-0.534545	-0.823180	0.608001
C135	C	-0.284545	-0.573180	0.858001
C136	C	-0.034545	-0.323180	1.108001
C137	C	-0.882195	-1.091314	0.425779
C138	C	-0.632195	-0.841314	0.675779
C139	C	-0.382195	-0.591314	0.925779
C140	C	-0.132195	-0.341314	1.175779
C141	C	-0.930530	-1.073249	0.358017
C142	C	-0.680530	-0.823249	0.608017
C143	C	-0.430530	-0.573249	0.858017
C144	C	-0.180530	-0.323249	1.108017
C145	C	-0.832889	-1.055046	0.290196
C146	C	-0.582889	-0.805046	0.540196
C147	C	-0.332889	-0.555046	0.790196
C148	C	-0.082889	-0.305046	1.040196
C149	C	-0.832774	-1.140933	0.376222
C150	C	-0.582774	-0.890933	0.626222
C151	C	-0.332774	-0.640933	0.876222
C152	C	-0.082774	-0.390933	1.126222
C153	C	-0.882183	-1.122861	0.308405
C154	C	-0.632183	-0.872861	0.558405
C155	C	-0.382183	-0.622861	0.808405
C156	C	-0.132183	-0.372861	1.058405
C157	C	-0.700446	-1.073138	0.357993
C158	C	-0.450446	-0.823138	0.607993
C159	C	-0.200446	-0.573138	0.857993
C160	C	0.049554	-0.323138	1.107993
C161	C	-1.014626	-1.073291	0.358017
C162	C	-0.764626	-0.823291	0.608017
C163	C	-0.514626	-0.573291	0.858017
C164	C	-0.264626	-0.323291	1.108017
C165	C	-0.164211	-1.073277	0.358013
C166	C	0.085789	-0.823277	0.608013
C167	C	0.335789	-0.573277	0.858013
C168	C	0.585789	-0.323277	1.108013
C169	C	-0.081665	-1.073324	0.358025
C170	C	0.168335	-0.823324	0.608025
C171	C	0.418335	-0.573324	0.858025
C172	C	0.668335	-0.323324	1.108025
C173	C	-0.357884	-1.073196	0.551690
C174	C	-0.107884	-0.823196	0.801690
C175	C	0.142116	-0.573196	1.051690
C176	C	0.392116	-0.323196	1.301690
C177	C	-0.357870	-1.073208	0.634236
C178	C	-0.107870	-0.823208	0.884236
C179	C	0.142130	-0.573208	1.134236
C180	C	0.392130	-0.323208	1.384236
C181	C	-0.357940	-0.266872	0.358019
C182	C	-0.107940	-0.016872	0.608019
C183	C	0.142060	0.233128	0.858019
C184	C	0.392060	0.483128	1.108019
C185	C	-0.357917	-0.349418	0.358001
C186	C	-0.107917	-0.099418	0.608001
C187	C	0.142083	0.150582	0.858001
C188	C	0.392083	0.400582	1.108001
C189	C	-0.357896	-1.073181	0.165032
C190	C	-0.107896	-0.823181	0.415032
C191	C	0.142104	-0.573181	0.665032
C192	C	0.392104	-0.323181	0.915032
C193	C	-0.357701	-1.073312	0.082487
C194	C	-0.107701	-0.823312	0.332487
C195	C	0.142299	-0.573312	0.582487
C196	C	0.392299	-0.323312	0.832487
C197	C	-0.407399	-1.023612	0.833667
C198	C	-0.157399	-0.773612	1.083667
C199	C	0.092601	-0.523612	1.333667
C200	C	0.342601	-0.273612	1.583667
C201	C	-0.425560	-1.091367	0.883069
C202	C	-0.175560	-0.841367	1.133069
C203	C	0.074440	-0.591367	1.383069
C204	C	0.324440	-0.341367	1.633069
C205	C	-0.357813	-1.073245	0.785366
C206	C	-0.107813	-0.823245	1.035366
C207	C	0.142187	-0.573245	1.285366
C208	C	0.392187	-0.323245	1.535366
C209	C	-0.339631	-1.005527	0.883046
C210	C	-0.089631	-0.755527	1.133046
C211	C	0.160369	-0.505527	1.383046
C212	C	0.410369	-0.255527	1.633046
C213	C	-0.357760	-1.073274	0.931352
C214	C	-0.107760	-0.823274	1.181352
C215	C	0.142240	-0.573274	1.431352
C216	C	0.392240	-0.323274	1.681352
C217	C	-0.376010	-1.141036	0.833681
C218	C	-0.126010	-0.891036	1.083681
C219	C	0.123990	-0.641036	1.333681
C220	C	0.373990	-0.391036	1.583681
C221	C	-0.290049	-1.055150	0.833654
C222	C	-0.040049	-0.805150	1.083654
C223	C	0.209951	-0.555150	1.333654
C224	C	0.459951	-0.305150	1.583654
C225	C	-0.308185	-1.122952	0.883034
C226	C	-0.058185	-0.872952	1.133034
C227	C	0.191815	-0.622952	1.383034
C228	C	0.441815	-0.372952	1.633034
C229	C	-0.357845	-1.073227	0.701268
C230	C	-0.107845	-0.823227	0.951268
C231	C	0.142155	-0.573227	1.201268
C232	C	0.392155	-0.323227	1.451268
C233	C	-0.357727	-1.073300	1.015448
C234	C	-0.107727	-0.823300	1.265448
C235	C	0.142273	-0.573300	1.515448
C236	C	0.392273	-0.323300	1.765448
H237	H	-0.266178	-0.527163	0.266609
H238	H	-0.016178	-0.277163	0.516609
H239	H	0.233822	-0.027163	0.766609
H240	H	0.483822	0.222837	1.016609
Cl241	Cl	-0.472221	-0.958870	0.800198
Cl242	Cl	-0.222221	-0.708870	1.050198
Cl243	Cl	0.027779	-0.458870	1.300198
Cl244	Cl	0.277779	-0.208870	1.550198
Cl245	Cl	-0.799595	-1.031307	0.201684
Cl246	Cl	-0.549595	-0.781307	0.451684
Cl247	Cl	-0.299595	-0.531307	0.701684
Cl248	Cl	-0.049595	-0.281307	0.951684
Cl249	Cl	-0.201722	-0.631811	0.400067
Cl250	Cl	0.048278	-0.381811	0.650067
Cl251	Cl	0.298278	-0.131811	0.900067
Cl252	Cl	0.548278	0.118189	1.150067
Cl253	Cl	-0.399495	-0.631640	0.201683
Cl254	Cl	-0.149495	-0.381640	0.451683
Cl255	Cl	0.100505	-0.131640	0.701683
Cl256	Cl	0.350505	0.118360	0.951683
Cl257	Cl	-0.399828	-1.229497	0.800347
Cl258	Cl	-0.149828	-0.979497	1.050347
Cl259	Cl	0.100172	-0.729497	1.300347
Cl260	Cl	0.350172	-0.479497	1.550347
Cl261	Cl	-0.915402	-1.187699	0.243627
Cl262	Cl	-0.665402	-0.937699	0.493627
Cl263	Cl	-0.415402	-0.687699	0.743627
Cl264	Cl	-0.165402	-0.437699	0.993627
H265	H	-0.449577	-0.619766	0.449470
H266	H	-0.199577	-0.369766	0.699470
H267	H	0.050423	-0.119766	0.949470
H268	H	0.300423	0.130234	1.199470
H269	H	-0.811222	-0.981531	0.449426
H270	H	-0.561222	-0.731531	0.699426
H271	H	-0.311222	-0.481531	0.949426
H272	H	-0.061222	-0.231531	1.199426
Cl273	Cl	-0.316130	-0.515599	0.514322
Cl274	Cl	-0.066130	-0.265599	0.764322
Cl275	Cl	0.183870	-0.015599	1.014322
Cl276	Cl	0.433870	0.234401	1.264322
H277	H	-0.482871	-0.527071	0.324251
H278	H	-0.232871	-0.277071	0.574251
H279	H	0.017129	-0.027071	0.824251
H280	H	0.267129	0.222929	1.074251
Cl281	Cl	-0.799156	-1.229325	0.400044
Cl282	Cl	-0.549156	-0.979325	0.650044
Cl283	Cl	-0.299156	-0.729325	0.900044
Cl284	Cl	-0.049156	-0.479325	1.150044
H285	H	-0.903852	-1.106625	0.483091
H286	H	-0.653852	-0.856625	0.733091
H287	H	-0.403852	-0.606625	0.983091
H288	H	-0.153852	-0.356625	1.233091
Cl289	Cl	-0.513999	-1.115025	0.916583
Cl290	Cl	-0.263999	-0.865025	1.166583
Cl291	Cl	-0.013999	-0.615025	1.416583
Cl292	Cl	0.236001	-0.365025	1.666583
H293	H	-0.904080	-0.948195	0.324401
H294	H	-0.654080	-0.698195	0.574401
H295	H	-0.404080	-0.448195	0.824401
H296	H	-0.154080	-0.198195	1.074401
H297	H	-0.266229	-1.164986	0.904572
H298	H	-0.016229	-0.914986	1.154572
H299	H	0.233771	-0.664986	1.404572
H300	H	0.483771	-0.414986	1.654572
H301	H	-0.232782	-1.039807	0.811932
H302	H	0.017218	-0.789807	1.061932
H303	H	0.267218	-0.539807	1.311932
H304	H	0.517218	-0.289807	1.561932
Cl305	Cl	-0.315921	-0.917092	0.916526
Cl306	Cl	-0.065921	-0.667092	1.166526
Cl307	Cl	0.184079	-0.417092	1.416526
Cl308	Cl	0.434079	-0.167092	1.666526
