data_functionalizedCrystal
_audit_creation_method	'MofGen! by Chris Wilmer'
_symmetry_space_group_name_H-M	'P1'
_symmetry_Int_Tables_number	1
_symmetry_cell_setting	triclinic
loop_
_symmetry_equiv_pos_as_xyz
  x,y,z
_cell_length_a	21.295418
_cell_length_b	12.827892
_cell_length_c	12.827885
_cell_angle_alpha	90.029786
_cell_angle_beta	89.959362
_cell_angle_gamma	89.968793
loop_
_atom_site_label
_atom_site_type_symbol
_atom_site_fract_x
_atom_site_fract_y
_atom_site_fract_z
Zn1	Zn	0.962403	0.415541	-0.591439
Zn2	Zn	1.295736	0.748874	-0.258106
Zn3	Zn	1.629069	1.082208	0.075227
Zn4	Zn	0.962339	0.590319	-0.416700
Zn5	Zn	1.295672	0.923652	-0.083366
Zn6	Zn	1.629005	1.256985	0.249967
Zn7	Zn	0.857132	0.415640	-0.416648
Zn8	Zn	1.190465	0.748974	-0.083315
Zn9	Zn	1.523798	1.082307	0.250018
Zn10	Zn	0.857123	0.590289	-0.591335
Zn11	Zn	1.190456	0.923622	-0.258002
Zn12	Zn	1.523790	1.256956	0.075332
O13	O	0.909749	0.502947	-0.504031
O14	O	1.243082	0.836281	-0.170697
O15	O	1.576416	1.169614	0.162636
O16	O	1.050484	0.438697	-0.568325
O17	O	1.383817	0.772030	-0.234992
O18	O	1.717150	1.105363	0.098342
O19	O	0.948359	0.567201	-0.270457
O20	O	1.281693	0.900534	0.062877
O21	O	1.615026	1.233868	0.396210
O22	O	0.871126	0.269391	-0.439857
O23	O	1.204460	0.602724	-0.106524
O24	O	1.537793	0.936058	0.226810
O25	O	1.050436	0.567105	-0.439944
O26	O	1.383770	0.900438	-0.106611
O27	O	1.717103	1.233771	0.226722
O28	O	0.948469	0.269318	-0.568275
O29	O	1.281802	0.602652	-0.234942
O30	O	1.615135	0.935985	0.098391
O31	O	0.871064	0.438866	-0.270419
O32	O	1.204397	0.772199	0.062914
O33	O	1.537731	1.105532	0.396248
O34	O	0.769041	0.438837	-0.439756
O35	O	1.102374	0.772170	-0.106423
O36	O	1.435708	1.105504	0.226911
O37	O	0.871112	0.567055	-0.737585
O38	O	1.204445	0.900388	-0.404252
O39	O	1.537779	1.233721	-0.070918
O40	O	0.769035	0.567151	-0.568097
O41	O	1.102368	0.900484	-0.234764
O42	O	1.435701	1.233817	0.098569
O43	O	0.948460	0.438668	-0.737662
O44	O	1.281794	0.772001	-0.404328
O45	O	1.615127	1.105335	-0.070995
O46	O	0.948351	0.736551	-0.439843
O47	O	1.281684	1.069884	-0.106510
O48	O	1.615018	1.403217	0.226823
O49	O	0.871050	0.736529	-0.568147
O50	O	1.204383	1.069862	-0.234814
O51	O	1.537716	1.403196	0.098520
C52	C	0.746197	0.503002	-0.503910
C53	C	1.079531	0.836336	-0.170577
C54	C	1.412864	1.169669	0.162756
C55	C	0.676229	0.503051	-0.503884
C56	C	1.009562	0.836384	-0.170550
C57	C	1.342896	1.169718	0.162783
C58	C	0.909710	0.774457	-0.504012
C59	C	1.243043	1.107791	-0.170679
C60	C	1.576376	1.441124	0.162654
C61	C	0.909750	0.890610	-0.504039
C62	C	1.243084	1.223944	-0.170706
C63	C	1.576417	1.557277	0.162627
C64	C	0.909792	0.502847	-0.776601
C65	C	1.243126	0.836180	-0.443268
C66	C	1.576459	1.169514	-0.109934
C67	C	0.909811	0.502804	-0.892754
C68	C	1.243144	0.836137	-0.559421
C69	C	1.576477	1.169471	-0.226088
C70	C	0.643376	0.569952	-0.570611
C71	C	0.976709	0.903286	-0.237278
C72	C	1.310042	1.236619	0.096055
C73	C	0.577633	0.569927	-0.570658
C74	C	0.910967	0.903260	-0.237325
C75	C	1.244300	1.236593	0.096009
C76	C	0.544747	0.503010	-0.503959
C77	C	0.878080	0.836344	-0.170626
C78	C	1.211413	1.169677	0.162708
C79	C	0.577608	0.436096	-0.437227
C80	C	0.910941	0.769429	-0.103893
C81	C	1.244275	1.102763	0.229440
C82	C	0.643349	0.436116	-0.437189
C83	C	0.976683	0.769450	-0.103856
C84	C	1.310016	1.102783	0.229478
N85	N	0.441472	0.494857	-0.412557
N86	N	0.774806	0.828191	-0.079224
N87	N	1.108139	1.161524	0.254109
N88	N	0.379021	0.494844	-0.412596
N89	N	0.712354	0.828177	-0.079263
N90	N	1.045688	1.161511	0.254071
C91	C	0.346672	0.502944	-0.504070
C92	C	0.680005	0.836277	-0.170736
C93	C	1.013339	1.169610	0.162597
N94	N	0.379134	0.511077	-0.595505
N95	N	0.712467	0.844411	-0.262172
N96	N	1.045800	1.177744	0.071161
N97	N	0.441591	0.511096	-0.595465
N98	N	0.774924	0.844429	-0.262132
N99	N	1.108258	1.177763	0.071201
C100	C	0.473461	0.502981	-0.503993
C101	C	0.806795	0.836314	-0.170659
C102	C	1.140128	1.169647	0.162674
C103	C	0.242533	0.569821	-0.570854
C104	C	0.575866	0.903154	-0.237520
C105	C	0.909200	1.236487	0.095813
C106	C	0.176789	0.569788	-0.570902
C107	C	0.510123	0.903121	-0.237569
C108	C	0.843456	1.236454	0.095764
C109	C	0.176765	0.435963	-0.437462
C110	C	0.510099	0.769296	-0.104128
C111	C	0.843432	1.102629	0.229205
C112	C	0.242508	0.435990	-0.437422
C113	C	0.575841	0.769323	-0.104089
C114	C	0.909175	1.102657	0.229244
C115	C	0.275388	0.502925	-0.504117
C116	C	0.608721	0.836258	-0.170784
C117	C	0.942054	1.169592	0.162550
C118	C	1.073939	0.502893	-0.504152
C119	C	1.407273	0.836226	-0.170819
C120	C	1.740606	1.169559	0.162515
C121	C	1.143907	0.502870	-0.504204
C122	C	1.477241	0.836203	-0.170870
C123	C	1.810574	1.169536	0.162463
C124	C	0.909806	0.230377	-0.504072
C125	C	1.243139	0.563710	-0.170739
C126	C	1.576472	0.897044	0.162595
C127	C	0.909830	0.114224	-0.504090
C128	C	1.243163	0.447557	-0.170756
C129	C	1.576496	0.780891	0.162577
C130	C	0.948047	0.942371	-0.440621
C131	C	1.281380	1.275704	-0.107288
C132	C	1.614714	1.609038	0.226046
C133	C	0.948090	1.062421	-0.440647
C134	C	1.281423	1.395755	-0.107314
C135	C	1.614757	1.729088	0.226019
C136	C	0.871575	0.439287	-0.944520
C137	C	1.204908	0.772621	-0.611187
C138	C	1.538242	1.105954	-0.277854
C139	C	0.871593	0.439242	-1.064571
C140	C	1.204926	0.772575	-0.731237
C141	C	1.538260	1.105908	-0.397904
C142	C	0.909742	0.502972	-0.232521
C143	C	1.243075	0.836305	0.100813
C144	C	1.576409	1.169638	0.434146
C145	C	0.909845	0.502720	-0.116368
C146	C	1.243179	0.836053	0.216965
C147	C	1.576512	1.169387	0.550299
H148	H	0.670142	0.624454	-0.624921
H149	H	1.003476	0.957788	-0.291587
H150	H	1.336809	1.291121	0.041746
Cl151	Cl	0.821053	0.355274	-1.133297
Cl152	Cl	1.154387	0.688607	-0.799963
Cl153	Cl	1.487720	1.021941	-0.466630
Cl154	Cl	0.998710	1.131140	-0.356810
Cl155	Cl	1.332043	1.464474	-0.023477
Cl156	Cl	1.665377	1.797807	0.309856
H157	H	0.942585	0.557098	-1.071857
H158	H	1.275918	0.890431	-0.738524
H159	H	1.609251	1.223765	-0.405191
H160	H	0.942559	0.557150	-0.937312
H161	H	1.275892	0.890484	-0.603979
H162	H	1.609225	1.223817	-0.270645
H163	H	0.269305	0.624318	-0.625166
H164	H	0.602639	0.957651	-0.291833
H165	H	0.935972	1.290984	0.041501
H166	H	0.877038	1.069719	-0.558384
H167	H	1.210372	1.403052	-0.225050
H168	H	1.543705	1.736385	0.108283
H169	H	0.838824	0.384946	-0.899962
H170	H	1.172157	0.718280	-0.566629
H171	H	1.505490	1.051613	-0.233296
H172	H	0.550879	0.624405	-0.625000
H173	H	0.884212	0.957739	-0.291666
H174	H	1.217545	1.291072	0.041667
Cl175	Cl	0.536266	0.351968	-0.353381
Cl176	Cl	0.869599	0.685301	-0.020048
Cl177	Cl	1.202933	1.018634	0.313286
H178	H	0.149990	0.381473	-0.383159
H179	H	0.483323	0.714806	-0.049825
H180	H	0.816657	1.048140	0.283508
Cl181	Cl	0.684653	0.352005	-0.353296
Cl182	Cl	1.017986	0.685338	-0.019962
Cl183	Cl	1.351320	1.018671	0.313371
Cl184	Cl	0.859179	0.959402	-0.587907
Cl185	Cl	1.192513	1.292736	-0.254573
Cl186	Cl	1.525846	1.626069	0.078760
Cl187	Cl	0.135487	0.653895	-0.654803
Cl188	Cl	0.468821	0.987228	-0.321469
Cl189	Cl	0.802154	1.320561	0.011864
H190	H	0.980805	0.897811	-0.386310
H191	H	1.314138	1.231145	-0.052976
H192	H	1.647472	1.564478	0.280357
Cl193	Cl	0.283812	0.351883	-0.353528
Cl194	Cl	0.617145	0.685217	-0.020195
Cl195	Cl	0.950478	1.018550	0.313139
