data_functionalizedCrystal
_audit_creation_method	'MofGen! by Chris Wilmer'
_symmetry_space_group_name_H-M	'P1'
_symmetry_Int_Tables_number	1
_symmetry_cell_setting	triclinic
loop_
_symmetry_equiv_pos_as_xyz
  x,y,z
_cell_length_a	12.594516
_cell_length_b	17.077404
_cell_length_c	17.077396
_cell_angle_alpha	89.982940
_cell_angle_beta	89.975251
_cell_angle_gamma	90.016278
loop_
_atom_site_label
_atom_site_type_symbol
_atom_site_fract_x
_atom_site_fract_y
_atom_site_fract_z
Zn1	Zn	-0.423719	1.200073	-0.443872
Zn2	Zn	-0.601725	1.200001	-0.312618
Zn3	Zn	-0.423761	1.068810	-0.312620
Zn4	Zn	-0.601656	1.068788	-0.443842
O5	O	-0.512715	1.134418	-0.378238
O6	O	-0.447343	1.309910	-0.426473
O7	O	-0.578164	1.182578	-0.202771
O8	O	-0.274810	1.086262	-0.330044
O9	O	-0.578123	1.309858	-0.330041
O10	O	-0.274779	1.182700	-0.426474
O11	O	-0.447415	1.086192	-0.202773
O12	O	-0.447349	0.958961	-0.330015
O13	O	-0.578006	1.086224	-0.553693
O14	O	-0.578047	0.958944	-0.426423
O15	O	-0.447276	1.182679	-0.553715
O16	O	-0.750661	1.182556	-0.330012
O17	O	-0.750611	1.086155	-0.426421
C18	C	-0.512696	0.930470	-0.378216
C19	C	-0.512713	0.843221	-0.378226
C20	C	-0.580871	0.802243	-0.428345
C21	C	-0.580873	0.720262	-0.428357
C22	C	-0.512723	0.679261	-0.378246
C23	C	-0.444557	0.720245	-0.328125
C24	C	-0.444551	0.802224	-0.328117
C25	C	-0.444578	0.549375	-0.328144
C26	C	-0.444586	0.467390	-0.328150
C27	C	-0.580901	0.467413	-0.428384
C28	C	-0.580894	0.549392	-0.428376
C29	C	-0.512730	0.590370	-0.378253
C30	C	-0.789256	1.134367	-0.378230
C31	C	-0.907562	1.134417	-0.378253
C32	C	-0.976826	1.081979	-0.430653
C33	C	-1.047689	1.062858	-0.359026
C34	C	-1.047498	1.153609	-0.449893
C35	C	-0.976866	1.115258	-0.306587
C36	C	-0.976669	1.206042	-0.397503
C37	C	-1.047500	1.186949	-0.325826
C38	C	-0.235094	1.134491	-0.378263
C39	C	-0.116789	1.134522	-0.378273
C40	C	-0.512735	1.339163	-0.378260
C41	C	-0.512744	1.426412	-0.378269
C42	C	-0.512629	1.134457	-0.582982
C43	C	-0.512592	1.134474	-0.670232
C44	C	-0.580549	1.184733	-1.046048
C45	C	-0.580580	1.184713	-0.964068
C46	C	-0.512517	1.134524	-0.923081
C47	C	-0.444426	1.084346	-0.964079
C48	C	-0.444401	1.084363	-1.046058
C49	C	-0.444481	1.084317	-0.793209
C50	C	-0.444504	1.084301	-0.711224
C51	C	-0.580660	1.184667	-0.711219
C52	C	-0.580635	1.184684	-0.793198
C53	C	-0.512543	1.134506	-0.834190
C54	C	-0.512724	1.134425	-0.174290
C55	C	-0.512461	1.134560	-0.087041
H56	H	-0.389079	0.434010	-0.287355
Cl57	Cl	-0.358941	1.021203	-0.659699
Cl58	Cl	-0.358795	1.021290	-1.097591
H59	H	-0.389033	1.043457	-0.826582
H60	H	-0.945793	1.037554	-0.474902
Cl61	Cl	-0.929170	1.090154	-0.213034
Cl62	Cl	-0.358885	0.600889	-0.265131
Cl63	Cl	-0.666578	0.415899	-0.491407
H64	H	-0.389013	1.043478	-0.930701
Cl65	Cl	-1.095111	1.255486	-0.257348
Cl66	Cl	-0.358875	0.668701	-0.265132
H67	H	-0.636038	1.225559	-0.930696
H68	H	-0.636371	0.835620	-0.469149
Cl69	Cl	-0.666199	1.247781	-0.844723
Cl70	Cl	-0.928468	1.299465	-0.422669
H71	H	-0.636375	0.686902	-0.469169
Cl72	Cl	-1.095404	1.178605	-0.543417
Cl73	Cl	-0.666267	1.247744	-0.659686
H74	H	-0.635969	1.225606	-1.079414
Cl75	Cl	-0.358860	0.853739	-0.265109
H76	H	-0.636394	0.582773	-0.469177
Cl77	Cl	-1.095851	0.969410	-0.333891
