data_functionalizedCrystal
_audit_creation_method	'MofGen! by Chris Wilmer'
_symmetry_space_group_name_H-M	'P1'
_symmetry_Int_Tables_number	1
_symmetry_cell_setting	triclinic
loop_
_symmetry_equiv_pos_as_xyz
  x,y,z
_cell_length_a	17.000383
_cell_length_b	17.019294
_cell_length_c	15.500227
_cell_angle_alpha	88.951630
_cell_angle_beta	87.377684
_cell_angle_gamma	79.506204
loop_
_atom_site_label
_atom_site_type_symbol
_atom_site_fract_x
_atom_site_fract_y
_atom_site_fract_z
O1	O	1.059871	0.024415	-0.073822
O2	O	1.559871	0.524415	0.426178
O3	O	0.828216	0.052930	-0.075935
O4	O	1.328216	0.552930	0.424065
O5	O	0.950068	-0.076142	-0.066321
O6	O	1.450068	0.423858	0.433679
O7	O	0.938019	0.153488	-0.083436
O8	O	1.438019	0.653488	0.416564
O9	O	0.942674	-0.068338	0.076986
O10	O	1.442674	0.431662	0.576986
O11	O	0.820821	0.060734	0.067373
O12	O	1.320821	0.560734	0.567373
O13	O	1.052477	0.032219	0.069485
O14	O	1.552477	0.532219	0.569485
Cu15	Cu	0.935974	0.047189	0.081514
Cu16	Cu	1.435974	0.547189	0.581514
Cu17	Cu	0.944719	0.037960	-0.087964
Cu18	Cu	1.444719	0.537960	0.412036
O19	O	0.930625	0.161292	0.059872
O20	O	1.430625	0.661292	0.559872
C21	C	0.794869	0.058364	-0.004394
C22	C	1.294869	0.558364	0.495606
C23	C	0.706523	0.062918	-0.004728
C24	C	1.206523	0.562918	0.495272
C25	C	0.206387	0.092320	-0.006952
C26	C	0.706387	0.592320	0.493048
C27	C	0.289398	0.088035	-0.006632
C28	C	0.789398	0.588035	0.493368
C29	C	0.340192	0.013661	-0.001082
C30	C	0.840192	0.513661	0.498918
C31	C	0.307970	-0.056433	0.004139
C32	C	0.807970	0.443567	0.504139
C33	C	0.224961	-0.052147	0.003813
C34	C	0.724961	0.447853	0.503813
C35	C	0.591292	-0.002891	0.000167
C36	C	1.091292	0.497109	0.500167
C37	C	0.674306	-0.007171	0.000495
C38	C	1.174306	0.492829	0.500495
C39	C	0.655728	0.137298	-0.010278
C40	C	1.155728	0.637298	0.489722
C41	C	0.572718	0.141576	-0.010598
C42	C	1.072718	0.641576	0.489402
C43	C	0.540504	0.071482	-0.005382
C44	C	1.040504	0.571482	0.494618
C45	C	0.425043	0.009280	-0.000752
C46	C	0.925043	0.509280	0.499248
C47	C	0.455655	0.075864	-0.005718
C48	C	0.955655	0.575864	0.494282
C49	C	0.945768	-0.101477	0.007510
C50	C	1.445768	0.398523	0.507510
C51	C	0.943963	-0.188592	0.013998
C52	C	1.443963	0.311408	0.513998
C53	C	0.947147	-0.233768	-0.061071
C54	C	1.447147	0.266232	0.438929
C55	C	0.945446	-0.315621	-0.054972
C56	C	1.445446	0.184379	0.445028
C57	C	0.940566	-0.352297	0.026196
C58	C	1.440566	0.147703	0.526196
C59	C	0.937379	-0.307114	0.101269
C60	C	1.437379	0.192886	0.601269
C61	C	0.939075	-0.225262	0.095170
C62	C	1.439075	0.274738	0.595170
C63	C	0.935239	-0.599224	0.048520
C64	C	1.435239	-0.099224	0.548520
C65	C	0.933546	-0.681083	0.054614
C66	C	1.433546	-0.181083	0.554614
C67	C	0.941611	-0.689584	-0.101629
C68	C	1.441611	-0.189584	0.398371
C69	C	0.943312	-0.607730	-0.107721
C70	C	1.443312	-0.107730	0.392279
C71	C	0.940120	-0.562554	-0.032647
C72	C	1.440120	-0.062554	0.467353
C73	C	0.938829	-0.435964	0.032431
C74	C	1.438829	0.064036	0.532431
C75	C	0.941851	-0.478887	-0.038884
C76	C	1.441851	0.021113	0.461116
C77	C	1.085824	0.026786	-0.002058
C78	C	1.585824	0.526786	0.497942
C79	C	1.174171	0.022231	-0.001729
C80	C	1.674171	0.522231	0.498271
C81	C	0.934925	0.186626	-0.013961
C82	C	1.434925	0.686626	0.486039
C83	C	0.936730	0.273741	-0.020455
C84	C	1.436730	0.773741	0.479545
N85	N	0.929829	0.053679	0.200716
N86	N	1.429829	0.553679	0.700716
N87	N	0.950870	0.031464	-0.207165
N88	N	1.450870	0.531464	0.292835
C89	C	0.981480	-0.000996	0.250065
C90	C	1.481480	0.499004	0.750065
C91	C	0.976841	0.003920	0.340271
C92	C	1.476841	0.503920	0.840271
C93	C	0.920553	0.063514	0.381127
C94	C	1.420553	0.563514	0.881127
C95	C	0.868896	0.118191	0.331772
C96	C	1.368896	0.618191	0.831772
C97	C	0.873533	0.113272	0.241567
C98	C	1.373533	0.613272	0.741567
C99	C	0.903850	0.081222	0.653275
C100	C	1.403850	0.581222	1.153275
C101	C	0.899219	0.086139	0.743486
C102	C	1.399219	0.586139	1.243486
C103	C	1.007163	-0.028135	0.751980
C104	C	1.507163	0.471865	1.251980
C105	C	1.011797	-0.033046	0.661773
C106	C	1.511797	0.466954	1.161773
C107	C	0.960138	0.021629	0.612425
C108	C	1.460138	0.521629	1.112425
C109	C	0.915810	0.068541	0.473333
C110	C	1.415810	0.568541	0.973333
C111	C	0.964877	0.016598	0.520222
C112	C	1.464877	0.516598	1.020222
H113	H	0.565074	-0.059967	0.004417
H114	H	1.065074	0.440033	0.504417
H115	H	0.165035	0.152884	-0.011465
H116	H	0.665035	0.652884	0.488535
F117	F	1.041394	-0.064421	0.206591
F118	F	1.541394	0.435579	0.706591
F119	F	1.062137	-0.086322	0.804504
F120	F	1.562137	0.413678	1.304504
H121	H	1.018898	-0.040602	0.380451
H122	H	1.518898	0.459398	0.880451
H123	H	0.831472	0.157793	0.201387
H124	H	1.331472	0.657793	0.701387
H125	H	0.934858	-0.465835	0.098518
H126	H	1.434858	0.034165	0.598518
F127	F	1.071705	-0.096471	0.618292
F128	F	1.571705	0.403529	1.118292
H129	H	0.932656	-0.562454	0.109651
H130	H	1.432656	-0.062454	0.609651
H131	H	0.349334	-0.116990	0.008653
H132	H	0.849334	0.383010	0.508653
F133	F	0.518665	0.220735	-0.016510
F134	F	1.018665	0.720735	0.483490
F135	F	0.401596	0.155015	-0.011629
F136	F	0.901596	0.655015	0.488371
H137	H	0.198733	-0.109221	0.008065
H138	H	0.698733	0.390779	0.508065
F139	F	0.855907	0.131966	0.516819
F140	F	1.355907	0.631966	1.016819
H141	H	1.010704	-0.031926	0.486955
H142	H	1.510704	0.468074	0.986955
F143	F	0.839307	0.149572	0.786962
F144	F	1.339307	0.649572	1.286962
H145	H	0.466408	-0.051275	0.003769
H146	H	0.966408	0.448725	0.503769
H147	H	0.315624	0.145109	-0.010894
H148	H	0.815624	0.645109	0.489106
F149	F	0.947047	-0.439853	-0.125266
F150	F	1.447047	0.060147	0.374734
H151	H	0.681966	0.194364	-0.014526
H152	H	1.181966	0.694364	0.485474
F153	F	0.848873	0.139412	0.600763
F154	F	1.348873	0.639412	1.100763
H155	H	0.823061	0.166712	0.365042
H156	H	1.323061	0.666712	0.865042
H157	H	0.951126	-0.203914	-0.127166
H158	H	1.451126	0.296086	0.372834
F159	F	0.728364	-0.086334	0.006401
F160	F	1.228364	0.413666	0.506401
H161	H	0.936470	-0.188478	0.156299
H162	H	1.436470	0.311522	0.656299
F163	F	0.945007	-0.737669	-0.181522
F164	F	1.445007	-0.237669	0.318478
H165	H	0.947287	-0.577875	-0.173816
H166	H	1.447287	-0.077875	0.326184
F167	F	0.948836	-0.363698	-0.134871
F168	F	1.448836	0.136302	0.365129
F169	F	0.928356	-0.720115	0.141008
F170	F	1.428356	-0.220115	0.641008
F171	F	0.932176	-0.346148	0.187655
F172	F	1.432176	0.153852	0.687655
