data_functionalizedCrystal
_audit_creation_method	'MofGen! by Chris Wilmer'
_symmetry_space_group_name_H-M	'P1'
_symmetry_Int_Tables_number	1
_symmetry_cell_setting	triclinic
loop_
_symmetry_equiv_pos_as_xyz
  x,y,z
_cell_length_a	10.967874
_cell_length_b	11.026623
_cell_length_c	9.482944
_cell_angle_alpha	81.872538
_cell_angle_beta	112.344705
_cell_angle_gamma	83.619608
loop_
_atom_site_label
_atom_site_type_symbol
_atom_site_fract_x
_atom_site_fract_y
_atom_site_fract_z
O1	O	1.794388	-0.250951	0.570432
O2	O	1.418170	-0.253984	0.476183
O3	O	1.575096	-0.074464	0.515488
O4	O	1.637462	-0.430471	0.531127
O5	O	1.530572	-0.038795	0.262540
O6	O	1.373646	-0.218315	0.223235
O7	O	1.749864	-0.215282	0.317484
Cu8	Cu	1.557689	-0.213542	0.247264
Cu9	Cu	1.610344	-0.255724	0.546404
O10	O	1.592938	-0.394802	0.278179
C11	C	1.346995	-0.233234	0.337456
C12	C	1.201247	-0.224532	0.300943
C13	C	1.159334	-0.239130	0.415699
C14	C	1.008696	-0.230136	0.377965
C15	C	1.541329	-0.010921	0.386133
C16	C	1.507033	0.125277	0.377545
C17	C	1.601729	0.194984	0.401269
C18	C	1.566285	0.335752	0.392393
C19	C	1.821039	-0.236033	0.456215
C20	C	1.966789	-0.244736	0.492737
N21	N	1.520664	-0.183873	0.036867
C22	C	1.626703	0.541655	0.407534
C23	C	1.660994	0.405456	0.416121
C24	C	1.599414	-0.246972	-0.015602
C25	C	1.568616	-0.222275	-0.190736
N26	N	1.647378	-0.285384	0.756802
H27	H	1.234972	-0.258292	0.541882
H28	H	1.709039	0.150449	0.428144
H29	H	1.042422	-0.263902	0.618929
N30	N	1.100857	-0.198771	0.133872
H31	H	1.049835	-0.269840	0.115122
H32	H	1.036190	-0.118956	0.112446
N33	N	1.424128	0.394720	0.356794
H34	H	1.418958	0.486920	0.355503
H35	H	1.362666	0.381512	0.251761
H36	H	1.768334	0.360911	0.443121
H37	H	1.399723	0.169812	0.350671
N38	N	0.908477	-0.204243	0.210796
H39	H	0.815050	-0.201240	0.207530
H40	H	0.914936	-0.121588	0.155261
N41	N	1.718935	-0.342741	0.096624
H42	H	1.723997	-0.346805	0.205827
H43	H	1.709285	-0.426926	0.067681
N44	N	1.449106	-0.126483	-0.302953
H45	H	1.444047	-0.122415	-0.412155
H46	H	1.364574	-0.150667	-0.297624
N47	N	1.766904	-0.381161	-0.130979
H48	H	1.771968	-0.385228	-0.021776
H49	H	1.757249	-0.465344	-0.159927
H50	H	1.430445	-0.111564	-0.047868
