data_functionalizedCrystal
_audit_creation_method	'MofGen! by Chris Wilmer'
_symmetry_space_group_name_H-M	'P1'
_symmetry_Int_Tables_number	1
_symmetry_cell_setting	triclinic
loop_
_symmetry_equiv_pos_as_xyz
  x,y,z
_cell_length_a	16.120530
_cell_length_b	16.120444
_cell_length_c	16.120256
_cell_angle_alpha	84.383140
_cell_angle_beta	89.871735
_cell_angle_gamma	90.168401
loop_
_atom_site_label
_atom_site_type_symbol
_atom_site_fract_x
_atom_site_fract_y
_atom_site_fract_z
Zn1	Zn	1.224978	-0.422283	0.554821
Zn2	Zn	1.224871	-0.554963	0.422127
Zn3	Zn	1.093718	-0.408194	0.408063
Zn4	Zn	1.078868	-0.554200	0.554060
O5	O	1.155609	-0.484910	0.484768
O6	O	1.340999	-0.446099	0.543424
O7	O	1.213643	-0.529917	0.303628
O8	O	1.117389	-0.293432	0.421964
O9	O	1.340921	-0.543579	0.445934
O10	O	1.213825	-0.303783	0.529786
O11	O	1.117286	-0.422087	0.293295
O12	O	0.975712	-0.421346	0.421226
O13	O	1.092080	-0.542277	0.670795
O14	O	0.964802	-0.528616	0.528489
O15	O	1.199426	-0.445359	0.671354
O16	O	1.199244	-0.671493	0.445196
O17	O	1.091977	-0.670932	0.542127
C18	C	0.940171	-0.473370	0.473249
C19	C	0.848003	-0.468454	0.468342
C20	C	1.144009	-0.701456	0.495124
C21	C	1.139121	-0.794101	0.499587
C22	C	0.679252	-0.459460	0.459389
C23	C	0.632800	-0.510424	0.510211
C24	C	0.538901	-0.505420	0.505229
C25	C	0.773159	-0.464463	0.464370
C26	C	1.181159	-1.005258	0.461810
C27	C	1.130212	-0.963720	0.507743
C28	C	1.135170	-0.869335	0.503203
C29	C	1.176202	-1.099651	0.466348
C30	C	1.371888	-0.496496	0.496332
C31	C	1.464054	-0.501433	0.501261
C32	C	1.144109	-0.495304	0.702162
C33	C	1.139208	-0.499734	0.794802
C34	C	1.167275	-0.267521	0.474391
C35	C	1.172247	-0.174882	0.469969
C36	C	1.167115	-0.474499	0.268220
C37	C	1.172189	-0.469843	0.175577
C38	C	1.181165	-0.461789	1.005966
C39	C	1.130235	-0.507785	0.964408
C40	C	1.135229	-0.503304	0.870030
C41	C	1.176172	-0.466269	1.100352
H42	H	0.663551	-0.557813	0.557462
H43	H	0.648502	-0.412075	0.412142
C44	C	1.066245	-1.011431	0.565466
C45	C	1.061304	-1.107181	0.569977
C46	C	0.997336	-1.154895	0.627692
C47	C	0.938308	-1.106860	0.680897
C48	C	0.943246	-1.011105	0.676389
C49	C	1.007215	-0.963390	0.618673
H50	H	1.105002	-1.142744	0.530589
H51	H	0.993681	-1.225780	0.631030
H52	H	0.890955	-1.142181	0.723622
H53	H	0.899548	-0.975542	0.715776
H54	H	1.010870	-0.892506	0.615336
H55	H	1.228497	-0.969939	0.419078
C56	C	1.066266	-0.565537	1.012091
C57	C	1.061301	-0.570000	1.107835
C58	C	0.997339	-0.627753	1.155523
C59	C	0.938342	-0.681042	1.107466
C60	C	0.943305	-0.676581	1.011717
C61	C	1.007267	-0.618828	0.964030
H62	H	1.104976	-0.530550	1.143414
H63	H	0.993665	-0.631055	1.226403
H64	H	0.890993	-0.723794	1.142767
H65	H	0.899630	-0.716030	0.976138
H66	H	1.010941	-0.615526	0.893150
H67	H	1.228516	-0.419050	0.970667
