data_functionalizedCrystal
_audit_creation_method	'MofGen! by Chris Wilmer'
_symmetry_space_group_name_H-M	'P1'
_symmetry_Int_Tables_number	1
_symmetry_cell_setting	triclinic
loop_
_symmetry_equiv_pos_as_xyz
  x,y,z
_cell_length_a	12.759401
_cell_length_b	12.594516
_cell_length_c	12.759393
_cell_angle_alpha	90.029993
_cell_angle_beta	90.019125
_cell_angle_gamma	90.017816
loop_
_atom_site_label
_atom_site_type_symbol
_atom_site_fract_x
_atom_site_fract_y
_atom_site_fract_z
Zn1	Zn	1.606230	-0.423689	0.594010
Zn2	Zn	2.106230	0.076311	1.094010
Zn3	Zn	1.606114	-0.601709	0.418335
Zn4	Zn	2.106114	-0.101709	0.918335
Zn5	Zn	1.430532	-0.423744	0.418348
Zn6	Zn	1.930532	0.076256	0.918348
Zn7	Zn	1.430510	-0.601625	0.593975
Zn8	Zn	1.930510	-0.101625	1.093975
O9	O	1.518346	-0.512692	0.506167
O10	O	2.018346	-0.012692	1.006167
O11	O	1.753236	-0.447316	0.570716
O12	O	2.253236	0.052684	1.070716
O13	O	1.582783	-0.578159	0.271316
O14	O	2.082783	-0.078159	0.771316
O15	O	1.453897	-0.274791	0.441670
O16	O	1.953897	0.225209	0.941670
O17	O	1.753150	-0.578106	0.441649
O18	O	2.253150	-0.078106	0.941649
O19	O	1.582981	-0.274751	0.570729
O20	O	2.082981	0.225249	1.070729
O21	O	1.453784	-0.447409	0.271325
O22	O	1.953784	0.052591	0.771325
O23	O	1.283508	-0.447328	0.441636
O24	O	1.783508	0.052672	0.941636
O25	O	1.453859	-0.577964	0.741001
O26	O	1.953859	-0.077964	1.241001
O27	O	1.283492	-0.578017	0.570668
O28	O	1.783492	-0.078017	1.070668
O29	O	1.582960	-0.447235	0.741027
O30	O	2.082960	0.052765	1.241027
O31	O	1.582762	-0.750644	0.441614
O32	O	2.082762	-0.250644	0.941614
O33	O	1.453746	-0.750582	0.570656
O34	O	1.953746	-0.250582	1.070656
C35	C	1.245379	-0.512670	0.506150
C36	C	1.745379	-0.012670	1.006150
C37	C	1.128602	-0.512686	0.506167
C38	C	1.628602	-0.012686	1.006167
C39	C	1.518267	-0.789233	0.506153
C40	C	2.018267	-0.289233	1.006153
C41	C	1.518330	-0.907538	0.506182
C42	C	2.018330	-0.407538	1.006182
C43	C	0.963993	-0.444570	0.439109
C44	C	1.463993	0.055430	0.939109
C45	C	1.073717	-0.444547	0.439099
C46	C	1.573717	0.055453	0.939099
C47	C	1.073758	-0.580844	0.573259
C48	C	1.573758	-0.080844	1.073259
C49	C	0.964036	-0.580860	0.573274
C50	C	1.464036	-0.080860	1.073274
C51	C	0.909114	-0.376434	0.372028
C52	C	1.409114	0.123566	0.872028
C53	C	0.963951	-0.308275	0.304938
C54	C	1.463951	0.191725	0.804938
C55	C	1.073675	-0.308252	0.304928
C56	C	1.573675	0.191748	0.804928
C57	C	1.128562	-0.376390	0.372007
C58	C	1.628562	0.123610	0.872007
C59	C	1.448216	-1.047560	0.576332
C60	C	1.948216	-0.547560	1.076332
C61	C	1.543997	-0.976648	0.602104
C62	C	2.043997	-0.476648	1.102104
C63	C	1.422558	-0.976879	0.480456
C64	C	1.922558	-0.476879	0.980456
C65	C	1.614333	-1.047412	0.532043
C66	C	2.114333	-0.547412	1.032043
C67	C	1.492830	-1.047648	0.410350
C68	C	1.992830	-0.547648	0.910350
C69	C	1.588677	-0.976768	0.436086
C70	C	2.088677	-0.476768	0.936086
C71	C	1.792380	-0.512715	0.506185
C72	C	2.292380	-0.012715	1.006185
C73	C	1.909156	-0.512725	0.506193
C74	C	2.409156	-0.012725	1.006193
C75	C	1.518420	-0.512584	0.780201
C76	C	2.018420	-0.012584	1.280201
C77	C	1.518451	-0.512539	0.896977
C78	C	2.018451	-0.012539	1.396977
C79	C	1.518454	-0.235071	0.506205
C80	C	2.018454	0.264929	1.006205
C81	C	1.518500	-0.116765	0.506221
C82	C	2.018500	0.383235	1.006221
C83	C	1.518334	-0.512722	0.233200
C84	C	2.018334	-0.012722	0.733200
C85	C	1.518506	-0.512468	0.116424
C86	C	2.018506	-0.012468	0.616424
C87	C	1.585683	-0.444462	0.951855
C88	C	2.085683	0.055538	1.451855
C89	C	1.585708	-0.444423	1.061579
C90	C	2.085708	0.055577	1.561579
C91	C	1.451266	-0.580548	1.061539
C92	C	1.951266	-0.080548	1.561539
C93	C	1.451237	-0.580580	0.951817
C94	C	1.951237	-0.080580	1.451817
C95	C	1.652898	-0.376420	0.897016
C96	C	2.152898	0.123580	1.397016
C97	C	1.720136	-0.308339	0.951893
C98	C	2.220136	0.191661	1.451893
C99	C	1.720161	-0.308300	1.061617
C100	C	2.220161	0.191700	1.561617
C101	C	1.652948	-0.376343	1.116464
C102	C	2.152948	0.123657	1.616464
H103	H	0.819771	-0.376447	0.372027
H104	H	1.319771	0.123553	0.872027
H105	H	1.774902	-0.252857	1.106295
H106	H	2.274902	0.247143	1.606295
H107	H	1.396474	-0.635998	0.907134
H108	H	1.896474	-0.135998	1.407134
H109	H	1.471156	-1.078856	0.329315
H110	H	1.971156	-0.578856	0.829315
H111	H	1.652961	-0.376294	1.205809
H112	H	2.152961	0.123706	1.705809
H113	H	0.919254	-0.252794	0.250331
H114	H	1.419254	0.247206	0.750331
H115	H	1.118320	-0.252746	0.250308
H116	H	1.618320	0.247254	0.750308
H117	H	1.341493	-0.945890	0.458682
H118	H	1.841493	-0.445890	0.958682
H119	H	1.774852	-0.252934	0.907230
H120	H	2.274852	0.247066	1.407230
H121	H	1.396544	-0.635945	1.106204
H122	H	1.896544	-0.135945	1.606204
H123	H	1.217907	-0.376356	0.372004
H124	H	1.717907	0.123644	0.872004
H125	H	1.118456	-0.636318	0.627871
H126	H	1.618456	-0.136318	1.127871
H127	H	0.919387	-0.636354	0.627902
H128	H	1.419387	-0.136354	1.127902
H129	H	1.388924	-1.078640	0.635684
H130	H	1.888924	-0.578640	1.135684
H131	H	1.565643	-0.945465	0.683163
H132	H	2.065643	-0.445465	1.183163
H133	H	1.695422	-1.078268	0.553911
H134	H	2.195422	-0.578268	1.053911
H135	H	1.648111	-0.945882	0.376778
H136	H	2.148111	-0.445882	0.876778
H137	H	1.652887	-0.376446	0.807673
H138	H	2.152887	0.123554	1.307673
