data_functionalizedCrystal
_audit_creation_method	'MofGen! by Chris Wilmer'
_symmetry_space_group_name_H-M	'P1'
_symmetry_Int_Tables_number	1
_symmetry_cell_setting	triclinic
loop_
_symmetry_equiv_pos_as_xyz
  x,y,z
_cell_length_a	18.050591
_cell_length_b	21.295417
_cell_length_c	21.295120
_cell_angle_alpha	89.638316
_cell_angle_beta	89.926922
_cell_angle_gamma	90.026512
loop_
_atom_site_label
_atom_site_type_symbol
_atom_site_fract_x
_atom_site_fract_y
_atom_site_fract_z
Zn1	Zn	1.135664	-0.248635	-0.356024
Zn2	Zn	1.635664	0.251365	0.143976
Zn3	Zn	1.135457	-0.354512	-0.250746
Zn4	Zn	1.635457	0.145488	0.249254
Zn5	Zn	1.011370	-0.249253	-0.250755
Zn6	Zn	1.511370	0.250747	0.249245
Zn7	Zn	1.011426	-0.353863	-0.355970
Zn8	Zn	1.511426	0.146137	0.144030
O9	O	1.073479	-0.301566	-0.303374
O10	O	1.573479	0.198434	0.196626
O11	O	1.239561	-0.262692	-0.342078
O12	O	1.739561	0.237308	0.157922
O13	O	1.118886	-0.341079	-0.162655
O14	O	1.618886	0.158921	0.337345
O15	O	1.027921	-0.161081	-0.264745
O16	O	1.527921	0.338919	0.235255
O17	O	1.239409	-0.340480	-0.264730
O18	O	1.739409	0.159520	0.235270
O19	O	1.119240	-0.160627	-0.342086
O20	O	1.619240	0.339373	0.157914
O21	O	1.027720	-0.263746	-0.162661
O22	O	1.527720	0.236254	0.337339
O23	O	0.907453	-0.263117	-0.264693
O24	O	1.407453	0.236883	0.235307
O25	O	1.028017	-0.339375	-0.444070
O26	O	1.528017	0.160625	0.055930
O27	O	0.907494	-0.339974	-0.341994
O28	O	1.407494	0.160026	0.158006
O29	O	1.119294	-0.262064	-0.444109
O30	O	1.619294	0.237936	0.055891
O31	O	1.118940	-0.442515	-0.264678
O32	O	1.618940	0.057485	0.235322
O33	O	1.027816	-0.442039	-0.341986
O34	O	1.527816	0.057961	0.158014
C35	C	0.880527	-0.301542	-0.303339
C36	C	1.380527	0.198458	0.196661
C37	C	0.797981	-0.301548	-0.303339
C38	C	1.297981	0.198452	0.196661
C39	C	0.598487	-0.259704	-0.261399
C40	C	1.098487	0.240296	0.238601
C41	C	0.549048	-0.317209	-0.245903
C42	C	1.049048	0.182791	0.254097
C43	C	0.646851	-0.301567	-0.303367
C44	C	1.146851	0.198433	0.196633
C45	C	0.549208	-0.244081	-0.318862
C46	C	1.049208	0.255919	0.181138
C47	C	0.500866	-0.301580	-0.303394
C48	C	1.000866	0.198420	0.196606
C49	C	0.598499	-0.359102	-0.287841
C50	C	1.098499	0.140898	0.212159
C51	C	0.598664	-0.285935	-0.360827
C52	C	1.098664	0.214065	0.139173
C53	C	0.549247	-0.343480	-0.345353
C54	C	1.049247	0.156520	0.154647
C55	C	0.730949	-0.301558	-0.303351
C56	C	1.230949	0.198442	0.196649
C57	C	0.416769	-0.301595	-0.303411
C58	C	0.916769	0.198405	0.196589
C59	C	1.073382	-0.465118	-0.303339
C60	C	1.573382	0.034882	0.196661
C61	C	1.073408	-0.535086	-0.303345
C62	C	1.573408	-0.035086	0.196655
C63	C	1.120899	-0.568179	-0.263132
C64	C	1.620899	-0.068179	0.236868
C65	C	1.120934	-0.633922	-0.263146
C66	C	1.620934	-0.133922	0.236854
C67	C	1.073465	-0.666568	-0.303367
C68	C	1.573465	-0.166568	0.196633
C69	C	1.025971	-0.633466	-0.343588
C70	C	1.525971	-0.133466	0.156412
C71	C	1.025942	-0.567725	-0.343577
C72	C	1.525942	-0.067725	0.156423
N73	N	1.008503	-0.769802	-0.308154
N74	N	1.508503	-0.269802	0.191846
N75	N	1.008532	-0.832254	-0.308161
N76	N	1.508532	-0.332254	0.191839
C77	C	1.073548	-0.864642	-0.303403
C78	C	1.573548	-0.364642	0.196597
N79	N	1.138535	-0.832221	-0.298626
N80	N	1.638535	-0.332221	0.201374
N81	N	1.138506	-0.769763	-0.298616
N82	N	1.638506	-0.269763	0.201384
C83	C	1.073490	-0.737853	-0.303383
C84	C	1.573490	-0.237853	0.196617
C85	C	1.121080	-0.969021	-0.263203
C86	C	1.621080	-0.469021	0.236797
C87	C	1.121116	-1.034765	-0.263222
C88	C	1.621116	-0.534765	0.236778
C89	C	1.026147	-1.034309	-0.343660
C90	C	1.526147	-0.534309	0.156340
C91	C	1.026117	-0.968566	-0.343644
C92	C	1.526117	-0.468566	0.156356
C93	C	1.073583	-0.935927	-0.303413
C94	C	1.573583	-0.435927	0.196587
C95	C	1.267185	-0.301589	-0.303409
C96	C	1.767185	0.198411	0.196591
C97	C	1.349731	-0.301600	-0.303424
C98	C	1.849731	0.198400	0.196576
C99	C	1.073685	-0.300578	-0.467570
C100	C	1.573685	0.199422	0.032430
C101	C	1.073773	-0.300157	-0.537540
C102	C	1.573773	0.199843	-0.037540
C103	C	1.073597	-0.137375	-0.303423
C104	C	1.573597	0.362625	0.196577
C105	C	1.073648	-0.067407	-0.303443
C106	C	1.573648	0.432593	0.196557
C107	C	1.073317	-0.302504	-0.139817
C108	C	1.573317	0.197496	0.360183
C109	C	1.073373	-0.302748	-0.069846
C110	C	1.573373	0.197252	0.430154
C111	C	1.120567	-0.262042	-0.037511
C112	C	1.620567	0.237958	0.462489
C113	C	1.120622	-0.261724	0.028230
C114	C	1.620622	0.238276	0.528230
C115	C	1.073469	-0.302105	0.061632
C116	C	1.573469	0.197895	0.561632
C117	C	1.026271	-0.342819	0.029289
C118	C	1.526271	0.157181	0.529289
C119	C	1.026223	-0.343140	-0.036451
C120	C	1.526223	0.156860	0.463549
N121	N	1.008576	-0.306821	0.165012
N122	N	1.508576	0.193179	0.665012
N123	N	1.008624	-0.306512	0.227461
N124	N	1.508624	0.193488	0.727461
C125	C	1.073612	-0.301141	0.259701
C126	C	1.573612	0.198859	0.759701
N127	N	1.138552	-0.296077	0.227132
N128	N	1.638552	0.203923	0.727132
N129	N	1.138503	-0.296383	0.164677
N130	N	1.638503	0.203617	0.664677
C131	C	1.073516	-0.301762	0.132915
C132	C	1.573516	0.198238	0.632915
C133	C	1.120870	-0.260088	0.363320
C134	C	1.620870	0.239912	0.863320
C135	C	1.120926	-0.259774	0.429062
C136	C	1.620926	0.240226	0.929062
C137	C	1.026568	-0.340866	0.430120
C138	C	1.526568	0.159134	0.930120
C139	C	1.026519	-0.341183	0.364379
C140	C	1.526519	0.158817	0.864379
C141	C	1.073669	-0.300791	0.330983
C142	C	1.573669	0.199209	0.830983
H143	H	1.159550	-0.541606	-0.230375
H144	H	1.659550	-0.041606	0.269625
H145	H	0.987269	-0.540780	-0.376324
H146	H	1.487269	-0.040780	0.123676
Cl147	Cl	0.631872	-0.205105	-0.206548
Cl148	Cl	1.131872	0.294895	0.293452
H149	H	1.159732	-0.942445	-0.230446
H150	H	1.659732	-0.442445	0.269554
Cl151	Cl	0.515402	-0.337637	-0.170899
Cl152	Cl	1.015402	0.162363	0.329101
Cl153	Cl	1.180266	-0.208600	0.469713
Cl154	Cl	1.680266	0.291400	0.969713
Cl155	Cl	0.967298	-0.391639	0.472105
Cl156	Cl	1.467298	0.108361	0.972105
Cl157	Cl	0.967184	-0.392358	0.323726
Cl158	Cl	1.467184	0.107642	0.823726
Cl159	Cl	0.631784	-0.434191	-0.267537
Cl160	Cl	1.131784	0.065809	0.232463
H161	H	1.159794	-1.061709	-0.230477
H162	H	1.659794	-0.561709	0.269523
Cl163	Cl	0.966475	-1.075344	-0.394228
Cl164	Cl	1.466475	-0.575344	0.105772
Cl165	Cl	0.516072	-0.398208	-0.400166
Cl166	Cl	1.016072	0.101792	0.099834
Cl167	Cl	0.632335	-0.265483	-0.435812
Cl168	Cl	1.132335	0.234517	0.064188
H169	H	0.987442	-0.941620	-0.376387
H170	H	1.487442	-0.441620	0.123613
H171	H	1.159609	-0.660872	-0.230400
H172	H	1.659609	-0.160872	0.269600
H173	H	0.987322	-0.660051	-0.376336
H174	H	1.487322	-0.160051	0.123664
Cl175	Cl	1.179871	-0.211288	-0.079491
Cl176	Cl	1.679871	0.288712	0.420509
H177	H	0.527517	-0.195467	-0.331934
H178	H	1.027517	0.304533	0.168066
Cl179	Cl	1.179956	-0.210546	0.068889
Cl180	Cl	1.679956	0.289454	0.568889
H181	H	0.987880	-0.375699	0.056489
H182	H	1.487880	0.124301	0.556489
H183	H	0.987791	-0.376289	-0.062778
H184	H	1.487791	0.123711	0.437222
Cl185	Cl	1.180129	-0.209299	0.321334
Cl186	Cl	1.680129	0.290701	0.821334
