data_functionalizedCrystal
_audit_creation_method	'MofGen! by Chris Wilmer'
_symmetry_space_group_name_H-M	'P1'
_symmetry_Int_Tables_number	1
_symmetry_cell_setting	triclinic
loop_
_symmetry_equiv_pos_as_xyz
  x,y,z
_cell_length_a	19.805407
_cell_length_b	16.120484
_cell_length_c	16.120256
_cell_angle_alpha	84.383827
_cell_angle_beta	87.122650
_cell_angle_gamma	92.925608
loop_
_atom_site_label
_atom_site_type_symbol
_atom_site_fract_x
_atom_site_fract_y
_atom_site_fract_z
Zn1	Zn	0.999909	-0.356764	0.489479
Zn2	Zn	1.333242	-0.023431	0.822812
Zn3	Zn	1.666576	0.309902	1.156146
Zn4	Zn	0.999824	-0.489450	0.356789
Zn5	Zn	1.333157	-0.156116	0.690122
Zn6	Zn	1.666491	0.177217	1.023455
Zn7	Zn	0.892766	-0.349696	0.349722
Zn8	Zn	1.226099	-0.016362	0.683055
Zn9	Zn	1.559433	0.316971	1.016388
Zn10	Zn	0.880647	-0.496495	0.496509
Zn11	Zn	1.213981	-0.163162	0.829843
Zn12	Zn	1.547314	0.170172	1.163176
O13	O	0.943287	-0.423101	0.423125
O14	O	1.276620	-0.089768	0.756458
O15	O	1.609953	0.243565	1.089791
O16	O	1.094613	-0.374375	0.471893
O17	O	1.427947	-0.041042	0.805226
O18	O	1.761280	0.292292	1.138559
O19	O	0.990659	-0.465004	0.238889
O20	O	1.323992	-0.131671	0.572222
O21	O	1.657325	0.201662	0.905555
O22	O	0.912086	-0.233668	0.362361
O23	O	1.245420	0.099665	0.695694
O24	O	1.578753	0.432999	1.029028
O25	O	1.094551	-0.471858	0.374406
O26	O	1.427884	-0.138525	0.707739
O27	O	1.761217	0.194808	1.041072
O28	O	0.990804	-0.238861	0.465040
O29	O	1.324137	0.094472	0.798373
O30	O	1.657470	0.427806	1.131707
O31	O	0.912004	-0.362328	0.233697
O32	O	1.245337	-0.028994	0.567030
O33	O	1.578670	0.304339	0.900363
O34	O	0.796443	-0.369159	0.369178
O35	O	1.129776	-0.035826	0.702512
O36	O	1.463110	0.297507	1.035845
O37	O	0.891431	-0.483866	0.612539
O38	O	1.224765	-0.150533	0.945872
O39	O	1.558098	0.182801	1.279206
O40	O	0.787539	-0.477012	0.477022
O41	O	1.120873	-0.143679	0.810356
O42	O	1.454206	0.189655	1.143689
O43	O	0.979052	-0.381206	0.607374
O44	O	1.312386	-0.047873	0.940707
O45	O	1.645719	0.285460	1.274041
O46	O	0.978907	-0.607350	0.381223
O47	O	1.312241	-0.274016	0.714556
O48	O	1.645574	0.059317	1.047889
O49	O	0.891349	-0.612526	0.483875
O50	O	1.224682	-0.279193	0.817208
O51	O	1.558016	0.054141	1.150541
C52	C	0.767432	-0.423084	0.423097
C53	C	1.100766	-0.089751	0.756430
C54	C	1.434099	0.243583	1.089763
C55	C	0.692199	-0.423098	0.423106
C56	C	1.025533	-0.089764	0.756439
C57	C	1.358866	0.243569	1.089772
C58	C	0.652237	-0.479333	0.479178
C59	C	0.985570	-0.145999	0.812511
C60	C	1.318904	0.187334	1.145844
C61	C	0.581548	-0.479335	0.479190
C62	C	0.914881	-0.146001	0.812523
C63	C	1.248215	0.187332	1.145856
C64	C	0.550823	-0.423105	0.423125
C65	C	0.884156	-0.089772	0.756458
C66	C	1.217489	0.243562	1.089791
C67	C	0.590790	-0.366864	0.367050
C68	C	0.924124	-0.033531	0.700383
C69	C	1.257457	0.299803	1.033717
C70	C	0.661478	-0.366859	0.367043
C71	C	0.994811	-0.033525	0.700376
C72	C	1.328145	0.299808	1.033710
C73	C	0.305715	-0.366884	0.367079
C74	C	0.639049	-0.033550	0.700412
C75	C	0.972382	0.299783	1.033745
C76	C	0.235022	-0.366895	0.367089
C77	C	0.568356	-0.033562	0.700422
C78	C	0.901689	0.299771	1.033755
C79	C	0.225785	-0.479360	0.479225
C80	C	0.559119	-0.146027	0.812559
C81	C	0.892452	0.187307	1.145892
C82	C	0.296473	-0.479355	0.479218
C83	C	0.629806	-0.146021	0.812551
C84	C	0.963140	0.187312	1.145885
C85	C	0.336434	-0.423111	0.423147
C86	C	0.669768	-0.089778	0.756480
C87	C	1.003101	0.243556	1.089814
C88	C	0.413083	-0.423108	0.423136
C89	C	0.746417	-0.089775	0.756469
C90	C	1.079750	0.243558	1.089802
C91	C	0.474175	-0.423111	0.423131
C92	C	0.807509	-0.089778	0.756465
C93	C	1.140842	0.243556	1.089798
C94	C	0.933821	-0.640267	0.434097
C95	C	1.267155	-0.306933	0.767430
C96	C	1.600488	0.026400	1.100763
C97	C	0.929833	-0.733172	0.438818
C98	C	1.263166	-0.399839	0.772152
C99	C	1.596500	-0.066506	1.105485
C100	C	0.922554	-0.903273	0.447456
C101	C	1.255888	-0.569939	0.780790
C102	C	1.589221	-0.236606	1.114123
C103	C	0.964140	-0.942090	0.398807
C104	C	1.297473	-0.608757	0.732140
C105	C	1.630806	-0.275423	1.065473
C106	C	0.960090	-1.036740	0.403613
C107	C	1.293423	-0.703406	0.736946
C108	C	1.626756	-0.370073	1.070279
C109	C	0.926603	-0.808614	0.442651
C110	C	1.259937	-0.475281	0.775985
C111	C	1.593270	-0.141948	1.109318
C112	C	1.119827	-0.423119	0.423153
C113	C	1.453161	-0.089786	0.756486
C114	C	1.786494	0.243547	1.089820
C115	C	1.195059	-0.423127	0.423165
C116	C	1.528392	-0.089794	0.756499
C117	C	1.861725	0.243540	1.089832
C118	C	0.933900	-0.434111	0.641132
C119	C	1.267233	-0.100777	0.974465
C120	C	1.600566	0.232556	1.307798
C121	C	0.929899	-0.438802	0.734033
C122	C	1.263233	-0.105469	1.067366
C123	C	1.596566	0.227864	1.400700
C124	C	0.952806	-0.205089	0.412128
C125	C	1.286140	0.128245	0.745461
C126	C	1.619473	0.461578	1.078795
C127	C	0.956863	-0.112185	0.407442
C128	C	1.290196	0.221149	0.740775
C129	C	1.623530	0.554482	1.074109
C130	C	0.952679	-0.412074	0.205963
C131	C	1.286012	-0.078741	0.539296
C132	C	1.619345	0.254592	0.872630
C133	C	0.956820	-0.407147	0.113050
C134	C	1.290153	-0.073814	0.446383
C135	C	1.623487	0.259519	0.779717
C136	C	0.964147	-0.398614	0.942960
C137	C	1.297480	-0.065281	1.276293
C138	C	1.630813	0.268053	1.609626
C139	C	0.922575	-0.447333	0.904118
C140	C	1.255908	-0.114000	1.237451
C141	C	1.589242	0.219334	1.570784
C142	C	0.926651	-0.442585	0.809474
C143	C	1.259985	-0.109252	1.142807
C144	C	1.593318	0.224082	1.476140
C145	C	0.960071	-0.403361	1.037612
C146	C	1.293404	-0.070027	1.370945
C147	C	1.626738	0.263306	1.704279
H148	H	0.321485	-0.525145	0.524869
H149	H	0.654819	-0.191812	0.858203
H150	H	0.988152	0.141521	1.191536
O151	O	1.015329	-0.891957	0.338853
O152	O	1.348663	-0.558624	0.672186
O153	O	1.681996	-0.225290	1.005520
H154	H	1.005888	-0.905388	0.274076
H155	H	1.339221	-0.572055	0.607409
H156	H	1.672554	-0.238722	0.940742
O157	O	0.871355	-0.953400	0.507392
O158	O	1.204689	-0.620066	0.840726
O159	O	1.538022	-0.286733	1.174059
H160	H	0.876163	-1.020950	0.501794
H161	H	1.209497	-0.687617	0.835127
H162	H	1.542830	-0.354283	1.168461
H163	H	0.883919	-0.492604	0.941944
H164	H	1.217252	-0.159271	1.275277
H165	H	1.550586	0.174062	1.608611
O166	O	0.182680	-0.540072	0.539655
O167	O	0.516013	-0.206738	0.872988
O168	O	0.849346	0.126595	1.206322
H169	H	0.215922	-0.579196	0.578611
H170	H	0.549255	-0.245863	0.911944
H171	H	0.882589	0.087471	1.245278
H172	H	1.002797	-0.353342	0.905136
H173	H	1.336130	-0.020009	1.238469
H174	H	1.669463	0.313324	1.571802
H175	H	0.677248	-0.525124	0.524830
H176	H	1.010581	-0.191791	0.858163
H177	H	1.343915	0.141543	1.191496
O178	O	0.201873	-0.306247	0.306620
O179	O	0.535206	0.027086	0.639954
O180	O	0.868539	0.360419	0.973287
H181	H	0.217663	-0.241395	0.317755
H182	H	0.550996	0.091938	0.651088
H183	H	0.884329	0.425272	0.984422
O184	O	0.538510	-0.540141	0.539587
O185	O	0.871844	-0.206807	0.872920
O186	O	1.205177	0.126526	1.206253
H187	H	0.549868	-0.529347	0.604524
H188	H	0.883201	-0.196014	0.937858
H189	H	1.216535	0.137320	1.271191
O190	O	0.348813	-0.306249	0.306580
O191	O	0.682146	0.027084	0.639914
O192	O	1.015480	0.360417	0.973247
H193	H	0.315570	-0.267166	0.267584
H194	H	0.648903	0.066167	0.600918
H195	H	0.982236	0.399500	0.934251
H196	H	0.565768	-0.321077	0.321405
H197	H	0.899102	0.012256	0.654738
H198	H	1.232435	0.345589	0.988071
O199	O	0.704586	-0.306206	0.306566
O200	O	1.037919	0.027128	0.639899
O201	O	1.371252	0.360461	0.973233
H202	H	0.736996	-0.341398	0.265871
H203	H	1.070329	-0.008065	0.599204
H204	H	1.403663	0.325269	0.932538
