data_functionalizedCrystal
_audit_creation_method	'MofGen! by Chris Wilmer'
_symmetry_space_group_name_H-M	'P1'
_symmetry_Int_Tables_number	1
_symmetry_cell_setting	triclinic
loop_
_symmetry_equiv_pos_as_xyz
  x,y,z
_cell_length_a	12.759401
_cell_length_b	18.050589
_cell_length_c	18.050582
_cell_angle_alpha	89.981088
_cell_angle_beta	89.985999
_cell_angle_gamma	90.029746
loop_
_atom_site_label
_atom_site_type_symbol
_atom_site_fract_x
_atom_site_fract_y
_atom_site_fract_z
Zn1	Zn	1.606096	-0.295671	-0.419899
Zn2	Zn	1.605967	-0.419856	-0.295719
Zn3	Zn	1.430416	-0.295688	-0.295727
Zn4	Zn	1.430345	-0.419827	-0.419871
O5	O	1.518206	-0.357761	-0.357804
O6	O	1.753100	-0.312150	-0.403434
O7	O	1.582655	-0.403404	-0.191795
O8	O	1.453804	-0.191761	-0.312214
O9	O	1.753005	-0.403388	-0.312200
O10	O	1.582875	-0.191749	-0.403443
O11	O	1.453679	-0.312178	-0.191801
O12	O	1.283385	-0.312150	-0.312187
O13	O	1.453683	-0.403339	-0.523799
O14	O	1.283333	-0.403355	-0.403395
O15	O	1.582806	-0.312122	-0.523820
O16	O	1.582586	-0.523777	-0.312172
O17	O	1.453558	-0.523756	-0.403387
C18	C	1.245238	-0.357751	-0.357789
C19	C	1.128462	-0.357765	-0.357801
C20	C	1.073600	-0.405328	-0.405218
C21	C	0.963876	-0.405331	-0.405232
C22	C	0.963885	-0.310207	-0.310406
C23	C	1.073607	-0.310201	-0.310396
C24	C	1.518079	-0.550713	-0.357792
C25	C	1.518121	-0.633259	-0.357811
C26	C	1.448024	-0.832725	-0.407396
C27	C	1.422420	-0.882160	-0.339629
C28	C	1.518224	-0.784389	-0.357821
C29	C	1.543880	-0.882035	-0.425595
C30	C	1.518322	-0.930374	-0.357836
C31	C	1.492569	-0.832737	-0.290018
C32	C	1.614074	-0.832608	-0.376030
C33	C	1.588506	-0.882021	-0.308216
C34	C	1.518165	-0.700291	-0.357813
C35	C	1.518381	-1.014470	-0.357836
C36	C	1.792239	-0.357770	-0.357819
C37	C	1.909016	-0.357774	-0.357826
C38	C	1.518251	-0.357725	-0.551510
C39	C	1.518271	-0.357710	-0.634055
C40	C	1.518362	-0.164055	-0.357833
C41	C	1.518428	-0.081509	-0.357845
C42	C	1.448119	-0.407233	-0.882870
C43	C	1.422456	-0.339496	-0.833478
C44	C	1.518359	-0.357601	-0.931176
C45	C	1.543929	-0.425388	-0.833487
C46	C	1.518313	-0.357658	-0.785191
C47	C	1.492647	-0.289828	-0.882871
C48	C	1.614164	-0.375765	-0.882884
C49	C	1.588538	-0.307982	-0.833514
C50	C	1.518383	-0.357569	-1.015274
C51	C	1.518289	-0.357683	-0.701094
C52	C	1.518221	-0.357742	-0.164852
C53	C	1.518405	-0.357548	-0.082306
H54	H	1.118276	-0.271465	-0.271783
H55	H	1.341416	-0.324152	-0.811775
H56	H	1.388693	-0.449128	-0.904542
H57	H	1.470815	-0.811172	-0.232693
H58	H	0.919209	-0.271482	-0.271810
H59	H	1.647914	-0.903530	-0.266250
N60	N	0.904709	-0.456637	-0.456372
H61	H	0.859145	-0.491009	-0.426133
H62	H	0.859284	-0.426458	-0.490838
H63	H	1.695067	-0.810828	-0.391450
H64	H	1.565541	-0.903690	-0.482905
N65	N	1.721481	-0.396110	-0.911657
H66	H	1.740752	-0.447330	-0.893725
H67	H	1.720788	-0.395414	-0.967602
H68	H	1.647919	-0.265986	-0.811980
N69	N	1.463848	-0.213901	-0.911475
H70	H	1.464012	-0.214353	-0.967427
H71	H	1.391716	-0.200137	-0.893012
N72	N	1.572601	-0.501290	-0.804750
H73	H	1.584970	-0.535850	-0.847865
H74	H	1.638478	-0.497703	-0.773950
N75	N	1.132762	-0.456628	-0.456347
H76	H	1.113704	-0.445168	-0.509431
H77	H	1.210577	-0.449388	-0.449083
N78	N	1.369289	-0.804040	-0.462855
H79	H	1.333124	-0.847176	-0.487688
H80	H	1.315582	-0.772511	-0.436511
N81	N	1.315108	-0.910984	-0.319220
H82	H	1.262090	-0.893056	-0.356689
H83	H	1.316201	-0.966929	-0.318890
