data_functionalizedCrystal
_audit_creation_method	'MofGen! by Chris Wilmer'
_symmetry_space_group_name_H-M	'P1'
_symmetry_Int_Tables_number	1
_symmetry_cell_setting	triclinic
loop_
_symmetry_equiv_pos_as_xyz
  x,y,z
_cell_length_a	14.044191
_cell_length_b	14.044220
_cell_length_c	13.101039
_cell_angle_alpha	93.667477
_cell_angle_beta	86.339405
_cell_angle_gamma	93.190327
loop_
_atom_site_label
_atom_site_type_symbol
_atom_site_fract_x
_atom_site_fract_y
_atom_site_fract_z
O1	O	1.281974	0.225380	-0.085125
O2	O	1.005303	0.217066	-0.085147
O3	O	1.139485	0.082888	-0.085126
O4	O	1.147792	0.359558	-0.085146
O5	O	1.129859	0.092532	0.085302
O6	O	0.995677	0.226710	0.085281
O7	O	1.272348	0.235024	0.085304
Zn8	Zn	1.132484	0.232399	0.112352
Zn9	Zn	1.145167	0.219692	-0.112195
O10	O	1.138166	0.369203	0.085283
C11	C	1.131036	0.052088	0.000088
C12	C	1.120192	-0.054055	0.000089
C13	C	0.964868	0.218251	0.000064
C14	C	0.858725	0.207404	0.000056
C15	C	1.312783	0.233839	0.000090
C16	C	1.418926	0.244686	0.000092
C17	C	1.100366	-0.248394	0.000072
C18	C	1.177281	-0.299522	0.000075
C19	C	1.166250	-0.407659	0.000066
C20	C	1.111396	-0.140247	0.000081
C21	C	1.664385	0.187585	0.000075
C22	C	1.613260	0.264501	0.000073
C23	C	1.505122	0.253473	0.000083
C24	C	1.772533	0.198611	0.000064
N25	N	1.123835	0.241071	0.265599
C26	C	1.146615	0.400002	0.000066
C27	C	1.157460	0.506145	0.000059
N28	N	1.153822	0.211012	-0.265442
C29	C	1.112069	0.252879	0.474640
C30	C	1.165585	0.199208	0.525524
C31	C	1.159039	0.205778	0.641841
C32	C	1.118615	0.246310	0.358312
H33	H	1.251418	-0.262084	0.000013
N34	N	1.229237	0.135367	0.470611
N35	N	1.197181	0.070236	0.410722
H36	H	1.242140	0.025151	0.371943
H37	H	1.626943	0.113459	0.000085
N38	N	1.007378	-0.295371	0.000058
N39	N	0.998438	-0.384423	0.000051
H40	H	0.932766	-0.417611	0.000043
N41	N	1.048431	0.316702	0.529585
N42	N	1.043140	0.322014	0.625366
H43	H	0.998198	0.367090	0.664184
H44	H	1.650704	0.338633	0.000063
