data_functionalizedCrystal
_audit_creation_method	'MofGen! by Chris Wilmer'
_symmetry_space_group_name_H-M	'P1'
_symmetry_Int_Tables_number	1
_symmetry_cell_setting	triclinic
loop_
_symmetry_equiv_pos_as_xyz
  x,y,z
_cell_length_a	12.837943
_cell_length_b	9.730217
_cell_length_c	10.654541
_cell_angle_alpha	89.999557
_cell_angle_beta	89.656434
_cell_angle_gamma	90.002258
loop_
_atom_site_label
_atom_site_type_symbol
_atom_site_fract_x
_atom_site_fract_y
_atom_site_fract_z
O1	O	1.377799	0.114265	0.326742
O2	O	1.075878	0.114273	0.310601
O3	O	1.233781	0.114260	0.136690
O4	O	1.219895	0.114277	0.500654
O5	O	1.233771	-0.114320	0.136700
O6	O	1.075867	-0.114307	0.310612
O7	O	1.377788	-0.114315	0.326753
Zn8	Zn	1.226826	-0.150603	0.318684
Zn9	Zn	1.226840	0.150561	0.318670
O10	O	1.219885	-0.114303	0.500664
C11	C	1.037212	-0.000016	0.305154
C12	C	0.922019	-0.000013	0.288891
C13	C	0.682464	-0.000024	0.484396
C14	C	0.574229	-0.000022	0.469122
C15	C	0.597310	-0.000018	0.243070
C16	C	0.705545	-0.000020	0.258344
C17	C	0.748118	-0.000021	0.379011
C18	C	0.856356	-0.000012	0.394284
C19	C	0.879435	-0.000018	0.168233
C20	C	0.771199	-0.000017	0.152959
N21	N	1.226824	-0.356140	0.318693
C22	C	1.099926	-0.643897	0.151025
C23	C	1.036452	-0.571954	0.067226
C24	C	1.036432	-0.428074	0.067248
C25	C	1.099896	-0.356134	0.151074
C26	C	1.163370	-0.428077	0.234873
C27	C	1.163380	-0.571960	0.234845
C28	C	1.290298	-0.428083	0.402492
C29	C	1.290314	-0.571962	0.402478
C30	C	1.353761	-0.356142	0.486319
C31	C	1.417231	-0.428085	0.570125
C32	C	1.417248	-0.571974	0.570101
C33	C	1.353788	-0.643905	0.486277
C34	C	1.416453	-0.000023	0.332200
C35	C	1.531647	-0.000017	0.348463
C36	C	1.232757	-0.000029	0.089786
C37	C	1.229708	-0.000027	-0.049990
N38	N	1.226850	0.356097	0.318652
C39	C	1.418525	-0.000049	-0.057357
C40	C	1.511497	-0.000063	-0.126706
C41	C	1.508626	-0.000059	-0.258037
C42	C	1.412772	-0.000036	-0.320022
C43	C	1.319801	-0.000022	-0.250673
C44	C	1.322682	-0.000031	-0.119339
C45	C	1.130986	0.000010	-0.243307
C46	C	1.133855	-0.000004	-0.111976
C47	C	1.035133	0.000033	-0.305292
C48	C	0.942159	0.000037	-0.235943
C49	C	0.945034	0.000031	-0.104604
C50	C	1.040883	0.000010	-0.042627
C51	C	1.220909	-0.000011	0.547568
C52	C	1.223958	-0.000004	0.687344
H53	H	0.736521	-0.000032	0.054715
H54	H	0.891017	-0.000015	0.492537
H55	H	0.717128	-0.000022	0.582647
H56	H	0.520776	-0.000028	0.554938
H57	H	0.869325	0.000048	-0.048148
H58	H	0.562627	-0.000131	0.144828
H59	H	0.932903	-0.000006	0.082421
C60	C	0.966636	-0.651097	-0.024965
C61	C	1.015801	-0.749995	-0.121354
C62	C	0.945983	-0.829136	-0.213540
C63	C	0.827001	-0.809379	-0.209337
C64	C	0.777830	-0.710477	-0.112944
C65	C	0.847647	-0.631336	-0.020758
H66	H	1.103884	-0.764624	-0.124469
H67	H	0.982384	-0.902350	-0.284897
H68	H	0.775318	-0.867964	-0.277579
H69	H	0.689746	-0.695848	-0.109829
H70	H	0.811246	-0.558122	0.050599
H71	H	1.468903	-0.369500	0.638365
C72	C	1.487071	-0.651108	0.662283
C73	C	1.606050	-0.631293	0.658102
C74	C	1.675874	-0.710422	0.750285
C75	C	1.626720	-0.809365	0.846650
C76	C	1.507735	-0.829184	0.850834
C77	C	1.437911	-0.750055	0.758651
H78	H	1.642442	-0.558046	0.586764
H79	H	1.763955	-0.695750	0.747187
H80	H	1.678408	-0.867940	0.914889
H81	H	1.471342	-0.902431	0.922173
H82	H	1.349830	-0.764727	0.761750
H83	H	1.099928	-0.761051	0.151007
H84	H	0.984748	-0.369499	-0.000991
H85	H	1.099883	-0.238980	0.151074
H86	H	1.353746	-0.238988	0.486325
H87	H	1.353792	-0.761060	0.486252
H88	H	1.420872	-0.000071	0.049580
H89	H	1.589539	-0.000093	-0.076223
H90	H	1.584331	-0.000059	-0.314501
H91	H	1.410443	-0.000016	-0.426959
H92	H	1.032802	0.000045	-0.412229
H93	H	0.864123	0.000064	-0.286422
H94	H	1.043233	-0.000003	0.064310
