data_functionalizedCrystal
_audit_creation_method	'MofGen! by Chris Wilmer'
_symmetry_space_group_name_H-M	'P1'
_symmetry_Int_Tables_number	1
_symmetry_cell_setting	triclinic
loop_
_symmetry_equiv_pos_as_xyz
  x,y,z
_cell_length_a	16.992698
_cell_length_b	16.956984
_cell_length_c	15.455313
_cell_angle_alpha	92.464369
_cell_angle_beta	92.864008
_cell_angle_gamma	96.639820
loop_
_atom_site_label
_atom_site_type_symbol
_atom_site_fract_x
_atom_site_fract_y
_atom_site_fract_z
O1	O	-1.033127	0.165118	-0.072148
O2	O	-0.533127	0.665118	0.427852
O3	O	-0.804961	0.163273	-0.072146
O4	O	-0.304961	0.663273	0.427854
O5	O	-0.932751	0.048991	-0.072141
O6	O	-0.432751	0.548991	0.427859
O7	O	-0.905336	0.279401	-0.072153
O8	O	-0.405336	0.779401	0.427847
O9	O	-0.925445	0.055497	0.072121
O10	O	-0.425445	0.555497	0.572121
O11	O	-0.797655	0.169780	0.072116
O12	O	-0.297655	0.669780	0.572116
O13	O	-1.025821	0.171625	0.072114
O14	O	-0.525821	0.671625	0.572114
Cu15	Cu	-0.911071	0.171296	0.085287
Cu16	Cu	-0.411071	0.671296	0.585287
Cu17	Cu	-0.919711	0.163602	-0.085319
Cu18	Cu	-0.419711	0.663602	0.414681
O19	O	-0.898030	0.285907	0.072109
O20	O	-0.398030	0.785907	0.572109
C21	C	-0.772249	0.164151	-0.000015
C22	C	-0.272249	0.664151	0.499985
C23	C	-0.685664	0.157061	-0.000014
C24	C	-0.185664	0.657061	0.499986
C25	C	-0.930502	0.022625	-0.000010
C26	C	-0.430502	0.522625	0.499990
C27	C	-0.934676	-0.065630	-0.000011
C28	C	-0.434676	0.434370	0.499989
C29	C	-0.199792	0.109425	-0.000010
C30	C	0.300208	0.609425	0.499990
C31	C	-0.281146	0.116093	-0.000006
C32	C	0.218854	0.616093	0.499994
C33	C	-0.307823	0.191175	-0.000014
C34	C	0.192177	0.691175	0.499986
C35	C	-0.253140	0.259595	-0.000017
C36	C	0.246860	0.759595	0.499983
C37	C	-0.171788	0.252927	-0.000015
C38	C	0.328212	0.752927	0.499985
C39	C	-0.549629	0.218812	-0.000015
C40	C	-0.049629	0.718812	0.499985
C41	C	-0.630989	0.225475	-0.000020
C42	C	-0.130989	0.725475	0.499980
C43	C	-0.658989	0.081972	-0.000007
C44	C	-0.158989	0.581972	0.499993
C45	C	-0.577634	0.075310	-0.000010
C46	C	-0.077634	0.575310	0.499990
C47	C	-0.522958	0.143730	-0.000009
C48	C	-0.022958	0.643730	0.499991
N49	N	-0.390980	0.197993	-0.000013
N50	N	0.109020	0.697993	0.499987
N51	N	-0.439802	0.136913	-0.000004
N52	N	0.060198	0.636913	0.499996
C53	C	-0.058532	0.170748	-0.000017
C54	C	0.441468	0.670748	0.499983
C55	C	-0.145116	0.177839	-0.000016
C56	C	0.354884	0.677839	0.499984
C57	C	-0.864891	-0.102160	-0.000015
C58	C	-0.364891	0.397840	0.499985
C59	C	-0.868817	-0.185085	-0.000012
C60	C	-0.368817	0.314915	0.499988
C61	C	-0.942530	-0.231478	-0.000013
C62	C	-0.442530	0.268522	0.499987
C63	C	-1.012320	-0.194942	-0.000007
C64	C	-0.512320	0.305058	0.499993
C65	C	-1.008393	-0.112018	-0.000003
C66	C	-0.508393	0.387982	0.499997
C67	C	-0.961969	-0.480013	-0.000019
C68	C	-0.461969	0.019987	0.499981
C69	C	-0.965891	-0.562942	-0.000025
C70	C	-0.465891	-0.062942	0.499975
C71	C	-0.822387	-0.553079	-0.000029
C72	C	-0.322387	-0.053079	0.499971
C73	C	-0.818467	-0.470155	-0.000030
C74	C	-0.318467	0.029845	0.499970
C75	C	-0.888257	-0.433625	-0.000020
C76	C	-0.388257	0.066375	0.499980
N77	N	-0.946545	-0.316241	-0.000013
N78	N	-0.446545	0.183759	0.499987
N79	N	-0.884241	-0.348864	-0.000013
N80	N	-0.384241	0.151136	0.499987
C81	C	-0.900279	0.312273	-0.000024
C82	C	-0.400279	0.812273	0.499976
C83	C	-0.896106	0.400527	-0.000029
C84	C	-0.396106	0.900527	0.499971
N85	N	-0.905000	0.176708	0.205282
N86	N	-0.405000	0.676708	0.705282
N87	N	-0.925788	0.158184	-0.205315
N88	N	-0.425788	0.658184	0.294685
C89	C	-0.959306	0.128177	0.250679
C90	C	-0.459306	0.628177	0.750679
C91	C	-0.954721	0.132278	0.341486
C92	C	-0.454721	0.632278	0.841486
C93	C	-0.895833	0.184914	0.386896
C94	C	-0.395833	0.684914	0.886896
C95	C	-0.841521	0.233447	0.341493
C96	C	-0.341521	0.733447	0.841493
C97	C	-0.846103	0.229342	0.250687
C98	C	-0.346103	0.729342	0.750687
C99	C	-0.876058	0.202612	0.658477
C100	C	-0.376058	0.702612	1.158477
C101	C	-0.871482	0.206715	0.749289
C102	C	-0.371482	0.706715	1.249289
C103	C	-0.984682	0.105544	0.749276
C104	C	-0.484682	0.605544	1.249276
C105	C	-0.989261	0.101447	0.658468
C106	C	-0.489261	0.601447	1.158468
C107	C	-0.934947	0.149977	0.613073
C108	C	-0.434947	0.649977	1.113073
N109	N	-0.891147	0.189108	0.479716
N110	N	-0.391147	0.689108	0.979716
N111	N	-0.939630	0.145778	0.520255
N112	N	-0.439630	0.645778	1.020255
H113	H	-0.178080	0.048284	-0.000009
H114	H	0.321920	0.548284	0.499991
H115	H	-0.793570	0.276302	0.378471
H116	H	-0.293570	0.776302	0.878471
F117	F	-1.036247	-0.441147	-0.000031
F118	F	-0.536247	0.058853	0.499969
H119	H	-0.703514	0.026269	-0.000007
H120	H	-0.203514	0.526269	0.499993
H121	H	-0.652704	0.286620	-0.000014
H122	H	-0.152704	0.786620	0.499986
H123	H	-1.007262	0.085319	0.213712
H124	H	-0.507262	0.585319	0.713712
F125	F	-0.339334	0.043276	0.000005
F126	F	0.160666	0.543276	0.500005
F127	F	-1.090771	-0.244319	0.000001
F128	F	-0.590771	0.255681	0.500001
F129	F	-1.044350	-0.612316	-0.000031
F130	F	-0.544350	-0.112316	0.499969
H131	H	-1.065219	-0.082277	0.000001
H132	H	-0.565219	0.417723	0.500001
F133	F	-1.012519	0.080624	0.389801
F134	F	-0.512519	0.580624	0.889801
H135	H	-1.028901	0.066032	0.786244
H136	H	-0.528901	0.566032	1.286244
H137	H	-0.127270	0.308637	-0.000017
H138	H	0.372730	0.808637	0.499983
H139	H	-0.274867	0.320729	-0.000019
H140	H	0.225133	0.820729	0.499981
F141	F	-0.786435	-0.052793	-0.000019
F142	F	-0.286435	0.447207	0.499981
F143	F	-1.051937	0.045427	0.610141
F144	F	-0.551937	0.545427	1.110141
F145	F	-0.549250	-0.004604	-0.000026
F146	F	-0.049250	0.495396	0.499974
F147	F	-0.788300	0.280994	0.202375
F148	F	-0.288300	0.780994	0.702375
H149	H	-0.505121	0.274525	-0.000019
H150	H	-0.005121	0.774525	0.499981
H151	H	-0.811991	-0.214825	-0.000021
H152	H	-0.311991	0.285175	0.499979
F153	F	-0.808802	0.262743	0.797612
F154	F	-0.308802	0.762743	1.297612
F155	F	-0.818255	0.254263	0.610171
F156	F	-0.318255	0.754263	1.110171
H157	H	-0.765568	-0.582831	-0.000036
H158	H	-0.265568	-0.082831	0.499964
F159	F	-0.740012	-0.420786	-0.000037
F160	F	-0.240012	0.079214	0.499963
