data_functionalizedCrystal
_audit_creation_method	'MofGen! by Chris Wilmer'
_symmetry_space_group_name_H-M	'P1'
_symmetry_Int_Tables_number	1
_symmetry_cell_setting	triclinic
loop_
_symmetry_equiv_pos_as_xyz
  x,y,z
_cell_length_a	16.109302
_cell_length_b	16.109301
_cell_length_c	14.586319
_cell_angle_alpha	90.005214
_cell_angle_beta	89.994552
_cell_angle_gamma	96.538369
loop_
_atom_site_label
_atom_site_type_symbol
_atom_site_fract_x
_atom_site_fract_y
_atom_site_fract_z
O1	O	1.103130	-0.106869	-0.076284
O2	O	0.861069	-0.120168	-0.076278
O3	O	0.988749	0.007513	-0.076272
O4	O	0.975450	-0.234549	-0.076290
O5	O	0.988740	0.007515	0.076209
O6	O	0.861060	-0.120166	0.076203
O7	O	1.103122	-0.106867	0.076196
Cu8	Cu	0.982090	-0.113516	0.090122
Cu9	Cu	0.982100	-0.113519	-0.090204
O10	O	0.975441	-0.234547	0.076191
C11	C	0.830089	-0.119628	-0.000036
C12	C	0.737794	-0.118013	-0.000033
C13	C	0.525448	-0.114276	0.083075
C14	C	0.438728	-0.112750	0.083072
C15	C	0.438748	-0.112756	-0.083171
C16	C	0.525468	-0.114277	-0.083167
C17	C	0.568815	-0.115041	-0.000041
C18	C	0.395375	-0.111994	-0.000048
C19	C	0.301350	-0.110338	-0.000052
C20	C	0.662847	-0.116695	-0.000037
C21	C	1.134101	-0.107407	-0.000047
C22	C	1.226396	-0.109022	-0.000056
C23	C	0.988206	0.038488	-0.000031
C24	C	0.986591	0.130784	-0.000030
C25	C	0.975984	-0.265523	-0.000052
C26	C	0.977599	-0.357819	-0.000060
N27	N	0.982088	-0.113514	0.216954
C28	C	1.058599	0.353056	-0.000046
C29	C	1.057074	0.439776	-0.000054
C30	C	0.905586	0.419902	-0.000046
C31	C	0.907111	0.333184	-0.000045
C32	C	0.983620	0.299763	-0.000040
C33	C	0.980571	0.473202	-0.000049
C34	C	0.978918	0.567228	-0.000057
C35	C	0.985273	0.205731	-0.000034
N36	N	0.982108	-0.113514	-0.217035
C37	C	1.038644	-0.056996	0.451963
C38	C	1.038647	-0.056994	0.547944
C39	C	0.925546	-0.170035	0.547949
C40	C	0.925541	-0.170032	0.451969
C41	C	0.982094	-0.113514	0.403979
C42	C	0.982102	-0.113514	0.595940
C43	C	0.982105	-0.113513	0.700007
C44	C	0.982091	-0.113514	0.299905
H45	H	0.560739	-0.114899	0.150762
F46	F	0.827303	0.276461	-0.000045
H47	H	0.879487	-0.216056	0.412898
H48	H	1.120897	0.325848	-0.000044
F49	F	1.098833	0.003161	0.599010
F50	F	0.865363	-0.230185	0.599030
F51	F	1.136878	0.496492	-0.000062
H52	H	0.843295	0.447124	-0.000048
H53	H	0.403423	-0.112127	0.150754
F54	F	1.098831	0.003158	0.400892
H55	H	0.560778	-0.114897	-0.150854
F56	F	0.392610	-0.111926	-0.171634
