data_functionalizedCrystal
_audit_creation_method	'MofGen! by Chris Wilmer'
_symmetry_space_group_name_H-M	'P1'
_symmetry_Int_Tables_number	1
_symmetry_cell_setting	triclinic
loop_
_symmetry_equiv_pos_as_xyz
  x,y,z
_cell_length_a	10.908878
_cell_length_b	11.804783
_cell_length_c	10.967829
_cell_angle_alpha	88.670776
_cell_angle_beta	72.684712
_cell_angle_gamma	74.538487
loop_
_atom_site_label
_atom_site_type_symbol
_atom_site_fract_x
_atom_site_fract_y
_atom_site_fract_z
O1	O	1.688653	0.057422	-0.202626
O2	O	1.311118	0.076681	-0.108796
O3	O	1.517027	0.030736	-0.332666
O4	O	1.482744	0.103366	0.021244
O5	O	1.561938	-0.160309	-0.298578
O6	O	1.356029	-0.114365	-0.074708
O7	O	1.733564	-0.133624	-0.168538
Cu8	Cu	1.548897	-0.141438	-0.118510
Cu9	Cu	1.495784	0.084495	-0.158823
O10	O	1.527655	-0.087679	0.055333
C11	C	1.285389	-0.017042	-0.082983
C12	C	1.141814	-0.011681	-0.056869
N13	N	1.586264	-0.300348	-0.090158
C14	C	1.096533	-0.031235	-0.152155
C15	C	0.948141	-0.025695	-0.125167
C16	C	1.368653	-0.708252	-0.255270
C17	C	1.340361	-0.588002	-0.276720
C18	C	1.401834	-0.516083	-0.230081
C19	C	1.491604	-0.564425	-0.161989
C20	C	1.519907	-0.684689	-0.140545
C21	C	1.553088	-0.492520	-0.115356
C22	C	1.642859	-0.540863	-0.047264
C23	C	1.671156	-0.661115	-0.025823
C24	C	1.609683	-0.733034	-0.072462
C25	C	1.524785	-0.372256	-0.136800
C26	C	1.676039	-0.348693	-0.022076
C27	C	1.704332	-0.468943	-0.000625
C28	C	1.759292	-0.039899	-0.194351
C29	C	1.902865	-0.045252	-0.220466
C30	C	1.540381	-0.073936	-0.360219
C31	C	1.543044	-0.101199	-0.493102
N32	N	1.458429	0.243403	-0.187187
C33	C	1.520965	-0.014385	-0.569998
C34	C	1.523717	-0.042560	-0.707339
C35	C	1.504300	0.016996	0.082885
C36	C	1.501636	0.044266	0.215766
H37	H	1.167622	-0.052072	-0.253713
Br38	Br	1.023333	0.023073	0.112405
H39	H	1.563975	-0.196382	-0.528943
Br40	Br	0.829664	0.009061	0.044114
Br41	Br	1.466671	0.202930	-0.724496
Br42	Br	1.285246	-0.805861	-0.318568
Br43	Br	1.021331	-0.079974	-0.389755
Br44	Br	1.402962	-0.306663	-0.229211
H45	H	1.632709	-0.830952	-0.054994
Br46	Br	1.218499	-0.522393	-0.369086
H47	H	1.777425	-0.508321	0.054817
Br48	Br	1.759484	-0.251100	0.041214
Br49	Br	1.793006	-0.726725	0.066567
Br50	Br	1.486093	0.144265	-0.510279
H51	H	1.378792	-0.418170	-0.247549
Br52	Br	1.558605	-0.201217	-0.767056
