data_functionalizedCrystal
_audit_creation_method	'MofGen! by Chris Wilmer'
_symmetry_space_group_name_H-M	'P1'
_symmetry_Int_Tables_number	1
_symmetry_cell_setting	triclinic
loop_
_symmetry_equiv_pos_as_xyz
  x,y,z
_cell_length_a	19.077312
_cell_length_b	19.077068
_cell_length_c	12.759393
_cell_angle_alpha	87.737652
_cell_angle_beta	87.723664
_cell_angle_gamma	89.941008
loop_
_atom_site_label
_atom_site_type_symbol
_atom_site_fract_x
_atom_site_fract_y
_atom_site_fract_z
Zn1	Zn	1.062975	-0.322806	0.549582
Zn2	Zn	1.058155	-0.440326	0.381218
Zn3	Zn	0.945464	-0.318127	0.380684
Zn4	Zn	0.940715	-0.435563	0.563612
O5	O	1.001827	-0.379206	0.468774
O6	O	1.160663	-0.342348	0.521600
O7	O	1.043176	-0.424151	0.234130
O8	O	0.965057	-0.220418	0.396993
O9	O	1.157122	-0.428689	0.397904
O10	O	1.051392	-0.223856	0.521082
O11	O	0.960383	-0.334372	0.233737
O12	O	0.846506	-0.329753	0.410598
O13	O	0.956963	-0.420571	0.708768
O14	O	0.843017	-0.416033	0.544995
O15	O	1.046786	-0.337729	0.698460
O16	O	1.038571	-0.538025	0.411508
O17	O	0.952289	-0.534525	0.545513
C18	C	0.819267	-0.371869	0.479261
C19	C	0.741166	-0.368747	0.483774
C20	C	0.301741	-0.346301	0.516147
C21	C	0.375125	-0.349247	0.511901
C22	C	0.409966	-0.395600	0.445263
C23	C	0.371421	-0.439014	0.382874
C24	C	0.298038	-0.436071	0.387126
C25	C	0.629238	-0.409218	0.425636
C26	C	0.702625	-0.412157	0.421387
C27	C	0.706324	-0.322390	0.550416
C28	C	0.632940	-0.319448	0.554657
C29	C	0.594401	-0.362865	0.492272
N30	N	0.484976	-0.398611	0.440920
N31	N	0.519392	-0.359857	0.496622
C32	C	0.994411	-0.561772	0.480113
C33	C	0.991302	-0.639876	0.484995
C34	C	1.034799	-0.678370	0.417574
C35	C	1.031880	-0.751758	0.422172
C36	C	0.985459	-0.786651	0.494187
C37	C	0.941960	-0.748152	0.561616
C38	C	0.944884	-0.674765	0.557022
C39	C	0.971897	-1.005940	0.515406
C40	C	0.968976	-1.079332	0.519992
C41	C	1.058897	-1.082933	0.380549
C42	C	1.061813	-1.009545	0.375958
C43	C	1.018317	-0.971053	0.443390
N44	N	0.982472	-0.861665	0.498886
N45	N	1.021308	-0.896040	0.438695
C46	C	1.185100	-0.386572	0.458246
C47	C	1.263201	-0.389710	0.453760
C48	C	1.001882	-0.379140	0.742800
C49	C	1.001906	-0.379113	0.859574
C50	C	1.009292	-0.195928	0.457413
C51	C	1.012473	-0.117826	0.452571
C52	C	1.001814	-0.379222	0.195808
C53	C	1.001935	-0.379057	0.079015
C54	C	1.048681	-0.335970	0.909069
C55	C	1.048694	-0.335940	1.018791
C56	C	0.955155	-0.422202	1.029512
C57	C	0.955139	-0.422227	0.919793
H58	H	0.604577	-0.281706	0.608925
H59	H	0.917081	-0.457306	1.078556
N60	N	1.105817	-1.124452	0.307838
H61	H	1.135668	-1.091212	0.261522
H62	H	1.076020	-1.153805	0.262731
H63	H	0.399795	-0.476758	0.328620
H64	H	1.086782	-0.300807	1.059085
H65	H	0.273378	-0.308551	0.570404
N66	N	1.099120	-0.289471	0.844115
H67	H	1.090258	-0.238821	0.860715
H68	H	1.091988	-0.296098	0.767123
H69	H	0.917044	-0.457359	0.879493
N70	N	1.084865	-0.640739	0.339896
H71	H	1.111979	-0.676263	0.297886
H72	H	1.118582	-0.611545	0.378927
N73	N	0.416682	-0.302420	0.579194
H74	H	0.405941	-0.251691	0.560613
H75	H	0.468443	-0.311371	0.566376
N76	N	0.747890	-0.275578	0.617721
H77	H	0.799664	-0.284479	0.604926
H78	H	0.734638	-0.286078	0.694145
H79	H	0.597868	-0.444569	0.374835
N80	N	0.740207	-0.462152	0.349509
H81	H	0.704658	-0.489211	0.310634
H82	H	0.769352	-0.495923	0.392453
N83	N	0.256461	-0.482887	0.319839
H84	H	0.267198	-0.533619	0.338408
H85	H	0.269662	-0.472364	0.243404
N86	N	1.078794	-0.793278	0.349453
H87	H	1.108641	-0.760038	0.303130
H88	H	1.048992	-0.822630	0.304354
H89	H	0.931183	-1.107739	0.578654
N90	N	1.111891	-0.971913	0.298299
H91	H	1.139009	-1.007435	0.256290
H92	H	1.145604	-0.942724	0.337347
H93	H	0.936480	-0.974605	0.570310
N94	N	0.891893	-0.785782	0.639294
H95	H	0.896638	-0.838113	0.631972
H96	H	0.842226	-0.770989	0.624962
N97	N	0.897972	-0.633243	0.629743
H98	H	0.868119	-0.666482	0.676061
H99	H	0.866680	-0.601539	0.586905
