data_functionalizedCrystal
_audit_creation_method	'MofGen! by Chris Wilmer'
_symmetry_space_group_name_H-M	'P1'
_symmetry_Int_Tables_number	1
_symmetry_cell_setting	triclinic
loop_
_symmetry_equiv_pos_as_xyz
  x,y,z
_cell_length_a	12.759401
_cell_length_b	18.215405
_cell_length_c	18.215399
_cell_angle_alpha	89.969449
_cell_angle_beta	90.016498
_cell_angle_gamma	89.974954
loop_
_atom_site_label
_atom_site_type_symbol
_atom_site_fract_x
_atom_site_fract_y
_atom_site_fract_z
Zn1	Zn	1.606160	0.292989	0.416037
Zn2	Zn	2.106160	0.792989	0.916037
Zn3	Zn	1.606030	0.416060	0.292965
Zn4	Zn	2.106030	0.916060	0.792965
Zn5	Zn	1.430468	0.293012	0.292992
Zn6	Zn	1.930468	0.793012	0.792992
Zn7	Zn	1.430420	0.416018	0.415997
Zn8	Zn	1.930420	0.916018	0.915997
O9	O	1.518269	0.354520	0.354498
O10	O	2.018269	0.854520	0.854498
O11	O	1.753164	0.309322	0.399717
O12	O	2.253164	0.809322	0.899717
O13	O	1.582707	0.399765	0.189984
O14	O	2.082707	0.899765	0.689984
O15	O	1.453849	0.190025	0.309342
O16	O	1.953849	0.690025	0.809342
O17	O	1.753068	0.399742	0.309297
O18	O	2.253068	0.899742	0.809297
O19	O	1.582929	0.190008	0.399743
O20	O	2.082929	0.690008	0.899743
O21	O	1.453723	0.309362	0.190004
O22	O	1.953723	0.809362	0.690004
O23	O	1.283441	0.309322	0.309303
O24	O	1.783441	0.809322	0.809303
O25	O	1.453766	0.399671	0.518987
O26	O	1.953766	0.899671	1.018987
O27	O	1.283405	0.399694	0.399675
O28	O	1.783405	0.899694	0.899675
O29	O	1.582882	0.309282	0.519016
O30	O	2.082882	0.809282	1.019016
O31	O	1.582659	0.519039	0.309258
O32	O	2.082659	1.019039	0.809258
O33	O	1.453640	0.519008	0.399649
O34	O	1.953640	1.019008	0.899649
C35	C	1.245302	0.354506	0.354488
C36	C	1.745302	0.854506	0.854488
C37	C	1.128525	0.354518	0.354501
C38	C	1.628525	0.854518	0.854501
C39	C	1.518159	0.545726	0.354462
C40	C	2.018159	1.045726	0.854462
C41	C	1.518207	0.627525	0.354472
C42	C	2.018207	1.127525	0.854472
C43	C	1.518333	0.354469	0.546451
C44	C	2.018333	0.854469	1.046451
C45	C	1.518361	0.354447	0.628250
C46	C	2.018361	0.854447	1.128250
C47	C	1.073672	0.401650	0.401480
C48	C	1.573672	0.901650	0.901480
C49	C	0.963948	0.401660	0.401488
C50	C	1.463948	0.901660	0.901488
C51	C	0.963940	0.307403	0.307532
C52	C	1.463940	0.807403	0.807532
C53	C	1.073662	0.307390	0.307528
C54	C	1.573662	0.807390	0.807528
C55	C	1.128535	0.448778	0.448452
C56	C	1.628535	0.948778	0.948452
C57	C	1.073682	0.495915	0.495434
C58	C	1.573682	0.995915	0.995434
C59	C	0.963958	0.495924	0.495442
C60	C	1.463958	0.995924	0.995442
C61	C	0.909087	0.448797	0.448468
C62	C	1.409087	0.948797	0.948468
C63	C	1.792303	0.354534	0.354508
C64	C	2.292303	0.854534	0.854508
C65	C	1.909079	0.354540	0.354513
C66	C	2.409079	0.854540	0.854513
C67	C	1.518409	0.162567	0.354549
C68	C	2.018409	0.662567	0.854549
C69	C	1.518469	0.080768	0.354571
C70	C	2.018469	0.580768	0.854571
C71	C	1.585546	0.815710	0.307492
C72	C	2.085546	1.315710	0.807492
C73	C	1.585592	0.892569	0.307510
C74	C	2.085592	1.392569	0.807510
C75	C	1.451128	0.892577	0.401557
C76	C	1.951128	1.392577	0.901557
C77	C	1.451087	0.815720	0.401542
C78	C	1.951087	1.315720	0.901542
C79	C	1.518294	0.777288	0.354505
C80	C	2.018294	1.277288	0.854505
C81	C	1.518382	0.931004	0.354538
C82	C	2.018382	1.431004	0.854538
C83	C	1.518433	1.014338	0.354558
C84	C	2.018433	1.514338	0.854558
C85	C	1.518245	0.693949	0.354487
C86	C	2.018245	1.193949	0.854487
C87	C	1.518266	0.354517	0.163292
C88	C	2.018266	0.854517	0.663292
C89	C	1.518442	0.354332	0.081493
C90	C	2.018442	0.854332	0.581493
C91	C	1.585616	0.307338	0.816460
C92	C	2.085616	0.807338	1.316460
C93	C	1.585628	0.307316	0.893319
C94	C	2.085628	0.807316	1.393319
C95	C	1.451180	0.401443	0.893277
C96	C	1.951180	0.901443	1.393277
C97	C	1.451163	0.401461	0.816420
C98	C	1.951163	0.901461	1.316420
C99	C	1.518387	0.354409	0.778013
C100	C	2.018387	0.854409	1.278013
C101	C	1.518416	0.354370	0.931729
C102	C	2.018416	0.854370	1.431729
C103	C	1.518429	0.354347	1.015063
C104	C	2.018429	0.854347	1.515063
C105	C	1.518373	0.354431	0.694674
C106	C	2.018373	0.854431	1.194674
H107	H	1.217878	0.448777	0.448450
H108	H	1.717878	0.948777	0.948450
H109	H	1.396323	0.784435	0.439830
H110	H	1.896323	1.284435	0.939830
C111	C	1.659549	0.255580	0.774212
C112	C	2.159549	0.755580	1.274212
H113	H	1.649919	0.262335	0.722931
H114	H	2.149919	0.762335	1.222931
H115	H	1.644208	0.206130	0.786822
H116	H	2.144208	0.706130	1.286822
H117	H	1.730138	0.266353	0.786812
H118	H	2.230138	0.766353	1.286812
C119	C	1.659480	0.773438	0.255761
C120	C	2.159480	1.273438	0.755761
H121	H	1.699545	0.807331	0.227770
H122	H	2.199545	1.307331	0.727770
H123	H	1.619308	0.743501	0.223662
H124	H	2.119308	1.243501	0.723662
H125	H	1.705218	0.743412	0.283943
H126	H	2.205218	1.243412	0.783943
C127	C	1.659585	0.255541	0.935607
C128	C	2.159585	0.755541	1.435607
H129	H	1.699620	0.227528	0.901724
H130	H	2.199620	0.727528	1.401724
H131	H	1.619428	0.223466	0.965595
H132	H	2.119428	0.723466	1.465595
H133	H	1.705351	0.283694	0.965585
H134	H	2.205351	0.783694	1.465585
H135	H	1.396408	0.923877	0.439851
H136	H	1.896408	1.423877	0.939851
H137	H	1.640357	0.923849	0.269227
H138	H	2.140357	1.423849	0.769227
H139	H	1.396410	0.439791	0.785116
H140	H	1.896410	0.939791	1.285116
C141	C	1.134035	0.547752	0.547099
C142	C	1.634035	1.047752	1.047099
H143	H	1.207238	0.541003	0.540361
H144	H	1.707238	1.041003	1.040361
H145	H	1.116089	0.537054	0.596568
H146	H	1.616089	1.037054	1.096568
H147	H	1.116021	0.597187	0.536229
H148	H	1.616021	1.097187	1.036229
C149	C	0.903617	0.547766	0.547121
C150	C	1.403617	1.047766	1.047121
H151	H	0.830412	0.541020	0.540403
H152	H	1.330412	1.041020	1.040403
H153	H	0.921572	0.597196	0.536258
H154	H	1.421572	1.097196	1.036258
H155	H	0.921632	0.537055	0.596589
H156	H	1.421632	1.037055	1.096589
C157	C	0.788393	0.448791	0.448494
C158	C	1.288393	0.948791	0.948494
H159	H	0.763580	0.483609	0.483204
H160	H	1.263580	0.983609	0.983204
H161	H	0.763620	0.401315	0.461312
H162	H	1.263620	0.901315	0.961312
H163	H	0.763521	0.461459	0.400983
H164	H	1.263521	0.961459	0.900983
C165	C	0.903585	0.255573	0.255861
C166	C	1.403585	0.755573	0.755861
H167	H	0.830382	0.262336	0.262588
H168	H	1.330382	0.762336	0.762588
H169	H	0.921589	0.206137	0.266720
H170	H	1.421589	0.706137	0.766720
H171	H	0.921539	0.266282	0.206392
H172	H	1.421539	0.766282	0.706392
C173	C	1.377250	0.453202	0.935527
C174	C	1.877250	0.953202	1.435527
H175	H	1.386895	0.446457	0.986807
H176	H	1.886895	0.946457	1.486807
H177	H	1.306663	0.442436	0.922930
H178	H	1.806663	0.942436	1.422930
H179	H	1.392599	0.502654	0.922915
H180	H	1.892599	1.002654	1.422915
C181	C	1.134005	0.255543	0.255856
C182	C	1.634005	0.755543	0.755856
H183	H	1.085617	0.227483	0.227876
H184	H	1.585617	0.727483	0.727876
H185	H	1.176830	0.223513	0.284072
H186	H	1.676830	0.723513	0.784072
H187	H	1.176784	0.283648	0.223734
H188	H	1.676784	0.783648	0.723734
