data_functionalizedCrystal
_audit_creation_method	'MofGen! by Chris Wilmer'
_symmetry_space_group_name_H-M	'P1'
_symmetry_Int_Tables_number	1
_symmetry_cell_setting	triclinic
loop_
_symmetry_equiv_pos_as_xyz
  x,y,z
_cell_length_a	23.096457
_cell_length_b	14.560438
_cell_length_c	23.096457
_cell_angle_alpha	90.014544
_cell_angle_beta	60.008701
_cell_angle_gamma	60.001940
loop_
_atom_site_label
_atom_site_type_symbol
_atom_site_fract_x
_atom_site_fract_y
_atom_site_fract_z
Zr1	Zr	0.633740	0.884749	-0.075946
O2	O	0.754526	0.738073	-0.168393
O3	O	0.512954	0.929710	-0.047610
O4	O	0.633742	0.929670	-0.168396
O5	O	0.633736	0.738150	0.047675
O6	O	0.633744	1.080808	-0.168394
O7	O	0.633738	0.738114	-0.047607
O8	O	0.417676	1.080881	0.047670
O9	O	0.849804	0.738077	-0.168389
O10	O	0.562636	1.061682	-0.035519
O11	O	0.562634	0.948916	0.035587
O12	O	0.704846	0.948868	-0.106622
O13	O	0.704844	0.836102	-0.035516
Zr14	Zr	0.633740	1.125855	0.076020
Zr15	Zr	0.633743	1.125798	-0.075944
Zr16	Zr	0.633737	0.884807	0.076018
Zr17	Zr	0.785697	0.884756	-0.075940
Zr18	Zr	0.481783	1.125849	0.076014
O19	O	0.754526	1.080894	0.047684
O20	O	0.754529	1.080813	-0.168389
O21	O	0.754522	0.738155	0.047680
O22	O	0.512954	1.272531	0.168466
O23	O	0.512958	1.272449	-0.047606
O24	O	0.512951	0.929792	0.168463
O25	O	0.633744	1.272454	-0.047601
O26	O	0.633738	1.080935	0.168470
O27	O	0.633736	0.929797	0.168468
O28	O	0.633742	1.272490	0.047681
O29	O	0.849806	0.929678	-0.168387
O30	O	0.417674	1.080926	0.168461
O31	O	0.417676	1.272527	0.168462
O32	O	0.417678	1.272482	0.047672
O33	O	0.849802	0.738123	-0.047598
O34	O	0.849804	0.929724	-0.047596
O35	O	0.562634	1.061736	0.106696
O36	O	0.562636	1.174502	0.035590
O37	O	0.704846	1.061688	-0.035513
O38	O	0.704844	0.948922	0.035593
C39	C	0.443665	1.005294	0.000029
C40	C	0.379155	1.005292	0.000026
C41	C	0.633737	0.703788	0.000034
C42	C	0.633736	0.601457	0.000033
C43	C	0.633743	1.005230	-0.190047
C44	C	0.633744	1.005206	-0.254559
C45	C	0.348855	1.064147	-0.037093
C46	C	0.288233	1.064158	-0.037088
C47	C	0.257924	1.005292	0.000028
C48	C	0.288228	0.946434	0.037156
C49	C	0.348843	0.946434	0.037155
N50	N	0.195527	0.909474	-0.005120
N51	N	0.137947	0.909476	-0.005122
C52	C	0.075292	1.005291	0.000035
N53	N	0.072401	1.101102	0.005181
N54	N	0.129989	1.101097	0.005180
C55	C	0.192196	1.005286	0.000034
C56	C	-0.020742	1.064163	-0.037080
C57	C	-0.081369	1.064177	-0.037069
C58	C	-0.081367	0.946443	0.037169
C59	C	-0.020747	0.946440	0.037163
C60	C	0.009565	1.005297	0.000034
C61	C	0.823815	1.005310	0.000045
C62	C	0.888325	1.005312	0.000048
C63	C	0.559505	0.612266	0.037148
C64	C	0.559509	0.516111	0.037154
C65	C	0.707981	0.398341	-0.037075
C66	C	0.707976	0.494495	-0.037077
C67	C	0.473786	0.680259	0.080001
C68	C	0.473790	0.584104	0.080007
C69	C	0.633743	1.306816	0.000040
C70	C	0.633744	1.409148	0.000041
C71	C	0.707974	0.946324	-0.321978
C72	C	0.707975	0.946353	-0.382594
C73	C	0.633742	1.005248	-0.375788
C74	C	0.559503	1.064143	-0.308357
C75	C	0.559504	1.064122	-0.247743
N76	N	0.578486	0.997121	-0.443346
N77	N	0.578490	0.997135	-0.500929
C78	C	0.633735	1.005317	-0.558413
N79	N	0.688988	1.013464	-0.556144
N80	N	0.688986	1.013444	-0.498557
C81	C	0.633733	1.005278	-0.441510
C82	C	0.707971	0.946464	-0.691562
C83	C	0.707969	0.946500	-0.752178
C84	C	0.559495	1.064283	-0.677938
C85	C	0.559499	1.064254	-0.617325
C86	C	0.633739	1.005338	-0.624141
C87	C	0.633737	1.005374	0.190120
C88	C	0.633736	1.005398	0.254633
C89	C	0.443668	1.306809	0.000032
C90	C	0.379159	1.409137	0.000030
C91	C	0.443661	1.005366	0.190112
C92	C	0.379150	1.005388	0.254622
C93	C	0.443665	1.306880	0.190116
C94	C	0.379155	1.409233	0.254626
C95	C	0.823815	0.703724	-0.190042
C96	C	0.888325	0.601371	-0.254553
C97	C	0.823812	0.703795	0.000042
C98	C	0.888321	0.601467	0.000044
C99	C	0.823819	1.005238	-0.190039
C100	C	0.888330	1.005216	-0.254548
C101	C	0.348865	1.398301	-0.037095
C102	C	0.288260	1.494441	-0.037111
C103	C	0.257947	1.601415	0.000003
C104	C	0.288247	1.612249	0.037130
C105	C	0.348855	1.516111	0.037141
C106	C	0.348855	1.064289	0.322041
C107	C	0.288249	1.064305	0.382661
C108	C	0.257934	1.005426	0.375860
C109	C	0.288235	0.946518	0.308434
C110	C	0.348845	0.946496	0.247816
C111	C	0.348861	1.516172	0.247804
C112	C	0.288256	1.612353	0.308414
C113	C	0.257941	1.601592	0.375844
C114	C	0.288240	1.494642	0.382664
C115	C	0.348848	1.398464	0.322056
C116	C	0.918626	0.494432	-0.247731
C117	C	0.979250	0.398251	-0.308340
C118	C	1.009569	0.409012	-0.375770
C119	C	0.979265	0.515962	-0.382591
C120	C	0.918646	0.612140	-0.321982
C121	C	0.918621	0.612303	0.037163
C122	C	0.979243	0.516163	0.037162
C123	C	1.009558	0.409189	0.000045
C124	C	0.979255	0.398355	-0.037078
C125	C	0.918639	0.494494	-0.037081
C126	C	0.918625	1.064107	-0.247725
C127	C	0.979232	1.064108	-0.308333
C128	C	1.009546	1.005212	-0.375764
C129	C	0.979245	0.946320	-0.382586
C130	C	0.918635	0.946326	-0.321979
H131	H	0.373531	1.112075	-0.067324
H132	H	0.263558	1.112087	-0.067316
H133	H	1.058928	0.330688	-0.425115
O134	O	0.885955	0.727492	-0.329330
H135	H	0.858341	0.737254	-0.358763
O136	O	0.192559	1.005458	0.441244
H137	H	0.137328	1.042295	0.441203
H138	H	0.499062	1.112098	-0.302819
O139	O	0.381509	1.283126	0.329424
H140	H	0.428751	1.218044	0.275956
O141	O	1.011960	0.282971	-0.077111
H142	H	1.000323	0.236373	-0.039631
H143	H	1.003959	0.524710	-0.437500
O144	O	0.885952	0.482801	-0.077111
H145	H	0.917214	0.392261	-0.102910
H146	H	0.893952	1.112067	-0.192824
O147	O	0.255514	0.883051	0.301102
H148	H	0.208266	0.892992	0.354584
H149	H	0.373546	1.311206	-0.067326
H150	H	0.499053	1.112239	-0.672395
O151	O	0.479436	1.127746	-0.544602
H152	H	0.427816	1.168697	-0.550050
O153	O	0.011949	0.882956	0.077193
H154	H	0.039571	0.792454	0.055742
H155	H	0.373514	0.898505	0.067382
O156	O	0.255587	1.482740	-0.077156
H157	H	0.188722	1.523751	-0.039691
H158	H	0.440885	0.584088	0.056159
H159	H	1.003897	1.112063	-0.302764
H160	H	0.208596	1.679688	-0.000011
H161	H	0.263557	1.699360	0.067347
O162	O	1.011904	0.527868	0.077217
H163	H	1.078764	0.486898	0.039756
H164	H	1.058916	0.330916	0.000053
O165	O	1.074930	1.005196	-0.441130
H166	H	1.051668	1.092873	-0.441081
H167	H	1.003937	0.898369	-0.437497
H168	H	0.893976	0.898366	-0.327545
H169	H	0.373512	1.524949	0.067377
H170	H	1.003913	0.311178	-0.302772
H171	H	0.893944	0.485649	-0.192831
H172	H	0.373531	1.112235	0.327592
H173	H	0.263546	0.898506	0.067377
O174	O	0.885942	0.727677	0.077186
H175	H	0.917214	0.719042	0.102983
O176	O	0.381526	0.883036	0.175077
H177	H	0.369872	0.942536	0.145729
H178	H	0.768422	0.485685	-0.067297
O179	O	0.255560	1.127864	0.455380
H180	H	0.286812	1.168821	0.449919
O181	O	0.788053	0.282977	-0.077110
H182	H	0.775587	0.217929	-0.070878
H183	H	0.499055	1.112072	-0.192845
H184	H	0.768427	0.898355	-0.327534
H185	H	0.003936	1.112093	-0.067310
H186	H	-0.106043	1.112111	-0.067294
H187	H	-0.106044	0.898513	0.067390
H188	H	0.373535	1.524955	0.192905
O189	O	0.255572	1.727709	0.301066
H190	H	0.227942	1.737491	0.271645
O191	O	0.430191	0.749443	0.155173
H192	H	0.408859	0.707052	0.191978
H193	H	0.447193	0.731154	0.051715
H194	H	0.263548	1.485897	0.437574
O195	O	0.438537	0.572591	0.152705
H196	H	0.475447	0.566915	0.171762
O197	O	0.788040	0.882832	-0.455323
H198	H	0.839663	0.841855	-0.449879
O199	O	0.788039	0.882938	-0.698904
H200	H	0.839658	0.842013	-0.755972
H201	H	0.768419	0.898556	-0.807075
H202	H	0.208589	1.679916	0.425189
