data_functionalizedCrystal
_audit_creation_method	'MofGen! by Chris Wilmer'
_symmetry_space_group_name_H-M	'P1'
_symmetry_Int_Tables_number	1
_symmetry_cell_setting	triclinic
loop_
_symmetry_equiv_pos_as_xyz
  x,y,z
_cell_length_a	14.044191
_cell_length_b	23.532357
_cell_length_c	22.010155
_cell_angle_alpha	90.010083
_cell_angle_beta	90.013322
_cell_angle_gamma	88.010034
loop_
_atom_site_label
_atom_site_type_symbol
_atom_site_fract_x
_atom_site_fract_y
_atom_site_fract_z
O1	O	1.256391	0.137254	0.050510
O2	O	1.589724	0.470587	0.383843
O3	O	1.923057	0.803920	0.717176
O4	O	0.980469	0.132297	0.050517
O5	O	1.313803	0.465631	0.383850
O6	O	1.647136	0.798964	0.717184
O7	O	1.126775	0.052294	0.050501
O8	O	1.460108	0.385628	0.383834
O9	O	1.793442	0.718961	0.717167
O10	O	1.110085	0.217257	0.050526
O11	O	1.443418	0.550590	0.383859
O12	O	1.776752	0.883923	0.717193
O13	O	1.126731	0.052292	-0.050550
O14	O	1.460065	0.385625	0.282784
O15	O	1.793398	0.718959	0.616117
O16	O	0.980426	0.132295	-0.050533
O17	O	1.313759	0.465628	0.282800
O18	O	1.647092	0.798962	0.616133
O19	O	1.256347	0.137251	-0.050541
O20	O	1.589680	0.470585	0.282793
O21	O	1.923014	0.803918	0.616126
Cu22	Cu	1.118382	0.134773	-0.059764
Cu23	Cu	1.451716	0.468106	0.273570
Cu24	Cu	1.785049	0.801440	0.606903
Cu25	Cu	1.118434	0.134776	0.059740
Cu26	Cu	1.451767	0.468109	0.393073
Cu27	Cu	1.785101	0.801442	0.726407
O28	O	1.110041	0.217254	-0.050524
O29	O	1.443375	0.550588	0.282809
O30	O	1.776708	0.883921	0.616142
C31	C	0.945154	0.130128	-0.000007
C32	C	1.278487	0.463461	0.333326
C33	C	1.611821	0.796795	0.666659
C34	C	0.839991	0.123660	-0.000005
C35	C	1.173324	0.456994	0.333328
C36	C	1.506658	0.790327	0.666661
C37	C	1.126336	0.031054	-0.000026
C38	C	1.459669	0.364387	0.333307
C39	C	1.793002	0.697721	0.666640
C40	C	1.125081	-0.032233	-0.000032
C41	C	1.458414	0.301101	0.333301
C42	C	1.791747	0.634434	0.666635
C43	C	0.589374	0.157706	-0.000006
C44	C	0.922707	0.491039	0.333327
C45	C	1.256040	0.824373	0.666661
C46	C	0.647448	0.111845	-0.000012
C47	C	0.980781	0.445179	0.333321
C48	C	1.314115	0.778512	0.666655
C49	C	0.754589	0.118421	-0.000008
C50	C	1.087922	0.451754	0.333325
C51	C	1.421255	0.785087	0.666658
C52	C	0.482223	0.151131	-0.000010
C53	C	0.815556	0.484465	0.333323
C54	C	1.148890	0.817798	0.666657
C55	C	1.117225	-0.424670	0.055083
C56	C	1.450558	-0.091337	0.388417
C57	C	1.783891	0.241997	0.721750
C58	C	1.116032	-0.484134	0.055087
C59	C	1.449365	-0.150801	0.388420
C60	C	1.782698	0.182533	0.721754
O61	O	1.115403	-0.514885	0.101933
O62	O	1.448736	-0.181551	0.435266
O63	O	1.782069	0.151782	0.768599
N64	N	1.115416	-0.513879	0.000005
N65	N	1.448749	-0.180545	0.333339
N66	N	1.782083	0.152788	0.666672
C67	C	1.115984	-0.484156	-0.055084
C68	C	1.449317	-0.150822	0.278250
C69	C	1.782651	0.182511	0.611583
O70	O	1.115350	-0.514916	-0.101935
O71	O	1.448683	-0.181583	0.231399
O72	O	1.782017	0.151751	0.564732
C73	C	1.117170	-0.424692	-0.055087
C74	C	1.450504	-0.091359	0.278247
C75	C	1.783837	0.241974	0.611580
C76	C	1.117796	-0.394951	-0.000001
C77	C	1.451129	-0.061618	0.333332
C78	C	1.784462	0.271715	0.666666
C79	C	1.117849	-0.394929	0.110164
C80	C	1.451182	-0.061595	0.443498
C81	C	1.784516	0.271738	0.776831
C82	C	1.119044	-0.335469	0.110161
C83	C	1.452377	-0.002135	0.443494
C84	C	1.785710	0.331198	0.776827
C85	C	1.119615	-0.305750	0.055076
C86	C	1.452948	0.027583	0.388409
C87	C	1.786281	0.360917	0.721743
C88	C	1.118990	-0.335491	-0.000005
C89	C	1.452324	-0.002158	0.333328
C90	C	1.785657	0.331175	0.666662
C91	C	1.117732	-0.394970	-0.110175
C92	C	1.451065	-0.061637	0.223159
C93	C	1.784398	0.271696	0.556492
C94	C	1.118917	-0.335503	-0.110173
C95	C	1.452251	-0.002170	0.223160
C96	C	1.785584	0.331164	0.556494
C97	C	1.119542	-0.305762	-0.055087
C98	C	1.452876	0.027571	0.278246
C99	C	1.786209	0.360905	0.611579
C100	C	1.120756	-0.246313	-0.055093
C101	C	1.454089	0.087021	0.278240
C102	C	1.787423	0.420354	0.611573
N103	N	1.121372	-0.216568	-0.000011
N104	N	1.454705	0.116765	0.333322
N105	N	1.788038	0.450099	0.666655
C106	C	1.120801	-0.246287	0.055073
C107	C	1.454134	0.087047	0.388407
C108	C	1.787467	0.420380	0.721740
C109	C	1.113491	-0.609032	-0.055073
C110	C	1.446824	-0.275699	0.278260
C111	C	1.780158	0.057634	0.611593
C112	C	1.112312	-0.668495	-0.055071
C113	C	1.445645	-0.335161	0.278262
C114	C	1.778978	-0.001828	0.611595
C115	C	1.112357	-0.668469	0.055100
C116	C	1.445691	-0.335136	0.388433
C117	C	1.779024	-0.001802	0.721766
C118	C	1.113544	-0.609006	0.055097
C119	C	1.446877	-0.275672	0.388430
C120	C	1.780210	0.057661	0.721763
C121	C	1.114107	-0.579288	0.000008
C122	C	1.447440	-0.245955	0.333342
C123	C	1.780773	0.087379	0.666675
C124	C	1.123311	-0.121417	0.055061
C125	C	1.456644	0.211917	0.388395
C126	C	1.789978	0.545250	0.721728
C127	C	1.124510	-0.061951	0.055053
C128	C	1.457843	0.271382	0.388386
C129	C	1.791177	0.604715	0.721719
C130	C	1.124459	-0.061982	-0.055118
C131	C	1.457792	0.271351	0.278215
C132	C	1.791126	0.604684	0.611549
C133	C	1.123265	-0.121442	-0.055110
C134	C	1.456598	0.211891	0.278224
C135	C	1.789932	0.545224	0.611557
C136	C	1.122688	-0.151158	-0.000015
C137	C	1.456021	0.182175	0.333318
C138	C	1.789355	0.515509	0.666651
O139	O	1.121382	-0.215524	-0.101915
O140	O	1.454715	0.117809	0.231418
O141	O	1.788048	0.451142	0.564752
O142	O	1.121422	-0.215519	0.101916
O143	O	1.454756	0.117814	0.435250
O144	O	1.788089	0.451148	0.768583
C145	C	1.291662	0.139421	-0.000015
C146	C	1.624996	0.472754	0.333319
C147	C	1.958329	0.806087	0.666652
C148	C	1.396825	0.145888	-0.000013
C149	C	1.730159	0.479222	0.333320
C150	C	2.063492	0.812555	0.666654
C151	C	1.110481	0.238495	0.000004
C152	C	1.443814	0.571828	0.333337
C153	C	1.777147	0.905161	0.666671
C154	C	1.111736	0.301781	0.000014
C155	C	1.445069	0.635115	0.333347
C156	C	1.778402	0.968448	0.666680
N157	N	1.118353	0.134771	-0.143816
N158	N	1.451686	0.468104	0.189517
N159	N	1.785019	0.801438	0.522851
C160	C	1.175559	0.172234	-0.563592
C161	C	1.508892	0.505568	-0.230258
C162	C	1.842225	0.838901	0.103075
C163	C	1.175570	0.172233	-0.627199
C164	C	1.508903	0.505567	-0.293866
C165	C	1.842236	0.838900	0.039467
O166	O	1.224174	0.204080	-0.660087
O167	O	1.557508	0.537414	-0.326754
O168	O	1.890841	0.870747	0.006579
N169	N	1.118453	0.134770	-0.659023
N170	N	1.451786	0.468104	-0.325690
N171	N	1.785119	0.801437	0.007643
C172	C	1.061328	0.097301	-0.627236
C173	C	1.394661	0.430635	-0.293903
C174	C	1.727995	0.763968	0.039430
O175	O	1.012747	0.065436	-0.660146
O176	O	1.346080	0.398769	-0.326813
O177	O	1.679414	0.732102	0.006521
C178	C	1.061322	0.097300	-0.563630
C179	C	1.394656	0.430633	-0.230297
C180	C	1.727989	0.763967	0.103037
C181	C	1.118436	0.134770	-0.531809
C182	C	1.451769	0.468103	-0.198476
C183	C	1.785103	0.801436	0.134857
C184	C	1.232668	0.209700	-0.531771
C185	C	1.566002	0.543034	-0.198437
C186	C	1.899335	0.876367	0.134896
C187	C	1.232656	0.209702	-0.468168
C188	C	1.565989	0.543035	-0.134834
C189	C	1.899322	0.876368	0.198499
C190	C	1.175533	0.172237	-0.436385
C191	C	1.508866	0.505570	-0.103052
C192	C	1.842200	0.838904	0.230281
C193	C	1.118423	0.134771	-0.468206
C194	C	1.451757	0.468104	-0.134873
C195	C	1.785090	0.801438	0.198461
C196	C	1.004203	0.059829	-0.531844
C197	C	1.337537	0.393162	-0.198511
C198	C	1.670870	0.726495	0.134822
C199	C	1.004204	0.059830	-0.468233
C200	C	1.337537	0.393164	-0.134900
C201	C	1.670870	0.726497	0.198433
C202	C	1.061317	0.097300	-0.436413
C203	C	1.394650	0.430633	-0.103079
C204	C	1.727984	0.763966	0.230254
C205	C	1.061288	0.097308	-0.372820
C206	C	1.394621	0.430641	-0.039487
C207	C	1.727955	0.763974	0.293846
N208	N	1.118405	0.134771	-0.340996
N209	N	1.451739	0.468104	-0.007663
N210	N	1.785072	0.801437	0.325670
C211	C	1.175528	0.172236	-0.372779
C212	C	1.508861	0.505569	-0.039445
C213	C	1.842194	0.838902	0.293888
C214	C	1.061345	0.097307	-0.760814
C215	C	1.394678	0.430640	-0.427481
C216	C	1.728012	0.763973	-0.094148
C217	C	1.061344	0.097311	-0.824419
C218	C	1.394678	0.430644	-0.491086
C219	C	1.728011	0.763977	-0.157753
C220	C	1.175588	0.172242	-0.824378
C221	C	1.508921	0.505575	-0.491045
C222	C	1.842255	0.838909	-0.157711
C223	C	1.175583	0.172241	-0.760771
C224	C	1.508916	0.505574	-0.427438
C225	C	1.842249	0.838907	-0.094105
C226	C	1.118462	0.134770	-0.728990
C227	C	1.451795	0.468103	-0.395657
C228	C	1.785129	0.801437	-0.062323
C229	C	1.175496	0.172236	-0.239207
C230	C	1.508829	0.505569	0.094126
C231	C	1.842163	0.838903	0.427459
C232	C	1.175475	0.172236	-0.175599
C233	C	1.508809	0.505569	0.157735
C234	C	1.842142	0.838902	0.491068
C235	C	1.061236	0.097303	-0.175646
C236	C	1.394569	0.430636	0.157688
C237	C	1.727903	0.763969	0.491021
C238	C	1.061253	0.097305	-0.239249
C239	C	1.394586	0.430638	0.094084
C240	C	1.727919	0.763971	0.427418
C241	C	1.118390	0.134773	-0.271028
C242	C	1.451723	0.468107	0.062305
C243	C	1.785057	0.801440	0.395638
O244	O	1.012711	0.065475	-0.339892
O245	O	1.346045	0.398809	-0.006559
O246	O	1.679378	0.732142	0.326775
O247	O	1.224110	0.204091	-0.339861
O248	O	1.557443	0.537424	-0.006528
O249	O	1.890776	0.870757	0.326805
N250	N	1.118471	0.134774	0.143793
N251	N	1.451804	0.468107	0.477126
N252	N	1.785138	0.801440	0.810459
H253	H	0.616702	0.067645	0.000024
H254	H	0.950036	0.400978	0.333357
H255	H	1.283369	0.734311	0.666691
H256	H	0.620118	0.201903	0.000003
H257	H	0.953451	0.535236	0.333336
H258	H	1.286785	0.868570	0.666669
H259	H	1.113952	-0.584840	-0.099936
H260	H	1.447286	-0.251507	0.233397
H261	H	1.780619	0.081827	0.566731
H262	H	1.279168	0.240211	-0.442265
H263	H	1.612501	0.573544	-0.108931
H264	H	1.945834	0.906878	0.224402
H265	H	1.122836	-0.145604	0.099924
H266	H	1.456170	0.187730	0.433258
H267	H	1.789503	0.521063	0.766591
H268	H	1.125021	-0.037739	0.099912
H269	H	1.458354	0.295595	0.433245
H270	H	1.791688	0.628928	0.766578
H271	H	0.957689	0.029316	-0.442360
H272	H	1.291022	0.362649	-0.109027
H273	H	1.624355	0.695983	0.224306
H274	H	1.119549	-0.311259	0.155017
H275	H	1.452883	0.022075	0.488350
H276	H	1.786216	0.355408	0.821684
H277	H	1.014726	0.066801	-0.149757
H278	H	1.348059	0.400135	0.183576
H279	H	1.681392	0.733468	0.516910
H280	H	1.117381	-0.419119	0.155023
H281	H	1.450714	-0.085786	0.488357
H282	H	1.784047	0.247547	0.821690
H283	H	1.114051	-0.584794	0.099952
H284	H	1.447385	-0.251461	0.433286
H285	H	1.780718	0.081872	0.766619
F286	F	1.000535	0.057428	-0.726996
F287	F	1.333869	0.390762	-0.393662
F288	F	1.667202	0.724095	-0.060329
F289	F	1.111744	-0.700108	0.113726
F290	F	1.445077	-0.366775	0.447059
F291	F	1.778411	-0.033441	0.780393
H292	H	0.957697	0.029316	-0.557742
H293	H	1.291030	0.362650	-0.224408
H294	H	1.624363	0.695983	0.108925
H295	H	1.014734	0.066800	-0.265159
H296	H	1.348067	0.400134	0.068175
H297	H	1.681401	0.733467	0.401508
F298	F	1.111663	-0.700142	-0.113701
F299	F	1.444997	-0.366808	0.219633
F300	F	1.778330	-0.033475	0.552966
H301	H	1.279189	0.240209	-0.557641
H302	H	1.612523	0.573542	-0.224308
H303	H	1.945856	0.906876	0.109025
H304	H	1.222099	0.202749	-0.850267
H305	H	1.555432	0.536082	-0.516933
H306	H	1.888766	0.869415	-0.183600
F307	F	1.236373	0.212119	-0.726911
F308	F	1.569706	0.545452	-0.393578
F309	F	1.903040	0.878785	-0.060244
F310	F	1.117062	-0.426610	-0.168805
F311	F	1.450396	-0.093277	0.164528
F312	F	1.783729	0.240056	0.497861
H313	H	1.119361	-0.311310	-0.155034
H314	H	1.452695	0.022024	0.178300
H315	H	1.786028	0.355357	0.511633
F316	F	1.122617	-0.153097	-0.113737
F317	F	1.455950	0.180237	0.219596
F318	F	1.789284	0.513570	0.552929
H319	H	1.124928	-0.037775	-0.099966
H320	H	1.458261	0.295559	0.233367
H321	H	1.791595	0.628892	0.566700
F322	F	1.000543	0.057438	-0.858279
F323	F	1.333876	0.390771	-0.524945
F324	F	1.667209	0.724105	-0.191612
H325	H	1.221984	0.202751	-0.149693
H326	H	1.555317	0.536084	0.183640
H327	H	1.888650	0.869417	0.516974
F328	F	1.236308	0.212114	-0.273020
F329	F	1.569642	0.545448	0.060313
F330	F	1.902975	0.878781	0.393646
