data_functionalizedCrystal
_audit_creation_method	'MofGen! by Chris Wilmer'
_symmetry_space_group_name_H-M	'P1'
_symmetry_Int_Tables_number	1
_symmetry_cell_setting	triclinic
loop_
_symmetry_equiv_pos_as_xyz
  x,y,z
_cell_length_a	14.044220
_cell_length_b	14.044220
_cell_length_c	12.503552
_cell_angle_alpha	93.839891
_cell_angle_beta	93.839943
_cell_angle_gamma	86.811122
loop_
_atom_site_label
_atom_site_type_symbol
_atom_site_fract_x
_atom_site_fract_y
_atom_site_fract_z
O1	O	0.225121	-1.282207	-0.089210
O2	O	0.558454	-0.948873	0.244123
O3	O	0.891788	-0.615540	0.577456
O4	O	0.216814	-1.005537	-0.089237
O5	O	0.550147	-0.672204	0.244096
O6	O	0.883480	-0.338870	0.577429
O7	O	0.082632	-1.139718	-0.089214
O8	O	0.415966	-0.806385	0.244120
O9	O	0.749299	-0.473052	0.577453
O10	O	0.359303	-1.148025	-0.089234
O11	O	0.692636	-0.814692	0.244099
O12	O	1.025969	-0.481359	0.577433
O13	O	0.092732	-1.129615	0.089427
O14	O	0.426065	-0.796282	0.422760
O15	O	0.759399	-0.462949	0.756094
O16	O	0.226914	-0.995434	0.089403
O17	O	0.560247	-0.662100	0.422737
O18	O	0.893580	-0.328767	0.756070
O19	O	0.235221	-1.272104	0.089430
O20	O	0.568554	-0.938770	0.422764
O21	O	0.901888	-0.605437	0.756097
Cu22	Cu	0.231989	-1.132846	0.105728
Cu23	Cu	0.565323	-0.799513	0.439062
Cu24	Cu	0.898656	-0.466180	0.772395
Cu25	Cu	0.220045	-1.144794	-0.105535
Cu26	Cu	0.553379	-0.811461	0.227798
Cu27	Cu	0.886712	-0.478128	0.561131
O28	O	0.369402	-1.137922	0.089407
O29	O	0.702736	-0.804589	0.422740
O30	O	1.036069	-0.471255	0.756073
C31	C	0.218228	-0.964864	0.000080
C32	C	0.551561	-0.631530	0.333413
C33	C	0.884895	-0.298197	0.666746
C34	C	0.207383	-0.858721	0.000070
C35	C	0.540716	-0.525388	0.333403
C36	C	0.874049	-0.192055	0.666736
C37	C	0.052060	-1.131031	0.000107
C38	C	0.385394	-0.797698	0.333440
C39	C	0.718727	-0.464365	0.666773
C40	C	-0.054082	-1.120187	0.000107
C41	C	0.279251	-0.786853	0.333440
C42	C	0.612584	-0.453520	0.666774
C43	C	0.233807	-1.312777	0.000111
C44	C	0.567140	-0.979444	0.333444
C45	C	0.900473	-0.646110	0.666778
C46	C	0.244651	-1.418920	0.000114
C47	C	0.577985	-1.085586	0.333447
C48	C	0.911318	-0.752253	0.666781
C49	C	-0.248421	-1.100361	0.000090
C50	C	0.084912	-0.767028	0.333423
C51	C	0.418246	-0.433695	0.666756
C52	C	-0.299551	-1.177275	0.000094
C53	C	0.033783	-0.843942	0.333427
C54	C	0.367116	-0.510609	0.666761
C55	C	-0.407687	-1.166244	0.000084
C56	C	-0.074354	-0.832911	0.333418
C57	C	0.258979	-0.499578	0.666751
C58	C	-0.140274	-1.111391	0.000099
C59	C	0.193059	-0.778058	0.333433
C60	C	0.526392	-0.444724	0.666766
C61	C	0.399974	-1.146609	0.000084
C62	C	0.733308	-0.813276	0.333417
C63	C	1.066641	-0.479943	0.666751
C64	C	0.506117	-1.157454	0.000077
C65	C	0.839450	-0.824121	0.333410
C66	C	1.172783	-0.490788	0.666743
N67	N	0.240390	-1.124449	0.254319
N68	N	0.573724	-0.791116	0.587653
N69	N	0.907057	-0.457783	0.920986
C70	C	0.187558	-0.664382	0.000092
C71	C	0.520891	-0.331049	0.333426
C72	C	0.854224	0.002284	0.666759
C73	C	0.264472	-0.613253	0.000091
C74	C	0.597805	-0.279919	0.333425
C75	C	0.931139	0.053414	0.666758
C76	C	0.253441	-0.505116	0.000104
C77	C	0.586775	-0.171782	0.333437
C78	C	0.920108	0.161551	0.666771
C79	C	0.198587	-0.772529	0.000080
C80	C	0.531921	-0.439196	0.333413
C81	C	0.865254	-0.105863	0.666746
N82	N	0.211637	-1.153198	-0.254126
N83	N	0.544971	-0.819865	0.079207
N84	N	0.878304	-0.486531	0.412540
C85	C	0.199276	-1.165545	0.526760
C86	C	0.532609	-0.832211	0.860093
C87	C	0.865942	-0.498878	1.193426
C88	C	0.252749	-1.112106	0.473426
C89	C	0.586082	-0.778772	0.806760
C90	C	0.919416	-0.445439	1.140093
C91	C	0.245871	-1.118975	0.351504
C92	C	0.579204	-0.785642	0.684837
C93	C	0.912538	-0.452309	1.018171
C94	C	0.206153	-1.158676	0.648693
C95	C	0.539486	-0.825343	0.982027
C96	C	0.872820	-0.492009	1.315360
H97	H	-0.262115	-1.251413	0.000029
H98	H	0.071218	-0.918079	0.333362
H99	H	0.404551	-0.584746	0.666696
H100	H	0.303695	-1.061196	0.519333
H101	H	0.637029	-0.727863	0.852666
H102	H	0.970362	-0.394529	1.186000
N103	N	0.362674	-0.662830	0.000053
N104	N	0.696008	-0.329497	0.333387
N105	N	1.029341	0.003837	0.666720
H106	H	0.402292	-0.640041	0.066268
H107	H	0.735626	-0.306708	0.399601
H108	H	1.068959	0.026626	0.732935
H109	H	0.356664	-0.734161	-0.000001
H110	H	0.689997	-0.400828	0.333333
H111	H	1.023330	-0.067494	0.666666
N112	N	-0.298004	-1.002168	0.000079
N113	N	0.035330	-0.668834	0.333412
N114	N	0.368663	-0.335501	0.666745
H115	H	-0.369344	-1.008108	0.000077
H116	H	-0.036010	-0.674775	0.333410
H117	H	0.297323	-0.341442	0.666743
H118	H	-0.275136	-0.962615	0.066305
H119	H	0.058198	-0.629282	0.399638
H120	H	0.391531	-0.295949	0.732972
N121	N	0.089365	-0.614799	0.000112
N122	N	0.422698	-0.281466	0.333446
N123	N	0.756031	0.051867	0.666779
H124	H	0.095305	-0.543459	0.000120
H125	H	0.428639	-0.210126	0.333453
H126	H	0.761972	0.123208	0.666786
H127	H	0.049807	-0.637663	-0.066112
H128	H	0.383140	-0.304329	0.267221
H129	H	0.716474	0.029004	0.600554
H130	H	0.148334	-1.216452	0.480859
H131	H	0.481668	-0.883119	0.814192
H132	H	0.815001	-0.549786	1.147525
