data_functionalizedCrystal
_audit_creation_method	'MofGen! by Chris Wilmer'
_symmetry_space_group_name_H-M	'P1'
_symmetry_Int_Tables_number	1
_symmetry_cell_setting	triclinic
loop_
_symmetry_equiv_pos_as_xyz
  x,y,z
_cell_length_a	12.827893
_cell_length_b	12.827892
_cell_length_c	12.759393
_cell_angle_alpha	90.029972
_cell_angle_beta	90.020760
_cell_angle_gamma	90.015362
loop_
_atom_site_label
_atom_site_type_symbol
_atom_site_fract_x
_atom_site_fract_y
_atom_site_fract_z
Zn1	Zn	1.597685	-0.415983	0.594019
Zn2	Zn	2.097685	0.084017	1.094019
Zn3	Zn	1.597575	-0.590761	0.418341
Zn4	Zn	2.097575	-0.090761	0.918341
Zn5	Zn	1.422922	-0.416034	0.418355
Zn6	Zn	1.922922	0.083966	0.918355
Zn7	Zn	1.422912	-0.590683	0.593978
Zn8	Zn	1.922912	-0.090683	1.093978
O9	O	1.510273	-0.503365	0.506173
O10	O	2.010273	-0.003365	1.006173
O11	O	1.743906	-0.439179	0.570726
O12	O	2.243906	0.060821	1.070726
O13	O	1.574365	-0.567637	0.271321
O14	O	2.074365	-0.067637	0.771321
O15	O	1.446155	-0.269791	0.441680
O16	O	1.946155	0.230209	0.941680
O17	O	1.743825	-0.567587	0.441656
O18	O	2.243825	-0.067587	0.941656
O19	O	1.574553	-0.269754	0.570740
O20	O	2.074553	0.230246	1.070740
O21	O	1.446048	-0.439266	0.271332
O22	O	1.946048	0.060734	0.771332
O23	O	1.276684	-0.439190	0.441640
O24	O	1.776684	0.060810	0.941640
O25	O	1.446138	-0.567455	0.741005
O26	O	1.946138	-0.067455	1.241005
O27	O	1.276677	-0.567504	0.570670
O28	O	1.776677	-0.067504	1.070670
O29	O	1.574543	-0.439104	0.741035
O30	O	2.074543	0.060896	1.241035
O31	O	1.574355	-0.736986	0.441617
O32	O	2.074355	-0.236986	0.941617
O33	O	1.446031	-0.736929	0.570657
O34	O	1.946031	-0.236929	1.070657
C35	C	1.238763	-0.503345	0.506153
C36	C	1.738763	-0.003345	1.006153
C37	C	1.122610	-0.503362	0.506170
C38	C	1.622610	-0.003362	1.006170
C39	C	0.950757	-0.439802	0.442453
C40	C	1.450757	0.060198	0.942453
C41	C	1.070808	-0.439784	0.442435
C42	C	1.570808	0.060216	0.942435
C43	C	1.510208	-0.774875	0.506154
C44	C	2.010208	-0.274875	1.006154
C45	C	1.510276	-0.891028	0.506181
C46	C	2.010276	-0.391028	1.006181
C47	C	1.573782	-0.942711	0.570101
C48	C	2.073782	-0.442711	1.070101
C49	C	1.573854	-1.062761	0.570130
C50	C	2.073854	-0.562761	1.070130
C51	C	1.782843	-0.503386	0.506194
C52	C	2.282843	-0.003386	1.006194
C53	C	1.898996	-0.503395	0.506203
C54	C	2.398996	-0.003395	1.006203
C55	C	1.510351	-0.503265	0.780207
C56	C	2.010351	-0.003265	1.280207
C57	C	1.510385	-0.503222	0.896983
C58	C	2.010385	-0.003222	1.396983
C59	C	1.510367	-0.230795	0.506216
C60	C	2.010367	0.269205	1.006216
C61	C	1.510407	-0.114642	0.506234
C62	C	2.010407	0.385358	1.006234
C63	C	1.510255	-0.503390	0.233206
C64	C	2.010255	-0.003390	0.733206
C65	C	1.510425	-0.503138	0.116430
C66	C	2.010425	-0.003138	0.616430
C67	C	1.577250	-0.436379	0.951863
C68	C	2.077250	0.063621	1.451863
C69	C	1.577268	-0.436334	1.061587
C70	C	2.077268	0.063666	1.561587
C71	C	1.443552	-0.569984	1.061543
C72	C	1.943552	-0.069984	1.561543
C73	C	1.443529	-0.570023	0.951821
C74	C	1.943529	-0.070023	1.451821
H75	H	1.078104	-0.557812	0.560748
H76	H	1.578104	-0.057812	1.060748
Cl77	Cl	1.657809	-1.131377	0.654619
Cl78	Cl	2.157809	-0.631377	1.154619
H79	H	1.115321	-0.385343	0.387852
H80	H	1.615321	0.114657	0.887852
Cl81	Cl	1.426403	-0.959923	0.421725
Cl82	Cl	1.926403	-0.459923	0.921725
Cl83	Cl	0.967788	-0.587430	0.590457
Cl84	Cl	1.467788	-0.087430	1.090457
H85	H	0.906195	-0.385368	0.387892
H86	H	1.406195	0.114632	0.887892
Cl87	Cl	1.657638	-0.873816	0.654574
Cl88	Cl	2.157638	-0.373816	1.154574
Cl89	Cl	1.661292	-0.352397	0.882928
Cl90	Cl	2.161292	0.147603	1.382928
Cl91	Cl	1.661341	-0.352308	1.130573
Cl92	Cl	2.161341	0.147692	1.630573
Cl93	Cl	1.426461	-1.046033	0.421730
Cl94	Cl	1.926461	-0.546033	0.921730
H95	H	1.389123	-0.624373	1.106205
H96	H	1.889123	-0.124373	1.606205
Cl97	Cl	1.359457	-0.654056	0.882824
Cl98	Cl	1.859457	-0.154056	1.382824
