data_functionalizedCrystal
_audit_creation_method	'MofGen! by Chris Wilmer'
_symmetry_space_group_name_H-M	'P1'
_symmetry_Int_Tables_number	1
_symmetry_cell_setting	triclinic
loop_
_symmetry_equiv_pos_as_xyz
  x,y,z
_cell_length_a	19.805407
_cell_length_b	12.759399
_cell_length_c	19.805399
_cell_angle_alpha	90.022080
_cell_angle_beta	90.020409
_cell_angle_gamma	90.017686
loop_
_atom_site_label
_atom_site_type_symbol
_atom_site_fract_x
_atom_site_fract_y
_atom_site_fract_z
Zn1	Zn	1.034786	-0.418236	0.382761
Zn2	Zn	1.534786	0.081764	0.882761
Zn3	Zn	1.034722	-0.593930	0.269583
Zn4	Zn	1.534722	-0.093930	0.769583
Zn5	Zn	0.921601	-0.418271	0.269584
Zn6	Zn	1.421601	0.081729	0.769584
Zn7	Zn	0.921585	-0.593880	0.382728
Zn8	Zn	1.421585	-0.093880	0.882728
O9	O	0.978173	-0.506079	0.326164
O10	O	1.478173	-0.006079	0.826164
O11	O	1.129494	-0.441549	0.367761
O12	O	1.629494	0.058451	0.867761
O13	O	1.019696	-0.570664	0.174867
O14	O	1.519696	-0.070664	0.674867
O15	O	0.936648	-0.271245	0.284610
O16	O	1.436648	0.228755	0.784610
O17	O	1.129447	-0.570630	0.284610
O18	O	1.629447	-0.070630	0.784610
O19	O	1.019805	-0.271220	0.367761
O20	O	1.519805	0.228780	0.867761
O21	O	0.936586	-0.441608	0.174867
O22	O	1.436586	0.058392	0.674867
O23	O	0.826882	-0.441560	0.284579
O24	O	1.326882	0.058440	0.784579
O25	O	0.936622	-0.570545	0.477449
O26	O	1.436622	-0.070545	0.977449
O27	O	0.826871	-0.570579	0.367706
O28	O	1.326871	-0.070579	0.867706
O29	O	1.019790	-0.441500	0.477473
O30	O	1.519790	0.058500	0.977473
O31	O	1.019681	-0.740944	0.284579
O32	O	1.519681	-0.240944	0.784579
O33	O	0.936560	-0.740907	0.367706
O34	O	1.436560	-0.240907	0.867706
C35	C	0.802317	-0.506068	0.326140
C36	C	1.302317	-0.006068	0.826140
C37	C	0.727085	-0.506089	0.326145
C38	C	1.227085	-0.006089	0.826145
C39	C	0.265322	-0.438992	0.369553
C40	C	0.765322	0.061008	0.869553
C41	C	0.336011	-0.438994	0.369548
C42	C	0.836011	0.061006	0.869548
C43	C	0.371324	-0.506095	0.326186
C44	C	0.871324	-0.006095	0.826186
C45	C	0.335944	-0.573206	0.282830
C46	C	0.835944	-0.073206	0.782830
C47	C	0.265257	-0.573209	0.282839
C48	C	0.765257	-0.073209	0.782839
C49	C	0.621018	-0.573198	0.282794
C50	C	1.121018	-0.073198	0.782794
C51	C	0.691710	-0.573188	0.282788
C52	C	1.191710	-0.073188	0.782788
C53	C	0.691771	-0.438984	0.369504
C54	C	1.191771	0.061016	0.869504
C55	C	0.621084	-0.438986	0.369512
C56	C	1.121084	0.061014	0.869512
C57	C	0.585711	-0.506100	0.326160
C58	C	1.085711	-0.006100	0.826160
C59	C	0.509063	-0.506099	0.326166
C60	C	1.009063	-0.006099	0.826166
C61	C	0.447971	-0.506092	0.326175
C62	C	0.947971	-0.006092	0.826175
C63	C	0.978130	-0.779047	0.326153
C64	C	1.478130	-0.279047	0.826153
C65	C	0.978173	-0.895823	0.326172
C66	C	1.478173	-0.395823	0.826172
C67	C	0.934886	-0.950704	0.369424
C68	C	1.434886	-0.450704	0.869424
C69	C	0.934928	-1.060428	0.369437
C70	C	1.434928	-0.560428	0.869437
C71	C	1.021551	-1.060380	0.282943
C72	C	1.521551	-0.560380	0.782943
C73	C	1.021505	-0.950658	0.282927
C74	C	1.521505	-0.450658	0.782927
C75	C	0.855152	-1.210475	0.393568
C76	C	1.355152	-0.710475	0.893568
C77	C	0.811871	-1.265360	0.436831
C78	C	1.311871	-0.765360	0.936831
C79	C	0.801425	-1.229702	0.502860
C80	C	1.301425	-0.729702	1.002860
C81	C	0.834272	-1.139161	0.525639
C82	C	1.334272	-0.639161	1.025639
C83	C	0.877558	-1.084282	0.482379
C84	C	1.377558	-0.584282	0.982379
C85	C	0.887991	-1.119938	0.416340
C86	C	1.387991	-0.619938	0.916340
C87	C	1.101282	-0.800610	0.258804
C88	C	1.601282	-0.300610	0.758804
C89	C	1.144572	-0.745729	0.215547
C90	C	1.644572	-0.245729	0.715547
C91	C	1.155024	-0.781384	0.149517
C92	C	1.655024	-0.281384	0.649517
C93	C	1.122190	-0.871928	0.126740
C94	C	1.622190	-0.371928	0.626740
C95	C	1.078899	-0.926810	0.169997
C96	C	1.578899	-0.426810	0.669997
C97	C	1.068446	-0.891146	0.236027
C98	C	1.568446	-0.391146	0.736027
C99	C	1.154716	-0.506091	0.326189
C100	C	1.654716	-0.006091	0.826189
C101	C	1.229948	-0.506096	0.326200
C102	C	1.729948	-0.006096	0.826200
C103	C	0.978211	-0.506013	0.502707
C104	C	1.478211	-0.006013	1.002707
C105	C	0.978227	-0.505985	0.577939
C106	C	1.478227	-0.005985	1.077939
C107	C	0.978235	-0.232046	0.326189
C108	C	1.478235	0.267954	0.826189
C109	C	0.978262	-0.115269	0.326200
C110	C	1.478262	0.384731	0.826200
C111	C	0.978174	-0.506069	0.150308
C112	C	1.478174	-0.006069	0.650308
C113	C	0.978289	-0.505801	0.075076
C114	C	1.478289	-0.005801	0.575076
C115	C	1.021534	-0.438788	0.613296
C116	C	1.521534	0.061212	1.113296
C117	C	1.021541	-0.438758	0.683985
C118	C	1.521541	0.061242	1.183985
C119	C	0.978244	-0.505930	0.719314
C120	C	1.478244	-0.005930	1.219314
C121	C	0.934933	-0.573130	0.683952
C122	C	1.434933	-0.073130	1.183952
C123	C	0.934923	-0.573154	0.613265
C124	C	1.434923	-0.073154	1.113265
C125	C	0.934971	-0.573032	0.969025
C126	C	1.434971	-0.073032	1.469025
C127	C	0.934986	-0.573004	1.039717
C128	C	1.434986	-0.073004	1.539717
C129	C	1.021589	-0.438635	1.039745
C130	C	1.521589	0.061365	1.539745
C131	C	1.021579	-0.438660	0.969058
C132	C	1.521579	0.061340	1.469058
C133	C	0.978266	-0.505855	0.933702
C134	C	1.478266	-0.005855	1.433702
C135	C	0.978258	-0.505886	0.857053
C136	C	1.478258	-0.005886	1.357053
C137	C	0.978255	-0.505905	0.795962
C138	C	1.478255	-0.005905	1.295962
H139	H	0.236456	-0.627853	0.247537
H140	H	0.736456	-0.127853	0.747537
H141	H	1.056855	-0.383918	1.068541
H142	H	1.556855	0.116082	1.568541
H143	H	0.364702	-0.627845	0.247526
H144	H	0.864702	-0.127845	0.747526
Cl145	Cl	0.220936	-0.354626	0.424066
Cl146	Cl	0.720936	0.145374	0.924066
H147	H	0.899651	-0.627862	0.584477
H148	H	1.399651	-0.127862	1.084477
Cl149	Cl	0.880550	-0.657455	1.084131
Cl150	Cl	1.380550	-0.157455	1.584131
Cl151	Cl	0.868262	-1.255290	0.310549
Cl152	Cl	1.368262	-0.755290	0.810549
Cl153	Cl	1.076014	-0.354214	0.924648
Cl154	Cl	1.576014	0.145786	1.424648
H155	H	1.052165	-1.000537	0.151448
H156	H	1.552165	-0.500537	0.651448
Cl157	Cl	0.380478	-0.354637	0.424056
Cl158	Cl	0.880478	0.145363	0.924056
Cl159	Cl	0.880500	-0.657572	0.728366
Cl160	Cl	1.380500	-0.157572	1.228366
H161	H	1.130704	-0.900964	0.072975
H162	H	1.630704	-0.400964	0.572975
H163	H	0.592336	-0.384342	0.404820
H164	H	1.092336	0.115658	0.904820
Cl165	Cl	0.880409	-0.881772	0.423786
Cl166	Cl	1.380409	-0.381772	0.923786
H167	H	0.720580	-0.384339	0.404806
H168	H	1.220580	0.115661	0.904806
Cl169	Cl	0.821148	-1.094350	0.608655
Cl170	Cl	1.321148	-0.594350	1.108655
Cl171	Cl	0.918849	-0.970467	0.511008
Cl172	Cl	1.418849	-0.470467	1.011008
H173	H	0.720459	-0.627834	0.247475
H174	H	1.220459	-0.127834	0.747475
H175	H	1.190277	-0.736691	0.114298
H176	H	1.690277	-0.236691	0.614298
H177	H	1.056807	-0.384042	0.712770
H178	H	1.556807	0.115958	1.212770
H179	H	0.766184	-1.274397	0.538085
H180	H	1.266184	-0.774397	1.038085
H181	H	1.092763	-0.771558	0.312567
H182	H	1.592763	-0.271558	0.812567
Cl183	Cl	1.185855	-0.631905	0.244183
Cl184	Cl	1.685855	-0.131905	0.744183
H185	H	0.899712	-0.627762	0.940247
H186	H	1.399712	-0.127762	1.440247
H187	H	0.592225	-0.627844	0.247492
H188	H	1.092225	-0.127844	0.747492
Cl189	Cl	1.075971	-0.354343	0.568889
Cl190	Cl	1.575971	0.145657	1.068889
Cl191	Cl	1.076029	-1.129324	0.228587
Cl192	Cl	1.576029	-0.629324	0.728587
H193	H	0.785127	-1.339078	0.418278
H194	H	1.285127	-0.839078	0.918278
