data_functionalizedCrystal
_audit_creation_method	'MofGen! by Chris Wilmer'
_symmetry_space_group_name_H-M	'P1'
_symmetry_Int_Tables_number	1
_symmetry_cell_setting	triclinic
loop_
_symmetry_equiv_pos_as_xyz
  x,y,z
_cell_length_a	17.699083
_cell_length_b	9.730223
_cell_length_c	17.699083
_cell_angle_alpha	90.002214
_cell_angle_beta	83.283015
_cell_angle_gamma	89.994169
loop_
_atom_site_label
_atom_site_type_symbol
_atom_site_fract_x
_atom_site_fract_y
_atom_site_fract_z
O1	O	1.004071	0.114100	0.095708
O2	O	0.783693	0.114145	0.108160
O3	O	0.900109	0.114109	-0.008255
O4	O	0.887656	0.114136	0.212123
O5	O	0.900107	-0.114471	-0.008252
O6	O	0.783692	-0.114435	0.108163
O7	O	1.004070	-0.114480	0.095711
Zn8	Zn	0.893881	-0.150749	0.101938
Zn9	Zn	0.893882	0.150415	0.101934
O10	O	0.887655	-0.114444	0.212126
C11	C	0.755495	-0.000139	0.107716
C12	C	0.671477	-0.000122	0.106377
N13	N	0.893885	-0.356286	0.101940
C14	C	0.622856	-0.000114	0.174710
C15	C	0.543913	-0.000132	0.173448
C16	C	0.513592	-0.000148	0.103852
C17	C	0.562219	-0.000160	0.035513
C18	C	0.641161	-0.000152	0.036776
C19	C	0.243856	-0.000195	0.030418
C20	C	0.164908	-0.000199	0.029160
C21	C	0.146608	-0.000175	0.167090
C22	C	0.225550	-0.000167	0.168353
C23	C	0.274170	-0.000186	0.100015
C24	C	0.359769	-0.000169	0.101384
C25	C	0.427995	-0.000155	0.102481
C26	C	0.945447	-0.428228	0.050408
C27	C	0.945445	-0.572111	0.050399
C28	C	0.842317	-0.572097	0.153459
C29	C	0.842316	-0.428217	0.153464
C30	C	0.997016	-0.356297	-0.001116
C31	C	1.048583	-0.428239	-0.052652
C32	C	1.048581	-0.572122	-0.052661
C33	C	0.997012	-0.644063	-0.001135
C34	C	1.032268	-0.000193	0.096156
C35	C	1.116286	-0.000201	0.097494
C36	C	0.899662	-0.000181	-0.036451
C37	C	0.898323	-0.000181	-0.120469
N38	N	0.893884	0.355951	0.101926
C39	C	0.966656	-0.000197	-0.169090
C40	C	0.965394	-0.000185	-0.248033
C41	C	0.895798	-0.000166	-0.278354
C42	C	0.827459	-0.000146	-0.229727
C43	C	0.828722	-0.000149	-0.150785
C44	C	0.822364	-0.000134	-0.548090
C45	C	0.821106	-0.000135	-0.627038
C46	C	0.959036	-0.000170	-0.645338
C47	C	0.960299	-0.000173	-0.566396
C48	C	0.891961	-0.000145	-0.517776
C49	C	0.893330	-0.000156	-0.432177
C50	C	0.894427	-0.000165	-0.363951
C51	C	0.888102	-0.000151	0.240322
C52	C	0.889440	-0.000142	0.324340
H53	H	0.647537	-0.000100	0.231384
C54	C	0.997005	-0.802331	-0.001146
H55	H	0.958908	-0.834868	0.036919
H56	H	1.045355	-0.834898	0.009149
H57	H	0.986733	-0.834866	-0.049513
C58	C	0.750904	-0.000129	-0.263077
H59	H	0.759938	-0.000146	-0.317056
H60	H	0.722773	0.079586	-0.246379
H61	H	0.722777	-0.079846	-0.246380
H62	H	1.021038	-0.000201	-0.287618
C63	C	0.744546	-0.000097	-0.660389
H64	H	0.704027	-0.000065	-0.620127
H65	H	0.741181	-0.079804	-0.690806
H66	H	0.741198	0.079628	-0.690802
C67	C	0.297328	-0.000206	-0.044751
H68	H	0.267962	-0.000202	-0.086379
H69	H	0.328510	-0.079916	-0.047127
H70	H	0.328498	0.079516	-0.047129
H71	H	1.090564	-0.369657	-0.094607
H72	H	0.107012	-0.000166	0.222734
H73	H	0.773078	-0.000135	-0.111198
C74	C	0.131557	-0.000230	-0.047400
H75	H	0.171819	-0.000254	-0.087919
H76	H	0.101136	0.079477	-0.050764
H77	H	0.101148	-0.079955	-0.050749
H78	H	0.504328	-0.000124	0.229092
C79	C	0.258903	-0.000145	0.244907
H80	H	0.312881	-0.000129	0.235871
H81	H	0.242213	-0.079851	0.273040
H82	H	0.242198	0.079581	0.273033
C83	C	0.528869	-0.000175	-0.041041
H84	H	0.474890	-0.000164	-0.032008
H85	H	0.545572	-0.079888	-0.069172
H86	H	0.545562	0.079544	-0.069170
H87	H	0.680748	-0.000158	-0.018868
H88	H	0.800333	-0.630680	0.195411
H89	H	0.800329	-0.369641	0.195425
H90	H	1.023330	-0.000221	-0.144409
C91	C	1.036854	-0.000187	-0.533047
H92	H	1.077372	-0.000181	-0.573311
H93	H	1.040216	-0.079896	-0.502632
H94	H	1.040210	0.079536	-0.502632
H95	H	1.014680	-0.000185	-0.684934
C96	C	0.997019	-0.198031	-0.001104
H97	H	0.958928	-0.165486	0.036970
H98	H	0.986760	-0.165465	-0.049465
H99	H	1.045373	-0.165504	0.009208
C100	C	0.747195	-0.000128	-0.494618
H101	H	0.705567	-0.000135	-0.523984
H102	H	0.744813	0.079580	-0.463437
H103	H	0.744823	-0.079852	-0.463447
C104	C	1.105299	-0.651255	-0.109347
H105	H	1.136012	-0.587805	-0.140026
H106	H	1.078138	-0.707376	-0.140825
H107	H	1.136752	-0.707389	-0.082154
