data_functionalizedCrystal
_audit_creation_method	'MofGen! by Chris Wilmer'
_symmetry_space_group_name_H-M	'P1'
_symmetry_Int_Tables_number	1
_symmetry_cell_setting	triclinic
loop_
_symmetry_equiv_pos_as_xyz
  x,y,z
_cell_length_a	19.188925
_cell_length_b	23.532357
_cell_length_c	18.266242
_cell_angle_alpha	89.988103
_cell_angle_beta	89.990012
_cell_angle_gamma	82.985420
loop_
_atom_site_label
_atom_site_type_symbol
_atom_site_fract_x
_atom_site_fract_y
_atom_site_fract_z
O1	O	0.925909	0.071089	-0.060906
O2	O	1.425909	0.571089	0.439094
O3	O	0.722565	0.080664	-0.060905
O4	O	1.222565	0.580664	0.439095
O5	O	0.830387	-0.007044	-0.060890
O6	O	1.330387	0.492956	0.439110
O7	O	0.818087	0.158797	-0.060920
O8	O	1.318087	0.658797	0.439080
O9	O	0.830369	-0.007049	0.060872
O10	O	1.330369	0.492951	0.560872
O11	O	0.722547	0.080659	0.060857
O12	O	1.222547	0.580659	0.560857
O13	O	0.925891	0.071084	0.060856
O14	O	1.425891	0.571084	0.560856
Zn15	Zn	0.824216	0.075871	0.080189
Zn16	Zn	1.324216	0.575871	0.580189
Zn17	Zn	0.824240	0.075877	-0.080237
Zn18	Zn	1.324240	0.575877	0.419763
O19	O	0.818069	0.158793	0.060842
O20	O	1.318069	0.658793	0.560842
C21	C	0.696546	0.080352	-0.000023
C22	C	1.196546	0.580352	0.499977
C23	C	0.619044	0.079423	-0.000022
C24	C	1.119044	0.579423	0.499978
C25	C	0.057119	0.124665	-0.000032
C26	C	0.557119	0.624665	0.499968
C27	C	0.129940	0.125543	-0.000036
C28	C	0.629940	0.625543	0.499964
C29	C	0.175050	0.074079	-0.000026
C30	C	0.675050	0.574079	0.499974
C31	C	0.147334	0.021732	-0.000030
C32	C	0.647334	0.521732	0.499970
C33	C	0.074515	0.020856	-0.000033
C34	C	0.574515	0.520856	0.499967
N35	N	0.295848	0.036819	0.041430
N36	N	0.795848	0.536819	0.541430
N37	N	0.365022	0.037655	0.041434
N38	N	0.865022	0.537655	0.541434
C39	C	0.394450	0.076717	-0.000018
C40	C	0.894450	0.576717	0.499982
N41	N	0.352088	0.114919	-0.041465
N42	N	0.852088	0.614919	0.458535
N43	N	0.282907	0.114084	-0.041466
N44	N	0.782907	0.614084	0.458534
C45	C	0.254011	0.075023	-0.000023
C46	C	0.754011	0.575023	0.499977
C47	C	0.501117	0.130012	-0.000023
C48	C	1.001117	0.630012	0.499977
C49	C	0.573939	0.130888	-0.000032
C50	C	1.073939	0.630888	0.499968
C51	C	0.591332	0.027075	-0.000018
C52	C	1.091332	0.527075	0.499982
C53	C	0.518512	0.026201	-0.000017
C54	C	1.018512	0.526201	0.499983
C55	C	0.473408	0.077671	-0.000016
C56	C	0.973408	0.577671	0.499984
C57	C	0.830070	-0.028264	-0.000007
C58	C	1.330070	0.471736	0.499993
C59	C	0.829145	-0.091484	0.000000
C60	C	1.329145	0.408516	0.500000
C61	C	0.823348	-0.483506	-0.066412
C62	C	1.323348	0.016494	0.433588
C63	C	0.822469	-0.542907	-0.066416
C64	C	1.322469	-0.042907	0.433584
O65	O	0.821999	-0.573622	-0.122863
O66	O	1.321999	-0.073622	0.377137
N67	N	0.822023	-0.572621	-0.000045
N68	N	1.322023	-0.072621	0.499955
C69	C	0.822449	-0.542931	0.066336
C70	C	1.322449	-0.042931	0.566336
O71	O	0.821988	-0.573660	0.122789
O72	O	1.321988	-0.073660	0.622789
C73	C	0.823323	-0.483530	0.066339
C74	C	1.323323	0.016470	0.566339
C75	C	0.823776	-0.453819	-0.000037
C76	C	1.323776	0.046181	0.499963
C77	C	0.823800	-0.453795	-0.132782
C78	C	1.323800	0.046205	0.367218
C79	C	0.824681	-0.394398	-0.132778
C80	C	1.324681	0.105602	0.367222
C81	C	0.825109	-0.364711	-0.066403
C82	C	1.325109	0.135289	0.433597
C83	C	0.824657	-0.394422	-0.000033
C84	C	1.324657	0.105578	0.499967
C85	C	0.823745	-0.453840	0.132718
C86	C	1.323745	0.046160	0.632718
C87	C	0.824618	-0.394435	0.132716
C88	C	1.324618	0.105565	0.632716
C89	C	0.825071	-0.364724	0.066340
C90	C	1.325071	0.135276	0.566340
C91	C	0.825966	-0.305339	0.066347
C92	C	1.325966	0.194661	0.566347
N93	N	0.826412	-0.275624	-0.000025
N94	N	1.326412	0.224376	0.499975
C95	C	0.825983	-0.305311	-0.066400
C96	C	1.325983	0.194689	0.433600
C97	C	0.820612	-0.667676	0.066323
C98	C	1.320612	-0.167676	0.566323
C99	C	0.819743	-0.727076	0.066321
C100	C	1.319743	-0.227076	0.566321
C101	C	0.819761	-0.727048	-0.066431
C102	C	1.319761	-0.227048	0.433569
C103	C	0.820635	-0.667648	-0.066428
C104	C	1.320635	-0.167648	0.433572
C105	C	0.821058	-0.637962	-0.000048
C106	C	1.321058	-0.137962	0.499952
C107	C	0.827833	-0.180573	-0.066385
C108	C	1.327833	0.319427	0.433615
C109	C	0.828717	-0.121171	-0.066375
C110	C	1.328717	0.378829	0.433625
C111	C	0.828695	-0.121204	0.066377
C112	C	1.328695	0.378796	0.566377
C113	C	0.827815	-0.180601	0.066367
C114	C	1.327815	0.319399	0.566367
C115	C	0.827382	-0.210284	-0.000020
C116	C	1.327382	0.289716	0.499980
O117	O	0.826434	-0.274586	0.122765
O118	O	1.326434	0.225414	0.622765
O119	O	0.826435	-0.274574	-0.122844
O120	O	1.326435	0.225426	0.377156
C121	C	0.951910	0.071396	-0.000026
C122	C	1.451910	0.571396	0.499974
C123	C	1.029412	0.072325	-0.000032
C124	C	1.529412	0.572325	0.499968
C125	C	0.818385	0.180012	-0.000043
C126	C	1.318385	0.680012	0.499957
C127	C	0.819310	0.243233	-0.000055
C128	C	1.319310	0.743233	0.499945
N129	N	0.824205	0.075867	0.189676
N130	N	1.324205	0.575867	0.689676
N131	N	0.824257	0.075877	-0.189724
N132	N	1.324257	0.575877	0.310276
C133	C	0.871964	0.037049	0.227991
C134	C	1.371964	0.537049	0.727991
C135	C	0.871968	0.037046	0.304636
C136	C	1.371968	0.537046	0.804636
C137	C	0.824220	0.075871	0.342963
C138	C	1.324220	0.575871	0.842963
C139	C	0.776452	0.114692	0.304638
C140	C	1.276452	0.614692	0.804638
C141	C	0.776444	0.114690	0.227995
C142	C	1.276444	0.614690	0.727995
N143	N	0.814973	0.126288	0.463286
N144	N	1.314973	0.626288	0.963286
N145	N	0.814984	0.126288	0.536094
N146	N	1.314984	0.626288	1.036094
C147	C	0.824240	0.075879	0.573885
C148	C	1.324240	0.575879	1.073885
N149	N	0.833497	0.025469	0.536118
N150	N	1.333497	0.525469	1.036118
N151	N	0.833489	0.025469	0.463303
N152	N	1.333489	0.525469	0.963303
C153	C	0.824223	0.075878	0.426070
C154	C	1.324223	0.575878	0.926070
C155	C	0.872006	0.037055	0.695308
C156	C	1.372006	0.537055	1.195308
C157	C	0.872006	0.037052	0.771954
C158	C	1.372006	0.537052	1.271954
C159	C	0.776493	0.114703	0.771955
C160	C	1.276493	0.614703	1.271955
C161	C	0.776490	0.114702	0.695310
C162	C	1.276490	0.614702	1.195310
C163	C	0.824250	0.075878	0.656991
C164	C	1.324250	0.575878	1.156991
H165	H	0.152504	0.168165	-0.000030
H166	H	0.652504	0.668165	0.499970
H167	H	0.910895	0.005438	0.803151
H168	H	1.410895	0.505438	1.303151
H169	H	0.819384	-0.751263	0.120371
H170	H	1.319384	-0.251263	0.620371
N171	N	0.821101	-0.637311	-0.134235
N172	N	1.321101	-0.137311	0.365765
N173	N	0.820724	-0.663831	-0.193490
N174	N	1.320724	-0.163831	0.306510
H175	H	0.821052	-0.642409	-0.241383
H176	H	1.321052	-0.142409	0.258617
H177	H	0.737613	0.146313	0.803160
H178	H	1.237613	0.646313	1.303160
N179	N	0.727678	0.154359	0.343773
N180	N	1.227678	0.654359	0.843773
N181	N	0.685038	0.189017	0.309550
N182	N	1.185038	0.689017	0.809550
H183	H	0.650586	0.217032	0.337187
H184	H	1.150586	0.717032	0.837187
H185	H	0.020400	0.166576	-0.000035
H186	H	0.520400	0.666576	0.499965
N187	N	0.727710	0.154367	0.656181
N188	N	1.227710	0.654367	1.156181
N189	N	0.728289	0.207008	0.664727
N190	N	1.228289	0.707008	1.164727
H191	H	0.693834	0.235024	0.637094
H192	H	1.193834	0.735024	1.137094
N193	N	0.193420	-0.030832	-0.000009
N194	N	0.693420	0.469168	0.499991
N195	N	0.235983	-0.041925	0.051322
N196	N	0.735983	0.458075	0.551322
H197	H	0.268533	-0.079050	0.051334
H198	H	0.768533	0.420950	0.551334
N199	N	0.046221	-0.032615	-0.000036
N200	N	0.546221	0.467385	0.499964
N201	N	0.086501	-0.078564	-0.000033
N202	N	0.586501	0.421436	0.499967
H203	H	0.066518	-0.116329	-0.000035
H204	H	0.566518	0.383671	0.499965
H205	H	0.464392	0.171921	-0.000024
H206	H	0.964392	0.671921	0.499976
H207	H	0.827453	-0.204793	0.120415
H208	H	1.327453	0.295207	0.620415
N209	N	0.825131	-0.364043	-0.200574
N210	N	1.325131	0.135957	0.299426
N211	N	0.825911	-0.311008	-0.200574
N212	N	1.325911	0.188992	0.299426
H213	H	0.826226	-0.289572	-0.248458
H214	H	1.326226	0.210428	0.251542
N215	N	0.821046	-0.637364	0.134140
N216	N	1.321046	-0.137364	0.634140
N217	N	0.820647	-0.663908	0.193391
N218	N	1.320647	-0.163908	0.693391
H219	H	0.820952	-0.642503	0.241287
H220	H	1.320952	-0.142503	0.741287
H221	H	0.495952	-0.016419	-0.000012
H222	H	0.995952	0.483581	0.499988
N223	N	0.637392	-0.025500	-0.000015
N224	N	1.137392	0.474500	0.499985
N225	N	0.635089	-0.060347	-0.051338
N226	N	1.135089	0.439653	0.448662
H227	H	0.667622	-0.097481	-0.051339
H228	H	1.167622	0.402519	0.448661
N229	N	0.602232	0.184359	-0.000042
N230	N	1.102232	0.684359	0.499958
N231	N	0.561950	0.230306	-0.000045
N232	N	1.061950	0.730306	0.499955
H233	H	0.581932	0.268072	-0.000053
H234	H	1.081932	0.768072	0.499947
N235	N	0.829185	-0.090832	-0.134186
N236	N	1.329185	0.409168	0.365814
N237	N	0.828802	-0.117349	-0.193443
N238	N	1.328802	0.382651	0.306557
H239	H	0.829133	-0.095925	-0.241334
H240	H	1.329133	0.404075	0.258666
H241	H	0.827477	-0.204733	-0.120444
H242	H	1.327477	0.295267	0.379556
H243	H	0.823449	-0.477959	-0.186836
H244	H	1.323449	0.022041	0.313164
H245	H	0.819410	-0.751229	-0.120477
H246	H	1.319410	-0.251229	0.379523
H247	H	0.823377	-0.478020	0.186769
H248	H	1.323377	0.021980	0.686769
H249	H	0.829047	-0.097023	0.120417
H250	H	1.329047	0.402977	0.620417
N251	N	0.825043	-0.364121	0.200530
N252	N	1.325043	0.135879	0.700530
N253	N	0.824635	-0.390660	0.259783
N254	N	1.324635	0.109340	0.759783
H255	H	0.824935	-0.369252	0.307677
H256	H	1.324935	0.130748	0.807677
N257	N	0.920811	-0.002563	0.188862
N258	N	1.420811	0.497437	0.688862
N259	N	0.963489	-0.037189	0.223088
N260	N	1.463489	0.462811	0.723088
H261	H	0.998010	-0.065148	0.195453
H262	H	1.498010	0.434852	0.695453
H263	H	0.910861	0.005434	0.335838
H264	H	1.410861	0.505434	0.835838
N265	N	0.727651	0.154346	0.188864
N266	N	1.227651	0.654346	0.688864
N267	N	0.685016	0.189007	0.223089
N268	N	1.185016	0.689007	0.723089
H269	H	0.650555	0.217015	0.195452
H270	H	1.150555	0.717015	0.695452
N271	N	0.920707	-0.002675	0.656172
N272	N	1.420707	0.497325	1.156172
N273	N	0.963285	-0.037383	0.690396
N274	N	1.463285	0.462617	1.190396
H275	H	0.997649	-0.065470	0.662759
H276	H	1.497649	0.434530	1.162759
