data_functionalizedCrystal
_audit_creation_method	'MofGen! by Chris Wilmer'
_symmetry_space_group_name_H-M	'P1'
_symmetry_Int_Tables_number	1
_symmetry_cell_setting	triclinic
loop_
_symmetry_equiv_pos_as_xyz
  x,y,z
_cell_length_a	18.101398
_cell_length_b	12.594516
_cell_length_c	18.101389
_cell_angle_alpha	89.985805
_cell_angle_beta	89.975198
_cell_angle_gamma	90.009547
loop_
_atom_site_label
_atom_site_type_symbol
_atom_site_fract_x
_atom_site_fract_y
_atom_site_fract_z
Zn1	Zn	1.132220	-0.423918	-0.418870
Zn2	Zn	1.632220	0.076082	0.081130
Zn3	Zn	1.132158	-0.601886	-0.295038
Zn4	Zn	1.632158	-0.101886	0.204962
Zn5	Zn	1.008379	-0.423915	-0.295030
Zn6	Zn	1.508379	0.076085	0.204970
Zn7	Zn	1.008372	-0.601848	-0.418825
Zn8	Zn	1.508372	-0.101848	0.081175
O9	O	1.070282	-0.512892	-0.356941
O10	O	1.570282	-0.012892	0.143059
O11	O	1.235845	-0.447543	-0.402465
O12	O	1.735845	0.052457	0.097535
O13	O	1.115715	-0.578292	-0.191404
O14	O	1.615715	-0.078292	0.308596
O15	O	1.024836	-0.274969	-0.311473
O16	O	1.524836	0.225031	0.188527
O17	O	1.235799	-0.578295	-0.311486
O18	O	1.735799	-0.078295	0.188514
O19	O	1.115822	-0.274972	-0.402458
O20	O	1.615822	0.225028	0.097542
O21	O	1.024776	-0.447537	-0.191398
O22	O	1.524776	0.052463	0.308602
O23	O	0.904745	-0.447501	-0.311430
O24	O	1.404745	0.052499	0.188570
O25	O	1.024823	-0.578231	-0.522464
O26	O	1.524823	-0.078231	-0.022464
O27	O	0.904740	-0.578227	-0.402381
O28	O	1.404740	-0.078227	0.097619
O29	O	1.115814	-0.447506	-0.522497
O30	O	1.615814	0.052494	-0.022497
O31	O	1.115708	-0.750827	-0.311443
O32	O	1.615708	-0.250827	0.188557
O33	O	1.024763	-0.750799	-0.402389
O34	O	1.524763	-0.250799	0.097611
C35	C	0.877872	-0.512860	-0.356900
C36	C	1.377872	-0.012860	0.143100
C37	C	0.795558	-0.512873	-0.356901
C38	C	1.295558	-0.012873	0.143099
C39	C	1.070248	-0.789433	-0.356928
C40	C	1.570248	-0.289433	0.143072
C41	C	1.070301	-0.907738	-0.356947
C42	C	1.570301	-0.407738	0.143053
C43	C	0.644849	-0.512894	-0.356934
C44	C	1.144849	-0.012894	0.143066
C45	C	0.613474	-0.430527	-0.299805
C46	C	1.113474	0.069473	0.200195
C47	C	0.527856	-0.430217	-0.299992
C48	C	1.027856	0.069783	0.200008
C49	C	0.496467	-0.512916	-0.356966
C50	C	0.996467	-0.012916	0.143034
C51	C	0.527600	-0.482994	-0.435099
C52	C	1.027600	0.017006	0.064901
C53	C	0.613244	-0.482383	-0.434751
C54	C	1.113244	0.017617	0.065249
C55	C	0.613272	-0.625397	-0.336618
C56	C	1.113272	-0.125397	0.163382
C57	C	0.527620	-0.624804	-0.334916
C58	C	1.027620	-0.124804	0.165084
C59	C	0.412607	-0.512930	-0.356988
C60	C	0.912607	-0.012930	0.143012
C61	C	0.728709	-0.512878	-0.356917
C62	C	1.228709	-0.012878	0.143083
C63	C	1.119824	-0.976968	-0.307534
C64	C	1.619824	-0.476968	0.192466
C65	C	1.137919	-1.047688	-0.375130
C66	C	1.637919	-0.547688	0.124870
C67	C	1.052298	-1.047816	-0.289394
C68	C	1.552298	-0.547816	0.210606
C69	C	1.088431	-0.976900	-0.424578
C70	C	1.588431	-0.476900	0.075422
C71	C	1.002779	-0.977022	-0.338797
C72	C	1.502779	-0.477022	0.161203
C73	C	1.020849	-1.047711	-0.406439
C74	C	1.520849	-0.547711	0.093561
C75	C	1.263444	-0.512924	-0.356981
C76	C	1.763444	-0.012924	0.143019
C77	C	1.345758	-0.512938	-0.356999
C78	C	1.845758	-0.012938	0.143001
C79	C	1.070325	-0.512865	-0.550103
C80	C	1.570325	-0.012865	-0.050103
C81	C	1.070343	-0.512853	-0.632417
C82	C	1.570343	-0.012853	-0.132417
C83	C	1.070337	-0.235271	-0.356970
C84	C	1.570337	0.264729	0.143030
C85	C	1.070360	-0.116965	-0.356982
C86	C	1.570360	0.383035	0.143018
C87	C	1.070386	-0.512654	-0.931508
C88	C	1.570386	-0.012654	-0.431508
C89	C	1.012940	-0.594640	-0.900162
C90	C	1.512940	-0.094640	-0.400162
C91	C	1.013095	-0.595021	-0.814544
C92	C	1.513095	-0.095021	-0.314544
C93	C	1.070364	-0.512753	-0.783125
C94	C	1.570364	-0.012753	-0.283125
C95	C	1.148397	-0.543204	-0.814233
C96	C	1.648397	-0.043204	-0.314233
C97	C	1.148077	-0.543742	-0.899878
C98	C	1.648077	-0.043742	-0.399878
C99	C	1.050479	-0.400034	-0.899926
C100	C	1.550479	0.099966	-0.399926
C101	C	1.048743	-0.400684	-0.814275
C102	C	1.548743	0.099316	-0.314275
C103	C	1.070357	-0.512807	-0.699266
C104	C	1.570357	-0.012807	-0.199266
C105	C	1.070399	-0.512602	-1.015367
C106	C	1.570399	-0.012602	-0.515367
C107	C	1.070282	-0.512842	-0.164530
C108	C	1.570282	-0.012842	0.335470
C109	C	1.070407	-0.512553	-0.082216
C110	C	1.570407	-0.012553	0.417784
H111	H	0.506803	-0.448883	-0.242067
H112	H	1.006803	0.051117	0.257933
F113	F	1.174569	-0.936364	-0.252964
F114	F	1.674569	-0.436364	0.247036
H115	H	0.507374	-0.346859	-0.313480
H116	H	1.007374	0.153141	0.186520
H117	H	0.633230	-0.400161	-0.451923
H118	H	1.133230	0.099839	0.048077
F119	F	1.032364	-1.088533	-0.214705
F120	F	1.532364	-0.588533	0.285295
H121	H	1.195046	-1.078732	-0.390502
H122	H	1.695046	-0.578732	0.109498
H123	H	1.103625	-0.945883	-0.481771
H124	H	1.603625	-0.445883	0.018229
F125	F	0.640381	-0.557422	-0.492311
F126	F	1.140381	-0.057422	0.007689
H127	H	1.192331	-0.486619	-0.920616
H128	H	1.692331	0.013381	-0.420616
F129	F	1.030312	-0.704121	-0.787774
F130	F	1.530312	-0.204121	-0.287774
F131	F	0.640351	-0.454618	-0.223843
F132	F	1.140351	0.045382	0.276157
H133	H	0.634839	-0.652726	-0.280595
H134	H	1.134839	-0.152726	0.219405
F135	F	1.099444	-0.316602	-0.786330
F136	F	1.599444	0.183398	-0.286330
F137	F	0.928128	-0.936421	-0.318682
F138	F	1.428128	-0.436421	0.181318
H139	H	0.507272	-0.541160	-0.478843
H140	H	1.007272	-0.041160	0.021157
H141	H	0.506160	-0.401681	-0.452574
H142	H	1.006160	0.098319	0.047426
H143	H	0.635002	-0.347635	-0.313119
H144	H	1.135002	0.152365	0.186881
H145	H	0.507270	-0.647375	-0.277412
H146	H	1.007270	-0.147375	0.222588
H147	H	0.506248	-0.689425	-0.373465
H148	H	1.006248	-0.189425	0.126535
F149	F	0.639810	-0.705609	-0.390990
F150	F	1.139810	-0.205609	0.109010
F151	F	0.966142	-1.088059	-0.461139
F152	F	1.466142	-0.588059	0.038861
F153	F	0.937465	-0.570108	-0.787048
F154	F	1.437465	-0.070108	-0.287048
F155	F	0.937077	-0.569984	-0.927060
F156	F	1.437077	-0.069984	-0.427060
H157	H	1.164951	-0.626069	-0.919866
H158	H	1.664951	-0.126069	-0.419866
H159	H	1.192349	-0.485365	-0.793885
H160	H	1.692349	0.014635	-0.293885
F161	F	1.029916	-0.703074	-0.928346
F162	F	1.529916	-0.203074	-0.428346
H163	H	1.165562	-0.624656	-0.792795
H164	H	1.665562	-0.124656	-0.292795
F165	F	0.977394	-0.363773	-0.928135
F166	F	1.477394	0.136227	-0.428135
H167	H	0.991318	-0.377721	-0.793942
H168	H	1.491318	0.122279	-0.293942
F169	F	1.105167	-0.320192	-0.926423
F170	F	1.605167	0.179808	-0.426423
