data_functionalizedCrystal
_audit_creation_method	'MofGen! by Chris Wilmer'
_symmetry_space_group_name_H-M	'P1'
_symmetry_Int_Tables_number	1
_symmetry_cell_setting	triclinic
loop_
_symmetry_equiv_pos_as_xyz
  x,y,z
_cell_length_a	16.120484
_cell_length_b	12.759395
_cell_length_c	12.759387
_cell_angle_alpha	90.020509
_cell_angle_beta	92.863576
_cell_angle_gamma	87.073025
loop_
_atom_site_label
_atom_site_type_symbol
_atom_site_fract_x
_atom_site_fract_y
_atom_site_fract_z
Zn1	Zn	-0.331828	-1.584987	-0.615167
Zn2	Zn	-0.471265	-1.575935	-0.448379
Zn3	Zn	-0.331874	-1.409282	-0.439506
Zn4	Zn	-0.471205	-1.400339	-0.624015
O5	O	-0.401543	-1.492636	-0.531767
O6	O	-0.350331	-1.730807	-0.593052
O7	O	-0.452818	-1.553783	-0.300184
O8	O	-0.215202	-1.440121	-0.455392
O9	O	-0.452774	-1.724157	-0.470514
O10	O	-0.215169	-1.569211	-0.584449
O11	O	-0.350408	-1.431344	-0.293665
O12	O	-0.350350	-1.261075	-0.463971
O13	O	-0.452673	-1.424878	-0.769859
O14	O	-0.452717	-1.254504	-0.599529
O15	O	-0.350273	-1.560539	-0.763359
O16	O	-0.587922	-1.545111	-0.479094
O17	O	-0.587879	-1.416101	-0.608132
C18	C	-0.401533	-1.219669	-0.531748
C19	C	-0.401549	-1.102891	-0.531766
C20	C	-0.618150	-1.478681	-0.545559
C21	C	-0.710816	-1.472808	-0.551495
C22	C	-0.401461	-1.492720	-0.805795
C23	C	-0.401426	-1.492756	-0.922570
C24	C	-0.880477	-1.462090	-0.562353
C25	C	-0.921768	-1.523370	-0.501198
C26	C	-1.016173	-1.517406	-0.507239
C27	C	-0.786063	-1.468052	-0.556313
C28	C	-0.184090	-1.506673	-0.517944
C29	C	-0.091424	-1.512655	-0.512053
C30	C	-0.401554	-1.766669	-0.531786
C31	C	-0.401558	-1.883445	-0.531794
C32	C	-0.508315	-1.096077	-0.672716
C33	C	-0.561705	-1.037808	-0.743194
C34	C	-0.561715	-0.928086	-0.743207
C35	C	-0.508328	-0.876630	-0.672737
C36	C	-0.454938	-0.934899	-0.602259
C37	C	-0.454935	-1.044623	-0.602251
C38	C	-0.348169	-0.941713	-0.461316
C39	C	-0.348161	-1.051436	-0.461296
C40	C	-0.294781	-0.890258	-0.390846
C41	C	-0.241394	-0.948526	-0.320361
C42	C	-0.241387	-1.058255	-0.320350
C43	C	-0.294771	-1.109704	-0.390818
C44	C	-0.294805	-1.634028	-0.915821
C45	C	-0.241481	-1.704680	-0.967306
C46	C	-0.241451	-1.704707	-1.077026
C47	C	-0.294748	-1.634074	-1.135263
C48	C	-0.348071	-1.563422	-1.083777
C49	C	-0.348098	-1.563404	-0.974055
C50	C	-0.454688	-1.422147	-1.090526
C51	C	-0.454723	-1.422123	-0.980807
C52	C	-0.507985	-1.351514	-1.148763
C53	C	-0.561313	-1.280866	-1.097278
C54	C	-0.561342	-1.280842	-0.987551
C55	C	-0.508047	-1.351472	-0.929321
C56	C	-0.401564	-1.492616	-0.258801
C57	C	-0.401364	-1.492798	-0.142012
H58	H	-0.886218	-1.580310	-0.444303
C59	C	-0.620432	-1.094417	-0.820703
N60	N	-0.664665	-1.137053	-0.879083
H61	H	-0.508334	-0.787289	-0.672763
H62	H	-0.916025	-1.405153	-0.619241
C63	C	-0.508072	-1.351451	-0.808626
N64	N	-0.508086	-1.351434	-0.717716
H65	H	-0.294790	-0.800916	-0.390866
C66	C	-0.294839	-1.634011	-0.795126
N67	N	-0.294862	-1.634000	-0.704217
C68	C	-0.620447	-0.863989	-0.820736
N69	N	-0.664685	-0.815711	-0.879129
H70	H	-0.508318	-1.185418	-0.672704
C71	C	-0.182673	-0.891918	-0.242855
N72	N	-0.138444	-0.849277	-0.184475
C73	C	-0.182653	-1.122342	-0.242817
N74	N	-0.138413	-1.170608	-0.184416
H75	H	-0.294711	-1.634094	-1.224602
H76	H	-0.294773	-1.199045	-0.390812
H77	H	-0.198086	-1.762186	-0.919878
H78	H	-0.604756	-1.223298	-0.945638
C79	C	-0.507956	-1.351554	-1.269458
N80	N	-0.507942	-1.351590	-1.360367
H81	H	-0.198025	-1.762231	-1.118945
C82	C	-0.619927	-1.203169	-1.161344
N83	N	-0.664075	-1.144647	-1.209603
