data_functionalizedCrystal
_audit_creation_method	'MofGen! by Chris Wilmer'
_symmetry_space_group_name_H-M	'P1'
_symmetry_Int_Tables_number	1
_symmetry_cell_setting	triclinic
loop_
_symmetry_equiv_pos_as_xyz
  x,y,z
_cell_length_a	21.395362
_cell_length_b	18.050590
_cell_length_c	18.050583
_cell_angle_alpha	89.997484
_cell_angle_beta	89.960444
_cell_angle_gamma	89.983387
loop_
_atom_site_label
_atom_site_type_symbol
_atom_site_fract_x
_atom_site_fract_y
_atom_site_fract_z
Zn1	Zn	-0.249614	-1.135292	-0.419528
Zn2	Zn	0.083719	-0.801959	-0.086195
Zn3	Zn	0.417053	-0.468626	0.247138
Zn4	Zn	-0.354409	-1.135197	-0.295331
Zn5	Zn	-0.021075	-0.801864	0.038002
Zn6	Zn	0.312258	-0.468531	0.371336
Zn7	Zn	-0.249625	-1.011109	-0.295392
Zn8	Zn	0.083708	-0.677776	0.037941
Zn9	Zn	0.417042	-0.344443	0.371274
Zn10	Zn	-0.354334	-1.011056	-0.419520
Zn11	Zn	-0.021000	-0.677723	-0.086186
Zn12	Zn	0.312333	-0.344390	0.247147
O13	O	-0.301995	-1.073164	-0.357443
O14	O	0.031338	-0.739830	-0.024110
O15	O	0.364671	-0.406497	0.309224
O16	O	-0.263542	-1.239204	-0.403031
O17	O	0.069791	-0.905871	-0.069698
O18	O	0.403124	-0.572538	0.263636
O19	O	-0.340545	-1.118719	-0.191415
O20	O	-0.007211	-0.785386	0.141919
O21	O	0.326122	-0.452052	0.475252
O22	O	-0.161946	-1.027644	-0.311889
O23	O	0.171388	-0.694311	0.021445
O24	O	0.504721	-0.360978	0.354778
O25	O	-0.340534	-1.239134	-0.311784
O26	O	-0.007201	-0.905801	0.021549
O27	O	0.326132	-0.572468	0.354883
O28	O	-0.161938	-1.118881	-0.403091
O29	O	0.171396	-0.785548	-0.069757
O30	O	0.504729	-0.452215	0.263576
O31	O	-0.263561	-1.027552	-0.191460
O32	O	0.069773	-0.694219	0.141874
O33	O	0.403106	-0.360885	0.475207
O34	O	-0.263488	-0.907178	-0.311880
O35	O	0.069846	-0.573844	0.021453
O36	O	0.403179	-0.240511	0.354786
O37	O	-0.340407	-1.027554	-0.523446
O38	O	-0.007073	-0.694221	-0.190112
O39	O	0.326260	-0.360887	0.143221
O40	O	-0.340417	-0.907139	-0.403076
O41	O	-0.007084	-0.573805	-0.069743
O42	O	0.326250	-0.240472	0.263590
O43	O	-0.263470	-1.118830	-0.523452
O44	O	0.069864	-0.785496	-0.190118
O45	O	0.403197	-0.452163	0.143215
O46	O	-0.442077	-1.118668	-0.311776
O47	O	-0.108743	-0.785334	0.021558
O48	O	0.224590	-0.452001	0.354891
O49	O	-0.442022	-1.027462	-0.403017
O50	O	-0.108688	-0.694128	-0.069683
O51	O	0.224645	-0.360795	0.263650
C52	C	-0.301946	-0.880212	-0.357484
C53	C	0.031387	-0.546878	-0.024151
C54	C	0.364721	-0.213545	0.309182
C55	C	-0.301940	-0.797666	-0.357520
C56	C	0.031394	-0.464333	-0.024187
C57	C	0.364727	-0.130999	0.309147
C58	C	-0.464783	-1.073069	-0.357405
C59	C	-0.131450	-0.739735	-0.024071
C60	C	0.201884	-0.406402	0.309262
C61	C	-0.534424	-1.073096	-0.357413
C62	C	-0.201091	-0.739763	-0.024080
C63	C	0.132242	-0.406429	0.309253
C64	C	-0.343887	-0.598216	-0.407004
C65	C	-0.010553	-0.264882	-0.073671
C66	C	0.322780	0.068451	0.259662
C67	C	-0.286752	-0.548825	-0.425286
C68	C	0.046581	-0.215491	-0.091952
C69	C	0.379914	0.117842	0.241381
C70	C	-0.301970	-0.646536	-0.357491
C71	C	0.031364	-0.313202	-0.024158
C72	C	0.364697	0.020131	0.309176
C73	C	-0.359132	-0.548845	-0.339216
C74	C	-0.025798	-0.215511	-0.005883
C75	C	0.307535	0.117822	0.327450
C76	C	-0.302003	-0.500550	-0.357465
C77	C	0.031330	-0.167217	-0.024131
C78	C	0.364663	0.166116	0.309202
C79	C	-0.244805	-0.598232	-0.375808
C80	C	0.088528	-0.264899	-0.042475
C81	C	0.421862	0.068435	0.290859
C82	C	-0.317223	-0.598256	-0.289707
C83	C	0.016111	-0.264923	0.043626
C84	C	0.349444	0.068410	0.376960
C85	C	-0.260049	-0.548888	-0.307963
C86	C	0.073285	-0.215554	0.025371
C87	C	0.406618	0.117779	0.358704
C88	C	-0.301951	-0.730634	-0.357508
C89	C	0.031382	-0.397300	-0.024175
C90	C	0.364716	-0.063967	0.309158
C91	C	-0.302016	-0.416454	-0.357448
C92	C	0.031318	-0.083121	-0.024114
C93	C	0.364651	0.250213	0.309219
C94	C	-0.567076	-1.120576	-0.404936
C95	C	-0.233743	-0.787243	-0.071603
C96	C	0.099590	-0.453909	0.261731
C97	C	-0.632512	-1.120602	-0.404954
C98	C	-0.299178	-0.787269	-0.071621
C99	C	0.034155	-0.453935	0.261712
C100	C	-0.665293	-1.073156	-0.357436
C101	C	-0.331959	-0.739823	-0.024103
C102	C	0.001374	-0.406489	0.309230
C103	C	-0.632633	-1.025667	-0.309910
C104	C	-0.299299	-0.692334	0.023423
C105	C	0.034034	-0.359000	0.356756
C106	C	-0.567198	-1.025637	-0.309899
C107	C	-0.233865	-0.692304	0.023435
C108	C	0.099468	-0.358970	0.356768
C109	C	-0.769010	-1.067385	-0.290541
C110	C	-0.435677	-0.734052	0.042792
C111	C	-0.102344	-0.400719	0.376125
C112	C	-0.834443	-1.067421	-0.290552
C113	C	-0.501110	-0.734087	0.042782
C114	C	-0.167777	-0.400754	0.376115
C115	C	-0.867113	-1.073244	-0.357472
C116	C	-0.533780	-0.739911	-0.024139
C117	C	-0.200447	-0.406578	0.309194
C118	C	-0.834342	-1.079048	-0.424385
C119	C	-0.501009	-0.745715	-0.091051
C120	C	-0.167675	-0.412382	0.242282
C121	C	-0.768908	-1.079018	-0.424373
C122	C	-0.435575	-0.745685	-0.091040
C123	C	-0.102241	-0.412352	0.242294
C124	C	-0.736245	-1.073183	-0.357444
C125	C	-0.402912	-0.739850	-0.024111
C126	C	-0.069578	-0.406516	0.309223
C127	C	-0.970718	-1.120755	-0.405019
C128	C	-0.637385	-0.787422	-0.071685
C129	C	-0.304051	-0.454088	0.261648
C130	C	-1.036154	-1.120776	-0.405038
C131	C	-0.702821	-0.787442	-0.071705
C132	C	-0.369488	-0.454109	0.261629
C133	C	-1.036274	-1.025845	-0.309987
C134	C	-0.702941	-0.692511	0.023346
C135	C	-0.369607	-0.359178	0.356679
C136	C	-0.970839	-1.025820	-0.309975
C137	C	-0.637505	-0.692487	0.023359
C138	C	-0.304172	-0.359153	0.356692
C139	C	-0.938065	-1.073279	-0.357489
C140	C	-0.604731	-0.739946	-0.024156
C141	C	-0.271398	-0.406612	0.309177
C142	C	-0.138572	-1.073279	-0.357497
C143	C	0.194761	-0.739946	-0.024164
C144	C	0.528095	-0.406613	0.309169
C145	C	-0.068931	-1.073329	-0.357521
C146	C	0.264403	-0.739995	-0.024187
C147	C	0.597736	-0.406662	0.309146
C148	C	-0.301928	-1.073197	-0.551149
C149	C	0.031405	-0.739863	-0.217815
C150	C	0.364738	-0.406530	0.115518
C151	C	-0.301900	-1.073211	-0.633694
C152	C	0.031433	-0.739877	-0.300361
C153	C	0.364767	-0.406544	0.032972
C154	C	-0.302037	-0.266869	-0.357414
C155	C	0.031297	0.066464	-0.024081
C156	C	0.364630	0.399797	0.309253
C157	C	-0.302032	-0.349415	-0.357434
C158	C	0.031301	-0.016082	-0.024100
C159	C	0.364634	0.317252	0.309233
C160	C	-0.260041	-1.122896	-0.833148
C161	C	0.073292	-0.789563	-0.499815
C162	C	0.406625	-0.456229	-0.166482
C163	C	-0.244694	-1.055163	-0.882566
C164	C	0.088640	-0.721830	-0.549233
C165	C	0.421973	-0.388496	-0.215900
C166	C	-0.301889	-1.073240	-0.784825
C167	C	0.031444	-0.739907	-0.451491
C168	C	0.364777	-0.406574	-0.118158
C169	C	-0.317197	-1.141001	-0.882489
C170	C	0.016136	-0.807667	-0.549155
C171	C	0.349469	-0.474334	-0.215822
C172	C	-0.301878	-1.073275	-0.930810
C173	C	0.031456	-0.739942	-0.597477
C174	C	0.364789	-0.406608	-0.264143
C175	C	-0.286512	-1.005471	-0.833155
C176	C	0.046822	-0.672138	-0.499822
C177	C	0.380155	-0.338805	-0.166489
C178	C	-0.359042	-1.091355	-0.833074
C179	C	-0.025709	-0.758021	-0.499740
C180	C	0.307624	-0.424688	-0.166407
C181	C	-0.343716	-1.023575	-0.882469
C182	C	-0.010383	-0.690242	-0.549136
C183	C	0.322951	-0.356908	-0.215802
C184	C	-0.301894	-1.073221	-0.700726
C185	C	0.031439	-0.739888	-0.367393
C186	C	0.364772	-0.406555	-0.034060
C187	C	-0.301873	-1.073286	-1.014907
C188	C	0.031461	-0.739953	-0.681573
C189	C	0.364794	-0.406620	-0.348240
C190	C	-0.302017	-1.073174	-0.164491
C191	C	0.031317	-0.739840	0.168843
C192	C	0.364650	-0.406507	0.502176
C193	C	-0.301869	-1.073304	-0.081945
C194	C	0.031465	-0.739970	0.251388
C195	C	0.364798	-0.406637	0.584721
H196	H	-0.379275	-0.619877	-0.448920
H197	H	-0.045941	-0.286544	-0.115586
H198	H	0.287392	0.046790	0.217747
H199	H	-0.196356	-1.039852	-0.904306
H200	H	0.136978	-0.706519	-0.570973
H201	H	0.470311	-0.373186	-0.237639
H202	H	-0.224574	-0.527365	-0.266080
H203	H	0.108759	-0.194032	0.067253
H204	H	0.442092	0.139302	0.400587
C205	C	-0.732859	-1.085395	-0.497968
C206	C	-0.399526	-0.752062	-0.164635
C207	C	-0.066192	-0.418728	0.168698
H208	H	-0.689211	-1.084547	-0.488373
H209	H	-0.355878	-0.751214	-0.155040
H210	H	-0.022544	-0.417881	0.178294
H211	H	-0.743582	-1.044981	-0.529185
H212	H	-0.410249	-0.711648	-0.195852
H213	H	-0.076915	-0.378314	0.137481
H214	H	-0.743537	-1.130601	-0.521744
H215	H	-0.410204	-0.797267	-0.188411
H216	H	-0.076871	-0.463934	0.144922
H217	H	-0.379101	-0.981549	-0.903988
H218	H	-0.045767	-0.648216	-0.570655
H219	H	0.287566	-0.314883	-0.237322
H220	H	-0.330149	-1.198290	-0.904162
H221	H	0.003185	-0.864957	-0.570829
H222	H	0.336518	-0.531623	-0.237496
C223	C	-0.179500	-0.627406	-0.396768
C224	C	0.153833	-0.294072	-0.063435
C225	C	0.487166	0.039261	0.269899
H226	H	-0.152254	-0.586774	-0.405481
H227	H	0.181079	-0.253441	-0.072148
H228	H	0.514413	0.079892	0.261185
H229	H	-0.182424	-0.656692	-0.440350
H230	H	0.150909	-0.323358	-0.107017
H231	H	0.484243	0.009975	0.226316
H232	H	-0.163530	-0.656741	-0.357393
H233	H	0.169803	-0.323408	-0.024060
H234	H	0.503137	0.009925	0.309274
C235	C	-0.870489	-1.061028	-0.216955
C236	C	-0.537155	-0.727694	0.116378
C237	C	-0.203822	-0.394361	0.449711
H238	H	-0.914137	-1.061886	-0.226545
H239	H	-0.580804	-0.728553	0.106788
H240	H	-0.247471	-0.395219	0.440122
H241	H	-0.859806	-1.015822	-0.193190
H242	H	-0.526473	-0.682489	0.140144
H243	H	-0.193139	-0.349156	0.473477
H244	H	-0.859765	-1.101441	-0.185730
H245	H	-0.526432	-0.768107	0.147603
H246	H	-0.193099	-0.434774	0.480937
H247	H	-0.224630	-1.164819	-0.811490
H248	H	0.108704	-0.831486	-0.478157
H249	H	0.442037	-0.498153	-0.144824
H250	H	-0.407458	-0.527147	-0.323772
H251	H	-0.074125	-0.193814	0.009561
H252	H	0.259208	0.139519	0.342894
C253	C	-0.668686	-0.973476	-0.257642
C254	C	-0.335352	-0.640143	0.075692
C255	C	-0.002019	-0.306809	0.409025
H256	H	-0.639865	-0.945189	-0.229340
H257	H	-0.306531	-0.611855	0.103993
H258	H	0.026802	-0.278522	0.437327
H259	H	-0.694218	-1.001915	-0.225303
H260	H	-0.360885	-0.668581	0.108030
H261	H	-0.027552	-0.335248	0.441363
H262	H	-0.694209	-0.941110	-0.286042
H263	H	-0.360876	-0.607777	0.047291
H264	H	-0.027542	-0.274443	0.380625
H265	H	-0.540393	-1.159218	-0.443627
H266	H	-0.207060	-0.825885	-0.110294
H267	H	0.126273	-0.492551	0.223040
H268	H	-0.273503	-0.948165	-0.811575
H269	H	0.059830	-0.614832	-0.478242
H270	H	0.393163	-0.281499	-0.144909
C271	C	-0.668437	-1.172839	-0.457224
C272	C	-0.335103	-0.839506	-0.123890
C273	C	-0.001770	-0.506172	0.209443
H274	H	-0.639546	-1.201103	-0.485515
H275	H	-0.306212	-0.867770	-0.152182
H276	H	0.027121	-0.534436	0.181152
H277	H	-0.693960	-1.144430	-0.489572
H278	H	-0.360627	-0.811096	-0.156238
H279	H	-0.027294	-0.477763	0.177095
H280	H	-0.693960	-1.205225	-0.428823
H281	H	-0.360626	-0.871891	-0.095490
H282	H	-0.027293	-0.538558	0.237843
H283	H	-0.330130	-0.619985	-0.232411
H284	H	0.003203	-0.286652	0.100922
H285	H	0.336536	0.046681	0.434256
C286	C	-0.424323	-1.112061	-0.803678
C287	C	-0.090989	-0.778728	-0.470345
C288	C	0.242344	-0.445394	-0.137011
H289	H	-0.440348	-1.072408	-0.774729
H290	H	-0.107014	-0.739075	-0.441395
H291	H	0.226319	-0.405741	-0.108062
H292	H	-0.421349	-1.155353	-0.773964
H293	H	-0.088016	-0.822020	-0.440630
H294	H	0.245318	-0.488686	-0.107297
H295	H	-0.451550	-1.121189	-0.844212
H296	H	-0.118217	-0.787856	-0.510879
H297	H	0.215116	-0.454523	-0.177546
C298	C	-0.269345	-0.519474	-0.502703
C299	C	0.063988	-0.186141	-0.169370
C300	C	0.397321	0.147192	0.163963
H301	H	-0.299158	-0.536355	-0.537836
H302	H	0.034175	-0.203022	-0.204503
H303	H	0.367509	0.130311	0.128831
H304	H	-0.229038	-0.537103	-0.516027
H305	H	0.104295	-0.203770	-0.182694
H306	H	0.437629	0.129564	0.150640
H307	H	-0.269117	-0.466850	-0.502009
H308	H	0.064216	-0.133517	-0.168676
H309	H	0.397549	0.199817	0.164657
H310	H	-0.860940	-1.083792	-0.478878
H311	H	-0.527607	-0.750459	-0.145544
H312	H	-0.194274	-0.417125	0.187789
H313	H	-0.944032	-1.159397	-0.443710
H314	H	-0.610699	-0.826063	-0.110377
H315	H	-0.277365	-0.492730	0.222956
C316	C	-0.531280	-0.973412	-0.257617
C317	C	-0.197946	-0.640079	0.075717
C318	C	0.135387	-0.306745	0.409050
H319	H	-0.560172	-0.945160	-0.229316
H320	H	-0.226839	-0.611826	0.104018
H321	H	0.106495	-0.278493	0.437351
H322	H	-0.505749	-0.941026	-0.285999
H323	H	-0.172415	-0.607693	0.047334
H324	H	0.160918	-0.274360	0.380667
H325	H	-0.505764	-1.001837	-0.225267
H326	H	-0.172431	-0.668504	0.108066
H327	H	0.160902	-0.335171	0.441399
H328	H	-1.062739	-1.159439	-0.443740
H329	H	-0.729405	-0.826106	-0.110407
H330	H	-0.396072	-0.492773	0.222927
H331	H	-0.944252	-0.987161	-0.271274
H332	H	-0.610918	-0.653827	0.062059
H333	H	-0.277585	-0.320494	0.395393
C334	C	-1.072325	-0.973651	-0.257723
C335	C	-0.738992	-0.640317	0.075610
C336	C	-0.405658	-0.306984	0.408944
H337	H	-1.115972	-0.980469	-0.264534
H338	H	-0.782639	-0.647136	0.068800
H339	H	-0.449306	-0.313803	0.402133
H340	H	-1.061619	-0.923742	-0.268562
H341	H	-0.728286	-0.590409	0.064772
H342	H	-0.394953	-0.257076	0.398105
H343	H	-1.061633	-0.984549	-0.207825
H344	H	-0.728300	-0.651216	0.125508
H345	H	-0.394966	-0.317882	0.458842
C346	C	-0.733077	-1.060982	-0.216926
C347	C	-0.399744	-0.727648	0.116408
C348	C	-0.066410	-0.394315	0.449741
H349	H	-0.689414	-1.061789	-0.226501
H350	H	-0.356080	-0.728455	0.106832
H351	H	-0.022747	-0.395122	0.440165
H352	H	-0.743800	-1.101407	-0.185715
H353	H	-0.410467	-0.768074	0.147618
H354	H	-0.077133	-0.434740	0.480952
H355	H	-0.743842	-1.015787	-0.193153
H356	H	-0.410509	-0.682454	0.140181
H357	H	-0.077176	-0.349120	0.473514
