data_functionalizedCrystal
_audit_creation_method	'MofGen! by Chris Wilmer'
_symmetry_space_group_name_H-M	'P1'
_symmetry_Int_Tables_number	1
_symmetry_cell_setting	triclinic
loop_
_symmetry_equiv_pos_as_xyz
  x,y,z
_cell_length_a	14.971486
_cell_length_b	14.421503
_cell_length_c	14.971506
_cell_angle_alpha	90.005875
_cell_angle_beta	96.381742
_cell_angle_gamma	90.002684
loop_
_atom_site_label
_atom_site_type_symbol
_atom_site_fract_x
_atom_site_fract_y
_atom_site_fract_z
O1	O	1.186959	0.077002	-0.116549
O2	O	1.436959	0.327002	0.133451
O3	O	1.686959	0.577002	0.383451
O4	O	1.936959	0.827002	0.633451
O5	O	0.926559	0.077027	-0.130508
O6	O	1.176559	0.327027	0.119492
O7	O	1.426559	0.577027	0.369492
O8	O	1.676559	0.827027	0.619492
O9	O	1.063729	0.077011	0.006670
O10	O	1.313729	0.327011	0.256670
O11	O	1.563729	0.577011	0.506670
O12	O	1.813729	0.827011	0.756670
O13	O	1.049789	0.077017	-0.253727
O14	O	1.299789	0.327017	-0.003727
O15	O	1.549789	0.577017	0.246273
O16	O	1.799789	0.827017	0.496273
O17	O	1.063706	-0.077212	0.006650
O18	O	1.313706	0.172788	0.256650
O19	O	1.563706	0.422788	0.506650
O20	O	1.813706	0.672788	0.756650
O21	O	0.926537	-0.077197	-0.130528
O22	O	1.176537	0.172803	0.119472
O23	O	1.426537	0.422803	0.369472
O24	O	1.676537	0.672803	0.619472
O25	O	1.186936	-0.077222	-0.116570
O26	O	1.436936	0.172778	0.133430
O27	O	1.686936	0.422778	0.383430
O28	O	1.936936	0.672778	0.633430
Cu29	Cu	1.056734	-0.091291	-0.123551
Cu30	Cu	1.306734	0.158709	0.126449
Cu31	Cu	1.556734	0.408709	0.376449
Cu32	Cu	1.806734	0.658709	0.626449
Cu33	Cu	1.056761	0.091096	-0.123527
Cu34	Cu	1.306761	0.341096	0.126473
Cu35	Cu	1.556761	0.591096	0.376473
Cu36	Cu	1.806761	0.841096	0.626473
O37	O	1.049766	-0.077206	-0.253748
O38	O	1.299766	0.172794	-0.003748
O39	O	1.549766	0.422794	0.246252
O40	O	1.799766	0.672794	0.496252
C41	C	0.893223	-0.000082	-0.129894
C42	C	1.143223	0.249918	0.120106
C43	C	1.393223	0.499918	0.370106
C44	C	1.643223	0.749918	0.620106
C45	C	0.793926	-0.000072	-0.128023
C46	C	1.043926	0.249928	0.121977
C47	C	1.293926	0.499928	0.371977
C48	C	1.543926	0.749928	0.621977
N49	N	1.056722	-0.219572	-0.123567
N50	N	1.306722	0.030428	0.126433
N51	N	1.556722	0.280428	0.376433
N52	N	1.806722	0.530428	0.626433
C53	C	0.736707	-0.000072	-0.208612
C54	C	0.986707	0.249928	0.041388
C55	C	1.236707	0.499928	0.291388
C56	C	1.486707	0.749928	0.541388
C57	C	0.643407	-0.000086	-0.206849
C58	C	0.893407	0.249914	0.043151
C59	C	1.143407	0.499914	0.293151
C60	C	1.393407	0.749914	0.543151
C61	C	0.607329	-0.000094	-0.124496
C62	C	0.857329	0.249906	0.125504
C63	C	1.107329	0.499906	0.375504
C64	C	1.357329	0.749906	0.625504
C65	C	0.664556	-0.000097	-0.043901
C66	C	0.914556	0.249903	0.206099
C67	C	1.164556	0.499903	0.456099
C68	C	1.414556	0.749903	0.706099
C69	C	0.757853	-0.000090	-0.045665
C70	C	1.007853	0.249910	0.204335
C71	C	1.257853	0.499910	0.454335
C72	C	1.507853	0.749910	0.704335
C73	C	0.470093	-0.000110	-0.040230
C74	C	0.720093	0.249890	0.209770
C75	C	0.970093	0.499890	0.459770
C76	C	1.220093	0.749890	0.709770
C77	C	0.376789	-0.000115	-0.038466
C78	C	0.626789	0.249885	0.211534
C79	C	0.876789	0.499885	0.461534
C80	C	1.126789	0.749885	0.711534
C81	C	0.355647	-0.000106	-0.201414
C82	C	0.605647	0.249894	0.048586
C83	C	0.855647	0.499894	0.298586
C84	C	1.105647	0.749894	0.548586
C85	C	0.448944	-0.000099	-0.203178
C86	C	0.698944	0.249901	0.046822
C87	C	0.948944	0.499901	0.296822
C88	C	1.198944	0.749901	0.546822
C89	C	0.506165	-0.000100	-0.122582
C90	C	0.756165	0.249900	0.127418
C91	C	1.006165	0.499900	0.377418
C92	C	1.256165	0.749900	0.627418
C93	C	0.993283	-0.469219	-0.186970
C94	C	1.243283	-0.219219	0.063030
C95	C	1.493283	0.030781	0.313030
C96	C	1.743283	0.280781	0.563030
C97	C	1.074126	-0.531029	-0.204417
C98	C	1.324126	-0.281029	0.045583
C99	C	1.574126	-0.031029	0.295583
C100	C	1.824126	0.218971	0.545583
C101	C	1.056744	-0.408734	-0.123546
C102	C	1.306744	-0.158734	0.126454
C103	C	1.556744	0.091266	0.376454
C104	C	1.806744	0.341266	0.626454
C105	C	0.975922	-0.531018	-0.106120
C106	C	1.225922	-0.281018	0.143880
C107	C	1.475922	-0.031018	0.393880
C108	C	1.725922	0.218982	0.643880
C109	C	1.056757	-0.591455	-0.123527
C110	C	1.306757	-0.341455	0.126473
C111	C	1.556757	-0.091455	0.376473
C112	C	1.806757	0.158545	0.626473
C113	C	1.137627	-0.469183	-0.141033
C114	C	1.387627	-0.219183	0.108967
C115	C	1.637627	0.030817	0.358967
C116	C	1.887627	0.280817	0.608967
C117	C	1.039369	-0.469166	-0.042701
C118	C	1.289369	-0.219166	0.207299
C119	C	1.539369	0.030834	0.457299
C120	C	1.789369	0.280834	0.707299
C121	C	1.120271	-0.530948	-0.060114
C122	C	1.370271	-0.280948	0.189886
C123	C	1.620271	-0.030948	0.439886
C124	C	1.870271	0.219052	0.689886
C125	C	1.056734	-0.303473	-0.123559
C126	C	1.306734	-0.053473	0.126441
C127	C	1.556734	0.196527	0.376441
C128	C	1.806734	0.446527	0.626441
C129	C	1.056776	-0.696714	-0.123514
C130	C	1.306776	-0.446714	0.126486
C131	C	1.556776	-0.196714	0.376486
C132	C	1.806776	0.053286	0.626486
C133	C	1.220272	-0.000111	-0.117184
C134	C	1.470272	0.249889	0.132816
C135	C	1.720272	0.499889	0.382816
C136	C	1.970272	0.749889	0.632816
C137	C	1.319569	-0.000115	-0.119054
C138	C	1.569569	0.249885	0.130946
C139	C	1.819569	0.499885	0.380946
C140	C	2.069569	0.749885	0.630946
C141	C	1.063091	-0.000099	0.039984
C142	C	1.313091	0.249901	0.289984
C143	C	1.563091	0.499901	0.539984
C144	C	1.813091	0.749901	0.789984
C145	C	1.061213	-0.000095	0.139281
C146	C	1.311213	0.249905	0.389281
C147	C	1.561213	0.499905	0.639281
C148	C	1.811213	0.749905	0.889281
N149	N	1.056781	0.219377	-0.123503
N150	N	1.306781	0.469377	0.126497
N151	N	1.556781	0.719377	0.376497
N152	N	1.806781	0.969377	0.626497
C153	C	1.050404	-0.000094	-0.287062
C154	C	1.300404	0.249906	-0.037062
C155	C	1.550404	0.499906	0.212938
C156	C	1.800404	0.749906	0.462938
C157	C	1.052282	-0.000092	-0.386358
C158	C	1.302282	0.249908	-0.136358
C159	C	1.552282	0.499908	0.113642
C160	C	1.802282	0.749908	0.363642
C161	C	1.134631	-0.000103	0.577563
C162	C	1.384631	0.249897	0.827563
C163	C	1.634631	0.499897	1.077563
C164	C	1.884631	0.749897	1.327563
C165	C	1.136389	-0.000109	0.484263
C166	C	1.386389	0.249891	0.734263
C167	C	1.636389	0.499891	0.984263
C168	C	1.886389	0.749891	1.234263
C169	C	1.055796	-0.000098	0.427043
C170	C	1.305796	0.249902	0.677043
C171	C	1.555796	0.499902	0.927043
C172	C	1.805796	0.749902	1.177043
C173	C	0.973441	-0.000090	0.463127
C174	C	1.223441	0.249910	0.713127
C175	C	1.473441	0.499910	0.963127
C176	C	1.723441	0.749910	1.213127
C177	C	0.971685	-0.000090	0.556426
C178	C	1.221685	0.249910	0.806426
C179	C	1.471685	0.499910	1.056426
C180	C	1.721685	0.749910	1.306426
C181	C	0.977108	-0.000087	0.268664
C182	C	1.227108	0.249913	0.518664
C183	C	1.477108	0.499913	0.768664
C184	C	1.727108	0.749913	1.018664
C185	C	0.978864	-0.000085	0.175359
C186	C	1.228864	0.249915	0.425359
C187	C	1.478864	0.499915	0.675359
C188	C	1.728864	0.749915	0.925359
C189	C	1.141812	-0.000105	0.196501
C190	C	1.391812	0.249895	0.446501
C191	C	1.641812	0.499895	0.696501
C192	C	1.891812	0.749895	0.946501
C193	C	1.140055	-0.000105	0.289800
C194	C	1.390055	0.249895	0.539800
C195	C	1.640055	0.499895	0.789800
C196	C	1.890055	0.749895	1.039800
C197	C	1.057700	-0.000096	0.325878
C198	C	1.307700	0.249904	0.575878
C199	C	1.557700	0.499904	0.825878
C200	C	1.807700	0.749904	1.075878
H201	H	0.766074	-0.000065	-0.275673
H202	H	1.016074	0.249935	-0.025673
H203	H	1.266074	0.499935	0.224327
H204	H	1.516074	0.749935	0.474327
H205	H	1.205998	-0.442136	-0.155846
H206	H	1.455998	-0.192136	0.094154
H207	H	1.705998	0.057864	0.344154
H208	H	1.955998	0.307864	0.594154
H209	H	1.205681	-0.000108	0.336387
H210	H	1.455681	0.249892	0.586387
H211	H	1.705681	0.499892	0.836387
H212	H	1.955681	0.749892	1.086387
H213	H	0.635173	-0.000117	0.023151
H214	H	0.885173	0.249883	0.273151
H215	H	1.135173	0.499883	0.523151
H216	H	1.385173	0.749883	0.773151
H217	H	0.804441	-0.000090	0.019958
H218	H	1.054441	0.249910	0.269958
H219	H	1.304441	0.499910	0.519958
H220	H	1.554441	0.749910	0.769958
H221	H	0.904628	-0.000090	0.585799
H222	H	1.154628	0.249910	0.835799
H223	H	1.404628	0.499910	1.085799
H224	H	1.654628	0.749910	1.335799
H225	H	0.478316	-0.000083	-0.270236
H226	H	0.728316	0.249917	-0.020236
H227	H	0.978316	0.499917	0.229764
H228	H	1.228316	0.749917	0.479764
H229	H	0.596822	-0.000084	-0.272472
H230	H	0.846822	0.249916	-0.022472
H231	H	1.096822	0.499916	0.227528
H232	H	1.346822	0.749916	0.477528
H233	H	0.907566	-0.558181	-0.091390
H234	H	1.157566	-0.308181	0.158610
H235	H	1.407566	-0.058181	0.408610
H236	H	1.657566	0.191819	0.658610
H237	H	1.024636	-0.441972	0.025638
H238	H	1.274636	-0.191972	0.275638
H239	H	1.524636	0.058028	0.525638
H240	H	1.774636	0.308028	0.775638
H241	H	1.088834	-0.558201	-0.272778
H242	H	1.338834	-0.308201	-0.022778
H243	H	1.588834	-0.058201	0.227222
H244	H	1.838834	0.191799	0.477222
H245	H	0.939672	-0.442115	-0.240649
H246	H	1.189672	-0.192115	0.009351
H247	H	1.439672	0.057885	0.259351
H248	H	1.689672	0.307885	0.509351
H249	H	1.203445	-0.000118	0.454893
H250	H	1.453445	0.249882	0.704893
H251	H	1.703445	0.499882	0.954893
H252	H	1.953445	0.749882	1.204893
H253	H	1.200259	-0.000104	0.624146
H254	H	1.450259	0.249896	0.874146
H255	H	1.700259	0.499896	1.124146
H256	H	1.950259	0.749896	1.374146
H257	H	1.174001	-0.557882	-0.006467
H258	H	1.424001	-0.307882	0.243533
H259	H	1.674001	-0.057882	0.493533
H260	H	1.924001	0.192118	0.743533
H261	H	0.910045	-0.000092	0.298035
H262	H	1.160045	0.249908	0.548035
H263	H	1.410045	0.499908	0.798035
H264	H	1.660045	0.749908	1.048035
H265	H	0.309053	-0.000109	-0.267037
H266	H	0.559053	0.249891	-0.017037
H267	H	0.809053	0.499891	0.232963
H268	H	1.059053	0.749891	0.482963
H269	H	1.208869	-0.000027	0.167122
H270	H	1.458869	0.249973	0.417122
H271	H	1.708869	0.499973	0.667122
H272	H	1.958869	0.749973	0.917122
H273	H	0.913239	-0.000081	0.128772
H274	H	1.163239	0.249919	0.378772
H275	H	1.413239	0.499919	0.628772
H276	H	1.663239	0.749919	0.878772
H277	H	0.907821	-0.000087	0.416531
H278	H	1.157821	0.249913	0.666531
H279	H	1.407821	0.499913	0.916531
H280	H	1.657821	0.749913	1.166531
H281	H	0.347417	-0.000123	0.028593
H282	H	0.597417	0.249877	0.278593
H283	H	0.847417	0.499877	0.528593
H284	H	1.097417	0.749877	0.778593
H285	H	0.516680	-0.000112	0.025399
H286	H	0.766680	0.249888	0.275399
H287	H	1.016680	0.499888	0.525399
H288	H	1.266680	0.749888	0.775399
