data_functionalizedCrystal
_audit_creation_method	'MofGen! by Chris Wilmer'
_symmetry_space_group_name_H-M	'P1'
_symmetry_Int_Tables_number	1
_symmetry_cell_setting	triclinic
loop_
_symmetry_equiv_pos_as_xyz
  x,y,z
_cell_length_a	17.038272
_cell_length_b	19.288865
_cell_length_c	17.766277
_cell_angle_alpha	90.011603
_cell_angle_beta	89.992725
_cell_angle_gamma	92.876098
loop_
_atom_site_label
_atom_site_type_symbol
_atom_site_fract_x
_atom_site_fract_y
_atom_site_fract_z
O1	O	1.036886	-0.150802	-0.062579
O2	O	0.809263	-0.148407	-0.062587
O3	O	0.929651	-0.048881	-0.062568
O4	O	0.916497	-0.250328	-0.062598
O5	O	0.929630	-0.048874	0.062620
O6	O	0.809241	-0.148401	0.062601
O7	O	1.036865	-0.150795	0.062609
Cu8	Cu	0.923051	-0.149597	0.074036
Cu9	Cu	0.923076	-0.149605	-0.074014
O10	O	0.916476	-0.250321	0.062590
C11	C	0.780131	-0.146226	0.000006
C12	C	0.693359	-0.139728	0.000004
C13	C	0.929218	-0.022975	0.000028
C14	C	0.927947	0.054207	0.000035
C15	C	1.065996	-0.152976	0.000014
C16	C	1.152768	-0.159474	0.000011
C17	C	1.203075	-0.099818	0.000018
C18	C	1.284606	-0.105927	0.000020
C19	C	1.315828	-0.171693	0.000010
C20	C	1.265515	-0.231354	0.000005
C21	C	1.183986	-0.225244	0.000009
C22	C	1.561517	-0.193279	0.000003
C23	C	1.643052	-0.199384	-0.000002
C24	C	1.662137	-0.073957	0.000013
C25	C	1.580605	-0.067853	0.000012
C26	C	1.530300	-0.127514	0.000012
C27	C	1.399166	-0.177940	0.000009
C28	C	1.446964	-0.121267	0.000018
C29	C	0.916910	-0.276227	-0.000008
C30	C	0.918180	-0.353409	-0.000020
N31	N	0.923039	-0.149592	0.178166
C32	C	0.998586	0.094533	0.000041
C33	C	0.997392	0.167054	0.000029
C34	C	0.925556	0.199246	0.000026
C35	C	0.854908	0.158911	0.000016
C36	C	0.856103	0.086391	0.000020
C37	C	0.869076	0.311030	0.043875
C38	C	0.867884	0.383548	0.043875
C39	C	0.921865	0.422920	0.000009
C40	C	0.977052	0.389765	-0.043847
C41	C	0.978247	0.317246	-0.043843
C42	C	0.924251	0.277881	0.000021
C43	C	0.991214	0.541881	0.000001
C44	C	0.990017	0.614403	-0.000015
C45	C	0.847531	0.606259	-0.000021
C46	C	0.848730	0.533738	-0.000012
C47	C	0.920573	0.501554	0.000003
N48	N	0.923094	-0.149606	-0.178144
C49	C	0.976365	-0.105546	0.217562
C50	C	0.976369	-0.105543	0.296363
C51	C	0.923056	-0.149598	0.335767
C52	C	0.869720	-0.193647	0.296362
C53	C	0.869712	-0.193644	0.217562
C54	C	0.912591	-0.212238	0.460595
C55	C	0.912605	-0.212243	0.539394
C56	C	0.923077	-0.149608	0.578813
C57	C	0.933552	-0.086966	0.539424
C58	C	0.933543	-0.086963	0.460624
C59	C	0.923058	-0.149606	0.421213
C60	C	0.976410	-0.105555	0.703654
C61	C	0.976409	-0.105551	0.782458
C62	C	0.869764	-0.193661	0.782455
C63	C	0.869761	-0.193659	0.703653
C64	C	0.923088	-0.149607	0.664258
H65	H	1.325563	-0.057349	0.000028
H66	H	1.047542	0.647236	-0.000015
H67	H	1.019830	-0.069679	0.814534
N68	N	1.431049	-0.245121	0.000002
N69	N	1.415550	-0.286429	0.052765
H70	H	1.438069	-0.333876	0.052764
N71	N	1.171172	-0.032644	0.000022
N72	N	1.127812	-0.015244	-0.052744
H73	H	1.105281	0.032199	-0.052740
N74	N	1.713525	-0.013020	0.000039
N75	N	1.710802	0.029649	0.052821
H76	H	1.747096	0.072689	0.052844
N77	N	0.774157	0.639144	-0.000017
N78	N	0.757587	0.678716	0.052749
H79	H	0.705764	0.701945	0.052749
H80	H	1.555191	-0.014300	0.000020
N81	N	1.510149	-0.254226	0.000003
N82	N	1.538039	-0.312939	-0.000008
H83	H	1.501758	-0.355987	-0.000009
N84	N	0.776566	0.492553	-0.000016
N85	N	0.712430	0.521301	-0.000021
H86	H	0.661460	0.492214	-0.000026
H87	H	0.822944	0.410536	0.079582
N88	N	0.813918	0.270826	0.088682
N89	N	0.764653	0.300433	0.127836
H90	H	0.725696	0.272041	0.159478
N91	N	0.815302	-0.238652	0.822706
N92	N	0.815312	-0.238646	0.893063
H93	H	0.776844	-0.270420	0.921495
H94	H	0.826342	-0.229529	0.671575
N95	N	0.781535	0.191802	0.000006
N96	N	0.780476	0.256551	0.000003
H97	H	0.728655	0.279781	-0.000008
H98	H	1.049713	0.515676	0.000010
N99	N	0.783937	0.045206	0.000010
N100	N	0.719800	0.073953	-0.000000
H101	H	0.668831	0.044865	-0.000007
N102	N	1.297393	-0.298538	0.000005
N103	N	1.281891	-0.339841	0.052771
H104	H	1.304403	-0.387292	0.052771
H105	H	0.942070	-0.035958	0.428556
N106	N	1.132607	-0.286188	0.000009
N107	N	1.160492	-0.344904	0.000003
H108	H	1.124207	-0.387949	0.000007
N109	N	1.674933	-0.266572	-0.000012
N110	N	1.630010	-0.319835	-0.000010
H111	H	1.652526	-0.367284	-0.000017
H112	H	1.019785	-0.069674	0.185488
N113	N	0.901915	-0.276233	0.579614
N114	N	0.892558	-0.332152	0.544412
H115	H	0.885010	-0.377347	0.572815
H116	H	1.421539	-0.067720	0.000018
H117	H	1.019794	-0.069674	0.328445
H118	H	0.942078	-0.035963	0.571517
H119	H	1.057086	0.068333	0.000050
N120	N	1.030786	-0.060462	0.663419
N121	N	1.078327	-0.021070	0.698607
H122	H	1.116694	0.010812	0.670194
N123	N	0.901901	-0.276230	0.420345
N124	N	0.892568	-0.332154	0.455520
H125	H	0.885023	-0.377348	0.427095
N126	N	1.069558	0.208246	0.000034
N127	N	1.133696	0.179501	0.000046
H128	H	1.184664	0.208590	0.000051
H129	H	1.023181	0.290254	-0.079554
N130	N	0.815262	-0.238640	0.336619
N131	N	0.815277	-0.238637	0.406976
H132	H	0.776811	-0.270412	0.435409
H133	H	1.021008	0.421821	-0.079568
H134	H	0.826287	-0.229512	0.185485
