data_functionalizedCrystal
_audit_creation_method	'MofGen! by Chris Wilmer'
_symmetry_space_group_name_H-M	'P1'
_symmetry_Int_Tables_number	1
_symmetry_cell_setting	triclinic
loop_
_symmetry_equiv_pos_as_xyz
  x,y,z
_cell_length_a	15.944551
_cell_length_b	9.065218
_cell_length_c	7.540329
_cell_angle_alpha	90.001757
_cell_angle_beta	89.998469
_cell_angle_gamma	84.257312
loop_
_atom_site_label
_atom_site_type_symbol
_atom_site_fract_x
_atom_site_fract_y
_atom_site_fract_z
O1	O	-1.115964	-0.190270	-0.147290
O2	O	-0.871592	-0.213728	-0.147333
O3	O	-0.998829	0.012762	-0.147307
O4	O	-0.988727	-0.416759	-0.147316
O5	O	-0.998821	0.012764	0.147658
O6	O	-0.871584	-0.213725	0.147632
O7	O	-1.115956	-0.190267	0.147675
Cu8	Cu	-0.993770	-0.201996	0.174586
Cu9	Cu	-0.993779	-0.201999	-0.174244
O10	O	-0.988719	-0.416757	0.147649
C11	C	-0.840287	-0.212753	0.000144
C12	C	-0.747019	-0.209833	0.000127
C13	C	-0.997854	0.067727	0.000172
C14	C	-0.994951	0.231502	0.000163
C15	C	-1.147261	-0.191242	0.000194
C16	C	-1.240530	-0.194162	0.000199
C17	C	-0.531045	-0.062466	0.000164
C18	C	-0.470548	-0.130900	-0.145270
C19	C	-0.576253	-0.204551	0.000148
C20	C	-0.470563	-0.130931	0.145542
C21	C	-0.411301	-0.199439	0.000176
C22	C	-0.516983	-0.273024	-0.145407
C23	C	-0.517004	-0.273035	0.145536
C24	C	-0.456525	-0.341573	0.000066
C25	C	-0.671277	-0.207493	0.000130
C26	C	-0.316278	-0.196509	0.000181
C27	C	-0.989694	-0.471722	0.000165
C28	C	-0.992597	-0.635497	0.000163
N29	N	-0.993769	-0.201993	0.419935
N30	N	-0.993785	-0.201991	-0.419593
H31	H	-0.563485	0.055454	-0.000013
H32	H	-0.450018	-0.070807	0.268491
H33	H	-0.449985	-0.070804	-0.268223
C34	C	-0.544603	-0.354140	-0.311704
N35	N	-0.565408	-0.415229	-0.436961
H36	H	-0.424261	-0.459614	-0.000018
H37	H	-0.537587	-0.333081	0.268494
