data_functionalizedCrystal
_audit_creation_method	'MofGen! by Chris Wilmer'
_symmetry_space_group_name_H-M	'P1'
_symmetry_Int_Tables_number	1
_symmetry_cell_setting	triclinic
loop_
_symmetry_equiv_pos_as_xyz
  x,y,z
_cell_length_a	15.625110
_cell_length_b	14.421503
_cell_length_c	15.538191
_cell_angle_alpha	89.994438
_cell_angle_beta	66.740235
_cell_angle_gamma	71.924064
loop_
_atom_site_label
_atom_site_type_symbol
_atom_site_fract_x
_atom_site_fract_y
_atom_site_fract_z
O1	O	1.155933	-0.311650	0.123003
O2	O	0.888679	-0.221769	0.137629
O3	O	1.074330	-0.284201	-0.006742
O4	O	0.970283	-0.249217	0.267374
O5	O	1.074300	-0.438414	-0.006720
O6	O	0.888649	-0.375982	0.137650
O7	O	1.155903	-0.465863	0.123025
Cu8	Cu	1.022274	-0.435003	0.130339
Cu9	Cu	1.022309	-0.252628	0.130314
O10	O	0.970253	-0.403431	0.267395
C11	C	0.855295	-0.287653	0.136974
C12	C	0.755870	-0.254214	0.134978
C13	C	0.615750	-0.123029	0.132155
C14	C	0.709175	-0.154459	0.134030
C15	C	0.709149	-0.322578	0.134057
C16	C	0.615720	-0.291162	0.132187
C17	C	0.569028	-0.191386	0.131235
C18	C	0.568998	-0.359519	0.131268
C19	C	0.475580	-0.328104	0.129393
C20	C	0.428883	-0.228333	0.128438
C21	C	0.475610	-0.159972	0.129360
C22	C	0.615695	-0.459295	0.132213
C23	C	0.568973	-0.527652	0.131293
C24	C	0.475550	-0.496237	0.129425
C25	C	0.428853	-0.396466	0.128470
C26	C	0.428823	-0.564599	0.128502
C27	C	0.335404	-0.533185	0.126627
C28	C	0.335434	-0.365052	0.126595
N29	N	1.022255	-0.563279	0.130357
C30	C	0.936409	-0.784063	0.197084
C31	C	1.011853	-0.871239	0.215471
C32	C	1.022285	-0.752450	0.130334
C33	C	0.946855	-0.849372	0.111969
C34	C	1.022305	-0.935178	0.130315
C35	C	1.097755	-0.838274	0.148764
C36	C	1.032717	-0.816388	0.045225
C37	C	1.108230	-0.903560	0.063576
C38	C	1.022271	-0.647184	0.130348
C39	C	1.022328	-1.040445	0.130300
C40	C	1.189287	-0.399977	0.123680
C41	C	1.288712	-0.433409	0.125675
C42	C	1.085201	-0.364966	-0.041812
C43	C	1.117626	-0.375862	-0.146340
N44	N	1.022337	-0.124356	0.130289
C45	C	0.795485	-0.267541	-0.434575
C46	C	0.825976	-0.277798	-0.532799
C47	C	0.997485	-0.335478	-0.555005
C48	C	0.967008	-0.325221	-0.456782
C49	C	0.866006	-0.291254	-0.396574
C50	C	1.037529	-0.348934	-0.418780
C51	C	1.007054	-0.338683	-0.320565
C52	C	0.906057	-0.304720	-0.260351
C53	C	0.835531	-0.281003	-0.298358
C54	C	1.138530	-0.382908	-0.478990
C55	C	1.209052	-0.406621	-0.440988
C56	C	1.178577	-0.396364	-0.342771
C57	C	1.077580	-0.362400	-0.282557
C58	C	1.249103	-0.420080	-0.304764
C59	C	1.218628	-0.409829	-0.206548
C60	C	1.047105	-0.352149	-0.184342
C61	C	0.959382	-0.322664	0.302465
C62	C	0.926956	-0.311762	0.406994
H63	H	0.297354	-0.588846	0.125896
H64	H	0.297410	-0.283803	0.125831
H65	H	1.163340	-0.391245	-0.558962
H66	H	1.161539	-0.832673	0.164376
C67	C	0.839678	-0.715206	0.272321
C68	C	0.840558	-0.618428	0.270785
C69	C	0.751467	-0.554969	0.340072
H70	H	0.832338	-0.733823	0.332801
H71	H	0.785984	-0.719180	0.259872
H72	H	0.894237	-0.614458	0.283241
H73	H	0.847883	-0.599781	0.210321
H74	H	0.697773	-0.558943	0.327623
H75	H	0.744134	-0.573594	0.400547
H76	H	0.752048	-0.489297	0.339033
H77	H	0.881246	-0.296379	-0.180378
C78	C	0.999913	-0.903416	0.311505
C79	C	0.909874	-0.841894	0.381129
C80	C	0.898828	-0.871508	0.469606
H81	H	1.052834	-0.899150	0.325135
H82	H	1.000558	-0.969505	0.310667
H83	H	0.909237	-0.775822	0.381969
H84	H	0.856935	-0.846153	0.367531
H85	H	0.899473	-0.937597	0.468768
H86	H	0.951754	-0.867241	0.483226
H87	H	0.837733	-0.829776	0.516855
C88	C	1.205250	-0.972051	-0.011589
C89	C	1.283885	-0.967008	0.008077
C90	C	1.373272	-1.030101	-0.061132
H91	H	1.213231	-0.952636	-0.071930
H92	H	1.204567	-1.037696	-0.011524
H93	H	1.284569	-0.901377	0.008002
H94	H	1.275937	-0.986432	0.068405
H95	H	1.372589	-1.095746	-0.061067
H96	H	1.381243	-1.010679	-0.121469
H97	H	1.426636	-1.026694	-0.047793
C98	C	1.044213	-0.784032	-0.050660
C99	C	0.964982	-0.788649	-0.069509
C100	C	0.975520	-0.758831	-0.157822
H101	H	1.104619	-0.826374	-0.098299
H102	H	1.044683	-0.718318	-0.050134
H103	H	0.964522	-0.854352	-0.070042
H104	H	0.904565	-0.746306	-0.021893
H105	H	0.975990	-0.693118	-0.157296
H106	H	1.035929	-0.801176	-0.205453
H107	H	0.921761	-0.761951	-0.170618
C108	C	0.861663	-0.856814	0.091391
C109	C	0.771947	-0.795352	0.161490
C110	C	0.693444	-0.802165	0.142566
H111	H	0.862500	-0.922957	0.090981
H112	H	0.868424	-0.836965	0.031412
H113	H	0.765188	-0.815206	0.221454
H114	H	0.771077	-0.729202	0.161911
H115	H	0.700205	-0.782316	0.082587
H116	H	0.694291	-0.868310	0.142156
H117	H	0.632564	-0.760458	0.190120
H118	H	1.291288	-0.434281	-0.490022
H119	H	0.437585	-0.078723	0.128597
C120	C	0.937412	-0.315104	-0.119072
C121	C	0.893100	-0.220865	-0.136291
C122	C	0.792057	-0.186715	-0.076191
H123	H	0.929231	-0.312304	-0.055107
H124	H	0.907104	-0.358662	-0.130604
H125	H	0.923399	-0.177318	-0.124753
H126	H	0.901253	-0.223640	-0.200245
H127	H	0.761749	-0.230273	-0.087723
H128	H	0.783886	-0.183921	-0.012229
H129	H	0.761977	-0.122775	-0.087872
C130	C	0.725824	-0.244142	-0.233137
C131	C	0.670580	-0.225581	-0.287435
C132	C	0.569521	-0.191637	-0.227386
H133	H	0.710256	-0.185138	-0.194353
H134	H	0.710311	-0.292726	-0.194363
H135	H	0.686086	-0.177001	-0.326192
H136	H	0.686117	-0.284571	-0.326217
H137	H	0.554007	-0.240220	-0.188612
H138	H	0.553964	-0.132636	-0.188605
H139	H	0.532025	-0.179048	-0.264218
H140	H	0.607004	-0.608890	0.132065
C141	C	0.749251	-0.251943	-0.573875
C142	C	0.654280	-0.219977	-0.500123
C143	C	0.583579	-0.196140	-0.537926
H144	H	0.757428	-0.308458	-0.611706
H145	H	0.757529	-0.200922	-0.611708
H146	H	0.646005	-0.270993	-0.462306
H147	H	0.646071	-0.163456	-0.462286
H148	H	0.591857	-0.145120	-0.575759
H149	H	0.591765	-0.252659	-0.575756
H150	H	0.519133	-0.174441	-0.487891
C151	C	0.565085	-0.014645	0.131284
C152	C	0.551205	0.040746	0.212667
C153	C	0.504544	0.140588	0.211893
H154	H	0.502722	-0.005591	0.130085
H155	H	0.605225	0.006459	0.076754
H156	H	0.511064	0.019650	0.267183
H157	H	0.613552	0.031723	0.213884
H158	H	0.544685	0.161692	0.157364
H159	H	0.442185	0.149631	0.210692
H160	H	0.495129	0.178184	0.267106
H161	H	0.747210	-0.098786	0.134785
C162	C	1.107172	-0.372218	-0.620268
C163	C	1.151513	-0.307791	-0.603074
C164	C	1.252559	-0.341608	-0.663165
H165	H	1.115361	-0.374927	-0.684236
H166	H	1.137455	-0.436152	-0.608711
H167	H	1.121239	-0.243875	-0.614638
H168	H	1.143352	-0.305075	-0.539118
H169	H	1.282842	-0.405541	-0.651608
H170	H	1.260737	-0.344315	-0.727130
H171	H	1.282658	-0.297905	-0.651502
C172	C	1.358712	-0.456903	-0.370295
C173	C	1.370306	-0.460789	-0.464441
C174	C	1.471264	-0.494694	-0.524833
H175	H	1.389047	-0.520870	-0.358869
H176	H	1.388994	-0.413283	-0.358833
H177	H	1.340037	-0.504408	-0.475899
H178	H	1.339993	-0.396833	-0.475897
H179	H	1.501545	-0.451074	-0.513371
H180	H	1.501591	-0.558659	-0.513399
H181	H	1.479144	-0.497326	-0.588718
C182	C	1.295343	-0.435567	-0.165464
C183	C	1.390317	-0.467478	-0.239212
C184	C	1.461012	-0.491184	-0.201402
H185	H	1.287145	-0.486574	-0.127614
H186	H	1.287079	-0.378982	-0.127650
H187	H	1.398577	-0.524056	-0.277011
H188	H	1.398546	-0.416486	-0.277069
H189	H	1.452749	-0.434600	-0.163588
H190	H	1.452806	-0.542189	-0.163552
H191	H	1.525460	-0.512830	-0.251434
H192	H	0.691762	-0.484869	0.133740
C193	C	0.327367	-0.194247	0.126598
C194	C	0.259815	-0.217316	0.206940
C195	C	0.166287	-0.185918	0.205284
H196	H	0.330911	-0.226508	0.071378
H197	H	0.306193	-0.125027	0.126213
H198	H	0.280983	-0.286522	0.207316
H199	H	0.256240	-0.185056	0.262173
H200	H	0.145113	-0.116698	0.204900
H201	H	0.169842	-0.218182	0.150061
H202	H	0.120440	-0.201557	0.259799
C203	C	0.759890	-0.430945	0.134896
C204	C	0.773804	-0.486340	0.053499
C205	C	0.820552	-0.586169	0.054235
H206	H	0.719816	-0.452119	0.189398
H207	H	0.822250	-0.439913	0.136092
H208	H	0.711454	-0.477377	0.052312
H209	H	0.813886	-0.465196	-0.001016
H210	H	0.882913	-0.595138	0.055430
H211	H	0.780474	-0.607334	0.108740
H212	H	0.830008	-0.623766	-0.000996
H213	H	0.466858	-0.645838	0.129268
H214	H	0.713239	-0.239874	-0.385550
