data_functionalizedCrystal
_audit_creation_method	'MofGen! by Chris Wilmer'
_symmetry_space_group_name_H-M	'P1'
_symmetry_Int_Tables_number	1
_symmetry_cell_setting	triclinic
loop_
_symmetry_equiv_pos_as_xyz
  x,y,z
_cell_length_a	19.076806
_cell_length_b	25.639242
_cell_length_c	19.077271
_cell_angle_alpha	87.709081
_cell_angle_beta	90.108511
_cell_angle_gamma	92.314234
loop_
_atom_site_label
_atom_site_type_symbol
_atom_site_fract_x
_atom_site_fract_y
_atom_site_fract_z
Zn1	Zn	-0.295985	0.778888	0.386055
Zn2	Zn	0.037348	1.112222	0.719389
Zn3	Zn	0.370681	1.445555	1.052722
Zn4	Zn	-0.408748	0.779129	0.263823
Zn5	Zn	-0.075414	1.112462	0.597156
Zn6	Zn	0.257919	1.445795	0.930490
Zn7	Zn	-0.291238	0.695124	0.268564
Zn8	Zn	0.042095	1.028457	0.601897
Zn9	Zn	0.375428	1.361791	0.935230
Zn10	Zn	-0.413444	0.688070	0.381287
Zn11	Zn	-0.080111	1.021403	0.714621
Zn12	Zn	0.253223	1.354737	1.047954
O13	O	-0.352354	0.735303	0.324932
O14	O	-0.019020	1.068636	0.658266
O15	O	0.314313	1.401969	0.991599
O16	O	-0.310965	0.852085	0.369853
O17	O	0.022369	1.185418	0.703186
O18	O	0.355702	1.518751	1.036519
O19	O	-0.389208	0.771038	0.166122
O20	O	-0.055874	1.104371	0.499455
O21	O	0.277459	1.437705	0.832789
O22	O	-0.193533	0.709087	0.288128
O23	O	0.139800	1.042420	0.621462
O24	O	0.473134	1.375754	0.954795
O25	O	-0.393811	0.852261	0.280049
O26	O	-0.060477	1.185594	0.613382
O27	O	0.272856	1.518928	0.946716
O28	O	-0.197021	0.770628	0.374449
O29	O	0.136313	1.103962	0.707783
O30	O	0.469646	1.437295	1.041116
O31	O	-0.302874	0.709320	0.169605
O32	O	0.030459	1.042653	0.502938
O33	O	0.363793	1.375987	0.836272
O34	O	-0.307428	0.621024	0.283505
O35	O	0.025905	0.954357	0.616838
O36	O	0.359239	1.287691	0.950172
O37	O	-0.401815	0.697065	0.480250
O38	O	-0.068481	1.030398	0.813583
O39	O	0.264852	1.363731	1.146916
O40	O	-0.397212	0.615841	0.366323
O41	O	-0.063878	0.949175	0.699656
O42	O	0.269455	1.282508	1.032989
O43	O	-0.315518	0.763789	0.483753
O44	O	0.017815	1.097122	0.817086
O45	O	0.351148	1.430455	1.150419
O46	O	-0.507706	0.764198	0.275426
O47	O	-0.174372	1.097531	0.608759
O48	O	0.158961	1.430865	0.942092
O49	O	-0.511156	0.697298	0.361726
O50	O	-0.177823	1.030631	0.695059
O51	O	0.155511	1.363964	1.028393
C52	C	-0.352315	0.599462	0.324911
C53	C	-0.018982	0.932795	0.658244
C54	C	0.314352	1.266129	0.991578
C55	C	-0.352316	0.541348	0.324918
C56	C	-0.018982	0.874681	0.658251
C57	C	0.314351	1.208014	0.991585
C58	C	-0.309299	0.290064	0.371772
C59	C	0.024034	0.623397	0.705105
C60	C	0.357368	0.956731	1.038438
C61	C	-0.309292	0.344669	0.371768
C62	C	0.024041	0.678002	0.705101
C63	C	0.357375	1.011335	1.038435
O64	O	-0.272686	0.372830	0.411601
O65	O	0.060647	0.706163	0.744934
O66	O	0.393980	1.039496	1.078268
N67	N	-0.352346	0.372072	0.324941
N68	N	-0.019013	0.705406	0.658274
N69	N	0.314321	1.038739	0.991607
C70	C	-0.395415	0.344868	0.278119
C71	C	-0.062082	0.678201	0.611452
C72	C	0.271251	1.011535	0.944785
O73	O	-0.432036	0.373191	0.238289
O74	O	-0.098703	0.706524	0.571622
O75	O	0.234631	1.039858	0.904955
C76	C	-0.395425	0.290264	0.278126
C77	C	-0.062092	0.623598	0.611460
C78	C	0.271241	0.956931	0.944793
C79	C	-0.352363	0.262864	0.324952
C80	C	-0.019030	0.596197	0.658285
C81	C	0.314303	0.929530	0.991619
C82	C	-0.266241	0.262663	0.418594
C83	C	0.067092	0.595997	0.751927
C84	C	0.400426	0.929330	1.085261
C85	C	-0.266247	0.208063	0.418597
C86	C	0.067086	0.541396	0.751930
C87	C	0.400420	0.874729	1.085263
C88	C	-0.309312	0.180862	0.371777
C89	C	0.024022	0.514196	0.705110
C90	C	0.357355	0.847529	1.038444
C91	C	-0.352370	0.208263	0.324955
C92	C	-0.019036	0.541596	0.658288
C93	C	0.314297	0.874930	0.991621
C94	C	-0.438498	0.263061	0.231309
C95	C	-0.105165	0.596394	0.564642
C96	C	0.228169	0.929728	0.897975
C97	C	-0.438505	0.208453	0.231321
C98	C	-0.105172	0.541787	0.564654
C99	C	0.228162	0.875120	0.897987
C100	C	-0.395443	0.181053	0.278146
C101	C	-0.062109	0.514386	0.611480
C102	C	0.271224	0.847719	0.944813
C103	C	-0.395440	0.126462	0.278138
C104	C	-0.062107	0.459795	0.611471
C105	C	0.271226	0.793129	0.944804
N106	N	-0.352386	0.099058	0.324965
N107	N	-0.019053	0.432392	0.658298
N108	N	0.314281	0.765725	0.991632
C109	C	-0.309322	0.126259	0.371785
C110	C	0.024012	0.459592	0.705118
C111	C	0.357345	0.792925	1.038451
C112	C	-0.395391	0.459540	0.278107
C113	C	-0.062058	0.792873	0.611440
C114	C	0.271275	1.126206	0.944774
C115	C	-0.395378	0.514143	0.278095
C116	C	-0.062044	0.847476	0.611429
C117	C	0.271289	1.180810	0.944762
C118	C	-0.309255	0.513940	0.371746
C119	C	0.024078	0.847273	0.705079
C120	C	0.357411	1.180606	1.038413
C121	C	-0.309265	0.459336	0.371754
C122	C	0.024068	0.792669	0.705087
C123	C	0.357401	1.126002	1.038420
C124	C	-0.352337	0.432136	0.324934
C125	C	-0.019004	0.765470	0.658268
C126	C	0.314330	1.098803	0.991601
C127	C	-0.309338	0.011593	0.371786
C128	C	0.023996	0.344926	0.705120
C129	C	0.357329	0.678260	1.038453
C130	C	-0.309346	-0.043013	0.371783
C131	C	0.023988	0.290321	0.705116
C132	C	0.357321	0.623654	1.038450
C133	C	-0.395471	-0.042805	0.278135
C134	C	-0.062137	0.290529	0.611469
C135	C	0.271196	0.623862	0.944802
C136	C	-0.395460	0.011796	0.278136
C137	C	-0.062127	0.345130	0.611469
C138	C	0.271206	0.678463	0.944803
C139	C	-0.352392	0.038994	0.324967
C140	C	-0.019058	0.372327	0.658301
C141	C	0.314275	0.705660	0.991634
O142	O	-0.432029	0.098266	0.238327
O143	O	-0.098696	0.431599	0.571660
O144	O	0.234638	0.764933	0.904994
O145	O	-0.272714	0.097929	0.411615
O146	O	0.060619	0.431262	0.744948
O147	O	0.393953	0.764595	1.078281
C148	C	-0.534928	0.730022	0.317559
C149	C	-0.201595	1.063356	0.650893
C150	C	0.131738	1.396689	0.984226
C151	C	-0.613036	0.727810	0.314429
C152	C	-0.279702	1.061144	0.647762
C153	C	0.053631	1.394477	0.981095
C154	C	-1.052509	0.711908	0.292000
C155	C	-0.719176	1.045241	0.625334
C156	C	-0.385842	1.378575	0.958667
C157	C	-0.979119	0.713987	0.294942
C158	C	-0.645786	1.047321	0.628275
C159	C	-0.312452	1.380654	0.961608
C160	C	-0.944182	0.747045	0.341390
C161	C	-0.610848	1.080378	0.674724
C162	C	-0.277515	1.413711	1.008057
C163	C	-0.982639	0.778020	0.384905
C164	C	-0.649305	1.111354	0.718238
C165	C	-0.315972	1.444687	1.051572
C166	C	-1.056028	0.775938	0.381967
C167	C	-0.722694	1.109271	0.715300
C168	C	-0.389361	1.442605	1.048633
C169	C	-0.724881	0.756704	0.355005
C170	C	-0.391548	1.090037	0.688338
C171	C	-0.058215	1.423370	1.021672
C172	C	-0.651487	0.758785	0.357939
C173	C	-0.318154	1.092118	0.691272
C174	C	0.015179	1.425452	1.024605
C175	C	-0.647973	0.694751	0.267976
C176	C	-0.314639	1.028084	0.601309
C177	C	0.018694	1.361418	0.934643
C178	C	-0.721363	0.692674	0.265039
C179	C	-0.388030	1.026007	0.598372
C180	C	-0.054696	1.359340	0.931705
C181	C	-0.759814	0.723647	0.308556
C182	C	-0.426480	1.056981	0.641889
C183	C	-0.093147	1.390314	0.975223
N184	N	-0.869165	0.749172	0.344397
N185	N	-0.535832	1.082505	0.677730
N186	N	-0.202499	1.415839	1.011063
N187	N	-0.834829	0.721517	0.305553
N188	N	-0.501495	1.054850	0.638886
N189	N	-0.168162	1.388183	0.972219
C190	C	-0.169067	0.740618	0.332349
C191	C	0.164267	1.073951	0.665683
C192	C	0.497600	1.407284	0.999016
C193	C	-0.090961	0.742883	0.335510
C194	C	0.242373	1.076216	0.668844
C195	C	0.575706	1.409549	1.002177
C196	C	-0.359720	0.729613	0.508210
C197	C	-0.026387	1.062946	0.841543
C198	C	0.306947	1.396280	1.174876
C199	C	-0.362859	0.727188	0.586312
C200	C	-0.029526	1.060522	0.919645
C201	C	0.303808	1.393855	1.252978
C202	C	-0.352393	0.871674	0.324954
C203	C	-0.019060	1.205007	0.658287
C204	C	0.314273	1.538341	0.991621
C205	C	-0.352410	0.929787	0.324963
C206	C	-0.019077	1.263120	0.658297
C207	C	0.314257	1.596454	0.991630
C208	C	-0.319406	0.760787	0.624829
C209	C	0.013928	1.094120	0.958163
C210	C	0.347261	1.427454	1.291496
C211	C	-0.322352	0.758503	0.698214
C212	C	0.010981	1.091836	1.031548
C213	C	0.344314	1.425169	1.364881
C214	C	-0.368756	0.722621	0.733081
C215	C	-0.035423	1.055955	1.066414
C216	C	0.297910	1.389288	1.399747
C217	C	-0.412211	0.689019	0.694558
C218	C	-0.078878	1.022353	1.027891
C219	C	0.254455	1.355686	1.361225
C220	C	-0.409261	0.691302	0.621174
C221	C	-0.075927	1.024635	0.954508
C222	C	0.257406	1.357968	1.287841
C223	C	-0.382396	0.712068	0.952359
C224	C	-0.049063	1.045401	1.285692
C225	C	0.284271	1.378735	1.619025
C226	C	-0.385345	0.709789	1.025748
C227	C	-0.052012	1.043123	1.359081
C228	C	0.281322	1.376456	1.692414
C229	C	-0.295485	0.779272	1.029399
C230	C	0.037849	1.112606	1.362732
C231	C	0.371182	1.445939	1.696066
C232	C	-0.292541	0.781554	0.956014
C233	C	0.040792	1.114887	1.289347
C234	C	0.374126	1.448220	1.622680
C235	C	-0.335993	0.747949	0.917498
C236	C	-0.002660	1.081283	1.250831
C237	C	0.330673	1.414616	1.584164
N238	N	-0.371771	0.720287	0.808092
N239	N	-0.038438	1.053620	1.141425
N240	N	0.294896	1.386953	1.474759
N241	N	-0.332975	0.750282	0.842488
N242	N	0.000359	1.083615	1.175821
N243	N	0.333692	1.416949	1.509154
C244	C	-0.345032	0.740965	1.142367
C245	C	-0.011698	1.074299	1.475700
C246	C	0.321635	1.407632	1.809034
C247	C	-0.341892	0.743388	1.064265
C248	C	-0.008558	1.076721	1.397598
C249	C	0.324775	1.410055	1.730932
H250	H	-0.231172	0.284804	0.456724
H251	H	0.102161	0.618137	0.790057
H252	H	0.435494	0.951471	1.123391
N253	N	-0.439437	0.039781	0.230289
N254	N	-0.106104	0.373114	0.563623
N255	N	0.227230	0.706448	0.896956
N256	N	-0.477878	0.015486	0.188484
N257	N	-0.144544	0.348819	0.521817
N258	N	0.188789	0.682153	0.855151
H259	H	-0.508940	0.035246	0.154693
H260	H	-0.175607	0.368580	0.488026
H261	H	0.157727	0.701913	0.821360
H262	H	-1.080949	0.684991	0.254174
H263	H	-0.747616	1.018324	0.587508
H264	H	-0.414283	1.351658	0.920841
N265	N	-0.482490	0.180672	0.183482
N266	N	-0.149157	0.514005	0.516815
N267	N	0.184177	0.847338	0.850149
N268	N	-0.455903	0.152302	0.139745
N269	N	-0.122569	0.485635	0.473079
N270	N	0.210764	0.818968	0.806412
H271	H	-0.486965	0.132682	0.105957
H272	H	-0.153631	0.466015	0.439291
H273	H	0.179702	0.799348	0.772624
N274	N	-0.946939	0.811784	0.432346
N275	N	-0.613606	1.145118	0.765679
N276	N	-0.280272	1.478451	1.099012
N277	N	-0.904974	0.847043	0.409305
N278	N	-0.571641	1.180376	0.742638
N279	N	-0.238307	1.513710	1.075971
H280	H	-0.879760	0.870889	0.442810
H281	H	-0.546426	1.204223	0.776143
H282	H	-0.213093	1.537556	1.109477
H283	H	-0.430530	-0.064961	0.240013
H284	H	-0.097196	0.268373	0.573347
H285	H	0.236137	0.601706	0.906680
H286	H	-0.444638	0.663937	0.589814
H287	H	-0.111304	0.997270	0.923148
H288	H	0.222029	1.330603	1.256481
N289	N	-0.764165	0.788339	0.399446
N290	N	-0.430832	1.121672	0.732779
N291	N	-0.097499	1.455005	1.066113
N292	N	-0.806914	0.767369	0.442561
N293	N	-0.473581	1.100702	0.775895
N294	N	-0.140247	1.434036	1.109228
H295	H	-0.834664	0.789713	0.473948
H296	H	-0.501330	1.123046	0.807281
H297	H	-0.167997	1.456380	1.140615
H298	H	-0.417788	0.684712	0.921007
H299	H	-0.084455	1.018046	1.254341
H300	H	0.248879	1.351379	1.587674
N301	N	-0.939853	0.682342	0.250495
N302	N	-0.606520	1.015675	0.583828
N303	N	-0.273186	1.349009	0.917162
N304	N	-0.971055	0.652830	0.209024
N305	N	-0.637722	0.986164	0.542358
N306	N	-0.304388	1.319497	0.875691
H307	H	-0.943324	0.630478	0.177632
H308	H	-0.609991	0.963812	0.510965
H309	H	-0.276657	1.297145	0.844299
N310	N	-0.277961	0.792827	0.737548
N311	N	0.055372	1.126160	1.070881
N312	N	0.388706	1.459493	1.404215
N313	N	-0.236536	0.824863	0.706409
N314	N	0.096797	1.158197	1.039742
N315	N	0.430131	1.491530	1.373076
H316	H	-0.205182	0.849107	0.734188
H317	H	0.128151	1.182440	1.067521
H318	H	0.461485	1.515774	1.400854
H319	H	-1.087334	0.801156	0.417403
H320	H	-0.754001	1.134490	0.750736
H321	H	-0.420668	1.467823	1.084069
H322	H	-0.430435	0.536448	0.239958
H323	H	-0.097102	0.869782	0.573291
H324	H	0.236231	1.203115	0.906625
N325	N	-0.251086	0.813583	1.068745
N326	N	0.082247	1.146917	1.402078
N327	N	0.415581	1.480250	1.735412
N328	N	-0.185914	0.812245	1.063172
N329	N	0.147419	1.145578	1.396505
N330	N	0.480752	1.478912	1.729838
H331	H	-0.154552	0.836476	1.090960
H332	H	0.178781	1.169810	1.424293
H333	H	0.512114	1.503143	1.757627
H334	H	-0.274267	0.033731	0.409921
H335	H	0.059066	0.367064	0.743254
H336	H	0.392400	0.700397	1.076587
N337	N	-0.432724	0.673126	1.061378
N338	N	-0.099391	1.006459	1.394711
N339	N	0.233943	1.339792	1.728045
N340	N	-0.409611	0.639265	1.103322
N341	N	-0.076278	0.972598	1.436655
N342	N	0.257055	1.305931	1.769989
H343	H	-0.443067	0.613372	1.128492
H344	H	-0.109733	0.946705	1.461825
H345	H	0.223600	1.280039	1.795159
N346	N	-0.459603	0.652366	0.730182
N347	N	-0.126269	0.985700	1.063515
N348	N	0.207064	1.319033	1.396848
N349	N	-0.462232	0.650333	0.795702
N350	N	-0.128899	0.983666	1.129036
N351	N	0.204435	1.316999	1.462369
H352	H	-0.495704	0.624446	0.820862
H353	H	-0.162370	0.957780	1.154195
H354	H	0.170963	1.291113	1.487529
N355	N	-0.482480	0.291040	0.183470
N356	N	-0.149147	0.624373	0.516803
N357	N	0.184187	0.957707	0.850137
N358	N	-0.475120	0.287076	0.118832
N359	N	-0.141787	0.620409	0.452166
N360	N	0.191547	0.953742	0.785499
H361	H	-0.506186	0.306835	0.085043
H362	H	-0.172852	0.640168	0.418377
H363	H	0.160481	0.973501	0.751710
N364	N	-0.265351	-0.070993	0.419619
N365	N	0.067983	0.262341	0.752953
N366	N	0.401316	0.595674	1.086286
N367	N	-0.226906	-0.046696	0.461420
N368	N	0.106427	0.286637	0.794753
N369	N	0.439760	0.619971	1.128086
H370	H	-0.195836	-0.066455	0.495205
H371	H	0.137497	0.266879	0.828538
H372	H	0.470831	0.600212	1.161871
N373	N	-0.757038	0.658890	0.217605
N374	N	-0.423704	0.992223	0.550939
N375	N	-0.090371	1.325557	0.884272
N376	N	-0.722697	0.631226	0.178773
N377	N	-0.389364	0.964559	0.512106
N378	N	-0.056031	1.297893	0.845439
H379	H	-0.747892	0.607361	0.145277
H380	H	-0.414559	0.940694	0.478611
H381	H	-0.081226	1.274028	0.811944
H382	H	-0.616660	0.669533	0.232547
H383	H	-0.283326	1.002866	0.565880
H384	H	0.050007	1.336200	0.899213
N385	N	-0.615809	0.792559	0.405388
N386	N	-0.282476	1.125893	0.738721
N387	N	0.050857	1.459226	1.072055
N388	N	-0.650147	0.820213	0.444237
N389	N	-0.316814	1.153546	0.777570
N390	N	0.016520	1.486880	1.110904
H391	H	-0.624950	0.844067	0.477745
H392	H	-0.291617	1.177400	0.811078
H393	H	0.041717	1.510733	1.144412
N394	N	-0.272002	0.797432	0.589207
N395	N	0.061331	1.130765	0.922540
N396	N	0.394664	1.464099	1.255874
N397	N	-0.269370	0.799465	0.523686
N398	N	0.063963	1.132799	0.857020
N399	N	0.397296	1.466132	1.190353
H400	H	-0.235889	0.825345	0.498528
H401	H	0.097444	1.158679	0.831862
H402	H	0.430778	1.492012	1.165195
N403	N	-0.222247	0.180087	0.466425
N404	N	0.111087	0.513420	0.799758
N405	N	0.444420	0.846753	1.133092
N406	N	-0.183798	0.204388	0.508216
N407	N	0.149536	0.537722	0.841549
N408	N	0.482869	0.871055	1.174883
H409	H	-0.152717	0.184634	0.541996
H410	H	0.180616	0.517967	0.875329
H411	H	0.513950	0.851301	1.208662
N412	N	-0.265280	0.431357	0.419594
N413	N	0.068053	0.764690	0.752927
N414	N	0.401386	1.098024	1.086261
N415	N	-0.226837	0.455656	0.461393
N416	N	0.106496	0.788989	0.794726
N417	N	0.439830	1.122323	1.128059
H418	H	-0.195773	0.435899	0.495186
H419	H	0.137560	0.769232	0.828519
H420	H	0.470894	1.102565	1.161852
H421	H	-0.254756	0.810773	0.927631
H422	H	0.078577	1.144106	1.260964
H423	H	0.411911	1.477440	1.594297
H424	H	-0.274190	0.536096	0.409869
H425	H	0.059143	0.869429	0.743203
H426	H	0.392477	1.202763	1.076536
H427	H	-0.430464	0.437398	0.239975
H428	H	-0.097130	0.770731	0.573309
H429	H	0.236203	1.104064	0.906642
