data_functionalizedCrystal
_audit_creation_method	'MofGen! by Chris Wilmer'
_symmetry_space_group_name_H-M	'P1'
_symmetry_Int_Tables_number	1
_symmetry_cell_setting	triclinic
loop_
_symmetry_equiv_pos_as_xyz
  x,y,z
_cell_length_a	15.944551
_cell_length_b	14.044220
_cell_length_c	12.503572
_cell_angle_alpha	86.156832
_cell_angle_beta	86.485927
_cell_angle_gamma	91.656192
loop_
_atom_site_label
_atom_site_type_symbol
_atom_site_fract_x
_atom_site_fract_y
_atom_site_fract_z
O1	O	1.128105	-0.116774	-0.089210
O2	O	1.628105	0.383226	0.410790
O3	O	0.884686	-0.131845	-0.089237
O4	O	1.384686	0.368155	0.410763
O5	O	1.002741	0.013675	-0.089213
O6	O	1.502741	0.513675	0.410787
O7	O	1.010050	-0.262294	-0.089234
O8	O	1.510050	0.237706	0.410766
O9	O	0.993864	0.002713	0.089427
O10	O	1.493864	0.502713	0.589427
O11	O	0.875808	-0.142807	0.089403
O12	O	1.375808	0.357193	0.589403
O13	O	1.119228	-0.127736	0.089430
O14	O	1.619228	0.372264	0.589430
Cu15	Cu	0.996708	-0.136272	0.105728
Cu16	Cu	1.496708	0.363728	0.605728
Cu17	Cu	1.007206	-0.123309	-0.105535
Cu18	Cu	1.507206	0.376691	0.394465
O19	O	1.001173	-0.273256	0.089406
O20	O	1.501173	0.226744	0.589406
C21	C	0.848906	-0.136700	0.000080
C22	C	1.348906	0.363300	0.500080
C23	C	0.755520	-0.134823	0.000070
C24	C	1.255520	0.365177	0.500070
N25	N	0.989330	-0.145390	0.254319
N26	N	1.489330	0.354610	0.754319
C27	C	0.995104	0.043508	0.000107
C28	C	1.495104	0.543508	0.500107
C29	C	0.985563	0.148735	0.000107
C30	C	1.485563	0.648735	0.500107
C31	C	0.533573	-0.040141	0.000097
C32	C	1.033573	0.459859	0.500097
C33	C	0.480222	-0.078704	-0.087985
C34	C	0.980222	0.421296	0.412015
C35	C	0.584540	-0.131431	0.000083
C36	C	1.084540	0.368569	0.500083
C37	C	0.471493	-0.089533	0.088140
C38	C	0.971493	0.410467	0.588140
C39	C	0.419380	-0.128147	0.000100
C40	C	0.919380	0.371853	0.500100
C41	C	0.532423	-0.170014	-0.088073
C42	C	1.032423	0.329986	0.411927
C43	C	0.523696	-0.180836	0.088132
C44	C	1.023696	0.319164	0.588132
C45	C	0.470368	-0.219464	0.000028
C46	C	0.970368	0.280536	0.500028
C47	C	0.679684	-0.133320	0.000072
C48	C	1.179684	0.366680	0.500072
C49	C	0.324238	-0.126264	0.000103
C50	C	0.824238	0.373736	0.500103
C51	C	1.155007	-0.122881	0.000111
C52	C	1.655007	0.377119	0.500111
C53	C	1.248394	-0.124757	0.000114
C54	C	1.748394	0.375243	0.500114
C55	C	1.008810	-0.303089	0.000084
C56	C	1.508810	0.196911	0.500084
C57	C	1.018352	-0.408315	0.000076
C58	C	1.518352	0.091685	0.500076
C59	C	0.968120	0.341398	0.000090
C60	C	1.468120	0.841398	0.500090
C61	C	1.035790	0.399027	0.000094
C62	C	1.535790	0.899027	0.500094
C63	C	1.026085	0.506232	0.000084
C64	C	1.526085	1.006232	0.500084
C65	C	0.977824	0.234184	0.000099
C66	C	1.477824	0.734184	0.500099
N67	N	1.014590	-0.114183	-0.254126
N68	N	1.514590	0.385817	0.245874
C69	C	0.978477	-0.158810	0.473432
C70	C	1.478477	0.341190	0.973432
C71	C	1.025440	-0.100766	0.526768
C72	C	1.525440	0.399234	1.026768
C73	C	1.019401	-0.108234	0.648690
C74	C	1.519401	0.391766	1.148690
C75	C	0.984515	-0.151344	0.351499
C76	C	1.484515	0.348656	0.851499
H77	H	0.460921	-0.035522	-0.162447
H78	H	0.960921	0.464478	0.337553
C79	C	0.568323	-0.215977	-0.188768
C80	C	1.068323	0.284023	0.311232
H81	H	0.627849	-0.216863	-0.188173
H82	H	1.127849	0.283137	0.311827
H83	H	0.546153	-0.279470	-0.189001
H84	H	1.046153	0.220530	0.310999
H85	H	0.553126	-0.179944	-0.251253
H86	H	1.053126	0.320056	0.248747
H87	H	0.933740	-0.214108	0.519330
H88	H	1.433740	0.285892	1.019330
H89	H	1.101018	0.367856	0.000029
H90	H	1.601018	0.867856	0.500029
H91	H	1.070181	-0.045466	0.480864
H92	H	1.570181	0.454534	0.980864
H93	H	0.561238	0.035630	-0.000006
H94	H	1.061238	0.535630	0.499994
C95	C	0.880012	0.383503	0.000078
C96	C	1.380012	0.883503	0.500078
H97	H	0.838827	0.333250	0.000071
H98	H	1.338827	0.833250	0.500071
H99	H	0.870330	0.417803	0.062369
H100	H	1.370330	0.917803	0.562369
H101	H	0.876521	0.425430	-0.062230
H102	H	1.376521	0.925430	0.437770
H103	H	0.543015	-0.223986	0.162597
H104	H	1.043015	0.276014	0.662597
C105	C	0.433240	-0.321909	-0.000044
C106	C	0.933240	0.178091	0.499956
H107	H	0.454279	-0.350338	-0.062671
H108	H	0.954279	0.149662	0.437329
H109	H	0.448833	-0.358380	0.061928
H110	H	0.948833	0.141620	0.561928
H111	H	0.373695	-0.320205	0.000542
H112	H	0.873695	0.179795	0.500542
C113	C	0.435455	-0.043529	0.188737
C114	C	0.935455	0.456471	0.688737
H115	H	0.457207	0.020175	0.188625
H116	H	0.957207	0.520175	0.688625
H117	H	0.375905	-0.043193	0.188367
H118	H	0.875905	0.456807	0.688367
H119	H	0.451037	-0.079177	0.251283
H120	H	0.951037	0.420823	0.751283
