data_functionalizedCrystal
_audit_creation_method	'MofGen! by Chris Wilmer'
_symmetry_space_group_name_H-M	'P1'
_symmetry_Int_Tables_number	1
_symmetry_cell_setting	triclinic
loop_
_symmetry_equiv_pos_as_xyz
  x,y,z
_cell_length_a	34.408637
_cell_length_b	34.407814
_cell_length_c	34.404193
_cell_angle_alpha	60.004510
_cell_angle_beta	60.009006
_cell_angle_gamma	59.994604
loop_
_atom_site_label
_atom_site_type_symbol
_atom_site_fract_x
_atom_site_fract_y
_atom_site_fract_z
O1	O	0.053973	-0.567860	0.474801
O2	O	0.553973	-0.067860	0.974801
O3	O	0.020377	-0.442124	0.382567
O4	O	0.520377	0.057876	0.882567
O5	O	0.100004	-0.521670	0.382483
O6	O	0.600004	-0.021670	0.882483
O7	O	-0.025653	-0.488314	0.474886
O8	O	0.474347	0.011686	0.974886
O9	O	0.126426	-0.495253	0.408816
O10	O	0.626426	0.004747	0.908816
O11	O	0.046800	-0.415707	0.408900
O12	O	0.546800	0.084293	0.908900
O13	O	0.080396	-0.541443	0.501134
O14	O	0.580396	-0.041443	1.001134
Zn15	Zn	0.067793	-0.474381	0.459198
Zn16	Zn	0.567793	0.025619	0.959198
Zn17	Zn	0.032980	-0.509186	0.424503
Zn18	Zn	0.532980	-0.009186	0.924503
O19	O	0.000769	-0.461897	0.501219
O20	O	0.500769	0.038103	1.001219
N21	N	0.091552	-0.450631	0.482879
N22	N	0.591552	0.049369	0.982879
N23	N	0.009225	-0.532940	0.400823
N24	N	0.509225	-0.032940	0.900823
C25	C	0.142848	-0.268847	0.534081
C26	C	0.642848	0.231153	1.034081
C27	C	0.142979	-0.399386	0.664559
C28	C	0.642979	0.100614	1.164559
C29	C	0.142862	-0.399365	0.534081
C30	C	0.642862	0.100635	1.034081
C31	C	0.273409	-0.399338	0.533986
C32	C	0.773409	0.100662	1.033986
C33	C	0.157225	-0.311914	0.548422
C34	C	0.657225	0.188086	1.048422
C35	C	0.157300	-0.385019	0.621491
C36	C	0.657300	0.114981	1.121491
C37	C	0.230339	-0.384991	0.548370
C38	C	0.730339	0.115009	1.048370
C39	C	0.157235	-0.385007	0.548422
C40	C	0.657235	0.114993	1.048422
C41	C	0.124548	-0.214028	0.515827
C42	C	0.624548	0.285972	1.015827
C43	C	0.124571	-0.417639	0.515827
C44	C	0.624571	0.082361	1.015827
C45	C	0.175526	-0.366733	0.566676
C46	C	0.675526	0.133267	1.066676
C47	C	0.353121	-0.385580	0.491988
C48	C	0.853121	0.114420	0.991988
C49	C	0.402952	-0.402180	0.475348
C50	C	0.902952	0.097820	0.975348
C51	C	0.402981	-0.482812	0.506096
C52	C	0.902981	0.017188	1.006096
C53	C	0.353151	-0.466211	0.522737
C54	C	0.853151	0.033789	1.022737
C55	C	0.136544	-0.189099	0.466839
C56	C	0.636544	0.310901	0.966839
C57	C	0.119905	-0.139265	0.450247
C58	C	0.619905	0.360735	0.950247
C59	C	0.079280	-0.139291	0.531632
C60	C	0.579280	0.360709	1.031632
C61	C	0.095918	-0.189125	0.548224
C62	C	0.595918	0.310875	1.048224
C63	C	0.075577	-0.405615	0.527900
C64	C	0.575577	0.094385	1.027900
C65	C	0.058953	-0.422228	0.511301
C66	C	0.558953	0.077772	1.011301
C67	C	0.140315	-0.462889	0.470566
C68	C	0.640315	0.037111	0.970566
C69	C	0.156941	-0.446276	0.487159
C70	C	0.656941	0.053724	0.987159
C71	C	0.075772	-0.405653	0.744326
C72	C	0.575772	0.094347	1.244326
C73	C	0.059206	-0.422280	0.794159
C74	C	0.559206	0.077720	1.294159
C75	C	0.140607	-0.462951	0.794094
C76	C	0.640607	0.037049	1.294094
C77	C	0.157172	-0.446325	0.744260
C78	C	0.657172	0.053675	1.244260
C79	C	0.124753	-0.417674	0.719377
C80	C	0.624753	0.082326	1.219377
C81	C	0.328223	-0.417595	0.515681
C82	C	0.828223	0.082405	1.015681
C83	C	-0.172390	-0.583988	0.349141
C84	C	0.327610	-0.083988	0.849141
C85	C	-0.041751	-0.584138	0.218783
C86	C	0.458249	-0.084138	0.718783
C87	C	-0.041941	-0.584130	0.349402
C88	C	0.458059	-0.084130	0.849402
C89	C	-0.041957	-0.714607	0.349338
C90	C	0.458043	-0.214607	0.849338
C91	C	-0.129326	-0.598388	0.334853
C92	C	0.370674	-0.098388	0.834853
C93	C	-0.056165	-0.598473	0.261852
C94	C	0.443835	-0.098473	0.761852
C95	C	-0.056282	-0.671535	0.334962
C96	C	0.443718	-0.171535	0.834962
C97	C	-0.056272	-0.598469	0.334999
C98	C	0.443728	-0.098469	0.834999
C99	C	-0.227205	-0.565659	0.367327
C100	C	0.272795	-0.065659	0.867327
C101	C	-0.023703	-0.565882	0.367734
C102	C	0.476297	-0.065882	0.867734
C103	C	-0.074511	-0.616717	0.316667
C104	C	0.425489	-0.116717	0.816667
C105	C	-0.055754	-0.794298	0.391257
C106	C	0.444246	-0.294298	0.891257
C107	C	-0.039181	-0.844132	0.407888
C108	C	0.460819	-0.344132	0.907888
C109	C	0.041447	-0.844215	0.377269
C110	C	0.541447	-0.344215	0.877269
C111	C	0.024873	-0.794381	0.360637
C112	C	0.524873	-0.294381	0.860637
C113	C	-0.252183	-0.577666	0.416302
C114	C	0.247817	-0.077666	0.916302
C115	C	-0.302014	-0.561001	0.432833
C116	C	0.197986	-0.061001	0.932833
C117	C	-0.301886	-0.520329	0.351410
C118	C	0.198114	-0.020329	0.851410
C119	C	-0.252055	-0.536994	0.334880
C120	C	0.247945	-0.036994	0.834880
C121	C	-0.035709	-0.516892	0.355682
C122	C	0.464291	-0.016892	0.855682
C123	C	-0.019129	-0.500308	0.372353
C124	C	0.480871	-0.000308	0.872353
C125	C	0.021465	-0.581700	0.413115
C126	C	0.521465	-0.081700	0.913115
C127	C	0.004884	-0.598286	0.396450
C128	C	0.504884	-0.098286	0.896450
C129	C	-0.035389	-0.516907	0.139026
C130	C	0.464611	-0.016907	0.639026
C131	C	-0.018707	-0.500324	0.089193
C132	C	0.481293	-0.000324	0.589193
C133	C	0.021949	-0.581721	0.089240
C134	C	0.521949	-0.081721	0.589240
C135	C	0.005268	-0.598303	0.139074
C136	C	0.505268	-0.098303	0.639074
C137	C	-0.023402	-0.565894	0.163965
C138	C	0.476598	-0.065894	0.663965
C139	C	-0.023728	-0.769425	0.367633
C140	C	0.476272	-0.269425	0.867633
N141	N	0.427173	-0.450553	0.482630
N142	N	0.927173	0.049447	0.982630
O143	O	0.589997	-0.458460	0.365361
O144	O	1.089997	0.041540	0.865361
O145	O	0.590185	-0.550997	0.490963
O146	O	1.090185	-0.050997	0.990963
O147	O	0.590104	-0.550786	0.411309
O148	O	1.090104	-0.050786	0.911309
O149	O	0.590077	-0.458671	0.445016
O150	O	1.090077	0.041329	0.945016
O151	O	0.510940	-0.524462	0.437777
O152	O	1.010940	-0.024462	0.937777
O153	O	0.511020	-0.524674	0.517432
O154	O	1.011020	-0.024674	1.017432
O155	O	0.510832	-0.432136	0.391830
O156	O	1.010832	0.067864	0.891830
Zn157	Zn	0.498357	-0.474225	0.458833
Zn158	Zn	0.998357	0.025775	0.958833
Zn159	Zn	0.602660	-0.508908	0.423960
Zn160	Zn	1.102660	-0.008908	0.923960
O161	O	0.510913	-0.432348	0.471484
O162	O	1.010913	0.067652	0.971484
N163	N	0.673844	-0.532580	0.400158
N164	N	1.173844	-0.032580	0.900158
N165	N	0.091520	-0.115070	0.482873
N166	N	0.591520	0.384930	0.982873
O167	O	-0.025663	0.047841	0.474857
O168	O	0.474337	0.547841	0.974857
O169	O	0.099940	0.047877	0.382299
O170	O	0.599940	0.547877	0.882299
O171	O	0.020247	0.047844	0.382560
O172	O	0.520247	0.547844	0.882560
O173	O	0.054030	0.047874	0.474596
O174	O	0.554030	0.547874	0.974596
O175	O	0.046674	-0.031326	0.408942
O176	O	0.546674	0.468674	0.908942
O177	O	0.126367	-0.031293	0.408680
O178	O	0.626367	0.468707	0.908680
O179	O	0.000764	-0.031329	0.501238
O180	O	0.500764	0.468671	1.001238
Zn181	Zn	0.067761	-0.043881	0.459148
Zn182	Zn	0.567761	0.456119	0.959148
Zn183	Zn	0.032943	0.060429	0.424389
Zn184	Zn	0.532943	0.560429	0.924389
O185	O	0.080457	-0.031296	0.500977
O186	O	0.580457	0.468704	1.000977
N187	N	0.009178	0.131618	0.400665
N188	N	0.509178	0.631618	0.900665
N189	N	0.091852	-0.450680	0.818332
N190	N	0.591852	0.049320	1.318332
O191	O	0.083862	-0.567845	0.981235
O192	O	0.583862	-0.067845	1.481235
O193	O	-0.008657	-0.442198	0.981276
O194	O	0.491343	0.057802	1.481276
O195	O	-0.008441	-0.521875	0.981252
O196	O	0.491559	-0.021875	1.481252
O197	O	0.083646	-0.488168	0.981258
O198	O	0.583646	0.011832	1.481258
O199	O	0.017919	-0.495468	0.902085
O200	O	0.517919	0.004532	1.402085
O201	O	0.017703	-0.415791	0.902109
O202	O	0.517703	0.084209	1.402109
O203	O	0.110222	-0.541438	0.902067
O204	O	0.610222	-0.041438	1.402067
Zn205	Zn	0.068148	-0.474422	0.889518
Zn206	Zn	0.568148	0.025578	1.389518
Zn207	Zn	0.033417	-0.509214	0.993825
Zn208	Zn	0.533417	-0.009214	1.493825
O209	O	0.110006	-0.461761	0.902091
O210	O	0.610006	0.038239	1.402091
N211	N	0.009712	-0.532961	1.065011
N212	N	0.509712	-0.032961	1.565011
C213	C	0.030439	-0.413071	0.383027
C214	C	0.530439	0.086929	0.883027
C215	C	0.129046	-0.511580	0.382922
C216	C	0.629046	-0.011580	0.882922
C217	C	0.070334	-0.570496	0.500675
C218	C	0.570334	-0.070496	1.000675
C219	C	-0.028274	-0.471987	0.500780
C220	C	0.471726	0.028013	1.000780
C221	C	0.550625	-0.550579	0.520021
C222	C	1.050625	-0.050579	1.020021
C223	C	0.550527	-0.550317	0.421379
C224	C	1.050527	-0.050317	0.921379
C225	C	0.550389	-0.432554	0.362773
C226	C	1.050389	0.067446	0.862773
C227	C	0.550491	-0.432816	0.461414
C228	C	1.050491	0.067184	0.961414
C229	C	0.128944	0.008394	0.382712
C230	C	0.628944	0.508394	0.882712
C231	C	0.030287	0.008256	0.383068
C232	C	0.530287	0.508256	0.883068
C233	C	-0.028273	0.008252	0.500793
C234	C	0.471727	0.508252	1.000793
C235	C	0.070417	0.008292	0.500470
C236	C	0.570417	0.508292	1.000470
C237	C	-0.008218	-0.413165	0.941698
C238	C	0.491782	0.086835	1.441698
C239	C	-0.007945	-0.511830	0.941653
C240	C	0.492055	-0.011830	1.441653
C241	C	0.109783	-0.570471	0.941646
C242	C	0.609783	-0.070471	1.441646
C243	C	0.109516	-0.471800	0.941673
C244	C	0.609516	0.028200	1.441673
H245	H	0.019320	-0.412483	0.814467
H246	H	0.519320	0.087517	1.314467
O247	O	-0.070255	-0.868350	0.430901
O248	O	0.429745	-0.368350	0.930901
C249	C	-0.068378	-0.897156	0.477250
C250	C	0.431622	-0.397156	0.977250
H251	H	-0.032657	-0.904653	0.478384
H252	H	0.467343	-0.404653	0.978384
H253	H	-0.072593	-0.932185	0.487373
H254	H	0.427407	-0.432185	0.987373
H255	H	-0.098366	-0.877925	0.503470
H256	H	0.401634	-0.377925	1.003470
H257	H	0.332825	-0.345993	0.486242
H258	H	0.832825	0.154007	0.986242
O259	O	0.204766	-0.458086	0.720079
O260	O	0.704766	0.041914	1.220079
C261	C	0.225481	-0.507998	0.732228
C262	C	0.725481	-0.007998	1.232228
H263	H	0.201881	-0.525450	0.768418
H264	H	0.701881	-0.025450	1.268418
H265	H	0.262146	-0.519638	0.733906
H266	H	0.762146	-0.019638	1.233906
H267	H	0.229169	-0.519267	0.704186
H268	H	0.729169	-0.019267	1.204186
O269	O	0.550624	-0.584884	0.412772
O270	O	1.050624	-0.084884	0.912772
C271	C	0.591653	-0.625006	0.418028
C272	C	1.091653	-0.125006	0.918028
H273	H	0.620302	-0.613586	0.412845
H274	H	1.120302	-0.113586	0.912845
H275	H	0.605399	-0.641885	0.390294
H276	H	1.105399	-0.141885	0.890294
H277	H	0.582436	-0.651991	0.455194
H278	H	1.082436	-0.151991	0.955194
H279	H	0.165136	-0.518689	0.353905
H280	H	0.665136	-0.018689	0.853905
H281	H	0.023050	0.008252	0.354152
H282	H	0.523050	0.508252	0.854152
H283	H	0.550329	-0.403500	0.326702
H284	H	1.050329	0.096500	0.826702
H285	H	0.023260	-0.376951	0.354059
H286	H	0.523260	0.123049	0.854059
H287	H	0.077653	0.008301	0.529384
H288	H	0.577653	0.508301	1.029384
O289	O	0.144046	-0.463147	0.941583
O290	O	0.644046	0.036853	1.441583
C291	C	0.154950	-0.424587	0.900594
C292	C	0.654950	0.075413	1.400594
H293	H	0.144482	-0.420836	0.871939
H294	H	0.644482	0.079164	1.371939
H295	H	0.194775	-0.431288	0.886821
H296	H	0.694775	0.068712	1.386821
H297	H	0.134411	-0.390458	0.909875
H298	H	0.634411	0.109542	1.409875
H299	H	-0.064365	-0.464880	0.529794
H300	H	0.435635	0.035120	1.029794
H301	H	0.550485	-0.403881	0.468626
H302	H	1.050485	0.096119	0.968626
O303	O	0.049189	-0.613134	0.441061
O304	O	0.549189	-0.113134	0.941061
C305	C	0.026480	-0.605948	0.485366
C306	C	0.526480	-0.105948	0.985366
H307	H	0.000168	-0.568117	0.481317
H308	H	0.500168	-0.068117	0.981317
H309	H	0.054268	-0.611518	0.498191
H310	H	0.554268	-0.111518	0.998191
H311	H	0.006642	-0.632399	0.512414
H312	H	0.506642	-0.132399	1.012414
H313	H	0.138832	-0.606554	0.941627
H314	H	0.638832	-0.106554	1.441627
H315	H	-0.064344	0.008241	0.529850
H316	H	0.435656	0.508241	1.029850
H317	H	0.164941	0.008624	0.353583
H318	H	0.664941	0.508624	0.853583
O319	O	-0.042827	-0.370097	0.941733
O320	O	0.457173	0.129903	1.441733
C321	C	-0.025689	-0.340469	0.941728
C322	C	0.474311	0.159531	1.441728
H323	H	0.004875	-0.363358	0.956708
H324	H	0.504875	0.136642	1.456708
H325	H	-0.055600	-0.317668	0.964722
H326	H	0.444400	0.182332	1.464722
H327	H	-0.012486	-0.316425	0.903750
H328	H	0.487514	0.183575	1.403750
H329	H	-0.036863	-0.519031	0.941619
H330	H	0.463137	-0.019031	1.441619
H331	H	0.049370	-0.382321	0.724071
H332	H	0.549370	0.117679	1.224071
H333	H	0.167007	-0.486271	0.814352
H334	H	0.667007	0.013729	1.314352
H335	H	0.049217	-0.382297	0.551240
H336	H	0.549217	0.117703	1.051240
H337	H	0.019058	-0.412426	0.521121
H338	H	0.519058	0.087574	1.021121
H339	H	0.159856	-0.209371	0.440456
H340	H	0.659856	0.290629	0.940456
H341	H	0.196836	-0.456064	0.477324
H342	H	0.696836	0.043936	0.977324
O343	O	0.171827	-0.490688	0.442708
O344	O	0.671827	0.009312	0.942708
C345	C	0.218635	-0.497750	0.435625
C346	C	0.718635	0.002250	0.935625
H347	H	0.218548	-0.467707	0.441192
H348	H	0.718548	0.032293	0.941192
H349	H	0.242266	-0.497999	0.397824
H350	H	0.742266	0.002001	0.897824
H351	H	0.232941	-0.533253	0.462132
H352	H	0.732941	-0.033253	0.962132
H353	H	0.332881	-0.492283	0.542031
H354	H	0.832881	0.007717	1.042031
O355	O	0.078965	-0.613619	0.535177
O356	O	0.578965	-0.113619	1.035177
C357	C	0.125749	-0.643134	0.517900
C358	C	0.625749	-0.143134	1.017900
H359	H	0.138296	-0.630159	0.477355
H360	H	0.638296	-0.130159	0.977355
H361	H	0.126400	-0.681292	0.532441
H362	H	0.626400	-0.181292	1.032441
H363	H	0.150381	-0.641819	0.529934
H364	H	0.650381	-0.141819	1.029934
H365	H	0.423275	-0.522397	0.511838
H366	H	0.923275	-0.022397	1.011838
O367	O	0.550708	-0.585193	0.563075
O368	O	1.050708	-0.085193	1.063075
C369	C	0.550712	-0.568048	0.592697
C370	C	1.050712	-0.068048	1.092697
H371	H	0.565660	-0.537470	0.569805
H372	H	1.065660	-0.037470	1.069805
H373	H	0.573737	-0.597954	0.615473
H374	H	1.073737	-0.097954	1.115473
H375	H	0.512742	-0.554859	0.616765
H376	H	1.012742	-0.054859	1.116765
H377	H	0.423225	-0.376108	0.456057
H378	H	0.923225	0.123892	0.956057
H379	H	0.055974	-0.119015	0.558014
H380	H	0.555974	0.380985	1.058014
O381	O	0.131534	-0.115097	0.402648
O382	O	0.631534	0.384903	0.902648
C383	C	0.114461	-0.127268	0.381975
C384	C	0.614461	0.372732	0.881975
H385	H	0.109605	-0.163459	0.405600
H386	H	0.609605	0.336541	0.905600
H387	H	0.141141	-0.128956	0.345309
H388	H	0.641141	0.371044	0.845309
H389	H	0.078833	-0.099232	0.378298
H390	H	0.578833	0.400768	0.878298
O391	O	0.084321	-0.213305	0.595818
O392	O	0.584321	0.286695	1.095818
C393	C	0.101376	-0.201098	0.616477
C394	C	0.601376	0.298902	1.116477
H395	H	0.132094	-0.187393	0.588080
H396	H	0.632094	0.312607	1.088080
H397	H	0.114338	-0.233862	0.645849
H398	H	0.614338	0.266138	1.145849
H399	H	0.071486	-0.172169	0.632208
H400	H	0.571486	0.327831	1.132208
O401	O	-0.030422	-0.452720	0.065044
O402	O	0.469578	0.047280	0.565044
C403	C	-0.059296	-0.427676	0.097703
C404	C	0.440704	0.072324	0.597703
H405	H	-0.077456	-0.451418	0.133206
H406	H	0.422544	0.048582	0.633206
H407	H	-0.087454	-0.394404	0.083252
H408	H	0.412546	0.105596	0.583252
H409	H	-0.036329	-0.416955	0.103059
H410	H	0.463671	0.083045	0.603059
H411	H	0.045284	-0.608113	0.068976
H412	H	0.545284	-0.108113	0.568976
O413	O	-0.063193	-0.485468	0.163254
O414	O	0.436807	0.014532	0.663254
C415	C	-0.040594	-0.492647	0.192135
C416	C	0.459406	0.007353	0.692135
H417	H	-0.014288	-0.530479	0.199647
H418	H	0.485712	-0.030479	0.699647
H419	H	-0.068454	-0.487072	0.227150
H420	H	0.431546	0.012928	0.727150
H421	H	-0.020766	-0.466198	0.172964
H422	H	0.479234	0.033802	0.672964
H423	H	0.015032	-0.638195	0.159378
H424	H	0.515032	-0.138195	0.659378
H425	H	-0.028907	-0.460416	0.362542
H426	H	0.471093	0.039584	0.862542
O427	O	-0.063550	-0.485394	0.327865
O428	O	0.436450	0.014606	0.827865
C429	C	-0.105351	-0.456542	0.352979
C430	C	0.394649	0.043458	0.852979
H431	H	-0.112334	-0.475774	0.392856
H432	H	0.387666	0.024226	0.892856
H433	H	-0.136713	-0.448975	0.344000
H434	H	0.363287	0.051025	0.844000
H435	H	-0.100806	-0.421548	0.342390
H436	H	0.399194	0.078452	0.842390
O437	O	0.016526	-0.645886	0.408234
O438	O	0.516526	-0.145886	0.908234
C439	C	-0.000596	-0.666555	0.458143
C440	C	0.499404	-0.166555	0.958143
H441	H	-0.005501	-0.642932	0.475601
H442	H	0.494499	-0.142932	0.975601
H443	H	0.026076	-0.703228	0.469835
H444	H	0.526076	-0.203228	0.969835
H445	H	-0.036208	-0.670221	0.469349
H446	H	0.463792	-0.170221	0.969349
O447	O	0.056040	-0.770275	0.337640
O448	O	0.556040	-0.270275	0.837640
C449	C	0.089902	-0.782477	0.296577
C450	C	0.589902	-0.282477	0.796577
H451	H	0.092234	-0.818649	0.301067
H452	H	0.592234	-0.318649	0.801067
H453	H	0.126160	-0.784224	0.291197
H454	H	0.626160	-0.284224	0.791197
H455	H	0.078695	-0.754428	0.264262
H456	H	0.578695	-0.254428	0.764262
O457	O	0.088643	-0.868479	0.370559
O458	O	0.588643	-0.368479	0.870559
C459	C	0.095348	-0.897311	0.415072
C460	C	0.595348	-0.397311	0.915072
H461	H	0.063778	-0.882265	0.443776
H462	H	0.563778	-0.382265	0.943776
H463	H	0.129416	-0.897914	0.413740
H464	H	0.629416	-0.397914	0.913740
H465	H	0.098273	-0.935069	0.423693
H466	H	0.598273	-0.435069	0.923693
O467	O	-0.102978	-0.770127	0.398059
O468	O	0.397022	-0.270127	0.898059
C469	C	-0.127689	-0.802771	0.422478
C470	C	0.372311	-0.302771	0.922478
H471	H	-0.102114	-0.838312	0.416765
H472	H	0.397886	-0.338312	0.916765
H473	H	-0.157692	-0.788354	0.408291
H474	H	0.342308	-0.288354	0.908291
H475	H	-0.143243	-0.808045	0.462125
H476	H	0.356757	-0.308045	0.962125
H477	H	-0.322352	-0.570775	0.472713
H478	H	0.177648	-0.070775	0.972713
O479	O	-0.228120	-0.605488	0.447887
O480	O	0.271880	-0.105488	0.947887
C481	C	-0.260853	-0.612516	0.494660
C482	C	0.239147	-0.112516	0.994660
H483	H	-0.296352	-0.582443	0.494514
H484	H	0.203648	-0.082443	0.994514
H485	H	-0.246495	-0.612791	0.518364
H486	H	0.253505	-0.112791	1.018364
H487	H	-0.266179	-0.647998	0.508924
H488	H	0.233821	-0.147998	1.008924
H489	H	-0.322118	-0.496994	0.324987
H490	H	0.177882	0.003006	0.824987
H491	H	-0.231721	-0.527215	0.295000
H492	H	0.268279	-0.027215	0.795000
