data_functionalizedCrystal
_audit_creation_method	'MofGen! by Chris Wilmer'
_symmetry_space_group_name_H-M	'P1'
_symmetry_Int_Tables_number	1
_symmetry_cell_setting	triclinic
loop_
_symmetry_equiv_pos_as_xyz
  x,y,z
_cell_length_a	18.101398
_cell_length_b	19.121449
_cell_length_c	18.101389
_cell_angle_alpha	92.458273
_cell_angle_beta	90.024327
_cell_angle_gamma	87.580180
loop_
_atom_site_label
_atom_site_type_symbol
_atom_site_fract_x
_atom_site_fract_y
_atom_site_fract_z
Zn1	Zn	1.144729	-0.279771	0.406263
Zn2	Zn	1.149918	-0.397203	0.277143
Zn3	Zn	1.020888	-0.279763	0.282424
Zn4	Zn	1.026130	-0.397173	0.400933
O5	O	1.085416	-0.338478	0.341691
O6	O	1.249051	-0.295364	0.389155
O7	O	1.132779	-0.381634	0.174210
O8	O	1.032951	-0.181482	0.303293
O9	O	1.252863	-0.381641	0.294291
O10	O	1.123936	-0.181487	0.394277
O11	O	1.037981	-0.295351	0.178090
O12	O	0.917950	-0.295322	0.298124
O13	O	1.041885	-0.381590	0.505273
O14	O	0.921801	-0.381583	0.385192
O15	O	1.129019	-0.295335	0.509189
O16	O	1.137862	-0.495482	0.289122
O17	O	1.046916	-0.495460	0.380070
C18	C	0.893004	-0.338449	0.341653
C19	C	0.810690	-0.338454	0.341654
C20	C	0.511601	-0.338498	0.341714
C21	C	0.540467	-0.283954	0.287225
C22	C	0.626091	-0.284100	0.286976
C23	C	0.659983	-0.338475	0.341684
C24	C	0.632199	-0.412456	0.317034
C25	C	0.546540	-0.412153	0.316652
C26	C	0.542369	-0.319704	0.420958
C27	C	0.627946	-0.318057	0.420605
C28	C	0.743842	-0.338467	0.341669
C29	C	0.427743	-0.338511	0.341728
C30	C	1.093541	-0.520955	0.333461
C31	C	1.097084	-0.599019	0.329965
C32	C	1.051366	-0.635708	0.375635
C33	C	1.054698	-0.709058	0.372348
C34	C	1.103754	-0.745717	0.323393
C35	C	1.149474	-0.709023	0.277718
C36	C	1.146137	-0.635675	0.281002
C37	C	1.116196	-0.967181	0.311105
C38	C	1.119531	-1.040535	0.307826
C39	C	1.024754	-1.040564	0.402455
C40	C	1.021425	-0.967214	0.405738
C41	C	1.067142	-0.930527	0.360061
C42	C	1.107163	-0.820692	0.320033
C43	C	1.063729	-0.855553	0.363417
C44	C	1.278579	-0.338507	0.341728
C45	C	1.360894	-0.338519	0.341745
C46	C	1.085458	-0.338460	0.534853
C47	C	1.085476	-0.338452	0.617168
C48	C	1.077280	-0.155288	0.349968
C49	C	1.073813	-0.077224	0.353496
C50	C	1.085415	-0.338445	0.149282
C51	C	1.085531	-0.338254	0.066976
C52	C	1.085513	-0.338321	0.916265
C53	C	1.030486	-0.392418	0.882483
C54	C	1.030652	-0.392669	0.796854
C55	C	1.085494	-0.338386	0.767879
C56	C	1.164425	-0.358482	0.798082
C57	C	1.164121	-0.358838	0.883711
C58	C	1.062283	-0.264007	0.888030
C59	C	1.060566	-0.264436	0.802359
C60	C	1.085488	-0.338422	0.684018
C61	C	1.085525	-0.338287	1.000126
H62	H	0.644660	-0.229240	0.302808
Cl63	Cl	1.173683	-0.921069	0.253694
Cl64	Cl	0.974690	-0.235741	0.922623
Cl65	Cl	0.666533	-0.476882	0.376169
H66	H	1.002463	-0.249281	0.782709
H67	H	1.206671	-0.320319	0.779451
H68	H	1.102322	-0.223702	0.910117
H69	H	0.517416	-0.228926	0.302918
Cl70	Cl	0.663550	-0.374927	0.487062
H71	H	0.518408	-0.266697	0.442729
H72	H	0.519471	-0.296236	0.228918
H73	H	0.971892	-0.379970	0.903629
Cl74	Cl	0.658540	-0.303277	0.196421
Cl75	Cl	1.054314	-0.476934	0.911971
Cl76	Cl	0.655580	-0.234010	0.449219
H77	H	0.527247	-0.428092	0.258622
Cl78	Cl	0.517467	-0.477023	0.374968
H79	H	0.654345	-0.428672	0.259611
Cl80	Cl	0.513858	-0.381039	0.483705
H81	H	1.011423	-0.605864	0.415503
Cl82	Cl	0.959756	-0.921133	0.467287
Cl83	Cl	0.997229	-0.755178	0.429773
H84	H	1.147105	-0.850549	0.280174
H85	H	1.097454	-0.221991	0.782883
H86	H	0.987533	-1.070443	0.439643
H87	H	1.159483	-1.070381	0.267961
Cl88	Cl	1.203610	-0.589551	0.223581
Cl89	Cl	1.211144	-0.755110	0.216174
Cl90	Cl	1.194640	-0.441464	0.761250
H91	H	1.023785	-0.825703	0.403274
Cl92	Cl	0.940448	-0.373249	0.765251
H93	H	1.183424	-0.413162	0.901252
Cl94	Cl	1.054792	-0.477705	0.761403
Cl95	Cl	1.229802	-0.300607	0.918353
