data_functionalizedCrystal
_audit_creation_method	'MofGen! by Chris Wilmer'
_symmetry_space_group_name_H-M	'P1'
_symmetry_Int_Tables_number	1
_symmetry_cell_setting	triclinic
loop_
_symmetry_equiv_pos_as_xyz
  x,y,z
_cell_length_a	10.540539
_cell_length_b	9.065218
_cell_length_c	7.540329
_cell_angle_alpha	89.998628
_cell_angle_beta	89.999554
_cell_angle_gamma	95.229312
loop_
_atom_site_label
_atom_site_type_symbol
_atom_site_fract_x
_atom_site_fract_y
_atom_site_fract_z
O1	O	1.686651	-0.207930	0.147391
O2	O	1.317310	-0.227521	0.147412
O3	O	1.509615	-0.003045	0.147398
O4	O	1.494346	-0.432406	0.147406
O5	O	1.509608	-0.003043	-0.147568
O6	O	1.317304	-0.227519	-0.147553
O7	O	1.686644	-0.207928	-0.147574
Cu8	Cu	1.501973	-0.217723	-0.174496
Cu9	Cu	1.501981	-0.217725	0.174334
O10	O	1.494340	-0.432404	-0.147559
C11	C	1.269999	-0.226051	-0.000068
C12	C	1.129034	-0.221655	-0.000059
C13	C	1.508144	0.051936	-0.000082
C14	C	1.503757	0.215757	-0.000073
N15	N	1.501977	-0.217721	-0.419845
C16	C	0.944985	-0.053221	-0.000751
C17	C	1.091619	-0.057677	-0.000068
C18	C	1.067657	-0.300569	0.168375
C19	C	0.921092	-0.294973	0.168498
C20	C	0.920608	-0.298307	-0.166933
C21	C	1.067596	-0.299817	-0.169141
C22	C	1.733956	-0.209398	-0.000090
C23	C	1.874920	-0.213794	-0.000087
C24	C	1.495811	-0.487384	-0.000076
C25	C	1.500198	-0.651205	-0.000073
N26	N	1.501988	-0.217716	0.419683
H27	H	0.916157	0.011560	-0.121545
H28	H	1.134001	0.004416	-0.120809
O29	O	0.904649	0.032239	0.158342
H30	H	0.989407	0.066646	0.240877
H31	H	1.108342	-0.242168	-0.293748
H32	H	0.873559	-0.412904	0.176145
O33	O	0.858630	-0.455193	-0.168444
H34	H	0.891368	-0.514130	-0.286604
O35	O	1.123780	-0.227956	0.334431
H36	H	1.195370	-0.135678	0.297424
O37	O	1.146630	0.025140	0.160142
H38	H	1.105593	-0.027965	0.282491
H39	H	0.892669	-0.236650	0.294402
O40	O	1.100256	-0.458183	-0.182622
H41	H	1.152420	-0.473211	-0.308258
O42	O	1.097858	-0.460079	0.176713
H43	H	1.157080	-0.484859	0.060621
H44	H	0.888863	-0.245239	-0.294605
