data_functionalizedCrystal
_audit_creation_method	'MofGen! by Chris Wilmer'
_symmetry_space_group_name_H-M	'P1'
_symmetry_Int_Tables_number	1
_symmetry_cell_setting	triclinic
loop_
_symmetry_equiv_pos_as_xyz
  x,y,z
_cell_length_a	12.759401
_cell_length_b	16.959454
_cell_length_c	12.759393
_cell_angle_alpha	90.029640
_cell_angle_beta	90.019676
_cell_angle_gamma	90.020501
loop_
_atom_site_label
_atom_site_type_symbol
_atom_site_fract_x
_atom_site_fract_y
_atom_site_fract_z
Zn1	Zn	1.606227	-0.314634	0.593991
Zn2	Zn	1.606102	-0.446833	0.418314
Zn3	Zn	1.430526	-0.314674	0.418330
Zn4	Zn	1.430501	-0.446776	0.593955
O5	O	1.518339	-0.380729	0.506147
O6	O	1.753231	-0.332178	0.570695
O7	O	1.582769	-0.429343	0.271295
O8	O	1.453896	-0.204058	0.441654
O9	O	1.753139	-0.429305	0.441626
O10	O	1.582983	-0.204029	0.570711
O11	O	1.453774	-0.332246	0.271307
O12	O	1.283502	-0.332190	0.441619
O13	O	1.453854	-0.429206	0.740981
O14	O	1.283484	-0.429244	0.570649
O15	O	1.582959	-0.332122	0.741007
O16	O	1.582745	-0.557437	0.441591
O17	O	1.453732	-0.557394	0.570634
C18	C	1.245372	-0.380716	0.506133
C19	C	1.128595	-0.380729	0.506151
C20	C	1.073782	-0.330247	0.573461
C21	C	0.964058	-0.330255	0.573468
C22	C	0.963970	-0.431234	0.438852
C23	C	1.073692	-0.431221	0.438841
C24	C	1.518251	-0.586096	0.506129
C25	C	1.518309	-0.673952	0.506157
C26	C	1.451259	-1.045436	0.573333
C27	C	1.585711	-1.045420	0.439069
C28	C	1.585674	-0.962874	0.439059
C29	C	1.518428	-0.921605	0.506186
C30	C	1.451218	-0.962882	0.573323
C31	C	1.652875	-0.921591	0.371916
C32	C	1.652841	-0.839040	0.371903
C33	C	1.585599	-0.797769	0.439036
C34	C	1.518387	-0.839052	0.506176
C35	C	1.451141	-0.797783	0.573303
C36	C	1.383934	-0.839063	0.640450
C37	C	1.383977	-0.921612	0.640456
C38	C	1.585556	-0.715221	0.439030
C39	C	1.451100	-0.715229	0.573294
C40	C	1.792372	-0.380744	0.506163
C41	C	1.909149	-0.380750	0.506169
C42	C	1.518418	-0.380653	0.780181
C43	C	1.518451	-0.380621	0.896958
C44	C	1.518456	-0.174561	0.506188
C45	C	1.518506	-0.086704	0.506206
C46	C	1.518321	-0.380748	0.233180
C47	C	1.518491	-0.380558	0.116404
C48	C	1.585681	-0.330062	0.951835
C49	C	1.585699	-0.330027	1.061559
C50	C	1.451254	-0.431119	1.061519
C51	C	1.451231	-0.431149	0.951797
H52	H	0.919433	-0.289146	0.628277
O53	O	1.651108	-0.280891	1.114704
C54	C	1.710408	-0.236288	1.042769
H55	H	1.714010	-0.268688	0.964551
H56	H	1.793197	-0.227855	1.074485
H57	H	1.671971	-0.176256	1.031103
H58	H	1.640270	-0.681614	0.384356
H59	H	1.396477	-0.472320	0.907114
O60	O	1.126897	-0.480377	0.373564
C61	C	1.100060	-0.559181	0.396328
H62	H	1.069932	-0.563254	0.480253
H63	H	1.172205	-0.598213	0.387182
H64	H	1.036343	-0.579801	0.339958
H65	H	1.396528	-0.472259	1.106182
O66	O	0.910683	-0.480202	0.373328
C67	C	0.937469	-0.462846	0.268652
H68	H	0.967642	-0.399690	0.263484
H69	H	0.865286	-0.469621	0.216741
H70	H	1.001137	-0.505190	0.241088
H71	H	1.396343	-0.681633	0.627961
H72	H	1.396544	-1.079050	0.628004
O73	O	1.127278	-0.281270	0.638803
C74	C	1.235876	-0.292067	0.624345
H75	H	1.250832	-0.353036	0.589799
H76	H	1.277612	-0.286770	0.703049
H77	H	1.267001	-0.245130	0.568499
O78	O	1.318764	-0.798934	0.705766
C79	C	1.378525	-0.751099	0.773639
H80	H	1.461279	-0.775931	0.780206
H81	H	1.340487	-0.750134	0.854461
H82	H	1.382135	-0.688554	0.741136
H83	H	1.329259	-0.955230	0.695122
O84	O	1.650956	-1.085627	0.373924
C85	C	1.636537	-1.167339	0.388286
H86	H	1.602140	-1.178605	0.469356
H87	H	1.715233	-1.198691	0.381166
H88	H	1.580580	-1.190795	0.325950
O89	O	1.718217	-0.961749	0.306814
C90	C	1.786055	-1.009498	0.366617
H91	H	1.792631	-0.984574	0.449353
H92	H	1.866880	-1.010479	0.328586
H93	H	1.753514	-1.072049	0.370271
O94	O	1.718228	-0.799066	0.306655
C95	C	1.777569	-0.853194	0.247391
H96	H	1.781205	-0.912018	0.290430
H97	H	1.860343	-0.829307	0.236259
H98	H	1.739145	-0.862025	0.167563
O99	O	1.650820	-0.280934	0.898450
C100	C	1.591016	-0.229883	0.835007
H101	H	1.511381	-0.257764	0.818549
H102	H	1.633802	-0.219307	0.757861
H103	H	1.579508	-0.171297	0.877309
