data_functionalizedCrystal
_audit_creation_method	'MofGen! by Chris Wilmer'
_symmetry_space_group_name_H-M	'P1'
_symmetry_Int_Tables_number	1
_symmetry_cell_setting	triclinic
loop_
_symmetry_equiv_pos_as_xyz
  x,y,z
_cell_length_a	16.109301
_cell_length_b	14.586319
_cell_length_c	16.109301
_cell_angle_alpha	90.005214
_cell_angle_beta	83.461481
_cell_angle_gamma	90.000787
loop_
_atom_site_label
_atom_site_type_symbol
_atom_site_fract_x
_atom_site_fract_y
_atom_site_fract_z
O1	O	-1.103131	-0.076185	-0.106866
O2	O	-0.861069	-0.076200	-0.120165
O3	O	-0.988749	-0.076183	0.007515
O4	O	-0.975450	-0.076203	-0.234547
O5	O	-0.988741	0.076298	0.007517
O6	O	-0.861060	0.076281	-0.120164
O7	O	-1.103122	0.076295	-0.106864
Cu8	Cu	-0.982090	0.090211	-0.113514
Cu9	Cu	-0.982101	-0.090115	-0.113516
O10	O	-0.975441	0.076278	-0.234545
C11	C	-0.830090	0.000038	-0.119626
C12	C	-0.737794	0.000033	-0.118011
C13	C	-0.988206	0.000058	0.038491
C14	C	-0.986591	0.000059	0.130786
N15	N	-0.982089	0.217042	-0.113512
C16	C	-1.134101	0.000055	-0.107404
C17	C	-1.226397	0.000054	-0.109019
C18	C	-0.515522	0.000038	-0.190018
C19	C	-0.428801	0.000044	-0.188494
C20	C	-0.448676	0.000052	-0.037006
C21	C	-0.535394	0.000053	-0.038530
C22	C	-0.568815	0.000041	-0.115039
C23	C	-0.395376	0.000046	-0.111990
C24	C	-0.301350	0.000053	-0.110337
C25	C	-0.662847	0.000036	-0.116693
N26	N	-0.982109	-0.216947	-0.113511
C27	C	-1.038644	0.452057	-0.056994
C28	C	-1.038647	0.548038	-0.056992
C29	C	-0.925547	0.548032	-0.170032
C30	C	-0.925541	0.452052	-0.170030
C31	C	-0.982095	0.404067	-0.113511
C32	C	-0.982103	0.596028	-0.113512
C33	C	-0.982105	0.700095	-0.113510
C34	C	-0.982092	0.299993	-0.113512
C35	C	-0.975984	0.000035	-0.265521
C36	C	-0.977600	0.000028	-0.357816
C37	C	-1.058599	0.000049	0.353059
C38	C	-1.057075	0.000041	0.439779
C39	C	-0.905586	0.000036	0.419905
C40	C	-0.907111	0.000037	0.333186
C41	C	-0.983620	0.000048	0.299766
C42	C	-0.980571	0.000039	0.473205
C43	C	-0.978918	0.000031	0.567231
C44	C	-0.985273	0.000055	0.205734
H45	H	-0.385413	0.000043	-0.249550
O46	O	-1.099626	0.400311	0.003985
H47	H	-1.064626	0.356596	0.044397
O48	O	-0.412631	0.000058	0.045513
H49	H	-0.343376	0.000049	0.033979
O50	O	-0.592885	0.000058	0.042343
H51	H	-0.555079	0.000054	0.095801
H52	H	-1.084694	0.587108	-0.010969
O53	O	-0.864563	0.599786	-0.231002
H54	H	-0.824171	0.643534	-0.196002
H55	H	-1.118130	0.000040	0.483168
H56	H	-0.542730	0.000035	-0.252317
O57	O	-0.864548	0.400282	-0.230993
H58	H	-0.825233	0.449772	-0.270303
O59	O	-1.141114	0.000042	0.317007
H60	H	-1.192995	0.000030	0.368638
O61	O	-0.823067	0.000043	0.455950
H62	H	-0.834602	0.000056	0.525205
O63	O	-0.826238	0.000046	0.275695
H64	H	-0.772780	0.000055	0.313502
