data_functionalizedCrystal
_audit_creation_method	'MofGen! by Chris Wilmer'
_symmetry_space_group_name_H-M	'P1'
_symmetry_Int_Tables_number	1
_symmetry_cell_setting	triclinic
loop_
_symmetry_equiv_pos_as_xyz
  x,y,z
_cell_length_a	25.639242
_cell_length_b	25.639239
_cell_length_c	15.299448
_cell_angle_alpha	80.298679
_cell_angle_beta	80.292333
_cell_angle_gamma	90.033587
loop_
_atom_site_label
_atom_site_type_symbol
_atom_site_fract_x
_atom_site_fract_y
_atom_site_fract_z
Zn1	Zn	0.850492	-0.157037	-0.510321
Zn2	Zn	1.350492	0.342963	-0.010321
Zn3	Zn	0.835258	-0.259608	-0.359441
Zn4	Zn	1.335258	0.240392	0.140559
Zn5	Zn	0.747911	-0.172180	-0.359442
Zn6	Zn	1.247911	0.327820	0.140558
Zn7	Zn	0.763006	-0.244443	-0.510243
Zn8	Zn	1.263006	0.255557	-0.010243
O9	O	0.799167	-0.208317	-0.434862
O10	O	1.299167	0.291683	0.065138
O11	O	0.921640	-0.170652	-0.490338
O12	O	1.421640	0.329348	0.009662
O13	O	0.810979	-0.260694	-0.233187
O14	O	1.310979	0.239306	0.266813
O15	O	0.761577	-0.097003	-0.379489
O16	O	1.261577	0.402997	0.120511
O17	O	0.910447	-0.246011	-0.379488
O18	O	1.410447	0.253989	0.120512
O19	O	0.836943	-0.085877	-0.490339
O20	O	1.336943	0.414123	0.009661
O21	O	0.746805	-0.196462	-0.233188
O22	O	1.246805	0.303538	0.266812
O23	O	0.676745	-0.181757	-0.379414
O24	O	1.176745	0.318243	0.120586
O25	O	0.787303	-0.220165	-0.636508
O26	O	1.287303	0.279835	-0.136508
O27	O	0.687835	-0.234849	-0.490207
O28	O	1.187835	0.265151	0.009793
O29	O	0.851579	-0.155948	-0.636565
O30	O	1.351579	0.344052	-0.136565
O31	O	0.825615	-0.330765	-0.379413
O32	O	1.325615	0.169235	0.120587
O33	O	0.772532	-0.319623	-0.490206
O34	O	1.272532	0.180377	0.009794
C35	C	0.663318	-0.208301	-0.434803
C36	C	1.163318	0.291699	0.065197
C37	C	0.605204	-0.208305	-0.434799
C38	C	1.105204	0.291695	0.065201
C39	C	0.348243	-0.180607	-0.377272
C40	C	0.848243	0.319393	0.122728
C41	C	0.402847	-0.180603	-0.377260
C42	C	0.902847	0.319397	0.122740
O43	O	0.426175	-0.157028	-0.328297
O44	O	0.926175	0.342972	0.171703
N45	N	0.435934	-0.208306	-0.434845
N46	N	0.935934	0.291694	0.065155
C47	C	0.414417	-0.236011	-0.492451
C48	C	0.914417	0.263989	0.007549
O49	O	0.447575	-0.259574	-0.541431
O50	O	0.947575	0.240426	-0.041431
C51	C	0.359816	-0.236011	-0.492466
C52	C	0.859816	0.263989	0.007534
C53	C	0.326730	-0.208310	-0.434872
C54	C	0.826730	0.291690	0.065128
C55	C	0.315158	-0.152908	-0.319682
C56	C	0.815158	0.347092	0.180318
C57	C	0.260558	-0.152912	-0.319693
C58	C	0.760558	0.347088	0.180307
C59	C	0.239044	-0.180616	-0.377293
C60	C	0.739044	0.319384	0.122707
C61	C	0.272130	-0.208315	-0.434882
C62	C	0.772130	0.291685	0.065118
C63	C	0.338300	-0.263712	-0.550076
C64	C	0.838300	0.236288	-0.050076
C65	C	0.283694	-0.263710	-0.550087
C66	C	0.783694	0.236290	-0.050087
C67	C	0.250608	-0.236009	-0.492492
C68	C	0.750608	0.263991	0.007508
C69	C	0.196017	-0.236023	-0.492492
C70	C	0.696017	0.263977	0.007508
N71	N	0.162929	-0.208320	-0.434908
N72	N	0.662929	0.291680	0.065092
C73	C	0.184443	-0.180616	-0.377308
C74	C	0.684443	0.319384	0.122692
C75	C	0.529085	-0.236007	-0.492415
C76	C	1.029085	0.263993	0.007585
C77	C	0.583685	-0.236011	-0.492396
C78	C	1.083685	0.263989	0.007604
C79	C	0.572110	-0.180602	-0.377207
C80	C	1.072110	0.319398	0.122793
C81	C	0.517509	-0.180602	-0.377222
C82	C	1.017509	0.319398	0.122778
C83	C	0.495997	-0.208304	-0.434831
C84	C	0.995997	0.291696	0.065169
C85	C	0.069780	-0.180628	-0.377334
C86	C	0.569780	0.319372	0.122666
C87	C	0.015176	-0.180637	-0.377347
C88	C	0.515176	0.319363	0.122653
C89	C	0.026756	-0.236044	-0.492540
C90	C	0.526756	0.263956	0.007460
C91	C	0.081355	-0.236037	-0.492524
C92	C	0.581355	0.263963	0.007476
C93	C	0.102865	-0.208326	-0.434918
C94	C	0.602865	0.291674	0.065082
O95	O	0.172652	-0.259585	-0.541433
O96	O	0.672652	0.240415	-0.041433
O97	O	0.151280	-0.157051	-0.328345
O98	O	0.651280	0.342949	0.171655
C99	C	0.799075	-0.344164	-0.434821
C100	C	1.299075	0.155836	0.065179
C101	C	0.799086	-0.402277	-0.434833
C102	C	1.299086	0.097723	0.065167
C103	C	0.826904	-0.768416	-0.377270
C104	C	1.326904	-0.268416	0.122730
C105	C	0.826926	-0.823019	-0.377282
C106	C	1.326926	-0.323019	0.122718
O107	O	0.850482	-0.856171	-0.328294
O108	O	1.350482	-0.356171	0.171706
N109	N	0.799265	-0.844550	-0.434922
N110	N	1.299265	-0.344550	0.065078
C111	C	0.771584	-0.811475	-0.492559
C112	C	1.271584	-0.311475	0.007441
O113	O	0.748059	-0.834803	-0.541588
O114	O	1.248059	-0.334803	-0.041588
C115	C	0.771566	-0.756872	-0.492551
C116	C	1.271566	-0.256872	0.007449
C117	C	0.799225	-0.735345	-0.434901
C118	C	1.299225	-0.235345	0.065099
C119	C	0.854561	-0.746887	-0.319625
C120	C	1.354561	-0.246887	0.180375
C121	C	0.854539	-0.692288	-0.319612
C122	C	1.354539	-0.192288	0.180388
C123	C	0.826860	-0.659217	-0.377244
C124	C	1.326860	-0.159217	0.122756
C125	C	0.799203	-0.680745	-0.434888
C126	C	1.299203	-0.180745	0.065112
C127	C	0.743890	-0.723797	-0.550193
C128	C	1.243890	-0.223797	-0.050193
C129	C	0.743874	-0.669192	-0.550180
C130	C	1.243874	-0.169192	-0.050180
C131	C	0.771533	-0.647664	-0.492530
C132	C	1.271533	-0.147664	0.007470
C133	C	0.771501	-0.593075	-0.492507
C134	C	1.271501	-0.093075	0.007493
N135	N	0.799162	-0.571544	-0.434867
N136	N	1.299162	-0.071544	0.065133
C137	C	0.826842	-0.604615	-0.377236
C138	C	1.326842	-0.104615	0.122764
C139	C	0.771625	-0.926144	-0.492573
C140	C	1.271625	-0.426144	0.007427
C141	C	0.771640	-0.980746	-0.492578
C142	C	1.271640	-0.480746	0.007422
C143	C	0.826982	-0.992286	-0.377301
C144	C	1.326982	-0.492286	0.122699
C145	C	0.826964	-0.937683	-0.377293
C146	C	1.326964	-0.437683	0.122707
C147	C	0.799286	-0.904612	-0.434934
C148	C	1.299286	-0.404612	0.065066
C149	C	0.826792	-0.489952	-0.377212
C150	C	1.326792	0.010048	0.122788
C151	C	0.826765	-0.435348	-0.377202
C152	C	1.326765	0.064652	0.122798
C153	C	0.771425	-0.423812	-0.492481
C154	C	1.271425	0.076188	0.007519
C155	C	0.771450	-0.478412	-0.492489
C156	C	1.271450	0.021588	0.007511
C157	C	0.799137	-0.511481	-0.434851
C158	C	1.299137	-0.011481	0.065149
O159	O	0.747958	-0.559891	-0.541472
O160	O	1.247958	-0.059891	-0.041472
O161	O	0.850369	-0.581278	-0.328224
O162	O	1.350369	-0.081278	0.171776
C163	C	0.935546	-0.208334	-0.434921
C164	C	1.435546	0.291666	0.065079
C165	C	0.993662	-0.208341	-0.434947
C166	C	1.493662	0.291659	0.065053
C167	C	0.822824	-0.184676	-0.670188
C168	C	1.322824	0.315324	-0.170188
C169	C	0.832906	-0.174601	-0.770470
C170	C	1.332906	0.325399	-0.270470
C171	C	0.799275	-0.071938	-0.434923
C172	C	1.299275	0.428062	0.065077
C173	C	0.799322	-0.013821	-0.434949
C174	C	1.299322	0.486179	0.065051
C175	C	0.871108	-0.136432	-0.817610
C176	C	1.371108	0.363568	-0.317610
C177	C	0.880575	-0.126960	-0.911829
C178	C	1.380575	0.373040	-0.411829
C179	C	0.851845	-0.155658	-0.958919
C180	C	1.351845	0.344342	-0.458919
C181	C	0.813645	-0.193830	-0.911780
C182	C	1.313645	0.306170	-0.411780
C183	C	0.804174	-0.203301	-0.817550
C184	C	1.304174	0.296699	-0.317550
C185	C	0.784911	-0.222527	-0.958860
C186	C	1.284911	0.277473	-0.458860
C187	C	0.746712	-0.260699	-0.911721
C188	C	1.246712	0.239301	-0.411721
C189	C	0.737242	-0.270168	-0.817501
C190	C	1.237242	0.229832	-0.317501
C191	C	0.765972	-0.241470	-0.770411
C192	C	1.265972	0.258530	-0.270411
C193	C	0.794383	-0.213056	-1.053089
C194	C	1.294383	0.286944	-0.553089
C195	C	0.727449	-0.279925	-1.053030
C196	C	1.227449	0.220075	-0.553030
C197	C	0.717981	-0.289397	-0.958810
C198	C	1.217981	0.210603	-0.458810
C199	C	0.775631	-0.231829	-0.200451
C200	C	1.275631	0.268171	0.299549
C201	C	0.765651	-0.241756	-0.100170
C202	C	1.265651	0.258244	0.399830
H203	H	-0.011761	-0.158079	-0.330444
H204	H	0.488239	0.341921	0.169556
H205	H	0.087287	-0.158060	-0.330430
H206	H	0.587287	0.341940	0.169570
C207	C	0.741212	-1.004424	-0.555985
C208	C	1.241212	-0.504424	-0.055985
H209	H	0.745184	-1.041680	-0.547741
H210	H	1.245184	-0.541680	-0.047741
H211	H	0.754928	-0.989360	-0.616615
H212	H	1.254928	-0.489360	-0.116615
H213	H	0.704749	-0.996844	-0.542707
H214	H	1.204749	-0.496844	-0.042707
H215	H	0.894493	-0.113068	-0.779261
H216	H	1.394493	0.386932	-0.279261
H217	H	0.511573	-0.258570	-0.539326
H218	H	1.011573	0.241430	-0.039326
H219	H	0.849288	-0.417823	-0.330253
H220	H	1.349288	0.082177	0.169747
H221	H	0.748887	-0.396877	-0.539401
H222	H	1.248887	0.103123	-0.039401
C223	C	0.003084	-0.266512	-0.555899
C224	C	0.503084	0.233488	-0.055899
H225	H	-0.034173	-0.262540	-0.547659
H226	H	0.465827	0.237460	-0.047659
H227	H	0.010669	-0.302968	-0.542594
H228	H	0.510669	0.197032	-0.042594
H229	H	0.018145	-0.252814	-0.616543
H230	H	0.518145	0.247186	-0.116543
C231	C	0.755549	-0.251883	-0.666768
C232	C	1.255549	0.248117	-0.166768
H233	H	0.728683	-0.278725	-0.645435
H234	H	1.228683	0.221275	-0.145435
H235	H	0.744395	-0.220281	-0.645467
H236	H	1.244395	0.279719	-0.145467
H237	H	0.787141	-0.263076	-0.645460
H238	H	1.287141	0.236924	-0.145460
H239	H	0.877063	-0.674764	-0.272672
H240	H	1.377063	-0.174764	0.227328
C241	C	0.857428	-1.028671	-0.313904
C242	C	1.357428	-0.528671	0.186096
H243	H	0.853478	-1.064272	-0.322175
H244	H	1.353478	-0.564272	0.177825
H245	H	0.843705	-1.025835	-0.253269
H246	H	1.343705	-0.525835	0.246731
H247	H	0.893885	-1.018358	-0.327172
H248	H	1.393885	-0.518358	0.172828
C249	C	0.695215	-0.312148	-0.765649
C250	C	1.195215	0.187852	-0.265649
H251	H	0.679462	-0.327885	-0.807186
H252	H	1.179462	0.172115	-0.307186
H253	H	0.668758	-0.295832	-0.728892
H254	H	1.168758	0.204168	-0.228892
H255	H	0.711502	-0.338630	-0.728892
H256	H	1.211502	0.161370	-0.228892
C257	C	0.675973	-0.331395	-0.906955
C258	C	1.175973	0.168605	-0.406955
H259	H	0.660224	-0.347138	-0.948488
H260	H	1.160224	0.152862	-0.448488
H261	H	0.649509	-0.315097	-0.870180
H262	H	1.149509	0.184903	-0.370180
H263	H	0.692280	-0.357869	-0.870215
H264	H	1.192280	0.142131	-0.370215
H265	H	0.849339	-0.516871	-0.330280
H266	H	1.349339	-0.016871	0.169720
C267	C	0.695843	-0.311496	-1.104815
C268	C	1.195843	0.188504	-0.604815
H269	H	0.671731	-0.335581	-1.063246
H270	H	1.171731	0.164419	-0.563246
H271	H	0.719519	-0.330587	-1.141575
H272	H	1.219519	0.169413	-0.641575
H273	H	0.676771	-0.287793	-1.141565
H274	H	1.176771	0.212207	-0.641565
C275	C	0.857393	-0.914007	-0.313886
C276	C	1.357393	-0.414007	0.186114
H277	H	0.873881	-0.941527	-0.279571
H278	H	1.373881	-0.441527	0.220429
H279	H	0.833452	-0.896684	-0.274533
H280	H	1.333452	-0.396684	0.225467
H281	H	0.883629	-0.889210	-0.348443
H282	H	1.383629	-0.389210	0.151557
C283	C	0.741170	-0.889771	-0.555972
C284	C	1.241170	-0.389771	-0.055972
H285	H	0.724697	-0.910419	-0.590291
H286	H	1.224697	-0.410419	-0.090291
H287	H	0.765096	-0.864490	-0.595321
H288	H	1.265096	-0.364490	-0.095321
H289	H	0.714921	-0.871973	-0.521408
H290	H	1.214921	-0.371973	-0.021408
H291	H	0.233624	-0.130355	-0.272793
H292	H	0.733624	0.369645	0.227207
C293	C	0.713469	-0.747465	-0.613616
C294	C	1.213469	-0.247465	-0.113616
H295	H	0.696990	-0.719941	-0.647940
H296	H	1.196990	-0.219941	-0.147940
H297	H	0.687234	-0.772266	-0.579080
H298	H	1.187234	-0.272266	-0.079080
H299	H	0.737420	-0.764781	-0.652972
H300	H	1.237420	-0.264781	-0.152972
H301	H	0.332668	-0.130345	-0.272778
H302	H	0.832668	0.369655	0.227222
H303	H	0.490573	-0.158043	-0.330326
H304	H	0.990573	0.341957	0.169674
H305	H	0.365230	-0.286270	-0.596976
H306	H	0.865230	0.213730	-0.096976
C307	C	0.117750	-0.266510	-0.555871
C308	C	0.617750	0.233490	-0.055871
H309	H	0.097115	-0.283008	-0.590179
H310	H	0.597115	0.216992	-0.090179
H311	H	0.135559	-0.292731	-0.521289
H312	H	0.635559	0.207269	-0.021289
H313	H	0.143023	-0.242582	-0.595247
H314	H	0.643023	0.257418	-0.095247
C315	C	0.595783	-0.150122	-0.313856
C316	C	1.095783	0.349878	0.186144
H317	H	0.633041	-0.154086	-0.322108
H318	H	1.133041	0.345914	0.177892
H319	H	0.580725	-0.163807	-0.253211
H320	H	1.080725	0.336193	0.246789
H321	H	0.588197	-0.113665	-0.327184
H322	H	1.088197	0.386335	0.172816
H323	H	0.610619	-0.258574	-0.539286
H324	H	1.110619	0.241426	-0.039286
C325	C	0.713428	-0.632816	-0.613587
C326	C	1.213428	-0.132816	-0.113587
H327	H	0.696958	-0.653462	-0.647915
H328	H	1.196958	-0.153462	-0.147915
H329	H	0.737358	-0.607535	-0.652929
H330	H	1.237358	-0.107535	-0.152929
H331	H	0.687177	-0.615018	-0.579028
H332	H	1.187177	-0.115018	-0.079028
C333	C	0.260038	-0.294160	-0.613493
C334	C	0.760038	0.205840	-0.113493
H335	H	0.287566	-0.310651	-0.647794
H336	H	0.787566	0.189349	-0.147794
H337	H	0.242723	-0.270223	-0.652858
H338	H	0.742723	0.229777	-0.152858
H339	H	0.235235	-0.320394	-0.578945
H340	H	0.735235	0.179606	-0.078945
C341	C	0.885008	-0.783258	-0.256220
C342	C	1.385008	-0.283258	0.243780
H343	H	0.901470	-0.762609	-0.221889
H344	H	1.401470	-0.262609	0.278111
H345	H	0.911256	-0.801064	-0.290764
H346	H	1.411256	-0.301064	0.209236
H347	H	0.861072	-0.808535	-0.216868
H348	H	1.361072	-0.308535	0.283132
H349	H	0.748930	-0.495940	-0.539435
H350	H	1.248930	0.004060	-0.039435
C351	C	0.836403	-0.171075	-1.104936
C352	C	1.336403	0.328925	-0.604936
H353	H	0.837929	-0.169541	-1.167797
H354	H	1.337929	0.330459	-0.667797
H355	H	0.869975	-0.180286	-1.089505
H356	H	1.369975	0.319714	-0.589505
H357	H	0.827226	-0.137493	-1.089502
H358	H	1.327226	0.362507	-0.589502
C359	C	0.922594	-0.084977	-0.963676
C360	C	1.422594	0.415023	-0.463676
H361	H	0.938352	-0.069245	-0.922139
H362	H	1.438352	0.430755	-0.422139
H363	H	0.906307	-0.058498	-1.000431
H364	H	1.406307	0.441502	-0.500431
H365	H	0.949056	-0.101291	-1.000436
H366	H	1.449056	0.398709	-0.500436
H367	H	0.859556	-0.147943	-1.035637
H368	H	1.359556	0.352057	-0.535637
