data_functionalizedCrystal
_audit_creation_method	'MofGen! by Chris Wilmer'
_symmetry_space_group_name_H-M	'P1'
_symmetry_Int_Tables_number	1
_symmetry_cell_setting	triclinic
loop_
_symmetry_equiv_pos_as_xyz
  x,y,z
_cell_length_a	15.944551
_cell_length_b	19.288864
_cell_length_c	14.421503
_cell_angle_alpha	89.982498
_cell_angle_beta	89.996859
_cell_angle_gamma	83.317495
loop_
_atom_site_label
_atom_site_type_symbol
_atom_site_fract_x
_atom_site_fract_y
_atom_site_fract_z
O1	O	1.114184	0.089573	-0.077061
O2	O	1.447518	0.422906	0.256273
O3	O	1.780851	0.756239	0.589606
O4	O	0.869592	0.100617	-0.077089
O5	O	1.202925	0.433950	0.256244
O6	O	1.536259	0.767284	0.589577
O7	O	0.998956	-0.006017	-0.077017
O8	O	1.332289	0.327316	0.256317
O9	O	1.665622	0.660650	0.589650
O10	O	0.984821	0.196207	-0.077133
O11	O	1.318154	0.529540	0.256200
O12	O	1.651487	0.862873	0.589534
O13	O	0.998934	-0.006001	0.077207
O14	O	1.332268	0.327332	0.410540
O15	O	1.665601	0.660666	0.743873
O16	O	0.869571	0.100633	0.077134
O17	O	1.202904	0.433966	0.410468
O18	O	1.536237	0.767300	0.743801
O19	O	1.114163	0.089588	0.077163
O20	O	1.447496	0.422922	0.410496
O21	O	1.780830	0.756255	0.743830
Cu22	Cu	0.991865	0.095112	0.091230
Cu23	Cu	1.325198	0.428445	0.424564
Cu24	Cu	1.658531	0.761779	0.757897
Cu25	Cu	0.991890	0.095093	-0.091157
Cu26	Cu	1.325223	0.428427	0.242177
Cu27	Cu	1.658557	0.761760	0.575510
O28	O	0.984799	0.196222	0.077090
O29	O	1.318133	0.529556	0.410424
O30	O	1.651466	0.862889	0.743757
C31	C	0.838289	0.100167	0.000020
C32	C	1.171623	0.433500	0.333353
C33	C	1.504956	0.766833	0.666686
C34	C	0.745048	0.098792	0.000012
C35	C	1.078382	0.432125	0.333345
C36	C	1.411715	0.765459	0.666679
C37	C	0.998490	-0.031887	0.000108
C38	C	1.331824	0.301447	0.333441
C39	C	1.665157	0.634780	0.666774
C40	C	0.997125	-0.108994	0.000146
C41	C	1.330458	0.224340	0.333479
C42	C	1.663792	0.557673	0.666812
N43	N	0.991853	0.095125	0.219512
N44	N	1.325186	0.428458	0.552845
N45	N	1.658520	0.761792	0.886178
C46	C	0.530459	0.029410	0.000070
C47	C	0.863792	0.362743	0.333403
C48	C	1.197126	0.696076	0.666736
C49	C	0.469325	0.061621	-0.075989
C50	C	0.802659	0.394954	0.257344
C51	C	1.135992	0.728287	0.590678
C52	C	0.574332	0.096305	0.000024
C53	C	0.907665	0.429639	0.333358
C54	C	1.240999	0.762972	0.666691
C55	C	0.469326	0.061652	0.076063
C56	C	0.802660	0.394985	0.409396
C57	C	1.135993	0.728319	0.742730
C58	C	0.409429	0.093898	0.000040
C59	C	0.742762	0.427232	0.333374
C60	C	1.076095	0.760565	0.666707
C61	C	0.514427	0.128535	-0.076097
C62	C	0.847760	0.461868	0.257236
C63	C	1.181093	0.795201	0.590569
C64	C	0.514434	0.128557	0.076023
C65	C	0.847767	0.461890	0.409356
C66	C	1.181101	0.795223	0.742690
C67	C	0.453318	0.160816	-0.000054
C68	C	0.786651	0.494150	0.333279
C69	C	1.119985	0.827483	0.666612
C70	C	0.669329	0.097690	0.000014
C71	C	1.002662	0.431023	0.333348
C72	C	1.335996	0.764357	0.666681
C73	C	0.314433	0.092519	0.000044
C74	C	0.647766	0.425852	0.333377
C75	C	0.981100	0.759185	0.666710
C76	C	1.145466	0.090039	0.000052
C77	C	1.478799	0.423372	0.333385
C78	C	1.812132	0.756706	0.666719
C79	C	1.238707	0.091414	0.000054
C80	C	1.572040	0.424747	0.333387
C81	C	1.905373	0.758080	0.666720
C82	C	0.985265	0.222092	-0.000036
C83	C	1.318598	0.555425	0.333297
C84	C	1.651931	0.888759	0.666631
C85	C	0.986630	0.299199	-0.000080
C86	C	1.319963	0.632533	0.333253
C87	C	1.653297	0.965866	0.666587
C88	C	0.910725	0.343696	-0.000070
C89	C	1.244059	0.677029	0.333263
C90	C	1.577392	1.010362	0.666597
C91	C	0.912008	0.416146	-0.000049
C92	C	1.245341	0.749479	0.333284
C93	C	1.578675	1.082813	0.666618
C94	C	0.989200	0.444097	-0.000019
C95	C	1.322533	0.777430	0.333314
C96	C	1.655866	1.110764	0.666648
C97	C	1.065114	0.399591	-0.000034
C98	C	1.398448	0.732924	0.333299
C99	C	1.731781	1.066257	0.666632
C100	C	1.063830	0.327142	-0.000065
C101	C	1.397163	0.660475	0.333269
C102	C	1.730496	0.993809	0.666602
C103	C	1.049873	0.552512	0.054068
C104	C	1.383207	0.885846	0.387402
C105	C	1.716540	1.219179	0.720735
C106	C	1.051155	0.624960	0.054104
C107	C	1.384488	0.958294	0.387438
C108	C	1.717822	1.291627	0.720771
C109	C	0.993166	0.667553	0.000070
C110	C	1.326499	1.000886	0.333404
C111	C	1.659832	1.334220	0.666737
C112	C	0.933881	0.637691	-0.053988
C113	C	1.267214	0.971024	0.279346
C114	C	1.600547	1.304357	0.612679
C115	C	0.932596	0.565242	-0.054018
C116	C	1.265929	0.898575	0.279315
C117	C	1.599262	1.231908	0.612649
C118	C	0.990601	0.522655	0.000013
C119	C	1.323935	0.855988	0.333347
C120	C	1.657268	1.189321	0.666680
C121	C	0.918647	0.790609	0.000102
C122	C	1.251980	1.123942	0.333435
C123	C	1.585313	1.457276	0.666768
C124	C	0.919932	0.863060	0.000117
C125	C	1.253266	1.196394	0.333451
C126	C	1.586599	1.529727	0.666784
C127	C	1.073041	0.846503	0.000141
C128	C	1.406374	1.179837	0.333475
C129	C	1.739708	1.513170	0.666808
C130	C	1.071753	0.774054	0.000117
C131	C	1.405086	1.107387	0.333450
C132	C	1.738420	1.440720	0.666783
C133	C	0.994553	0.746111	0.000101
C134	C	1.327887	1.079444	0.333435
C135	C	1.661220	1.412778	0.666768
N136	N	0.991909	0.095075	-0.219438
N137	N	1.325242	0.428408	0.113895
N138	N	1.658575	0.761742	0.447229
C139	C	0.932025	0.144410	0.469132
C140	C	1.265358	0.477744	0.802465
C141	C	1.598692	0.811077	1.135798
C142	C	1.007873	0.157895	0.530934
C143	C	1.341206	0.491229	0.864267
C144	C	1.674540	0.824562	1.197601
C145	C	0.991874	0.095108	0.408673
C146	C	1.325207	0.428442	0.742006
C147	C	1.658540	0.761775	1.075340
C148	C	0.916045	0.081640	0.530965
C149	C	1.249378	0.414973	0.864298
C150	C	1.582712	0.748306	1.197632
C151	C	0.991887	0.095094	0.591394
C152	C	1.325220	0.428427	0.924728
C153	C	1.658553	0.761761	1.258061
C154	C	1.067760	0.108624	0.469114
C155	C	1.401093	0.441958	0.802448
C156	C	1.734427	0.775291	1.135781
C157	C	0.975882	0.032342	0.469140
C158	C	1.309215	0.365675	0.802473
C159	C	1.642549	0.699008	1.135807
C160	C	1.051785	0.045800	0.530914
C161	C	1.385118	0.379133	0.864247
C162	C	1.718452	0.712467	1.197581
C163	C	0.991865	0.095118	0.303412
C164	C	1.325198	0.428452	0.636745
C165	C	1.658532	0.761785	0.970079
C166	C	0.991904	0.095083	0.696653
C167	C	1.325237	0.428417	1.029987
C168	C	1.658571	0.761750	1.363320
H169	H	0.564006	-0.026108	0.000008
H170	H	0.897339	0.307225	0.333341
H171	H	1.230672	0.640558	0.666674
H172	H	1.097102	0.517838	0.098068
H173	H	1.430435	0.851171	0.431401
H174	H	1.763769	1.184504	0.764735
N175	N	0.540757	0.165966	-0.161379
N176	N	0.874090	0.499299	0.171954
N177	N	1.207423	0.832633	0.505288
H178	H	0.511947	0.215452	-0.161674
H179	H	0.845281	0.548785	0.171660
H180	H	1.178614	0.882119	0.504993
H181	H	0.604004	0.166590	-0.160828
H182	H	0.937338	0.499924	0.172505
H183	H	1.270671	0.833257	0.505839
H184	H	0.419945	0.216391	-0.000129
H185	H	0.753279	0.549725	0.333205
H186	H	1.086612	0.883058	0.666538
H187	H	0.850195	0.452382	-0.000039
H188	H	1.183529	0.785715	0.333294
H189	H	1.516862	1.119049	0.666628
N190	N	1.145706	0.279149	-0.000064
N191	N	1.479039	0.612483	0.333270
N192	N	1.812372	0.945816	0.666603
H193	H	1.148574	0.248699	0.057098
H194	H	1.481908	0.582032	0.390431
H195	H	1.815241	0.915366	0.723765
H196	H	1.148547	0.248789	-0.057281
H197	H	1.481880	0.582122	0.276052
H198	H	1.815213	0.915456	0.609385
H199	H	0.851913	0.070255	0.558136
H200	H	1.185246	0.403588	0.891469
H201	H	1.518579	0.736921	1.224802
H202	H	1.102458	0.004098	0.557870
H203	H	1.435791	0.337431	0.891204
H204	H	1.769125	0.670765	1.224537
H205	H	0.881464	0.186137	0.442006
H206	H	1.214797	0.519470	0.775339
H207	H	1.548131	0.852804	1.108672
H208	H	0.534448	0.156834	0.140297
H209	H	0.867781	0.490167	0.473630
H210	H	1.201114	0.823501	0.806963
H211	H	1.099425	0.649269	0.098125
H212	H	1.432758	0.982602	0.431459
H213	H	1.766092	1.315935	0.764792
N214	N	0.838062	0.911060	0.000125
N215	N	1.171396	1.244394	0.333458
N216	N	1.504729	1.577727	0.666791
H217	H	0.804374	0.902094	-0.057051
H218	H	1.137708	1.235427	0.276282
H219	H	1.471041	1.568761	0.609616
H220	H	0.804435	0.902026	0.057328
H221	H	1.137768	1.235359	0.390661
H222	H	1.471101	1.568693	0.723995
N223	N	0.442847	0.024172	0.161237
N224	N	0.776180	0.357505	0.494570
N225	N	1.109514	0.690839	0.827903
H226	H	0.471204	-0.025457	0.161193
H227	H	0.804538	0.307877	0.494526
H228	H	1.137871	0.641210	0.827860
H229	H	0.460060	0.048996	0.218608
H230	H	0.793393	0.382329	0.551942
H231	H	1.126727	0.715663	0.885275
H232	H	0.847864	0.320950	-0.000091
H233	H	1.181197	0.654283	0.333242
H234	H	1.514530	0.987617	0.666576
N235	N	0.442839	0.024140	-0.161124
N236	N	0.776172	0.357473	0.172209
N237	N	1.109505	0.690807	0.505542
H238	H	0.471190	-0.025491	-0.161042
H239	H	0.804523	0.307842	0.172292
H240	H	1.137856	0.641176	0.505625
H241	H	0.379526	0.023941	-0.160747
H242	H	0.712859	0.357275	0.172586
H243	H	1.046193	0.690608	0.505919
N244	N	0.835387	0.760464	0.000080
N245	N	1.168720	1.093797	0.333414
N246	N	1.502054	1.427130	0.666747
H247	H	0.787494	0.799649	0.000082
H248	H	1.120828	1.132982	0.333415
H249	H	1.454161	1.466316	0.666749
H250	H	0.831529	0.730787	-0.057103
H251	H	1.164862	1.064121	0.276231
H252	H	1.498196	1.397454	0.609564
H253	H	0.884325	0.540931	-0.098035
H254	H	1.217658	0.874264	0.235298
H255	H	1.550992	1.207597	0.568631
N256	N	0.871334	0.683618	-0.112280
N257	N	1.204667	1.016951	0.221053
N258	N	1.538001	1.350285	0.554386
H259	H	0.881147	0.734045	-0.104068
H260	H	1.214480	1.067378	0.229265
H261	H	1.547813	1.400711	0.562599
H262	H	0.878981	0.670126	-0.179675
H263	H	1.212315	1.003460	0.153658
H264	H	1.545648	1.336793	0.486991
H265	H	1.135892	0.869260	0.000098
H266	H	1.469225	1.202594	0.333432
H267	H	1.802559	1.535927	0.666765
N268	N	1.153622	0.726055	0.000116
N269	N	1.486955	1.059389	0.333449
N270	N	1.820289	1.392722	0.666782
H271	H	1.202719	0.754753	0.000140
H272	H	1.536052	1.088087	0.333473
H273	H	1.869386	1.421420	0.666806
H274	H	1.156412	0.695612	0.057278
H275	H	1.489745	1.028945	0.390611
H276	H	1.823079	1.362278	0.723944
H277	H	1.021411	0.210969	0.558077
H278	H	1.354744	0.544303	0.891410
H279	H	1.688078	0.877636	1.224744
H280	H	1.127965	0.422353	-0.000027
H281	H	1.461298	0.755686	0.333306
H282	H	1.794631	1.089020	0.666640
H283	H	1.131906	0.120073	0.442060
H284	H	1.465239	0.453407	0.775394
H285	H	1.798573	0.786740	1.108727
H286	H	0.962320	-0.020715	0.441975
H287	H	1.295654	0.312618	0.775308
H288	H	1.628987	0.645951	1.108642
