data_functionalizedCrystal
_audit_creation_method	'MofGen! by Chris Wilmer'
_symmetry_space_group_name_H-M	'P1'
_symmetry_Int_Tables_number	1
_symmetry_cell_setting	triclinic
loop_
_symmetry_equiv_pos_as_xyz
  x,y,z
_cell_length_a	16.956984
_cell_length_b	14.044190
_cell_length_c	15.455313
_cell_angle_alpha	92.904485
_cell_angle_beta	87.518126
_cell_angle_gamma	84.622598
loop_
_atom_site_label
_atom_site_type_symbol
_atom_site_fract_x
_atom_site_fract_y
_atom_site_fract_z
O1	O	1.064001	0.034660	-0.072138
O2	O	0.834198	0.067754	-0.072141
O3	O	0.945646	-0.086506	-0.072122
O4	O	0.952552	0.188920	-0.072156
O5	O	0.939271	-0.077719	0.072139
O6	O	0.827823	0.076541	0.072120
O7	O	1.057625	0.043447	0.072123
Cu8	Cu	0.942142	0.060796	0.085294
Cu9	Cu	0.949682	0.050405	-0.085312
O10	O	0.946177	0.197707	0.072105
C11	C	0.801423	0.073842	-0.000011
C12	C	0.713261	0.078881	-0.000012
C13	C	0.675182	-0.005360	0.000000
C14	C	0.592344	-0.000620	-0.000006
C15	C	0.547586	0.088361	-0.000019
C16	C	0.585671	0.172607	-0.000034
C17	C	0.668507	0.167866	-0.000033
C18	C	0.299484	0.111826	-0.000028
C19	C	0.216642	0.116560	-0.000026
C20	C	0.223321	-0.056668	-0.000000
C21	C	0.306159	-0.061400	0.000006
C22	C	0.344236	0.022846	-0.000014
N23	N	0.462913	0.093207	-0.000023
N24	N	0.428908	0.017998	-0.000016
C25	C	0.939438	-0.117190	0.000011
C26	C	0.930428	-0.221710	0.000018
C27	C	0.977857	-0.475715	-0.000015
C28	C	0.913970	-0.413079	-0.000010
C29	C	0.923130	-0.306592	0.000005
C30	C	0.968699	-0.582212	-0.000031
C31	C	1.090401	0.037358	-0.000009
C32	C	1.178563	0.032320	-0.000014
C33	C	0.952385	0.228391	-0.000030
C34	C	0.961396	0.332910	-0.000043
N35	N	0.936844	0.068104	0.205288
N36	N	0.954985	0.043088	-0.205306
C37	C	0.984211	0.002590	0.250691
C38	C	0.980213	0.008125	0.341498
C39	C	0.928852	0.079179	0.386901
C40	C	0.881479	0.144696	0.341493
C41	C	0.885474	0.139157	0.250687
C42	C	0.911607	0.103066	0.658480
C43	C	0.907618	0.108603	0.749292
C44	C	1.006351	-0.027970	0.749290
C45	C	1.010344	-0.033500	0.658483
C46	C	0.962969	0.032014	0.613083
N47	N	0.924765	0.084840	0.479721
N48	N	0.967052	0.026348	0.520265
H49	H	0.192310	-0.125257	0.000006
N50	N	0.338354	0.197891	-0.000032
N51	N	0.324173	0.260115	0.060771
H52	H	0.351626	0.320905	0.060769
N53	N	0.837104	0.206092	0.204307
N54	N	0.868655	0.259560	0.153618
H55	H	0.834492	0.306834	0.120862
H56	H	0.561345	-0.069218	0.000003
N57	N	1.055095	-0.442662	0.000022
N58	N	1.099308	-0.461164	0.060842
H59	H	1.153857	-0.437809	0.060874
N60	N	1.036635	-0.070043	0.204330
N61	N	1.078887	-0.128568	0.244883
H62	H	1.115892	-0.179890	0.212143
N63	N	0.863220	0.170005	0.612130
N64	N	0.870059	0.257667	0.622260
H65	H	0.835883	0.304949	0.589524
N66	N	0.170933	0.207465	-0.000032
N67	N	0.204938	0.282677	-0.000045
H68	H	0.172657	0.346877	-0.000046
N69	N	0.720885	-0.096260	0.000025
N70	N	0.686872	-0.171467	0.000037
H71	H	0.719147	-0.235669	0.000054
H72	H	0.342595	-0.133858	0.000020
H73	H	0.549222	0.245057	-0.000050
H74	H	0.699509	0.236464	-0.000039
N75	N	1.028599	-0.058807	0.387861
N76	N	1.074457	-0.122241	0.347312
H77	H	1.108631	-0.169517	0.380055
H78	H	0.852396	-0.439430	-0.000016
N79	N	1.062960	-0.105936	0.612121
N80	N	1.105346	-0.164327	0.652670
H81	H	1.142564	-0.215428	0.619928
N82	N	1.054735	-0.094880	0.795680
N83	N	1.051165	-0.089927	0.876755
H84	H	1.085336	-0.137186	0.909519
H85	H	0.865791	0.166467	0.786255
H86	H	0.839656	0.202547	0.378465
