data_functionalizedCrystal
_audit_creation_method	'MofGen! by Chris Wilmer'
_symmetry_space_group_name_H-M	'P1'
_symmetry_Int_Tables_number	1
_symmetry_cell_setting	triclinic
loop_
_symmetry_equiv_pos_as_xyz
  x,y,z
_cell_length_a	18.101395
_cell_length_b	12.645331
_cell_length_c	12.645323
_cell_angle_alpha	89.977324
_cell_angle_beta	90.028267
_cell_angle_gamma	89.969917
loop_
_atom_site_label
_atom_site_type_symbol
_atom_site_fract_x
_atom_site_fract_y
_atom_site_fract_z
Zn1	Zn	-0.294844	-1.620632	0.599421
Zn2	Zn	-0.418694	-1.620473	0.422151
Zn3	Zn	-0.294869	-1.443347	0.422166
Zn4	Zn	-0.418646	-1.443287	0.599366
O5	O	-0.356763	-1.531935	0.510776
O6	O	-0.311283	-1.768958	0.575923
O7	O	-0.402299	-1.596935	0.273805
O8	O	-0.191233	-1.466956	0.445708
O9	O	-0.402275	-1.768841	0.445683
O10	O	-0.191214	-1.597207	0.575937
O11	O	-0.311325	-1.466801	0.273816
O12	O	-0.311278	-1.294992	0.445655
O13	O	-0.402193	-1.466854	0.747721
O14	O	-0.402217	-1.294948	0.575843
O15	O	-0.311236	-1.597149	0.747761
O16	O	-0.522321	-1.596877	0.445630
O17	O	-0.522285	-1.466699	0.575829
C18	C	-0.549174	-1.531793	0.510745
C19	C	-0.631488	-1.531829	0.510767
C20	C	-0.356746	-1.256505	0.510745
C21	C	-0.356756	-1.138675	0.510757
C22	C	-0.356706	-1.532013	0.787281
C23	C	-0.356682	-1.532046	0.905112
C24	C	-0.930579	-1.532062	0.510824
C25	C	-0.899262	-1.450348	0.592945
C26	C	-0.813644	-1.449960	0.592688
C27	C	-0.782196	-1.531946	0.510797
C28	C	-0.813349	-1.501694	0.399071
C29	C	-0.898994	-1.501167	0.399562
C30	C	-0.898924	-1.644207	0.539445
C31	C	-0.813273	-1.643548	0.541895
C32	C	-0.698337	-1.531883	0.510774
C33	C	-1.014438	-1.532123	0.510839
C34	C	-0.163601	-1.532106	0.510830
C35	C	-0.081287	-1.532179	0.510854
C36	C	-0.356781	-1.808440	0.510807
C37	C	-0.356789	-1.926270	0.510821
C38	C	-0.299284	-0.971103	0.429308
C39	C	-0.299432	-1.093663	0.428949
C40	C	-0.434770	-1.094129	0.480236
C41	C	-0.434456	-0.971530	0.479680
C42	C	-0.336957	-0.971532	0.623043
C43	C	-0.335215	-1.094139	0.622419
C44	C	-0.356767	-1.531918	0.235346
C45	C	-0.356583	-1.532090	0.117517
C46	C	-0.413633	-1.449825	1.072650
C47	C	-0.413915	-1.450040	0.950090
C48	C	-0.377863	-1.643739	0.949630
C49	C	-0.378220	-1.643288	1.072228
C50	C	-0.278231	-1.503631	1.072316
C51	C	-0.278701	-1.501139	0.949710
H52	H	-0.792579	-1.468888	0.675532
C53	C	-0.257114	-1.390103	0.910392
C54	C	-0.186806	-1.375045	0.843561
C55	C	-0.165223	-1.264009	0.804233
C56	C	-0.213949	-1.168032	0.831737
C57	C	-0.284262	-1.183087	0.898572
C58	C	-0.305845	-1.294123	0.937900
H59	H	-0.150732	-1.446095	0.823198
H60	H	-0.113172	-1.252865	0.754757
H61	H	-0.197972	-1.085837	0.802624
H62	H	-0.320336	-1.112037	0.918935
H63	H	-0.357896	-1.305267	0.987375
C64	C	-0.494300	-0.931453	0.556377
C65	C	-0.506220	-0.811827	0.571513
C66	C	-0.566066	-0.771755	0.648204
C67	C	-0.613991	-0.851309	0.709758
C68	C	-0.602072	-0.970941	0.694623
C69	C	-0.542226	-1.011013	0.617933
H70	H	-0.470742	-0.752931	0.525946
H71	H	-0.574889	-0.683195	0.659407
H72	H	-0.658292	-0.821645	0.766529
H73	H	-0.637550	-1.029838	0.740191
H74	H	-0.533403	-1.099574	0.606729
C75	C	-0.261447	-0.929826	0.660544
C76	C	-0.230554	-0.963825	0.768839
C77	C	-0.155040	-0.922118	0.806326
C78	C	-0.110419	-0.846414	0.735518
C79	C	-0.141311	-0.812411	0.627217
C80	C	-0.216825	-0.854118	0.589730
H81	H	-0.263585	-1.019869	0.821262
H82	H	-0.132171	-0.947290	0.886499
H83	H	-0.054519	-0.815540	0.763268
H84	H	-0.108280	-0.756367	0.574794
H85	H	-0.239694	-0.828946	0.509557
H86	H	-0.791963	-1.420584	0.374392
H87	H	-0.791861	-1.707650	0.486442
C88	C	-0.220805	-1.584569	1.111516
C89	C	-0.244842	-1.676037	1.184175
C90	C	-0.187424	-1.756979	1.223381
C91	C	-0.105970	-1.746453	1.189927
C92	C	-0.081930	-1.654981	1.117264
C93	C	-0.139348	-1.574039	1.078058
H94	H	-0.305142	-1.683832	1.208943
H95	H	-0.205221	-1.824692	1.277171
H96	H	-0.063467	-1.806371	1.218949
H97	H	-0.021630	-1.647186	1.092496
H98	H	-0.121551	-1.506326	1.024268
H99	H	-0.258923	-1.423605	1.103222
C100	C	-0.395995	-1.338152	0.909430
C101	C	-0.327710	-1.319853	0.839196
C102	C	-0.309786	-1.207959	0.798548
C103	C	-0.360148	-1.114363	0.828134
C104	C	-0.428438	-1.132658	0.898371
C105	C	-0.446362	-1.244553	0.939019
H106	H	-0.290424	-1.389141	0.817291
H107	H	-0.259233	-1.194416	0.746553
H108	H	-0.346880	-1.031532	0.798044
H109	H	-0.465724	-1.063370	0.920276
H110	H	-0.496915	-1.258096	0.991014
C111	C	-0.785833	-1.579558	0.314149
C112	C	-0.734634	-1.671740	0.345340
C113	C	-0.707117	-1.749606	0.260420
C114	C	-0.730798	-1.735290	0.144309
C115	C	-0.782000	-1.643104	0.113113
C116	C	-0.809517	-1.565238	0.198033
H117	H	-0.717101	-1.682341	0.431296
H118	H	-0.669214	-1.817848	0.283514
H119	H	-0.710429	-1.792931	0.081446
H120	H	-0.799533	-1.632503	0.027156
H121	H	-0.847420	-1.496996	0.174939
C122	C	-0.457883	-1.135520	0.370591
C123	C	-0.528722	-1.201829	0.358587
C124	C	-0.551831	-1.243217	0.248939
C125	C	-0.504101	-1.218297	0.151295
C126	C	-0.433258	-1.151985	0.163295
C127	C	-0.410149	-1.110596	0.272943
H128	H	-0.564058	-1.220279	0.430872
H129	H	-0.604274	-1.292306	0.240057
H130	H	-0.521207	-1.248935	0.070127
H131	H	-0.397921	-1.133534	0.091010
H132	H	-0.357706	-1.061507	0.281825
H133	H	-0.920471	-1.671788	0.619527
H134	H	-0.919809	-1.469088	0.676057
H135	H	-0.233948	-1.556682	0.919092
C136	C	-0.393534	-0.932368	0.705101
C137	C	-0.440360	-1.012574	0.767538
C138	C	-0.496938	-0.973405	0.849587
C139	C	-0.506691	-0.854031	0.869199
C140	C	-0.459864	-0.773818	0.806760
C141	C	-0.403286	-0.812987	0.724711
H142	H	-0.433141	-1.100948	0.753022
H143	H	-0.531602	-1.032785	0.895808
H144	H	-0.548574	-0.825036	0.929936
H145	H	-0.467083	-0.685444	0.821276
H146	H	-0.368621	-0.753607	0.678490
C147	C	-0.785755	-1.674385	0.652966
C148	C	-0.735305	-1.598618	0.715168
C149	C	-0.707781	-1.629453	0.826238
C150	C	-0.730708	-1.736053	0.875107
C151	C	-0.781161	-1.811826	0.812905
C152	C	-0.808684	-1.780992	0.701835
H153	H	-0.718331	-1.519700	0.678993
H154	H	-0.670432	-1.573360	0.872284
H155	H	-0.710333	-1.758879	0.957328
H156	H	-0.798135	-1.890745	0.849080
H157	H	-0.846033	-1.837085	0.655789
H158	H	-0.920848	-1.367728	0.574226
C159	C	-0.786045	-1.337666	0.567072
C160	C	-0.841935	-1.248067	0.546780
C161	C	-0.814336	-1.135769	0.521160
C162	C	-0.730847	-1.113070	0.515834
C163	C	-0.674952	-1.202672	0.536127
C164	C	-0.702551	-1.314970	0.561747
H165	H	-0.903743	-1.264868	0.550722
H166	H	-0.855714	-1.069440	0.506138
H167	H	-0.710417	-1.029941	0.496869
H168	H	-0.613144	-1.185872	0.532185
H169	H	-0.661173	-1.381299	0.576769
H170	H	-0.919036	-1.419189	0.375318
H171	H	-0.478761	-1.123283	0.537743
C172	C	-0.324538	-1.728908	1.112343
C173	C	-0.353279	-1.819832	1.182117
C174	C	-0.299604	-1.905456	1.222231
C175	C	-0.217188	-1.900156	1.192571
C176	C	-0.188443	-1.809228	1.122793
C177	C	-0.242118	-1.723603	1.082680
H178	H	-0.414292	-1.823759	1.204076
H179	H	-0.320884	-1.972768	1.273885
H180	H	-0.177455	-1.963540	1.222265
H181	H	-0.127430	-1.805300	1.100834
H182	H	-0.220839	-1.656292	1.031026
C183	C	-0.491616	-1.474947	1.114272
C184	C	-0.503667	-1.569752	1.188750
C185	C	-0.581649	-1.594877	1.230374
C186	C	-0.647579	-1.525197	1.197519
C187	C	-0.635530	-1.430386	1.123037
C188	C	-0.557548	-1.405261	1.081413
H189	H	-0.454859	-1.621339	1.213075
H190	H	-0.590568	-1.665063	1.285511
H191	H	-0.705306	-1.543796	1.228331
H192	H	-0.684337	-1.378799	1.098712
H193	H	-0.548629	-1.335075	1.026276
C194	C	-0.926281	-1.726460	0.458651
C195	C	-0.907379	-1.713558	0.340630
C196	C	-0.934740	-1.795800	0.259833
C197	C	-0.981003	-1.890944	0.297059
C198	C	-0.999908	-1.903850	0.415087
C199	C	-0.972547	-1.821608	0.495883
H200	H	-0.873130	-1.643123	0.313068
H201	H	-0.920745	-1.786246	0.172461
H202	H	-1.001257	-1.951825	0.237249
H203	H	-1.034157	-1.974285	0.442648
H204	H	-0.986542	-1.831162	0.583255
H205	H	-0.400505	-1.366755	1.102125
C206	C	-0.221280	-1.134363	0.454779
C207	C	-0.158297	-1.055309	0.475879
C208	C	-0.080140	-1.096003	0.501703
C209	C	-0.064965	-1.215749	0.506427
C210	C	-0.127950	-1.294810	0.485327
C211	C	-0.206107	-1.254116	0.459502
H212	H	-0.169528	-0.966659	0.472382
H213	H	-0.033514	-1.037476	0.517323
H214	H	-0.007109	-1.245873	0.525544
H215	H	-0.116719	-1.383460	0.488823
H216	H	-0.252733	-1.312643	0.443882
H217	H	-0.241259	-0.941659	0.448234
H218	H	-0.919713	-1.558102	0.336289
H219	H	-0.312246	-0.940251	0.346636
H220	H	-0.312540	-1.122937	0.345787
H221	H	-0.472001	-1.468825	0.920771
H222	H	-0.435497	-1.667414	1.100834
H223	H	-0.451274	-0.942879	0.397640
H224	H	-0.277805	-1.123262	0.645434
H225	H	-0.374044	-1.124783	0.686401
H226	H	-0.337625	-1.706675	0.920498
H227	H	-0.434540	-1.668278	0.918936
