data_functionalizedCrystal
_audit_creation_method	'MofGen! by Chris Wilmer'
_symmetry_space_group_name_H-M	'P1'
_symmetry_Int_Tables_number	1
_symmetry_cell_setting	triclinic
loop_
_symmetry_equiv_pos_as_xyz
  x,y,z
_cell_length_a	17.699077
_cell_length_b	13.339070
_cell_length_c	12.376774
_cell_angle_alpha	80.977052
_cell_angle_beta	102.682351
_cell_angle_gamma	80.545075
loop_
_atom_site_label
_atom_site_type_symbol
_atom_site_fract_x
_atom_site_fract_y
_atom_site_fract_z
O1	O	1.047667	-0.145105	0.094014
O2	O	0.830807	-0.161748	0.094023
O3	O	0.914342	-0.006218	0.093984
O4	O	0.964132	-0.300634	0.094053
O5	O	0.881199	0.028329	-0.094028
O6	O	0.797663	-0.127200	-0.093989
O7	O	1.014523	-0.110557	-0.093997
Zn8	Zn	0.900831	-0.113393	-0.123844
Zn9	Zn	0.944499	-0.158911	0.123870
O10	O	0.930988	-0.266087	-0.093958
C11	C	0.785913	-0.143879	0.000018
C12	C	0.701517	-0.142093	0.000019
C13	C	0.643805	-0.122420	-0.102467
C14	C	0.564504	-0.120725	-0.102469
C15	C	0.542918	-0.138712	0.000017
C16	C	0.600636	-0.158384	0.102512
C17	C	0.679935	-0.160071	0.102512
C18	C	0.280835	-0.151580	0.102512
C19	C	0.201530	-0.149894	0.102504
C20	C	0.165404	-0.112234	-0.102469
C21	C	0.244703	-0.113921	-0.102468
C22	C	0.302414	-0.133588	0.000025
C23	C	0.388400	-0.135423	0.000026
C24	C	0.456933	-0.136884	0.000018
C25	C	0.889361	0.048725	-0.000028
C26	C	0.864294	0.160968	-0.000047
C27	C	1.059418	-0.128426	0.000010
C28	C	1.143815	-0.130213	0.000016
N29	N	0.871034	-0.082328	-0.292902
C30	C	0.786139	0.201468	-0.000027
C31	C	0.762592	0.306919	-0.000010
C32	C	0.817198	0.371879	-0.000004
C33	C	0.895356	0.331378	-0.000016
C34	C	0.918905	0.225918	-0.000042
C35	C	0.949964	0.396329	-0.000019
C36	C	1.028122	0.355828	-0.000031
C37	C	1.051666	0.250378	-0.000056
C38	C	0.997060	0.185418	-0.000062
C39	C	0.926415	0.501788	0.000008
C40	C	1.059181	0.526238	-0.000007
C41	C	1.082728	0.420787	-0.000024
C42	C	0.955967	0.678973	0.000039
C43	C	0.981026	0.566738	0.000013
C44	C	0.801840	-0.010202	-0.352086
C45	C	0.780974	0.011541	-0.470425
C46	C	0.829304	-0.038834	-0.529593
C47	C	0.898503	-0.110957	-0.470409
C48	C	0.919367	-0.132708	-0.352058
C49	C	0.946832	-0.161340	-0.529565
C50	C	1.016031	-0.233462	-0.470382
C51	C	1.036892	-0.255209	-0.352042
C52	C	0.988562	-0.204834	-0.292874
C53	C	0.925967	-0.139589	-0.647916
C54	C	1.043495	-0.262095	-0.647889
C55	C	1.064361	-0.283838	-0.529549
N56	N	0.974301	-0.189969	0.292928
H57	H	0.327814	-0.167590	0.185969
N58	N	0.749722	0.044131	-0.288271
H59	H	0.730593	-0.008978	-0.239156
H60	H	0.780977	0.084651	-0.239249
N61	N	0.727252	0.131404	-0.000028
H62	H	0.674167	0.173058	-0.000011
H63	H	0.721838	0.099954	-0.069738
H64	H	0.183959	-0.164541	0.185966
N65	N	0.267979	-0.094527	-0.213012
H66	H	0.239260	-0.023344	-0.257833
H67	H	0.326978	-0.098638	-0.197371
N68	N	1.011070	-0.228302	-0.165233
H69	H	1.064335	-0.210777	-0.136734
H70	H	0.969908	-0.185439	-0.136820
N71	N	0.742184	-0.181300	0.213053
H72	H	0.795694	-0.179636	0.197503
H73	H	0.729189	-0.126569	0.257791
H74	H	1.093234	-0.313943	-0.303858
H75	H	0.698957	0.339886	0.000005
H76	H	1.103646	0.579129	-0.000003
H77	H	0.862778	0.534755	0.000012
H78	H	0.118405	-0.096216	-0.185924
H79	H	1.016230	0.099548	-0.000067
H80	H	1.115305	0.217408	-0.000079
N81	N	1.138996	-0.361622	-0.465711
H82	H	1.144876	-0.367751	-0.381765
H83	H	1.135846	-0.431389	-0.486375
N84	N	0.577357	-0.177772	0.213053
H85	H	0.518365	-0.173720	0.197504
H86	H	0.606129	-0.248947	0.257828
N87	N	1.167022	0.377102	-0.000052
H88	H	1.173649	0.300443	-0.000074
H89	H	1.179593	0.413709	-0.069755
H90	H	0.798021	0.457741	0.000013
H91	H	1.082847	-0.303119	-0.696063
H92	H	0.869625	-0.080868	-0.696092
N93	N	0.806971	-0.015076	-0.657229
H94	H	0.755858	0.038362	-0.685743
H95	H	0.850352	0.012923	-0.685271
H96	H	0.724633	0.070263	-0.518604
H97	H	0.517515	-0.104688	-0.185924
N98	N	0.667079	-0.103027	-0.213012
H99	H	0.638361	-0.031844	-0.257833
H100	H	0.726079	-0.107139	-0.197373
