data_functionalizedCrystal
_audit_creation_method	'MofGen! by Chris Wilmer'
_symmetry_space_group_name_H-M	'P1'
_symmetry_Int_Tables_number	1
_symmetry_cell_setting	triclinic
loop_
_symmetry_equiv_pos_as_xyz
  x,y,z
_cell_length_a	14.908571
_cell_length_b	16.959454
_cell_length_c	14.908662
_cell_angle_alpha	93.272532
_cell_angle_beta	83.592432
_cell_angle_gamma	86.716421
loop_
_atom_site_label
_atom_site_type_symbol
_atom_site_fract_x
_atom_site_fract_y
_atom_site_fract_z
Zn1	Zn	1.413346	-0.416146	-0.591532
Zn2	Zn	1.404515	-0.540237	-0.440173
Zn3	Zn	1.253247	-0.399976	-0.431466
Zn4	Zn	1.261947	-0.540178	-0.582772
O5	O	1.333264	-0.474134	-0.511486
O6	O	1.538841	-0.439399	-0.578764
O7	O	1.377112	-0.514889	-0.312352
O8	O	1.274540	-0.291514	-0.452721
O9	O	1.532353	-0.530568	-0.467561
O10	O	1.392163	-0.303394	-0.570321
O11	O	1.265977	-0.411840	-0.305954
O12	O	1.127734	-0.411783	-0.444227
O13	O	1.289367	-0.530467	-0.710600
O14	O	1.134126	-0.514788	-0.555391
O15	O	1.400599	-0.439342	-0.717036
O16	O	1.385547	-0.650836	-0.459067
O17	O	1.280803	-0.650792	-0.563834
C18	C	1.098087	-0.461525	-0.497914
C19	C	0.997478	-0.456150	-0.492129
C20	C	0.815119	-0.553459	-0.596858
C21	C	0.720588	-0.548412	-0.591426
C22	C	0.713885	-0.441006	-0.475838
C23	C	0.808416	-0.446053	-0.481270
C24	C	0.859029	-0.502282	-0.541781
C25	C	0.953561	-0.507333	-0.547208
C26	C	0.946857	-0.399923	-0.431625
C27	C	0.852326	-0.394876	-0.426193
C28	C	1.333187	-0.679496	-0.511466
C29	C	1.333239	-0.767356	-0.511492
C30	C	1.278807	-1.138844	-0.566036
C31	C	1.387978	-1.138840	-0.457042
C32	C	1.387946	-1.056292	-0.457031
C33	C	1.333342	-1.015016	-0.511523
C34	C	1.278771	-1.056288	-0.566026
C35	C	1.442509	-1.015012	-0.402523
C36	C	1.442478	-0.932459	-0.402510
C37	C	1.387879	-0.891183	-0.457008
C38	C	1.333306	-0.932460	-0.511513
C39	C	1.278703	-0.891184	-0.566005
C40	C	1.224135	-0.932461	-0.620516
C41	C	1.224172	-1.015012	-0.620523
C42	C	1.387842	-0.808632	-0.457000
C43	C	1.278667	-0.808629	-0.565995
C44	C	1.569359	-0.486794	-0.525111
C45	C	1.669968	-0.492188	-0.530917
C46	C	1.346938	-0.486701	-0.747580
C47	C	1.352765	-0.492057	-0.848189
C48	C	1.333366	-0.267973	-0.511527
C49	C	1.333410	-0.180120	-0.511544
C50	C	1.418830	-0.553250	-0.993326
C51	C	1.413361	-0.548223	-0.898795
C52	C	1.297632	-0.440916	-0.892120
C53	C	1.303101	-0.445943	-0.986651
C54	C	1.363703	-0.502111	-1.037251
C55	C	1.369176	-0.507134	-1.131784
C56	C	1.253442	-0.399831	-1.125106
C57	C	1.247974	-0.394804	-1.030575
C58	C	1.319694	-0.461562	-0.276313
C59	C	1.314042	-0.455993	-0.175714
H60	H	0.856329	-0.599247	-0.646124
C61	C	1.448028	-1.184245	-0.397094
N62	N	1.493260	-1.218447	-0.351939
H63	H	1.179744	-1.048626	-0.664902
H64	H	0.684841	-0.590085	-0.636278
H65	H	0.672660	-0.395223	-0.426579
H66	H	0.982618	-0.358253	-0.386775
C67	C	1.502554	-1.060419	-0.342572
N68	N	1.547780	-1.094623	-0.297413
C69	C	1.181325	-0.333014	-0.974905
N70	N	1.131129	-0.286468	-0.932976
C71	C	0.796641	-0.333027	-0.359634
N72	N	0.754700	-0.286443	-0.309499
C73	C	1.218610	-0.763233	-0.625953
N74	N	1.173377	-0.729042	-0.671117
H75	H	1.179672	-0.898844	-0.664879
C76	C	1.218780	-1.184248	-0.625991
N77	N	1.173566	-1.218447	-0.671147
H78	H	1.486911	-0.898857	-0.358126
H79	H	1.432266	-0.775028	-0.412614
C80	C	1.230986	-0.379126	-0.836444
N81	N	1.180794	-0.332581	-0.794509
H82	H	1.418523	-0.552867	-1.172981
C83	C	1.485496	-0.615032	-1.048988
N84	N	1.535709	-0.661568	-1.090912
C85	C	1.474018	-0.604470	-0.850482
N86	N	1.519711	-0.646835	-0.814094
C87	C	1.009235	-0.569184	-0.613773
N88	N	1.051166	-0.615770	-0.663914
C89	C	1.192797	-0.343575	-1.173431
N90	N	1.147122	-0.301204	-1.209829
