data_functionalizedCrystal
_audit_creation_method	'MofGen! by Chris Wilmer'
_symmetry_space_group_name_H-M	'P1'
_symmetry_Int_Tables_number	1
_symmetry_cell_setting	triclinic
loop_
_symmetry_equiv_pos_as_xyz
  x,y,z
_cell_length_a	12.996460
_cell_length_b	14.853567
_cell_length_c	14.853567
_cell_angle_alpha	83.634930
_cell_angle_beta	89.997651
_cell_angle_gamma	89.997390
loop_
_atom_site_label
_atom_site_type_symbol
_atom_site_fract_x
_atom_site_fract_y
_atom_site_fract_z
O1	O	0.085487	-1.196366	-0.117706
O2	O	0.585487	-0.696366	0.382294
O3	O	0.085504	-0.933906	-0.131727
O4	O	0.585504	-0.433906	0.368273
O5	O	0.085498	-1.072147	0.006513
O6	O	0.585498	-0.572147	0.506513
O7	O	0.085493	-1.058126	-0.255946
O8	O	0.585493	-0.558126	0.244054
O9	O	-0.085636	-1.072133	0.006521
O10	O	0.414364	-0.572133	0.506521
O11	O	-0.085630	-0.933892	-0.131720
O12	O	0.414370	-0.433892	0.368280
O13	O	-0.085647	-1.196352	-0.117698
O14	O	0.414353	-0.696352	0.382302
Cu15	Cu	-0.101264	-1.065120	-0.124708
Cu16	Cu	0.398736	-0.565120	0.375292
Cu17	Cu	0.101121	-1.065138	-0.124717
Cu18	Cu	0.601121	-0.565138	0.375283
O19	O	-0.085641	-1.058111	-0.255939
O20	O	0.414359	-0.558111	0.244061
C21	C	-0.000066	-1.071504	0.040106
C22	C	0.499934	-0.571504	0.540106
C23	C	-0.000057	-1.069601	0.140189
C24	C	0.499943	-0.569601	0.640189
C25	C	-0.000061	-0.900311	-0.131088
C26	C	0.499939	-0.400311	0.368912
C27	C	-0.000054	-0.800227	-0.129184
C28	C	0.499946	-0.300227	0.370816
N29	N	-0.243611	-1.065115	-0.124701
N30	N	0.256389	-0.565115	0.375299
C31	C	-0.663426	-1.065136	-0.124718
C32	C	-0.163426	-0.565136	0.375282
C33	C	-0.546621	-1.065128	-0.124717
C34	C	-0.046621	-0.565128	0.375283
C35	C	-0.453522	-1.065126	-0.124710
C36	C	0.046478	-0.565126	0.375290
C37	C	-0.336710	-1.065117	-0.124707
C38	C	0.163290	-0.565117	0.375293
N39	N	0.243468	-1.065150	-0.124717
N40	N	0.743468	-0.565150	0.375283
C41	C	-0.000080	-1.229947	-0.118337
C42	C	0.499920	-0.729947	0.381663
C43	C	-0.000080	-1.330031	-0.120241
C44	C	0.499920	-0.830031	0.379759
C45	C	-0.000076	-0.387693	-0.039019
C46	C	0.499924	0.112307	0.460981
C47	C	-0.000078	-0.366412	-0.203251
C48	C	0.499922	0.133588	0.296749
C49	C	-0.000075	-0.460446	-0.205041
C50	C	0.499925	0.039554	0.294959
C51	C	-0.000070	-0.518108	-0.123819
C52	C	0.499930	-0.018108	0.376181
C53	C	-0.000069	-0.481736	-0.040806
C54	C	0.499931	0.018264	0.459194
C55	C	-0.000065	-0.496825	-0.288053
C56	C	0.499935	0.003175	0.211947
C57	C	-0.000061	-0.590864	-0.289846
C58	C	0.499939	-0.090864	0.210154
C59	C	-0.000064	-0.648528	-0.208623
C60	C	0.499936	-0.148528	0.291377
C61	C	-0.000064	-0.612150	-0.125607
C62	C	0.499936	-0.112150	0.374393
C63	C	-0.000060	-0.669812	-0.044384
C64	C	0.499940	-0.169812	0.455616
C65	C	-0.000067	-0.633437	0.038633
C66	C	0.499933	-0.133437	0.538633
C67	C	-0.000072	-0.539399	0.040417
C68	C	0.499928	-0.039399	0.540417
C69	C	-0.000059	-0.742565	-0.210407
C70	C	0.499941	-0.242565	0.289593
C71	C	-0.000053	-0.763855	-0.046172
C72	C	0.499947	-0.263855	0.453828
C73	C	-0.000075	-1.058754	-0.289531
C74	C	0.499925	-0.558754	0.210469
C75	C	-0.000077	-1.060657	-0.389615
C76	C	0.499923	-0.560657	0.110385
C77	C	-0.000071	-0.979435	0.552723
C78	C	0.499929	-0.479435	1.052723
C79	C	-0.000081	-1.143668	0.574004
C80	C	0.499919	-0.643668	1.074004
C81	C	-0.000075	-1.145458	0.479971
C82	C	0.499925	-0.645458	0.979971
C83	C	-0.000069	-1.064235	0.422309
C84	C	0.499931	-0.564235	0.922309
C85	C	-0.000068	-0.981223	0.458680
C86	C	0.499932	-0.481223	0.958680
C87	C	-0.000086	-1.228469	0.443591
C88	C	0.499914	-0.728469	0.943591
C89	C	-0.000081	-1.230262	0.349552
C90	C	0.499919	-0.730262	0.849552
C91	C	-0.000067	-1.149039	0.291889
C92	C	0.499933	-0.649039	0.791889
C93	C	-0.000066	-1.066023	0.328266
C94	C	0.499934	-0.566023	0.828266
C95	C	-0.000059	-0.984800	0.270604
C96	C	0.499941	-0.484800	0.770604
C97	C	-0.000050	-0.901783	0.306979
C98	C	0.499950	-0.401783	0.806979
C99	C	-0.000054	-0.899999	0.401017
C100	C	0.499946	-0.399999	0.901017
C101	C	-0.000063	-1.150823	0.197851
C102	C	0.499937	-0.650823	0.697851
C103	C	-0.000056	-0.986588	0.176561
C104	C	0.499944	-0.486588	0.676561
H105	H	-0.000054	-0.810798	0.019971
H106	H	0.499946	-0.310798	0.519971
O107	O	-0.000066	-0.810464	0.440247
O108	O	0.499934	-0.310464	0.940247
H109	H	-0.000087	-0.822869	0.515324
H110	H	0.499913	-0.322869	1.015324
O111	O	-0.000056	-0.898977	0.114376
O112	O	0.499944	-0.398977	0.614376
H113	H	0.069698	-0.895862	0.071024
H114	H	0.569698	-0.395862	0.571024
O115	O	-0.000106	-1.316065	0.505786
O116	O	0.499894	-0.816065	1.005786
H117	H	0.069634	-1.355802	0.492840
H118	H	0.569634	-0.855802	0.992840
O119	O	-0.000084	-1.319796	0.310319
O120	O	0.499916	-0.819796	0.810319
H121	H	0.069668	-1.324536	0.267983
H122	H	0.569668	-0.824536	0.767983
H123	H	-0.000078	-1.218414	0.168238
H124	H	0.499922	-0.718414	0.668238
H125	H	-0.000052	-0.835652	0.260019
H126	H	0.499948	-0.335652	0.760019
O127	O	-0.000073	-0.889896	0.591946
O128	O	0.499927	-0.389896	1.091946
H129	H	-0.000084	-0.902293	0.667024
H130	H	0.499916	-0.402293	1.167024
H131	H	-0.000056	-0.680397	0.104764
H132	H	0.499944	-0.180397	0.604764
O133	O	-0.000101	-1.231266	0.636195
O134	O	0.499899	-0.731266	1.136195
H135	H	0.069645	-1.270998	0.623253
H136	H	0.569645	-0.770998	1.123253
H137	H	-0.000054	-0.772178	-0.277998
H138	H	0.499946	-0.272178	0.222002
H139	H	-0.000058	-0.449870	-0.354180
H140	H	0.499942	0.050130	0.145820
O141	O	-0.000089	-0.348462	0.050516
O142	O	0.499911	0.151538	0.550516
H143	H	-0.000093	-0.404359	0.106691
H144	H	0.499907	0.095641	0.606691
O145	O	-0.000077	-0.630089	-0.379384
O146	O	0.499923	-0.130089	0.120616
H147	H	0.069664	-0.606934	-0.418430
H148	H	0.569664	-0.106934	0.081570
O149	O	-0.000079	-0.500167	0.129951
O150	O	0.499921	-0.000167	0.629951
H151	H	0.069675	-0.457840	0.134694
H152	H	0.569675	0.042160	0.634694
H153	H	-0.000073	-0.319459	-0.269379
H154	H	0.499927	0.180541	0.230621
