data_functionalizedCrystal
_audit_creation_method	'MofGen! by Chris Wilmer'
_symmetry_space_group_name_H-M	'P1'
_symmetry_Int_Tables_number	1
_symmetry_cell_setting	triclinic
loop_
_symmetry_equiv_pos_as_xyz
  x,y,z
_cell_length_a	18.215407
_cell_length_b	18.215404
_cell_length_c	18.215399
_cell_angle_alpha	89.972067
_cell_angle_beta	90.019350
_cell_angle_gamma	89.975729
loop_
_atom_site_label
_atom_site_type_symbol
_atom_site_fract_x
_atom_site_fract_y
_atom_site_fract_z
Zn1	Zn	1.125074	0.292980	0.416118
Zn2	Zn	1.124986	0.416052	0.293053
Zn3	Zn	1.002007	0.293005	0.293065
Zn4	Zn	1.001975	0.416010	0.416078
O5	O	1.063510	0.354512	0.354578
O6	O	1.228046	0.309313	0.399805
O7	O	1.108649	0.399758	0.190070
O8	O	1.018383	0.190017	0.309411
O9	O	1.227982	0.399733	0.309389
O10	O	1.108800	0.189999	0.399817
O11	O	1.018298	0.309355	0.190079
O12	O	0.899019	0.309315	0.309372
O13	O	1.018327	0.399662	0.519067
O14	O	0.898995	0.399686	0.399748
O15	O	1.108768	0.309272	0.519097
O16	O	1.108617	0.519031	0.309350
O17	O	1.018242	0.519000	0.399736
C18	C	0.872304	0.354499	0.354557
C19	C	0.790505	0.354512	0.354566
C20	C	0.602318	0.401642	0.401566
C21	C	0.525459	0.401644	0.401575
C22	C	0.525455	0.307395	0.307607
C23	C	0.602312	0.307390	0.307602
C24	C	0.640742	0.354517	0.354581
C25	C	0.487026	0.354525	0.354595
C26	C	0.403692	0.354527	0.354604
C27	C	0.724081	0.354514	0.354572
C28	C	1.063436	0.545718	0.354553
C29	C	1.063472	0.627517	0.354567
C30	C	1.110644	0.815702	0.307600
C31	C	1.110679	0.892561	0.307622
C32	C	1.016489	0.892569	0.401663
C33	C	1.016459	0.815712	0.401644
C34	C	1.063536	0.777280	0.354609
C35	C	1.063600	0.930997	0.354649
C36	C	1.063637	1.014330	0.354673
C37	C	1.063500	0.693942	0.354585
C38	C	1.255463	0.354525	0.354600
C39	C	1.337262	0.354531	0.354609
C40	C	1.063554	0.354460	0.546531
C41	C	1.063572	0.354437	0.628330
C42	C	1.063610	1.162559	0.354633
C43	C	1.063664	1.080760	0.354691
C44	C	1.063510	0.354511	0.163372
C45	C	1.063634	0.354326	0.081574
C46	C	1.110692	0.307308	0.893405
C47	C	1.110683	0.307328	0.816546
C48	C	1.016512	0.401460	0.816505
C49	C	1.016525	0.401444	0.893362
C50	C	1.063614	0.354363	0.931810
C51	C	1.063592	0.354400	0.778094
C52	C	1.063582	0.354422	0.694760
C53	C	1.063625	0.354342	1.015149
H54	H	0.494178	0.440017	0.439836
F55	F	1.160820	0.933449	0.257590
H56	H	0.978097	0.784427	0.439928
H57	H	0.633605	0.440015	0.439820
H58	H	0.494156	0.269026	0.269358
H59	H	1.148978	0.784414	0.269301
H60	H	0.978173	0.439790	0.785191
F61	F	0.966388	0.933477	0.451718
F62	F	0.966420	0.451533	0.934238
F63	F	1.160806	0.257200	0.934322
H64	H	0.633598	0.269010	0.269341
F65	F	1.160791	0.257247	0.775676
