data_functionalizedCrystal
_audit_creation_method	'MofGen! by Chris Wilmer'
_symmetry_space_group_name_H-M	'P1'
_symmetry_Int_Tables_number	1
_symmetry_cell_setting	triclinic
loop_
_symmetry_equiv_pos_as_xyz
  x,y,z
_cell_length_a	15.944557
_cell_length_b	14.421503
_cell_length_c	15.944545
_cell_angle_alpha	90.003097
_cell_angle_beta	96.501229
_cell_angle_gamma	90.006583
loop_
_atom_site_label
_atom_site_type_symbol
_atom_site_fract_x
_atom_site_fract_y
_atom_site_fract_z
O1	O	-1.114525	-0.077076	0.108345
O2	O	-0.869975	-0.077087	0.121696
O3	O	-0.998931	-0.077070	-0.007254
O4	O	-0.985569	-0.077093	0.237296
O5	O	-0.998907	0.077153	-0.007233
O6	O	-0.869952	0.077136	0.121718
O7	O	-1.114501	0.077147	0.108367
Cu8	Cu	-0.992224	0.091223	0.115044
Cu9	Cu	-0.992252	-0.091164	0.115019
O10	O	-0.985546	0.077130	0.237317
C11	C	-0.838670	0.000023	0.121152
C12	C	-0.745424	0.000019	0.119487
N13	N	-0.992211	0.219505	0.115062
C14	C	-0.474795	0.000042	0.034581
C15	C	-0.525364	0.076080	0.075523
C16	C	-0.409782	0.000042	0.113551
C17	C	-0.525367	-0.075973	0.075523
C18	C	-0.574695	0.000029	0.116463
C19	C	-0.459123	0.076142	0.154472
C20	C	-0.459123	-0.075978	0.154460
C21	C	-0.509659	0.000078	0.195460
C22	C	-0.314781	0.000050	0.111871
C23	C	-0.669694	0.000028	0.118149
C24	C	-0.932568	0.469151	0.174666
C25	C	-1.008466	0.530955	0.190976
C26	C	-0.992228	0.408666	0.115045
C27	C	-0.916347	0.530956	0.098757
C28	C	-0.992239	0.591388	0.115030
C29	C	-1.068165	0.469110	0.131393
C30	C	-0.975996	0.469105	0.039141
C31	C	-1.051949	0.530882	0.055419
C32	C	-0.992221	0.303405	0.115055
C33	C	-0.992255	0.696647	0.115019
C34	C	-0.145808	0.000039	0.108900
C35	C	-0.239058	0.000051	0.110530
C36	C	-0.998365	0.000042	-0.038538
C37	C	-0.996705	0.000045	-0.131784
N38	N	-0.992258	0.780555	0.115010
C39	C	-0.911812	0.000022	-0.402419
C40	C	-0.952752	-0.076017	-0.351843
C41	C	-0.990784	0.000018	-0.467428
C42	C	-0.952750	0.076035	-0.351849
C43	C	-0.993689	0.000033	-0.302514
C44	C	-1.031704	-0.076084	-0.418080
C45	C	-1.031690	0.076037	-0.418090
C46	C	-1.072688	-0.000020	-0.367547
C47	C	-0.989109	0.000009	-0.562430
C48	C	-0.995371	0.000035	-0.207515
C49	C	-0.986111	0.000016	0.268601
C50	C	-0.987771	0.000007	0.361847
H51	H	-0.459143	0.000123	-0.033432
C52	C	-0.907728	-0.162886	-0.312797
H53	H	-0.946332	-0.198694	-0.285069
H54	H	-0.861689	-0.144648	-0.273159
H55	H	-0.887399	-0.198926	-0.356096
H56	H	-0.962232	0.441916	-0.025022
C57	C	-0.564441	0.162929	0.030488
H58	H	-0.592175	0.198728	0.069090
H59	H	-0.604080	0.144658	-0.015538
H60	H	-0.521164	0.198989	0.010139
H61	H	-0.554295	-0.140254	0.042149
C62	C	-0.907672	0.162878	-0.312777
H63	H	-0.946249	0.198691	-0.285025
H64	H	-0.887305	0.198919	-0.356048
H65	H	-0.861651	0.144592	-0.273137
H66	H	-0.430303	0.140496	0.187807
H67	H	-0.882167	0.442046	0.225124
C68	C	-0.530595	0.000127	0.287406
H69	H	-0.507692	0.054190	0.315332
H70	H	-0.506910	-0.053378	0.315644
H71	H	-0.590110	-0.000378	0.287962
H72	H	-1.065041	-0.140439	-0.446895
C73	C	-1.027024	0.567670	0.277676
H74	H	-0.984579	0.546542	0.319982
H75	H	-1.080523	0.545589	0.289657
H76	H	-1.027398	0.633537	0.276881
H77	H	-1.140753	-0.000060	-0.352054
C78	C	-0.420023	-0.162829	0.199460
H79	H	-0.442817	-0.216806	0.171302
H80	H	-0.432563	-0.163380	0.256298
H81	H	-0.360561	-0.161893	0.198523
C82	C	-1.154882	0.432577	0.150100
H83	H	-1.191083	0.483425	0.157874
H84	H	-1.148152	0.395917	0.199904
H85	H	-1.178914	0.395859	0.104052
C86	C	-0.829653	0.567645	0.080144
H87	H	-0.787329	0.546495	0.122561
H88	H	-0.830424	0.633508	0.079757
H89	H	-0.817713	0.545545	0.026635
H90	H	-1.065003	0.140328	-0.447029
H91	H	-0.843799	-0.000055	-0.418073
H92	H	-1.102462	0.557816	0.004990
