data_functionalizedCrystal
_audit_creation_method	'MofGen! by Chris Wilmer'
_symmetry_space_group_name_H-M	'P1'
_symmetry_Int_Tables_number	1
_symmetry_cell_setting	triclinic
loop_
_symmetry_equiv_pos_as_xyz
  x,y,z
_cell_length_a	10.967874
_cell_length_b	10.967829
_cell_length_c	16.053924
_cell_angle_alpha	75.288916
_cell_angle_beta	80.476246
_cell_angle_gamma	82.165976
loop_
_atom_site_label
_atom_site_type_symbol
_atom_site_fract_x
_atom_site_fract_y
_atom_site_fract_z
O1	O	1.632239	0.200008	-0.333033
O2	O	1.272819	0.213024	-0.283197
O3	O	1.462772	0.023068	-0.283192
O4	O	1.442286	0.389964	-0.333038
O5	O	1.473169	0.012650	-0.144333
O6	O	1.283216	0.202605	-0.144337
O7	O	1.642636	0.189590	-0.194173
Zn8	Zn	1.464577	0.194443	-0.147208
Zn9	Zn	1.450878	0.208170	-0.330162
O10	O	1.452683	0.379545	-0.194178
C11	C	1.232032	0.206080	-0.206902
C12	C	1.095010	0.200898	-0.186443
C13	C	1.467266	-0.029156	-0.206898
C14	C	1.465150	-0.169246	-0.186441
C15	C	1.028536	0.203985	-0.249256
C16	C	0.886916	0.198629	-0.228113
C17	C	1.458821	-0.226300	-0.249255
C18	C	1.456634	-0.371090	-0.228113
C19	C	1.683423	0.196533	-0.270470
C20	C	1.820445	0.201716	-0.290934
C21	C	1.448189	0.431770	-0.270474
C22	C	1.450305	0.571860	-0.290937
N23	N	1.473935	0.185074	-0.022349
C24	C	1.393093	0.265870	0.021371
C25	C	1.399675	0.259312	0.108772
C26	C	1.487094	0.171950	0.152455
C27	C	1.567944	0.091151	0.108729
C28	C	1.561367	0.097716	0.021327
C29	C	1.515790	0.143305	0.413851
C30	C	1.522359	0.136743	0.501260
C31	C	1.354091	0.304906	0.501296
C32	C	1.347517	0.311458	0.413894
C33	C	1.428371	0.230664	0.370175
N34	N	1.493821	0.165242	0.241795
N35	N	1.421649	0.237379	0.280835
N36	N	1.441518	0.217539	0.544979
H37	H	1.076469	0.210599	-0.318686
H38	H	1.047076	0.194297	-0.117015
C39	C	1.445170	-0.349340	-0.384740
C40	C	1.552134	-0.269470	-0.432362
C41	C	1.547000	-0.190672	-0.526164
C42	C	1.434902	-0.191743	-0.572345
C43	C	1.327929	-0.271616	-0.524723
C44	C	1.333064	-0.350414	-0.430921
H45	H	1.635123	-0.268674	-0.398177
H46	H	1.626188	-0.131545	-0.561417
H47	H	1.431101	-0.133412	-0.641783
H48	H	1.244940	-0.272411	-0.558908
H49	H	1.253875	-0.409541	-0.395668
C50	C	1.310746	0.348181	0.156869
C51	C	1.169296	0.344105	0.165819
C52	C	1.080365	0.432978	0.213917
C53	C	1.132885	0.525928	0.253066
C54	C	1.274342	0.530008	0.244117
C55	C	1.363273	0.441134	0.196019
H56	H	1.130412	0.275295	0.136837
H57	H	0.975649	0.429957	0.220541
H58	H	1.067053	0.591717	0.288671
H59	H	1.313226	0.598818	0.273099
H60	H	1.467989	0.444155	0.189395
C61	C	0.822180	0.189702	-0.134310
C62	C	0.720919	0.293995	-0.114009
C63	C	0.656181	0.285068	-0.020209
C64	C	0.692705	0.171848	0.053290
C65	C	0.793972	0.067546	0.032991
C66	C	0.858709	0.076473	-0.060810
H67	H	0.693877	0.377815	-0.168419
H68	H	0.581217	0.362280	-0.005182
H69	H	0.644783	0.165240	0.122726
H70	H	0.821013	-0.016274	0.087400
H71	H	0.933673	-0.000739	-0.075836
H72	H	1.593549	0.065597	0.536823
C73	C	1.470284	-0.248056	-0.092643
C74	C	1.363320	-0.327927	-0.045025
C75	C	1.368453	-0.406733	0.048775
C76	C	1.480552	-0.405668	0.094957
C77	C	1.587524	-0.325794	0.047339
C78	C	1.582390	-0.246988	-0.046461
H79	H	1.280330	-0.328718	-0.079212
H80	H	1.289265	-0.465861	0.084025
H81	H	1.484352	-0.464005	0.164394
H82	H	1.670513	-0.325003	0.081526
H83	H	1.661579	-0.187860	-0.081711
C84	C	1.265165	0.393786	0.549385
C85	C	1.272471	0.386662	0.645500
C86	C	1.183543	0.475551	0.693587
C87	C	1.087309	0.571564	0.645559
C88	C	1.079998	0.578692	0.549439
C89	C	1.168926	0.489803	0.501353
H90	H	1.343713	0.315584	0.681057
H91	H	1.188955	0.470274	0.764741
H92	H	1.021479	0.637365	0.681156
H93	H	1.008756	0.649770	0.513882
H94	H	1.163514	0.495080	0.430198
H95	H	1.581623	0.077516	0.378262
C96	C	1.664107	-0.004950	0.156776
C97	C	1.671345	-0.012186	0.252916
C98	C	1.767508	-0.108293	0.300961
C99	C	1.856432	-0.197164	0.252865
C100	C	1.849197	-0.189931	0.156719
C101	C	1.753035	-0.093824	0.108675
H102	H	1.605515	0.053605	0.288524
H103	H	1.772863	-0.113646	0.372134
H104	H	1.927618	-0.268308	0.288430
H105	H	1.915028	-0.255721	0.121111
H106	H	1.747679	-0.088470	0.037501
C107	C	0.885182	0.210642	-0.384736
C108	C	0.848660	0.323862	-0.458236
C109	C	0.913399	0.332787	-0.552035
C110	C	1.014660	0.228492	-0.572335
C111	C	1.051187	0.115264	-0.498833
C112	C	0.986448	0.106339	-0.405034
H113	H	0.773696	0.401074	-0.443211
H114	H	0.886359	0.416606	-0.606446
H115	H	1.062584	0.235099	-0.641771
H116	H	1.126151	0.038052	-0.513859
H117	H	1.013489	0.022520	-0.350623
H118	H	1.627198	0.031925	-0.014268
H119	H	1.455016	-0.167952	-0.318683
H120	H	1.460427	-0.429432	-0.158679
H121	H	1.321903	0.337004	-0.014189
H122	H	1.276334	0.382595	0.378329
