data_functionalizedCrystal
_audit_creation_method	'MofGen! by Chris Wilmer'
_symmetry_space_group_name_H-M	'P1'
_symmetry_Int_Tables_number	1
_symmetry_cell_setting	triclinic
loop_
_symmetry_equiv_pos_as_xyz
  x,y,z
_cell_length_a	12.837943
_cell_length_b	12.837942
_cell_length_c	11.892095
_cell_angle_alpha	94.302569
_cell_angle_beta	85.689438
_cell_angle_gamma	94.828940
loop_
_atom_site_label
_atom_site_type_symbol
_atom_site_fract_x
_atom_site_fract_y
_atom_site_fract_z
O1	O	1.408367	0.266110	-0.093982
O2	O	1.908367	0.766110	0.406018
O3	O	1.105234	0.252667	-0.093989
O4	O	1.605234	0.752667	0.406011
O5	O	1.250078	0.107822	-0.093979
O6	O	1.750078	0.607822	0.406021
O7	O	1.263522	0.410955	-0.093992
O8	O	1.763522	0.910955	0.406008
O9	O	1.237999	0.119879	0.094028
O10	O	1.737999	0.619879	0.594028
O11	O	1.093155	0.264723	0.094018
O12	O	1.593155	0.764723	0.594018
O13	O	1.396288	0.278167	0.094025
O14	O	1.896288	0.778167	0.594025
Zn15	Zn	1.242803	0.273359	0.123871
Zn16	Zn	1.742803	0.773359	0.623871
Zn17	Zn	1.258718	0.257474	-0.123836
Zn18	Zn	1.758718	0.757474	0.376164
O19	O	1.251443	0.423011	0.094014
O20	O	1.751443	0.923011	0.594014
C21	C	1.060125	0.254153	0.000014
C22	C	1.560125	0.754153	0.500014
C23	C	0.943710	0.240609	0.000011
C24	C	1.443710	0.740609	0.500011
C25	C	0.718835	0.403439	0.000020
C26	C	1.218835	0.903439	0.500020
C27	C	0.609453	0.390717	0.000019
C28	C	1.109453	0.890717	0.500019
C29	C	0.615561	0.202446	0.000015
C30	C	1.115561	0.702446	0.500015
C31	C	0.724943	0.215167	0.000017
C32	C	1.224943	0.715167	0.500017
C33	C	0.776577	0.315667	0.000017
C34	C	1.276577	0.815667	0.500017
C35	C	0.885961	0.328387	0.000011
C36	C	1.385961	0.828387	0.500011
C37	C	0.892066	0.140117	0.000015
C38	C	1.392066	0.640117	0.500015
C39	C	0.782684	0.127395	0.000014
C40	C	1.282684	0.627395	0.500014
C41	C	1.239497	0.074781	0.000024
C42	C	1.739497	0.574781	0.500024
C43	C	1.225953	-0.041634	0.000022
C44	C	1.725953	0.458366	0.500022
C45	C	1.388784	-0.266509	0.000002
C46	C	1.888784	0.233491	0.500002
C47	C	1.376062	-0.375892	-0.000000
C48	C	1.876062	0.124108	0.500000
C49	C	1.187791	-0.369784	0.000007
C50	C	1.687791	0.130216	0.500007
C51	C	1.200512	-0.260402	0.000009
C52	C	1.700512	0.239598	0.500009
C53	C	1.301011	-0.208768	0.000008
C54	C	1.801011	0.291232	0.500008
C55	C	1.313731	-0.099383	0.000019
C56	C	1.813731	0.400617	0.500019
C57	C	1.125461	-0.093278	0.000018
C58	C	1.625461	0.406722	0.500018
C59	C	1.112740	-0.202660	0.000016
C60	C	1.612740	0.297340	0.500016
C61	C	1.441397	0.276680	0.000020
C62	C	1.941397	0.776680	0.500020
C63	C	1.557812	0.290224	0.000015
C64	C	2.057812	0.790224	0.500015
C65	C	1.262024	0.456052	0.000009
C66	C	1.762024	0.956052	0.500009
C67	C	1.275569	0.572467	0.000004
C68	C	1.775569	1.072467	0.500004
N69	N	1.231950	0.284200	0.292925
N70	N	1.731950	0.784200	0.792925
N71	N	1.269579	0.246626	-0.292889
N72	N	1.769579	0.746626	0.207111
C73	C	1.345098	0.171130	0.529580
C74	C	1.845098	0.671130	1.029580
C75	C	1.337519	0.178716	0.647922
C76	C	1.837519	0.678716	1.147922
C77	C	1.209210	0.306952	0.647951
C78	C	1.709210	0.806952	1.147951
C79	C	1.216788	0.299366	0.529610
C80	C	1.716788	0.799366	1.029610
C81	C	1.284736	0.231454	0.470428
C82	C	1.784736	0.731454	0.970428
C83	C	1.292319	0.223874	0.352085
C84	C	1.792319	0.723874	0.852085
C85	C	1.164005	0.352104	0.352116
C86	C	1.664005	0.852104	0.852116
C87	C	1.156426	0.359690	0.470458
C88	C	1.656426	0.859690	0.970458
H89	H	0.740628	0.045572	0.000026
H90	H	1.240628	0.545572	0.500026
O91	O	0.547180	0.485390	0.000020
O92	O	1.047180	0.985390	0.500020
H93	H	0.492285	0.489012	0.076654
H94	H	0.992285	0.989012	0.576654
O95	O	1.470734	-0.438166	0.000006
O96	O	1.970734	0.061834	0.500006
H97	H	1.474372	-0.493053	-0.076626
H98	H	1.974372	0.006947	0.423374
H99	H	1.386671	0.129593	0.696080
H100	H	1.886671	0.629593	1.196080
H101	H	1.101102	0.414980	0.518656
H102	H	1.601102	0.914980	1.018656
O103	O	1.418354	0.097859	0.465747
O104	O	1.918354	0.597859	0.965747
H105	H	1.413476	0.102712	0.373519
H106	H	1.913476	0.602712	0.873519
O107	O	1.079405	-0.425492	0.000015
O108	O	1.579405	0.074508	0.500015
H109	H	1.074033	-0.480095	-0.076611
H110	H	1.574033	0.019905	0.423389
O111	O	1.365574	0.150607	0.288242
O112	O	1.865574	0.650607	0.788242
H113	H	1.424272	0.196250	0.234308
H114	H	1.924272	0.696250	0.734308
O115	O	0.941659	0.436777	0.000026
O116	O	1.441659	0.936777	0.500026
H117	H	0.883125	0.495673	0.000044
H118	H	1.383125	0.995673	0.500044
H119	H	1.114857	0.401227	0.303941
H120	H	1.614857	0.901227	0.803941
H121	H	1.030916	-0.244716	0.000012
H122	H	1.530916	0.255284	0.500012
O123	O	0.774538	0.511827	0.000023
O124	O	1.274538	1.011827	0.500023
H125	H	0.716008	0.570725	0.000030
H126	H	1.216008	1.070725	0.500030
O127	O	1.422125	-0.043692	0.000001
O128	O	1.922125	0.456308	0.500001
H129	H	1.459914	-0.061248	0.076617
H130	H	1.959914	0.438752	0.576617
O131	O	0.954341	0.045438	0.000018
O132	O	1.454341	0.545438	0.500018
H133	H	1.039076	0.071164	0.000026
H134	H	1.539076	0.571164	0.500026
H135	H	0.573495	0.120630	0.000108
H136	H	1.073495	0.620630	0.500108
O137	O	1.497172	-0.210810	0.000010
O138	O	1.997172	0.289190	0.500010
H139	H	1.512390	-0.166025	-0.076613
H140	H	2.012390	0.333975	0.423387
O141	O	1.030778	-0.031006	0.000030
O142	O	1.530778	0.468994	0.500030
H143	H	1.036977	0.014063	-0.076598
H144	H	1.536977	0.514063	0.423402
O145	O	1.135929	0.380196	0.711789
O146	O	1.635929	0.880196	1.211789
H147	H	1.140807	0.375336	0.804016
H148	H	1.640807	0.875336	1.304016
