data_functionalizedCrystal
_audit_creation_method	'MofGen! by Chris Wilmer'
_symmetry_space_group_name_H-M	'P1'
_symmetry_Int_Tables_number	1
_symmetry_cell_setting	triclinic
loop_
_symmetry_equiv_pos_as_xyz
  x,y,z
_cell_length_a	14.519731
_cell_length_b	13.596369
_cell_length_c	14.971486
_cell_angle_alpha	90.000599
_cell_angle_beta	83.651491
_cell_angle_gamma	90.006024
loop_
_atom_site_label
_atom_site_type_symbol
_atom_site_fract_x
_atom_site_fract_y
_atom_site_fract_z
O1	O	1.223788	0.081794	0.117336
O2	O	1.723788	0.581794	0.617336
O3	O	0.955305	0.081796	0.131123
O4	O	1.455305	0.581796	0.631123
O5	O	1.096743	0.081788	-0.005966
O6	O	1.596743	0.581788	0.494034
O7	O	1.082351	0.081802	0.254425
O8	O	1.582351	0.581802	0.754425
O9	O	1.096725	-0.081795	-0.005958
O10	O	1.596725	0.418205	0.494042
O11	O	0.955288	-0.081787	0.131131
O12	O	1.455288	0.418213	0.631131
O13	O	1.223770	-0.081789	0.117343
O14	O	1.723770	0.418211	0.617343
Zn15	Zn	1.089526	-0.107760	0.124238
Zn16	Zn	1.589526	0.392240	0.624238
Zn17	Zn	1.089549	0.107767	0.124228
Zn18	Zn	1.589549	0.607767	0.624228
O19	O	1.082333	-0.081781	0.254433
O20	O	1.582333	0.418219	0.754433
C21	C	0.920938	0.000004	0.130481
C22	C	1.420938	0.500004	0.630481
C23	C	0.818559	0.000005	0.128545
C24	C	1.318559	0.500005	0.628545
C25	C	0.735415	0.000009	0.126972
C26	C	1.235415	0.500009	0.626972
C27	C	0.631108	0.000009	0.125007
C28	C	1.131108	0.500009	0.625007
C29	C	0.547970	0.000009	0.123447
C30	C	1.047970	0.500009	0.623447
C31	C	0.443655	0.000011	0.121481
C32	C	0.943655	0.500011	0.621481
N33	N	1.089518	-0.254852	0.124245
N34	N	1.589518	0.245148	0.624245
C35	C	1.089522	-0.343850	0.124247
C36	C	1.589522	0.156150	0.624247
C37	C	1.089531	-0.455501	0.124240
C38	C	1.589531	0.044499	0.624240
C39	C	1.089543	-0.544492	0.124230
C40	C	1.589543	-0.044492	0.624230
C41	C	1.089554	-0.656151	0.124225
C42	C	1.589554	-0.156151	0.624225
C43	C	1.258138	0.000005	0.117985
C44	C	1.758138	0.500005	0.617985
C45	C	1.360517	0.000011	0.119921
C46	C	1.860517	0.500011	0.619921
C47	C	1.096090	-0.000003	-0.039287
C48	C	1.596090	0.499997	0.460713
C49	C	1.094162	-0.000003	-0.138586
C50	C	1.594162	0.499997	0.361414
N51	N	1.089566	0.254859	0.124215
N52	N	1.589566	0.754859	0.624215
C53	C	1.177252	-0.000004	-0.195758
C54	C	1.677252	0.499996	0.304242
C55	C	1.175434	0.000006	-0.289059
C56	C	1.675434	0.500006	0.210941
C57	C	1.090525	0.000010	-0.325185
C58	C	1.590525	0.500010	0.174815
C59	C	1.007428	0.000014	-0.268005
C60	C	1.507428	0.500014	0.231995
C61	C	1.009247	0.000012	-0.174706
C62	C	1.509247	0.500012	0.325294
C63	C	1.003643	0.000018	-0.462470
C64	C	1.503643	0.500018	0.037530
C65	C	1.001824	0.000019	-0.555775
C66	C	1.501824	0.500019	-0.055775
C67	C	1.169830	0.000013	-0.576822
C68	C	1.669830	0.500013	-0.076822
C69	C	1.171649	0.000010	-0.483524
C70	C	1.671649	0.500010	0.016476
C71	C	1.088552	0.000012	-0.426350
C72	C	1.588552	0.500012	0.073650
C73	C	1.082985	0.000012	0.287754
C74	C	1.582985	0.500012	0.787754
C75	C	1.084914	0.000018	0.387052
C76	C	1.584914	0.500018	0.887052
H77	H	1.246395	-0.000013	-0.166352
H78	H	1.746395	0.499987	0.333648
H79	H	0.935976	0.000022	-0.415921
H80	H	1.435976	0.500022	0.084079
Cl81	Cl	1.279896	0.000002	-0.360929
Cl82	Cl	1.779896	0.500002	0.139071
H83	H	0.941586	0.000013	-0.128157
H84	H	1.441586	0.500013	0.371843
H85	H	0.932683	0.000007	-0.585186
H86	H	1.432683	0.500007	-0.085186
H87	H	1.240790	-0.000001	-0.454113
H88	H	1.740790	0.499999	0.045887
Cl89	Cl	1.274296	0.000015	-0.648697
Cl90	Cl	1.774296	0.500015	-0.148697
Cl91	Cl	0.900684	0.000032	-0.313421
Cl92	Cl	1.400684	0.500032	0.186579
