data_functionalizedCrystal
_audit_creation_method	'MofGen! by Chris Wilmer'
_symmetry_space_group_name_H-M	'P1'
_symmetry_Int_Tables_number	1
_symmetry_cell_setting	triclinic
loop_
_symmetry_equiv_pos_as_xyz
  x,y,z
_cell_length_a	15.944551
_cell_length_b	10.654541
_cell_length_c	9.130307
_cell_angle_alpha	90.002462
_cell_angle_beta	89.999495
_cell_angle_gamma	83.991333
loop_
_atom_site_label
_atom_site_type_symbol
_atom_site_fract_x
_atom_site_fract_y
_atom_site_fract_z
O1	O	1.115460	0.161968	0.121637
O2	O	0.871026	0.181936	0.121673
O3	O	0.998864	-0.010860	0.121655
O4	O	0.987622	0.354764	0.121655
O5	O	0.998854	-0.010868	-0.121944
O6	O	0.871016	0.181928	-0.121926
O7	O	1.115450	0.161959	-0.121962
Cu8	Cu	0.993232	0.171943	-0.144186
Cu9	Cu	0.993244	0.171953	0.143898
O10	O	0.987612	0.354756	-0.121944
C11	C	0.839722	0.181103	-0.000122
C12	C	0.746462	0.178618	-0.000108
C13	C	0.998034	-0.057652	-0.000141
C14	C	0.995566	-0.197063	-0.000131
N15	N	0.993230	0.171936	-0.346809
C16	C	0.530880	0.053173	-0.000137
C17	C	0.470201	0.111430	0.119970
C18	C	0.575710	0.174122	-0.000126
C19	C	0.470214	0.111450	-0.120199
C20	C	0.410772	0.169770	-0.000149
C21	C	0.516260	0.232411	0.120081
C22	C	0.516279	0.232415	-0.120197
C23	C	0.455618	0.290760	-0.000060
C24	C	0.670727	0.176625	-0.000111
C25	C	0.315756	0.167276	-0.000153
C26	C	1.146754	0.162793	-0.000164
C27	C	1.240014	0.165278	-0.000168
C28	C	0.988442	0.401548	-0.000144
C29	C	0.990910	0.540959	-0.000145
C30	C	0.838045	0.570908	-0.000141
C31	C	0.762776	0.651376	-0.000144
C32	C	0.765100	0.782364	-0.000144
C33	C	0.842702	0.832885	-0.000137
C34	C	0.917972	0.752417	-0.000134
C35	C	0.915639	0.621428	-0.000138
C36	C	1.070835	0.722469	-0.000128
C37	C	1.068513	0.591480	-0.000138
C38	C	1.148437	0.772990	-0.000120
C39	C	1.223709	0.692521	-0.000128
C40	C	1.221381	0.561526	-0.000129
C41	C	1.143782	0.511012	-0.000134
C42	C	0.890473	0.019489	-0.346854
C43	C	0.839103	-0.056737	-0.423542
C44	C	0.839115	-0.056738	-0.576876
C45	C	0.890501	0.019499	-0.653524
C46	C	0.941870	0.095725	-0.576835
C47	C	0.941855	0.095714	-0.423498
C48	C	1.044622	0.248176	-0.576791
C49	C	1.044616	0.248172	-0.423457
C50	C	1.096008	0.324413	-0.653439
C51	C	1.147383	0.400634	-0.576750
C52	C	1.147370	0.400631	-0.423407
C53	C	1.095986	0.324398	-0.346768
N54	N	0.993252	0.171950	0.346520
H55	H	0.563632	-0.047204	0.000012
C56	C	0.435927	0.490171	-0.124555
C57	C	0.411631	0.426399	0.000024
H58	H	0.408772	0.573909	-0.124490
H59	H	0.420163	0.447408	-0.209917
H60	H	0.495323	0.492462	-0.123729
H61	H	0.352235	0.424100	-0.000807
H62	H	0.427390	0.469174	0.085408
C63	C	1.248953	0.551329	-0.561313
C64	C	1.203861	0.484428	-0.661000
H65	H	1.283816	0.603064	-0.613333
H66	H	1.283035	0.493568	-0.501516
H67	H	1.210584	0.602745	-0.501501
H68	H	1.242230	0.433005	-0.720805
H69	H	1.169775	0.542196	-0.720822
H70	H	0.836145	0.464252	-0.000144
C71	C	1.182059	0.315207	-0.125355
C72	C	1.141220	0.367030	-0.000135
H73	H	1.180468	0.226319	-0.125352
H74	H	1.239039	0.333769	-0.125339
H75	H	1.154353	0.350375	-0.210297
H76	H	1.168929	0.331868	0.084808
H77	H	1.084228	0.348457	-0.000137
H78	H	0.536702	0.283526	-0.221744
C79	C	0.809090	0.058450	-0.127211
C80	C	0.890465	0.019485	-0.178307
H81	H	0.809088	0.058453	-0.023157
H82	H	0.771152	0.002141	-0.161906
H83	H	0.791849	0.141195	-0.161901
H84	H	0.907703	-0.063264	-0.143626
H85	H	0.928415	0.075796	-0.143597
H86	H	1.095972	0.324385	-0.221916
H87	H	0.449799	0.060277	0.221513
H88	H	0.449828	0.060268	-0.221737
H89	H	0.844588	0.939544	-0.000119
H90	H	0.703809	0.847882	-0.000142
H91	H	0.699593	0.610227	-0.000146
C92	C	1.153566	0.569554	-0.250961
C93	C	1.203836	0.484428	-0.339118
H94	H	1.188428	0.621293	-0.198938
H95	H	1.122976	0.524153	-0.183369
H96	H	1.115211	0.620964	-0.310798
H97	H	1.242187	0.433012	-0.279281
H98	H	1.234440	0.529833	-0.406718
C99	C	1.193394	0.952466	-0.125340
C100	C	1.150997	0.916973	-0.000120
H101	H	1.194979	1.041355	-0.125335
H102	H	1.164638	0.928364	-0.210273
H103	H	1.249325	0.911763	-0.125318
H104	H	1.095063	0.957668	-0.000147
H105	H	1.179751	0.941088	0.084835
C106	C	0.737533	-0.207434	-0.438986
C107	C	0.782621	-0.140534	-0.339291
H108	H	0.702659	-0.259158	-0.386973
H109	H	0.775898	-0.258848	-0.498782
H110	H	0.703453	-0.149662	-0.498798
H111	H	0.816705	-0.198307	-0.279485
H112	H	0.744251	-0.089116	-0.279469
C113	C	0.631334	0.303059	0.256118
C114	C	0.543640	0.301413	0.257319
H115	H	0.648237	0.345648	0.340848
H116	H	0.647468	0.345731	0.170944
H117	H	0.657770	0.218910	0.255773
H118	H	0.517204	0.385563	0.257653
H119	H	0.527498	0.258744	0.342515
H120	H	1.286886	0.733667	-0.000101
C121	C	0.832920	-0.225644	-0.749345
C122	C	0.782649	-0.140523	-0.661183
H123	H	0.798058	-0.277361	-0.801397
H124	H	0.871262	-0.277063	-0.689520
H125	H	0.863523	-0.180230	-0.816926
H126	H	0.752050	-0.185937	-0.593595
H127	H	0.744292	-0.089097	-0.721013
H128	H	1.282675	0.496015	-0.000115
C129	C	0.946457	0.102517	-0.873151
C130	C	0.890508	0.019511	-0.822070
H131	H	0.946456	0.102530	-0.977206
H132	H	1.001646	0.076068	-0.838465
H133	H	0.929200	0.185254	-0.838443
H134	H	0.907768	-0.063228	-0.856770
H135	H	0.835307	0.045954	-0.856772
H136	H	1.096010	0.324413	-0.778291
