data_functionalizedCrystal
_audit_creation_method	'MofGen! by Chris Wilmer'
_symmetry_space_group_name_H-M	'P1'
_symmetry_Int_Tables_number	1
_symmetry_cell_setting	triclinic
loop_
_symmetry_equiv_pos_as_xyz
  x,y,z
_cell_length_a	14.044220
_cell_length_b	11.792241
_cell_length_c	10.868271
_cell_angle_alpha	90.005281
_cell_angle_beta	90.000690
_cell_angle_gamma	91.308853
loop_
_atom_site_label
_atom_site_type_symbol
_atom_site_fract_x
_atom_site_fract_y
_atom_site_fract_z
O1	O	1.259113	-0.273771	-0.102192
O2	O	1.592447	0.059563	0.231141
O3	O	1.925780	0.392896	0.564474
O4	O	0.983093	-0.263891	-0.102224
O5	O	1.316427	0.069442	0.231110
O6	O	1.649760	0.402775	0.564443
O7	O	1.127802	-0.104289	-0.102199
O8	O	1.461135	0.229044	0.231135
O9	O	1.794468	0.562377	0.564468
O10	O	1.114405	-0.433373	-0.102217
O11	O	1.447738	-0.100039	0.231116
O12	O	1.781072	0.233294	0.564449
O13	O	1.127790	-0.104281	0.102446
O14	O	1.461123	0.229052	0.435779
O15	O	1.794456	0.562385	0.769113
O16	O	0.983081	-0.263883	0.102421
O17	O	1.316415	0.069450	0.435754
O18	O	1.649748	0.402783	0.769088
O19	O	1.259101	-0.273763	0.102452
O20	O	1.592435	0.059571	0.435786
O21	O	1.925768	0.392904	0.769119
Zn22	Zn	1.121089	-0.268822	0.134928
Zn23	Zn	1.454423	0.064512	0.468262
Zn24	Zn	1.787756	0.397845	0.801595
Zn25	Zn	1.121105	-0.268832	-0.134700
Zn26	Zn	1.454439	0.064501	0.198634
Zn27	Zn	1.787772	0.397834	0.531967
O28	O	1.114393	-0.433365	0.102427
O29	O	1.447726	-0.100031	0.435761
O30	O	1.781060	0.233302	0.769094
C31	C	0.947751	-0.259563	0.000095
C32	C	1.281084	0.073770	0.333428
C33	C	1.614417	0.407104	0.666762
C34	C	0.842459	-0.246664	0.000083
C35	C	1.175792	0.086669	0.333417
C36	C	1.509125	0.420003	0.666750
C37	C	1.126954	-0.061915	0.000123
C38	C	1.460287	0.271418	0.333457
C39	C	1.793621	0.604751	0.666790
C40	C	1.124435	0.064335	0.000122
C41	C	1.457769	0.397668	0.333455
C42	C	1.791102	0.731001	0.666788
N43	N	1.121086	-0.268815	0.318942
N44	N	1.454419	0.064519	0.652276
N45	N	1.787752	0.397852	0.985609
C46	C	0.649676	-0.223082	0.000109
C47	C	0.983009	0.110251	0.333442
C48	C	1.316343	0.443585	0.666776
C49	C	0.592513	-0.314567	0.000109
C50	C	0.925846	0.018766	0.333442
C51	C	1.259180	0.352100	0.666776
C52	C	0.485242	-0.301445	0.000123
C53	C	0.818575	0.031888	0.333457
C54	C	1.151909	0.365221	0.666790
C55	C	0.756957	-0.236202	0.000095
C56	C	1.090290	0.097132	0.333428
C57	C	1.423624	0.430465	0.666761
C58	C	1.294444	-0.278091	0.000131
C59	C	1.627777	0.055242	0.333464
C60	C	1.961111	0.388576	0.666798
C61	C	1.399736	-0.290990	0.000135
C62	C	1.733069	0.042343	0.333468
C63	C	2.066403	0.375677	0.666801
C64	C	1.115241	-0.475739	0.000103
C65	C	1.448574	-0.142405	0.333436
C66	C	1.781907	0.190928	0.666769
C67	C	1.117759	-0.601989	0.000096
C68	C	1.451093	-0.268655	0.333429
C69	C	1.784426	0.064678	0.666763
C70	C	1.119804	0.295482	0.000101
C71	C	1.453137	0.628815	0.333434
C72	C	1.786471	0.962148	0.666767
C73	C	1.122377	0.166855	0.000112
C74	C	1.455711	0.500188	0.333445
C75	C	1.789044	0.833522	0.666779
N76	N	1.121117	-0.268831	-0.318714
N77	N	1.454450	0.064502	0.014620
N78	N	1.787783	0.397836	0.347953
C79	C	1.121100	-0.268829	0.569949
C80	C	1.454434	0.064504	0.903282
C81	C	1.787767	0.397837	1.236615
C82	C	1.121089	-0.268824	0.430271
C83	C	1.454422	0.064509	0.763604
C84	C	1.787756	0.397842	1.096938
H85	H	0.624137	-0.402744	0.000098
H86	H	0.957471	-0.069411	0.333431
H87	H	1.290804	0.263923	0.666765
H88	H	0.618054	-0.134912	0.000121
H89	H	0.951387	0.198421	0.333454
H90	H	1.284720	0.531755	0.666787
