data_functionalizedCrystal
_audit_creation_method	'MofGen! by Chris Wilmer'
_symmetry_space_group_name_H-M	'P1'
_symmetry_Int_Tables_number	1
_symmetry_cell_setting	triclinic
loop_
_symmetry_equiv_pos_as_xyz
  x,y,z
_cell_length_a	14.519709
_cell_length_b	14.519731
_cell_length_c	13.930277
_cell_angle_alpha	89.994465
_cell_angle_beta	89.998398
_cell_angle_gamma	83.684499
loop_
_atom_site_label
_atom_site_type_symbol
_atom_site_fract_x
_atom_site_fract_y
_atom_site_fract_z
O1	O	1.223880	0.120889	-0.079708
O2	O	1.473880	0.370889	0.170292
O3	O	1.723880	0.620889	0.420292
O4	O	1.973880	0.870889	0.670292
O5	O	0.955405	0.135126	-0.079738
O6	O	1.205405	0.385126	0.170262
O7	O	1.455405	0.635126	0.420262
O8	O	1.705405	0.885126	0.670262
O9	O	1.096751	-0.006230	-0.079713
O10	O	1.346751	0.243770	0.170287
O11	O	1.596751	0.493770	0.420287
O12	O	1.846751	0.743770	0.670287
O13	O	1.082535	0.262245	-0.079732
O14	O	1.332535	0.512245	0.170268
O15	O	1.582535	0.762245	0.420268
O16	O	1.832535	1.012245	0.670268
O17	O	1.096731	-0.006233	0.079949
O18	O	1.346731	0.243767	0.329949
O19	O	1.596731	0.493767	0.579949
O20	O	1.846731	0.743767	0.829949
O21	O	0.955385	0.135123	0.079924
O22	O	1.205385	0.385123	0.329924
O23	O	1.455385	0.635123	0.579924
O24	O	1.705385	0.885123	0.829924
O25	O	1.223861	0.120886	0.079954
O26	O	1.473861	0.370886	0.329954
O27	O	1.723861	0.620886	0.579954
O28	O	1.973861	0.870886	0.829954
Zn29	Zn	1.089620	0.128004	0.105289
Zn30	Zn	1.339620	0.378004	0.355289
Zn31	Zn	1.589620	0.628004	0.605289
Zn32	Zn	1.839620	0.878004	0.855289
Zn33	Zn	1.089646	0.128008	-0.105073
Zn34	Zn	1.339646	0.378008	0.144927
Zn35	Zn	1.589646	0.628008	0.394927
Zn36	Zn	1.839646	0.878008	0.644927
O37	O	1.082515	0.262242	0.079929
O38	O	1.332515	0.512242	0.329929
O39	O	1.582515	0.762242	0.579929
O40	O	1.832515	1.012242	0.829929
C41	C	0.921035	0.134461	0.000090
C42	C	1.171035	0.384461	0.250090
C43	C	1.421035	0.634461	0.500090
C44	C	1.671035	0.884461	0.750090
C45	C	0.818654	0.132473	0.000079
C46	C	1.068654	0.382473	0.250079
C47	C	1.318654	0.632473	0.500079
C48	C	1.568654	0.882473	0.750079
C49	C	0.443757	0.125153	0.000123
C50	C	0.693757	0.375153	0.250123
C51	C	0.943757	0.625153	0.500123
C52	C	1.193757	0.875153	0.750123
C53	C	0.548065	0.127186	0.000110
C54	C	0.798065	0.377186	0.250110
C55	C	1.048065	0.627186	0.500110
C56	C	1.298065	0.877186	0.750110
C57	C	0.631202	0.128813	0.000100
C58	C	0.881202	0.378813	0.250100
C59	C	1.131202	0.628813	0.500100
C60	C	1.381202	0.878813	0.750100
C61	C	0.735517	0.130846	0.000089
C62	C	0.985517	0.380846	0.250089
C63	C	1.235517	0.630846	0.500089
C64	C	1.485517	0.880846	0.750089
C65	C	1.096075	-0.040591	0.000118
C66	C	1.346075	0.209409	0.250118
C67	C	1.596075	0.459409	0.500118
C68	C	1.846075	0.709409	0.750118
C69	C	1.094079	-0.142971	0.000118
C70	C	1.344079	0.107029	0.250118
C71	C	1.594079	0.357029	0.500118
C72	C	1.844079	0.607029	0.750118
C73	C	1.092457	-0.226115	0.000116
C74	C	1.342457	0.023885	0.250116
C75	C	1.592457	0.273885	0.500116
C76	C	1.842457	0.523885	0.750116
C77	C	1.090430	-0.330424	0.000108
C78	C	1.340430	-0.080424	0.250108
C79	C	1.590430	0.169576	0.500108
C80	C	1.840430	0.419576	0.750108
C81	C	1.088822	-0.413563	0.000102
C82	C	1.338822	-0.163563	0.250102
C83	C	1.588822	0.086437	0.500102
C84	C	1.838822	0.336437	0.750102
C85	C	1.086795	-0.517878	0.000096
C86	C	1.336795	-0.267878	0.250096
C87	C	1.586795	-0.017878	0.500096
C88	C	1.836795	0.232122	0.750096
C89	C	1.258230	0.121551	0.000124
C90	C	1.508230	0.371551	0.250124
C91	C	1.758230	0.621551	0.500124
C92	C	2.008230	0.871551	0.750124
C93	C	1.360612	0.123539	0.000129
C94	C	1.610612	0.373539	0.250129
C95	C	1.860612	0.623539	0.500129
C96	C	2.110612	0.873539	0.750129
C97	C	1.083191	0.296603	0.000096
C98	C	1.333191	0.546603	0.250096
C99	C	1.583191	0.796603	0.500096
C100	C	1.833191	1.046603	0.750096
C101	C	1.085187	0.398983	0.000090
C102	C	1.335187	0.648983	0.250090
C103	C	1.585187	0.898983	0.500090
C104	C	1.835187	1.148983	0.750090
N105	N	1.089609	0.128001	0.248855
N106	N	1.339609	0.378001	0.498855
N107	N	1.589609	0.628001	0.748855
N108	N	1.839609	0.878001	0.998855
N109	N	1.089664	0.128004	-0.248639
N110	N	1.339664	0.378004	0.001361
N111	N	1.589664	0.628004	0.251361
N112	N	1.839664	0.878004	0.501361
C113	C	1.027055	0.190576	0.701113
C114	C	1.277055	0.440576	0.951113
C115	C	1.527055	0.690576	1.201113
C116	C	1.777055	0.940576	1.451113
C117	C	1.152261	0.065433	0.701104
C118	C	1.402261	0.315433	0.951104
C119	C	1.652261	0.565433	1.201104
C120	C	1.902261	0.815433	1.451104
C121	C	1.152251	0.065430	0.600609
C122	C	1.402251	0.315430	0.850609
C123	C	1.652251	0.565430	1.100609
C124	C	1.902251	0.815430	1.350609
C125	C	1.089642	0.128002	0.550361
C126	C	1.339642	0.378002	0.800361
C127	C	1.589642	0.628002	1.050361
C128	C	1.839642	0.878002	1.300361
C129	C	1.027044	0.190576	0.600608
C130	C	1.277044	0.440576	0.850608
C131	C	1.527044	0.690576	1.100608
C132	C	1.777044	0.940576	1.350608
C133	C	1.214853	0.002863	0.550353
C134	C	1.464853	0.252863	0.800353
C135	C	1.714853	0.502863	1.050353
C136	C	1.964853	0.752863	1.300353
C137	C	1.214846	0.002859	0.449851
C138	C	1.464846	0.252859	0.699851
C139	C	1.714846	0.502859	0.949851
C140	C	1.964846	0.752859	1.199851
C141	C	1.152232	0.065427	0.399602
C142	C	1.402232	0.315427	0.649602
C143	C	1.652232	0.565427	0.899602
C144	C	1.902232	0.815427	1.149602
C145	C	1.089631	0.128003	0.449856
C146	C	1.339631	0.378003	0.699856
C147	C	1.589631	0.628003	0.949856
C148	C	1.839631	0.878003	1.199856
C149	C	1.027022	0.190574	0.399608
C150	C	1.277022	0.440574	0.649608
C151	C	1.527022	0.690574	0.899608
C152	C	1.777022	0.940574	1.149608
C153	C	0.964416	0.253147	0.449860
C154	C	1.214416	0.503147	0.699860
C155	C	1.464416	0.753147	0.949860
C156	C	1.714416	1.003147	1.199860
C157	C	0.964430	0.253144	0.550359
C158	C	1.214430	0.503144	0.800359
C159	C	1.464430	0.753144	1.050359
C160	C	1.714430	1.003144	1.300359
C161	C	1.152217	0.065429	0.299103
C162	C	1.402217	0.315429	0.549103
C163	C	1.652217	0.565429	0.799103
C164	C	1.902217	0.815429	1.049103
C165	C	1.027011	0.190575	0.299103
C166	C	1.277011	0.440575	0.549103
C167	C	1.527011	0.690575	0.799103
C168	C	1.777011	0.940575	1.049103
H169	H	0.976024	0.241526	0.258197
H170	H	1.226024	0.491526	0.508197
H171	H	1.476024	0.741526	0.758197
H172	H	1.726024	0.991526	1.008197
Cl173	Cl	0.885717	0.331811	0.386680
Cl174	Cl	1.135717	0.581811	0.636680
Cl175	Cl	1.385717	0.831811	0.886680
Cl176	Cl	1.635717	1.081811	1.136680
H177	H	0.913460	0.304089	0.591280
H178	H	1.163460	0.554089	0.841280
H179	H	1.413460	0.804089	1.091280
H180	H	1.663460	1.054089	1.341280
Cl181	Cl	1.293564	-0.075789	0.613519
Cl182	Cl	1.543564	0.174211	0.863519
Cl183	Cl	1.793564	0.424211	1.113519
Cl184	Cl	2.043564	0.674211	1.363519
Cl185	Cl	0.948350	0.269232	0.764282
Cl186	Cl	1.198350	0.519232	1.014282
Cl187	Cl	1.448350	0.769232	1.264282
Cl188	Cl	1.698350	1.019232	1.514282
Cl189	Cl	1.230972	-0.013219	0.764270
Cl190	Cl	1.480972	0.236781	1.014270
Cl191	Cl	1.730972	0.486781	1.264270
Cl192	Cl	1.980972	0.736781	1.514270
Cl193	Cl	1.230922	-0.013222	0.235935
Cl194	Cl	1.480922	0.236778	0.485935
Cl195	Cl	1.730922	0.486778	0.735935
Cl196	Cl	1.980922	0.736778	0.985935
H197	H	1.265821	-0.048092	0.408942
H198	H	1.515821	0.201908	0.658942
H199	H	1.765821	0.451908	0.908942
H200	H	2.015821	0.701908	1.158942
