data_functionalizedCrystal
_audit_creation_method	'MofGen! by Chris Wilmer'
_symmetry_space_group_name_H-M	'P1'
_symmetry_Int_Tables_number	1
_symmetry_cell_setting	triclinic
loop_
_symmetry_equiv_pos_as_xyz
  x,y,z
_cell_length_a	13.262402
_cell_length_b	13.262508
_cell_length_c	14.048226
_cell_angle_alpha	74.084351
_cell_angle_beta	74.086366
_cell_angle_gamma	80.095424
loop_
_atom_site_label
_atom_site_type_symbol
_atom_site_fract_x
_atom_site_fract_y
_atom_site_fract_z
O1	O	1.393255	0.141417	-0.318204
O2	O	1.087745	0.156779	-0.243076
O3	O	1.248189	-0.003658	-0.243085
O4	O	1.232811	0.301853	-0.318196
O5	O	1.248174	-0.003656	-0.401403
O6	O	1.087730	0.156780	-0.401394
O7	O	1.393240	0.141418	-0.476522
Zn8	Zn	1.240482	0.149099	-0.464094
Zn9	Zn	1.240502	0.149097	-0.255504
O10	O	1.232796	0.301855	-0.476513
C11	C	1.048631	0.155917	-0.311886
C12	C	0.932105	0.153333	-0.281045
C13	C	0.877368	0.152117	-0.180253
C14	C	0.767885	0.149700	-0.151280
C15	C	0.713128	0.148491	-0.223094
C16	C	0.767866	0.149699	-0.323886
C17	C	0.877359	0.152125	-0.352863
C18	C	0.713119	0.148498	-0.395704
C19	C	0.767857	0.149706	-0.496496
C20	C	0.877339	0.152131	-0.525468
C21	C	0.932096	0.153341	-0.453655
C22	C	0.603626	0.146072	-0.366727
C23	C	0.603617	0.146080	-0.539337
C24	C	0.713100	0.148497	-0.568309
C25	C	1.247321	-0.042764	-0.311895
C26	C	1.244743	-0.159292	-0.281054
C27	C	1.237440	-0.487772	-0.539325
C28	C	1.239853	-0.378288	-0.568300
C29	C	1.241076	-0.323534	-0.496491
C30	C	1.239885	-0.378274	-0.395702
C31	C	1.237463	-0.487768	-0.366722
C32	C	1.241100	-0.323529	-0.323888
C33	C	1.239909	-0.378269	-0.223099
C34	C	1.237488	-0.487753	-0.194124
C35	C	1.236265	-0.542507	-0.265933
C36	C	1.243521	-0.214035	-0.352868
C37	C	1.243545	-0.214031	-0.180265
C38	C	1.241132	-0.323515	-0.151290
C39	C	1.432354	0.142280	-0.407711
C40	C	1.548880	0.144864	-0.438545
C41	C	1.233664	0.340961	-0.407702
C42	C	1.236241	0.457488	-0.438536
N43	N	1.240476	0.149100	-0.606454
C44	C	1.176587	0.085111	-1.030212
C45	C	1.176583	0.085107	-0.930553
C46	C	1.240504	0.149089	-0.913828
C47	C	1.304441	0.213069	-0.996770
C48	C	1.304450	0.213066	-1.096427
C49	C	1.304416	0.213073	-0.789050
C50	C	1.304406	0.213078	-0.689386
C51	C	1.176550	0.085115	-0.623176
C52	C	1.176558	0.085111	-0.722833
C53	C	1.240494	0.149094	-0.805768
N54	N	1.240517	0.149089	-0.113145
H55	H	0.723325	0.148717	-0.069216
O56	O	0.544672	0.144852	-0.616906
H57	H	0.556737	0.216808	-0.679948
H58	H	1.124530	0.033015	-1.043819
O59	O	1.373402	0.282066	-1.185886
H60	H	1.350917	0.365848	-1.182645
H61	H	1.243040	-0.234387	-0.520089
H62	H	1.244533	-0.169449	-0.121790
H63	H	0.559069	0.145090	-0.284662
O64	O	1.244825	-0.155006	-0.461575
H65	H	1.172910	-0.166990	-0.481239
H66	H	1.240161	-0.368100	-0.069225
O67	O	1.236150	-0.546793	-0.085406
H68	H	1.237400	-0.490329	-0.040337
H69	H	0.921960	0.153110	-0.121795
O70	O	1.107624	0.016111	-0.841101
H71	H	1.063165	-0.028367	-0.869474
H72	H	1.240834	-0.333728	-0.650365
O73	O	0.772139	0.149815	-0.677022
H74	H	0.857468	0.151714	-0.685103
H75	H	1.021247	0.155301	-0.477238
O76	O	0.936363	0.153460	-0.634187
H77	H	0.995298	0.083122	-0.635381
O78	O	0.595051	0.145814	-0.191837
H79	H	0.566191	0.145146	-0.109679
H80	H	1.236437	-0.532362	-0.597779
H81	H	1.234305	-0.631659	-0.242347
O82	O	1.107654	0.016070	-0.740880
H83	H	1.063215	-0.028442	-0.666470
H84	H	1.124489	0.033020	-0.555644
H85	H	1.356452	0.265180	-0.675774
O86	O	1.373368	0.282085	-0.878506
H87	H	1.417805	0.326587	-0.850136
O88	O	1.373385	0.282076	-0.978730
H89	H	1.417849	0.326556	-1.053144
