data_functionalizedCrystal
_audit_creation_method	'MofGen! by Chris Wilmer'
_symmetry_space_group_name_H-M	'P1'
_symmetry_Int_Tables_number	1
_symmetry_cell_setting	triclinic
loop_
_symmetry_equiv_pos_as_xyz
  x,y,z
_cell_length_a	14.519709
_cell_length_b	19.288813
_cell_length_c	17.766277
_cell_angle_alpha	89.984873
_cell_angle_beta	89.996216
_cell_angle_gamma	83.397823
loop_
_atom_site_label
_atom_site_type_symbol
_atom_site_fract_x
_atom_site_fract_y
_atom_site_fract_z
O1	O	1.223274	0.091052	-0.062513
O2	O	1.723274	0.591052	0.437487
O3	O	0.954727	0.101774	-0.062538
O4	O	1.454727	0.601774	0.437462
O5	O	1.096785	-0.004692	-0.062501
O6	O	1.596785	0.495308	0.437499
O7	O	1.081216	0.197518	-0.062550
O8	O	1.581216	0.697518	0.437450
O9	O	1.096759	-0.004695	0.062687
O10	O	1.596759	0.495305	0.562687
O11	O	0.954702	0.101771	0.062650
O12	O	1.454702	0.601771	0.562650
O13	O	1.223249	0.091049	0.062675
O14	O	1.723249	0.591049	0.562675
Cu15	Cu	1.088973	0.096410	0.074093
Cu16	Cu	1.588973	0.596410	0.574093
Cu17	Cu	1.089003	0.096413	-0.073957
Cu18	Cu	1.589003	0.596413	0.426043
O19	O	1.081191	0.197515	0.062638
O20	O	1.581191	0.697515	0.562638
C21	C	0.920358	0.101273	0.000053
C22	C	1.420358	0.601273	0.500053
C23	C	0.817986	0.099776	0.000045
C24	C	1.317986	0.599776	0.500045
C25	C	1.096279	-0.030572	0.000097
C26	C	1.596279	0.469428	0.500097
C27	C	1.094799	-0.107683	0.000111
C28	C	1.594799	0.392317	0.500111
N29	N	1.088959	0.096407	0.178224
N30	N	1.588959	0.596407	0.678224
C31	C	0.443127	0.094263	0.000080
C32	C	0.943127	0.594263	0.500080
C33	C	0.547425	0.095794	0.000070
C34	C	1.047425	0.595794	0.500070
C35	C	0.630553	0.097019	0.000062
C36	C	1.130553	0.597019	0.500062
C37	C	0.734858	0.098550	0.000053
C38	C	1.234858	0.598550	0.500053
C39	C	1.257618	0.091550	0.000082
C40	C	1.757618	0.591550	0.500082
C41	C	1.359990	0.093048	0.000086
C42	C	1.859990	0.593048	0.500086
C43	C	1.081697	0.223395	0.000038
C44	C	1.581697	0.723395	0.500038
C45	C	1.083177	0.300506	0.000019
C46	C	1.583177	0.800506	0.500019
C47	C	1.083882	0.336701	0.068264
C48	C	1.583882	0.836701	0.568264
C49	C	1.085298	0.409153	0.068277
C50	C	1.585298	0.909153	0.568277
C51	C	1.086028	0.445404	0.000042
C52	C	1.586028	0.945404	0.500042
C53	C	1.085318	0.409201	-0.068211
C54	C	1.585318	0.909201	0.431789
C55	C	1.083893	0.336752	-0.068223
C56	C	1.583893	0.836752	0.431777
C57	C	1.142315	0.554935	-0.052215
C58	C	1.642315	1.054935	0.447785
C59	C	1.143746	0.627383	-0.052201
C60	C	1.643746	1.127383	0.447799
C61	C	1.090421	0.668862	0.000073
C62	C	1.590421	1.168862	0.500073
C63	C	1.035676	0.637884	0.052347
C64	C	1.535676	1.137884	0.552347
C65	C	1.034251	0.565435	0.052335
C66	C	1.534251	1.065435	0.552335
C67	C	1.087573	0.523963	0.000046
C68	C	1.587573	1.023963	0.500046
C69	C	1.092660	0.783617	0.068336
C70	C	1.592660	1.283617	0.568336
C71	C	1.094070	0.856070	0.068346
C72	C	1.594070	1.356070	0.568346
C73	C	1.094099	0.856116	-0.068144
C74	C	1.594099	1.356116	0.431856
C75	C	1.092680	0.783665	-0.068152
C76	C	1.592680	1.283665	0.431848
C77	C	1.091964	0.747420	0.000090
C78	C	1.591964	1.247420	0.500090
N79	N	1.089025	0.096411	-0.178087
N80	N	1.589025	0.596411	0.321913
C81	C	1.144696	0.138632	0.217599
C82	C	1.644696	0.638632	0.717599
C83	C	1.144710	0.138630	0.296401
C84	C	1.644710	0.638630	0.796401
C85	C	1.088970	0.096411	0.335824
C86	C	1.588970	0.596411	0.835824
C87	C	1.033230	0.054177	0.296439
C88	C	1.533230	0.554177	0.796439
C89	C	1.033224	0.054175	0.217639
C90	C	1.533224	0.554175	0.717639
C91	C	1.005840	0.094355	0.460677
C92	C	1.505840	0.594355	0.960677
C93	C	1.005843	0.094362	0.539476
C94	C	1.505843	0.594362	1.039476
C95	C	1.088990	0.096413	0.578871
C96	C	1.588990	0.596413	1.078871
C97	C	1.172133	0.098472	0.539457
C98	C	1.672133	0.598472	1.039457
C99	C	1.172127	0.098470	0.460657
C100	C	1.672127	0.598470	0.960657
C101	C	1.088971	0.096408	0.421270
C102	C	1.588971	0.596408	0.921270
C103	C	1.144747	0.138639	0.703692
C104	C	1.644747	0.638639	1.203692
C105	C	1.144764	0.138632	0.782495
C106	C	1.644764	0.638632	1.282495
C107	C	1.033275	0.054182	0.782532
C108	C	1.533275	0.554182	1.282532
C109	C	1.033267	0.054185	0.703731
C110	C	1.533267	0.554185	1.203731
C111	C	1.089002	0.096417	0.664315
C112	C	1.589002	0.596417	1.164315
H113	H	1.083298	0.307194	0.123832
H114	H	1.583298	0.807194	0.623832
H115	H	1.185735	0.521169	-0.094792
H116	H	1.685735	1.021169	0.405208
F117	F	1.091894	0.745040	0.140964
F118	F	1.591894	1.245040	0.640964
H119	H	0.989676	0.540215	0.094898
H120	H	1.489676	1.040215	0.594898
H121	H	1.094642	0.885539	0.123921
H122	H	1.594642	1.385539	0.623921
F123	F	1.094847	0.894696	-0.140765
F124	F	1.594847	1.394696	0.359235
F125	F	1.204095	0.183573	0.824401
F126	F	1.704095	0.683573	1.324401
H127	H	0.987847	0.019801	0.328543
H128	H	1.487847	0.519801	0.828543
H129	H	1.190083	0.173018	0.185512
H130	H	1.690083	0.673018	0.685512
H131	H	1.190099	0.173017	0.328466
H132	H	1.690099	0.673017	0.828466
F133	F	1.086055	0.447681	0.140914
F134	F	1.586055	0.947681	0.640914
H135	H	1.083317	0.307282	-0.123797
H136	H	1.583317	0.807282	0.376203
F137	F	0.978923	0.682023	0.107989
F138	F	1.478923	1.182023	0.607989
H139	H	0.987834	0.019789	0.185580
H140	H	1.487834	0.519789	0.685580
F141	F	1.086098	0.447783	-0.140832
F142	F	1.586098	0.947783	0.359168
F143	F	1.091937	0.745142	-0.140788
F144	F	1.591937	1.245142	0.359212
F145	F	1.202013	0.660345	-0.107832
F146	F	1.702013	1.160345	0.392168
H147	H	1.239826	0.100145	0.428569
H148	H	1.739826	0.600145	0.928569
H149	H	1.239838	0.100146	0.571530
H150	H	1.739838	0.600146	1.071530
H151	H	1.190131	0.173026	0.671598
H152	H	1.690131	0.673026	1.171598
F153	F	0.973961	0.009242	0.824484
F154	F	1.473961	0.509242	1.324484
F155	F	0.973928	0.009254	0.661823
F156	F	1.473928	0.509254	1.161823
F157	F	0.917355	0.092177	0.581416
F158	F	1.417355	0.592177	1.081416
H159	H	0.938126	0.092689	0.428608
H160	H	1.438126	0.592689	0.928608
