data_functionalizedCrystal
_audit_creation_method	'MofGen! by Chris Wilmer'
_symmetry_space_group_name_H-M	'P1'
_symmetry_Int_Tables_number	1
_symmetry_cell_setting	triclinic
loop_
_symmetry_equiv_pos_as_xyz
  x,y,z
_cell_length_a	15.297475
_cell_length_b	21.295416
_cell_length_c	15.299448
_cell_angle_alpha	99.702397
_cell_angle_beta	69.206248
_cell_angle_gamma	99.667634
loop_
_atom_site_label
_atom_site_type_symbol
_atom_site_fract_x
_atom_site_fract_y
_atom_site_fract_z
Zn1	Zn	1.512769	0.340393	-0.771458
Zn2	Zn	1.485700	0.461178	-0.615907
Zn3	Zn	1.330318	0.340374	-0.589084
Zn4	Zn	1.357185	0.430065	-0.744524
O5	O	1.421493	0.393003	-0.680243
O6	O	1.639320	0.369444	-0.773320
O7	O	1.442516	0.458166	-0.482198
O8	O	1.354605	0.252292	-0.613323
O9	O	1.619432	0.458185	-0.659038
O10	O	1.488651	0.252306	-0.747312
O11	O	1.328357	0.369412	-0.462492
O12	O	1.203741	0.339243	-0.587207
O13	O	1.400396	0.405157	-0.878248
O14	O	1.223480	0.405138	-0.701408
O15	O	1.514703	0.339275	-0.898036
O16	O	1.468568	0.545136	-0.632921
O17	O	1.374148	0.522277	-0.727416
C18	C	1.179866	0.368813	-0.638475
C19	C	1.076501	0.358477	-0.620628
C20	C	1.421365	0.556546	-0.680181
C21	C	1.421400	0.626516	-0.680200
C22	C	0.826278	0.466876	-0.807799
C23	C	0.923394	0.476592	-0.824564
C24	C	0.961676	0.447064	-0.773582
C25	C	0.902831	0.407819	-0.705831
C26	C	0.805704	0.398106	-0.689059
C27	C	0.941102	0.378294	-0.654842
C28	C	0.882258	0.339049	-0.587091
C29	C	0.785141	0.329338	-0.570322
C30	C	0.746859	0.358866	-0.621304
C31	C	1.038229	0.388007	-0.671614
C32	C	1.017656	0.319237	-0.552874
C33	C	0.920539	0.309521	-0.536108
C34	C	1.470629	0.671264	-0.631069
C35	C	1.470677	0.737008	-0.631102
C36	C	1.421478	0.758002	-0.680253
C37	C	1.372248	0.713245	-0.729395
C38	C	1.372209	0.647502	-0.729369
N39	N	1.341353	0.852419	-0.673287
N40	N	1.341392	0.914872	-0.673307
C41	C	1.421595	0.956081	-0.680337
N42	N	1.501757	0.932478	-0.687329
N43	N	1.501716	0.870019	-0.687304
C44	C	1.421516	0.829288	-0.680288
C45	C	1.470880	1.072116	-0.631239
C46	C	1.470931	1.137861	-0.631279
C47	C	1.372493	1.114097	-0.729566
C48	C	1.372451	1.048353	-0.729533
C49	C	1.421643	1.027367	-0.680364
C50	C	1.664064	0.417287	-0.722175
C51	C	1.767433	0.427636	-0.740044
C52	C	1.463566	0.368747	-0.922832
C53	C	1.481495	0.358411	-1.026209
C54	C	1.421655	1.228819	-0.680346
C55	C	1.421733	1.158851	-0.680432
C56	C	1.549432	0.319253	-1.085075
C57	C	1.566270	0.309532	-1.182201
C58	C	1.515176	0.338974	-1.220472
C59	C	1.447242	0.378137	-1.161606
C60	C	1.430398	0.387854	-1.064469
C61	C	1.396142	0.407575	-1.199865
C62	C	1.328207	0.446738	-1.141000
C63	C	1.311367	0.456454	-1.043873
C64	C	1.362460	0.427012	-1.005602
C65	C	1.412986	0.397858	-1.297002
C66	C	1.293951	0.466459	-1.276396
C67	C	1.277114	0.476179	-1.179270
C68	C	1.379637	0.417124	-0.438608
C69	C	1.361889	0.427300	-0.335263
H70	H	1.086131	0.419960	-0.726778
Br71	Br	1.305733	1.142581	-0.796284
Br72	Br	1.537635	1.043631	-0.564509
H73	H	1.040753	0.454977	-0.787237
Br74	Br	1.537759	1.198593	-0.564606
Br75	Br	1.069599	0.279167	-0.483671
H76	H	0.971298	0.508547	-0.879725
H77	H	1.256048	0.488341	-0.995945
H78	H	1.332360	1.011917	-0.769535
Br79	Br	0.774316	0.506964	-0.876956
Br80	Br	1.505176	0.344707	-1.376879
H81	H	1.252341	0.490428	-1.307554
Br82	Br	1.658498	0.256413	-1.262090
Br83	Br	0.615055	0.345675	-0.598562
H84	H	1.591021	0.295282	-1.053905
Br85	Br	1.339617	0.440207	-0.873784
H86	H	1.221801	0.508066	-1.131328
H87	H	0.872614	0.277568	-0.480944
H88	H	0.737230	0.297390	-0.515145
H89	H	1.510686	0.654179	-0.591036
H90	H	1.528888	0.331056	-1.299557
Br91	Br	1.537492	0.797748	-0.564420
H92	H	1.332192	0.730342	-0.769416
Br93	Br	1.305395	0.586769	-0.796054
