data_functionalizedCrystal
_audit_creation_method	'MofGen! by Chris Wilmer'
_symmetry_space_group_name_H-M	'P1'
_symmetry_Int_Tables_number	1
_symmetry_cell_setting	triclinic
loop_
_symmetry_equiv_pos_as_xyz
  x,y,z
_cell_length_a	10.654550
_cell_length_b	10.654550
_cell_length_c	9.730223
_cell_angle_alpha	89.996763
_cell_angle_beta	89.999957
_cell_angle_gamma	84.484917
loop_
_atom_site_label
_atom_site_type_symbol
_atom_site_fract_x
_atom_site_fract_y
_atom_site_fract_z
O1	O	1.667839	0.176399	-0.114183
O2	O	1.302361	0.193205	-0.114208
O3	O	1.493503	0.002062	-0.114190
O4	O	1.476697	0.367541	-0.114202
O5	O	1.493490	0.002057	0.114390
O6	O	1.302348	0.193199	0.114372
O7	O	1.667827	0.176393	0.114396
Zn8	Zn	1.485085	0.184796	0.150676
Zn9	Zn	1.485102	0.184802	-0.150488
O10	O	1.476684	0.367536	0.114378
C11	C	1.255556	0.191968	0.000078
C12	C	1.116113	0.188276	0.000069
C13	C	1.492263	-0.044738	0.000098
C14	C	1.488571	-0.184181	0.000093
C15	C	1.036627	0.300818	0.000069
C16	C	0.905607	0.297341	0.000093
C17	C	0.933570	0.068772	0.000111
C18	C	1.064588	0.072250	0.000097
C19	C	1.601112	-0.263667	0.000105
C20	C	1.597636	-0.394688	0.000095
C21	C	1.369066	-0.366725	0.000067
C22	C	1.372544	-0.235706	0.000067
C23	C	1.717139	-0.212142	0.000130
C24	C	1.829690	-0.291629	0.000144
C25	C	1.826213	-0.422650	0.000134
C26	C	1.710186	-0.474184	0.000111
C27	C	1.714631	0.177630	0.000107
C28	C	1.854074	0.181322	0.000107
C29	C	1.477924	0.414336	0.000087
C30	C	1.481616	0.553779	0.000083
N31	N	1.485083	0.184790	0.356212
N32	N	1.485114	0.184798	-0.356024
C33	C	1.569750	0.100188	0.428146
C34	C	1.569763	0.100189	0.572029
C35	C	1.400438	0.269404	0.572032
C36	C	1.400420	0.269396	0.428151
H37	H	1.078574	0.395294	0.000057
H38	H	1.274602	-0.408695	0.000050
O39	O	0.877987	-0.056363	0.000134
H40	H	0.955274	-0.134037	0.000147
O41	O	1.661034	0.008921	0.350538
H42	H	1.759084	0.025812	0.378129
O43	O	0.819875	0.418727	0.000102
H44	H	0.759492	0.422608	-0.093046
H45	H	1.280903	-0.170986	0.000059
O46	O	1.661097	0.008956	0.649621
H47	H	1.719971	-0.049862	0.575420
H48	H	1.719983	-0.105460	0.000143
H49	H	1.924155	-0.249661	0.000128
O50	O	1.150335	-0.049139	0.000099
H51	H	1.092498	-0.130404	0.000102
H52	H	1.331468	0.338290	0.369579
H53	H	1.917857	-0.487366	0.000131
O54	O	1.706438	-0.615501	0.000106
H55	H	1.656201	-0.644010	-0.093068
H56	H	1.331508	0.338290	0.630619
