data_functionalizedCrystal
_audit_creation_method	'MofGen! by Chris Wilmer'
_symmetry_space_group_name_H-M	'P1'
_symmetry_Int_Tables_number	1
_symmetry_cell_setting	triclinic
loop_
_symmetry_equiv_pos_as_xyz
  x,y,z
_cell_length_a	12.827893
_cell_length_b	12.827892
_cell_length_c	19.805399
_cell_angle_alpha	90.022529
_cell_angle_beta	90.016454
_cell_angle_gamma	90.015363
loop_
_atom_site_label
_atom_site_type_symbol
_atom_site_fract_x
_atom_site_fract_y
_atom_site_fract_z
Zn1	Zn	1.597642	-0.416058	0.382687
Zn2	Zn	1.597545	-0.590813	0.269509
Zn3	Zn	1.422892	-0.416087	0.269518
Zn4	Zn	1.422869	-0.590758	0.382662
O5	O	1.510237	-0.503429	0.326094
O6	O	1.743866	-0.439251	0.367681
O7	O	1.574345	-0.567671	0.174793
O8	O	1.446123	-0.269847	0.284544
O9	O	1.743794	-0.567643	0.284529
O10	O	1.574512	-0.269826	0.367689
O11	O	1.446029	-0.439300	0.174800
O12	O	1.276653	-0.439246	0.284520
O13	O	1.446085	-0.567548	0.477382
O14	O	1.276636	-0.567576	0.367646
O15	O	1.574490	-0.439197	0.477400
O16	O	1.574323	-0.737042	0.284504
O17	O	1.445990	-0.737001	0.367637
C18	C	1.238727	-0.503409	0.326082
C19	C	1.122574	-0.503425	0.326092
C20	C	1.510172	-0.774939	0.326082
C21	C	1.510239	-0.891092	0.326099
C22	C	1.070754	-0.566860	0.284892
C23	C	0.950704	-0.566879	0.284902
C24	C	1.573818	-0.942862	0.285008
C25	C	1.573889	-1.062913	0.285025
C26	C	1.782807	-0.503450	0.326107
C27	C	1.898960	-0.503459	0.326112
C28	C	1.510296	-0.503363	0.502637
C29	C	1.510321	-0.503335	0.577869
C30	C	1.510331	-0.230859	0.326121
C31	C	1.510371	-0.114706	0.326132
C32	C	1.510239	-0.503419	0.150238
C33	C	1.510416	-0.503153	0.075006
C34	C	1.577183	-0.436499	0.613224
C35	C	1.577193	-0.436469	0.683912
C36	C	1.510347	-0.503281	0.719244
C37	C	1.443477	-0.570119	0.683884
C38	C	1.443462	-0.570143	0.613197
C39	C	1.443536	-0.570022	0.968958
C40	C	1.443559	-0.569995	1.039650
C41	C	1.577268	-0.436347	1.039673
C42	C	1.577252	-0.436372	0.968986
C43	C	1.510380	-0.503206	0.933632
C44	C	1.510367	-0.503237	0.856983
C45	C	1.510363	-0.503256	0.795892
H46	H	1.115266	-0.621158	0.249613
H47	H	1.455864	-0.935646	0.361294
Br48	Br	1.419630	-1.040515	0.384767
Br49	Br	0.973222	-0.412923	0.384903
Br50	Br	1.667982	-0.345702	0.921038
Br51	Br	0.876435	-0.657394	0.226101
Br52	Br	1.664469	-0.868614	0.226355
Br53	Br	1.667988	-0.345808	0.731892
H54	H	1.631621	-0.382097	0.584461
Br55	Br	1.664611	-1.137110	0.226381
Br56	Br	1.668024	-0.345640	1.087656
H57	H	1.078062	-0.449134	0.361375
H58	H	1.389119	-0.624403	1.068416
H59	H	1.389099	-0.624458	0.940181
Br60	Br	1.352748	-0.660787	0.731834
H61	H	1.389005	-0.624557	0.584412
