data_functionalizedCrystal
_audit_creation_method	'MofGen! by Chris Wilmer'
_symmetry_space_group_name_H-M	'P1'
_symmetry_Int_Tables_number	1
_symmetry_cell_setting	triclinic
loop_
_symmetry_equiv_pos_as_xyz
  x,y,z
_cell_length_a	11.026607
_cell_length_b	11.026607
_cell_length_c	9.482900
_cell_angle_alpha	78.613859
_cell_angle_beta	101.381836
_cell_angle_gamma	108.586017
loop_
_atom_site_label
_atom_site_type_symbol
_atom_site_fract_x
_atom_site_fract_y
_atom_site_fract_z
O1	O	-1.711168	-0.549184	0.120893
O2	O	-1.344588	-0.488420	0.120896
O3	O	-1.497497	-0.335511	0.120889
O4	O	-1.558259	-0.702093	0.120899
O5	O	-1.528610	-0.304381	-0.120904
O6	O	-1.375701	-0.457290	-0.120898
O7	O	-1.742281	-0.518053	-0.120901
Cu8	Cu	-1.561832	-0.484829	-0.142977
Cu9	Cu	-1.525037	-0.521644	0.142972
O10	O	-1.589372	-0.670962	-0.120894
C11	C	-1.312485	-0.461645	-0.000001
C12	C	-1.170471	-0.428228	-0.000000
N13	N	-1.587720	-0.458936	-0.344098
C14	C	-1.774384	-0.544828	-0.000001
C15	C	-1.916397	-0.578246	0.000008
C16	C	-1.116821	-0.520498	0.000003
C17	C	-0.970042	-0.485963	0.000004
C18	C	-1.501843	-0.272287	-0.000006
C19	C	-1.468426	-0.130273	-0.000000
C20	C	-1.585025	-0.734187	0.000004
C21	C	-1.618442	-0.876202	0.000008
C22	C	-1.560695	-0.076624	0.000001
C23	C	-1.526159	0.070154	0.000007
N24	N	-1.499157	-0.547529	0.344093
C25	C	-1.554207	-0.492474	0.416290
C26	C	-1.532662	-0.513999	0.583709
H27	H	-0.907309	-0.381398	0.000039
H28	H	-0.979125	-0.682816	0.000001
H29	H	-1.107733	-0.323670	0.000034
H30	H	-1.363862	-0.067541	0.000010
O31	O	-1.699208	-0.159703	-0.000002
H32	H	-1.704599	-0.261950	-0.000014
O33	O	-1.449075	-0.597530	0.665985
H34	H	-1.445251	-0.601311	0.784570
O35	O	-1.671282	-0.375379	0.573628
H36	H	-1.675085	-0.371573	0.455043
O37	O	-1.637774	-0.408931	0.334010
H38	H	-1.579467	-0.326381	0.264652
O39	O	-1.415573	-0.631056	0.426375
H40	H	-1.411750	-0.634837	0.544960
H41	H	-1.179555	-0.625061	-0.000002
H42	H	-1.421588	0.132881	0.000017
H43	H	-1.722998	0.061057	0.000117
