data_functionalizedCrystal
_audit_creation_method	'MofGen! by Chris Wilmer'
_symmetry_space_group_name_H-M	'P1'
_symmetry_Int_Tables_number	1
_symmetry_cell_setting	triclinic
loop_
_symmetry_equiv_pos_as_xyz
  x,y,z
_cell_length_a	17.699083
_cell_length_b	17.766277
_cell_length_c	19.288865
_cell_angle_alpha	90.010454
_cell_angle_beta	83.209632
_cell_angle_gamma	90.003370
loop_
_atom_site_label
_atom_site_type_symbol
_atom_site_fract_x
_atom_site_fract_y
_atom_site_fract_z
O1	O	1.003958	0.062497	0.087836
O2	O	1.503958	0.562497	0.587836
O3	O	0.783563	0.062523	0.099264
O4	O	1.283563	0.562523	0.599264
O5	O	0.900129	0.062495	-0.007573
O6	O	1.400129	0.562495	0.492427
O7	O	0.887392	0.062526	0.194673
O8	O	1.387392	0.562526	0.694673
O9	O	0.900108	-0.062694	-0.007576
O10	O	1.400108	0.437306	0.492424
O11	O	0.783542	-0.062665	0.099261
O12	O	1.283542	0.437335	0.599261
O13	O	1.003937	-0.062691	0.087833
O14	O	1.503937	0.437309	0.587833
Cu15	Cu	0.893738	-0.074109	0.093547
Cu16	Cu	1.393738	0.425891	0.593547
Cu17	Cu	0.893762	0.073941	0.093550
Cu18	Cu	1.393762	0.573941	0.593550
O19	O	0.887371	-0.062663	0.194670
O20	O	1.387371	0.437337	0.694670
C21	C	0.755356	-0.000068	0.098853
C22	C	1.255356	0.499932	0.598853
C23	C	0.671340	-0.000059	0.097624
C24	C	1.171340	0.499941	0.597624
N25	N	0.893726	-0.178239	0.093544
N26	N	1.393726	0.321761	0.593544
C27	C	0.939478	-0.217619	0.135622
C28	C	1.439478	0.282381	0.635622
C29	C	0.939490	-0.296420	0.135620
C30	C	1.439490	0.203580	0.635620
C31	C	0.893736	-0.335840	0.093548
C32	C	1.393736	0.164160	0.593548
C33	C	0.847981	-0.296451	0.051461
C34	C	1.347981	0.203549	0.551461
C35	C	0.847976	-0.217651	0.051459
C36	C	1.347976	0.282349	0.551459
C37	C	0.825510	-0.460692	0.091710
C38	C	1.325510	0.039308	0.591710
C39	C	0.825513	-0.539491	0.091717
C40	C	1.325513	-0.039491	0.591717
C41	C	0.893752	-0.578886	0.093550
C42	C	1.393752	-0.078886	0.593550
C43	C	0.961988	-0.539473	0.095390
C44	C	1.461988	-0.039473	0.595390
C45	C	0.961983	-0.460673	0.095388
C46	C	1.461983	0.039327	0.595388
C47	C	0.893736	-0.421286	0.093545
C48	C	1.393736	0.078714	0.593545
C49	C	0.939520	-0.703711	0.135628
C50	C	1.439520	-0.203711	0.635628
C51	C	0.939534	-0.782515	0.135621
C52	C	1.439534	-0.282515	0.635621
C53	C	0.848018	-0.782544	0.051466
C54	C	1.348018	-0.282544	0.551466
C55	C	0.848012	-0.703742	0.051469
C56	C	1.348012	-0.203742	0.551469
C57	C	0.893761	-0.664331	0.093554
C58	C	1.393761	-0.164331	0.593554
C59	C	0.622631	-0.000049	0.160335
C60	C	1.122631	0.499951	0.660335
C61	C	0.543689	-0.000059	0.159177
C62	C	1.043689	0.499941	0.659177
C63	C	0.513458	-0.000073	0.095307
C64	C	1.013458	0.499927	0.595307
C65	C	0.562174	-0.000085	0.032591
C66	C	1.062174	0.499915	0.532591
C67	C	0.641114	-0.000080	0.033750
C68	C	1.141114	0.499920	0.533750
C69	C	0.243817	-0.000104	0.027915
C70	C	0.743817	0.499896	0.527915
C71	C	0.164871	-0.000107	0.026761
C72	C	0.664871	0.499893	0.526761
C73	C	0.146393	-0.000083	0.153342
C74	C	0.646393	0.499917	0.653342
C75	C	0.225333	-0.000079	0.154501
C76	C	0.725333	0.499921	0.654501
C77	C	0.274041	-0.000094	0.091785
C78	C	0.774041	0.499906	0.591785
C79	C	0.359639	-0.000085	0.093042
C80	C	0.859639	0.499915	0.593042
C81	C	0.427862	-0.000077	0.094049
C82	C	0.927862	0.499923	0.594049
C83	C	1.032144	-0.000098	0.088244
C84	C	1.532144	0.499902	0.588244
C85	C	1.116160	-0.000103	0.089472
C86	C	1.616160	0.499897	0.589472
C87	C	0.899709	-0.000102	-0.033451
C88	C	1.399709	0.499898	0.466549
C89	C	0.898478	-0.000108	-0.110556
C90	C	1.398478	0.499892	0.389444
N91	N	0.893780	0.178071	0.093548
N92	N	1.393780	0.678071	0.593548
C93	C	0.966874	-0.000120	-0.155172
C94	C	1.466874	0.499880	0.344828
C95	C	0.965718	-0.000108	-0.227620
C96	C	1.465718	0.499892	0.272380
C97	C	0.896163	-0.000099	-0.255450
C98	C	1.396163	0.499901	0.244550
C99	C	0.827759	-0.000083	-0.210825
C100	C	1.327759	0.499917	0.289175
C101	C	0.828916	-0.000088	-0.138378
C102	C	1.328916	0.499912	0.361622
C103	C	0.841477	-0.043944	-0.363803
C104	C	1.341477	0.456056	0.136197
C105	C	0.840322	-0.043944	-0.436249
C106	C	1.340322	0.456056	0.063751
C107	C	0.892589	-0.000082	-0.478900
C108	C	1.392589	0.499918	0.021100
C109	C	0.946024	0.043770	-0.449097
C110	C	1.446024	0.543770	0.050903
C111	C	0.947182	0.043766	-0.376651
C112	C	1.447182	0.543766	0.123349
C113	C	0.894900	-0.000094	-0.334006
C114	C	1.394900	0.499906	0.165994
C115	C	0.959736	-0.000080	-0.602073
C116	C	1.459736	0.499920	-0.102073
C117	C	0.958578	-0.000063	-0.674522
C118	C	1.458578	0.499937	-0.174522
C119	C	0.820616	-0.000046	-0.657725
C120	C	1.320616	0.499954	-0.157725
C121	C	0.821777	-0.000055	-0.585277
C122	C	1.321777	0.499945	-0.085277
C123	C	0.891339	-0.000075	-0.557456
C124	C	1.391339	0.499925	-0.057456
C125	C	0.887792	-0.000064	0.220548
C126	C	1.387792	0.499936	0.720548
C127	C	0.889022	-0.000053	0.297653
C128	C	1.389022	0.499947	0.797653
H129	H	0.976734	-0.185535	0.169887
H130	H	1.476734	0.314465	0.669887
H131	H	1.017553	-0.571547	0.096886
H132	H	1.517553	-0.071547	0.596886
H133	H	1.014276	-0.000068	-0.710848
H134	H	1.514276	0.499932	-0.210848
H135	H	0.647238	-0.000037	0.212346
H136	H	1.147238	0.499963	0.712346
Br137	Br	0.785902	-0.650294	-0.005626
Br138	Br	1.285902	-0.150294	0.494374
Br139	Br	0.309912	-0.000128	-0.057199
Br140	Br	0.809912	0.499872	0.442801
H141	H	0.763983	-0.000035	-0.680383
H142	H	1.263983	0.499965	-0.180383
Br143	Br	0.770537	-0.103476	-0.305927
Br144	Br	1.270537	0.396524	0.194073
Br145	Br	0.732907	-0.592972	0.089230
Br146	Br	1.232907	-0.092972	0.589230
H147	H	0.773219	-0.000079	-0.102051
H148	H	1.273219	0.499921	0.397949
Br149	Br	1.001637	-0.835960	0.192726
Br150	Br	1.501637	-0.335960	0.692726
H151	H	0.976747	-0.328489	0.169886
H152	H	1.476747	0.171511	0.669886
Br153	Br	1.019692	0.103280	-0.336205
Br154	Br	1.519692	0.603280	0.163795
H155	H	0.810718	-0.185588	0.017193
H156	H	1.310718	0.314412	0.517193
Br157	Br	1.054139	-0.000115	-0.564310
Br158	Br	1.554139	0.499885	-0.064310
H159	H	0.766082	-0.000050	-0.548950
H160	H	1.266082	0.499950	-0.048950
H161	H	0.537553	-0.000107	-0.019413
H162	H	1.037553	0.499893	0.480587
Br163	Br	0.477586	-0.000044	0.244288
Br164	Br	0.977586	0.499956	0.744288
H165	H	0.771126	-0.000075	-0.233489
H166	H	1.271126	0.499925	0.266511
Br167	Br	1.061279	-0.000127	-0.117417
Br168	Br	1.561279	0.499873	0.382583
Br169	Br	0.732903	-0.407235	0.089156
Br170	Br	1.232903	0.092765	0.589156
Br171	Br	0.080284	-0.000063	0.238457
Br172	Br	0.580284	0.499937	0.738457
H173	H	0.988584	0.079487	-0.483823
H174	H	1.488584	0.579487	0.016177
H175	H	0.796810	-0.079647	-0.460508
H176	H	1.296810	0.420353	0.039492
Br177	Br	0.123844	-0.000123	-0.059926
Br178	Br	0.623844	0.499877	0.440074
H179	H	0.976773	-0.671621	0.169895
H180	H	1.476773	-0.171621	0.669895
Br181	Br	0.707221	-0.000100	-0.051361
Br182	Br	1.207221	0.499900	0.448639
H183	H	1.017543	-0.428586	0.096885
H184	H	1.517543	0.071414	0.596885
Br185	Br	0.785934	-0.836033	-0.005643
Br186	Br	1.285934	-0.336033	0.494357
H187	H	1.021416	-0.000114	-0.263953
H188	H	1.521416	0.499886	0.236047
H189	H	0.249942	-0.000064	0.206510
H190	H	0.749942	0.499936	0.706510
H191	H	0.810729	-0.328551	0.017205
H192	H	1.310729	0.171449	0.517205
