data_functionalizedCrystal
_audit_creation_method	'MofGen! by Chris Wilmer'
_symmetry_space_group_name_H-M	'P1'
_symmetry_Int_Tables_number	1
_symmetry_cell_setting	triclinic
loop_
_symmetry_equiv_pos_as_xyz
  x,y,z
_cell_length_a	14.446369
_cell_length_b	14.446369
_cell_length_c	14.446369
_cell_angle_alpha	60.000250
_cell_angle_beta	90.002026
_cell_angle_gamma	59.999699
loop_
_atom_site_label
_atom_site_type_symbol
_atom_site_fract_x
_atom_site_fract_y
_atom_site_fract_z
Zr1	Zr	0.891780	1.013186	-0.121487
O2	O	0.743973	1.206305	-0.269303
O3	O	0.937090	0.820067	-0.076168
O4	O	0.937092	1.013176	-0.269287
O5	O	0.743970	1.013205	0.076145
O6	O	1.089429	1.013167	-0.269281
O7	O	0.743971	1.013197	-0.076184
O8	O	1.089425	0.667731	0.076174
O9	O	0.743974	1.358641	-0.269310
O10	O	1.070103	0.899493	-0.056843
O11	O	0.956415	0.899506	0.056835
O12	O	0.956417	1.126866	-0.170538
O13	O	0.842730	1.126879	-0.056861
Zr14	Zr	1.134740	1.013186	0.121469
Zr15	Zr	1.134740	1.013173	-0.121478
Zr16	Zr	0.891780	1.013199	0.121460
Zr17	Zr	0.891782	1.256144	-0.121498
Zr18	Zr	1.134738	0.770228	0.121480
O19	O	1.089430	1.206305	0.076149
O20	O	1.089431	1.206286	-0.269290
O21	O	0.743972	1.206324	0.076136
O22	O	1.282547	0.820067	0.269284
O23	O	1.282548	0.820048	-0.076155
O24	O	0.937089	0.820086	0.269272
O25	O	1.282549	1.013167	-0.076164
O26	O	1.089428	1.013197	0.269268
O27	O	0.937091	1.013205	0.269263
O28	O	1.282549	1.013176	0.076165
O29	O	0.937095	1.358630	-0.269303
O30	O	1.089425	0.667742	0.269284
O31	O	1.282546	0.667731	0.269291
O32	O	1.282546	0.667721	0.076181
O33	O	0.743974	1.358652	-0.076199
O34	O	0.937095	1.358641	-0.076192
O35	O	1.070102	0.899506	0.170520
O36	O	1.183790	0.899493	0.056843
O37	O	1.070105	1.126866	-0.056853
O38	O	0.956417	1.126879	0.056824
C39	C	1.013257	0.709283	0.000005
C40	C	1.013256	0.606141	0.000009
C41	C	0.941897	0.459139	0.072034
C42	C	0.941509	0.566759	0.071743
C43	C	0.960950	0.655133	-0.123527
C44	C	0.960414	0.547900	-0.123153
C45	C	1.136972	0.372679	0.050459
C46	C	1.136790	0.478830	0.052979
C47	C	0.709354	1.013203	-0.000020
C48	C	0.606211	1.013208	-0.000024
C49	C	0.387843	1.156597	-0.071371
C50	C	0.495075	1.156694	-0.071772
C51	C	0.602887	0.941974	-0.052319
C52	C	0.495118	0.942884	-0.052842
C53	C	0.496481	0.939941	0.123708
C54	C	0.602450	0.942643	0.123513
C55	C	1.317166	1.013169	0.000002
C56	C	1.420309	1.013164	0.000006
C57	C	1.013260	1.013169	-0.303899
C58	C	1.013260	1.013164	-0.407036
C59	C	1.013263	1.317089	-0.000023
C60	C	1.013264	1.420231	-0.000028
C61	C	1.085319	0.869775	-0.482009
C62	C	1.085007	0.869678	-0.374680
C63	C	0.889731	1.084398	-0.481604
C64	C	0.890126	1.083488	-0.588462
C65	C	1.063733	1.086432	-0.590030
C66	C	1.066233	1.083729	-0.481358
C67	C	1.013259	1.013203	0.303880
C68	C	1.013259	1.013208	0.407017
C69	C	1.317163	0.709266	0.000016
C70	C	1.420305	0.606118	0.000024
C71	C	1.013257	0.709299	0.303894
C72	C	1.013256	0.606163	0.407036
C73	C	1.317163	0.709283	0.303905
C74	C	1.420305	0.606141	0.407051
C75	C	0.709357	1.317089	-0.303924
C76	C	0.606215	1.420231	-0.407070
C77	C	0.709357	1.317106	-0.000034
C78	C	0.606215	1.420254	-0.000043
C79	C	1.013263	1.317073	-0.303913
C80	C	1.013264	1.420209	-0.407055
C81	C	1.638673	0.459797	0.071363
C82	C	1.531442	0.566726	0.071765
C83	C	1.423632	0.479262	0.052327
C84	C	1.531400	0.371879	0.052849
C85	C	1.530029	0.546849	-0.123710
C86	C	1.424061	0.655327	-0.123514
C87	C	0.941205	0.459853	0.482023
C88	C	0.941511	0.566773	0.374689
C89	C	1.136787	0.479303	0.481600
C90	C	1.136399	0.371928	0.588464
C91	C	0.962793	0.546911	0.590035
C92	C	0.960287	0.655381	0.481359
C93	C	1.495290	0.459806	0.625418
C94	C	1.387956	0.566750	0.518183
C95	C	1.494847	0.479288	0.410371
C96	C	1.601711	0.371890	0.518142
C97	C	1.603326	0.546834	0.516796
C98	C	1.494650	0.655327	0.410824
H99	H	1.009037	0.525926	-0.179762
H100	H	0.833709	1.189899	-0.508841
Br101	Br	0.999860	0.504331	0.285035
H102	H	0.849037	1.034928	-0.430000
Br103	Br	1.203745	0.220659	0.588020
Br104	Br	1.613390	0.612809	-0.196525
Br105	Br	1.540240	0.516355	0.279928
H106	H	1.190395	0.346698	-0.001778
Br107	Br	0.999004	0.310403	0.480302
Br108	Br	1.000087	0.311035	0.224047
H109	H	1.504746	0.341924	0.004222
H110	H	1.050001	0.813431	-0.320893
Br111	Br	1.292126	0.708873	-0.219608
H112	H	0.869381	0.588601	-0.163570
Br113	Br	1.043377	0.703181	-0.216912
Br114	Br	1.217921	0.997161	-0.395647
Br115	Br	1.298274	0.504346	0.522250
H116	H	1.175867	0.439231	0.143990
H117	H	1.193010	0.341973	0.667047
H118	H	0.681154	0.836473	-0.002835
H119	H	0.833514	1.188723	-0.667049
H120	H	1.345365	0.501510	0.002847
Br121	Br	1.408815	0.415045	0.406797
Br122	Br	0.490995	1.250431	-0.223866
Br123	Br	0.790725	0.518647	0.014250
H124	H	1.607457	0.586392	0.566821
Br125	Br	1.733692	0.505502	0.471053
Br126	Br	0.606446	1.024423	-0.202600
Br127	Br	1.213057	1.009926	-0.596884
Br128	Br	0.822777	0.999125	-0.588019
H129	H	0.444774	0.993500	-0.143871
Br130	Br	1.237326	0.775925	-0.478100
Br131	Br	0.539531	0.767492	0.028187
Br132	Br	0.789896	0.715704	0.284219
Br133	Br	1.204616	0.415023	0.395596
Br134	Br	1.420079	0.414994	0.202609
H135	H	1.175970	0.813789	-0.320401
H136	H	1.192808	0.501549	0.508832
Br137	Br	0.813471	0.612874	0.596893
H138	H	1.424582	0.745813	-0.162585
Br139	Br	0.808584	0.806181	0.395665
H140	H	0.870788	0.747443	-0.164220
H141	H	0.850258	0.655563	0.036742
H142	H	1.050631	0.813763	-0.480974
Br143	Br	1.209788	0.216479	0.199773
Br144	Br	1.038666	0.708942	0.523890
H145	H	1.692630	0.497033	0.036461
H146	H	1.015031	0.522121	0.668253
H147	H	1.019205	1.188408	-0.506880
H148	H	1.194444	0.500326	0.005953
Br149	Br	1.484277	0.505533	-0.212756
H150	H	1.443254	0.745787	0.411386
H151	H	0.850008	0.497097	0.479683
Br152	Br	1.730303	0.310357	0.222546
H153	H	0.332859	1.212614	-0.162072
H154	H	1.581747	0.281126	0.143877
H155	H	1.333695	0.656097	0.519802
Br156	Br	0.492390	1.249841	-0.013308
H157	H	0.446458	0.985838	0.167395
H158	H	1.520177	0.687448	0.331671
Br159	Br	1.601240	0.220638	0.602045
Br160	Br	1.732690	0.321937	0.473735
H161	H	1.011479	1.192105	-0.668235
H162	H	1.533056	0.656074	0.036687
H163	H	0.976595	0.530052	0.162711
H164	H	0.333888	1.212894	-0.036471
H165	H	0.681608	0.837962	0.181168
Br166	Br	0.601616	1.029188	0.188645
H167	H	0.523919	0.834280	0.177141
H168	H	1.533899	0.529263	0.163018
H169	H	1.492965	0.497034	0.679381
H170	H	1.494244	0.370149	0.680391
