data_functionalizedCrystal
_audit_creation_method	'MofGen! by Chris Wilmer'
_symmetry_space_group_name_H-M	'P1'
_symmetry_Int_Tables_number	1
_symmetry_cell_setting	triclinic
loop_
_symmetry_equiv_pos_as_xyz
  x,y,z
_cell_length_a	10.489741
_cell_length_b	10.654550
_cell_length_c	9.130313
_cell_angle_alpha	89.995631
_cell_angle_beta	89.999174
_cell_angle_gamma	84.512052
loop_
_atom_site_label
_atom_site_type_symbol
_atom_site_fract_x
_atom_site_fract_y
_atom_site_fract_z
O1	O	1.693966	0.177192	-0.121708
O2	O	2.193966	0.677192	0.378292
O3	O	1.322763	0.193824	-0.121731
O4	O	1.822763	0.693824	0.378269
O5	O	1.516899	0.002773	-0.121710
O6	O	2.016899	0.502773	0.378290
O7	O	1.499830	0.368243	-0.121729
O8	O	1.999830	0.868243	0.378271
O9	O	1.516886	0.002767	0.121889
O10	O	2.016886	0.502767	0.621889
O11	O	1.322749	0.193819	0.121868
O12	O	1.822749	0.693819	0.621868
O13	O	1.693953	0.177186	0.121890
O14	O	2.193953	0.677186	0.621890
Cu15	Cu	1.508350	0.185502	0.144122
Cu16	Cu	2.008350	0.685502	0.644122
Cu17	Cu	1.508366	0.185509	-0.143962
Cu18	Cu	2.008366	0.685509	0.356038
O19	O	1.499816	0.368238	0.121869
O20	O	1.999816	0.868238	0.621869
C21	C	1.515639	-0.044029	0.000089
C22	C	2.015639	0.455971	0.500089
C23	C	1.511889	-0.183474	0.000086
C24	C	2.011889	0.316526	0.500086
C25	C	1.275225	0.192565	0.000065
C26	C	1.775225	0.692565	0.500065
C27	C	1.133597	0.188807	0.000057
C28	C	1.633597	0.688807	0.500057
C29	C	1.626194	-0.262906	0.000093
C30	C	2.126194	0.237094	0.500093
C31	C	1.622663	-0.393928	0.000074
C32	C	2.122663	0.106072	0.500074
C33	C	1.390513	-0.366074	0.000050
C34	C	1.890513	0.133926	0.500050
C35	C	1.394045	-0.235054	0.000057
C36	C	1.894045	0.264946	0.500057
C37	C	1.065516	0.067246	0.000077
C38	C	1.565516	0.567246	0.500077
C39	C	0.973368	0.124673	-0.120030
C40	C	1.473368	0.624673	0.379970
C41	C	0.973389	0.124697	0.120140
C42	C	1.473389	0.624697	0.620140
C43	C	1.043315	0.246284	-0.120149
C44	C	1.543315	0.746284	0.379851
C45	C	1.043345	0.246290	0.120128
C46	C	1.543345	0.746290	0.620128
C47	C	0.951224	0.303805	-0.000008
C48	C	1.451224	0.803805	0.499992
C49	C	1.741491	0.178445	0.000091
C50	C	2.241491	0.678445	0.500091
C51	C	1.883118	0.182204	0.000090
C52	C	2.383118	0.682204	0.500090
C53	C	1.501076	0.415039	0.000068
C54	C	2.001076	0.915039	0.500068
C55	C	1.504826	0.554484	0.000060
C56	C	2.004826	1.054484	0.500060
N57	N	1.508348	0.185497	0.346744
N58	N	2.008348	0.685497	0.846744
N59	N	1.508378	0.185504	-0.346585
N60	N	2.008378	0.685504	0.153415
C61	C	1.594341	0.100935	0.423405
C62	C	2.094341	0.600935	0.923405
C63	C	1.594353	0.100935	0.576742
C64	C	2.094353	0.600935	1.076742
C65	C	1.422375	0.270070	0.576743
C66	C	1.922375	0.770070	1.076743
C67	C	1.422358	0.270062	0.423409
C68	C	1.922358	0.770062	0.923409
H69	H	1.722150	-0.220914	0.000113
H70	H	2.222150	0.279086	0.500113
H71	H	1.715742	-0.458597	0.000077
H72	H	2.215742	0.041403	0.500077
H73	H	1.352326	0.338923	0.360987
H74	H	1.852326	0.838923	0.860987
Br75	Br	1.230589	-0.436084	0.000006
Br76	Br	1.730589	0.063916	0.500006
Br77	Br	0.868761	0.470536	-0.000117
Br78	Br	1.368761	0.970536	0.499883
Br79	Br	1.238906	-0.127243	0.000029
Br80	Br	1.738906	0.372757	0.500029
Br81	Br	0.921730	0.038957	-0.289273
Br82	Br	1.421730	0.538957	0.210727
H83	H	1.664357	0.032074	0.360988
H84	H	2.164357	0.532074	0.860988
H85	H	1.352366	0.338923	0.639179
H86	H	1.852366	0.838923	1.139179
H87	H	1.115254	-0.032684	-0.000068
H88	H	1.615254	0.467316	0.499932
Br89	Br	1.094654	0.331952	-0.289584
Br90	Br	1.594654	0.831952	0.210416
Br91	Br	1.095044	0.331948	0.289374
Br92	Br	1.595044	0.831948	0.789374
H93	H	0.942430	0.073237	0.221681
H94	H	1.442430	0.573237	0.721681
H95	H	1.664375	0.032076	0.639156
H96	H	2.164375	0.532076	1.139156
