data_functionalizedCrystal
_audit_creation_method	'MofGen! by Chris Wilmer'
_symmetry_space_group_name_H-M	'P1'
_symmetry_Int_Tables_number	1
_symmetry_cell_setting	triclinic
loop_
_symmetry_equiv_pos_as_xyz
  x,y,z
_cell_length_a	17.000383
_cell_length_b	15.538191
_cell_length_c	14.184975
_cell_angle_alpha	108.269083
_cell_angle_beta	74.350878
_cell_angle_gamma	118.563801
loop_
_atom_site_label
_atom_site_type_symbol
_atom_site_fract_x
_atom_site_fract_y
_atom_site_fract_z
O1	O	1.035215	-0.016561	0.083490
O2	O	0.793366	-0.051589	0.083474
O3	O	0.961368	0.106955	0.083490
O4	O	0.867213	-0.175105	0.083474
O5	O	0.983011	0.070533	-0.083360
O6	O	0.815009	-0.088011	-0.083376
O7	O	1.056858	-0.052983	-0.083360
Cu8	Cu	0.937910	-0.073823	-0.098603
Cu9	Cu	0.912315	-0.030749	0.098717
O10	O	0.888856	-0.211528	-0.083376
C11	C	0.773991	-0.071681	0.000047
C12	C	0.684017	-0.077276	0.000041
C13	C	0.173361	-0.113386	0.000076
C14	C	0.257905	-0.108123	0.000076
C15	C	0.335293	-0.016769	0.000073
C16	C	0.328133	0.069330	0.000082
C17	C	0.243590	0.064068	0.000089
C18	C	0.592315	0.003560	0.000057
C19	C	0.676862	0.008816	0.000046
C20	C	0.606627	-0.168638	0.000042
C21	C	0.522086	-0.173893	0.000044
C22	C	0.514933	-0.087793	0.000057
C23	C	0.421711	-0.011388	0.000070
C24	C	0.428515	-0.093174	0.000068
C25	C	0.982040	0.124656	0.000069
C26	C	1.011382	0.231663	0.000081
C27	C	1.076233	-0.032890	0.000069
C28	C	1.166206	-0.027294	0.000082
C29	C	0.868184	-0.229228	0.000047
C30	C	0.838841	-0.336233	0.000042
N31	N	0.955918	-0.104118	-0.237386
C32	C	0.719866	0.495301	0.000039
C33	C	0.747460	0.595852	0.000039
C34	C	0.902664	0.631151	0.000050
C35	C	0.875083	0.530602	0.000055
C36	C	0.783683	0.462684	0.000049
C37	C	0.938901	0.497986	0.000065
C38	C	0.911322	0.397444	0.000065
C39	C	0.819926	0.329519	0.000055
C40	C	0.756105	0.362143	0.000049
C41	C	1.030301	0.565904	0.000064
C42	C	1.094118	0.533287	0.000074
C43	C	1.066539	0.432746	0.000081
C44	C	0.975144	0.364821	0.000071
C45	C	1.130361	0.400123	0.000087
C46	C	1.102782	0.299581	0.000087
C47	C	0.947565	0.264280	0.000071
N48	N	0.894315	-0.000446	0.237500
C49	C	1.008698	-0.193153	0.605069
C50	C	0.995101	-0.170188	0.710101
C51	C	0.930321	-0.060982	0.710107
C52	C	0.943917	-0.083934	0.605074
C53	C	0.983105	-0.150021	0.552563
C54	C	0.918324	-0.040802	0.552568
C55	C	0.931915	-0.063756	0.447544
C56	C	0.971098	-0.129843	0.395026
C57	C	0.996695	-0.172975	0.447539
C58	C	0.879131	0.025279	0.605081
C59	C	0.853538	0.068411	0.552575
C60	C	0.867134	0.045463	0.447549
C61	C	0.906317	-0.020624	0.395030
C62	C	0.841537	0.088595	0.395035
C63	C	0.855127	0.065641	0.290011
C64	C	0.919908	-0.043578	0.290006
H65	H	0.484730	0.062992	0.000064
H66	H	1.028612	-0.226783	0.404782
Cl67	Cl	1.183013	0.258569	0.000081
H68	H	0.586504	0.073668	0.000065
H69	H	1.040615	-0.246961	0.562312
H70	H	0.951825	-0.097386	0.247249
Cl71	Cl	0.424801	-0.288742	0.000055
Cl72	Cl	1.027303	-0.224397	0.776105
H73	H	0.110355	-0.187778	0.000071
H74	H	0.868060	0.043960	0.690598
H75	H	0.873137	0.208977	0.000074
Cl76	Cl	1.017564	0.716540	0.000050
Cl77	Cl	0.804272	0.151486	0.618598
H78	H	0.809622	0.142396	0.437805
Cl79	Cl	1.209018	0.618676	0.000074
Cl80	Cl	0.266894	-0.216357	0.000075
Cl81	Cl	0.615625	-0.276869	0.000034
Cl82	Cl	0.881056	0.022093	0.776130
H83	H	0.797474	0.247652	0.000050
H84	H	0.391149	0.143714	0.000086
H85	H	0.739874	0.083212	0.000049
H86	H	0.237769	0.134173	0.000096
H87	H	0.681677	0.306840	0.000051
Cl88	Cl	0.331227	-0.208014	0.000077
Cl89	Cl	0.604959	0.409912	0.000042
H90	H	0.834284	0.100761	0.247260
Cl91	Cl	0.667222	0.636849	0.000021
H92	H	1.052751	0.647772	0.000073
Cl93	Cl	1.245261	0.485512	0.000076
H94	H	0.982161	-0.148533	0.309508
