data_functionalizedCrystal
_audit_creation_method	'MofGen! by Chris Wilmer'
_symmetry_space_group_name_H-M	'P1'
_symmetry_Int_Tables_number	1
_symmetry_cell_setting	triclinic
loop_
_symmetry_equiv_pos_as_xyz
  x,y,z
_cell_length_a	16.109301
_cell_length_b	15.625429
_cell_length_c	15.186229
_cell_angle_alpha	71.919106
_cell_angle_beta	89.999362
_cell_angle_gamma	83.867021
loop_
_atom_site_label
_atom_site_type_symbol
_atom_site_fract_x
_atom_site_fract_y
_atom_site_fract_z
O1	O	1.103292	0.115879	-0.110170
O2	O	0.861250	0.130300	-0.114788
O3	O	0.988738	-0.008149	-0.070572
O4	O	0.975804	0.254328	-0.154386
O5	O	0.988729	-0.008151	0.075886
O6	O	0.861241	0.130298	0.031670
O7	O	1.103283	0.115877	0.036288
Zn8	Zn	0.982261	0.123087	0.057232
Zn9	Zn	0.982272	0.123090	-0.135732
O10	O	0.975795	0.254326	-0.007928
C11	C	0.830270	0.129715	-0.041374
C12	C	0.737972	0.127963	-0.040820
C13	C	0.988148	-0.041737	0.013380
C14	C	0.986394	-0.141816	0.045331
C15	C	0.515808	0.206044	-0.065743
C16	C	0.429086	0.204391	-0.065209
C17	C	0.448732	0.040126	-0.012760
C18	C	0.535453	0.041780	-0.013287
C19	C	0.568988	0.124741	-0.039784
C20	C	0.395545	0.121435	-0.038723
C21	C	0.301516	0.119643	-0.038145
C22	C	0.663023	0.126534	-0.040361
C23	C	0.980624	-0.470960	-0.248724
C24	C	0.978972	-0.564999	-0.218674
C25	C	0.978963	-0.564987	-0.059016
C26	C	0.980619	-0.470947	-0.089052
C27	C	0.981449	-0.423941	-0.183908
C28	C	0.981444	-0.423928	-0.024236
C29	C	0.983095	-0.329895	-0.054271
C30	C	0.983923	-0.282881	-0.149122
C31	C	0.983100	-0.329908	-0.213942
C32	C	0.980608	-0.470935	0.070619
C33	C	0.981433	-0.423916	0.135435
C34	C	0.983090	-0.329882	0.105401
C35	C	0.983918	-0.282869	0.010550
C36	C	0.983913	-0.282856	0.170221
C37	C	0.985564	-0.188823	0.140186
C38	C	0.985569	-0.188836	-0.019485
C39	C	1.134263	0.116462	-0.037127
C40	C	1.226561	0.118213	-0.037687
C41	C	0.976385	0.287914	-0.091882
C42	C	0.978139	0.387993	-0.123839
N43	N	0.982259	0.123085	0.188926
N44	N	0.982280	0.123085	-0.267423
C45	C	1.038730	0.061800	0.434221
C46	C	1.038733	0.061798	0.526411
C47	C	0.925803	0.184372	0.487274
C48	C	0.925797	0.184369	0.395087
C49	C	0.982266	0.123084	0.368563
C50	C	0.982274	0.123085	0.552940
C51	C	0.982277	0.123083	0.652897
C52	C	0.982262	0.123085	0.268600
H53	H	0.385789	0.270596	-0.086346
C54	C	0.593060	-0.046595	0.014883
C55	C	0.545132	-0.119603	0.038170
C56	C	0.598170	-0.201022	0.064115
H57	H	0.627315	-0.049493	0.066868
H58	H	0.627287	-0.049409	-0.035311
H59	H	0.510919	-0.116790	0.088359
H60	H	0.510878	-0.116735	-0.013802
H61	H	0.632397	-0.203836	0.013921
H62	H	0.632423	-0.203910	0.116098
H63	H	0.565659	-0.250567	0.079910
C64	C	0.412158	-0.049851	0.015924
C65	C	0.324828	-0.033900	0.010805
C66	C	0.291111	-0.116766	0.037207
H67	H	0.430312	-0.083399	0.077694
H68	H	0.430361	-0.083330	-0.024480
H69	H	0.306632	-0.000434	0.051208
H70	H	0.306651	-0.000365	-0.050957
H71	H	0.309314	-0.150246	-0.003196
H72	H	0.309271	-0.150308	0.098977
H73	H	0.231855	-0.105955	0.033730
C74	C	1.099934	-0.004908	0.405546
C75	C	1.086314	-0.093487	0.456274
C76	C	1.142671	-0.154976	0.429892
H77	H	1.155468	0.004769	0.417529
H78	H	1.091857	0.003783	0.341252
H79	H	1.094398	-0.102175	0.520552
H80	H	1.030791	-0.103193	0.444297
H81	H	1.134594	-0.146285	0.365599
H82	H	1.198201	-0.145291	0.441876
H83	H	1.133432	-0.215083	0.464300
C84	C	0.864463	0.250768	0.516235
C85	C	0.813537	0.202731	0.584526
C86	C	0.757029	0.263867	0.611234
H87	H	0.830751	0.287293	0.464021
H88	H	0.894395	0.288293	0.540261
H89	H	0.783608	0.165221	0.560499
H90	H	0.847227	0.166209	0.636756
H91	H	0.786961	0.301392	0.635259
H92	H	0.723322	0.300388	0.559015
H93	H	0.722474	0.231282	0.657578
C94	C	0.981371	-0.419920	-0.351725
C95	C	0.909499	-0.432585	-0.395866
C96	C	0.910158	-0.385561	-0.490740
H97	H	1.029496	-0.442168	-0.377521
H98	H	0.982430	-0.357173	-0.360344
H99	H	0.908447	-0.495318	-0.387254
H100	H	0.861362	-0.410333	-0.370099
H101	H	0.911218	-0.322815	-0.499360
H102	H	0.958287	-0.407814	-0.516527
H103	H	0.861391	-0.394141	-0.520701
C104	C	0.977893	-0.616093	-0.289000
C105	C	0.905457	-0.659886	-0.279655
C106	C	0.904421	-0.706961	-0.344420
H107	H	1.025631	-0.659738	-0.278460
H108	H	0.978573	-0.574666	-0.349819
H109	H	0.904785	-0.701309	-0.218849
H110	H	0.857707	-0.616262	-0.290203
H111	H	0.905101	-0.665534	-0.405240
H112	H	0.952162	-0.750601	-0.333875
H113	H	0.855271	-0.736673	-0.338094
C114	C	1.099907	-0.004842	0.597777
C115	C	1.055564	-0.060062	0.668321
C116	C	1.111891	-0.121473	0.734072
H117	H	1.134574	0.027493	0.623484
H118	H	1.133522	-0.041391	0.568817
H119	H	1.021964	-0.023517	0.697277
H120	H	1.020901	-0.092417	0.642642
H121	H	1.145506	-0.158022	0.705113
H122	H	1.146555	-0.089130	0.759772
H123	H	1.081813	-0.158952	0.781939
C124	C	0.552059	0.296205	-0.094485
C125	C	0.486920	0.367051	-0.117079
C126	C	0.520279	0.450122	-0.143547
H127	H	0.585468	0.300399	-0.146883
H128	H	0.585456	0.300309	-0.044702
H129	H	0.453537	0.362949	-0.166858
H130	H	0.453505	0.362887	-0.064695
H131	H	0.553676	0.454226	-0.093763
H132	H	0.553688	0.454307	-0.195942
H133	H	0.476088	0.498201	-0.158872
H134	H	0.985258	-0.206313	-0.173575
H135	H	0.879813	0.234274	0.341623
H136	H	0.986252	-0.150561	-0.096725
H137	H	0.980754	-0.462201	0.212667
H138	H	0.978284	-0.603273	0.018216
C139	C	0.983847	-0.278867	-0.316944
C140	C	0.911975	-0.291532	-0.361085
C141	C	0.912634	-0.244509	-0.455959
H142	H	1.031973	-0.301115	-0.342739
H143	H	0.984907	-0.216121	-0.325563
H144	H	0.910923	-0.354266	-0.352472
H145	H	0.863838	-0.269280	-0.335317
H146	H	0.913694	-0.181763	-0.464578
H147	H	0.960763	-0.266761	-0.481745
H148	H	0.863867	-0.253089	-0.485919
H149	H	0.979254	-0.547501	0.095070
C150	C	0.982877	-0.333995	0.273168
C151	C	0.910463	-0.377825	0.291819
C152	C	0.909486	-0.424952	0.386642
H153	H	0.983561	-0.292622	0.307577
H154	H	1.030648	-0.377620	0.290428
H155	H	0.862704	-0.334205	0.274570
H156	H	0.909764	-0.419213	0.257434
H157	H	0.957258	-0.468577	0.403902
H158	H	0.910173	-0.383573	0.421042
H159	H	0.860359	-0.454704	0.399308
C160	C	0.986480	-0.137932	0.210700
C161	C	0.985414	-0.199225	0.300199
C162	C	0.986253	-0.152377	0.365180
H163	H	0.938685	-0.094365	0.200211
H164	H	1.035581	-0.108151	0.204568
H165	H	0.936318	-0.228991	0.306328
H166	H	1.033205	-0.242793	0.310717
H167	H	1.035354	-0.122596	0.359048
H168	H	0.938458	-0.108812	0.354683
H169	H	0.985538	-0.193958	0.425912
