data_functionalizedCrystal
_audit_creation_method	'MofGen! by Chris Wilmer'
_symmetry_space_group_name_H-M	'P1'
_symmetry_Int_Tables_number	1
_symmetry_cell_setting	triclinic
loop_
_symmetry_equiv_pos_as_xyz
  x,y,z
_cell_length_a	6.394989
_cell_length_b	10.654556
_cell_length_c	9.130313
_cell_angle_alpha	89.998135
_cell_angle_beta	90.001550
_cell_angle_gamma	94.507376
loop_
_atom_site_label
_atom_site_type_symbol
_atom_site_fract_x
_atom_site_fract_y
_atom_site_fract_z
O1	O	-0.293505	1.670943	-0.121734
O2	O	-0.321448	1.305762	-0.121748
O3	O	-0.003488	1.493536	-0.121741
O4	O	-0.611466	1.483169	-0.121740
O5	O	-0.003479	1.493523	0.121857
O6	O	-0.321439	1.305749	0.121851
O7	O	-0.293496	1.670930	0.121865
Cu8	Cu	-0.307467	1.488338	0.144101
Cu9	Cu	-0.307478	1.488354	-0.143983
O10	O	-0.611456	1.483156	0.121859
C11	C	-0.319389	1.258936	0.000050
C12	C	-0.313242	1.119428	0.000044
C13	C	-0.304593	0.922798	-0.132730
C14	C	-0.310356	1.053881	-0.132739
C15	C	-0.310345	1.053885	0.132845
C16	C	-0.304567	0.922805	0.132853
C17	C	0.074368	1.491480	0.000052
C18	C	0.310694	1.485215	0.000051
C19	C	-0.295555	1.717756	0.000065
C20	C	-0.301702	1.857264	0.000061
N21	N	-0.307458	1.488336	0.346723
N22	N	-0.307470	1.488365	-0.346606
C23	C	-0.166724	1.571512	0.423378
C24	C	-0.166725	1.571524	0.576715
C25	C	-0.448210	1.405180	0.576729
C26	C	-0.448198	1.405163	0.423395
H27	H	-0.302257	0.869438	-0.240858
H28	H	-0.312682	1.107265	0.240960
F29	F	-0.301485	0.853056	0.274195
H30	H	-0.562801	1.337465	0.639170
H31	H	-0.052122	1.639235	0.360956
F32	F	-0.016934	1.660048	0.658291
F33	F	-0.313424	1.123622	-0.274074
F34	F	-0.597984	1.316627	0.341807
