data_functionalizedCrystal
_audit_creation_method	'MofGen! by Chris Wilmer'
_symmetry_space_group_name_H-M	'P1'
_symmetry_Int_Tables_number	1
_symmetry_cell_setting	triclinic
loop_
_symmetry_equiv_pos_as_xyz
  x,y,z
_cell_length_a	10.654541
_cell_length_b	13.262508
_cell_length_c	12.376774
_cell_angle_alpha	87.018943
_cell_angle_beta	102.560436
_cell_angle_gamma	84.458382
loop_
_atom_site_label
_atom_site_type_symbol
_atom_site_fract_x
_atom_site_fract_y
_atom_site_fract_z
O1	O	1.677609	0.156261	0.045922
O2	O	1.311123	0.169525	0.041853
O3	O	1.513733	0.018715	0.088211
O4	O	1.474999	0.307071	-0.000436
O5	O	1.473003	-0.015499	-0.089274
O6	O	1.270394	0.135311	-0.135632
O7	O	1.636879	0.122047	-0.131563
Zn8	Zn	1.447170	0.123247	-0.161777
Zn9	Zn	1.500833	0.168325	0.072067
O10	O	1.434269	0.272857	-0.177921
C11	C	1.244035	0.151445	-0.046589
C12	C	1.104813	0.148534	-0.045690
C13	C	1.494942	-0.035314	0.010821
C14	C	1.499618	-0.145331	0.044650
C15	C	1.063132	0.328869	-0.101115
C16	C	0.976888	0.417666	-0.128401
C17	C	0.846079	0.414924	-0.127557
C18	C	0.801512	0.323375	-0.099427
C19	C	0.887756	0.234579	-0.072141
C20	C	1.018567	0.237331	-0.072985
C21	C	0.929435	0.054244	-0.016724
C22	C	1.060247	0.056985	-0.017560
C23	C	0.884869	-0.037305	0.011406
C24	C	0.971115	-0.126103	0.038700
C25	C	1.101931	-0.123357	0.037856
C26	C	1.146491	-0.031812	0.009726
C27	C	1.423983	-0.530066	-0.246993
C28	C	1.419579	-0.426699	-0.278778
C29	C	1.439589	-0.356352	-0.197924
C30	C	1.464002	-0.389382	-0.085279
C31	C	1.468396	-0.492758	-0.053491
C32	C	1.484002	-0.319044	-0.004422
C33	C	1.508416	-0.352074	0.108223
C34	C	1.512809	-0.455441	0.140006
C35	C	1.492800	-0.525788	0.059152
C36	C	1.479609	-0.215668	-0.036210
C37	C	1.524022	-0.178361	0.157292
C38	C	1.528425	-0.281728	0.189078
C39	C	1.703968	0.140128	-0.043119
C40	C	1.843191	0.143040	-0.044010
C41	C	1.453061	0.326887	-0.100529
C42	C	1.448386	0.436905	-0.134351
N43	N	1.410555	0.092482	-0.321369
C44	C	1.325524	0.021052	-0.358576
C45	C	1.299880	-0.000481	-0.470291
C46	C	1.359272	0.049408	-0.544808
C47	C	1.444313	0.120834	-0.507600
C48	C	1.469952	0.142375	-0.395876
C49	C	1.503700	0.170730	-0.582108
C50	C	1.588740	0.242156	-0.544900
C51	C	1.614376	0.263693	-0.433187
C52	C	1.554983	0.213804	-0.358669
C53	C	1.478061	0.149190	-0.693831
C54	C	1.622489	0.270512	-0.731131
C55	C	1.648133	0.292045	-0.619417
N56	N	1.537458	0.199083	0.231662
H57	H	1.169647	0.331116	-0.101781
Cl58	Cl	1.371159	0.059400	-0.740593
Cl59	Cl	1.192973	-0.090265	-0.517060
Cl60	Cl	1.697156	0.333236	-0.824803
Cl61	Cl	0.720420	-0.040754	0.012461
H62	H	1.338388	0.031871	-0.635769
H63	H	1.277169	-0.019554	-0.297898
Cl64	Cl	1.032922	0.532750	-0.163762
H65	H	1.459720	-0.188785	-0.127926
Cl66	Cl	1.587230	0.240863	-0.218218
H67	H	1.717374	0.350202	-0.589106
Cl68	Cl	0.737652	0.526553	-0.161870
Cl69	Cl	1.434050	-0.226403	-0.237885
H70	H	1.540306	-0.121083	0.223131
Cl71	Cl	1.721240	0.353518	-0.386424
H72	H	0.934817	-0.200635	0.061602
Cl73	Cl	0.637060	0.319928	-0.098385
H74	H	1.172145	-0.195667	0.060072
H75	H	1.399715	-0.399815	-0.370493
Cl76	Cl	1.310937	-0.028351	0.008669
H77	H	1.496390	-0.609960	0.085026
Cl78	Cl	1.398806	-0.618500	-0.348625
Cl79	Cl	1.559118	-0.323264	0.330684
Cl80	Cl	1.543482	-0.496960	0.281616
