data_functionalizedCrystal
_audit_creation_method	'MofGen! by Chris Wilmer'
_symmetry_space_group_name_H-M	'P1'
_symmetry_Int_Tables_number	1
_symmetry_cell_setting	triclinic
loop_
_symmetry_equiv_pos_as_xyz
  x,y,z
_cell_length_a	10.685980
_cell_length_b	10.685194
_cell_length_c	10.686551
_cell_angle_alpha	81.584560
_cell_angle_beta	81.591741
_cell_angle_gamma	98.380820
loop_
_atom_site_label
_atom_site_type_symbol
_atom_site_fract_x
_atom_site_fract_y
_atom_site_fract_z
Zn1	Zn	1.972034	-0.286508	-0.842905
Zn2	Zn	2.472034	0.213492	-0.342905
Zn3	Zn	1.936412	-0.518076	-0.611406
Zn4	Zn	2.436412	-0.018076	-0.111406
Zn5	Zn	1.740511	-0.322085	-0.611414
Zn6	Zn	2.240511	0.177915	-0.111414
Zn7	Zn	1.740546	-0.517952	-0.807327
Zn8	Zn	2.240546	-0.017952	-0.307327
O9	O	1.847376	-0.411155	-0.718263
O10	O	2.347376	0.088845	-0.218263
O11	O	2.146172	-0.302389	-0.827082
O12	O	2.646172	0.197611	-0.327082
O13	O	1.895503	-0.507019	-0.432534
O14	O	2.395503	-0.007019	0.067466
O15	O	1.786117	-0.138482	-0.657015
O16	O	2.286117	0.361518	-0.157015
O17	O	2.120001	-0.472521	-0.657001
O18	O	2.620001	0.027479	-0.157001
O19	O	1.956215	-0.112343	-0.827090
O20	O	2.456215	0.387657	-0.327090
O21	O	1.751576	-0.363024	-0.432540
O22	O	2.251576	0.136976	0.067460
O23	O	1.561652	-0.362904	-0.622516
O24	O	2.061652	0.137096	-0.122516
O25	O	1.786176	-0.472309	-0.990919
O26	O	2.286176	0.027691	-0.490919
O27	O	1.561678	-0.506807	-0.766452
O28	O	2.061678	-0.006807	-0.266452
O29	O	1.956249	-0.302268	-1.017058
O30	O	2.456249	0.197732	-0.517058
O31	O	1.895537	-0.696943	-0.622502
O32	O	2.395537	-0.196943	-0.122502
O33	O	1.751635	-0.696852	-0.766444
O34	O	2.251635	-0.196852	-0.266444
C35	C	1.515288	-0.438703	-0.690625
C36	C	2.015288	0.061297	-0.190625
C37	C	1.373219	-0.450517	-0.678829
C38	C	1.873219	0.049483	-0.178829
C39	C	1.819761	-0.743275	-0.690642
C40	C	2.319761	-0.243275	-0.190642
C41	C	1.808068	-0.885344	-0.678879
C42	C	2.308068	-0.385344	-0.178879
C43	C	2.180761	-0.383500	-0.746009
C44	C	2.680761	0.116500	-0.246009
C45	C	2.322830	-0.371715	-0.757833
C46	C	2.822830	0.128285	-0.257833
C47	C	1.875190	-0.383306	-1.051665
C48	C	2.375190	0.116694	-0.551665
C49	C	1.887043	-0.371439	-1.193742
C50	C	2.387043	0.128561	-0.693742
C51	C	1.875136	-0.077733	-0.746022
C52	C	2.375136	0.422267	-0.246022
C53	C	1.886965	0.064351	-0.757851
C54	C	2.386965	0.564351	-0.257851
C55	C	1.819751	-0.438797	-0.386171
C56	C	2.319751	0.061203	0.113829
C57	C	1.808176	-0.450284	-0.244146
C58	C	2.308176	0.049716	0.255854
H59	H	1.963460	-0.870031	-0.834470
H60	H	2.463460	-0.370031	-0.334470
H61	H	1.731558	-0.950970	-0.602266
H62	H	2.231558	-0.450970	-0.102266
H63	H	1.388376	-0.295205	-0.834495
H64	H	1.888376	0.204795	-0.334495
O65	O	1.294972	-0.541924	-0.587525
O66	O	1.794972	-0.041924	-0.087525
C67	C	1.216947	-0.624858	-0.646949
C68	C	1.716947	-0.124858	-0.146949
H69	H	1.264997	-0.621183	-0.750253
H70	H	1.764997	-0.121183	-0.250253
H71	H	1.119487	-0.593284	-0.646396
H72	H	1.619487	-0.093284	-0.146396
C73	C	1.139449	-0.767579	-0.446183
C74	C	1.639449	-0.267579	0.053817
C75	C	1.198470	-0.763074	-0.573059
C76	C	1.698470	-0.263074	-0.073059
H77	H	1.128045	-0.852836	-0.400602
H78	H	1.628045	-0.352836	0.099398
H79	H	1.192012	-0.711703	-0.406146
H80	H	1.692012	-0.211703	0.093854
H81	H	1.058239	-0.741260	-0.445740
H82	H	1.558239	-0.241260	0.054260
H83	H	1.279685	-0.789376	-0.573501
H84	H	1.779685	-0.289376	-0.073501
H85	H	1.145920	-0.818958	-0.613095
H86	H	1.645920	-0.318958	-0.113095
H87	H	1.731591	-0.526869	-1.178606
H88	H	2.231591	-0.026869	-0.678606
H89	H	1.963641	-0.294857	-1.259288
H90	H	2.463641	0.205143	-0.759288
