data_functionalizedCrystal
_audit_creation_method	'MofGen! by Chris Wilmer'
_symmetry_space_group_name_H-M	'P1'
_symmetry_Int_Tables_number	1
_symmetry_cell_setting	triclinic
loop_
_symmetry_equiv_pos_as_xyz
  x,y,z
_cell_length_a	27.731993
_cell_length_b	26.210047
_cell_length_c	16.992695
_cell_angle_alpha	89.995910
_cell_angle_beta	93.355692
_cell_angle_gamma	90.004884
loop_
_atom_site_label
_atom_site_type_symbol
_atom_site_fract_x
_atom_site_fract_y
_atom_site_fract_z
O1	O	0.644976	0.042292	-0.093047
O2	O	0.978309	0.375625	0.240286
O3	O	1.311643	0.708958	0.573620
O4	O	0.504794	0.042323	-0.107271
O5	O	0.838127	0.375656	0.226063
O6	O	1.171460	0.708989	0.559396
O7	O	0.574323	0.042303	0.013977
O8	O	0.907656	0.375637	0.347310
O9	O	1.240990	0.708970	0.680644
O10	O	0.575447	0.042311	-0.214294
O11	O	0.908780	0.375644	0.119039
O12	O	1.242113	0.708978	0.452372
O13	O	0.574299	-0.042555	0.013977
O14	O	0.907633	0.290779	0.347310
O15	O	1.240966	0.624112	0.680643
O16	O	0.504770	-0.042535	-0.107271
O17	O	0.838104	0.290798	0.226063
O18	O	1.171437	0.624131	0.559396
O19	O	0.644953	-0.042566	-0.093047
O20	O	0.978286	0.290767	0.240286
O21	O	1.311619	0.624100	0.573620
Cu22	Cu	0.574859	-0.050299	-0.100159
Cu23	Cu	0.908193	0.283034	0.233174
Cu24	Cu	1.241526	0.616368	0.566508
Cu25	Cu	0.574887	0.050055	-0.100159
Cu26	Cu	0.908220	0.383389	0.233175
Cu27	Cu	1.241554	0.716722	0.566508
O28	O	0.575423	-0.042547	-0.214295
O29	O	0.908757	0.290786	0.119039
O30	O	1.242090	0.624120	0.452372
C31	C	0.486762	-0.000102	-0.106979
C32	C	0.820095	0.333231	0.226355
C33	C	1.153429	0.666564	0.559688
C34	C	0.433068	-0.000091	-0.106100
C35	C	0.766401	0.333243	0.227234
C36	C	1.099734	0.666576	0.560567
N37	N	0.574843	-0.120883	-0.100158
N38	N	0.908177	0.212450	0.233175
N39	N	1.241510	0.545784	0.566508
C40	C	0.049645	0.046141	-0.099727
C41	C	0.382978	0.379474	0.233607
C42	C	0.716311	0.712807	0.566940
C43	C	0.251447	0.046155	-0.103078
C44	C	0.584780	0.379488	0.230255
C45	C	0.918114	0.712821	0.563589
O46	O	0.277548	0.085495	-0.103480
O47	O	0.610882	0.418828	0.229853
O48	O	0.944215	0.752161	0.563187
N49	N	0.276673	-0.000101	-0.103497
N50	N	0.610006	0.333233	0.229836
N51	N	0.943339	0.666566	0.563169
C52	C	0.251445	-0.046362	-0.103074
C53	C	0.584778	0.286971	0.230260
C54	C	0.918112	0.620304	0.563593
O55	O	0.277532	-0.085705	-0.103499
O56	O	0.610865	0.247629	0.229834
O57	O	0.944198	0.580962	0.563167
C58	C	0.049644	-0.046376	-0.099717
C59	C	0.382977	0.286958	0.233616
C60	C	0.716310	0.620291	0.566950
C61	C	0.024420	-0.000118	-0.099306
C62	C	0.357754	0.333216	0.234028
C63	C	0.691087	0.666549	0.567361
C64	C	0.024421	0.092395	-0.099315
C65	C	0.357755	0.425728	0.234019
C66	C	0.691088	0.759062	0.567352
C67	C	-0.026026	0.092391	-0.098481
C68	C	0.307307	0.425724	0.234852
C69	C	0.640640	0.759058	0.568185
C70	C	-0.051251	0.046133	-0.098060
C71	C	0.282083	0.379466	0.235273
C72	C	0.615416	0.712799	0.568607
C73	C	-0.026027	-0.000122	-0.098472
C74	C	0.307306	0.333212	0.234861
C75	C	0.640639	0.666545	0.568195
C76	C	0.024417	-0.092637	-0.099288
C77	C	0.357750	0.240696	0.234046
C78	C	0.691084	0.574030	0.567379
C79	C	-0.026036	-0.092636	-0.098446
C80	C	0.307297	0.240697	0.234887
C81	C	0.640630	0.574030	0.568220
C82	C	-0.051260	-0.046378	-0.098035
C83	C	0.282074	0.286955	0.235298
C84	C	0.615407	0.620288	0.568632
C85	C	-0.101699	-0.046384	-0.097217
C86	C	0.231634	0.286949	0.236116
C87	C	0.564967	0.620283	0.569449
N88	N	-0.126925	-0.000129	-0.096798
N89	N	0.206408	0.333205	0.236535
N90	N	0.539742	0.666538	0.569869
C91	C	-0.101701	0.046129	-0.097219
C92	C	0.231633	0.379463	0.236114
C93	C	0.564966	0.712796	0.569447
C94	C	0.357393	-0.046352	-0.104838
C95	C	0.690727	0.286981	0.228496
C96	C	1.024060	0.620315	0.561829
C97	C	0.407843	-0.046349	-0.105678
C98	C	0.741177	0.286984	0.227655
C99	C	1.074510	0.620318	0.560988
C100	C	0.407842	0.046168	-0.105681
C101	C	0.741175	0.379502	0.227652
C102	C	1.074509	0.712835	0.560985
C103	C	0.357391	0.046165	-0.104846
C104	C	0.690724	0.379498	0.228487
C105	C	1.024058	0.712831	0.561820
C106	C	0.332168	-0.000097	-0.104418
C107	C	0.665501	0.333236	0.228915
C108	C	0.998834	0.666570	0.562248
C109	C	-0.207645	0.046118	-0.095470
C110	C	0.125689	0.379451	0.237864
C111	C	0.459022	0.712784	0.571197
C112	C	-0.258097	0.046110	-0.094639
C113	C	0.075236	0.379443	0.238694
C114	C	0.408570	0.712776	0.572027
C115	C	-0.258091	-0.046407	-0.094632
C116	C	0.075242	0.286926	0.238701
C117	C	0.408576	0.620259	0.572034
C118	C	-0.207643	-0.046399	-0.095467
C119	C	0.125690	0.286934	0.237867
C120	C	0.459023	0.620267	0.571200
C121	C	-0.182421	-0.000133	-0.095883
C122	C	0.150912	0.333200	0.237451
C123	C	0.484245	0.666534	0.570784
O124	O	-0.127832	-0.085703	-0.096806
O125	O	0.205502	0.247630	0.236527
O126	O	0.538835	0.580963	0.569861
O127	O	-0.127796	0.085466	-0.096776
O128	O	0.205538	0.418799	0.236557
O129	O	0.538871	0.752133	0.569890
C130	C	0.100092	0.046145	-0.100560
C131	C	0.433426	0.379478	0.232773
C132	C	0.766759	0.712811	0.566106
C133	C	0.125316	-0.000110	-0.100972
C134	C	0.458649	0.333224	0.232361
C135	C	0.791982	0.666557	0.565694
C136	C	0.100091	-0.046368	-0.100551
C137	C	0.433425	0.286965	0.232782
C138	C	0.766758	0.620299	0.566115
C139	C	0.175766	-0.000107	-0.101813
C140	C	0.509099	0.333227	0.231520
C141	C	0.842432	0.666560	0.564854
C142	C	0.200990	0.046152	-0.102234
C143	C	0.534323	0.379485	0.231099
C144	C	0.867657	0.712818	0.564432
C145	C	0.175765	0.092407	-0.101815
C146	C	0.509098	0.425740	0.231518
C147	C	0.842431	0.759073	0.564852
C148	C	0.125317	0.092403	-0.100982
C149	C	0.458650	0.425736	0.232352
C150	C	0.791983	0.759069	0.565685
C151	C	0.125317	-0.092623	-0.100971
C152	C	0.458650	0.240710	0.232363
C153	C	0.791984	0.574044	0.565696
C154	C	0.175765	-0.092615	-0.101805
C155	C	0.509098	0.240718	0.231528
C156	C	0.842432	0.574051	0.564862
C157	C	0.200989	-0.046357	-0.102226
C158	C	0.534323	0.286976	0.231107
C159	C	0.867656	0.620310	0.564440
C160	C	0.606020	-0.473402	-0.147347
C161	C	0.939353	-0.140069	0.185986
C162	C	1.272687	0.193264	0.519320
C163	C	0.606034	-0.687061	-0.147346
C164	C	0.939368	-0.353728	0.185987
C165	C	1.272701	-0.020394	0.519321
O166	O	0.632530	-0.714687	-0.187459
O167	O	0.965864	-0.381354	0.145874
O168	O	1.299197	-0.048021	0.479208
N169	N	0.574898	-0.713777	-0.100151
N170	N	0.908231	-0.380444	0.233183
N171	N	1.241565	-0.047110	0.566516
C172	C	0.543758	-0.687075	-0.052948
C173	C	0.877092	-0.353742	0.280385
C174	C	1.210425	-0.020408	0.613718
O175	O	0.517279	-0.714701	-0.012800
O176	O	0.850612	-0.381368	0.320534
O177	O	1.183946	-0.048035	0.653867
C178	C	0.543747	-0.473417	-0.052945
C179	C	0.877080	-0.140084	0.280388
C180	C	1.210414	0.193249	0.613721
C181	C	0.574882	-0.446704	-0.100150
C182	C	0.908215	-0.113371	0.233183
C183	C	1.241548	0.219962	0.566517
C184	C	0.637153	-0.446689	-0.194547
C185	C	0.970486	-0.113356	0.138786
C186	C	1.303819	0.219978	0.472120
C187	C	0.637147	-0.393277	-0.194550
C188	C	0.970480	-0.059944	0.138784
C189	C	1.303813	0.273389	0.472117
C190	C	0.606008	-0.366579	-0.147353
C191	C	0.939342	-0.033246	0.185981
C192	C	1.272675	0.300087	0.519314
C193	C	0.574876	-0.393293	-0.100153
C194	C	0.908209	-0.059959	0.233181
C195	C	1.241543	0.273374	0.566514
C196	C	0.512610	-0.446717	-0.005739
C197	C	0.845943	-0.113383	0.327594
C198	C	1.179277	0.219950	0.660928
C199	C	0.512611	-0.393299	-0.005741
C200	C	0.845944	-0.059965	0.327592
C201	C	1.179277	0.273368	0.660926
C202	C	0.543746	-0.366586	-0.052946
C203	C	0.877079	-0.033252	0.280388
C204	C	1.210412	0.300081	0.613721
C205	C	0.543732	-0.313183	-0.052959
C206	C	0.877065	0.020150	0.280375
C207	C	1.210399	0.353483	0.613708
N208	N	0.574868	-0.286467	-0.100154
N209	N	0.908201	0.046866	0.233179
N210	N	1.241535	0.380200	0.566513
C211	C	0.606006	-0.313165	-0.147351
C212	C	0.939340	0.020168	0.185982
C213	C	1.272673	0.353501	0.519316
C214	C	0.543766	-0.799248	-0.052954
C215	C	0.877099	-0.465915	0.280379
C216	C	1.210433	-0.132582	0.613712
C217	C	0.543768	-0.852663	-0.052956
C218	C	0.877102	-0.519329	0.280377
C219	C	1.210435	-0.185996	0.613711
C220	C	0.606045	-0.852645	-0.147353
C221	C	0.939378	-0.519311	0.185980
C222	C	1.272711	-0.185978	0.519314
C223	C	0.606040	-0.799230	-0.147355
C224	C	0.939373	-0.465896	0.185978
C225	C	1.272706	-0.132563	0.519312
C226	C	0.574902	-0.772532	-0.100150
C227	C	0.908235	-0.439199	0.233184
C228	C	1.241569	-0.105866	0.566517
C229	C	0.605992	-0.200997	-0.147354
C230	C	0.939325	0.132336	0.185979
C231	C	1.272658	0.465669	0.519312
C232	C	0.605982	-0.147581	-0.147355
C233	C	0.939315	0.185752	0.185978
C234	C	1.272648	0.519086	0.519311
C235	C	0.543707	-0.147604	-0.052956
C236	C	0.877040	0.185730	0.280378
C237	C	1.210374	0.519063	0.613711
C238	C	0.543715	-0.201015	-0.052957
C239	C	0.877048	0.132318	0.280376
C240	C	1.210382	0.465651	0.613709
C241	C	0.574861	-0.227711	-0.100159
C242	C	0.908195	0.105623	0.233175
C243	C	1.241528	0.438956	0.566508
O244	O	0.517254	-0.285524	-0.012860
O245	O	0.850587	0.047809	0.320473
O246	O	1.183920	0.381143	0.653806
O247	O	0.632489	-0.285530	-0.187481
O248	O	0.965823	0.047804	0.145853
O249	O	1.299156	0.381137	0.479186
C250	C	0.606026	-0.526814	-0.147344
C251	C	0.939359	-0.193480	0.185989
C252	C	1.272692	0.139853	0.519323
C253	C	0.574893	-0.553527	-0.100144
C254	C	0.908226	-0.220194	0.233189
C255	C	1.241560	0.113140	0.566523
C256	C	0.543755	-0.526829	-0.052947
C257	C	0.877088	-0.193496	0.280386
C258	C	1.210422	0.139838	0.613720
C259	C	0.574895	-0.606941	-0.100146
C260	C	0.908229	-0.273608	0.233188
C261	C	1.241562	0.059725	0.566521
C262	C	0.606034	-0.633639	-0.147343
C263	C	0.939367	-0.300306	0.185991
C264	C	1.272700	0.033027	0.519324
C265	C	0.637170	-0.606923	-0.194538
C266	C	0.970503	-0.273590	0.138795
C267	C	1.303836	0.059743	0.472129
C268	C	0.637164	-0.553512	-0.194541
C269	C	0.970497	-0.220178	0.138792
C270	C	1.303831	0.113155	0.472126
C271	C	0.512619	-0.553545	-0.005752
C272	C	0.845952	-0.220212	0.327582
C273	C	1.179285	0.113122	0.660915
C274	C	0.512627	-0.606957	-0.005753
C275	C	0.845960	-0.273623	0.327580
C276	C	1.179293	0.059710	0.660914
C277	C	0.543765	-0.633655	-0.052950
C278	C	0.877098	-0.300321	0.280383
C279	C	1.210432	0.033012	0.613717
C280	C	0.662984	-0.000140	-0.093339
C281	C	0.996318	0.333193	0.239994
C282	C	1.329651	0.666526	0.573328
C283	C	0.716679	-0.000149	-0.094218
C284	C	1.050012	0.333185	0.239115
C285	C	1.383345	0.666518	0.572449
C286	C	0.572865	-0.000125	0.043171
C287	C	0.906199	0.333208	0.376505
C288	C	1.239532	0.666541	0.709838
C289	C	0.568551	-0.000124	0.130162
C290	C	0.901885	0.333209	0.463495
C291	C	1.235218	0.666542	0.796829
N292	N	0.574906	0.120639	-0.100153
N293	N	0.908240	0.453973	0.233180
N294	N	1.241573	0.787306	0.566514
C295	C	0.576881	-0.000117	-0.243489
C296	C	0.910214	0.333216	0.089844
C297	C	1.243548	0.666549	0.423178
C298	C	0.581195	-0.000115	-0.330480
C299	C	0.914528	0.333218	0.002854
C300	C	1.247862	0.666552	0.336187
C301	C	0.610175	-0.000134	0.180920
C302	C	0.943509	0.333199	0.514253
C303	C	1.276842	0.666533	0.847587
C304	C	0.606119	-0.000128	0.262656
C305	C	0.939452	0.333205	0.595989
C306	C	1.272786	0.666538	0.929323
C307	C	0.560438	-0.000116	0.293633
C308	C	0.893772	0.333217	0.626966
C309	C	1.227105	0.666550	0.960299
C310	C	0.518811	-0.000105	0.242868
C311	C	0.852145	0.333228	0.576201
C312	C	1.185478	0.666561	0.909535
C313	C	0.522868	-0.000107	0.161134
C314	C	0.856202	0.333226	0.494467
C315	C	1.189535	0.666559	0.827800
C316	C	0.543625	-0.000106	0.537021
C317	C	0.876958	0.333228	0.870355
C318	C	1.210291	0.666561	1.203688
C319	C	0.539571	-0.000105	0.618762
C320	C	0.872904	0.333228	0.952096
C321	C	1.206238	0.666561	1.285429
C322	C	0.626879	-0.000127	0.638545
C323	C	0.960212	0.333206	0.971878
C324	C	1.293546	0.666539	1.305211
C325	C	0.630932	-0.000133	0.556808
C326	C	0.964265	0.333201	0.890141
C327	C	1.297598	0.666534	1.223474
C328	C	0.589305	-0.000119	0.506050
C329	C	0.922638	0.333215	0.839384
C330	C	1.255971	0.666548	1.172717
N331	N	0.556291	-0.000112	0.377180
N332	N	0.889624	0.333221	0.710513
N333	N	1.222958	0.666554	1.043847
N334	N	0.593453	-0.000119	0.422505
N335	N	0.926786	0.333214	0.755838
N336	N	1.260119	0.666548	1.089171
H337	H	-0.187115	0.083792	-0.095809
H338	H	0.146218	0.417126	0.237524
H339	H	0.479552	0.750459	0.570857
H340	H	0.647373	-0.000147	0.155706
H341	H	0.980706	0.333186	0.489039
H342	H	1.314040	0.666520	0.822373
H343	H	0.518354	-0.125856	-0.014531
H344	H	0.851687	0.207477	0.318802
H345	H	1.185021	0.540810	0.652135
H346	H	0.336857	0.083832	-0.104511
H347	H	0.670191	0.417165	0.228822
H348	H	1.003524	0.750499	0.562155
H349	H	0.487262	-0.531813	0.032684
H350	H	0.820596	-0.198480	0.366018
H351	H	1.153929	0.134854	0.699351
H352	H	0.104784	0.130071	-0.100647
H353	H	0.438118	0.463404	0.232687
H354	H	0.771451	0.796738	0.566020
H355	H	0.502371	-0.000104	0.643980
H356	H	0.835704	0.333230	0.977313
H357	H	1.169037	0.666563	1.310646
H358	H	0.640014	-0.000137	0.303981
H359	H	0.973347	0.333196	0.637314
H360	H	1.306680	0.666529	0.970647
H361	H	0.518410	-0.874408	-0.014527
H362	H	0.851743	-0.541075	0.318807
H363	H	1.185076	-0.207741	0.652140
H364	H	0.668130	-0.000142	0.531593
H365	H	1.001463	0.333191	0.864927
H366	H	1.334796	0.666524	1.198260
O367	O	0.510177	-0.770464	-0.002032
O368	O	0.843510	-0.437131	0.331301
O369	O	1.176844	-0.103797	0.664635
H370	H	0.531710	-0.746134	0.040368
H371	H	0.865044	-0.412801	0.373702
H372	H	1.198377	-0.079468	0.707035
H373	H	0.044945	-0.130305	-0.099620
H374	H	0.378279	0.203028	0.233713
H375	H	0.711612	0.536361	0.567047
H376	H	0.509729	-0.000094	0.495704
H377	H	0.843062	0.333239	0.829037
H378	H	1.176396	0.666572	1.162371
O379	O	0.202975	0.142302	-0.102270
O380	O	0.536308	0.475635	0.231063
O381	O	0.869641	0.808968	0.564397
H382	H	0.195537	0.164481	-0.048675
H383	H	0.528871	0.497815	0.284658
H384	H	0.862204	0.831148	0.617991
H385	H	0.660769	-0.000138	0.679880
H386	H	0.994102	0.333196	1.013213
H387	H	1.327436	0.666529	1.346546
H388	H	0.662517	-0.531767	-0.232980
H389	H	0.995850	-0.198433	0.100353
H390	H	1.329184	0.134900	0.433687
H391	H	0.336861	-0.084026	-0.104487
H392	H	0.670195	0.249307	0.228847
H393	H	1.003528	0.582641	0.562180
H394	H	-0.046571	-0.130309	-0.098105
H395	H	0.286763	0.203024	0.235229
H396	H	0.620096	0.536358	0.568562
H397	H	0.631397	-0.874391	-0.185786
H398	H	0.964730	-0.541058	0.147547
H399	H	1.298064	-0.207725	0.480881
O400	O	0.098113	-0.142518	-0.100526
O401	O	0.431446	0.190815	0.232807
O402	O	0.764780	0.524148	0.566141
H403	H	0.124134	-0.174677	-0.100965
H404	H	0.457467	0.158656	0.232368
H405	H	0.790800	0.491989	0.565702
O406	O	0.477972	-0.000102	0.106387
O407	O	0.811305	0.333232	0.439721
O408	O	1.144639	0.666565	0.773054
H409	H	0.477738	0.034487	0.068676
H410	H	0.811072	0.367820	0.402010
H411	H	1.144405	0.701153	0.735343
H412	H	-0.187106	-0.084067	-0.095817
H413	H	0.146227	0.249267	0.237516
H414	H	0.479561	0.582600	0.570849
O415	O	0.469540	-0.000098	0.276272
O416	O	0.802873	0.333236	0.609605
O417	O	1.136206	0.666569	0.942939
H418	H	0.473711	-0.000105	0.341635
H419	H	0.807044	0.333228	0.674968
H420	H	1.140377	0.666561	1.008302
O421	O	0.479051	-0.475522	0.045213
O422	O	0.812384	-0.142188	0.378546
O423	O	1.145717	0.191145	0.711880
H424	H	0.457413	-0.447975	0.078047
H425	H	0.790747	-0.114641	0.411381
H426	H	1.124080	0.218692	0.744714
O427	O	0.479035	-0.364490	0.045174
O428	O	0.812369	-0.031157	0.378508
O429	O	1.145702	0.302176	0.711841
H430	H	0.441075	-0.374736	0.027688
H431	H	0.774408	-0.041402	0.361021
H432	H	1.107741	0.291931	0.694355
O433	O	0.639620	-0.770420	-0.198269
O434	O	0.972954	-0.437086	0.135064
O435	O	1.306287	-0.103753	0.468397
H436	H	0.664136	-0.746080	-0.160403
H437	H	0.997469	-0.412747	0.172930
H438	H	1.330802	-0.079414	0.506264
H439	H	-0.046559	0.130059	-0.098143
H440	H	0.286775	0.463392	0.235191
H441	H	0.620108	0.796726	0.568524
O442	O	-0.285296	0.096008	-0.094173
O443	O	0.048038	0.429341	0.239160
O444	O	0.381371	0.762675	0.572493
H445	H	-0.277855	0.118199	-0.147761
H446	H	0.055478	0.451532	0.185572
H447	H	0.388811	0.784866	0.518905
O448	O	0.051624	0.142292	-0.099775
O449	O	0.384957	0.475625	0.233558
O450	O	0.718290	0.808958	0.566892
H451	H	0.025601	0.174449	-0.099353
H452	H	0.358934	0.507783	0.233980
H453	H	0.692267	0.841116	0.567314
H454	H	0.518357	-0.222766	-0.014530
H455	H	0.851690	0.110567	0.318804
H456	H	1.185024	0.443900	0.652137
O457	O	0.670761	-0.635723	-0.245437
O458	O	1.004095	-0.302390	0.087897
O459	O	1.337428	0.030943	0.421230
H460	H	0.665534	-0.677352	-0.237491
H461	H	0.998868	-0.344019	0.095842
H462	H	1.332201	-0.010686	0.429175
O463	O	0.670741	-0.475476	-0.245461
O464	O	1.004074	-0.142142	0.087872
O465	O	1.337408	0.191191	0.421205
H466	H	0.695266	-0.499807	-0.207599
H467	H	1.028599	-0.166473	0.125734
H468	H	1.361933	0.166860	0.459067
H469	H	0.428388	0.083834	-0.106027
H470	H	0.761721	0.417167	0.227307
H471	H	1.095055	0.750500	0.560640
H472	H	0.196297	-0.130287	-0.102146
H473	H	0.529631	0.203046	0.231187
H474	H	0.862964	0.536379	0.564520
H475	H	0.487268	-0.628702	0.032685
H476	H	0.820602	-0.295369	0.366018
H477	H	1.153935	0.037965	0.699351
O478	O	0.639562	-0.118768	-0.198273
O479	O	0.972896	0.214565	0.135060
O480	O	1.306229	0.547899	0.468394
H481	H	0.677521	-0.129009	-0.180772
H482	H	1.010854	0.204324	0.152561
H483	H	1.344187	0.537657	0.485894
O484	O	0.435046	-0.096241	-0.106148
O485	O	0.768379	0.237092	0.227185
O486	O	1.101713	0.570426	0.560519
H487	H	0.409025	-0.128405	-0.105712
H488	H	0.742359	0.204929	0.227621
H489	H	1.075692	0.538262	0.560955
H490	H	-0.278638	-0.084069	-0.094293
H491	H	0.054695	0.249264	0.239041
H492	H	0.388029	0.582597	0.572374
H493	H	0.631354	-0.222726	-0.185790
H494	H	0.964687	0.110607	0.147544
H495	H	1.298021	0.443940	0.480877
H496	H	0.662502	-0.371532	-0.232985
H497	H	0.995835	-0.038199	0.100348
H498	H	1.329168	0.295134	0.433681
