data_functionalizedCrystal
_audit_creation_method	'MofGen! by Chris Wilmer'
_symmetry_space_group_name_H-M	'P1'
_symmetry_Int_Tables_number	1
_symmetry_cell_setting	triclinic
loop_
_symmetry_equiv_pos_as_xyz
  x,y,z
_cell_length_a	16.625548
_cell_length_b	19.805405
_cell_length_c	19.805399
_cell_angle_alpha	90.029301
_cell_angle_beta	89.981391
_cell_angle_gamma	89.972522
loop_
_atom_site_label
_atom_site_type_symbol
_atom_site_fract_x
_atom_site_fract_y
_atom_site_fract_z
Zn1	Zn	1.232643	0.269460	-0.382694
Zn2	Zn	1.732643	0.769460	0.117306
Zn3	Zn	1.232541	0.382648	-0.269502
Zn4	Zn	1.732541	0.882648	0.230498
Zn5	Zn	1.097809	0.269480	-0.269521
Zn6	Zn	1.597809	0.769480	0.230479
Zn7	Zn	1.097766	0.382614	-0.382651
Zn8	Zn	1.597766	0.882614	0.117349
O9	O	1.165190	0.326051	-0.326092
O10	O	1.665190	0.826051	0.173908
O11	O	1.345462	0.284480	-0.367689
O12	O	1.845462	0.784480	0.132311
O13	O	1.214645	0.367659	-0.174788
O14	O	1.714645	0.867659	0.325212
O15	O	1.115756	0.174761	-0.284559
O16	O	1.615756	0.674761	0.215441
O17	O	1.345387	0.367639	-0.284528
O18	O	1.845387	0.867639	0.215472
O19	O	1.214817	0.174746	-0.367707
O20	O	1.714817	0.674746	0.132293
O21	O	1.115657	0.284515	-0.174802
O22	O	1.615657	0.784515	0.325198
O23	O	0.984971	0.284482	-0.284517
O24	O	1.484971	0.784482	0.215483
O25	O	1.115682	0.367581	-0.477373
O26	O	1.615682	0.867581	0.022627
O27	O	0.984939	0.367601	-0.367634
O28	O	1.484939	0.867601	0.132366
O29	O	1.214775	0.284447	-0.477405
O30	O	1.714775	0.784447	0.022595
O31	O	1.214602	0.477360	-0.284486
O32	O	1.714602	0.977360	0.215514
O33	O	1.115583	0.477335	-0.367616
O34	O	1.615583	0.977335	0.132384
C35	C	0.955699	0.326041	-0.326073
C36	C	1.455699	0.826041	0.173927
C37	C	0.866078	0.326053	-0.326081
C38	C	1.366078	0.826053	0.173919
C39	C	1.165099	0.501907	-0.326059
C40	C	1.665099	1.001907	0.173941
C41	C	1.165134	0.577139	-0.326068
C42	C	1.665134	1.077139	0.173932
C43	C	1.165235	0.326008	-0.502635
C44	C	1.665235	0.826008	-0.002635
C45	C	1.165254	0.325990	-0.577867
C46	C	1.665254	0.825990	-0.077867
C47	C	0.537902	0.326057	-0.326110
C48	C	1.037902	0.826057	0.173890
C49	C	0.629211	0.326054	-0.326100
C50	C	1.129211	0.826054	0.173900
C51	C	0.701987	0.326056	-0.326095
C52	C	1.201987	0.826056	0.173905
C53	C	0.793301	0.326052	-0.326086
C54	C	1.293301	0.826052	0.173914
C55	C	1.375499	0.326061	-0.326111
C56	C	1.875499	0.826061	0.173889
C57	C	1.465120	0.326065	-0.326120
C58	C	1.965120	0.826065	0.173880
C59	C	1.165303	0.149508	-0.326140
C60	C	1.665303	0.649508	0.173860
C61	C	1.165351	0.074276	-0.326160
C62	C	1.665351	0.574276	0.173840
C63	C	1.216743	0.612473	-0.282828
C64	C	1.716743	1.112473	0.217172
C65	C	1.216778	0.683162	-0.282843
C66	C	1.716778	1.183162	0.217157
C67	C	1.165198	0.718514	-0.326095
C68	C	1.665198	1.218514	0.173905
C69	C	1.113586	0.683174	-0.369340
C70	C	1.613586	1.183174	0.130660
C71	C	1.113557	0.612487	-0.369328
C72	C	1.613557	1.112487	0.130672
C73	C	1.113705	0.968248	-0.369390
C74	C	1.613705	1.468248	0.130610
C75	C	1.113737	1.038940	-0.369398
C76	C	1.613737	1.538940	0.130602
C77	C	1.216926	1.038922	-0.282905
C78	C	1.716926	1.538922	0.217095
C79	C	1.216896	0.968235	-0.282893
C80	C	1.716896	1.468235	0.217107
C81	C	1.165288	0.932901	-0.326140
C82	C	1.665288	1.432901	0.173860
C83	C	1.165253	0.856253	-0.326124
C84	C	1.665253	1.356253	0.173876
C85	C	1.165229	0.795161	-0.326108
C86	C	1.665229	1.295161	0.173892
C87	C	1.216853	0.282700	-0.613229
C88	C	1.716853	0.782700	-0.113229
C89	C	1.216862	0.282680	-0.683917
C90	C	1.716862	0.782680	-0.183917
C91	C	1.165274	0.325954	-0.719243
C92	C	1.665274	0.825954	-0.219243
C93	C	1.113669	0.369246	-0.683876
C94	C	1.613669	0.869246	-0.183876
C95	C	1.113658	0.369262	-0.613189
C96	C	1.613658	0.869262	-0.113189
C97	C	1.113715	0.369183	-0.968949
C98	C	1.613715	0.869183	-0.468949
C99	C	1.113732	0.369166	-1.039642
C100	C	1.613732	0.869166	-0.539642
C101	C	1.216919	0.282601	-1.039678
C102	C	1.716919	0.782601	-0.539678
C103	C	1.216907	0.282617	-0.968991
C104	C	1.716907	0.782617	-0.468991
C105	C	1.165300	0.325906	-0.933630
C106	C	1.665300	0.825906	-0.433630
C107	C	1.165290	0.325926	-0.856982
C108	C	1.665290	0.825926	-0.356982
C109	C	1.165287	0.325938	-0.795890
C110	C	1.665287	0.825938	-0.295890
C111	C	1.165191	0.326044	-0.150236
C112	C	1.665191	0.826044	0.349764
C113	C	1.165328	0.325872	-0.075005
C114	C	1.665328	0.825872	0.424995
H115	H	1.258742	0.583694	-0.247604
H116	H	1.758742	1.083694	0.252396
Cl117	Cl	1.048837	0.423605	-0.924505
Cl118	Cl	1.548837	0.923605	-0.424505
Cl119	Cl	1.281663	0.727579	-0.228483
Cl120	Cl	1.781663	1.227579	0.271517
Cl121	Cl	1.048747	0.727618	-0.423719
Cl122	Cl	1.548747	1.227618	0.076281
H123	H	1.258895	0.939453	-0.247670
H124	H	1.758895	1.439453	0.252330
H125	H	1.258951	1.067699	-0.247693
H126	H	1.758951	1.567699	0.252307
Cl127	Cl	1.048874	0.423571	-1.084050
Cl128	Cl	1.548874	0.923571	-0.584050
Cl129	Cl	1.048785	0.423684	-0.568734
Cl130	Cl	1.548785	0.923684	-0.068734
H131	H	1.258938	0.247351	-1.068477
H132	H	1.758938	0.747351	-0.568477
H133	H	1.071736	1.067722	-0.404624
H134	H	1.571736	1.567722	0.095376
Cl135	Cl	1.048825	0.923838	-0.423757
Cl136	Cl	1.548825	1.423838	0.076243
Cl137	Cl	1.048676	0.568066	-0.423692
Cl138	Cl	1.548676	1.068066	0.076308
H139	H	1.258881	0.247430	-0.712705
H140	H	1.758881	0.747430	-0.212705
H141	H	1.258865	0.247463	-0.584472
H142	H	1.758865	0.747463	-0.084472
H143	H	1.258918	0.247381	-0.940232
H144	H	1.758918	0.747381	-0.440232
Cl145	Cl	1.048813	0.423646	-0.728285
Cl146	Cl	1.548813	0.923646	-0.228285
