data_functionalizedCrystal
_audit_creation_method	'MofGen! by Chris Wilmer'
_symmetry_space_group_name_H-M	'P1'
_symmetry_Int_Tables_number	1
_symmetry_cell_setting	triclinic
loop_
_symmetry_equiv_pos_as_xyz
  x,y,z
_cell_length_a	17.699083
_cell_length_b	10.268362
_cell_length_c	17.699083
_cell_angle_alpha	89.997763
_cell_angle_beta	96.716985
_cell_angle_gamma	89.998576
loop_
_atom_site_label
_atom_site_type_symbol
_atom_site_fract_x
_atom_site_fract_y
_atom_site_fract_z
O1	O	1.004076	0.108120	-0.095707
O2	O	0.783698	0.108163	-0.108160
O3	O	0.900113	0.108129	0.008256
O4	O	0.887661	0.108154	-0.212123
O5	O	0.900102	-0.108472	0.008252
O6	O	0.783687	-0.108437	-0.108164
O7	O	1.004065	-0.108480	-0.095711
Cu8	Cu	0.893875	-0.128236	-0.101938
Cu9	Cu	0.893888	0.127919	-0.101933
O10	O	0.887650	-0.108446	-0.212127
C11	C	0.755495	-0.000132	-0.107716
C12	C	0.671477	-0.000116	-0.106377
C13	C	0.622856	-0.000108	-0.174710
C14	C	0.543913	-0.000125	-0.173448
C15	C	0.513592	-0.000140	-0.103852
C16	C	0.562219	-0.000152	-0.035513
C17	C	0.641161	-0.000144	-0.036776
C18	C	0.243856	-0.000184	-0.030418
C19	C	0.164908	-0.000188	-0.029160
C20	C	0.146608	-0.000166	-0.167090
C21	C	0.225550	-0.000158	-0.168353
C22	C	0.274170	-0.000176	-0.100015
C23	C	0.359769	-0.000160	-0.101384
C24	C	0.427995	-0.000147	-0.102481
N25	N	0.893871	-0.308402	-0.101941
C26	C	0.893877	-0.426244	-0.101941
C27	C	0.893886	-0.574082	-0.101934
C28	C	1.032268	-0.000183	-0.096156
C29	C	1.116286	-0.000190	-0.097494
C30	C	0.899662	-0.000171	0.036451
C31	C	0.898323	-0.000172	0.120469
N32	N	0.893898	0.308085	-0.101924
C33	C	0.888102	-0.000143	-0.240322
C34	C	0.889440	-0.000134	-0.324340
C35	C	0.966656	-0.000187	0.169090
C36	C	0.965394	-0.000175	0.248033
C37	C	0.895798	-0.000157	0.278354
C38	C	0.827459	-0.000138	0.229727
C39	C	0.828722	-0.000141	0.150785
C40	C	0.822364	-0.000127	0.548090
C41	C	0.821106	-0.000128	0.627038
C42	C	0.959036	-0.000161	0.645338
C43	C	0.960299	-0.000163	0.566396
C44	C	0.891961	-0.000138	0.517776
C45	C	0.893330	-0.000148	0.432177
C46	C	0.894427	-0.000156	0.363951
H47	H	0.504328	-0.000118	-0.229092
H48	H	1.014680	-0.000175	0.684934
O49	O	1.027924	0.000052	0.536980
C50	C	1.069583	0.112209	0.561851
H51	H	1.028886	0.190622	0.578196
H52	H	1.101698	0.149859	0.514086
H53	H	1.111853	0.086841	0.613380
H54	H	1.023330	-0.000209	0.144409
O55	O	0.652216	0.000082	-0.242365
C56	C	0.627365	0.112280	-0.284002
H57	H	0.572650	0.149671	-0.263472
H58	H	0.616289	0.087057	-0.347051
H59	H	0.673060	0.190836	-0.275153
O60	O	0.291187	-0.000240	0.035893
C61	C	0.367366	-0.000197	0.019863
H62	H	0.370290	-0.041206	-0.039578
H63	H	0.403215	-0.063075	0.063433
H64	H	0.390195	0.103721	0.022770
O65	O	0.532894	-0.000220	0.032160
C66	C	0.592739	-0.000191	0.092202
H67	H	0.646329	-0.041198	0.071084
H68	H	0.576333	-0.063079	0.140802
H69	H	0.603948	0.103722	0.113273
H70	H	0.764429	-0.000116	0.651721
O71	O	0.688472	0.000028	0.029553
C72	C	0.734666	0.112225	0.032961
H73	H	0.738543	0.149636	-0.027107
H74	H	0.794053	0.086994	0.061259
H75	H	0.708758	0.190770	0.067485
O76	O	1.031843	-0.000257	0.295155
C77	C	1.093541	-0.000252	0.251465
H78	H	1.074217	-0.041254	0.192511
H79	H	1.141404	-0.063154	0.280676
H80	H	1.114893	0.103654	0.245881
O81	O	0.755913	-0.000177	0.500975
C82	C	0.694218	-0.000138	0.544668
H83	H	0.713540	-0.041144	0.603625
H84	H	0.646346	-0.063021	0.515464
H85	H	0.672879	0.103778	0.550247
O86	O	0.759918	-0.000178	0.259303
C87	C	0.773455	-0.000151	0.339406
H88	H	0.832551	-0.041171	0.358054
H89	H	0.728926	-0.063028	0.363563
H90	H	0.769832	0.103763	0.361373
H91	H	0.773078	-0.000128	0.111198
H92	H	0.140225	-0.000202	0.027517
H93	H	0.250232	-0.000140	-0.225025
H94	H	0.107012	-0.000158	-0.222734
