data_functionalizedCrystal
_audit_creation_method	'MofGen! by Chris Wilmer'
_symmetry_space_group_name_H-M	'P1'
_symmetry_Int_Tables_number	1
_symmetry_cell_setting	triclinic
loop_
_symmetry_equiv_pos_as_xyz
  x,y,z
_cell_length_a	12.759401
_cell_length_b	19.805405
_cell_length_c	12.759393
_cell_angle_alpha	90.037628
_cell_angle_beta	90.018567
_cell_angle_gamma	90.025455
loop_
_atom_site_label
_atom_site_type_symbol
_atom_site_fract_x
_atom_site_fract_y
_atom_site_fract_z
Zn1	Zn	1.606170	-0.269441	0.593939
Zn2	Zn	1.606028	-0.382645	0.418241
Zn3	Zn	1.430472	-0.269474	0.418278
Zn4	Zn	1.430425	-0.382591	0.593882
O5	O	1.518274	-0.326038	0.506085
O6	O	1.753172	-0.284466	0.570640
O7	O	1.582701	-0.367670	0.271224
O8	O	1.453858	-0.174753	0.441620
O9	O	1.753068	-0.367637	0.441556
O10	O	1.582942	-0.174728	0.570677
O11	O	1.453720	-0.284523	0.271252
O12	O	1.283445	-0.284470	0.441564
O13	O	1.453777	-0.367545	0.740911
O14	O	1.283410	-0.367577	0.570579
O15	O	1.582896	-0.284414	0.740953
O16	O	1.582655	-0.477355	0.441500
O17	O	1.453640	-0.477315	0.570543
C18	C	1.245306	-0.326022	0.506070
C19	C	1.128530	-0.326031	0.506089
C20	C	1.073715	-0.282806	0.573408
C21	C	0.963991	-0.282819	0.573414
C22	C	0.963906	-0.369289	0.438781
C23	C	1.073628	-0.369272	0.438770
C24	C	1.073763	-0.232885	0.651141
C25	C	0.964039	-0.232898	0.651147
C26	C	1.518155	-0.501894	0.506034
C27	C	1.518201	-0.577126	0.506047
C28	C	1.585444	-0.612468	0.438925
C29	C	1.585489	-0.683157	0.438948
C30	C	1.518284	-0.718501	0.506089
C31	C	1.451038	-0.683154	0.573219
C32	C	1.450999	-0.612467	0.573200
C33	C	1.451193	-0.968227	0.573297
C34	C	1.451234	-1.038919	0.573308
C35	C	1.585683	-1.038917	0.439045
C36	C	1.585644	-0.968230	0.439026
C37	C	1.518402	-0.932889	0.506159
C38	C	1.518356	-0.856240	0.506135
C39	C	1.518324	-0.795148	0.506109
C40	C	1.792307	-0.326054	0.506100
C41	C	1.909084	-0.326061	0.506107
C42	C	1.518347	-0.325969	0.780118
C43	C	1.518379	-0.325940	0.896895
C44	C	1.518421	-0.149495	0.506159
C45	C	1.518484	-0.074263	0.506190
C46	C	1.518261	-0.326057	0.233118
C47	C	1.518433	-0.325895	0.116341
C48	C	1.585620	-0.282650	0.951781
C49	C	1.585645	-0.282625	1.061505
C50	C	1.451184	-0.369188	1.061448
C51	C	1.451154	-0.369208	0.951726
C52	C	1.663254	-0.232676	0.951814
C53	C	1.663279	-0.232651	1.061539
H54	H	0.930013	-0.183081	0.622156
H55	H	1.740520	-0.251468	0.917775
H56	H	1.118254	-0.404464	0.383942
O57	O	1.378750	-1.077048	0.645728
H58	H	1.396728	-1.063439	0.728199
O59	O	1.771047	-0.251256	1.100997
H60	H	1.823785	-0.260391	1.033297
O61	O	0.904684	-0.415925	0.366180
H62	H	0.925710	-0.404244	0.283756
H63	H	1.396396	-0.404457	0.907042
O64	O	0.924626	-0.251585	0.758877
H65	H	0.837635	-0.251575	0.758817
H66	H	1.634181	-0.182845	1.095595
O67	O	1.378473	-0.574342	0.645596
H68	H	1.325037	-0.542184	0.598517
H69	H	1.396450	-0.404414	1.106105
H70	H	1.103546	-0.180442	0.629495
H71	H	1.640166	-0.583695	0.384247
H72	H	1.107822	-0.251718	0.728375
H73	H	1.641502	-0.180257	0.922067
H74	H	1.640245	-0.711929	0.384290
O75	O	1.658139	-0.930107	0.366620
H76	H	1.640187	-0.943727	0.284148
O77	O	1.658242	-1.077033	0.366662
H78	H	1.647000	-1.132125	0.377966
H79	H	1.396440	-0.939458	0.627957
H80	H	1.396323	-0.711937	0.627891
