data_functionalizedCrystal
_audit_creation_method	'MofGen! by Chris Wilmer'
_symmetry_space_group_name_H-M	'P1'
_symmetry_Int_Tables_number	1
_symmetry_cell_setting	triclinic
loop_
_symmetry_equiv_pos_as_xyz
  x,y,z
_cell_length_a	13.897449
_cell_length_b	13.897448
_cell_length_c	13.897441
_cell_angle_alpha	90.028012
_cell_angle_beta	90.022859
_cell_angle_gamma	90.019402
loop_
_atom_site_label
_atom_site_type_symbol
_atom_site_fract_x
_atom_site_fract_y
_atom_site_fract_z
Zn1	Zn	-1.474690	0.383988	-0.545453
Zn2	Zn	-0.974690	0.883988	-0.045453
Zn3	Zn	-1.474579	0.545310	-0.384162
Zn4	Zn	-0.974579	1.045310	0.115838
Zn5	Zn	-1.313379	0.384030	-0.384166
Zn6	Zn	-0.813379	0.884030	0.115834
Zn7	Zn	-1.313356	0.545243	-0.545408
Zn8	Zn	-0.813356	1.045243	-0.045408
O9	O	-1.394001	0.464643	-0.464797
O10	O	-0.894001	0.964643	0.035203
O11	O	-1.609657	0.405399	-0.524075
O12	O	-1.109657	0.905399	-0.024075
O13	O	-1.453159	0.523962	-0.249181
O14	O	-0.953159	1.023962	0.250819
O15	O	-1.334834	0.249043	-0.405581
O16	O	-0.834834	0.749043	0.094419
O17	O	-1.609575	0.523921	-0.405575
O18	O	-1.109575	1.023921	0.094425
O19	O	-1.453348	0.249012	-0.524078
O20	O	-0.953348	0.749012	-0.024078
O21	O	-1.334726	0.405470	-0.249183
O22	O	-0.834726	0.905470	0.250817
O23	O	-1.178394	0.405405	-0.405538
O24	O	-0.678394	0.905405	0.094462
O25	O	-1.334794	0.523806	-0.680396
O26	O	-0.834794	1.023806	-0.180396
O27	O	-1.178377	0.523847	-0.524002
O28	O	-0.678377	1.023847	-0.024002
O29	O	-1.453325	0.405333	-0.680429
O30	O	-0.953325	0.905333	-0.180429
O31	O	-1.453136	0.680283	-0.405531
O32	O	-0.953136	1.180283	0.094469
O33	O	-1.334686	0.680233	-0.523999
O34	O	-0.834686	1.180233	-0.023999
C35	C	-1.143387	0.464624	-0.464766
C36	C	-0.643387	0.964624	0.035234
C37	C	-1.036173	0.464639	-0.464775
C38	C	-0.536173	0.964639	0.035225
C39	C	-0.839878	0.464637	-0.464794
C40	C	-0.339878	0.964637	0.035206
C41	C	-0.949110	0.464635	-0.464781
C42	C	-0.449110	0.964635	0.035219
C43	C	-1.393922	0.715257	-0.464781
C44	C	-0.893922	1.215257	0.035219
C45	C	-1.393977	0.822471	-0.464806
C46	C	-0.893977	1.322471	0.035194
C47	C	-0.645594	0.464656	-0.464820
C48	C	-0.145594	0.964656	0.035180
C49	C	-0.752808	0.464646	-0.464806
C50	C	-0.252808	0.964646	0.035194
C51	C	-1.394072	1.018766	-0.464875
C52	C	-0.894072	1.518766	0.035125
C53	C	-1.394016	0.909534	-0.464840
C54	C	-0.894016	1.409534	0.035160
C55	C	-1.394069	0.464558	-0.716390
C56	C	-0.894069	0.964558	-0.216390
C57	C	-1.394098	0.464521	-0.823604
C58	C	-0.894098	0.964521	-0.323604
C59	C	-1.394098	1.213050	-0.464846
C60	C	-0.894098	1.713050	0.035154
C61	C	-1.394118	1.105836	-0.464896
C62	C	-0.894118	1.605836	0.035104
C63	C	-1.394125	0.464456	-1.019900
C64	C	-0.894125	0.964456	-0.519900
C65	C	-1.394107	0.464495	-0.910667
C66	C	-0.894107	0.964495	-0.410667
C67	C	-1.393988	0.464658	-0.214183
C68	C	-0.893988	0.964658	0.285817
C69	C	-1.394146	0.464423	-0.106970
C70	C	-0.894146	0.964423	0.393030
