data_functionalizedCrystal
_audit_creation_method	'MofGen! by Chris Wilmer'
_symmetry_space_group_name_H-M	'P1'
_symmetry_Int_Tables_number	1
_symmetry_cell_setting	triclinic
loop_
_symmetry_equiv_pos_as_xyz
  x,y,z
_cell_length_a	18.215407
_cell_length_b	13.897447
_cell_length_c	18.215398
_cell_angle_alpha	89.977470
_cell_angle_beta	89.982555
_cell_angle_gamma	90.014043
loop_
_atom_site_label
_atom_site_type_symbol
_atom_site_fract_x
_atom_site_fract_y
_atom_site_fract_z
Zn1	Zn	1.125097	-0.384190	-0.416091
Zn2	Zn	1.125017	-0.545493	-0.293031
Zn3	Zn	1.002030	-0.384198	-0.293043
Zn4	Zn	1.002007	-0.545429	-0.416060
O5	O	1.063538	-0.464827	-0.354556
O6	O	1.228070	-0.405610	-0.399775
O7	O	1.108679	-0.524126	-0.190048
O8	O	1.018398	-0.249215	-0.309383
O9	O	1.228012	-0.524119	-0.309363
O10	O	1.108815	-0.249209	-0.399786
O11	O	1.018321	-0.405624	-0.190057
O12	O	0.899043	-0.405562	-0.309353
O13	O	1.018358	-0.524011	-0.519049
O14	O	0.899025	-0.524018	-0.399734
O15	O	1.108792	-0.405549	-0.519071
O16	O	1.108657	-0.680466	-0.309333
O17	O	1.018281	-0.680419	-0.399722
C18	C	0.872331	-0.464785	-0.354542
C19	C	0.790532	-0.464790	-0.354553
C20	C	1.063478	-0.715442	-0.354539
C21	C	1.063520	-0.822656	-0.354556
C22	C	0.525500	-0.403239	-0.401709
C23	C	0.602358	-0.403223	-0.401706
C24	C	0.602317	-0.526447	-0.307420
C25	C	0.525460	-0.526467	-0.307426
C26	C	0.487053	-0.464857	-0.354570
C27	C	0.640769	-0.464822	-0.354561
C28	C	0.724103	-0.464806	-0.354558
C29	C	0.403714	-0.464875	-0.354574
C30	C	1.063555	-0.909725	-0.354573
C31	C	1.063607	-1.018958	-0.354592
C32	C	1.255491	-0.464871	-0.354571
C33	C	1.337289	-0.464889	-0.354577
C34	C	1.063581	-0.464772	-0.546509
C35	C	1.063600	-0.464748	-0.628308
C36	C	1.063618	-0.213234	-0.354589
C37	C	1.063652	-0.106021	-0.354604
C38	C	1.110683	-0.526334	-0.893366
C39	C	1.110672	-0.526367	-0.816507
C40	C	1.016572	-0.402977	-0.816499
C41	C	1.016580	-0.402949	-0.893357
C42	C	1.063640	-0.464626	-0.931788
C43	C	1.063621	-0.464687	-0.778072
C44	C	1.063608	-0.464723	-0.694738
C45	C	1.063652	-0.464592	-1.015127
C46	C	1.063537	-0.464813	-0.163350
C47	C	1.063661	-0.464565	-0.081551
H48	H	0.494231	-0.353072	-0.440095
C49	C	1.162442	-0.594180	-0.935638
H50	H	1.190453	-0.630940	-0.901744
H51	H	1.194521	-0.557276	-0.965629
H52	H	1.134279	-0.636197	-0.965610
C53	C	0.483162	-0.594253	-0.255576
H54	H	0.431888	-0.585448	-0.262339
H55	H	0.495734	-0.580059	-0.206143
H56	H	0.495761	-0.659079	-0.266272
C57	C	0.644563	-0.594213	-0.255565
H58	H	0.610656	-0.630922	-0.227498
H59	H	0.674536	-0.557261	-0.223542
H60	H	0.674551	-0.636282	-0.283670
C61	C	0.964821	-0.335084	-0.935627
H62	H	0.971558	-0.343914	-0.986904
H63	H	0.975594	-0.270273	-0.923048
H64	H	0.915370	-0.349219	-0.923015
C65	C	1.162418	-0.594244	-0.774242
H66	H	1.155669	-0.585437	-0.722964
H67	H	1.211870	-0.580130	-0.786847
H68	H	1.151626	-0.659050	-0.786834
C69	C	0.964807	-0.335140	-0.774226
H70	H	0.936783	-0.298395	-0.808119
H71	H	0.992959	-0.293123	-0.744249
H72	H	0.932728	-0.372061	-0.744239
C73	C	0.644647	-0.335439	-0.453556
H74	H	0.610763	-0.298748	-0.481628
H75	H	0.674639	-0.372379	-0.485575
H76	H	0.674619	-0.293355	-0.425449
