data_functionalizedCrystal
_audit_creation_method	'MofGen! by Chris Wilmer'
_symmetry_space_group_name_H-M	'P1'
_symmetry_Int_Tables_number	1
_symmetry_cell_setting	triclinic
loop_
_symmetry_equiv_pos_as_xyz
  x,y,z
_cell_length_a	16.959455
_cell_length_b	21.295417
_cell_length_c	16.959447
_cell_angle_alpha	90.034146
_cell_angle_beta	90.020374
_cell_angle_gamma	90.026722
loop_
_atom_site_label
_atom_site_type_symbol
_atom_site_fract_x
_atom_site_fract_y
_atom_site_fract_z
Zn1	Zn	1.208331	-0.250647	0.447015
Zn2	Zn	1.708331	0.249353	0.947015
Zn3	Zn	1.208231	-0.355924	0.314828
Zn4	Zn	1.708231	0.144076	0.814828
Zn5	Zn	1.076159	-0.250667	0.314839
Zn6	Zn	1.576159	0.249333	0.814839
Zn7	Zn	1.076102	-0.355877	0.446953
Zn8	Zn	1.576102	0.144123	0.946953
O9	O	1.142206	-0.303278	0.380909
O10	O	1.642206	0.196722	0.880909
O11	O	1.318929	-0.264623	0.429502
O12	O	1.818929	0.235377	0.929502
O13	O	1.190694	-0.341989	0.204218
O14	O	1.690694	0.158011	0.704218
O15	O	1.093758	-0.162575	0.332403
O16	O	1.593758	0.337425	0.832403
O17	O	1.318855	-0.341970	0.332385
O18	O	1.818855	0.158030	0.832385
O19	O	1.190864	-0.162560	0.429513
O20	O	1.690864	0.337440	0.929513
O21	O	1.093661	-0.264657	0.204226
O22	O	1.593661	0.235343	0.704226
O23	O	0.965541	-0.264612	0.332342
O24	O	1.465541	0.235388	0.832342
O25	O	1.093660	-0.341890	0.557572
O26	O	1.593660	0.158110	1.057572
O27	O	0.965499	-0.341909	0.429406
O28	O	1.465499	0.158091	0.929406
O29	O	1.190808	-0.264578	0.557618
O30	O	1.690808	0.235422	1.057618
O31	O	1.190638	-0.444007	0.332324
O32	O	1.690638	0.055993	0.832324
O33	O	1.093563	-0.443972	0.429395
O34	O	1.593563	0.056028	0.929395
C35	C	0.936840	-0.303258	0.380869
C36	C	1.436840	0.196742	0.880869
C37	C	0.848983	-0.303264	0.380871
C38	C	1.348983	0.196736	0.880871
C39	C	0.477459	-0.343513	0.330314
C40	C	0.977459	0.156487	0.830314
C41	C	0.477556	-0.263096	0.431600
C42	C	0.977556	0.236904	0.931600
C43	C	0.560102	-0.263086	0.431581
C44	C	1.060102	0.236914	0.931581
C45	C	0.601330	-0.303290	0.380928
C46	C	1.101330	0.196710	0.880928
C47	C	0.560012	-0.343505	0.330295
C48	C	1.060012	0.156495	0.830295
C49	C	0.601426	-0.222877	0.482219
C50	C	1.101426	0.277123	0.982219
C51	C	0.683977	-0.222865	0.482202
C52	C	1.183977	0.277135	0.982202
C53	C	0.725207	-0.263067	0.431545
C54	C	1.225207	0.236933	0.931545
C55	C	0.683884	-0.303282	0.380909
C56	C	1.183884	0.196718	0.880909
C57	C	0.725112	-0.343487	0.330256
C58	C	1.225112	0.156513	0.830256
C59	C	0.683790	-0.383700	0.279616
C60	C	1.183790	0.116300	0.779616
C61	C	0.601242	-0.383707	0.279638
C62	C	1.101242	0.116293	0.779638
C63	C	0.807755	-0.263060	0.431523
C64	C	1.307755	0.236940	0.931523
C65	C	0.807665	-0.343479	0.330237
C66	C	1.307665	0.156521	0.830237
C67	C	1.142105	-0.466830	0.380869
C68	C	1.642105	0.033170	0.880869
C69	C	1.142134	-0.536798	0.380878
C70	C	1.642134	-0.036798	0.880878
C71	C	1.192668	-0.569600	0.431479
C72	C	1.692668	-0.069600	0.931479
C73	C	1.192696	-0.635342	0.431498
C74	C	1.692696	-0.135342	0.931498
C75	C	1.142198	-0.668281	0.380903
C76	C	1.642198	-0.168281	0.880903
C77	C	1.091655	-0.635471	0.330298
C78	C	1.591655	-0.135471	0.830298
C79	C	1.091622	-0.569730	0.330286
C80	C	1.591622	-0.069730	0.830286
N81	N	1.136233	-0.771546	0.311726
N82	N	1.636233	-0.271546	0.811726
N83	N	1.136268	-0.833997	0.311740
N84	N	1.636268	-0.333997	0.811740
C85	C	1.142291	-0.866355	0.380939
C86	C	1.642291	-0.366355	0.880939
N87	N	1.148292	-0.833903	0.450124
N88	N	1.648292	-0.333903	0.950124
N89	N	1.148261	-0.771446	0.450109
N90	N	1.648261	-0.271446	0.950109
C91	C	1.142227	-0.739566	0.380911
C92	C	1.642227	-0.239566	0.880911
C93	C	1.192858	-0.970443	0.431565
C94	C	1.692858	-0.470443	0.931565
C95	C	1.192880	-1.036186	0.431586
C96	C	1.692880	-0.536186	0.931586
C97	C	1.091842	-1.036313	0.330379
C98	C	1.591842	-0.536313	0.830379
C99	C	1.091816	-0.970571	0.330365
C100	C	1.591816	-0.470571	0.830365
C101	C	1.142328	-0.937640	0.380957
C102	C	1.642328	-0.437640	0.880957
C103	C	1.348374	-0.303299	0.380949
C104	C	1.848374	0.196701	0.880949
C105	C	1.436231	-0.303308	0.380966
C106	C	1.936231	0.196692	0.880966
C107	C	1.142239	-0.303226	0.587077
C108	C	1.642239	0.196774	1.087077
C109	C	1.142253	-0.303204	0.674934
C110	C	1.642253	0.196796	1.174934
C111	C	1.142329	-0.139088	0.380966
C112	C	1.642329	0.360912	0.880966
C113	C	1.142381	-0.069120	0.380991
C114	C	1.642381	0.430880	0.880991
C115	C	1.142219	-0.303285	0.175542
C116	C	1.642219	0.196715	0.675542
C117	C	1.142358	-0.303130	0.087686
C118	C	1.642358	0.196870	0.587686
C119	C	1.091767	-0.343390	1.046388
C120	C	1.591767	0.156610	1.546388
C121	C	1.192928	-0.262885	1.046431
C122	C	1.692928	0.237115	1.546431
C123	C	1.192907	-0.262898	0.963885
C124	C	1.692907	0.237102	1.463885
C125	C	1.142316	-0.303159	0.922587
C126	C	1.642316	0.196841	1.422587
C127	C	1.091746	-0.343406	0.963834
C128	C	1.591746	0.156594	1.463834
C129	C	1.243482	-0.222656	0.922631
C130	C	1.743482	0.277344	1.422631
C131	C	1.243463	-0.222668	0.840080
C132	C	1.743463	0.277332	1.340080
C133	C	1.192867	-0.262926	0.798780
C134	C	1.692867	0.237074	1.298780
C135	C	1.142295	-0.303175	0.840033
C136	C	1.642295	0.196825	1.340033
C137	C	1.091704	-0.343436	0.798735
C138	C	1.591704	0.156564	1.298735
C139	C	1.041126	-0.383681	0.839986
C140	C	1.541126	0.116319	1.339986
C141	C	1.041150	-0.383664	0.922534
C142	C	1.541150	0.116336	1.422534
C143	C	1.192844	-0.262943	0.716232
C144	C	1.692844	0.237057	1.216232
C145	C	1.091683	-0.343451	0.716181
C146	C	1.591683	0.156549	1.216181
H147	H	0.567852	-0.190148	0.523462
H148	H	1.067852	0.309852	1.023462
N149	N	1.244287	-0.535979	0.483149
N150	N	1.744287	-0.035979	0.983149
N151	N	1.317225	-0.543296	0.477960
N152	N	1.817225	-0.043296	0.977960
H153	H	1.353688	-0.519556	0.514452
H154	H	1.853688	-0.019556	1.014452
N155	N	0.989488	-0.424775	0.964661
N156	N	1.489488	0.075225	1.464661
N157	N	0.994669	-0.482865	0.955415
N158	N	1.494669	0.017135	1.455415
H159	H	0.958178	-0.511898	0.985166
H160	H	1.458178	-0.011898	1.485166
N161	N	1.040088	-0.669127	0.278614
N162	N	1.540088	-0.169127	0.778614
N163	N	1.067959	-0.705821	0.228284
N164	N	1.567959	-0.205821	0.728284
H165	H	1.031539	-0.729593	0.191782
H166	H	1.531539	-0.229593	0.691782
H167	H	1.284646	-0.189898	0.806501
H168	H	1.784646	0.310102	1.306501
N169	N	1.295139	-0.181524	0.964819
N170	N	1.795139	0.318476	1.464819
N171	N	1.289932	-0.123439	0.955627
N172	N	1.789932	0.376561	1.455627
H173	H	1.326413	-0.094385	0.985427
H174	H	1.826413	0.405615	1.485427
H175	H	0.717614	-0.190121	0.523436
H176	H	1.217614	0.309879	1.023436
N177	N	1.040094	-0.384497	1.088507
N178	N	1.540094	0.115503	1.588507
N179	N	0.994922	-0.420434	1.051621
N180	N	1.494922	0.079566	1.551621
H181	H	0.958422	-0.449464	1.081367
H182	H	1.458422	0.050536	1.581367
N183	N	1.244510	-0.221839	0.674108
N184	N	1.744510	0.278161	1.174108
N185	N	1.289681	-0.185899	0.710990
N186	N	1.789681	0.314101	1.210990
H187	H	1.326173	-0.156866	0.681241
H188	H	1.826173	0.343134	1.181241
N189	N	1.039993	-0.536230	0.278593
N190	N	1.539993	-0.036230	0.778593
N191	N	0.994903	-0.565642	0.233426
N192	N	1.494903	-0.065642	0.733426
H193	H	0.958438	-0.541982	0.196916
H194	H	1.458438	-0.041982	0.696916
N195	N	1.040257	-1.069960	0.278708
N196	N	1.540257	-0.569960	0.778708
N197	N	1.040288	-1.128657	0.278728
N198	N	1.540288	-0.628657	0.778728
H199	H	1.003852	-1.152424	0.242237
H200	H	1.503852	-0.652424	0.742237
H201	H	1.234031	-1.062893	0.472795
H202	H	1.734031	-0.562893	0.972795
N203	N	0.849763	-0.384546	0.278483
N204	N	1.349763	0.115454	0.778483
N205	N	0.812858	-0.420442	0.233274
N206	N	1.312858	0.079558	0.733274
H207	H	0.842589	-0.449446	0.196721
H208	H	1.342589	0.050554	0.696721
H209	H	0.717369	-0.416437	0.238379
H210	H	1.217369	0.083563	0.738379
H211	H	1.233841	-0.662055	0.472713
H212	H	1.733841	-0.162055	0.972713
N213	N	0.559021	-0.424776	0.227919
N214	N	1.059021	0.075224	0.727919
N215	N	0.485317	-0.424778	0.227948
N216	N	0.985317	0.075222	0.727948
H217	H	0.455495	-0.453784	0.191424
H218	H	0.955495	0.046216	0.691424
N219	N	1.244606	-0.221773	1.088625
N220	N	1.744606	0.278227	1.588625
N221	N	1.244621	-0.221769	1.162329
N222	N	1.744621	0.278231	1.662329
H223	H	1.281121	-0.192731	1.192132
H224	H	1.781121	0.307269	1.692132
N225	N	1.244456	-0.936809	0.483246
N226	N	1.744456	-0.436809	0.983246
N227	N	1.289569	-0.966108	0.528429
N228	N	1.789569	-0.466108	1.028429
H229	H	1.326012	-0.942356	0.564929
H230	H	1.826012	-0.442356	1.064929
H231	H	0.443983	-0.230367	0.472843
H232	H	0.943983	0.269633	0.972843
N233	N	1.040186	-0.937065	0.278681
N234	N	1.540186	-0.437065	0.778681
N235	N	0.967251	-0.944459	0.283859
N236	N	1.467251	-0.444459	0.783859
H237	H	0.930780	-0.920798	0.247357
H238	H	1.430780	-0.420798	0.747357
H239	H	1.050478	-0.376231	0.682562
H240	H	1.550478	0.123769	1.182562
H241	H	0.999939	-0.416464	0.806350
H242	H	1.499939	0.083536	1.306350
N243	N	0.435243	-0.384580	0.278588
N244	N	0.935243	0.115420	0.778588
N245	N	0.361540	-0.384581	0.278604
N246	N	0.861540	0.115419	0.778604
H247	H	0.331723	-0.413584	0.242071
H248	H	0.831723	0.086416	0.742071
H249	H	0.841395	-0.230320	0.472755
H250	H	1.341395	0.269680	0.972755
