data_functionalizedCrystal
_audit_creation_method	'MofGen! by Chris Wilmer'
_symmetry_space_group_name_H-M	'P1'
_symmetry_Int_Tables_number	1
_symmetry_cell_setting	triclinic
loop_
_symmetry_equiv_pos_as_xyz
  x,y,z
_cell_length_a	11.792241
_cell_length_b	10.540539
_cell_length_c	10.868271
_cell_angle_alpha	89.997005
_cell_angle_beta	89.999893
_cell_angle_gamma	84.359454
loop_
_atom_site_label
_atom_site_type_symbol
_atom_site_fract_x
_atom_site_fract_y
_atom_site_fract_z
O1	O	1.507361	0.173992	-0.102197
O2	O	2.007361	0.673992	0.397803
O3	O	1.177067	0.191924	-0.102225
O4	O	1.677067	0.691924	0.397775
O5	O	1.349750	-0.001773	-0.102208
O6	O	1.849750	0.498227	0.397792
O7	O	1.334679	0.367689	-0.102213
O8	O	1.834679	0.867689	0.397787
O9	O	1.349735	-0.001781	0.102436
O10	O	1.849735	0.498219	0.602436
O11	O	1.177053	0.191916	0.102420
O12	O	1.677053	0.691916	0.602420
O13	O	1.507347	0.173984	0.102448
O14	O	2.007347	0.673984	0.602448
Zn15	Zn	1.342198	0.182949	0.134926
Zn16	Zn	1.842198	0.682949	0.634926
Zn17	Zn	1.342216	0.182959	-0.134702
Zn18	Zn	1.842216	0.682959	0.365298
O19	O	1.334664	0.367681	0.102432
O20	O	1.834664	0.867681	0.602432
C21	C	1.134766	0.190793	0.000094
C22	C	1.634766	0.690793	0.500094
C23	C	1.008743	0.187422	0.000083
C24	C	1.508743	0.687422	0.500083
C25	C	0.778015	0.181223	0.000119
C26	C	1.278015	0.681223	0.500119
C27	C	0.906409	0.184667	0.000099
C28	C	1.406409	0.684667	0.500099
C29	C	1.348612	-0.049076	0.000112
C30	C	1.848612	0.450924	0.500112
C31	C	1.345231	-0.190014	0.000105
C32	C	1.845231	0.309986	0.500105
C33	C	1.215660	-0.373018	-0.000366
C34	C	1.715660	0.126982	0.499634
C35	C	1.219087	-0.226411	0.000095
C36	C	1.719087	0.273589	0.500095
C37	C	1.405929	-0.251873	0.116972
C38	C	1.905929	0.248127	0.616972
C39	C	1.401623	-0.398404	0.117070
C40	C	1.901623	0.101596	0.617070
C41	C	1.404205	-0.398922	-0.115649
C42	C	1.904205	0.101078	0.384351
C43	C	1.405367	-0.251943	-0.117194
C44	C	1.905367	0.248057	0.382806
C45	C	1.549648	0.175114	0.000127
C46	C	2.049648	0.675114	0.500127
C47	C	1.675671	0.178486	0.000130
C48	C	2.175671	0.678486	0.500130
C49	C	1.335802	0.414984	0.000109
C50	C	1.835802	0.914984	0.500109
C51	C	1.339183	0.555921	0.000108
C52	C	1.839183	1.055921	0.500108
N53	N	1.342193	0.182941	0.318940
N54	N	1.842193	0.682941	0.818940
N55	N	1.342230	0.182957	-0.318716
N56	N	1.842230	0.682957	0.181284
C57	C	1.342211	0.182956	0.569946
C58	C	1.842211	0.682956	1.069946
C59	C	1.342197	0.182952	0.430268
C60	C	1.842197	0.682952	0.930268
H61	H	1.171327	-0.183649	-0.083680
H62	H	1.671327	0.316351	0.416320
H63	H	1.497336	-0.228021	-0.124243
H64	H	1.997336	0.271979	0.375757
H65	H	1.360955	-0.210937	-0.203649
H66	H	1.860955	0.289063	0.296351
H67	H	1.492344	-0.446668	0.122379
H68	H	1.992344	0.053332	0.622379
H69	H	1.363385	-0.430338	-0.204226
H70	H	1.863385	0.069662	0.295774
C71	C	1.429377	-0.136136	0.304051
C72	C	1.929377	0.363864	0.804051
C73	C	1.348992	-0.194199	0.234372
C74	C	1.848992	0.305801	0.734372
H75	H	1.394217	-0.100526	0.376522
H76	H	1.894217	0.399474	0.876522
H77	H	1.490123	-0.197915	0.325960
H78	H	1.990123	0.302085	0.825960
H79	H	1.458291	-0.070573	0.256929
H80	H	1.958291	0.429427	0.756929
H81	H	1.320084	-0.259768	0.281491
H82	H	1.820084	0.240232	0.781491
H83	H	1.288226	-0.132414	0.212465
H84	H	1.788226	0.367586	0.712465
C85	C	1.051916	-0.469094	0.072481
C86	C	1.551916	0.030906	0.572481
C87	C	1.148654	-0.413578	0.112127
C88	C	1.648654	0.086422	0.612127
H89	H	1.010559	-0.494143	0.141932
H90	H	1.510559	0.005857	0.641932
H91	H	1.004977	-0.409035	0.025211
H92	H	1.504977	0.090965	0.525211
H93	H	1.074611	-0.541770	0.023428
H94	H	1.574611	-0.041770	0.523428
H95	H	1.125959	-0.340896	0.161173
H96	H	1.625959	0.159104	0.661173
H97	H	1.195602	-0.473641	0.159418
H98	H	1.695602	0.026359	0.659418
H99	H	1.356753	-0.426460	0.204423
H100	H	1.856753	0.073540	0.704423
C101	C	1.525466	-0.595638	-0.121147
C102	C	2.025466	-0.095638	0.378853
C103	C	1.527202	-0.463079	-0.116718
C104	C	2.027202	0.036921	0.383282
H105	H	1.601396	-0.635247	-0.121809
H106	H	2.101396	-0.135247	0.378191
H107	H	1.486614	-0.623278	-0.051004
H108	H	1.986614	-0.123278	0.448996
H109	H	1.487226	-0.618289	-0.193647
H110	H	1.987226	-0.118289	0.306353
H111	H	1.565435	-0.440427	-0.044213
H112	H	2.065435	0.059573	0.455787
H113	H	1.566071	-0.435428	-0.186868
H114	H	2.066071	0.064572	0.313132
H115	H	1.170980	-0.184502	0.084002
H116	H	1.670980	0.315498	0.584002
C117	C	1.204772	-0.379447	-0.220845
C118	C	1.704772	0.120553	0.279155
C119	C	1.148393	-0.411413	-0.113498
C120	C	1.648393	0.088587	0.386502
H121	H	1.163247	-0.403167	-0.290689
H122	H	1.663247	0.096833	0.209311
H123	H	1.210231	-0.290155	-0.222399
H124	H	1.710231	0.209845	0.277601
H125	H	1.279071	-0.423359	-0.222255
H126	H	1.779071	0.076641	0.277745
H127	H	1.074096	-0.367493	-0.112083
H128	H	1.574096	0.132507	0.387917
H129	H	1.142921	-0.500721	-0.111943
H130	H	1.642921	-0.000721	0.388057
C131	C	1.555116	-0.147595	0.021273
C132	C	2.055116	0.352405	0.521273
C133	C	1.530982	-0.222100	0.122865
C134	C	2.030982	0.277900	0.622865
H135	H	1.632316	-0.129207	0.024916
H136	H	2.132316	0.370793	0.524916
H137	H	1.542882	-0.192857	-0.052345
H138	H	2.042882	0.307143	0.447655
H139	H	1.506525	-0.070180	0.022364
H140	H	2.006525	0.429820	0.522364
H141	H	1.579567	-0.299520	0.121769
H142	H	2.079567	0.200480	0.621769
H143	H	1.543227	-0.176838	0.196502
H144	H	2.043227	0.323162	0.696502
