data_functionalizedCrystal
_audit_creation_method	'MofGen! by Chris Wilmer'
_symmetry_space_group_name_H-M	'P1'
_symmetry_Int_Tables_number	1
_symmetry_cell_setting	triclinic
loop_
_symmetry_equiv_pos_as_xyz
  x,y,z
_cell_length_a	19.805407
_cell_length_b	16.120484
_cell_length_c	19.805399
_cell_angle_alpha	92.871043
_cell_angle_beta	89.980427
_cell_angle_gamma	92.925608
loop_
_atom_site_label
_atom_site_type_symbol
_atom_site_fract_x
_atom_site_fract_y
_atom_site_fract_z
Zn1	Zn	1.021075	-0.331927	-0.396377
Zn2	Zn	1.521075	0.168073	0.103623
Zn3	Zn	1.015252	-0.471346	-0.288925
Zn4	Zn	1.515252	0.028654	0.211075
Zn5	Zn	0.907889	-0.331950	-0.283203
Zn6	Zn	1.407889	0.168050	0.216797
Zn7	Zn	0.902117	-0.471302	-0.402070
Zn8	Zn	1.402117	0.028698	0.097930
O9	O	0.961584	-0.401631	-0.342644
O10	O	1.461584	0.098369	0.157356
O11	O	1.115019	-0.350431	-0.382136
O12	O	1.615019	0.149569	0.117864
O13	O	1.000989	-0.452883	-0.193451
O14	O	1.500989	0.047117	0.306549
O15	O	0.927756	-0.215281	-0.293438
O16	O	1.427756	0.284719	0.206562
O17	O	1.110741	-0.452861	-0.303191
O18	O	1.610741	0.047139	0.196809
O19	O	1.010913	-0.215264	-0.376587
O20	O	1.510913	0.284736	0.123413
O21	O	0.922109	-0.350470	-0.189246
O22	O	1.422109	0.149530	0.310754
O23	O	0.812407	-0.350427	-0.298958
O24	O	1.312407	0.149573	0.201042
O25	O	0.917919	-0.452785	-0.496030
O26	O	1.417919	0.047215	0.003970
O27	O	0.808167	-0.452807	-0.386290
O28	O	1.308167	0.047193	0.113710
O29	O	1.005317	-0.350388	-0.491848
O30	O	1.505317	0.149612	0.008152
O31	O	0.995392	-0.588006	-0.308712
O32	O	1.495392	-0.088006	0.191288
O33	O	0.912273	-0.587974	-0.391839
O34	O	1.412273	-0.087974	0.108161
C35	C	0.785728	-0.401615	-0.342621
C36	C	1.285728	0.098385	0.157379
C37	C	0.710496	-0.401629	-0.342628
C38	C	1.210496	0.098371	0.157372
C39	C	0.952593	-0.618240	-0.351529
C40	C	1.452593	-0.118240	0.148471
C41	C	0.948809	-0.710906	-0.355353
C42	C	1.448809	-0.210906	0.144647
C43	C	0.672958	-0.455019	-0.388035
C44	C	1.172958	0.044981	0.111965
C45	C	0.602269	-0.455020	-0.388045
C46	C	1.102269	0.044980	0.111955
C47	C	0.569120	-0.401635	-0.342644
C48	C	1.069120	0.098365	0.157356
C49	C	0.606663	-0.348239	-0.297235
C50	C	1.106663	0.151761	0.202765
C51	C	0.677350	-0.348234	-0.297229
C52	C	1.177350	0.151766	0.202771
C53	C	0.321589	-0.348258	-0.297258
C54	C	0.821589	0.151742	0.202742
C55	C	0.250896	-0.348269	-0.297266
C56	C	0.750896	0.151731	0.202734
C57	C	0.246508	-0.455043	-0.388074
C58	C	0.746508	0.044957	0.111926
C59	C	0.317195	-0.455038	-0.388068
C60	C	0.817195	0.044962	0.111932
C61	C	0.354732	-0.401640	-0.342662
C62	C	0.854732	0.098360	0.157338
C63	C	0.431381	-0.401638	-0.342653
C64	C	0.931381	0.098362	0.157347
C65	C	0.492472	-0.401641	-0.342649
C66	C	0.992472	0.098359	0.157351
C67	C	0.941903	-0.880568	-0.362347
C68	C	1.441903	-0.380568	0.137653
C69	C	0.981385	-0.921854	-0.322951
C70	C	1.481385	-0.421854	0.177049
C71	C	0.977543	-1.016260	-0.326843
C72	C	1.477543	-0.516260	0.173157
C73	C	0.945745	-0.786154	-0.358456
C74	C	1.445745	-0.286154	0.141544
C75	C	1.138126	-0.401648	-0.342667
C76	C	1.638126	0.098352	0.157333
C77	C	1.213357	-0.401655	-0.342677
C78	C	1.713357	0.098345	0.157323
C79	C	0.961624	-0.401579	-0.519184
C80	C	1.461624	0.098421	-0.019184
C81	C	0.961641	-0.401556	-0.594416
C82	C	1.461641	0.098444	-0.094416
C83	C	0.970628	-0.184177	-0.333739
C84	C	1.470628	0.315823	0.166261
C85	C	0.974482	-0.091511	-0.329944
C86	C	1.474482	0.408489	0.170056
C87	C	1.007150	-0.348235	-0.627583
C88	C	1.507150	0.151765	-0.127583
C89	C	1.007158	-0.348211	-0.698270
C90	C	1.507158	0.151789	-0.198270
C91	C	0.961659	-0.401513	-0.735789
C92	C	1.461659	0.098487	-0.235789
C93	C	0.916145	-0.454836	-0.702617
C94	C	1.416145	0.045164	-0.202617
C95	C	0.916135	-0.454856	-0.631931
C96	C	1.416135	0.045144	-0.131931
C97	C	0.916187	-0.454759	-0.987688
C98	C	1.416187	0.045241	-0.487688
C99	C	0.916202	-0.454737	-1.058379
C100	C	1.416202	0.045263	-0.558379
C101	C	1.007210	-0.348114	-1.054027
C102	C	1.507210	0.151886	-0.554027
C103	C	1.007199	-0.348133	-0.983340
C104	C	1.507199	0.151867	-0.483340
C105	C	0.961683	-0.401453	-0.950174
C106	C	1.461683	0.098547	-0.450174
C107	C	0.961674	-0.401478	-0.873527
C108	C	1.461674	0.098522	-0.373527
C109	C	0.961671	-0.401493	-0.812436
C110	C	1.461671	0.098507	-0.312436
C111	C	0.961585	-0.401623	-0.166787
C112	C	1.461585	0.098377	0.333213
C113	C	0.961709	-0.401411	-0.091547
C114	C	1.461709	0.098589	0.408453
H115	H	0.571709	-0.498496	-0.425019
H116	H	1.071709	0.001504	0.074981
H117	H	1.018071	-0.886299	-0.286299
H118	H	1.518071	-0.386299	0.213701
H119	H	0.344182	-0.498513	-0.425036
H120	H	0.844182	0.001487	0.074964
H121	H	1.044217	-0.304794	-0.725272
H122	H	1.544217	0.195206	-0.225272
H123	H	0.879134	-0.498187	-0.960693
H124	H	1.379134	0.001813	-0.460693
H125	H	0.905219	-0.916121	-0.398995
H126	H	1.405219	-0.416121	0.101005
H127	H	0.879070	-0.498267	-0.604927
H128	H	1.379070	0.001733	-0.104927
H129	H	1.044202	-0.304833	-0.597039
H130	H	1.544202	0.195167	-0.097039
N131	N	1.056275	-0.290649	-0.942873
N132	N	1.556275	0.209351	-0.442873
H133	H	1.085107	-0.256864	-0.974611
H134	H	1.585107	0.243136	-0.474611
H135	H	1.030323	-0.252073	-0.911960
H136	H	1.530323	0.247927	-0.411960
H137	H	0.579667	-0.304769	-0.260272
H138	H	1.079667	0.195231	0.239728
H139	H	0.215937	-0.498520	-0.425048
H140	H	0.715937	0.001480	0.074952
N141	N	1.056293	-0.290595	-1.089806
N142	N	1.556293	0.209405	-0.589806
H143	H	1.048257	-0.231031	-1.075060
H144	H	1.548257	0.268969	-0.575060
H145	H	1.104092	-0.303623	-1.078036
H146	H	1.604092	0.196377	-0.578036
N147	N	0.215139	-0.290688	-0.248295
N148	N	0.715139	0.209312	0.251705
H149	H	0.249644	-0.256857	-0.219530
H150	H	0.749644	0.243143	0.280470
H151	H	0.187418	-0.252159	-0.274323
H152	H	0.687418	0.247841	0.225677
N153	N	0.362070	-0.290654	-0.248297
N154	N	0.862070	0.209346	0.251703
H155	H	0.330342	-0.256835	-0.219540
H156	H	0.830342	0.243165	0.280460
H157	H	0.389989	-0.324520	-0.218311
H158	H	0.889989	0.175480	0.281689
N159	N	0.717841	-0.290644	-0.248260
N160	N	1.217841	0.209356	0.251740
H161	H	0.686116	-0.256825	-0.219499
H162	H	1.186116	0.243175	0.280501
H163	H	0.745754	-0.324522	-0.218278
H164	H	1.245754	0.175478	0.281722
N165	N	0.867127	-0.512229	-1.098849
N166	N	1.367127	-0.012229	-0.598849
H167	H	0.838289	-0.546009	-1.067113
H168	H	1.338289	-0.046009	-0.567113
H169	H	0.837225	-0.478277	-1.126783
H170	H	1.337225	0.021723	-0.626783
N171	N	0.708707	-0.512598	-0.437006
N172	N	1.208707	-0.012598	0.062994
H173	H	0.759184	-0.504498	-0.430113
H174	H	1.259184	-0.004498	0.069887
H175	H	0.693876	-0.572123	-0.428834
H176	H	1.193876	-0.072123	0.071166
N177	N	0.867056	-0.512309	-0.743080
N178	N	1.367056	-0.012309	-0.243080
H179	H	0.873965	-0.504204	-0.792893
H180	H	1.373965	-0.004204	-0.292893
H181	H	0.875099	-0.571860	-0.733169
H182	H	1.375099	-0.071860	-0.233169
