data_functionalizedCrystal
_audit_creation_method	'MofGen! by Chris Wilmer'
_symmetry_space_group_name_H-M	'P1'
_symmetry_Int_Tables_number	1
_symmetry_cell_setting	triclinic
loop_
_symmetry_equiv_pos_as_xyz
  x,y,z
_cell_length_a	17.019284
_cell_length_b	17.038272
_cell_length_c	13.448316
_cell_angle_alpha	89.999047
_cell_angle_beta	86.124009
_cell_angle_gamma	92.758308
loop_
_atom_site_label
_atom_site_type_symbol
_atom_site_fract_x
_atom_site_fract_y
_atom_site_fract_z
O1	O	-0.171288	1.037215	-0.067890
O2	O	0.328712	1.537215	0.432110
O3	O	-0.168568	0.809587	-0.068152
O4	O	0.331432	1.309587	0.431848
O5	O	-0.055522	0.929756	-0.077817
O6	O	0.444478	1.429756	0.422183
O7	O	-0.284334	0.917045	-0.058225
O8	O	0.215666	1.417045	0.441775
O9	O	-0.055513	0.929741	0.087566
O10	O	0.444487	1.429741	0.587566
O11	O	-0.168559	0.809572	0.097231
O12	O	0.331441	1.309572	0.597231
O13	O	-0.171279	1.037200	0.097493
O14	O	0.328721	1.537200	0.597493
Cu15	Cu	-0.169918	0.923384	0.112463
Cu16	Cu	0.330082	1.423384	0.612463
Cu17	Cu	-0.169928	0.923402	-0.083122
Cu18	Cu	0.330072	1.423402	0.416878
O19	O	-0.284325	0.917030	0.107158
O20	O	0.215675	1.417030	0.607158
C21	C	-0.166090	0.780453	0.014324
C22	C	0.333910	1.280453	0.514324
C23	C	-0.158710	0.693667	0.013680
C24	C	0.341290	1.193667	0.513680
C25	C	-0.226469	0.643492	0.019483
C26	C	0.273531	1.143492	0.519483
C27	C	-0.219530	0.561947	0.018903
C28	C	0.280470	1.061947	0.518903
C29	C	-0.144830	0.530580	0.012512
C30	C	0.355170	1.030580	0.512512
C31	C	-0.077065	0.580761	0.006712
C32	C	0.422935	1.080761	0.506712
C33	C	-0.084005	0.662304	0.007300
C34	C	0.415995	1.162304	0.507300
C35	C	-0.120312	0.284844	0.010439
C36	C	0.379688	0.784844	0.510439
C37	C	-0.113378	0.203295	0.009849
C38	C	0.386622	0.703295	0.509849
C39	C	-0.255843	0.184486	0.022042
C40	C	0.244157	0.684486	0.522042
C41	C	-0.262777	0.266031	0.022623
C42	C	0.237223	0.766031	0.522623
C43	C	-0.195012	0.316206	0.016828
C44	C	0.304988	0.816206	0.516828
C45	C	-0.137735	0.447229	0.011916
C46	C	0.362265	0.947229	0.511916
C47	C	-0.202107	0.399555	0.017432
C48	C	0.297893	0.899555	0.517432
C49	C	-0.313751	0.917518	0.026986
C50	C	0.186249	1.417518	0.526986
C51	C	-0.401418	0.918959	0.034494
C52	C	0.098582	1.418959	0.534494
C53	C	-0.442605	0.919645	-0.052130
C54	C	0.057395	1.419645	0.447870
C55	C	-0.524977	0.921008	-0.045076
C56	C	-0.024977	1.421008	0.454924
C57	C	-0.566160	0.921681	0.048603
C58	C	-0.066160	1.421681	0.548603
C59	C	-0.524966	0.920997	0.135233
C60	C	-0.024966	1.420997	0.635233
C61	C	-0.442596	0.919639	0.128178
C62	C	0.057404	1.419639	0.628178
C63	C	-0.814865	0.925786	0.074414
C64	C	-0.314865	1.425786	0.574414
C65	C	-0.897242	0.927142	0.081463
C66	C	-0.397242	1.427142	0.581463
C67	C	-0.897247	0.927154	-0.098848
C68	C	-0.397247	1.427154	0.401152
C69	C	-0.814875	0.925791	-0.105894
C70	C	-0.314875	1.425791	0.394106
C71	C	-0.773688	0.925112	-0.019264
C72	C	-0.273688	1.425112	0.480736
C73	C	-0.650357	0.923072	0.055815
C74	C	-0.150357	1.423072	0.555815
C75	C	-0.689492	0.923726	-0.026477
C76	C	-0.189492	1.423726	0.473523
C77	C	-0.026096	0.929268	0.002353
C78	C	0.473904	1.429268	0.502353
C79	C	0.061571	0.927827	-0.005161
C80	C	0.561571	1.427827	0.494839
C81	C	-0.173757	1.066333	0.015015
C82	C	0.326243	1.566333	0.515015
C83	C	-0.181137	1.153120	0.015652
C84	C	0.318863	1.653120	0.515652
N85	N	-0.169911	0.923377	0.250027
N86	N	0.330089	1.423377	0.750027
N87	N	-0.169930	0.923415	-0.220686
N88	N	0.330070	1.423415	0.279314
C89	C	-0.119878	0.976605	0.297789
C90	C	0.380122	1.476605	0.797789
C91	C	-0.119877	0.976610	0.401892
C92	C	0.380123	1.476610	0.901892
C93	C	-0.169915	0.923390	0.458232
C94	C	0.330085	1.423390	0.958232
C95	C	-0.219951	0.870157	0.410462
C96	C	0.280049	1.370157	0.910462
C97	C	-0.219947	0.870149	0.306360
C98	C	0.280053	1.370149	0.806360
C99	C	-0.219958	0.870179	0.627442
C100	C	0.280042	1.370179	1.127442
C101	C	-0.219963	0.870188	0.731551
C102	C	0.280037	1.370188	1.231551
C103	C	-0.119888	0.976640	0.722975
C104	C	0.380112	1.476640	1.222975
C105	C	-0.119884	0.976632	0.618873
C106	C	0.380116	1.476632	1.118873
C107	C	-0.169921	0.923399	0.571111
C108	C	0.330079	1.423399	1.071111
H109	H	-0.076914	0.421680	0.006740
H110	H	0.423086	0.921680	0.506740
O111	O	-0.047225	0.338953	0.004191
O112	O	0.452775	0.838953	0.504191
H113	H	-0.011740	0.327816	-0.066256
H114	H	0.488260	0.827816	0.433744
O115	O	-0.328925	0.130365	0.028308
O116	O	0.171075	0.630365	0.528308
H117	H	-0.364417	0.141494	-0.036064
H118	H	0.135583	0.641494	0.463936
H119	H	-0.409081	0.919090	-0.128414
H120	H	0.090919	1.419090	0.371586
H121	H	-0.287298	0.669024	0.024686
H122	H	0.212702	1.169024	0.524686
O123	O	-0.292615	0.507829	0.025166
O124	O	0.207385	1.007829	0.525166
H125	H	-0.328101	0.518959	-0.039211
H126	H	0.171899	1.018959	0.460789
O127	O	-0.569405	0.921733	-0.138505
O128	O	-0.069405	1.421733	0.361495
H129	H	-0.526931	0.921022	-0.204831
H130	H	-0.026931	1.421022	0.295169
H131	H	-0.079135	1.019946	0.251925
H132	H	0.420865	1.519946	0.751925
O133	O	-0.273898	0.812732	0.254831
O134	O	0.226102	1.312732	0.754831
H135	H	-0.314457	0.845580	0.210847
H136	H	0.185543	1.345580	0.710847
O137	O	0.003504	0.546930	-0.000179
O138	O	0.503504	1.046930	0.499821
H139	H	0.036326	0.567087	0.064424
H140	H	0.536326	1.067087	0.564424
O141	O	-0.273932	0.812784	0.792316
O142	O	0.226068	1.312784	1.292316
H143	H	-0.265534	0.821743	0.872728
H144	H	0.234466	1.321743	1.372728
O145	O	-0.343345	0.299864	0.029541
O146	O	0.156655	0.799864	0.529541
H147	H	-0.389299	0.251274	0.033494
H148	H	0.110701	0.751274	0.533494
H149	H	-0.409062	0.919080	0.198717
H150	H	0.090938	1.419080	0.698717
O151	O	-0.032805	0.169458	0.002966
O152	O	0.467195	0.669458	0.502966
H153	H	0.013151	0.218046	-0.000955
H154	H	0.513151	0.718046	0.499045
H155	H	-0.028828	0.703157	0.002574
H156	H	0.471172	1.203157	0.502574
O157	O	-0.282677	0.433379	0.024329
O158	O	0.217323	0.933379	0.524329
H159	H	-0.289246	0.470074	-0.042523
H160	H	0.210754	0.970074	0.457477
O161	O	-0.065910	1.034029	0.558107
O162	O	0.434090	1.534029	1.058107
H163	H	-0.101684	1.071983	0.513734
H164	H	0.398316	1.571983	1.013734
H165	H	-0.079147	1.019983	0.761869
H166	H	0.420853	1.519983	1.261869
O167	O	-0.941667	0.927890	-0.192283
O168	O	-0.441667	1.427890	0.307717
H169	H	-0.975731	0.981771	-0.193679
H170	H	-0.475731	1.481771	0.306321
H171	H	-0.781349	0.925250	-0.182178
H172	H	-0.281349	1.425250	0.317822
O173	O	-0.941665	0.927874	0.182506
O174	O	-0.441665	1.427874	0.682506
H175	H	-0.899187	0.927182	0.241562
H176	H	-0.399187	1.427182	0.741562
H177	H	-0.781341	0.925234	0.144955
H178	H	-0.281341	1.425234	0.644955
O179	O	-0.273924	0.812759	0.471228
O180	O	0.226076	1.312759	0.971228
H181	H	-0.336085	0.822644	0.456549
H182	H	0.163915	1.322644	0.956549
O183	O	-0.569378	0.921724	0.236277
O184	O	-0.069378	1.421724	0.736277
H185	H	-0.633577	0.922776	0.226632
H186	H	-0.133577	1.422776	0.726632
O187	O	-0.273929	0.812769	0.575921
O188	O	0.226071	1.312769	1.075921
H189	H	-0.308732	0.775770	0.632585
H190	H	0.191268	1.275770	1.132585
O191	O	-0.645082	0.922990	-0.127518
O192	O	-0.145082	1.422990	0.372482
H193	H	-0.604088	0.975626	-0.135342
H194	H	-0.104088	1.475626	0.364658
O195	O	-0.694776	0.923796	0.156855
O196	O	-0.194776	1.423796	0.656855
H197	H	-0.735761	0.871154	0.164669
H198	H	-0.235761	1.371154	0.664669
O199	O	-0.065928	1.034033	0.453413
O200	O	0.434072	1.534033	0.953413
H201	H	-0.031146	1.071049	0.396749
H202	H	0.468854	1.571049	0.896749
