data_functionalizedCrystal
_audit_creation_method	'MofGen! by Chris Wilmer'
_symmetry_space_group_name_H-M	'P1'
_symmetry_Int_Tables_number	1
_symmetry_cell_setting	triclinic
loop_
_symmetry_equiv_pos_as_xyz
  x,y,z
_cell_length_a	6.817900
_cell_length_b	19.551900
_cell_length_c	17.078481
_cell_angle_alpha	96.655255
_cell_angle_beta	99.306161
_cell_angle_gamma	101.664829
loop_
_atom_site_label
_atom_site_type_symbol
_atom_site_fract_x
_atom_site_fract_y
_atom_site_fract_z
V1	V	-3.970608	-0.096512	-0.247734
O2	O	-3.968495	0.004806	-0.242634
O3	O	-3.913559	-0.191528	-0.246409
O4	O	-3.901799	-0.094954	-0.355611
O5	O	-3.980337	-0.092438	-0.132676
V6	V	-4.458001	-0.084402	-0.233927
O7	O	-4.223377	-0.123076	-0.278020
O8	O	-4.655429	-0.057837	-0.203641
O9	O	-4.291842	0.010615	-0.235252
O10	O	-4.577510	-0.185719	-0.239027
O11	O	-4.565668	-0.088476	-0.348985
O12	O	-4.303603	-0.085960	-0.126050
C13	C	-3.757117	-0.214694	-0.242596
C14	C	-3.791624	-0.292370	-0.242231
C15	C	-4.221433	-0.855724	-0.244334
C16	C	-4.189027	-0.782738	-0.244672
C17	C	-3.991541	-0.742581	-0.240123
C18	C	-3.826443	-0.775413	-0.235216
C19	C	-3.858851	-0.848396	-0.234871
C20	C	-3.816484	-0.630507	-0.283741
C21	C	-3.784086	-0.557525	-0.284091
C22	C	-3.891576	-0.517474	-0.241183
C23	C	-4.031505	-0.550416	-0.197936
C24	C	-4.063912	-0.623400	-0.197591
C25	C	-3.956380	-0.663442	-0.240496
C26	C	-4.021526	-0.405511	-0.246449
C27	C	-3.989110	-0.332522	-0.246781
C28	C	-3.626524	-0.325200	-0.237334
C29	C	-3.658941	-0.398186	-0.236994
C30	C	-3.856448	-0.438337	-0.241556
C31	C	-3.742114	-0.091502	-0.381893
C32	C	-3.767082	-0.090857	-0.470085
C33	C	-3.959827	-0.094042	-0.515573
C34	C	-3.983275	-0.093435	-0.598439
C35	C	-3.813978	-0.089648	-0.635816
C36	C	-3.621217	-0.086461	-0.590322
C37	C	-3.597769	-0.087063	-0.507457
C38	C	-3.864692	-0.087470	-0.883211
C39	C	-3.888157	-0.086871	-0.966083
C40	C	-4.250213	-0.093843	-0.974194
C41	C	-4.226750	-0.094449	-0.891328
C42	C	-4.033990	-0.091258	-0.845840
N43	N	-3.837942	-0.089030	-0.720519
N44	N	-4.010026	-0.091871	-0.761138
C45	C	-4.111627	0.033776	-0.239063
C46	C	-4.056357	0.111452	-0.239433
C47	C	-4.126630	-0.089414	-0.099764
C48	C	-4.080901	-0.090056	-0.011571
H49	H	-3.724419	-0.875121	-0.230882
H50	H	-4.323455	-0.756006	-0.248658
O51	O	-4.434449	-0.899024	-0.249237
H52	H	-4.532817	-0.894167	-0.305884
O53	O	-3.705475	-0.082763	-1.006359
H54	H	-3.731360	-0.130159	-1.052567
O55	O	-4.142423	-0.098119	-0.475259
H56	H	-4.280384	-0.100222	-0.520813
H57	H	-4.140222	-0.096024	-0.635472
H58	H	-3.665646	-0.742712	-0.231511
H59	H	-3.440809	-0.084452	-0.470418
H60	H	-4.177841	-0.650218	-0.162377
O61	O	-4.409341	-0.098533	-0.851010
H62	H	-4.383328	-0.051137	-0.804791
O63	O	-3.633169	-0.522001	-0.330735
H64	H	-3.713131	-0.496356	-0.376844
H65	H	-3.483372	-0.083374	-0.620760
O66	O	-3.700557	-0.673699	-0.330036
H67	H	-3.746592	-0.729983	-0.322529
O68	O	-4.147449	-0.507231	-0.151646
H69	H	-4.101391	-0.450945	-0.159139
H70	H	-4.407151	-0.096440	-1.011239
H71	H	-3.707751	-0.084897	-0.846189
H72	H	-4.123543	-0.305798	-0.250769
O73	O	-4.234535	-0.448823	-0.251354
H74	H	-4.343878	-0.413731	-0.254804
H75	H	-3.524517	-0.424911	-0.233006
O76	O	-3.413517	-0.281900	-0.232431
H77	H	-3.418712	-0.225635	-0.233500
