data_functionalizedCrystal
_audit_creation_method	'MofGen! by Chris Wilmer'
_symmetry_space_group_name_H-M	'P1'
_symmetry_Int_Tables_number	1
_symmetry_cell_setting	triclinic
loop_
_symmetry_equiv_pos_as_xyz
  x,y,z
_cell_length_a	10.654546
_cell_length_b	14.185328
_cell_length_c	10.654551
_cell_angle_alpha	104.657423
_cell_angle_beta	95.515557
_cell_angle_gamma	75.331858
loop_
_atom_site_label
_atom_site_type_symbol
_atom_site_fract_x
_atom_site_fract_y
_atom_site_fract_z
O1	O	-1.693534	0.083585	0.202065
O2	O	-1.328044	0.083550	0.218865
O3	O	-1.519191	0.083569	0.027726
O4	O	-1.502386	0.083566	0.393204
O5	O	-1.467896	-0.083278	-0.023554
O6	O	-1.276748	-0.083298	0.167585
O7	O	-1.642238	-0.083262	0.150785
Cu8	Cu	-1.454809	-0.098514	0.154503
Cu9	Cu	-1.515472	0.098802	0.215147
O10	O	-1.451090	-0.083281	0.341924
C11	C	-1.255596	0.000122	0.191990
C12	C	-1.116149	0.000108	0.188296
N13	N	-1.412151	-0.237296	0.111848
C14	C	-1.036667	0.000118	0.300841
C15	C	-0.905649	0.000129	0.297369
C16	C	-0.933610	0.000124	0.068798
C17	C	-1.064623	0.000106	0.072269
C18	C	-1.088193	0.000121	0.416868
C19	C	-1.008709	0.000132	0.529423
C20	C	-0.877692	0.000142	0.525951
C21	C	-0.826157	0.000142	0.409924
C22	C	-1.683368	-0.604878	0.383147
C23	C	-1.651085	-0.709908	0.350817
C24	C	-1.497438	-0.709907	0.197065
C25	C	-1.529705	-0.604875	0.229386
C26	C	-1.622671	-0.552369	0.322427
C27	C	-1.469008	-0.552366	0.168666
C28	C	-1.501277	-0.447344	0.200980
C29	C	-1.594243	-0.394830	0.294014
C30	C	-1.654941	-0.447346	0.354741
C31	C	-1.376048	-0.604875	0.075619
C32	C	-1.315351	-0.552366	0.014899
C33	C	-1.347613	-0.447341	0.047219
C34	C	-1.440579	-0.394828	0.140254
C35	C	-1.286915	-0.394825	-0.013507
C36	C	-1.319184	-0.289802	0.018807
C37	C	-1.472848	-0.289805	0.172568
C38	C	-0.714682	0.000155	0.177660
C39	C	-0.854118	0.000137	0.181353
C40	C	-1.492310	0.000147	-0.044711
C41	C	-1.488620	0.000154	-0.184152
N42	N	-1.558140	0.237584	0.257792
C43	C	-1.514848	0.091100	-0.221712
C44	C	-1.511366	0.091095	-0.352734
C45	C	-1.455431	-0.090811	-0.408628
C46	C	-1.458904	-0.090805	-0.277607
C47	C	-1.544564	0.182059	-0.128258
C48	C	-1.570796	0.273013	-0.165815
C49	C	-1.567314	0.273008	-0.296837
C50	C	-1.537601	0.182049	-0.390301
C51	C	-1.477972	0.000143	0.414362
C52	C	-1.481665	0.000143	0.553805
H53	H	-1.194874	0.000117	0.419709
H54	H	-1.588661	0.347067	-0.327410
H55	H	-1.620517	-0.309314	0.320321
H56	H	-0.719468	0.000135	0.407102
F57	F	-1.430994	-0.187601	-0.237631
F58	F	-0.878759	0.000126	-0.054676
F59	F	-1.149218	0.000094	-0.047515
F60	F	-0.793100	0.000144	0.645737
F61	F	-1.063555	0.000122	0.652896
H62	H	-1.730630	-0.404593	0.430517
F63	F	-1.571803	-0.233918	0.271585
H64	H	-1.534749	0.182052	-0.496984
H65	H	-1.759057	-0.562124	0.458923
F66	F	-1.715700	-0.765788	0.415447
H67	H	-1.421748	-0.752672	0.121306
H68	H	-1.349785	-0.690391	0.049304
H69	H	-1.211230	-0.437591	-0.089271
F70	F	-1.216412	-0.608258	-0.084119
H71	H	-1.269756	-0.247049	-0.030636
F72	F	-1.423811	-0.187609	-0.508101
H73	H	-1.547406	0.182073	-0.021570
H74	H	-1.594976	0.347068	-0.089708
