data_functionalizedCrystal
_audit_creation_method	'MofGen! by Chris Wilmer'
_symmetry_space_group_name_H-M	'P1'
_symmetry_Int_Tables_number	1
_symmetry_cell_setting	triclinic
loop_
_symmetry_equiv_pos_as_xyz
  x,y,z
_cell_length_a	16.109295
_cell_length_b	16.109301
_cell_length_c	15.186229
_cell_angle_alpha	89.996650
_cell_angle_beta	90.000628
_cell_angle_gamma	96.539666
loop_
_atom_site_label
_atom_site_type_symbol
_atom_site_fract_x
_atom_site_fract_y
_atom_site_fract_z
O1	O	-0.106866	1.103128	-0.073222
O2	O	-0.120166	0.861066	-0.073223
O3	O	0.007515	0.988749	-0.073224
O4	O	-0.234547	0.975445	-0.073222
O5	O	0.007517	0.988741	0.073233
O6	O	-0.120164	0.861058	0.073234
O7	O	-0.106865	1.103120	0.073235
Zn8	Zn	-0.113514	0.982087	0.096488
Zn9	Zn	-0.113516	0.982099	-0.096476
O10	O	-0.234546	0.975437	0.073236
C11	C	-0.119626	0.830087	0.000005
C12	C	-0.118011	0.737792	0.000005
C13	C	0.038491	0.988207	0.000003
C14	C	0.130787	0.986594	-0.000004
C15	C	0.353060	1.058606	-0.000036
C16	C	0.439780	1.057084	-0.000050
C17	C	0.419906	0.905595	-0.000047
C18	C	0.333187	0.907118	-0.000038
C19	C	0.299766	0.983626	-0.000029
C20	C	0.473206	0.980580	-0.000051
C21	C	0.567232	0.978929	-0.000067
C22	C	0.205734	0.985277	-0.000014
C23	C	-0.107404	1.134099	0.000005
C24	C	-0.109019	1.226394	-0.000000
C25	C	0.734479	0.975984	-0.000014
C26	C	0.642186	0.977612	-0.000076
N27	N	-0.113512	0.982086	0.228181
C28	C	-0.037011	1.448668	0.000003
C29	C	-0.038535	1.535389	0.000006
C30	C	-0.190025	1.515511	0.000004
C31	C	-0.188500	1.428792	0.000007
C32	C	-0.111991	1.395374	0.000002
C33	C	-0.115040	1.568813	0.000002
C34	C	-0.116693	1.662839	0.000005
C35	C	-0.110337	1.301342	0.000000
N36	N	-0.113512	0.982107	-0.228169
C37	C	-0.056994	1.038643	0.453903
C38	C	-0.056992	1.038646	0.546093
C39	C	-0.170033	0.925543	0.546102
C40	C	-0.170030	0.925538	0.453914
C41	C	-0.113511	0.982092	0.407817
C42	C	-0.113512	0.982101	0.592195
C43	C	-0.113510	0.982103	0.692151
C44	C	-0.113512	0.982089	0.307855
H45	H	0.483169	1.118140	-0.000058
H46	H	-0.216050	0.879499	0.583644
N47	N	-0.230984	0.864534	0.404199
H48	H	-0.266792	0.828710	0.447389
H49	H	-0.267748	0.896344	0.365939
H50	H	0.289793	0.846056	-0.000035
H51	H	0.325852	1.120904	-0.000030
H52	H	-0.010972	1.084692	0.416373
N53	N	0.455961	0.823083	-0.000045
H54	H	0.436527	0.790234	0.054250
H55	H	0.436514	0.790299	-0.054369
N56	N	0.045505	1.412621	0.000001
H57	H	0.092772	1.459545	0.000004
H58	H	0.049435	1.377072	0.054296
H59	H	0.022520	1.578778	0.000009
H60	H	-0.252316	1.542732	0.000005
N61	N	-0.269388	1.371324	0.000013
H62	H	-0.272146	1.334896	-0.054273
H63	H	-0.272087	1.334960	0.054346
N64	N	0.003955	1.099651	0.595801
H65	H	0.039753	1.135479	0.552607
H66	H	-0.027901	1.136390	0.634038
