data_functionalizedCrystal
_audit_creation_method	'MofGen! by Chris Wilmer'
_symmetry_space_group_name_H-M	'P1'
_symmetry_Int_Tables_number	1
_symmetry_cell_setting	triclinic
loop_
_symmetry_equiv_pos_as_xyz
  x,y,z
_cell_length_a	15.944493
_cell_length_b	15.944493
_cell_length_c	11.892095
_cell_angle_alpha	93.894412
_cell_angle_beta	86.102145
_cell_angle_gamma	83.475044
loop_
_atom_site_label
_atom_site_type_symbol
_atom_site_fract_x
_atom_site_fract_y
_atom_site_fract_z
O1	O	1.119902	0.102734	-0.093974
O2	O	0.875343	0.116141	-0.093978
O3	O	1.004327	-0.012843	-0.093985
O4	O	0.990918	0.231718	-0.093967
O5	O	0.993572	-0.002105	0.094023
O6	O	0.864589	0.126879	0.094030
O7	O	1.109148	0.113472	0.094034
Zn8	Zn	0.985161	0.121880	0.123883
Zn9	Zn	0.999330	0.107733	-0.123826
O10	O	0.980164	0.242455	0.094041
C11	C	0.838671	0.120962	0.000026
C12	C	0.745423	0.119319	0.000023
C13	C	0.998402	-0.038769	0.000014
C14	C	0.996760	-0.132018	-0.000000
C15	C	0.509647	0.195242	0.000028
C16	C	0.453795	0.159594	0.092728
C17	C	0.574703	0.116275	0.000025
C18	C	0.464402	0.148989	-0.092633
C19	C	0.409794	0.113340	0.000022
C20	C	0.520074	0.080653	0.092801
C21	C	0.530690	0.070054	-0.092643
C22	C	0.474869	0.034350	0.000079
C23	C	0.669702	0.117968	0.000028
C24	C	0.314797	0.111641	0.000028
C25	C	1.072681	-0.367792	0.000022
C26	C	1.037041	-0.423646	-0.092676
C27	C	0.993715	-0.302737	0.000013
C28	C	1.026420	-0.413035	0.092686
C29	C	0.990779	-0.467645	0.000032
C30	C	0.958101	-0.357367	-0.092761
C31	C	0.947486	-0.346749	0.092684
C32	C	0.911790	-0.402571	-0.000037
C33	C	0.995408	-0.207738	0.000002
C34	C	0.989080	-0.562642	0.000035
C35	C	1.145820	0.108651	0.000028
C36	C	1.239068	0.110293	0.000023
C37	C	0.986089	0.268381	0.000040
C38	C	0.987731	0.361630	0.000047
N39	N	0.975496	0.131535	0.292937
N40	N	1.009001	0.098071	-0.292881
C41	C	1.076248	0.030840	0.529579
C42	C	1.069499	0.037595	0.647921
C43	C	0.955246	0.151795	0.647966
C44	C	0.961995	0.145040	0.529624
C45	C	1.022499	0.084562	0.470435
C46	C	1.029251	0.077811	0.352090
C47	C	0.914995	0.192007	0.352137
C48	C	0.908246	0.198761	0.470479
H49	H	0.525251	0.263268	0.000120
H50	H	1.074873	-0.457075	-0.171045
Cl51	Cl	1.071009	-0.450801	0.213675
H52	H	0.564126	0.032254	-0.171022
H53	H	0.439939	0.177878	-0.170993
H54	H	0.843720	-0.418026	-0.000089
H55	H	0.544421	0.051805	0.171249
Cl56	Cl	0.450998	-0.070741	0.000153
H57	H	0.909683	-0.313305	0.171056
H58	H	0.929259	-0.333021	-0.171214
H59	H	1.113266	-0.006151	0.696074
H60	H	0.420367	0.197419	0.171102
H61	H	1.140706	-0.352183	-0.000070
Cl62	Cl	1.105314	0.001784	0.277683
Cl63	Cl	1.152317	-0.045179	0.455168
H64	H	0.905980	0.201029	0.696173
H65	H	0.858982	0.248000	0.518685
Cl66	Cl	0.847427	0.259550	0.277773
