data_functionalizedCrystal
_audit_creation_method	'MofGen! by Chris Wilmer'
_symmetry_space_group_name_H-M	'P1'
_symmetry_Int_Tables_number	1
_symmetry_cell_setting	triclinic
loop_
_symmetry_equiv_pos_as_xyz
  x,y,z
_cell_length_a	21.295418
_cell_length_b	25.639239
_cell_length_c	21.295411
_cell_angle_alpha	90.019526
_cell_angle_beta	90.043738
_cell_angle_gamma	90.054499
loop_
_atom_site_label
_atom_site_type_symbol
_atom_site_fract_x
_atom_site_fract_y
_atom_site_fract_z
Zn1	Zn	0.962320	-0.207990	0.356243
Zn2	Zn	1.295653	0.125344	0.689576
Zn3	Zn	1.628987	0.458677	1.022910
Zn4	Zn	0.962207	-0.295410	0.250972
Zn5	Zn	1.295541	0.037924	0.584305
Zn6	Zn	1.628874	0.371257	0.917639
Zn7	Zn	0.857043	-0.208014	0.250953
Zn8	Zn	1.190377	0.125319	0.584286
Zn9	Zn	1.523710	0.458652	0.917619
Zn10	Zn	0.856998	-0.295420	0.356169
Zn11	Zn	1.190331	0.037913	0.689502
Zn12	Zn	1.523664	0.371247	1.022835
O13	O	0.909642	-0.251708	0.303584
O14	O	1.242975	0.081625	0.636917
O15	O	1.576309	0.414958	0.970251
O16	O	1.050395	-0.219572	0.342318
O17	O	1.383728	0.113762	0.675651
O18	O	1.717061	0.447095	1.008984
O19	O	0.948229	-0.283822	0.162880
O20	O	1.281562	0.049511	0.496213
O21	O	1.614896	0.382844	0.829547
O22	O	0.871075	-0.134846	0.264943
O23	O	1.204408	0.198488	0.598276
O24	O	1.537741	0.531821	0.931609
O25	O	1.050312	-0.283799	0.264976
O26	O	1.383645	0.049535	0.598309
O27	O	1.716978	0.382868	0.931642
O28	O	0.948421	-0.134828	0.342299
O29	O	1.281754	0.198506	0.675632
O30	O	1.615088	0.531839	1.008965
O31	O	0.870965	-0.219613	0.162866
O32	O	1.204299	0.113720	0.496199
O33	O	1.537632	0.447053	0.829532
O34	O	0.768948	-0.219623	0.264871
O35	O	1.102281	0.113710	0.598204
O36	O	1.435614	0.447043	0.931537
O37	O	0.870997	-0.283816	0.444268
O38	O	1.204330	0.049517	0.777601
O39	O	1.537664	0.382850	1.110935
O40	O	0.768914	-0.283840	0.342172
O41	O	1.102248	0.049493	0.675506
O42	O	1.435581	0.382827	1.008839
O43	O	0.948377	-0.219582	0.444322
O44	O	1.281710	0.113752	0.777656
O45	O	1.615043	0.447085	1.110989
O46	O	0.948185	-0.368576	0.264904
O47	O	1.281518	-0.035243	0.598237
O48	O	1.614852	0.298090	0.931570
O49	O	0.870888	-0.368584	0.342191
O50	O	1.204221	-0.035251	0.675524
O51	O	1.537554	0.298083	1.008858
C52	C	0.746090	-0.251736	0.303512
C53	C	1.079424	0.081597	0.636845
C54	C	1.412757	0.414931	0.970178
C55	C	0.676122	-0.251760	0.303496
C56	C	1.009456	0.081573	0.636829
C57	C	1.342789	0.414906	0.970162
C58	C	0.909536	-0.387551	0.303555
C59	C	1.242870	-0.054218	0.636889
C60	C	1.576203	0.279116	0.970222
C61	C	0.909548	-0.445665	0.303564
C62	C	1.242882	-0.112332	0.636897
C63	C	1.576215	0.221002	0.970231
C64	C	0.643255	-0.285242	0.343686
C65	C	0.976588	0.048091	0.677020
C66	C	1.309921	0.381424	1.010353
C67	C	0.577512	-0.285229	0.343715
C68	C	0.910845	0.048104	0.677048
C69	C	1.244179	0.381437	1.010381
C70	C	0.544640	-0.251740	0.303541
C71	C	0.877973	0.081593	0.636874
C72	C	1.211306	0.414927	0.970207
C73	C	0.577515	-0.218252	0.263347
C74	C	0.910849	0.115082	0.596680
C75	C	1.244182	0.448415	0.930014
C76	C	0.643257	-0.218262	0.263325
C77	C	0.976590	0.115072	0.596658
C78	C	1.309923	0.448405	0.929991
N79	N	0.441365	-0.247648	0.248483
N80	N	0.774698	0.085686	0.581816
N81	N	1.108031	0.419019	0.915150
N82	N	0.378913	-0.247641	0.248506
N83	N	0.712246	0.085692	0.581840
N84	N	1.045580	0.419026	0.915173
C85	C	0.346565	-0.251707	0.303608
C86	C	0.679898	0.081627	0.636941
C87	C	1.013232	0.414960	0.970274
N88	N	0.379028	-0.255789	0.358686
N89	N	0.712361	0.077544	0.692019
N90	N	1.045695	0.410877	1.025353
N91	N	0.441485	-0.255799	0.358662
N92	N	0.774818	0.077535	0.691995
N93	N	1.108152	0.410868	1.025328
C94	C	0.473354	-0.251725	0.303561
C95	C	0.806688	0.081608	0.636894
C96	C	1.140021	0.414942	0.970228
C97	C	0.242412	-0.285176	0.343832
C98	C	0.575745	0.048157	0.677166
C99	C	0.909079	0.381490	1.010499
C100	C	0.176668	-0.285160	0.343862
C101	C	0.510002	0.048173	0.677195
C102	C	0.843335	0.381507	1.010528
C103	C	0.176673	-0.218185	0.263489
C104	C	0.510006	0.115148	0.596822
C105	C	0.843339	0.448482	0.930155
C106	C	0.242415	-0.218199	0.263465
C107	C	0.575749	0.115135	0.596798
C108	C	0.909082	0.448468	0.930132
C109	C	0.275281	-0.251697	0.303636
C110	C	0.608614	0.081636	0.636969
C111	C	0.941948	0.414969	0.970303
C112	C	0.949996	-0.806011	0.263409
C113	C	1.283329	-0.472678	0.596742
C114	C	1.616662	-0.139345	0.930076
C115	C	0.950020	-0.860616	0.263418
C116	C	1.283353	-0.527282	0.596751
C117	C	1.616687	-0.193949	0.930084
O118	O	0.984300	-0.888838	0.229245
O119	O	1.317633	-0.555505	0.562578
O120	O	1.650967	-0.222172	0.895912
N121	N	0.909753	-0.887947	0.303626
N122	N	1.243086	-0.554614	0.636959
N123	N	1.576419	-0.221281	0.970292
C124	C	0.869463	-0.860672	0.343833
C125	C	1.202796	-0.527339	0.677166
C126	C	1.536129	-0.194005	1.010499
O127	O	0.835215	-0.888934	0.378034
O128	O	1.168548	-0.555600	0.711368
O129	O	1.501881	-0.222267	1.044701
C130	C	0.869442	-0.806069	0.343827
C131	C	1.202775	-0.472735	0.677160
C132	C	1.536109	-0.139402	1.010494
C133	C	0.909708	-0.778740	0.303612
C134	C	1.243041	-0.445406	0.636945
C135	C	1.576374	-0.112073	0.970278
C136	C	0.990259	-0.778683	0.223198
C137	C	1.323592	-0.445349	0.556531
C138	C	1.656925	-0.112016	0.889864
C139	C	0.990233	-0.724082	0.223188
C140	C	1.323567	-0.390749	0.556522
C141	C	1.656900	-0.057415	0.889855
C142	C	0.949945	-0.696810	0.263391
C143	C	1.283278	-0.363477	0.596724
C144	C	1.616612	-0.030144	0.930058
C145	C	0.909682	-0.724139	0.303603
C146	C	1.243016	-0.390806	0.636936
C147	C	1.576349	-0.057473	0.970269
C148	C	0.829156	-0.778794	0.384037
C149	C	1.162489	-0.445461	0.717370
C150	C	1.495822	-0.112127	1.050703
C151	C	0.829139	-0.724187	0.384028
C152	C	1.162472	-0.390854	0.717361
C153	C	1.495805	-0.057520	1.050695
C154	C	0.869404	-0.696858	0.343812
C155	C	1.202738	-0.363525	0.677146
C156	C	1.536071	-0.030192	1.010479
C157	C	0.869369	-0.642267	0.343796
C158	C	1.202702	-0.308934	0.677129
C159	C	1.536035	0.024400	1.010463
N160	N	0.909636	-0.614935	0.303588
N161	N	1.242969	-0.281602	0.636921
N162	N	1.576303	0.051731	0.970254
C163	C	0.949924	-0.642207	0.263385
C164	C	1.283258	-0.308874	0.596719
C165	C	1.616591	0.024460	0.930052
C166	C	0.869510	-0.975343	0.343842
C167	C	1.202844	-0.642009	0.677176
C168	C	1.536177	-0.308676	1.010509
C169	C	0.869527	-1.029945	0.343845
C170	C	1.202861	-0.696611	0.677179
C171	C	1.536194	-0.363278	1.010512
C172	C	0.950086	-1.029885	0.263431
C173	C	1.283419	-0.696552	0.596764
C174	C	1.616752	-0.363218	0.930098
C175	C	0.950065	-0.975282	0.263425
C176	C	1.283398	-0.641948	0.596759
C177	C	1.616732	-0.308615	0.930092
C178	C	0.909778	-0.948011	0.303634
C179	C	1.243111	-0.614678	0.636968
C180	C	1.576444	-0.281344	0.970301
C181	C	0.949868	-0.527542	0.263369
C182	C	1.283201	-0.194209	0.596702
C183	C	1.616534	0.139125	0.930035
C184	C	0.949837	-0.472937	0.263361
C185	C	1.283170	-0.139603	0.596695
C186	C	1.616503	0.193730	0.930028
C187	C	0.869281	-0.473001	0.343778
C188	C	1.202614	-0.139668	0.677111
C189	C	1.535948	0.193665	1.010445
C190	C	0.869309	-0.527602	0.343783
C191	C	1.202642	-0.194269	0.677117
C192	C	1.535976	0.139065	1.010450
C193	C	0.909607	-0.554871	0.303577
C194	C	1.242941	-0.221538	0.636910
C195	C	1.576274	0.111796	0.970243
O196	O	0.835108	-0.614010	0.377953
O197	O	1.168441	-0.280676	0.711286
O198	O	1.501775	0.052657	1.044620
O199	O	0.984172	-0.613939	0.229195
O200	O	1.317506	-0.280605	0.562529
O201	O	1.650839	0.052728	0.895862
C202	C	1.073832	-0.251681	0.303657
C203	C	1.407166	0.081652	0.636990
C204	C	1.740499	0.414985	0.970324
C205	C	1.143801	-0.251670	0.303688
C206	C	1.477134	0.081664	0.637022
C207	C	1.810467	0.414997	0.970355
C208	C	0.909694	-0.251697	0.467774
C209	C	1.243028	0.081636	0.801108
C210	C	1.576361	0.414969	1.134441
C211	C	0.909717	-0.251693	0.537743
C212	C	1.243050	0.081641	0.871076
C213	C	1.576383	0.414974	1.204409
C214	C	0.909766	-0.115335	0.303627
C215	C	1.243099	0.217998	0.636960
C216	C	1.576432	0.551331	0.970293
C217	C	0.909818	-0.057221	0.303645
C218	C	1.243151	0.276112	0.636978
C219	C	1.576485	0.609445	0.970312
C220	C	0.909626	-0.251682	0.140032
C221	C	1.242960	0.081652	0.473366
C222	C	1.576293	0.414985	0.806699
C223	C	0.909726	-0.251539	0.070065
C224	C	1.243059	0.081794	0.403398
C225	C	1.576393	0.415128	0.736731
C226	C	0.950007	-0.218244	0.570639
C227	C	1.283340	0.115089	0.903972
C228	C	1.616673	0.448423	1.237305
C229	C	0.950006	-0.218221	0.636381
C230	C	1.283339	0.115112	0.969714
C231	C	1.616672	0.448445	1.303048
C232	C	0.909721	-0.251657	0.669225
C233	C	1.243055	0.081677	1.002558
C234	C	1.576388	0.415010	1.335892
C235	C	0.869424	-0.285108	0.636321
C236	C	1.202757	0.048226	0.969654
C237	C	1.536090	0.381559	1.302988
C238	C	0.869421	-0.285126	0.570580
C239	C	1.202755	0.048208	0.903913
C240	C	1.536088	0.381541	1.237246
N241	N	0.904857	-0.297396	0.772441
N242	N	1.238190	0.035937	1.105774
N243	N	1.571524	0.369271	1.439108
N244	N	0.904863	-0.297377	0.834892
N245	N	1.238196	0.035956	1.168226
N246	N	1.571530	0.369289	1.501559
C247	C	0.909725	-0.251604	0.867300
C248	C	1.243059	0.081730	1.200633
C249	C	1.576392	0.415063	1.533967
N250	N	0.914594	-0.205848	0.834897
N251	N	1.247927	0.127485	1.168230
N252	N	1.581261	0.460818	1.501563
N253	N	0.914591	-0.205867	0.772440
N254	N	1.247925	0.127466	1.105773
N255	N	1.581258	0.460799	1.439106
C256	C	0.909719	-0.251641	0.740511
C257	C	1.243053	0.081693	1.073844
C258	C	1.576386	0.415026	1.407177
C259	C	0.950017	-0.218128	0.971482
C260	C	1.283350	0.115206	1.304815
C261	C	1.616683	0.448539	1.638148
C262	C	0.950011	-0.218104	1.037225
C263	C	1.283345	0.115229	1.370559
C264	C	1.616678	0.448562	1.703892
C265	C	0.869433	-0.284995	1.037164
C266	C	1.202766	0.048338	1.370497
C267	C	1.536099	0.381672	1.703831
C268	C	0.869435	-0.285014	0.971422
C269	C	1.202768	0.048320	1.304755
C270	C	1.536101	0.381653	1.638088
C271	C	0.909730	-0.251581	0.938584
C272	C	1.243063	0.081752	1.271918
C273	C	1.576397	0.415086	1.605251
H274	H	0.670010	-0.312519	0.376398
H275	H	1.003343	0.020815	0.709731
H276	H	1.336676	0.354148	1.043064
C277	C	0.994409	-1.059894	0.219212
C278	C	1.327742	-0.726561	0.552545
C279	C	1.661075	-0.393228	0.885879
N280	N	1.027792	-1.082499	0.185909
N281	N	1.361125	-0.749166	0.519243
N282	N	1.694458	-0.415832	0.852576
H283	H	0.982684	-0.549738	0.230630
H284	H	1.316017	-0.216405	0.563963
H285	H	1.649350	0.116929	0.897297
C286	C	0.825108	-0.321884	0.672451
C287	C	1.158441	0.011449	1.005784
C288	C	1.491775	0.344783	1.339117
N289	N	0.791726	-0.349583	0.699664
N290	N	1.125059	-0.016250	1.032997
N291	N	1.458392	0.317083	1.366330
C292	C	0.825098	-0.321924	0.534393
C293	C	1.158432	0.011409	0.867726
C294	C	1.491765	0.344742	1.201060
N295	N	0.791715	-0.349643	0.507136
N296	N	1.125048	-0.016309	0.840470
N297	N	1.458382	0.317024	1.173803
H298	H	0.982813	-0.190981	0.663170
H299	H	1.316147	0.142353	0.996504
H300	H	1.649480	0.475686	1.329837
H301	H	0.670017	-0.190995	0.230596
H302	H	1.003350	0.142338	0.563929
H303	H	1.336684	0.475672	0.897263
C304	C	0.994336	-0.181347	0.935358
C305	C	1.327670	0.151987	1.268692
C306	C	1.661003	0.485320	1.602025
N307	N	1.027717	-0.153642	0.908152
N308	N	1.361051	0.179691	1.241485
N309	N	1.694384	0.513025	1.574819
H310	H	0.269176	-0.190937	0.230734
H311	H	0.602510	0.142397	0.564067
H312	H	0.935843	0.475730	0.897401
H313	H	0.149909	-0.190915	0.230781
H314	H	0.483242	0.142419	0.564115
H315	H	0.816575	0.475752	0.897448
C316	C	0.825120	-0.321775	1.073289
C317	C	1.158453	0.011559	1.406622
C318	C	1.491786	0.344892	1.739955
N319	N	0.791742	-0.349478	1.100501
N320	N	1.125075	-0.016144	1.433834
N321	N	1.458408	0.317189	1.767167
H322	H	0.836698	-0.953141	0.376584
H323	H	1.170032	-0.619808	0.709917
H324	H	1.503365	-0.286475	1.043250
C325	C	0.994131	-0.442878	0.219116
C326	C	1.327464	-0.109545	0.552450
C327	C	1.660797	0.223788	0.885783
N328	N	1.027492	-0.420240	0.185792
N329	N	1.360825	-0.086907	0.519125
N330	N	1.694159	0.246427	0.852458
C331	C	0.825114	-0.321813	0.935234
C332	C	1.158448	0.011521	1.268568
C333	C	1.491781	0.344854	1.601901
N334	N	0.791729	-0.349530	0.907979
N335	N	1.125062	-0.016196	1.241312
N336	N	1.458395	0.317137	1.574645
H337	H	0.269173	-0.312450	0.376545
H338	H	0.602506	0.020883	0.709879
H339	H	0.935839	0.354216	1.043212
C340	C	1.034524	-0.694028	0.178943
C341	C	1.367857	-0.360694	0.512276
C342	C	1.701191	-0.027361	0.845609
N343	N	1.067884	-0.671394	0.145613
N344	N	1.401218	-0.338061	0.478946
N345	N	1.734551	-0.004727	0.812280
C346	C	0.784861	-0.808844	0.428279
C347	C	1.118195	-0.475510	0.761613
C348	C	1.451528	-0.142177	1.094946
N349	N	0.751497	-0.831476	0.461607
N350	N	1.084830	-0.498143	0.794940
N351	N	1.418164	-0.164809	1.128274
C352	C	1.034579	-0.808673	0.178964
C353	C	1.367913	-0.475340	0.512297
C354	C	1.701246	-0.142006	0.845631
N355	N	1.067960	-0.831258	0.145640
N356	N	1.401294	-0.497925	0.478974
N357	N	1.734627	-0.164591	0.812307
C358	C	0.994335	-0.181305	1.073411
C359	C	1.327668	0.152028	1.406744
C360	C	1.661002	0.485362	1.740078
N361	N	1.027721	-0.153588	1.100666
N362	N	1.361054	0.179745	1.434000
N363	N	1.694388	0.513079	1.767333
C364	C	0.140514	-0.321999	0.388072
C365	C	0.473847	0.011334	0.721405
C366	C	0.807181	0.344668	1.054739
N367	N	0.113282	-0.349750	0.421369
N368	N	0.446615	-0.016416	0.754702
N369	N	0.779949	0.316917	1.088036
H370	H	0.836733	-1.052191	0.376587
H371	H	1.170066	-0.718858	0.709920
H372	H	1.503400	-0.385525	1.043254
C373	C	0.994362	-0.945225	0.219188
C374	C	1.327695	-0.611892	0.552521
C375	C	1.661028	-0.278558	0.885854
N376	N	1.027729	-0.922589	0.185867
N377	N	1.361062	-0.589256	0.519200
N378	N	1.694396	-0.255922	0.852533
H379	H	0.550746	-0.312494	0.376445
H380	H	0.884079	0.020839	0.709778
H381	H	1.217413	0.354173	1.043112
H382	H	0.550747	-0.190983	0.230639
H383	H	0.884080	0.142350	0.563972
H384	H	1.217413	0.475683	0.897305
H385	H	0.796333	-0.701986	0.416773
H386	H	1.129666	-0.368653	0.750106
H387	H	1.462999	-0.035319	1.083440
C388	C	0.825013	-0.557664	0.388020
C389	C	1.158346	-0.224331	0.721353
C390	C	1.491680	0.109002	1.054686
N391	N	0.791653	-0.580304	0.421344
N392	N	1.124986	-0.246971	0.754678
N393	N	1.458320	0.086363	1.088011
H394	H	0.836477	-0.450788	0.376509
H395	H	1.169810	-0.117455	0.709842
H396	H	1.503143	0.215878	1.043175
H397	H	0.982818	-0.191020	0.543907
H398	H	1.316151	0.142314	0.877240
H399	H	1.649484	0.475647	1.210573
