data_functionalizedCrystal
_audit_creation_method	'MofGen! by Chris Wilmer'
_symmetry_space_group_name_H-M	'P1'
_symmetry_Int_Tables_number	1
_symmetry_cell_setting	triclinic
loop_
_symmetry_equiv_pos_as_xyz
  x,y,z
_cell_length_a	10.540514
_cell_length_b	10.540539
_cell_length_c	12.996460
_cell_angle_alpha	89.996006
_cell_angle_beta	89.993916
_cell_angle_gamma	84.520326
loop_
_atom_site_label
_atom_site_type_symbol
_atom_site_fract_x
_atom_site_fract_y
_atom_site_fract_z
O1	O	1.685908	0.178750	-0.085574
O2	O	2.185908	0.678750	0.414426
O3	O	1.316491	0.195639	-0.085573
O4	O	1.816491	0.695639	0.414427
O5	O	1.509627	0.002488	-0.085573
O6	O	2.009627	0.502488	0.414427
O7	O	1.492771	0.371902	-0.085575
O8	O	1.992771	0.871902	0.414425
O9	O	1.509607	0.002477	0.085561
O10	O	2.009607	0.502477	0.585561
O11	O	1.316470	0.195629	0.085561
O12	O	1.816470	0.695629	0.585561
O13	O	1.685887	0.178739	0.085559
O14	O	2.185887	0.678739	0.585559
Cu15	Cu	1.501177	0.187183	0.101186
Cu16	Cu	2.001177	0.687183	0.601186
Cu17	Cu	1.501201	0.187196	-0.101200
Cu18	Cu	2.001201	0.687196	0.398800
O19	O	1.492751	0.371891	0.085559
O20	O	1.992751	0.871891	0.585559
C21	C	1.269177	0.194374	-0.000006
C22	C	1.769177	0.694374	0.499994
C23	C	1.128227	0.190605	-0.000006
C24	C	1.628227	0.690605	0.499994
C25	C	1.057522	0.328745	-0.000009
C26	C	1.557522	0.828745	0.499991
C27	C	0.910908	0.324871	-0.000403
C28	C	1.410908	0.824871	0.499597
C29	C	0.935901	0.115484	-0.097547
C30	C	1.435901	0.615484	0.402453
C31	C	1.082441	0.120338	-0.097624
C32	C	1.582441	0.620338	0.402376
C33	C	1.082820	0.118281	0.096994
C34	C	1.582820	0.618281	0.596994
C35	C	0.935841	0.116948	0.098271
C36	C	1.435841	0.616948	0.598271
C37	C	1.508353	-0.044821	-0.000008
C38	C	2.008353	0.455179	0.499992
C39	C	1.504571	-0.185769	-0.000013
C40	C	2.004571	0.314231	0.499987
C41	C	1.359652	-0.369182	-0.000397
C42	C	1.859652	0.130818	0.499603
C43	C	1.363486	-0.222564	-0.000011
C44	C	1.863486	0.277436	0.499989
C45	C	1.572456	-0.247439	0.097712
C46	C	2.072456	0.252561	0.597712
C47	C	1.567641	-0.393983	0.097795
C48	C	2.067641	0.106017	0.597795
C49	C	1.570533	-0.394489	-0.096816
C50	C	2.070533	0.105511	0.403184
C51	C	1.571833	-0.247507	-0.098108
C52	C	2.071833	0.252493	0.401892
C53	C	1.733201	0.180004	-0.000010
C54	C	2.233201	0.680004	0.499990
C55	C	1.874151	0.183774	-0.000017
C56	C	2.374151	0.683774	0.499983
C57	C	1.494025	0.419199	-0.000009
C58	C	1.994025	0.919199	0.499991
C59	C	1.497807	0.560147	-0.000010
C60	C	1.997807	1.060147	0.499990
N61	N	1.501169	0.187173	0.243533
N62	N	2.001169	0.687173	0.743533
N63	N	1.501219	0.187196	-0.243547
N64	N	2.001219	0.687196	0.256453
C65	C	1.501199	0.187197	0.663347
C66	C	2.001199	0.687197	1.163347
C67	C	1.501187	0.187195	0.546542
C68	C	2.001187	0.687195	1.046542
C69	C	1.501185	0.187186	0.453444
C70	C	2.001185	0.687186	0.953444
C71	C	1.501171	0.187182	0.336631
C72	C	2.001171	0.687182	0.836631
H73	H	1.087757	0.383968	-0.069847
H74	H	1.587757	0.883968	0.430153
C75	C	0.903157	-0.021991	0.106629
C76	C	1.403157	0.478009	0.606629
N77	N	0.878538	-0.126644	0.112917
N78	N	1.378538	0.373356	0.612917
H79	H	1.110674	0.170224	-0.170808
H80	H	1.610674	0.670224	0.329192
C81	C	1.504795	-0.192224	-0.195779
C82	C	2.004795	0.307776	0.304221
N83	N	1.454289	-0.150588	-0.269344
N84	N	1.954289	0.349412	0.230656
C85	C	1.508721	-0.189900	0.195962
C86	C	2.008721	0.310100	0.695962
N87	N	1.460707	-0.146565	0.269962
N88	N	1.960707	0.353435	0.769962
C89	C	0.854538	0.397125	-0.095416
C90	C	1.354538	0.897125	0.404584
N91	N	0.812081	0.451544	-0.166988
N92	N	1.312081	0.951544	0.333012
H93	H	0.893303	0.162303	-0.170406
H94	H	1.393303	0.662303	0.329594
C95	C	1.125347	0.180403	0.196895
C96	C	1.625347	0.680403	0.696895
N97	N	1.157376	0.227207	0.272135
N98	N	1.657376	0.727207	0.772135
C99	C	1.284361	-0.407820	-0.095065
C100	C	1.784361	0.092180	0.404935
N101	N	1.227648	-0.436934	-0.166370
N102	N	1.727648	0.063066	0.333630
C103	C	1.291313	-0.164992	-0.094646
C104	C	1.791313	0.335008	0.405354
N105	N	1.236942	-0.121634	-0.165925
N106	N	1.736942	0.378366	0.334075
C107	C	0.905750	-0.024516	-0.102081
C108	C	1.405750	0.475484	0.397919
N109	N	0.883036	-0.129965	-0.105494
N110	N	1.383036	0.370035	0.394506
C111	C	0.880437	0.184358	0.195751
C112	C	1.380437	0.684358	0.695751
N113	N	0.838696	0.235132	0.269171
N114	N	1.338696	0.735132	0.769171
H115	H	1.524880	-0.426033	-0.170886
H116	H	2.024880	0.073967	0.329114
C117	C	1.710801	-0.214808	-0.106079
C118	C	2.210801	0.285192	0.393921
N119	N	1.815479	-0.190184	-0.112072
N120	N	2.315479	0.309816	0.387928
H121	H	0.868236	0.378583	0.069495
H122	H	1.368236	0.878583	0.569495
H123	H	1.130076	0.016388	0.097936
H124	H	1.630076	0.516388	0.597936
C125	C	1.284669	-0.409950	0.093771
C126	C	1.784669	0.090050	0.593771
N127	N	1.228200	-0.440645	0.164707
N128	N	1.728200	0.059355	0.664707
H129	H	1.309679	-0.180808	0.070159
H130	H	1.809679	0.319192	0.570159
C131	C	1.499825	-0.432080	0.196479
C132	C	1.999825	0.067920	0.696479
N133	N	1.448741	-0.460769	0.270808
N134	N	1.948741	0.039231	0.770808
H135	H	1.669106	-0.441961	0.102228
H136	H	2.169106	0.058039	0.602228
H137	H	1.086053	0.384779	0.069920
H138	H	1.586053	0.884779	0.569920
H139	H	1.676064	-0.225094	0.101346
H140	H	2.176064	0.274906	0.601346
H141	H	1.130447	0.018865	-0.101787
H142	H	1.630447	0.518865	0.398213
H143	H	1.672438	-0.441724	-0.097474
H144	H	2.172438	0.058276	0.402526
