data_functionalizedCrystal
_audit_creation_method	'MofGen! by Chris Wilmer'
_symmetry_space_group_name_H-M	'P1'
_symmetry_Int_Tables_number	1
_symmetry_cell_setting	triclinic
loop_
_symmetry_equiv_pos_as_xyz
  x,y,z
_cell_length_a	6.817900
_cell_length_b	11.452831
_cell_length_c	12.000055
_cell_angle_alpha	78.616848
_cell_angle_beta	119.142236
_cell_angle_gamma	108.696887
loop_
_atom_site_label
_atom_site_type_symbol
_atom_site_fract_x
_atom_site_fract_y
_atom_site_fract_z
V1	V	-4.216129	-0.173099	-0.360065
O2	O	-4.206877	0.003561	-0.391774
O3	O	-4.159773	-0.338652	-0.320514
O4	O	-4.253319	-0.172524	-0.534023
O5	O	-4.112683	-0.163717	-0.176787
V6	V	-4.689697	-0.151722	-0.342649
O7	O	-4.499224	-0.219992	-0.398268
O8	O	-4.856800	-0.104829	-0.304445
O9	O	-4.522847	0.013831	-0.382200
O10	O	-4.816346	-0.328383	-0.310940
O11	O	-4.910540	-0.161105	-0.525927
O12	O	-4.429301	-0.152297	-0.168691
C13	C	-4.000069	-0.378945	-0.305263
C14	C	-4.035849	-0.514300	-0.274085
C15	C	-4.181094	-0.732362	-0.335249
C16	C	-4.144118	-0.592466	-0.367481
C17	C	-4.119394	-0.167030	-0.577614
C18	C	-4.231032	-0.167655	-0.719582
C19	C	-4.104920	-0.162087	-0.777990
C20	C	-4.220300	-0.162733	-0.924721
C21	C	-4.345891	0.054117	-0.397446
C22	C	-4.289353	0.189471	-0.428632
C23	C	-4.226564	-0.157795	-0.125092
C24	C	-4.094164	-0.157164	0.016875
H25	H	-3.911536	-0.156848	-0.719366
C26	C	-4.093526	-0.781123	-0.196789
C27	C	-3.852115	-0.733052	-0.131050
C28	C	-3.771357	-0.777952	-0.003499
H29	H	-4.166201	-0.756666	-0.158187
H30	H	-4.129798	-0.868655	-0.193463
H31	H	-3.815864	-0.645539	-0.134369
H32	H	-3.779380	-0.757505	-0.169612
H33	H	-3.807629	-0.865484	-0.000173
H34	H	-3.844048	-0.753492	0.035090
H35	H	-3.607551	-0.745351	0.041118
C36	C	-3.836207	-0.149999	-0.905107
C37	C	-3.707563	-0.041003	-0.940557
C38	C	-3.469941	-0.034382	-0.868709
H39	H	-3.792673	-0.150433	-0.816860
H40	H	-3.805810	-0.219008	-0.920592
H41	H	-3.737945	0.027987	-0.925062
H42	H	-3.751025	-0.040545	-1.028792
H43	H	-3.439544	-0.103390	-0.884193
H44	H	-3.426432	-0.034820	-0.780465
H45	H	-3.382628	0.039565	-0.892759
H46	H	-4.413699	-0.167986	-0.983339
H47	H	-4.424422	-0.172908	-0.778205
C48	C	-3.948944	-0.562969	-0.135601
C49	C	-4.056733	-0.526683	-0.079267
C50	C	-3.976715	-0.571475	0.048306
H51	H	-3.985320	-0.650495	-0.132143
H52	H	-3.785157	-0.530420	-0.090727
H53	H	-4.220483	-0.559238	-0.124129
H54	H	-4.020369	-0.439163	-0.082690
H55	H	-3.812928	-0.538926	0.093181
H56	H	-4.013095	-0.659000	0.051751
H57	H	-4.049821	-0.546852	0.086548
C58	C	-4.230852	-0.543678	-0.505924
C59	C	-4.122995	-0.579901	-0.562260
C60	C	-4.202811	-0.534964	-0.689783
H61	H	-4.394612	-0.576151	-0.550895
H62	H	-4.194355	-0.456139	-0.509240
H63	H	-4.159509	-0.667423	-0.558952
H64	H	-3.959238	-0.547430	-0.517327
H65	H	-4.166314	-0.447425	-0.693099
H66	H	-4.366570	-0.567441	-0.734742
H67	H	-4.129626	-0.559525	-0.728019
C68	C	-4.376890	-0.761863	-0.567122
C69	C	-4.618286	-0.809980	-0.632876
C70	C	-4.699007	-0.765194	-0.760462
H71	H	-4.340715	-0.674344	-0.570573
H72	H	-4.304093	-0.786385	-0.605624
H73	H	-4.691059	-0.785450	-0.594385
H74	H	-4.654524	-0.897494	-0.629461
H75	H	-4.626210	-0.789716	-0.798964
H76	H	-4.662817	-0.677676	-0.763900
H77	H	-4.862798	-0.797843	-0.805094
