data_functionalizedCrystal
_audit_creation_method	'MofGen! by Chris Wilmer'
_symmetry_space_group_name_H-M	'P1'
_symmetry_Int_Tables_number	1
_symmetry_cell_setting	triclinic
loop_
_symmetry_equiv_pos_as_xyz
  x,y,z
_cell_length_a	14.560432
_cell_length_b	20.875492
_cell_length_c	20.875641
_cell_angle_alpha	60.662107
_cell_angle_beta	90.002442
_cell_angle_gamma	58.317631
loop_
_atom_site_label
_atom_site_type_symbol
_atom_site_fract_x
_atom_site_fract_y
_atom_site_fract_z
Zr1	Zr	0.836580	0.731498	-0.117932
O2	O	0.685582	0.864496	-0.223413
O3	O	0.889860	0.593217	-0.080698
O4	O	0.887269	0.723878	-0.216345
O5	O	0.682264	0.741687	0.013662
O6	O	1.038410	0.723877	-0.216343
O7	O	0.688173	0.733835	-0.087766
O8	O	1.043045	0.490148	0.026306
O9	O	0.677629	0.975416	-0.228986
O10	O	1.016931	0.652049	-0.070735
O11	O	0.899727	0.657911	0.004958
O12	O	0.896676	0.811747	-0.154749
O13	O	0.779471	0.817608	-0.079056
Zr14	Zr	1.068207	0.744019	0.043838
Zr15	Zr	1.077632	0.731495	-0.117928
Zr16	Zr	0.827155	0.744021	0.043834
Zr17	Zr	0.823895	0.908402	-0.126820
Zr18	Zr	1.080892	0.567114	0.052726
O19	O	1.014927	0.882299	0.006604
O20	O	1.028327	0.864492	-0.223407
O21	O	0.672181	0.882303	0.006598
O22	O	1.219205	0.611021	0.149319
O23	O	1.232605	0.593214	-0.080692
O24	O	0.876460	0.611024	0.149313
O25	O	1.222523	0.733829	-0.087756
O26	O	1.017518	0.751638	0.142251
O27	O	0.866377	0.751640	0.142249
O28	O	1.216614	0.741681	0.013672
O29	O	0.869233	0.975413	-0.228982
O30	O	1.035554	0.500103	0.154888
O31	O	1.227158	0.500101	0.154892
O32	O	1.234649	0.490146	0.026309
O33	O	0.670137	0.985370	-0.100403
O34	O	0.861742	0.985368	-0.100399
O35	O	1.008111	0.663770	0.080655
O36	O	1.125316	0.657908	0.004962
O37	O	1.005060	0.817606	-0.079052
O38	O	0.887856	0.823467	-0.003359
C39	C	0.968260	0.516478	-0.025930
C40	C	0.973645	0.441377	-0.022157
C41	C	0.891780	0.462897	-0.079347
C42	C	0.896844	0.392343	-0.075829
C43	C	0.983768	0.300271	-0.015117
C44	C	1.065642	0.278751	0.042075
C45	C	1.060582	0.349304	0.038554
C46	C	1.007955	0.083173	0.001734
C47	C	1.013007	0.012619	0.005253
C48	C	0.844209	0.126217	-0.112653
C49	C	0.839153	0.196766	-0.116166
C50	C	0.921030	0.175240	-0.058976
N51	N	0.988944	0.228152	-0.011518
N52	N	0.915858	0.247358	-0.062579
C53	C	0.650874	0.737762	-0.037052
C54	C	0.548541	0.737763	-0.037054
C55	C	0.555027	0.729122	-0.148820
C56	C	0.510193	0.724804	-0.204703
C57	C	0.414043	0.724804	-0.204700
C58	C	0.362727	0.729119	-0.148808
C59	C	0.407561	0.733437	-0.092925
C60	C	0.503712	0.733439	-0.092935
C61	C	0.401080	0.742071	0.018843
C62	C	0.497225	0.742078	0.018838
C63	C	0.349764	0.746386	0.074736
C64	C	0.394593	0.750710	0.130616
C65	C	0.490748	0.750711	0.130611
C66	C	0.542059	0.746395	0.074721
C67	C	1.253913	0.737755	-0.037042
C68	C	1.356246	0.737754	-0.037040
C69	C	0.964182	0.722093	-0.239392
C70	C	0.968183	0.716776	-0.308066
C71	C	0.936527	0.959039	-0.048164
C72	C	0.931142	1.034139	-0.051937
C73	C	0.907293	0.797637	-0.384184
C74	C	0.911067	0.792636	-0.448708
C75	C	0.975726	0.706774	-0.437112
C76	C	1.036624	0.625907	-0.360986
C77	C	1.032855	0.630909	-0.296464
C78	C	0.993733	0.682875	-0.625380
C79	C	0.997494	0.677879	-0.689910
C80	C	0.871939	0.844609	-0.777627
C81	C	0.868171	0.849603	-0.713100
C82	C	0.929073	0.768737	-0.636980
N83	N	0.979582	0.701660	-0.503065
N84	N	0.925223	0.773852	-0.571029
C85	C	0.940605	0.753423	0.165298
C86	C	0.936604	0.758740	0.233972
C87	C	1.269780	0.516475	-0.025925
C88	C	1.377497	0.441373	-0.022150
C89	C	0.956471	0.532143	0.176415
C90	C	0.957855	0.462359	0.248862
C91	C	1.257991	0.532140	0.176421
C92	C	1.361708	0.462355	0.248870
C93	C	0.646796	0.943377	-0.250515
C94	C	0.543079	1.013162	-0.322964
C95	C	0.635007	0.959042	-0.048169
C96	C	0.527289	1.034144	-0.051944
C97	C	0.948316	0.943373	-0.250509
C98	C	0.946932	1.013157	-0.322956
C99	C	1.371508	0.403045	-0.059897
C100	C	1.472711	0.332488	-0.056366
C101	C	1.579903	0.300255	-0.015082
C102	C	1.585890	0.338589	0.022666
C103	C	1.484688	0.409150	0.019129
C104	C	1.015080	0.432647	0.322404
C105	C	1.016375	0.367088	0.390482
C106	C	0.960451	0.331237	0.385016
C107	C	0.903219	0.360956	0.311466
C108	C	0.901918	0.426519	0.243390
C109	C	1.471604	0.426523	0.243382
C110	C	1.569066	0.360962	0.311448
C111	C	1.556629	0.331229	0.385003
C112	C	1.446721	0.367067	0.390489
C113	C	1.349262	0.432632	0.322423
C114	C	0.433182	1.049002	-0.317476
C115	C	0.335719	1.114585	-0.385544
C116	C	0.348155	1.144322	-0.459098
C117	C	0.458063	1.108479	-0.464584
C118	C	0.555524	1.042902	-0.396517
C119	C	0.533279	1.072478	-0.014204
C120	C	0.432075	1.143053	-0.017754
C121	C	0.324883	1.175289	-0.059040
C122	C	0.318896	1.136951	-0.096785
C123	C	0.420099	1.066382	-0.093239
C124	C	1.002867	1.048987	-0.317465
C125	C	1.001589	1.114548	-0.385530
C126	C	0.944368	1.144282	-0.459086
C127	C	0.888431	1.108445	-0.464575
C128	C	0.889717	1.042881	-0.396511
H129	H	1.083794	-0.062354	0.054695
H130	H	0.820984	0.537865	-0.128777
H131	H	1.074626	0.065635	0.048302
N132	N	1.059389	0.595657	-0.543288
H133	H	1.047194	0.611848	-0.504169
H134	H	1.144089	0.558368	-0.535404
N135	N	1.701508	0.303820	0.067190
H136	H	1.764701	0.253302	0.063700
H137	H	1.709300	0.278863	0.123918
H138	H	0.436973	1.174256	0.012986
H139	H	0.645005	1.013721	-0.400995
H140	H	1.635997	0.277841	0.440420
N141	N	0.806278	0.931818	-0.859729
H142	H	0.834811	0.969127	-0.867667
H143	H	0.721567	0.969069	-0.867634
H144	H	1.089276	0.555996	-0.351550
N145	N	0.246067	0.746378	0.074740
H146	H	0.181488	0.801374	0.022981
H147	H	0.220461	0.749731	0.118659
N148	N	0.215734	1.251403	-0.062861
H149	H	0.235804	1.270790	-0.032684
H150	H	0.169951	1.228534	-0.039153
H151	H	0.855322	0.450701	0.183512
H152	H	0.246236	1.143757	-0.381062
H153	H	1.481752	0.450722	0.183496
N154	N	0.842915	0.322279	0.305575
H155	H	0.781331	0.336490	0.329971
H156	H	0.900632	0.253391	0.334144
H157	H	1.467814	0.301284	-0.087105
H158	H	0.231607	1.163208	-0.130399
N159	N	0.648885	1.037719	0.030327
H160	H	0.637305	1.072724	0.053689
H161	H	0.692574	1.047189	-0.006572
H162	H	1.284236	0.429288	-0.093524
H163	H	1.658549	0.331789	0.306968
H164	H	1.047138	1.143720	-0.381046
N165	N	0.243030	1.215038	-0.532508
H166	H	0.267575	1.228441	-0.579941
H167	H	0.192598	1.273540	-0.535402
N168	N	0.471468	1.140556	-0.543920
H169	H	0.393045	1.187533	-0.586201
H170	H	0.518185	1.086206	-0.547196
H171	H	1.436612	0.342848	0.450386
N172	N	0.808533	0.415557	-0.137505
H173	H	0.824927	0.356894	-0.126066
H174	H	0.812389	0.450627	-0.190739
H175	H	0.861486	0.858481	-0.510684
H176	H	1.259783	0.461797	0.326902
N177	N	0.413630	1.025038	-0.133946
H178	H	0.330365	1.056172	-0.160635
H179	H	0.453912	0.957013	-0.094108
N180	N	0.419752	1.016933	-0.238148
H181	H	0.335337	1.049599	-0.245012
H182	H	0.454548	1.031412	-0.210267
H183	H	1.136423	0.203779	0.091505
N184	N	1.064587	1.016926	-0.238136
H185	H	1.099827	1.049577	-0.244997
H186	H	1.127194	0.948295	-0.206084
H187	H	0.943330	1.197669	-0.514502
N188	N	0.259039	0.729099	-0.148792
H189	H	0.238428	0.725703	-0.192670
H190	H	0.191977	0.787487	-0.156643
N191	N	1.067247	0.585259	-0.677389
H192	H	1.128230	0.579469	-0.702206
H193	H	1.014904	0.579519	-0.702194
H194	H	0.841843	1.132665	-0.524473
H195	H	1.127245	0.331776	0.085124
N196	N	0.829374	1.004248	-0.402446
H197	H	0.744813	1.055892	-0.433664
H198	H	0.838948	0.958189	-0.348147
N199	N	0.745443	0.296069	-0.181676
H200	H	0.694364	0.298996	-0.217383
H201	H	0.781334	0.325697	-0.212554
H202	H	0.777552	0.143732	-0.159215
H203	H	0.633309	0.729132	-0.148834
H204	H	0.377543	0.721284	-0.250202
N205	N	0.565535	0.720155	-0.264988
H206	H	0.633246	0.720815	-0.256515
H207	H	0.507445	0.774966	-0.319208
H208	H	0.815522	0.919522	-0.722550
H209	H	0.352811	0.754217	0.176123
N210	N	0.539114	0.755353	0.190893
H211	H	0.492016	0.758082	0.226299
H212	H	0.536176	0.812232	0.163512
N213	N	1.689047	0.224150	-0.011275
H214	H	1.691964	0.167344	0.014150
H215	H	1.757808	0.209617	0.020589
N216	N	0.645777	0.746376	0.074758
H217	H	0.627563	0.801365	0.023009
H218	H	0.712858	0.687947	0.082679
N219	N	0.837555	0.890244	-0.396689
H220	H	0.754141	0.925822	-0.427097
H221	H	0.867489	0.925742	-0.427063
N222	N	1.098535	0.543696	-0.214363
H223	H	1.140068	0.488543	-0.216806
H224	H	1.043084	0.542137	-0.185681
H225	H	1.489581	0.440348	0.049873
N226	N	1.075406	0.471301	0.328317
H227	H	1.040751	0.502788	0.355345
H228	H	1.065896	0.517305	0.274015
H229	H	1.062985	0.342899	0.450362
H230	H	0.961520	0.277852	0.440454
