data_functionalizedCrystal
_audit_creation_method	'MofGen! by Chris Wilmer'
_symmetry_space_group_name_H-M	'P1'
_symmetry_Int_Tables_number	1
_symmetry_cell_setting	triclinic
loop_
_symmetry_equiv_pos_as_xyz
  x,y,z
_cell_length_a	14.421503
_cell_length_b	19.288864
_cell_length_c	19.288865
_cell_angle_alpha	96.863755
_cell_angle_beta	90.000948
_cell_angle_gamma	89.978553
loop_
_atom_site_label
_atom_site_type_symbol
_atom_site_fract_x
_atom_site_fract_y
_atom_site_fract_z
O1	O	0.077420	-0.921353	0.086638
O2	O	0.577420	-0.421353	0.586638
O3	O	0.077358	-0.719092	0.098327
O4	O	0.577358	-0.219092	0.598327
O5	O	0.077372	-0.826067	-0.008648
O6	O	0.577372	-0.326067	0.491352
O7	O	0.077405	-0.814378	0.193613
O8	O	0.577405	-0.314378	0.693613
O9	O	-0.076851	-0.826049	-0.008632
O10	O	0.423149	-0.326049	0.491368
O11	O	-0.076866	-0.719074	0.098343
O12	O	0.423134	-0.219074	0.598343
O13	O	-0.076804	-0.921335	0.086654
O14	O	0.423196	-0.421335	0.586654
Cu15	Cu	-0.090917	-0.820203	0.092500
Cu16	Cu	0.409083	-0.320203	0.592500
Cu17	Cu	0.091470	-0.820224	0.092481
Cu18	Cu	0.591470	-0.320224	0.592481
O19	O	-0.076818	-0.814360	0.193629
O20	O	0.423182	-0.314360	0.693629
C21	C	0.000238	-0.693207	0.097959
C22	C	0.500238	-0.193207	0.597959
C23	C	0.000213	-0.616103	0.096830
C24	C	0.500213	-0.116103	0.596830
N25	N	-0.219198	-0.820193	0.092513
N26	N	0.280802	-0.320193	0.592513
C27	C	0.000257	-0.825682	-0.034516
C28	C	0.500257	-0.325682	0.465484
C29	C	0.000249	-0.824553	-0.111620
C30	C	0.500249	-0.324553	0.388380
C31	C	-0.468858	-0.770720	0.141956
C32	C	0.031142	-0.270720	0.641956
C33	C	-0.530639	-0.833441	0.155241
C34	C	-0.030639	-0.333441	0.655241
C35	C	-0.408359	-0.820210	0.092496
C36	C	0.091641	-0.320210	0.592496
C37	C	-0.530673	-0.757505	0.079227
C38	C	-0.030673	-0.257505	0.579227
C39	C	-0.591081	-0.820221	0.092481
C40	C	-0.091081	-0.320221	0.592481
C41	C	-0.468779	-0.882963	0.105812
C42	C	0.031221	-0.382963	0.605812
C43	C	-0.468808	-0.806986	0.029771
C44	C	0.031192	-0.306986	0.529771
C45	C	-0.530560	-0.869753	0.043030
C46	C	-0.030560	-0.369753	0.543030
C47	C	-0.303098	-0.820203	0.092506
C48	C	0.196902	-0.320203	0.592506
C49	C	-0.696340	-0.820235	0.092471
C50	C	-0.196340	-0.320235	0.592471
N51	N	0.219752	-0.820239	0.092463
N52	N	0.719752	-0.320239	0.592463
C53	C	0.000318	-0.947220	0.087022
C54	C	0.500318	-0.447220	0.587022
C55	C	0.000349	-1.024324	0.088151
C56	C	0.500349	-0.524324	0.588151
C57	C	0.000238	-0.571407	0.159598
C58	C	0.500238	-0.071407	0.659598
C59	C	0.000248	-0.498960	0.158537
C60	C	0.500248	0.001040	0.658537
C61	C	0.000252	-0.471212	0.094705
C62	C	0.500252	0.028788	0.594705
C63	C	0.000222	-0.515918	0.031929
C64	C	0.500222	-0.015918	0.531929
C65	C	0.000202	-0.588364	0.032991
C66	C	0.500202	-0.088364	0.532991
C67	C	0.054306	-0.362956	0.044520
C68	C	0.554306	0.137044	0.544520
C69	C	0.054331	-0.290512	0.043460
C70	C	0.554331	0.209488	0.543460
C71	C	0.000308	-0.247767	0.091425
C72	C	0.500308	0.252233	0.591425
C73	C	-0.053729	-0.277473	0.140462
C74	C	0.446271	0.222527	0.640462
C75	C	-0.053749	-0.349919	0.141524
C76	C	0.446251	0.150081	0.641524
C77	C	0.000272	-0.392658	0.093546
C78	C	0.500272	0.107342	0.593546
C79	C	0.000342	-0.124514	0.153047
C80	C	0.500342	0.375486	0.653047
C81	C	0.000346	-0.052066	0.151984
C82	C	0.500346	0.447934	0.651984
C83	C	0.000329	-0.069026	0.025374
C84	C	0.500329	0.430974	0.525374
C85	C	0.000316	-0.141473	0.026439
C86	C	0.500316	0.358527	0.526439
C87	C	0.000326	-0.169212	0.090277
C88	C	0.500326	0.330788	0.590277
C89	C	0.000264	-0.887321	-0.156316
C90	C	0.500264	-0.387321	0.343684
C91	C	0.000278	-0.886260	-0.228763
C92	C	0.500278	-0.386260	0.271237
C93	C	0.000259	-0.822428	-0.256511
C94	C	0.500259	-0.322428	0.243489
C95	C	0.000250	-0.759652	-0.211805
C96	C	0.500250	-0.259652	0.288195
C97	C	0.000244	-0.760714	-0.139359
C98	C	0.500244	-0.260714	0.360641
C99	C	-0.053778	-0.772242	-0.364793
C100	C	0.446222	-0.272242	0.135207
C101	C	-0.053778	-0.771182	-0.437237
C102	C	0.446222	-0.271182	0.062763
C103	C	0.000279	-0.819148	-0.479956
C104	C	0.500279	-0.319148	0.020044
C105	C	0.054324	-0.868186	-0.450224
C106	C	0.554324	-0.368186	0.049776
C107	C	0.054319	-0.869248	-0.377778
C108	C	0.554319	-0.369248	0.122222
C109	C	0.000265	-0.821269	-0.335065
C110	C	0.500265	-0.321269	0.164935
C111	C	0.000310	-0.880770	-0.603209
C112	C	0.500310	-0.380770	-0.103209
C113	C	0.000330	-0.879707	-0.675657
C114	C	0.500330	-0.379707	-0.175657
C115	C	0.000293	-0.753097	-0.658697
C116	C	0.500293	-0.253097	-0.158697
C117	C	0.000282	-0.754162	-0.586250
C118	C	0.500282	-0.254162	-0.086250
C119	C	0.000286	-0.818001	-0.558511
C120	C	0.500286	-0.318001	-0.058511
C121	C	0.000298	-0.814745	0.219497
C122	C	0.500298	-0.314745	0.719497
C123	C	0.000313	-0.815874	0.296601
C124	C	0.500313	-0.315874	0.796601
H125	H	-0.441766	-0.728909	0.183815
H126	H	0.058234	-0.228909	0.683815
Cl127	Cl	-0.572572	-0.850726	0.237126
Cl128	Cl	-0.072572	-0.350726	0.737126
Cl129	Cl	0.122265	-0.930888	-0.340402
Cl130	Cl	0.622265	-0.430888	0.159598
H131	H	0.000270	-0.939303	-0.133736
H132	H	0.500270	-0.439303	0.366264
H133	H	0.000390	-0.046435	-0.026600
H134	H	0.500390	0.453565	0.473400
H135	H	-0.097780	-0.731250	-0.461439
H136	H	0.402220	-0.231250	0.038561
Cl137	Cl	-0.426987	-0.964861	0.123226
Cl138	Cl	0.073013	-0.464861	0.623226
H139	H	0.000266	-0.462561	0.209652
H140	H	0.500266	0.037439	0.709652
Cl141	Cl	0.000172	-0.644557	-0.045924
Cl142	Cl	0.500172	-0.144557	0.454076
H143	H	-0.557862	-0.704472	0.068011
H144	H	-0.057862	-0.204472	0.568011
H145	H	0.000301	-0.177866	-0.024674
H146	H	0.500301	0.322134	0.475326
Cl147	Cl	0.122272	-0.253173	-0.018179
Cl148	Cl	0.622272	0.246827	0.481821
H149	H	0.000232	-0.709599	-0.102967
H150	H	0.500232	-0.209599	0.397033
Cl151	Cl	0.000297	-0.965174	-0.284963
Cl152	Cl	0.500297	-0.465174	0.215037
H153	H	0.098343	-0.907244	-0.485005
H154	H	0.598343	-0.407244	0.014995
Cl155	Cl	-0.572134	-0.934445	-0.021560
Cl156	Cl	-0.072134	-0.434445	0.478440
Cl157	Cl	-0.121649	-0.223744	0.200765
Cl158	Cl	0.378351	0.276256	0.700765
Cl159	Cl	-0.426838	-0.789672	-0.052090
Cl160	Cl	0.073162	-0.289672	0.447910
Cl161	Cl	0.000247	-0.606275	0.239852
Cl162	Cl	0.500247	-0.106275	0.739852
Cl163	Cl	-0.121682	-0.387262	0.203164
Cl164	Cl	0.378318	0.112738	0.703164
Cl165	Cl	0.000346	-0.159390	0.233300
Cl166	Cl	0.500346	0.340610	0.733300
Cl167	Cl	0.000373	0.004125	0.230900
Cl168	Cl	0.500373	0.504125	0.730900
H169	H	0.098304	-0.397755	0.005460
H170	H	0.598304	0.102245	0.505460
Cl171	Cl	0.000311	-0.961023	-0.568333
Cl172	Cl	0.500311	-0.461023	-0.068333
H173	H	0.000347	-0.930822	-0.712049
H174	H	0.500347	-0.430822	-0.212049
H175	H	-0.097802	-0.733180	-0.330016
H176	H	0.402198	-0.233180	0.169984
Cl177	Cl	0.000221	-0.481037	-0.048318
Cl178	Cl	0.500221	0.018963	0.451682
H179	H	0.000282	-0.701123	-0.681288
H180	H	0.500282	-0.201123	-0.181288
H181	H	0.000265	-0.703049	-0.549857
H182	H	0.500265	-0.203049	-0.049857
Cl183	Cl	0.000233	-0.679405	-0.246686
Cl184	Cl	0.500233	-0.179405	0.253314
