data_functionalizedCrystal
_audit_creation_method	'MofGen! by Chris Wilmer'
_symmetry_space_group_name_H-M	'P1'
_symmetry_Int_Tables_number	1
_symmetry_cell_setting	triclinic
loop_
_symmetry_equiv_pos_as_xyz
  x,y,z
_cell_length_a	21.883469
_cell_length_b	21.882911
_cell_length_c	21.879399
_cell_angle_alpha	60.006540
_cell_angle_beta	60.013207
_cell_angle_gamma	59.992231
loop_
_atom_site_label
_atom_site_type_symbol
_atom_site_fract_x
_atom_site_fract_y
_atom_site_fract_z
O1	O	0.084645	-0.892842	0.746620
O2	O	0.584645	-0.392842	1.246620
O3	O	0.031867	-0.695139	0.601571
O4	O	0.531867	-0.195139	1.101571
O5	O	0.157054	-0.820237	0.601476
O6	O	0.657054	-0.320237	1.101476
O7	O	-0.040542	-0.767744	0.746716
O8	O	0.459458	-0.267744	1.246716
O9	O	0.198586	-0.778715	0.642912
O10	O	0.698586	-0.278715	1.142912
O11	O	0.073399	-0.653617	0.643007
O12	O	0.573399	-0.153617	1.143007
O13	O	0.126177	-0.851320	0.788056
O14	O	0.626177	-0.351320	1.288056
Cu15	Cu	0.103580	-0.748677	0.719315
Cu16	Cu	0.603580	-0.248677	1.219315
Cu17	Cu	0.054464	-0.797782	0.670313
Cu18	Cu	0.554464	-0.297782	1.170313
O19	O	0.000990	-0.726222	0.788151
O20	O	0.500990	-0.226222	1.288151
N21	N	0.138128	-0.714145	0.753785
N22	N	0.638128	-0.214145	1.253785
N23	N	0.019923	-0.832320	0.635843
N24	N	0.519923	-0.332320	1.135843
C25	C	0.190018	-0.547369	0.805644
C26	C	0.690018	-0.047369	1.305644
C27	C	0.190029	-0.662289	0.805630
C28	C	0.690029	-0.162289	1.305630
C29	C	0.218780	-0.633565	0.834353
C30	C	0.718780	-0.133565	1.334353
C31	C	0.344122	-0.611968	0.768360
C32	C	0.844122	-0.111968	1.268360
C33	C	0.422474	-0.638085	0.742222
C34	C	0.922474	-0.138085	1.242222
C35	C	0.422504	-0.764859	0.790561
C36	C	0.922504	-0.264859	1.290561
C37	C	0.344154	-0.738739	0.816702
C38	C	0.844154	-0.238739	1.316702
C39	C	0.208899	-0.508180	0.728617
C40	C	0.708899	-0.008180	1.228617
C41	C	0.182748	-0.429822	0.702522
C42	C	0.682748	0.070178	1.202522
C43	C	0.118843	-0.429847	0.830485
C44	C	0.618843	0.070153	1.330485
C45	C	0.144993	-0.508205	0.856580
C46	C	0.644993	-0.008205	1.356580
C47	C	0.112994	-0.643364	0.824587
C48	C	0.612994	-0.143364	1.324587
C49	C	0.086865	-0.669476	0.798467
C50	C	0.586865	-0.169476	1.298467
C51	C	0.214799	-0.733437	0.734451
C52	C	0.714799	-0.233437	1.234451
C53	C	0.240932	-0.707325	0.760562
C54	C	0.740932	-0.207325	1.260562
C55	C	0.113084	-0.643389	0.959747
C56	C	0.613084	-0.143389	1.459747
C57	C	0.087018	-0.669524	1.038102
C58	C	0.587018	-0.169524	1.538102
C59	C	0.214996	-0.733501	1.038048
C60	C	0.714996	-0.233501	1.538048
C61	C	0.241061	-0.707367	0.959690
C62	C	0.741061	-0.207367	1.459690
C63	C	0.190103	-0.662308	0.920542
C64	C	0.690103	-0.162308	1.420542
C65	C	0.304966	-0.662293	0.805598
C66	C	0.804966	-0.162293	1.305598
C67	C	-0.117460	-0.854702	0.612901
C68	C	0.382540	-0.354702	1.112901
C69	C	-0.002405	-0.854864	0.498145
C70	C	0.497595	-0.354864	0.998145
C71	C	-0.002621	-0.969735	0.613108
C72	C	0.497379	-0.469735	1.113108
C73	C	-0.002603	-0.854858	0.613180
C74	C	0.497397	-0.354858	1.113180
C75	C	-0.031272	-0.883541	0.584334
C76	C	0.468728	-0.383541	1.084334
N77	N	0.460550	-0.714150	0.753681
N78	N	0.960550	-0.214150	1.253681
O79	O	0.699805	-0.721060	0.574973
O80	O	1.199805	-0.221060	1.074973
O81	O	0.700047	-0.866553	0.772482
O82	O	1.200047	-0.366553	1.272482
O83	O	0.699952	-0.866219	0.647213
O84	O	1.199952	-0.366219	1.147213
O85	O	0.699900	-0.721394	0.700242
O86	O	1.199900	-0.221394	1.200242
O87	O	0.575478	-0.824800	0.688791
O88	O	1.075478	-0.324800	1.188791
O89	O	0.575573	-0.825134	0.814060
O90	O	1.075573	-0.325134	1.314060
O91	O	0.575331	-0.679641	0.616551
O92	O	1.075331	-0.179641	1.116551
Cu93	Cu	0.564087	-0.748606	0.719102
Cu94	Cu	1.064087	-0.248606	1.219102
Cu95	Cu	0.711292	-0.797588	0.669931
Cu96	Cu	1.211292	-0.297588	1.169931
O97	O	0.575426	-0.679975	0.741820
O98	O	1.075426	-0.179975	1.241820
N99	N	0.814828	-0.832044	0.635345
N100	N	1.314828	-0.332044	1.135345
N101	N	0.138106	-0.391772	0.753815
N102	N	0.638106	0.108228	1.253815
O103	O	-0.040520	-0.152377	0.746758
O104	O	0.459480	0.347623	1.246758
O105	O	0.156993	-0.152371	0.601281
O106	O	0.656993	0.347629	1.101281
O107	O	0.031698	-0.152390	0.601639
O108	O	0.531698	0.347610	1.101639
O109	O	0.084775	-0.152358	0.746401
O110	O	0.584775	0.347642	1.246401
O111	O	0.073234	-0.276876	0.643130
O112	O	0.573234	0.223124	1.143130
O113	O	0.198529	-0.276856	0.642772
O114	O	0.698529	0.223144	1.142772
O115	O	0.001015	-0.276863	0.788249
O116	O	0.501015	0.223137	1.288249
Cu117	Cu	0.103564	-0.288226	0.719299
Cu118	Cu	0.603564	0.211774	1.219299
Cu119	Cu	0.054444	-0.141007	0.670231
Cu120	Cu	0.554444	0.358993	1.170231
O121	O	0.126310	-0.276844	0.787892
O122	O	0.626310	0.223156	1.287892
N123	N	0.019892	-0.037461	0.635717
N124	N	0.519892	0.462539	1.135717
N125	N	0.138332	-0.714192	1.076133
N126	N	0.638332	-0.214192	1.576133
O127	O	0.131293	-0.892804	1.315506
O128	O	0.631293	-0.392804	1.815506
O129	O	-0.014162	-0.695219	1.315533
O130	O	0.485838	-0.195219	1.815533
O131	O	-0.013826	-0.820490	1.315480
O132	O	0.486174	-0.320490	1.815480
O133	O	0.130957	-0.767533	1.315559
O134	O	0.630957	-0.267533	1.815559
O135	O	0.027651	-0.778981	1.191001
O136	O	0.527651	-0.278981	1.691001
O137	O	0.027314	-0.653710	1.191054
O138	O	0.527314	-0.153710	1.691054
O139	O	0.172770	-0.851295	1.191026
O140	O	0.672770	-0.351295	1.691026
Cu141	Cu	0.103829	-0.748713	1.179674
Cu142	Cu	0.603829	-0.248713	1.679674
Cu143	Cu	0.054778	-0.797802	1.326885
Cu144	Cu	0.554778	-0.297802	1.826885
O145	O	0.172434	-0.726024	1.191079
O146	O	0.672434	-0.226024	1.691079
N147	N	0.020275	-0.832331	1.430426
N148	N	0.520275	-0.332331	1.930426
C149	C	0.047687	-0.649466	0.602306
C150	C	0.547687	-0.149466	1.102306
C151	C	0.202716	-0.804385	0.602188
C152	C	0.702716	-0.304385	1.102188
C153	C	0.110357	-0.896993	0.787321
C154	C	0.610357	-0.396993	1.287321
C155	C	-0.044672	-0.742074	0.787439
C156	C	0.455328	-0.242074	1.287439
C157	C	0.637839	-0.865879	0.818154
C158	C	1.137839	-0.365879	1.318154
C159	C	0.637724	-0.865466	0.663023
C160	C	1.137724	-0.365466	1.163023
C161	C	0.637536	-0.680313	0.570880
C162	C	1.137536	-0.180313	1.070880
C163	C	0.637655	-0.680728	0.726010
C164	C	1.137655	-0.180728	1.226010
C165	C	0.202592	-0.214459	0.601942
C166	C	0.702592	0.285541	1.101942
C167	C	0.047481	-0.214636	0.602435
C168	C	0.547481	0.285364	1.102435
C169	C	-0.044635	-0.214620	0.787537
C170	C	0.455365	0.285380	1.287537
C171	C	0.110528	-0.214598	0.787096
C172	C	0.610528	0.285402	1.287096
C173	C	-0.013455	-0.649572	1.253296
C174	C	0.486545	-0.149572	1.753296
C175	C	-0.013030	-0.804697	1.253206
C176	C	0.486970	-0.304697	1.753206
C177	C	0.172063	-0.896942	1.253263
C178	C	0.672063	-0.396942	1.753263
C179	C	0.171648	-0.741808	1.253325
C180	C	0.671648	-0.241808	1.753325
H181	H	0.024299	-0.654107	1.070013
H182	H	0.524299	-0.154107	1.570013
H183	H	0.259468	-0.815577	0.556577
H184	H	0.759468	-0.315577	1.056577
O185	O	-0.112407	-0.728596	0.841783
O186	O	0.387593	-0.228596	1.341783
C187	C	-0.158923	-0.655055	0.814718
C188	C	0.341077	-0.155055	1.314718
H189	H	-0.122882	-0.619515	0.766651
H190	H	0.377118	-0.119515	1.266651
H191	H	-0.194776	-0.629991	0.861687
H192	H	0.305224	-0.129991	1.361687
H193	H	-0.196724	-0.656189	0.793931
H194	H	0.303276	-0.156189	1.293931
H195	H	0.637745	-0.910963	0.651673
H196	H	1.137745	-0.410963	1.151673
H197	H	0.217133	-0.730478	1.253340
H198	H	0.717133	-0.230478	1.753340
H199	H	0.121892	-0.214588	0.832572
H200	H	0.621892	0.285412	1.332572
O201	O	0.063478	-0.599653	0.921835
O202	O	0.563478	-0.099653	1.421835
C203	C	-0.010092	-0.588539	0.973240
C204	C	0.489908	-0.088539	1.473240
H205	H	-0.009913	-0.635786	1.029084
H206	H	0.490087	-0.135786	1.529084
H207	H	-0.047313	-0.588123	0.950618
H208	H	0.452687	-0.088123	1.450618
H209	H	-0.032539	-0.532723	0.981585
H210	H	0.467461	-0.032723	1.481585
O211	O	0.637602	-0.626520	0.739677
O212	O	1.137602	-0.126520	1.239677
C213	C	0.637697	-0.653796	0.813231
C214	C	1.137697	-0.153796	1.313231
H215	H	0.614186	-0.701866	0.848643
H216	H	1.114186	-0.201866	1.348643
H217	H	0.601550	-0.606931	0.838439
H218	H	1.101550	-0.106931	1.338439
H219	H	0.697430	-0.674644	0.812090
H220	H	1.197430	-0.174644	1.312090
H221	H	0.637900	-0.911553	0.874882
H222	H	1.137900	-0.411553	1.374882
O223	O	0.270151	-0.214008	0.547386
O224	O	0.770151	0.285992	1.047386
C225	C	0.316707	-0.213874	0.574274
C226	C	0.816707	0.286126	1.074274
H227	H	0.280707	-0.190549	0.622493
H228	H	0.780707	0.309451	1.122493
H229	H	0.352271	-0.177444	0.527277
H230	H	0.852271	0.322556	1.027277
H231	H	0.354787	-0.273516	0.594793
H232	H	0.854787	0.226484	1.094793
O233	O	-0.112252	-0.214652	0.842119
O234	O	0.387748	0.285348	1.342119
C235	C	-0.112209	-0.214620	0.906523
C236	C	0.387791	0.285380	1.406523
H237	H	-0.052163	-0.238182	0.905628
H238	H	0.447837	0.261818	1.405628
H239	H	-0.145464	-0.250760	0.958626
H240	H	0.354536	0.249240	1.458626
H241	H	-0.138965	-0.154895	0.907396
H242	H	0.361035	0.345105	1.407396
H243	H	-0.058496	-0.816008	1.253133
H244	H	0.441504	-0.316008	1.753133
H245	H	0.036114	-0.214639	0.556956
H246	H	0.536114	0.285361	1.056956
O247	O	0.226454	-0.964690	1.253284
O248	O	0.726454	-0.464690	1.753284
C249	C	0.199523	-1.011250	1.253231
C250	C	0.699523	-0.511250	1.753231
H251	H	0.135771	-0.990970	1.276791
H252	H	0.635771	-0.490970	1.776791
H253	H	0.222478	-1.071216	1.289359
H254	H	0.722478	-0.571216	1.789359
H255	H	0.218542	-1.009216	1.193502
H256	H	0.718542	-0.509216	1.693502
O257	O	-0.067867	-0.581845	1.253337
O258	O	0.432133	-0.081845	1.753337
C259	C	-0.040921	-0.535270	1.253347
C260	C	0.459079	-0.035270	1.753347
H261	H	0.007126	-0.571270	1.276922
H262	H	0.507126	-0.071270	1.776922
H263	H	-0.087956	-0.499408	1.289493
H264	H	0.412044	0.000592	1.789493
H265	H	-0.020146	-0.497471	1.193635
H266	H	0.479854	0.002529	1.693635
O267	O	0.123912	-0.964797	0.841578
O268	O	0.623912	-0.464797	1.341578
C269	C	0.197472	-1.011221	0.814433
C270	C	0.697472	-0.511221	1.314433
H271	H	0.217215	-0.990826	0.750681
H272	H	0.717215	-0.490826	1.250681
H273	H	0.198489	-1.071215	0.837294
H274	H	0.698489	-0.571215	1.337294
H275	H	0.236194	-1.009163	0.833376
H276	H	0.736194	-0.509163	1.333376
O277	O	0.264600	-0.777276	1.075955
O278	O	0.764600	-0.277276	1.575955
C279	C	0.338167	-0.788347	1.024545
C280	C	0.838167	-0.288347	1.524545
H281	H	0.337989	-0.779587	0.968699
H282	H	0.837989	-0.279587	1.468699
H283	H	0.375399	-0.847773	1.047159
H284	H	0.875399	-0.347773	1.547159
H285	H	0.360603	-0.746635	1.016206
H286	H	0.860603	-0.246635	1.516206
O287	O	0.034377	-0.581748	0.547882
O288	O	0.534377	-0.081748	1.047882
C289	C	0.098676	-0.581583	0.483337
C290	C	0.598676	-0.081583	0.983337
H291	H	0.150096	-0.625852	0.499761
H292	H	0.650096	-0.125852	0.999761
H293	H	0.105292	-0.524149	0.455394
H294	H	0.605292	-0.024149	0.955394
H295	H	0.092636	-0.594613	0.442663
H296	H	0.592636	-0.094613	0.942663
O297	O	0.637344	-0.625839	0.503218
O298	O	1.137344	-0.125839	1.003218
C299	C	0.572842	-0.608478	0.489839
C300	C	1.072842	-0.108478	0.989839
H301	H	0.551409	-0.657978	0.524756
H302	H	1.051409	-0.157978	1.024756
H303	H	0.587281	-0.596240	0.427948
H304	H	1.087281	-0.096240	0.927948
H305	H	0.527677	-0.557178	0.505993
H306	H	1.027677	-0.057178	1.005993
O307	O	0.063517	-0.599507	0.868249
O308	O	0.563517	-0.099507	1.368249
C309	C	0.018170	-0.533792	0.828714
C310	C	0.518170	-0.033792	1.328714
H311	H	0.048392	-0.522886	0.766023
H312	H	0.548392	-0.022886	1.266023
H313	H	0.006325	-0.484440	0.842743
H314	H	0.506325	0.015560	1.342743
H315	H	-0.036876	-0.540910	0.845408
H316	H	0.463124	-0.040910	1.345408
O317	O	0.315864	-0.725618	0.921526
O318	O	0.815864	-0.225618	1.421526
C319	C	0.334773	-0.659780	0.876221
C320	C	0.834773	-0.159780	1.376221
H321	H	0.283121	-0.610542	0.864506
H322	H	0.783121	-0.110542	1.364506
H323	H	0.380186	-0.666782	0.821110
H324	H	0.880186	-0.166782	1.321110
H325	H	0.356302	-0.648778	0.906409
H326	H	0.856302	-0.148778	1.406409
H327	H	0.256252	-0.770113	0.697763
H328	H	0.756252	-0.270113	1.197763
O329	O	0.012051	-0.651230	0.816906
O330	O	0.512051	-0.151230	1.316906
C331	C	-0.006849	-0.717073	0.856354
C332	C	0.493151	-0.217073	1.356354
H333	H	0.044793	-0.766301	0.842195
H334	H	0.544793	-0.266301	1.342195
H335	H	-0.052302	-0.710065	0.839696
H336	H	0.447698	-0.210065	1.339696
H337	H	-0.028323	-0.728097	0.919068
H338	H	0.471677	-0.228097	1.419068
O339	O	0.315788	-0.725781	0.742088
O340	O	0.815788	-0.225781	1.242088
C341	C	0.355115	-0.771103	0.696683
C342	C	0.855115	-0.271103	1.196683
H343	H	0.317763	-0.799612	0.706703
H344	H	0.817763	-0.299612	1.206703
H345	H	0.407445	-0.815419	0.711317
H346	H	0.907445	-0.315419	1.211317
H347	H	0.371938	-0.734929	0.635315
H348	H	0.871938	-0.234929	1.135315
H349	H	0.312274	-0.779724	0.847024
H350	H	0.812274	-0.279724	1.347024
H351	H	0.454353	-0.597104	0.711898
H352	H	0.954353	-0.097104	1.211898
O353	O	0.460461	-0.839147	0.801428
O354	O	0.960461	-0.339147	1.301428
C355	C	0.409099	-0.877965	0.839881
C356	C	0.909099	-0.377965	1.339881
H357	H	0.353256	-0.843786	0.872005
H358	H	0.853256	-0.343786	1.372005
H359	H	0.431771	-0.934473	0.880771
H360	H	0.931771	-0.434473	1.380771
H361	H	0.400737	-0.887025	0.797965
H362	H	0.900737	-0.387025	1.297965
H363	H	0.312222	-0.549720	0.759316
H364	H	0.812222	-0.049720	1.259316
H365	H	0.245557	-0.540066	0.687141
H366	H	0.745557	-0.040066	1.187141
H367	H	0.082193	-0.397958	0.871963
H368	H	0.582193	0.102042	1.371963
O369	O	0.201053	-0.391830	0.627676
O370	O	0.701053	0.108170	1.127676
C371	C	0.174217	-0.410952	0.595146
C372	C	0.674217	0.089048	1.095146
H373	H	0.166567	-0.467850	0.632289
H374	H	0.666567	0.032150	1.132289
H375	H	0.216180	-0.413617	0.537502
H376	H	0.716180	0.086383	1.037502
H377	H	0.118206	-0.366854	0.589343
H378	H	0.618206	0.133146	1.089343
O379	O	0.126612	-0.546163	0.931434
O380	O	0.626612	-0.046163	1.431434
C381	C	0.081246	-0.494793	0.970795
C382	C	0.581246	0.005207	1.470795
H383	H	0.091218	-0.438931	0.933432
H384	H	0.591218	0.061069	1.433432
H385	H	0.095964	-0.517443	1.023076
H386	H	0.595964	-0.017443	1.523076
H387	H	0.019875	-0.486465	0.987704
H388	H	0.519875	0.013535	1.487704
