data_functionalizedCrystal
_audit_creation_method	'MofGen! by Chris Wilmer'
_symmetry_space_group_name_H-M	'P1'
_symmetry_Int_Tables_number	1
_symmetry_cell_setting	triclinic
loop_
_symmetry_equiv_pos_as_xyz
  x,y,z
_cell_length_a	14.044220
_cell_length_b	8.965430
_cell_length_c	14.044220
_cell_angle_alpha	90.000524
_cell_angle_beta	93.188878
_cell_angle_gamma	89.999271
loop_
_atom_site_label
_atom_site_type_symbol
_atom_site_fract_x
_atom_site_fract_y
_atom_site_fract_z
O1	O	1.277167	0.123887	0.230160
O2	O	1.777167	0.623887	0.730160
O3	O	1.000496	0.123924	0.221855
O4	O	1.500496	0.623924	0.721855
O5	O	1.134679	0.123891	0.087672
O6	O	1.634679	0.623891	0.587672
O7	O	1.142984	0.123920	0.364343
O8	O	1.642984	0.623920	0.864343
O9	O	1.134667	-0.124188	0.087680
O10	O	1.634667	0.375812	0.587680
O11	O	1.000484	-0.124155	0.221863
O12	O	1.500484	0.375845	0.721863
O13	O	1.277156	-0.124192	0.230169
O14	O	1.777156	0.375808	0.730169
Cu15	Cu	1.138819	-0.146825	0.226017
Cu16	Cu	1.638819	0.353175	0.726017
Cu17	Cu	1.138833	0.146557	0.226007
Cu18	Cu	1.638833	0.646557	0.726007
O19	O	1.142973	-0.124159	0.364352
O20	O	1.642973	0.375841	0.864352
C21	C	0.964868	-0.000111	0.218223
C22	C	1.464868	0.499889	0.718223
C23	C	0.858725	-0.000097	0.207379
C24	C	1.358725	0.499903	0.707379
N25	N	1.138816	-0.353174	0.226024
N26	N	1.638816	0.146826	0.726024
C27	C	0.664388	-0.000128	0.187553
C28	C	1.164388	0.499872	0.687553
C29	C	0.613258	-0.000127	0.264467
C30	C	1.113258	0.499873	0.764467
C31	C	0.505122	-0.000144	0.253435
C32	C	1.005122	0.499856	0.753435
C33	C	0.772534	-0.000111	0.198583
C34	C	1.272534	0.499889	0.698583
C35	C	1.076738	-0.450465	0.288055
C36	C	1.576738	0.049535	0.788055
C37	C	1.164577	-0.549888	0.313875
C38	C	1.664577	-0.049888	0.813875
C39	C	1.051015	-0.549878	0.200216
C40	C	1.551015	-0.049878	0.700216
C41	C	1.226701	-0.450409	0.251891
C42	C	1.726701	0.049591	0.751891
C43	C	1.113080	-0.450390	0.138189
C44	C	1.613080	0.049610	0.638189
C45	C	1.200977	-0.549768	0.163977
C46	C	1.700977	-0.049768	0.663977
C47	C	1.312783	-0.000154	0.233800
C48	C	1.812783	0.499846	0.733800
C49	C	1.418926	-0.000158	0.244645
C50	C	1.918926	0.499842	0.744645
C51	C	1.131037	-0.000148	0.052054
C52	C	1.631037	0.499852	0.552054
C53	C	1.120193	-0.000149	-0.054088
C54	C	1.620193	0.499851	0.445912
N55	N	1.138842	0.352906	0.225993
N56	N	1.638842	0.852906	0.725993
C57	C	1.100366	-0.000125	-0.248426
C58	C	1.600366	0.499875	0.251574
C59	C	1.177281	-0.000130	-0.299556
C60	C	1.677281	0.499870	0.200444
C61	C	1.166249	-0.000117	-0.407692
C62	C	1.666249	0.499883	0.092308
C63	C	1.111397	-0.000138	-0.140280
C64	C	1.611397	0.499862	0.359720
C65	C	1.146614	-0.000116	0.399969
C66	C	1.646614	0.499884	0.899969
C67	C	1.157459	-0.000106	0.506112
C68	C	1.657459	0.499894	1.006112
H69	H	0.650697	-0.000112	0.338600
H70	H	1.150697	0.499888	0.838600
H71	H	0.626951	-0.000144	0.113425
H72	H	1.126951	0.499856	0.613425
H73	H	1.251414	-0.000040	-0.262117
H74	H	1.751414	0.499960	0.237883
N75	N	1.007266	-0.392712	0.357605
N76	N	1.507266	0.107288	0.857605
H77	H	1.026843	-0.428913	0.423930
H78	H	1.526843	0.071087	0.923930
H79	H	1.007324	-0.280073	0.356609
H80	H	1.507324	0.219927	0.856609
N81	N	1.193443	-0.607783	0.412246
N82	N	1.693443	-0.107783	0.912246
H83	H	1.146504	-0.571670	0.459072
H84	H	1.646504	-0.071670	0.959072
H85	H	1.193856	-0.720420	0.411279
H86	H	1.693856	-0.220420	0.911279
H87	H	1.300988	-0.406899	0.273794
H88	H	1.800988	0.093101	0.773794
N89	N	1.270611	-0.607179	0.094481
N90	N	1.770611	-0.107179	0.594481
H91	H	1.269838	-0.719827	0.094445
H92	H	1.769838	-0.219827	0.594445
H93	H	1.251719	-0.569277	0.028390
H94	H	1.751719	-0.069277	0.528390
N95	N	1.002172	-0.000109	-0.298008
N96	N	1.502172	0.499891	0.201992
H97	H	1.008113	-0.000106	-0.369348
H98	H	1.508113	0.499894	0.130652
H99	H	0.966361	-0.092078	-0.278881
H100	H	1.466361	0.407922	0.221119
N101	N	1.084199	-0.392451	0.039839
N102	N	1.584199	0.107549	0.539839
H103	H	1.017821	-0.428570	0.020409
H104	H	1.517821	0.071430	0.520409
H105	H	1.085074	-0.279813	0.040519
H106	H	1.585074	0.220187	0.540519
N107	N	0.952652	-0.607771	0.171315
N108	N	1.452652	-0.107771	0.671315
H109	H	0.905809	-0.571650	0.218234
H110	H	1.405809	-0.071650	0.718234
H111	H	0.932799	-0.570016	0.105422
H112	H	1.432799	-0.070016	0.605422
