data_functionalizedCrystal
_audit_creation_method	'MofGen! by Chris Wilmer'
_symmetry_space_group_name_H-M	'P1'
_symmetry_Int_Tables_number	1
_symmetry_cell_setting	triclinic
loop_
_symmetry_equiv_pos_as_xyz
  x,y,z
_cell_length_a	16.974800
_cell_length_b	14.044190
_cell_length_c	16.053802
_cell_angle_alpha	92.795827
_cell_angle_beta	91.074188
_cell_angle_gamma	88.281173
loop_
_atom_site_label
_atom_site_type_symbol
_atom_site_fract_x
_atom_site_fract_y
_atom_site_fract_z
O1	O	1.057576	0.120850	0.002046
O2	O	1.557576	0.620850	0.502046
O3	O	0.829135	0.135362	-0.013398
O4	O	1.329135	0.635362	0.486602
O5	O	0.939923	-0.009887	-0.005891
O6	O	1.439923	0.490113	0.494109
O7	O	0.946788	0.266098	-0.005460
O8	O	1.446788	0.766098	0.494540
O9	O	0.933823	-0.001925	0.132554
O10	O	1.433823	0.498075	0.632554
O11	O	0.823035	0.143324	0.125048
O12	O	1.323035	0.643324	0.625048
O13	O	1.051476	0.128811	0.140492
O14	O	1.551476	0.628811	0.640492
Zn15	Zn	0.936287	0.137332	0.154751
Zn16	Zn	1.436287	0.637332	0.654751
Zn17	Zn	0.944324	0.126842	-0.027657
Zn18	Zn	1.444324	0.626842	0.472343
O19	O	0.940688	0.274060	0.132986
O20	O	1.440688	0.774060	0.632986
C21	C	0.796673	0.138645	0.053837
C22	C	1.296673	0.638645	0.553837
C23	C	0.709033	0.136555	0.047913
C24	C	1.209033	0.636555	0.547913
C25	C	0.664539	0.139911	0.120598
C26	C	1.164539	0.639911	0.620598
C27	C	0.582193	0.137931	0.115034
C28	C	1.082193	0.637931	0.615034
C29	C	0.544342	0.132603	0.036784
C30	C	1.044342	0.632603	0.536784
C31	C	0.588842	0.129244	-0.035907
C32	C	1.088842	0.629244	0.464093
C33	C	0.671187	0.131217	-0.030342
C34	C	1.171187	0.631217	0.469658
C35	C	0.298424	0.126232	0.012048
C36	C	0.798424	0.626232	0.512048
C37	C	0.216072	0.124263	0.006489
C38	C	0.716072	0.624263	0.506489
C39	C	0.209429	0.132948	0.157431
C40	C	0.709429	0.632948	0.657431
C41	C	0.291776	0.134926	0.162988
C42	C	0.791776	0.634926	0.662988
C43	C	0.336269	0.131562	0.090298
C44	C	0.836269	0.631562	0.590298
N45	N	0.460171	0.130583	0.031095
N46	N	0.960171	0.630583	0.531095
N47	N	0.420439	0.133575	0.095988
N48	N	0.920439	0.633575	0.595988
C49	C	0.933871	-0.041228	0.063131
C50	C	1.433871	0.458772	0.563131
C51	C	0.924914	-0.146476	0.062533
C52	C	1.424914	0.353524	0.562533
C53	C	0.972062	-0.396645	0.065687
C54	C	1.472062	0.103355	0.565687
C55	C	0.908554	-0.339176	0.061400
C56	C	1.408554	0.160824	0.561400
C57	C	0.917659	-0.231948	0.062030
C58	C	1.417659	0.268052	0.562030
C59	C	0.962958	-0.503883	0.065057
C60	C	1.462958	-0.003883	0.565057
C61	C	1.083938	0.125528	0.073255
C62	C	1.583938	0.625528	0.573255
C63	C	1.171578	0.127618	0.079174
C64	C	1.671578	0.627618	0.579174
C65	C	0.946741	0.305401	0.063961
C66	C	1.446741	0.805401	0.563961
C67	C	0.955698	0.410649	0.064554
C68	C	1.455698	0.910649	0.564554
N69	N	0.930807	0.144491	0.279240
N70	N	1.430807	0.644491	0.779240
N71	N	0.949810	0.119676	-0.152146
N72	N	1.449810	0.619676	0.347854
C73	C	0.977968	0.082709	0.326129
C74	C	1.477968	0.582709	0.826129
C75	C	0.974143	0.087726	0.413277
C76	C	1.474143	0.587726	0.913277
C77	C	0.923161	0.154529	0.453534
C78	C	1.423161	0.654529	0.953534
C79	C	0.875995	0.216313	0.406638
C80	C	1.375995	0.716313	0.906638
C81	C	0.879816	0.211291	0.319492
C82	C	1.379816	0.711291	0.819492
C83	C	0.906465	0.176438	0.713812
C84	C	1.406465	0.676438	1.213812
C85	C	0.902649	0.181457	0.800965
C86	C	1.402649	0.681457	1.300965
C87	C	1.000797	0.052868	0.807598
C88	C	1.500797	0.552868	1.307598
C89	C	1.004617	0.047856	0.720450
C90	C	1.504617	0.547856	1.220450
C91	C	0.957448	0.109636	0.673562
C92	C	1.457448	0.609636	1.173562
N93	N	0.919251	0.159660	0.542613
N94	N	1.419251	0.659660	1.042613
N95	N	0.961354	0.104500	0.584484
N96	N	1.461354	0.604500	1.084484
H97	H	0.545970	0.140648	0.174222
H98	H	1.045970	0.640648	0.674222
H99	H	0.847344	-0.370506	0.057257
H100	H	1.347344	0.129494	0.557257
H101	H	1.012544	0.037418	0.451454
H102	H	1.512544	0.537418	0.951454
H103	H	0.868060	0.226744	0.675643
H104	H	1.368060	0.726744	1.175643
C105	C	1.092556	-0.380852	0.145226
C106	C	1.592556	0.119148	0.645226
C107	C	1.054690	-0.354364	0.071286
C108	C	1.554690	0.145636	0.571286
H109	H	1.143568	-0.354746	0.148679
H110	H	1.643568	0.145254	0.648679
H111	H	1.062598	-0.357367	0.191614
H112	H	1.562598	0.142633	0.691614
H113	H	1.097193	-0.448411	0.145521
H114	H	1.597193	0.051589	0.645521
H115	H	1.050048	-0.286805	0.070994
H116	H	1.550048	0.213195	0.570994
H117	H	1.084655	-0.377844	0.024886
H118	H	1.584655	0.122156	0.524886
C119	C	0.276934	0.143306	0.311630
C120	C	0.776934	0.643306	0.811630
C121	C	0.333379	0.140780	0.249004
C122	C	0.833379	0.640780	0.749004
H123	H	0.302621	0.146918	0.364731
H124	H	0.802621	0.646918	0.864731
H125	H	0.242827	0.197586	0.306169
H126	H	0.742827	0.697586	0.806169
H127	H	0.247084	0.087116	0.306467
H128	H	0.747084	0.587116	0.806467
H129	H	0.363226	0.196974	0.254163
H130	H	0.863226	0.696974	0.754163
H131	H	0.367500	0.086495	0.254468
H132	H	0.867500	0.586495	0.754468
C133	C	1.004530	-0.070456	0.906163
C134	C	1.504530	0.429544	1.406163
C135	C	1.052633	-0.015048	0.859140
C136	C	1.552633	0.484952	1.359140
H137	H	1.036533	-0.112392	0.937978
H138	H	1.536533	0.387608	1.437978
H139	H	0.973630	-0.029950	0.942605
H140	H	1.473630	0.470050	1.442605
H141	H	0.970814	-0.106616	0.869791
H142	H	1.470814	0.393384	1.369791
H143	H	1.086346	0.021118	0.895512
H144	H	1.586346	0.521118	1.395512
H145	H	1.083547	-0.055560	0.822694
H146	H	1.583547	0.444440	1.322694
C147	C	1.101240	-0.078755	0.735763
C148	C	1.601240	0.421245	1.235763
C149	C	1.060654	-0.025582	0.676202
C150	C	1.560654	0.474418	1.176202
H151	H	1.135832	-0.124095	0.708443
H152	H	1.635832	0.375905	1.208443
H153	H	1.130878	-0.037244	0.771839
H154	H	1.630878	0.462756	1.271839
H155	H	1.064531	-0.111002	0.767390
H156	H	1.564531	0.388998	1.267390
H157	H	1.097363	0.006670	0.644578
H158	H	1.597363	0.506670	1.144578
H159	H	1.031014	-0.067100	0.640111
H160	H	1.531014	0.432900	1.140111
H161	H	0.173194	0.135685	0.216611
H162	H	0.673194	0.635685	0.716611
H163	H	0.834479	0.270703	0.439420
H164	H	1.334479	0.770703	0.939420
C165	C	1.074591	-0.043897	0.341447
C166	C	1.574591	0.456103	0.841447
C167	C	1.034009	0.009274	0.281883
C168	C	1.534009	0.509274	0.781883
H169	H	1.109183	-0.089239	0.314131
H170	H	1.609183	0.410761	0.814131
H171	H	1.104229	-0.002385	0.377523
H172	H	1.604229	0.497615	0.877523
H173	H	1.037881	-0.076141	0.373075
H174	H	1.537881	0.423859	0.873075
H175	H	1.070719	0.041523	0.250260
H176	H	1.570719	0.541523	0.750260
H177	H	1.004369	-0.032245	0.245793
H178	H	1.504369	0.467755	0.745793
C179	C	0.805991	0.308040	0.785659
C180	C	1.305991	0.808040	1.285659
C181	C	0.846593	0.254879	0.845217
C182	C	1.346593	0.754879	1.345217
H183	H	0.771382	0.353358	0.812980
H184	H	1.271382	0.853358	1.312980
H185	H	0.842683	0.340301	0.754036
H186	H	1.342683	0.840301	1.254036
H187	H	0.776361	0.266510	0.749577
H188	H	1.276361	0.766510	1.249577
H189	H	0.876227	0.296409	0.881295
H190	H	1.376227	0.796409	1.381295
H191	H	0.809896	0.222616	0.876853
H192	H	1.309896	0.722616	1.376853
H193	H	0.707414	0.128486	-0.089530
H194	H	1.207414	0.628486	0.410470
H195	H	0.841412	0.261599	0.281315
H196	H	1.341412	0.761599	0.781315
H197	H	0.185257	0.119926	-0.057235
H198	H	0.685257	0.619926	0.442765
C199	C	0.687367	0.066487	0.251182
C200	C	1.187367	0.566487	0.751182
C201	C	0.706144	0.145763	0.206613
C202	C	1.206144	0.645763	0.706613
H203	H	0.713055	0.070097	0.304283
H204	H	1.213055	0.570097	0.804283
H205	H	0.631964	0.065800	0.258269
H206	H	1.131964	0.565800	0.758269
H207	H	0.704361	0.009801	0.221225
H208	H	1.204361	0.509801	0.721225
H209	H	0.689144	0.202450	0.236568
H210	H	1.189144	0.702450	0.736568
H211	H	0.761559	0.146459	0.199530
H212	H	1.261559	0.646459	0.699530
C213	C	0.296707	0.117452	-0.137707
C214	C	0.796707	0.617452	0.362293
C215	C	0.347323	0.122539	-0.067853
C216	C	0.847323	0.622539	0.432147
H217	H	0.326900	0.115177	-0.187036
H218	H	0.826900	0.615177	0.312964
H219	H	0.266579	0.061635	-0.136583
H220	H	0.766579	0.561635	0.363417
H221	H	0.262323	0.172105	-0.136882
H222	H	0.762323	0.672105	0.363118
H223	H	0.381703	0.067882	-0.068675
H224	H	0.881703	0.567882	0.431325
H225	H	0.377465	0.178362	-0.068977
H226	H	0.877465	0.678362	0.431023
H227	H	0.558018	0.124899	-0.099620
H228	H	1.058018	0.624899	0.400380
