data_functionalizedCrystal
_audit_creation_method	'MofGen! by Chris Wilmer'
_symmetry_space_group_name_H-M	'P1'
_symmetry_Int_Tables_number	1
_symmetry_cell_setting	triclinic
loop_
_symmetry_equiv_pos_as_xyz
  x,y,z
_cell_length_a	19.077105
_cell_length_b	29.839131
_cell_length_c	19.076919
_cell_angle_alpha	87.732541
_cell_angle_beta	89.923776
_cell_angle_gamma	87.737628
loop_
_atom_site_label
_atom_site_type_symbol
_atom_site_fract_x
_atom_site_fract_y
_atom_site_fract_z
Zn1	Zn	1.058171	-0.217337	0.440392
Zn2	Zn	1.558171	0.282663	0.940392
Zn3	Zn	1.062777	-0.289569	0.322877
Zn4	Zn	1.562777	0.210431	0.822877
Zn5	Zn	0.945391	-0.211319	0.318186
Zn6	Zn	1.445391	0.288681	0.818186
Zn7	Zn	0.940599	-0.289298	0.435629
Zn8	Zn	1.440599	0.210702	0.935629
O9	O	1.001735	-0.251881	0.379271
O10	O	1.501735	0.248119	0.879271
O11	O	1.157112	-0.229551	0.428760
O12	O	1.657112	0.270449	0.928760
O13	O	1.051139	-0.276784	0.223924
O14	O	1.551139	0.223216	0.723924
O15	O	0.960429	-0.149253	0.334427
O16	O	1.460429	0.350747	0.834427
O17	O	1.160497	-0.282620	0.342422
O18	O	1.660497	0.217380	0.842422
O19	O	1.043288	-0.153674	0.424211
O20	O	1.543288	0.346326	0.924211
O21	O	0.964896	-0.219294	0.220477
O22	O	1.464896	0.280706	0.720477
O23	O	0.846425	-0.219031	0.329809
O24	O	1.346425	0.280969	0.829809
O25	O	0.952262	-0.282158	0.534592
O26	O	1.452262	0.217842	1.034592
O27	O	0.842904	-0.276322	0.416094
O28	O	1.342904	0.223678	0.916094
O29	O	1.038641	-0.229288	0.538091
O30	O	1.538641	0.270712	1.038091
O31	O	1.046493	-0.352398	0.337803
O32	O	1.546493	0.147602	0.837803
O33	O	0.956729	-0.352199	0.420642
O34	O	1.456729	0.147801	0.920642
C35	C	0.819169	-0.246995	0.371926
C36	C	1.319169	0.253005	0.871926
C37	C	0.741065	-0.244915	0.368801
C38	C	1.241065	0.255085	0.868801
C39	C	0.702560	-0.273809	0.412186
C40	C	1.202560	0.226191	0.912186
C41	C	0.629174	-0.271849	0.409252
C42	C	1.129174	0.228151	0.909252
C43	C	0.594294	-0.240998	0.362930
C44	C	1.094294	0.259002	0.862930
C45	C	0.632804	-0.212102	0.319543
C46	C	1.132804	0.287898	0.819543
C47	C	0.706189	-0.214059	0.322481
C48	C	1.206189	0.285941	0.822481
C49	C	0.375011	-0.231938	0.349338
C50	C	0.875011	0.268062	0.849338
C51	C	0.301621	-0.229984	0.346403
C52	C	0.801621	0.270016	0.846403
C53	C	0.297996	-0.289731	0.436113
C54	C	0.797996	0.210269	0.936113
C55	C	0.371382	-0.291688	0.439043
C56	C	0.871382	0.208312	0.939043
C57	C	0.409886	-0.262790	0.395659
C58	C	0.909886	0.237210	0.895659
N59	N	0.519281	-0.238996	0.359929
N60	N	1.019281	0.261004	0.859929
N61	N	0.484897	-0.264790	0.398664
N62	N	0.984897	0.235210	0.898664
C63	C	1.001609	-0.368599	0.379231
C64	C	1.501609	0.131401	0.879231
C65	C	1.001619	-0.418534	0.379240
C66	C	1.501619	0.081466	0.879240
C67	C	1.048554	-0.728276	0.336206
C68	C	1.548554	-0.228276	0.836206
C69	C	1.048639	-0.915952	0.336237
C70	C	1.548639	-0.415952	0.836237
O71	O	1.088445	-0.940297	0.299616
O72	O	1.588445	-0.440297	0.799616
N73	N	1.001878	-0.939328	0.379330
N74	N	1.501878	-0.439328	0.879330
C75	C	0.955095	-0.915782	0.422422
C76	C	1.455095	-0.415782	0.922422
O77	O	0.915329	-0.939972	0.459082
O78	O	1.415329	-0.439972	0.959082
C79	C	0.955014	-0.728107	0.422395
C80	C	1.455014	-0.228107	0.922395
C81	C	1.001773	-0.704734	0.379293
C82	C	1.501773	-0.204734	0.879293
C83	C	1.095310	-0.704902	0.293109
C84	C	1.595310	-0.204902	0.793109
C85	C	1.095285	-0.657986	0.293099
C86	C	1.595285	-0.157986	0.793099
C87	C	1.048505	-0.634443	0.336186
C88	C	1.548505	-0.134443	0.836186
C89	C	1.001749	-0.657817	0.379283
C90	C	1.501749	-0.157817	0.879283
C91	C	0.908235	-0.704563	0.465490
C92	C	1.408235	-0.204563	0.965490
C93	C	0.908220	-0.657641	0.465480
C94	C	1.408220	-0.157641	0.965480
C95	C	0.954979	-0.634267	0.422379
C96	C	1.454979	-0.134267	0.922379
C97	C	0.954944	-0.587358	0.422360
C98	C	1.454944	-0.087358	0.922360
N99	N	1.001705	-0.563982	0.379267
N100	N	1.501705	-0.063982	0.879267
C101	C	1.048485	-0.587525	0.336180
C102	C	1.548485	-0.087525	0.836180
C103	C	0.955141	-1.014314	0.422432
C104	C	1.455141	-0.514314	0.922432
C105	C	0.955160	-1.061233	0.422439
C106	C	1.455160	-0.561233	0.922439
C107	C	1.048705	-1.061399	0.336254
C108	C	1.548705	-0.561399	0.836254
C109	C	1.048682	-1.014480	0.336245
C110	C	1.548682	-0.514480	0.836245
C111	C	1.001902	-0.990938	0.379339
C112	C	1.501902	-0.490938	0.879339
C113	C	1.048430	-0.488997	0.336161
C114	C	1.548430	0.011003	0.836161
C115	C	1.048399	-0.442077	0.336153
C116	C	1.548399	0.057923	0.836153
C117	C	0.954857	-0.441914	0.422340
C118	C	1.454857	0.058086	0.922340
C119	C	0.954885	-0.488831	0.422346
C120	C	1.454885	0.011169	0.922346
C121	C	1.001677	-0.512371	0.379255
C122	C	1.501677	-0.012371	0.879255
O123	O	0.915164	-0.562985	0.458967
O124	O	1.415164	-0.062985	0.958967
O125	O	1.088256	-0.563328	0.299537
O126	O	1.588256	-0.063328	0.799537
C127	C	1.048578	-0.775192	0.336216
C128	C	1.548578	-0.275192	0.836216
C129	C	1.001822	-0.798566	0.379313
C130	C	1.501822	-0.298566	0.879313
C131	C	0.955041	-0.775024	0.422401
C132	C	1.455041	-0.275024	0.922401
C133	C	1.001841	-0.845485	0.379319
C134	C	1.501841	-0.345485	0.879319
C135	C	1.048622	-0.869027	0.336232
C136	C	1.548622	-0.369027	0.836232
C137	C	1.095383	-0.845651	0.293139
C138	C	1.595383	-0.345651	0.793139
C139	C	1.095359	-0.798735	0.293129
C140	C	1.595359	-0.298735	0.793129
C141	C	0.908280	-0.798400	0.465494
C142	C	1.408280	-0.298400	0.965494
C143	C	0.908308	-0.845316	0.465500
C144	C	1.408308	-0.345316	0.965500
C145	C	0.955089	-0.868859	0.422413
C146	C	1.455089	-0.368859	0.922413
C147	C	1.185013	-0.256787	0.386645
C148	C	1.685013	0.243213	0.886645
C149	C	1.263116	-0.258877	0.389788
C150	C	1.763116	0.241123	0.889788
C151	C	0.994403	-0.256364	0.562551
C152	C	1.494403	0.243636	1.062551
C153	C	0.991279	-0.258274	0.640654
C154	C	1.491279	0.241726	1.140654
C155	C	1.001879	-0.134708	0.379327
C156	C	1.501879	0.365292	0.879327
C157	C	1.001941	-0.084775	0.379351
C158	C	1.501941	0.415225	0.879351
C159	C	1.009078	-0.247384	0.196706
C160	C	1.509078	0.252616	0.696706
C161	C	1.012338	-0.245351	0.118609
C162	C	1.512338	0.254649	0.618609
C163	C	1.034782	-0.231647	0.679169
C164	C	1.534782	0.268353	1.179169
C165	C	1.031838	-0.233440	0.752555
C166	C	1.531838	0.266560	1.252555
C167	C	0.985394	-0.261863	0.787424
C168	C	1.485394	0.238137	1.287424
C169	C	0.941886	-0.288492	0.748903
C170	C	1.441886	0.211508	1.248903
C171	C	0.944827	-0.286696	0.675518
C172	C	1.444827	0.213304	1.175518
C173	C	0.971772	-0.270184	1.006704
C174	C	1.471772	0.229816	1.506704
C175	C	0.968835	-0.271978	1.080093
C176	C	1.468835	0.228022	1.580093
C177	C	1.058787	-0.216925	1.083741
C178	C	1.558787	0.283075	1.583741
C179	C	1.061727	-0.215134	1.010355
C180	C	1.561727	0.284866	1.510355
C181	C	1.018216	-0.241761	0.971840
C182	C	1.518216	0.258239	1.471840
N183	N	0.982385	-0.263698	0.862436
N184	N	1.482385	0.236302	1.362436
N185	N	1.021222	-0.239924	0.896830
N186	N	1.521222	0.260076	1.396830
H187	H	1.086476	-0.423047	0.301052
H188	H	1.586476	0.076953	0.801052
H189	H	0.597826	-0.295378	0.444580
H190	H	1.097826	0.204622	0.944580
H191	H	0.936353	-0.291872	0.975354
H192	H	1.436353	0.208128	1.475354
H193	H	0.399777	-0.316811	0.476762
H194	H	0.899777	0.183189	0.976762
H195	H	1.067264	-0.211758	0.783912
H196	H	1.567264	0.288242	1.283912
C197	C	0.860198	-0.959324	0.428313
C198	C	1.360198	-0.459324	0.928313
C199	C	0.903712	-0.988439	0.469800
C200	C	1.403712	-0.488439	0.969800
H201	H	0.828450	-0.943349	0.457556
H202	H	1.328450	-0.443349	0.957556
H203	H	0.834584	-0.976185	0.396601
H204	H	1.334584	-0.476185	0.896601
H205	H	0.888050	-0.938687	0.402654
H206	H	1.388050	-0.438687	0.902654
H207	H	0.875860	-1.009078	0.495455
H208	H	1.375860	-0.509078	0.995455
H209	H	0.929328	-0.971577	0.501525
H210	H	1.429328	-0.471577	1.001525
C211	C	0.211707	-0.296172	0.527313
C212	C	0.711707	0.203828	1.027313
C213	C	0.255670	-0.321489	0.483806
C214	C	0.755670	0.178511	0.983806
H215	H	0.185580	-0.315779	0.556762
H216	H	0.685580	0.184221	1.056762
H217	H	0.180436	-0.277524	0.499303
H218	H	0.680436	0.222476	0.999303
H219	H	0.239293	-0.278050	0.555389
H220	H	0.739293	0.221950	1.055389
H221	H	0.228083	-0.339610	0.455726
H222	H	0.728083	0.160390	0.955726
H223	H	0.286944	-0.340145	0.511819
H224	H	0.786944	0.159855	1.011819
C225	C	0.312571	-0.171115	0.258027
C226	C	0.812571	0.328885	0.758027
C227	C	0.263279	-0.196068	0.295485
C228	C	0.763279	0.303932	0.795485
H229	H	0.288898	-0.150177	0.226597
H230	H	0.788898	0.349823	0.726597
H231	H	0.342246	-0.190762	0.232236
H232	H	0.842246	0.309238	0.732236
H233	H	0.339990	-0.155476	0.289848
H234	H	0.839990	0.344524	0.789848
H235	H	0.235863	-0.211709	0.263665
H236	H	0.735863	0.288291	0.763665
H237	H	0.233592	-0.176417	0.321278
H238	H	0.733592	0.323583	0.821278
H239	H	0.406352	-0.208411	0.314006
H240	H	0.906352	0.291589	0.814006
C241	C	0.815847	-0.840428	0.550700
C242	C	1.315847	-0.340428	1.050700
C243	C	0.856906	-0.871006	0.512883
C244	C	1.356906	-0.371006	1.012883
H245	H	0.784122	-0.856287	0.579958
H246	H	1.284122	-0.356287	1.079958
H247	H	0.790208	-0.820690	0.518978
H248	H	1.290208	-0.320690	1.018978
H249	H	0.845368	-0.823573	0.578821
H250	H	1.345368	-0.323573	1.078821
H251	H	0.827386	-0.887858	0.484758
H252	H	1.327386	-0.387858	0.984758
H253	H	0.882547	-0.890751	0.544609
H254	H	1.382547	-0.390751	1.044609
H255	H	0.870155	-0.723586	0.500584
H256	H	1.370155	-0.223586	1.000584
H257	H	0.604399	-0.186981	0.281829
H258	H	1.104399	0.313019	0.781829
C259	C	1.150337	-0.160892	1.021334
C260	C	1.650337	0.339108	1.521334
C261	C	1.112776	-0.183887	0.972029
C262	C	1.612776	0.316113	1.472029
H263	H	1.181851	-0.141600	0.997672
H264	H	1.681851	0.358400	1.497672
H265	H	1.176044	-0.181884	1.051028
H266	H	1.676044	0.318116	1.551028
H267	H	1.118589	-0.143589	1.048733
H268	H	1.618589	0.356411	1.548733
H269	H	1.144524	-0.201192	0.944634
H270	H	1.644524	0.298808	1.444634
H271	H	1.087068	-0.162892	0.942323
H272	H	1.587068	0.337108	1.442323
H273	H	0.931013	-0.295125	1.108481
H274	H	1.431013	0.204875	1.608481
C275	C	1.132619	-0.225913	0.600456
C276	C	1.632619	0.274087	1.100456
C277	C	1.085833	-0.200401	0.640844
C278	C	1.585833	0.299599	1.140844
H279	H	1.164137	-0.206621	0.576801
H280	H	1.664137	0.293379	1.076801
H281	H	1.107133	-0.241511	0.567017
H282	H	1.607133	0.258489	1.067017
H283	H	1.158325	-0.246903	0.630165
H284	H	1.658325	0.253097	1.130165
H285	H	1.060123	-0.179413	0.611135
H286	H	1.560123	0.320587	1.111135
H287	H	1.111322	-0.184796	0.674288
H288	H	1.611322	0.315204	1.174288
C289	C	0.897440	-0.315692	0.859775
C290	C	1.397440	0.184308	1.359775
C291	C	0.890833	-0.319736	0.787229
C292	C	1.390833	0.180264	1.287229
H293	H	0.865925	-0.334984	0.883433
H294	H	1.365925	0.165016	1.383433
H295	H	0.886711	-0.285531	0.871399
H296	H	1.386711	0.214469	1.371399
H297	H	0.944165	-0.323826	0.873693
H298	H	1.444165	0.176174	1.373693
H299	H	0.844109	-0.311599	0.773310
H300	H	1.344109	0.188401	1.273310
H301	H	0.901557	-0.349904	0.775599
H302	H	1.401557	0.150096	1.275599
C303	C	0.702406	-0.154813	0.233500
C304	C	1.202406	0.345187	0.733500
C305	C	0.748517	-0.182303	0.274784
C306	C	1.248517	0.317697	0.774784
H307	H	0.728539	-0.135209	0.204052
H308	H	1.228539	0.364791	0.704052
H309	H	0.672584	-0.137645	0.263019
H310	H	1.172584	0.362355	0.763019
H311	H	0.674832	-0.172942	0.205423
H312	H	1.174832	0.327058	0.705423
H313	H	0.776087	-0.164173	0.302865
H314	H	1.276087	0.335827	0.802865
H315	H	0.778351	-0.199472	0.245262
H316	H	1.278351	0.300528	0.745262
C317	C	0.855639	-0.341307	0.679280
C318	C	1.355639	0.158693	1.179280
C319	C	0.897019	-0.315974	0.633179
C320	C	1.397019	0.184026	1.133179
H321	H	0.826129	-0.359385	0.653141
H322	H	1.326129	0.140615	1.153141
H323	H	0.827631	-0.321717	0.706823
H324	H	1.327631	0.178283	1.206823
H325	H	0.885096	-0.360005	0.709134
H326	H	1.385096	0.139995	1.209134
H327	H	0.867562	-0.297274	0.603328
H328	H	1.367562	0.202726	1.103328
H329	H	0.925030	-0.335567	0.605625
H330	H	1.425030	0.164433	1.105625
H331	H	0.730954	-0.298932	0.449904
H332	H	1.230954	0.201068	0.949904
C333	C	0.813337	-0.743413	0.471363
C334	C	1.313337	-0.243413	0.971363
C335	C	0.856853	-0.772524	0.512855
C336	C	1.356853	-0.272524	1.012855
H337	H	0.781587	-0.727438	0.500604
H338	H	1.281587	-0.227438	1.000604
H339	H	0.787725	-0.760277	0.439653
H340	H	1.287725	-0.260277	0.939653
H341	H	0.841187	-0.722776	0.445703
H342	H	1.341187	-0.222776	0.945703
H343	H	0.829003	-0.793163	0.538512
H344	H	1.329003	-0.293163	1.038512
H345	H	0.882466	-0.755659	0.544577
H346	H	1.382466	-0.255659	1.044577
H347	H	1.086534	-0.508158	0.301074
H348	H	1.586534	-0.008158	0.801074
C349	C	1.065314	-0.158776	1.166684
C350	C	1.565314	0.341224	1.666684
C351	C	1.106605	-0.187653	1.126076
C352	C	1.606605	0.312347	1.626076
H353	H	1.094837	-0.140701	1.192815
H354	H	1.594837	0.359299	1.692815
H355	H	1.037243	-0.175962	1.197951
H356	H	1.537243	0.324038	1.697951
H357	H	1.035868	-0.140076	1.136822
H358	H	1.535868	0.359924	1.636822
H359	H	1.136047	-0.206356	1.155938
H360	H	1.636047	0.293644	1.655938
H361	H	1.134688	-0.170466	1.094806
H362	H	1.634688	0.329534	1.594806
H363	H	1.133363	-0.638958	0.258004
H364	H	1.633363	-0.138958	0.758004
H365	H	0.916812	-0.507863	0.457445
H366	H	1.416812	-0.007863	0.957445
C367	C	1.187760	-0.700341	0.207913
C368	C	1.687760	-0.200341	0.707913
C369	C	1.146733	-0.730775	0.245737
C370	C	1.646733	-0.230775	0.745737
H371	H	1.219502	-0.716312	0.178659
H372	H	1.719502	-0.216312	0.678659
H373	H	1.213379	-0.683488	0.239630
H374	H	1.713379	-0.183488	0.739630
H375	H	1.158220	-0.680589	0.179787
H376	H	1.658220	-0.180589	0.679787
H377	H	1.176272	-0.750525	0.273867
H378	H	1.676272	-0.250525	0.773867
H379	H	1.121112	-0.747636	0.214015
H380	H	1.621112	-0.247636	0.714015
H381	H	1.086757	-0.995452	0.301148
H382	H	1.586757	-0.495452	0.801148
C383	C	1.090338	-1.133404	0.298084
C384	C	1.590338	-0.633404	0.798084
C385	C	1.100179	-1.087286	0.288947
C386	C	1.600179	-0.587286	0.788947
H387	H	1.122134	-1.149387	0.268901
H388	H	1.622134	-0.649387	0.768901
H389	H	1.043575	-1.139623	0.285811
H390	H	1.543575	-0.639623	0.785811
H391	H	1.098643	-1.142479	0.345738
H392	H	1.598643	-0.642479	0.845738
H393	H	1.091869	-1.078210	0.241293
H394	H	1.591869	-0.578210	0.741293
H395	H	1.146952	-1.081063	0.301216
H396	H	1.646952	-0.581063	0.801216
H397	H	0.917078	-1.080260	0.457529
H398	H	1.417078	-0.580260	0.957529
H399	H	1.133435	-0.779707	0.258032
H400	H	1.633435	-0.279707	0.758032
H401	H	0.916767	-0.422739	0.457419
H402	H	1.416767	0.077261	0.957419
C403	C	0.815764	-0.662194	0.550682
C404	C	1.315764	-0.162194	1.050682
C405	C	0.856797	-0.631765	0.512853
C406	C	1.356797	-0.131765	1.012853
H407	H	0.784016	-0.646218	0.579923
H408	H	1.284016	-0.146218	1.079923
H409	H	0.845295	-0.681941	0.578813
H410	H	1.345295	-0.181941	1.078813
H411	H	0.790145	-0.679052	0.518961
H412	H	1.290145	-0.179052	1.018961
H413	H	0.882420	-0.614909	0.544574
H414	H	1.382420	-0.114909	1.044574
H415	H	0.827263	-0.612010	0.484720
H416	H	1.327263	-0.112010	0.984720
H417	H	1.133472	-0.864828	0.258053
H418	H	1.633472	-0.364828	0.758053
