data_functionalizedCrystal
_audit_creation_method	'MofGen! by Chris Wilmer'
_symmetry_space_group_name_H-M	'P1'
_symmetry_Int_Tables_number	1
_symmetry_cell_setting	triclinic
loop_
_symmetry_equiv_pos_as_xyz
  x,y,z
_cell_length_a	23.532361
_cell_length_b	22.010155
_cell_length_c	14.971486
_cell_angle_alpha	90.004049
_cell_angle_beta	96.778102
_cell_angle_gamma	90.004127
loop_
_atom_site_label
_atom_site_type_symbol
_atom_site_fract_x
_atom_site_fract_y
_atom_site_fract_z
O1	O	0.755745	0.050465	-0.108368
O2	O	1.089078	0.383798	0.224966
O3	O	1.422412	0.717131	0.558299
O4	O	0.589945	0.050479	-0.124122
O5	O	0.923279	0.383813	0.209212
O6	O	1.256612	0.717146	0.542545
O7	O	0.677289	0.050467	0.014004
O8	O	1.010622	0.383801	0.347337
O9	O	1.343956	0.717134	0.680670
O10	O	0.668401	0.050477	-0.246493
O11	O	1.001735	0.383810	0.086841
O12	O	1.335068	0.717143	0.420174
O13	O	0.677273	-0.050583	0.013983
O14	O	1.010607	0.282750	0.347316
O15	O	1.343940	0.616084	0.680650
O16	O	0.589930	-0.050571	-0.124142
O17	O	0.923263	0.282762	0.209191
O18	O	1.256596	0.616096	0.542524
O19	O	0.755729	-0.050586	-0.108388
O20	O	1.089063	0.282748	0.224945
O21	O	1.422396	0.616081	0.558278
Cu22	Cu	0.672828	-0.059805	-0.116267
Cu23	Cu	1.006161	0.273528	0.217066
Cu24	Cu	1.339495	0.606862	0.550399
Cu25	Cu	0.672847	0.059699	-0.116243
Cu26	Cu	1.006180	0.393032	0.217091
Cu27	Cu	1.339513	0.726365	0.550424
O28	O	0.668386	-0.050574	-0.246514
O29	O	1.001719	0.282760	0.086820
O30	O	1.335052	0.616093	0.420153
C31	C	0.568719	-0.000044	-0.123737
C32	C	0.902053	0.333289	0.209596
C33	C	1.235386	0.666623	0.542929
C34	C	0.505496	-0.000039	-0.122551
C35	C	0.838829	0.333295	0.210782
C36	C	1.172162	0.666628	0.544115
N37	N	0.672819	-0.143858	-0.116284
N38	N	1.006152	0.189476	0.217049
N39	N	1.339486	0.522809	0.550383
C40	C	0.232238	0.055040	-0.117352
C41	C	0.565572	0.388373	0.215982
C42	C	0.898905	0.721707	0.549315
C43	C	0.291643	0.055042	-0.118475
C44	C	0.624976	0.388375	0.214859
C45	C	0.958310	0.721708	0.548192
O46	O	0.322379	0.101886	-0.119015
O47	O	0.655712	0.435219	0.214319
O48	O	0.989045	0.768553	0.547652
N49	N	0.321342	-0.000041	-0.119053
N50	N	0.654676	0.333292	0.214280
N51	N	0.988009	0.666626	0.547614
C52	C	0.291635	-0.055129	-0.118500
C53	C	0.624968	0.278204	0.214834
C54	C	0.958302	0.611538	0.548167
O55	O	0.322351	-0.101981	-0.119094
O56	O	0.655685	0.231352	0.214239
O57	O	0.989018	0.564686	0.547573
C58	C	0.232232	-0.055130	-0.117370
C59	C	0.565565	0.278203	0.215963
C60	C	0.898899	0.611537	0.549296
C61	C	0.202535	-0.000044	-0.116801
C62	C	0.535868	0.333290	0.216532
C63	C	0.869202	0.666623	0.549866
C64	C	0.202541	0.110122	-0.116781
C65	C	0.535875	0.443455	0.216552
C66	C	0.869208	0.776789	0.549885
C67	C	0.143141	0.110120	-0.115660
C68	C	0.476474	0.443453	0.217673
C69	C	0.809807	0.776787	0.551006
C70	C	0.113437	0.055037	-0.115110
C71	C	0.446771	0.388370	0.218224
C72	C	0.780104	0.721703	0.551557
C73	C	0.143134	-0.000045	-0.115680
C74	C	0.476468	0.333288	0.217653
C75	C	0.809801	0.666621	0.550987
C76	C	0.202526	-0.110217	-0.116810
C77	C	0.535859	0.223116	0.216523
C78	C	0.869193	0.556449	0.549856
C79	C	0.143119	-0.110213	-0.115680
C80	C	0.476453	0.223120	0.217653
C81	C	0.809786	0.556453	0.550986
C82	C	0.113422	-0.055127	-0.115111
C83	C	0.446755	0.278206	0.218222
C84	C	0.780089	0.611540	0.551556
C85	C	0.054030	-0.055131	-0.114008
C86	C	0.387363	0.278203	0.219325
C87	C	0.720697	0.611536	0.552659
N88	N	0.024331	-0.000048	-0.113430
N89	N	0.357664	0.333285	0.219904
N90	N	0.690997	0.666619	0.553237
C91	C	0.054034	0.055036	-0.113980
C92	C	0.387368	0.388369	0.219353
C93	C	0.720701	0.721702	0.552686
C94	C	0.416385	-0.055123	-0.120869
C95	C	0.749719	0.278210	0.212464
C96	C	1.083052	0.611544	0.545797
C97	C	0.475787	-0.055123	-0.122005
C98	C	0.809120	0.278211	0.211328
C99	C	1.142453	0.611544	0.544662
C100	C	0.475791	0.055048	-0.121978
C101	C	0.809124	0.388382	0.211355
C102	C	1.142457	0.721715	0.544688
C103	C	0.416388	0.055047	-0.120849
C104	C	0.749721	0.388381	0.212484
C105	C	1.083054	0.721714	0.545818
C106	C	0.386686	-0.000040	-0.120291
C107	C	0.720019	0.333293	0.213042
C108	C	1.053352	0.666626	0.546376
C109	C	-0.070711	0.055028	-0.111627
C110	C	0.262622	0.388361	0.221706
C111	C	0.595955	0.721694	0.555040
C112	C	-0.130118	0.055021	-0.110509
C113	C	0.203216	0.388354	0.222824
C114	C	0.536549	0.721688	0.556157
C115	C	-0.130116	-0.055149	-0.110532
C116	C	0.203217	0.278184	0.222802
C117	C	0.536551	0.611517	0.556135
C118	C	-0.070715	-0.055143	-0.111654
C119	C	0.262618	0.278190	0.221680
C120	C	0.595951	0.611524	0.555013
C121	C	-0.041014	-0.000050	-0.112198
C122	C	0.292319	0.333284	0.221135
C123	C	0.625652	0.666617	0.554468
O124	O	0.023257	-0.101951	-0.113464
O125	O	0.356590	0.231382	0.219870
O126	O	0.689924	0.564715	0.553203
O127	O	0.023311	0.101880	-0.113374
O128	O	0.356645	0.435213	0.219959
O129	O	0.689978	0.768546	0.553293
C130	C	0.711525	-0.563642	-0.055090
C131	C	1.044858	-0.230309	0.278244
C132	C	1.378191	0.103024	0.611577
C133	C	0.711527	-0.627250	-0.055083
C134	C	1.044861	-0.293917	0.278250
C135	C	1.378194	0.039417	0.611583
O136	O	0.744414	-0.660146	-0.003065
O137	O	1.077747	-0.326813	0.330268
O138	O	1.411080	0.006521	0.663601
N139	N	0.672846	-0.659065	-0.116224
N140	N	1.006180	-0.325731	0.217109
N141	N	1.339513	0.007602	0.550443
C142	C	0.634156	-0.627269	-0.177369
C143	C	0.967490	-0.293935	0.155965
C144	C	1.300823	0.039398	0.489298
O145	O	0.601255	-0.660170	-0.229373
O146	O	0.934588	-0.326837	0.103961
O147	O	1.267922	0.006496	0.437294
C148	C	0.634151	-0.563662	-0.177370
C149	C	0.967485	-0.230329	0.155963
C150	C	1.300818	0.103004	0.489297
C151	C	0.672839	-0.531851	-0.116231
C152	C	1.006172	-0.198517	0.217102
C153	C	1.339505	0.134816	0.550435
C154	C	0.750209	-0.531831	0.006045
C155	C	1.083542	-0.198497	0.339378
C156	C	1.416875	0.134836	0.672711
C157	C	0.750207	-0.468228	0.006037
C158	C	1.083540	-0.134894	0.339371
C159	C	1.416873	0.198439	0.672704
C160	C	0.711521	-0.436436	-0.055105
C161	C	1.044854	-0.103103	0.278229
C162	C	1.378187	0.230231	0.611562
C163	C	0.672837	-0.468247	-0.116239
C164	C	1.006170	-0.134914	0.217094
C165	C	1.339503	0.198419	0.550428
C166	C	0.595459	-0.531867	-0.238510
C167	C	0.928792	-0.198534	0.094824
C168	C	1.262126	0.134799	0.428157
C169	C	0.595457	-0.468256	-0.238505
C170	C	0.928790	-0.134923	0.094828
C171	C	1.262124	0.198410	0.428161
C172	C	0.634145	-0.436445	-0.177367
C173	C	0.967478	-0.103112	0.155967
C174	C	1.300811	0.230222	0.489300
C175	C	0.634149	-0.372853	-0.177388
C176	C	0.967482	-0.039519	0.155945
C177	C	1.300815	0.293814	0.489279
N178	N	0.672830	-0.341038	-0.116248
N179	N	1.006163	-0.007704	0.217086
N180	N	1.339496	0.325629	0.550419
C181	C	0.711516	-0.372829	-0.055106
C182	C	1.044849	-0.039496	0.278228
C183	C	1.378182	0.293837	0.611561
C184	C	0.634169	-0.760846	-0.177361
C185	C	0.967502	-0.427513	0.155973
C186	C	1.300836	-0.094180	0.489306
C187	C	0.634176	-0.824452	-0.177364
C188	C	0.967509	-0.491118	0.155969
C189	C	1.300843	-0.157785	0.489302
C190	C	0.711547	-0.824429	-0.055078
C191	C	1.044880	-0.491095	0.278256
C192	C	1.378213	-0.157762	0.611589
C193	C	0.711542	-0.760822	-0.055079
C194	C	1.044875	-0.427489	0.278255
C195	C	1.378208	-0.094156	0.611588
C196	C	0.672850	-0.729032	-0.116220
C197	C	1.006183	-0.395698	0.217113
C198	C	1.339517	-0.062365	0.550447
C199	C	0.711509	-0.239258	-0.055127
C200	C	1.044842	0.094075	0.278207
C201	C	1.378175	0.427409	0.611540
C202	C	0.711505	-0.175649	-0.055142
C203	C	1.044838	0.157684	0.278191
C204	C	1.378171	0.491017	0.611525
C205	C	0.634133	-0.175678	-0.177425
C206	C	0.967466	0.157655	0.155908
C207	C	1.300799	0.490989	0.489241
C208	C	0.634138	-0.239281	-0.177413
C209	C	0.967472	0.094052	0.155920
C210	C	1.300805	0.427385	0.489253
C211	C	0.672828	-0.271070	-0.116257
C212	C	1.006162	0.062264	0.217077
C213	C	1.339495	0.395597	0.550410
O214	O	0.601278	-0.339916	-0.229377
O215	O	0.934611	-0.006583	0.103956
O216	O	1.267944	0.326750	0.437290
O217	O	0.744407	-0.339920	-0.003103
O218	O	1.077740	-0.006587	0.330230
O219	O	1.411073	0.326747	0.663564
C220	C	0.776955	-0.000061	-0.108772
C221	C	1.110289	0.333272	0.224561
C222	C	1.443622	0.666606	0.557894
C223	C	0.840179	-0.000063	-0.109959
C224	C	1.173512	0.333271	0.223375
C225	C	1.506846	0.666604	0.556708
C226	C	0.676884	-0.000058	0.047314
C227	C	1.010217	0.333276	0.380647
C228	C	1.343550	0.666609	0.713980
C229	C	0.675693	-0.000057	0.146598
C230	C	1.009026	0.333276	0.479931
C231	C	1.342359	0.666610	0.813264
N232	N	0.672860	0.143751	-0.116219
N233	N	1.006194	0.477084	0.217114
N234	N	1.339527	0.810418	0.550448
C235	C	0.668791	-0.000047	-0.279824
C236	C	1.002124	0.333286	0.053510
C237	C	1.335458	0.666619	0.386843
C238	C	0.669982	-0.000044	-0.379108
C239	C	1.003315	0.333289	-0.045774
C240	C	1.336649	0.666623	0.287559
C241	C	0.727005	-0.000062	0.204379
C242	C	1.060338	0.333271	0.537712
C243	C	1.393671	0.666605	0.871045
C244	C	0.725882	-0.000056	0.297666
C245	C	1.059215	0.333277	0.630999
C246	C	1.392549	0.666611	0.964333
C247	C	0.673447	-0.000049	0.333171
C248	C	1.006780	0.333284	0.666504
C249	C	1.340113	0.666618	0.999837
C250	C	0.622131	-0.000042	0.275382
C251	C	0.955464	0.333291	0.608716
C252	C	1.288798	0.666624	0.942049
C253	C	0.623254	-0.000044	0.182097
C254	C	0.956587	0.333289	0.515430
C255	C	1.289921	0.666623	0.848764
C256	C	0.619793	-0.000040	0.469820
C257	C	0.953127	0.333293	0.803153
C258	C	1.286460	0.666627	1.136486
C259	C	0.618670	-0.000039	0.563111
C260	C	0.952003	0.333294	0.896445
C261	C	1.285337	0.666628	1.229778
C262	C	0.722421	-0.000052	0.585389
C263	C	1.055755	0.333282	0.918722
C264	C	1.389088	0.666615	1.252055
C265	C	0.723545	-0.000053	0.492103
C266	C	1.056878	0.333280	0.825437
C267	C	1.390211	0.666613	1.158770
C268	C	0.672228	-0.000048	0.434321
C269	C	1.005562	0.333286	0.767655
C270	C	1.338895	0.666619	1.100988
H271	H	-0.154295	0.099881	-0.110049
H272	H	0.179039	0.433214	0.223285
H273	H	0.512372	0.766548	0.556618
Cl274	Cl	0.546811	-0.428296	-0.315372
Cl275	Cl	0.880145	-0.094963	0.017961
Cl276	Cl	1.213478	0.238371	0.351294
H277	H	0.581470	-0.000040	0.135052
H278	H	0.914804	0.333293	0.468385
H279	H	1.248137	0.666627	0.801718
Cl280	Cl	0.513111	-0.124377	-0.122739
Cl281	Cl	0.846445	0.208956	0.210594
Cl282	Cl	1.179778	0.542290	0.543927
H283	H	-0.046536	0.099890	-0.112072
H284	H	0.286797	0.433223	0.221262
H285	H	0.620131	0.766557	0.554595
H286	H	-0.046536	-0.099999	-0.112135
H287	H	0.286797	0.233334	0.221198
H288	H	0.620130	0.566668	0.554532
H289	H	0.743011	-0.149750	-0.005356
H290	H	1.076344	0.183583	0.327978
H291	H	1.409677	0.516916	0.661311
H292	H	0.743013	-0.265133	-0.005326
H293	H	1.076347	0.068200	0.328007
H294	H	1.409680	0.401533	0.661340
Cl295	Cl	0.585507	-0.279271	-0.254285
Cl296	Cl	0.918840	0.054062	0.079048
Cl297	Cl	1.252174	0.387396	0.412381
H298	H	0.118967	0.154977	-0.115193
H299	H	0.452300	0.488311	0.218141
H300	H	0.785634	0.821644	0.551474
H301	H	-0.154312	-0.099997	-0.110087
H302	H	0.179022	0.233336	0.223247
H303	H	0.512355	0.566670	0.556580
H304	H	0.781711	-0.557710	0.055838
H305	H	1.115045	-0.224377	0.389171
H306	H	1.448378	0.108957	0.722505
H307	H	0.781708	-0.442330	0.055824
H308	H	1.115041	-0.108997	0.389157
H309	H	1.448374	0.224336	0.722491
H310	H	0.743044	-0.734925	-0.005294
H311	H	1.076377	-0.401592	0.328039
H312	H	1.409711	-0.068258	0.661373
Cl313	Cl	0.239845	-0.179473	-0.117525
Cl314	Cl	0.573178	0.153860	0.215808
Cl315	Cl	0.906512	0.487193	0.549141
H316	H	0.392205	-0.099985	-0.120427
H317	H	0.725538	0.233349	0.212907
H318	H	1.058871	0.566682	0.546240
H319	H	0.118938	-0.155073	-0.115234
H320	H	0.452272	0.178260	0.218100
H321	H	0.785605	0.511593	0.551433
H322	H	0.579437	-0.000033	0.304297
H323	H	0.912770	0.333300	0.637631
H324	H	1.246104	0.666634	0.970964
Cl325	Cl	0.239872	0.179380	-0.117473
Cl326	Cl	0.573206	0.512713	0.215860
Cl327	Cl	0.906539	0.846046	0.549193
Cl328	Cl	0.760179	-0.864408	0.021788
Cl329	Cl	1.093512	-0.531075	0.355122
Cl330	Cl	1.426846	-0.197742	0.688455
H331	H	0.392212	0.099903	-0.120386
H332	H	0.725546	0.433237	0.212948
H333	H	1.058879	0.766570	0.546281
H334	H	0.499986	0.099900	-0.122426
H335	H	0.833319	0.433234	0.210907
H336	H	1.166653	0.766567	0.544240
Cl337	Cl	0.790392	-0.000064	0.370302
Cl338	Cl	1.123725	0.333269	0.703635
Cl339	Cl	1.457058	0.666603	1.036968
Cl340	Cl	0.585546	-0.864436	-0.254239
Cl341	Cl	0.918879	-0.531103	0.079094
Cl342	Cl	1.252213	-0.197769	0.412428
Cl343	Cl	0.789464	-0.000059	0.447470
Cl344	Cl	1.122798	0.333274	0.780803
Cl345	Cl	1.456131	0.666608	1.114137
H346	H	0.764205	-0.000054	0.632440
H347	H	1.097538	0.333279	0.965773
H348	H	1.430872	0.666612	1.299106
H349	H	0.602663	-0.734966	-0.227156
H350	H	0.935996	-0.401632	0.106177
H351	H	1.269329	-0.068299	0.439510
H352	H	0.563956	-0.557759	-0.288294
H353	H	0.897289	-0.224426	0.045040
H354	H	1.230623	0.108907	0.378373
H355	H	0.602636	-0.149783	-0.227209
H356	H	0.935970	0.183550	0.106124
H357	H	1.269303	0.516883	0.439458
H358	H	0.575973	-0.000043	0.592016
H359	H	0.909306	0.333290	0.925349
H360	H	1.242639	0.666623	1.258682
Cl361	Cl	0.555280	-0.000032	0.397181
Cl362	Cl	0.888614	0.333301	0.730514
Cl363	Cl	1.221947	0.666634	1.063847
Cl364	Cl	0.792927	-0.000077	0.159754
Cl365	Cl	1.126260	0.333256	0.493088
Cl366	Cl	1.459594	0.666590	0.826421
