data_functionalizedCrystal
_audit_creation_method	'MofGen! by Chris Wilmer'
_symmetry_space_group_name_H-M	'P1'
_symmetry_Int_Tables_number	1
_symmetry_cell_setting	triclinic
loop_
_symmetry_equiv_pos_as_xyz
  x,y,z
_cell_length_a	12.759401
_cell_length_b	12.759400
_cell_length_c	14.908308
_cell_angle_alpha	86.730859
_cell_angle_beta	86.719755
_cell_angle_gamma	90.014356
loop_
_atom_site_label
_atom_site_type_symbol
_atom_site_fract_x
_atom_site_fract_y
_atom_site_fract_z
Zn1	Zn	1.571945	-0.452535	0.510054
Zn2	Zn	1.581987	-0.618103	0.359204
Zn3	Zn	1.406393	-0.442438	0.359218
Zn4	Zn	1.396238	-0.628169	0.510019
O5	O	1.489140	-0.535311	0.434624
O6	O	1.720297	-0.474510	0.490053
O7	O	1.567146	-0.586363	0.232964
O8	O	1.428401	-0.296758	0.379248
O9	O	1.727675	-0.596153	0.379224
O10	O	1.550031	-0.304176	0.490066
O11	O	1.438139	-0.457303	0.232974
O12	O	1.258026	-0.467063	0.379213
O13	O	1.411093	-0.613308	0.636265
O14	O	1.250564	-0.603518	0.490006
O15	O	1.540184	-0.484271	0.636291
O16	O	1.557299	-0.766458	0.379189
O17	O	1.420830	-0.773853	0.489992
C18	C	1.216174	-0.535288	0.434608
C19	C	1.099397	-0.535305	0.434622
C20	C	0.938657	-0.598559	0.376852
C21	C	1.048382	-0.598537	0.376836
C22	C	1.040680	-0.472084	0.492420
C23	C	0.930958	-0.472101	0.492431
C24	C	0.887648	-0.661803	0.319069
C25	C	0.946357	-0.725023	0.261269
C26	C	1.056082	-0.725001	0.261254
C27	C	1.107098	-0.661758	0.319038
C28	C	1.489079	-0.808277	0.434605
C29	C	1.489147	-0.925055	0.434627
C30	C	1.560277	-0.976036	0.376996
C31	C	1.560340	-1.085762	0.377024
C32	C	1.418134	-1.093517	0.492317
C33	C	1.418077	-0.983793	0.492293
C34	C	1.631347	-0.917298	0.319330
C35	C	1.702482	-0.968278	0.261694
C36	C	1.702545	-1.078004	0.261722
C37	C	1.631473	-1.136750	0.319386
C38	C	1.763173	-0.535335	0.434641
C39	C	1.879949	-0.535345	0.434648
C40	C	1.473385	-0.551038	0.669927
C41	C	1.466672	-0.557740	0.770199
C42	C	1.489229	-0.261280	0.434662
C43	C	1.489267	-0.144505	0.434679
C44	C	1.504895	-0.519569	0.200236
C45	C	1.511812	-0.512571	0.099965
C46	C	1.588475	-0.435943	0.958650
C47	C	1.582170	-0.442236	1.052864
C48	C	1.447752	-0.576615	1.052844
C49	C	1.454057	-0.570322	0.958630
C50	C	1.524422	-0.499984	0.911536
C51	C	1.530732	-0.493697	0.817319
C52	C	1.396309	-0.628069	0.817301
C53	C	1.390004	-0.634363	0.911516
H54	H	1.082227	-0.420596	0.539466
C55	C	1.652637	-0.371789	1.104686
N56	N	1.705715	-0.318725	1.143718
H57	H	1.760352	-0.920443	0.214750
C58	C	1.631549	-1.257452	0.319416
N59	N	1.631604	-1.348364	0.319435
C60	C	1.325846	-0.698520	0.765468
N61	N	1.272777	-0.751584	0.726427
H62	H	1.390464	-0.633880	1.091204
C63	C	1.608130	-0.416321	0.765517
N64	N	1.666426	-0.358036	0.726503
H65	H	0.798305	-0.661830	0.319077
C66	C	1.780795	-1.134080	0.198323
N67	N	1.839731	-1.176313	0.150564
H68	H	1.645774	-0.378677	0.920305
H69	H	1.332713	-0.691627	0.949872
C70	C	1.339951	-1.158140	0.555734
N71	N	1.281058	-1.206815	0.603498
H72	H	0.904812	-0.776507	0.214219
H73	H	1.103880	-0.776470	0.214184
H74	H	0.883156	-0.420622	0.539489
C75	C	1.227800	-0.661735	0.319015
N76	N	1.318712	-0.661723	0.319001
C77	C	1.631299	-0.796598	0.319307
N78	N	1.631266	-0.705687	0.319295
C79	C	1.339816	-0.927710	0.555677
N80	N	1.280865	-0.885469	0.603416
