data_functionalizedCrystal
_audit_creation_method	'MofGen! by Chris Wilmer'
_symmetry_space_group_name_H-M	'P1'
_symmetry_Int_Tables_number	1
_symmetry_cell_setting	triclinic
loop_
_symmetry_equiv_pos_as_xyz
  x,y,z
_cell_length_a	12.759401
_cell_length_b	12.594516
_cell_length_c	12.759393
_cell_angle_alpha	90.028050
_cell_angle_beta	90.020938
_cell_angle_gamma	90.017577
loop_
_atom_site_label
_atom_site_type_symbol
_atom_site_fract_x
_atom_site_fract_y
_atom_site_fract_z
Zn1	Zn	1.606257	-0.423647	0.594038
Zn2	Zn	1.606143	-0.601663	0.418366
Zn3	Zn	1.430555	-0.423704	0.418373
Zn4	Zn	1.430543	-0.601589	0.594003
O5	O	1.518375	-0.512651	0.506195
O6	O	1.753263	-0.447269	0.570746
O7	O	1.582809	-0.578111	0.271345
O8	O	1.453915	-0.274751	0.441693
O9	O	1.753179	-0.578056	0.441680
O10	O	1.583002	-0.274709	0.570754
O11	O	1.453805	-0.447365	0.271351
O12	O	1.283533	-0.447293	0.441659
O13	O	1.453894	-0.577930	0.741029
O14	O	1.283524	-0.577985	0.570694
O15	O	1.582990	-0.447197	0.741054
O16	O	1.582797	-0.750599	0.441646
O17	O	1.453784	-0.750545	0.570686
C18	C	1.245407	-0.512638	0.506174
C19	C	1.128631	-0.512658	0.506190
C20	C	1.073791	-0.580812	0.573272
C21	C	0.964067	-0.580817	0.573293
C22	C	0.964031	-0.444509	0.439140
C23	C	1.073753	-0.444500	0.439125
C24	C	1.518306	-0.789192	0.506185
C25	C	1.518372	-0.907497	0.506215
C26	C	1.448195	-0.976759	0.576351
C27	C	1.422594	-1.047629	0.480484
C28	C	1.544069	-1.047427	0.602099
C29	C	1.492721	-0.976808	0.410297
C30	C	1.614240	-0.976600	0.531977
C31	C	1.588675	-1.047438	0.436044
C32	C	1.792408	-0.512665	0.506216
C33	C	1.909184	-0.512671	0.506226
C34	C	1.518453	-0.512549	0.780228
C35	C	1.518487	-0.512505	0.897005
C36	C	1.518472	-0.235030	0.506228
C37	C	1.518514	-0.116725	0.506242
C38	C	1.518357	-0.512676	0.233228
C39	C	1.518527	-0.512420	0.116451
C40	C	1.585712	-0.444422	0.951882
C41	C	1.585730	-0.444376	1.061606
C42	C	1.451294	-0.580506	1.061567
C43	C	1.451272	-0.580546	0.951844
H44	H	1.341587	-1.078851	0.458716
H45	H	0.919337	-0.389018	0.384537
H46	H	1.118405	-0.388994	0.384499
H47	H	1.470950	-0.945916	0.329198
H48	H	1.388743	-0.945724	0.635576
H49	H	1.648082	-1.078276	0.376676
H50	H	1.695229	-0.945381	0.553791
H51	H	1.640440	-0.389016	0.907235
H52	H	1.565747	-1.078448	0.683176
C53	C	1.659680	-0.369484	1.121971
C54	C	1.733608	-0.294643	1.061646
C55	C	1.807561	-0.219746	1.122010
C56	C	1.807585	-0.219689	1.242700
C57	C	1.733654	-0.294533	1.303033
C58	C	1.659702	-0.369430	1.242668
H59	H	1.733593	-0.294683	0.972298
H60	H	1.862289	-0.164342	1.077347
H61	H	1.862329	-0.164246	1.287385
H62	H	1.733670	-0.294493	1.392381
H63	H	1.604974	-0.424834	1.287331
C64	C	1.377385	-0.655373	1.121893
C65	C	1.303448	-0.730274	1.061526
C66	C	1.229547	-0.805154	1.121849
C67	C	1.229584	-0.805131	1.242539
C68	C	1.303524	-0.730227	1.302913
C69	C	1.377425	-0.655348	1.242589
H70	H	1.303418	-0.730293	0.972178
H71	H	1.174812	-0.860603	1.077156
H72	H	1.174879	-0.860561	1.287194
H73	H	1.303554	-0.730208	1.392261
H74	H	1.432160	-0.599898	1.287283
C75	C	1.377316	-0.655443	0.891476
C76	C	1.257887	-0.646740	0.906549
C77	C	1.183930	-0.721630	0.846182
C78	C	1.229401	-0.805223	0.770742
C79	C	1.348836	-0.813931	0.755665
C80	C	1.422793	-0.739041	0.816032
H81	H	1.224221	-0.584856	0.962398
H82	H	1.095516	-0.715184	0.857344
H83	H	1.174653	-0.860662	0.726055
H84	H	1.382502	-0.875815	0.699817
H85	H	1.511207	-0.745487	0.804871
H86	H	1.118469	-0.636308	0.627883
H87	H	0.919422	-0.636313	0.627920
