data_functionalizedCrystal
_audit_creation_method	'MofGen! by Chris Wilmer'
_symmetry_space_group_name_H-M	'P1'
_symmetry_Int_Tables_number	1
_symmetry_cell_setting	triclinic
loop_
_symmetry_equiv_pos_as_xyz
  x,y,z
_cell_length_a	17.077404
_cell_length_b	16.959454
_cell_length_c	17.077396
_cell_angle_alpha	90.023780
_cell_angle_beta	89.981638
_cell_angle_gamma	89.979095
loop_
_atom_site_label
_atom_site_type_symbol
_atom_site_fract_x
_atom_site_fract_y
_atom_site_fract_z
Zn1	Zn	1.200054	0.314724	-0.443844
Zn2	Zn	1.199961	0.446912	-0.312589
Zn3	Zn	1.068786	0.314747	-0.312595
Zn4	Zn	1.068754	0.446860	-0.443815
O5	O	1.134389	0.380811	-0.378211
O6	O	1.309889	0.332272	-0.426443
O7	O	1.182535	0.429411	-0.202743
O8	O	1.086252	0.204133	-0.330020
O9	O	1.309821	0.429390	-0.330010
O10	O	1.182694	0.204116	-0.426449
O11	O	1.086161	0.332310	-0.202747
O12	O	0.958935	0.332260	-0.329992
O13	O	1.086197	0.429301	-0.553666
O14	O	0.958911	0.429323	-0.426399
O15	O	1.182663	0.332221	-0.553688
O16	O	1.182504	0.557516	-0.329982
O17	O	1.086107	0.557478	-0.426393
C18	C	0.930441	0.380788	-0.378193
C19	C	0.843191	0.380798	-0.378205
C20	C	0.802237	0.330319	-0.428494
C21	C	0.720257	0.330324	-0.428497
C22	C	0.679232	0.380813	-0.378215
C23	C	0.720191	0.431294	-0.327920
C24	C	0.802170	0.431285	-0.327913
C25	C	0.549321	0.431312	-0.327940
C26	C	0.467337	0.431323	-0.327948
C27	C	0.467408	0.330351	-0.428524
C28	C	0.549387	0.330342	-0.428517
C29	C	0.590341	0.380824	-0.378223
C30	C	1.134313	0.586177	-0.378201
C31	C	1.134352	0.674034	-0.378223
C32	C	1.084235	1.045519	-0.428418
C33	C	1.184696	1.045499	-0.328106
C34	C	1.184673	0.962953	-0.328097
C35	C	1.134429	0.921687	-0.378249
C36	C	1.084208	0.962966	-0.428409
C37	C	1.234887	0.921668	-0.277932
C38	C	1.234865	0.839117	-0.277921
C39	C	1.184624	0.797849	-0.328077
C40	C	1.134402	0.839133	-0.378240
C41	C	1.084158	0.797866	-0.428392
C42	C	1.033940	0.839149	-0.478560
C43	C	1.033968	0.921698	-0.478566
C44	C	1.184596	0.715300	-0.328071
C45	C	1.084132	0.715313	-0.428383
C46	C	1.339133	0.380834	-0.378229
C47	C	1.426383	0.380844	-0.378237
C48	C	1.134436	0.380753	-0.582955
C49	C	1.134457	0.380728	-0.670205
C50	C	1.134474	1.174643	-0.378242
C51	C	1.134479	1.086786	-0.378266
C52	C	1.184688	0.330174	-0.711208
C53	C	1.184698	0.330148	-0.793188
C54	C	1.134479	0.380680	-0.834165
C55	C	1.084242	0.431236	-0.793156
C56	C	1.084229	0.431257	-0.711177
C57	C	1.084273	0.431188	-0.964027
C58	C	1.084287	0.431168	-1.046011
C59	C	1.184742	0.330079	-1.046037
C60	C	1.184729	0.330100	-0.964058
C61	C	1.134493	0.380657	-0.923056
C62	C	1.134387	0.380812	-0.174263
C63	C	1.134519	0.380614	-0.087014
H64	H	0.434059	0.289245	-0.469473
H65	H	0.835514	0.472390	-0.286962
N66	N	1.030069	1.090034	-0.482526
H67	H	1.061959	1.124241	-0.518937
H68	H	0.993731	1.124282	-0.450543
H69	H	1.225626	0.288957	-0.930698
N70	N	0.979749	0.794641	-0.532654
H71	H	0.923675	0.809053	-0.520416
H72	H	0.987418	0.736097	-0.525007
H73	H	0.993082	0.955317	-0.519408
H74	H	1.043220	0.681718	-0.469226
H75	H	1.225480	0.681692	-0.287222
H76	H	1.225598	1.079104	-0.287270
H77	H	1.043317	0.472415	-0.677794
N78	N	1.289059	0.966174	-0.223828
H79	H	1.281454	1.024732	-0.231446
H80	H	1.345114	0.951705	-0.236079
N81	N	1.289033	0.794594	-0.223823
H82	H	1.320867	0.833263	-0.192056
H83	H	1.325329	0.760309	-0.255814
N84	N	0.593639	0.275894	-0.482754
H85	H	0.555257	0.243914	-0.514616
H86	H	0.627650	0.239271	-0.450860
N87	N	1.030091	0.485722	-0.919807
H88	H	1.061971	0.522363	-0.885794
H89	H	0.993731	0.453552	-0.885838
H90	H	1.225585	0.289028	-0.677851
H91	H	1.043350	0.472376	-0.826526
H92	H	1.225603	0.288984	-0.826569
H93	H	0.835634	0.289207	-0.469441
H94	H	1.225645	0.288912	-1.079426
N95	N	1.030122	0.485651	-1.090228
H96	H	1.042267	0.542140	-1.075967
H97	H	0.974061	0.473295	-1.075947
N98	N	0.423085	0.485779	-0.273718
H99	H	0.461467	0.517755	-0.241853
H100	H	0.389061	0.453558	-0.237454
N101	N	0.593496	0.485757	-0.273692
H102	H	0.555069	0.517745	-0.241841
H103	H	0.627514	0.522372	-0.305582
N104	N	0.676084	0.275863	-0.482722
H105	H	0.714513	0.243876	-0.514573
H106	H	0.642067	0.308075	-0.519001
N107	N	0.675938	0.485749	-0.273691
H108	H	0.690197	0.542239	-0.285785
H109	H	0.690198	0.473332	-0.217645
