data_functionalizedCrystal
_audit_creation_method	'MofGen! by Chris Wilmer'
_symmetry_space_group_name_H-M	'P1'
_symmetry_Int_Tables_number	1
_symmetry_cell_setting	triclinic
loop_
_symmetry_equiv_pos_as_xyz
  x,y,z
_cell_length_a	15.298068
_cell_length_b	13.897447
_cell_length_c	15.296720
_cell_angle_alpha	80.352969
_cell_angle_beta	91.645182
_cell_angle_gamma	99.679582
loop_
_atom_site_label
_atom_site_type_symbol
_atom_site_fract_x
_atom_site_fract_y
_atom_site_fract_z
Zn1	Zn	1.253390	-0.286949	0.727372
Zn2	Zn	1.753390	0.213051	1.227372
Zn3	Zn	1.278657	-0.416495	0.580907
Zn4	Zn	1.778657	0.083505	1.080907
Zn5	Zn	1.132270	-0.277576	0.555539
Zn6	Zn	1.632270	0.222424	1.055539
Zn7	Zn	1.106889	-0.470571	0.701932
Zn8	Zn	1.606889	0.029429	1.201932
O9	O	1.192802	-0.362898	0.641438
O10	O	1.692802	0.137102	1.141438
O11	O	1.379317	-0.285425	0.729207
O12	O	1.879317	0.214575	1.229207
O13	O	1.280435	-0.371514	0.454980
O14	O	1.780435	0.128486	0.954980
O15	O	1.148384	-0.143834	0.578363
O16	O	1.648384	0.356166	1.078363
O17	O	1.397881	-0.380603	0.621600
O18	O	1.897881	0.119397	1.121600
O19	O	1.237371	-0.150720	0.704608
O20	O	1.737371	0.349280	1.204608
O21	O	1.172885	-0.269451	0.436342
O22	O	1.672885	0.230549	0.936342
O23	O	1.006328	-0.321885	0.553695
O24	O	1.506328	0.178115	1.053695
O25	O	1.105126	-0.472766	0.827869
O26	O	1.605126	0.027234	1.327869
O27	O	0.987681	-0.463678	0.661249
O28	O	1.487681	0.036322	1.161249
O29	O	1.212760	-0.337860	0.846560
O30	O	1.712760	0.162140	1.346560
O31	O	1.255824	-0.558653	0.596931
O32	O	1.755824	-0.058653	1.096931
O33	O	1.129627	-0.598382	0.685848
O34	O	1.629627	-0.098382	1.185848
C35	C	0.965222	-0.397633	0.601959
C36	C	1.465222	0.102367	1.101959
C37	C	0.867859	-0.412521	0.585091
C38	C	1.367859	0.087479	1.085091
C39	C	0.554688	-0.256735	0.762000
C40	C	1.054688	0.243265	1.262000
C41	C	0.646165	-0.242751	0.777854
C42	C	1.146165	0.257249	1.277854
C43	C	0.701593	-0.285192	0.729664
C44	C	1.201593	0.214808	1.229664
C45	C	0.665535	-0.341620	0.665619
C46	C	1.165535	0.158380	1.165619
C47	C	0.574048	-0.355612	0.649768
C48	C	1.074048	0.144388	1.149768
C49	C	0.720953	-0.384069	0.617432
C50	C	1.220953	0.115931	1.117432
C51	C	0.684895	-0.440497	0.553387
C52	C	1.184895	0.059503	1.053387
C53	C	0.593418	-0.454485	0.537539
C54	C	1.093418	0.045515	1.037539
C55	C	0.537990	-0.412044	0.585729
C56	C	1.037990	0.087956	1.085729
C57	C	0.812440	-0.370077	0.633283
C58	C	1.312440	0.129923	1.133283
C59	C	0.831800	-0.468954	0.521051
C60	C	1.331800	0.031046	1.021051
C61	C	0.740323	-0.482937	0.505198
C62	C	1.240323	0.017063	1.005198
C63	C	1.192734	-0.613518	0.641405
C64	C	1.692734	-0.113518	1.141405
C65	C	1.192780	-0.720729	0.641434
C66	C	1.692780	-0.220729	1.141434
C67	C	1.192819	-0.807797	0.641462
C68	C	1.692819	-0.307797	1.141462
C69	C	1.192876	-0.917025	0.641495
C70	C	1.692876	-0.417025	1.141495
C71	C	1.421270	-0.328027	0.681071
C72	C	1.921270	0.171973	1.181071
C73	C	1.518629	-0.313168	0.697960
C74	C	2.018629	0.186832	1.197960
C75	C	1.153293	-0.412390	0.869882
C76	C	1.653293	0.087610	1.369882
C77	C	1.136457	-0.433481	0.967232
C78	C	1.636457	0.066519	1.467232
C79	C	1.192890	-0.111299	0.641494
C80	C	1.692890	0.388701	1.141494
C81	C	1.192928	-0.004082	0.641518
C82	C	1.692928	0.495918	1.141518
C83	C	1.232206	-0.313520	0.413891
C84	C	1.732206	0.186480	0.913891
C85	C	1.249212	-0.292132	0.316571
C86	C	1.749212	0.207868	0.816571
C87	C	1.313164	-0.211984	1.280571
C88	C	1.813164	0.288016	1.780571
C89	C	1.328987	-0.192169	1.189107
C90	C	1.828987	0.307831	1.689107
C91	C	1.280856	-0.252495	1.133634
C92	C	1.780856	0.247505	1.633634
C93	C	1.216899	-0.332640	1.169633
C94	C	1.716899	0.167360	1.669633
C95	C	1.201078	-0.352462	1.261107
C96	C	1.701078	0.147538	1.761107
C97	C	1.168771	-0.392973	1.114170
C98	C	1.668771	0.107027	1.614170
C99	C	1.104813	-0.473118	1.150169
C100	C	1.604813	0.026882	1.650169
C101	C	1.088995	-0.492935	1.241634
C102	C	1.588995	0.007065	1.741634
C103	C	1.137126	-0.432609	1.297107
C104	C	1.637126	0.067391	1.797107
C105	C	1.184591	-0.373151	1.022696
C106	C	1.684591	0.126849	1.522696
C107	C	1.072506	-0.513629	1.003232
C108	C	1.572506	-0.013629	1.503232
C109	C	1.056682	-0.533444	1.094696
C110	C	1.556682	-0.033444	1.594696
H111	H	0.710952	-0.528883	0.453052
H112	H	1.210952	-0.028883	0.953052
H113	H	1.381064	-0.126917	1.159803
H114	H	1.881064	0.373083	1.659803
H115	H	0.876929	-0.503518	0.481815
H116	H	1.376929	-0.003518	0.981815
H117	H	0.564062	-0.500441	0.485396
H118	H	1.064062	-0.000441	0.985396
C119	C	1.254934	-0.284996	0.983101
C120	C	1.754934	0.215004	1.483101
H121	H	1.257470	-0.281832	0.920683
H122	H	1.757470	0.218168	1.420683
H123	H	1.239547	-0.225390	0.995887
H124	H	1.739547	0.274610	1.495887
H125	H	1.311191	-0.293389	1.008300
H126	H	1.811191	0.206611	1.508300
H127	H	1.293744	-0.236357	1.059160
H128	H	1.793744	0.263643	1.559160
C129	C	1.366097	-0.145635	1.341589
C130	C	1.866097	0.354365	1.841589
H131	H	1.347509	-0.168916	1.401218
H132	H	1.847509	0.331084	1.901218
H133	H	1.427538	-0.147518	1.336808
H134	H	1.927538	0.352482	1.836808
H135	H	1.355886	-0.079529	1.324393
H136	H	1.855886	0.420471	1.824393
H137	H	0.509551	-0.222192	0.801234
H138	H	1.009551	0.277808	1.301234
H139	H	1.036924	-0.558202	1.270943
H140	H	1.536924	-0.058202	1.770943
H141	H	0.776077	-0.273799	0.742573
H142	H	1.276077	0.226201	1.242573
H143	H	1.004607	-0.598698	1.124020
H144	H	1.504607	-0.098698	1.624020
C145	C	1.019561	-0.579998	0.942226
C146	C	1.519561	-0.079998	1.442226
H147	H	0.979216	-0.630577	0.976767
H148	H	1.479216	-0.130577	1.476767
H149	H	0.987579	-0.541197	0.899929
H150	H	1.487579	-0.041197	1.399929
H151	H	1.059235	-0.609181	0.912352
H152	H	1.559235	-0.109181	1.412352
H153	H	0.675516	-0.196811	0.830002
H154	H	1.175516	0.303189	1.330002
C155	C	0.852098	-0.308009	0.703724
C156	C	1.352098	0.191991	1.203724
H157	H	0.914518	-0.305759	0.706270
H158	H	1.414518	0.194241	1.206270
H159	H	0.839311	-0.242715	0.688416
H160	H	1.339311	0.257285	1.188416
H161	H	0.826940	-0.337275	0.759954
H162	H	1.326940	0.162725	1.259954
H163	H	1.124246	-0.448739	1.371585
H164	H	1.624246	0.051261	1.871585
H165	H	0.463500	-0.423435	0.572830
H166	H	0.963500	0.076565	1.072830
