data_functionalizedCrystal
_audit_creation_method	'MofGen! by Chris Wilmer'
_symmetry_space_group_name_H-M	'P1'
_symmetry_Int_Tables_number	1
_symmetry_cell_setting	triclinic
loop_
_symmetry_equiv_pos_as_xyz
  x,y,z
_cell_length_a	27.732048
_cell_length_b	17.000371
_cell_length_c	16.098667
_cell_angle_alpha	87.484940
_cell_angle_beta	92.705456
_cell_angle_gamma	79.120952
loop_
_atom_site_label
_atom_site_type_symbol
_atom_site_fract_x
_atom_site_fract_y
_atom_site_fract_z
O1	O	0.635021	0.098334	-0.069150
O2	O	1.135021	0.598334	0.430850
O3	O	0.493680	0.112743	-0.069175
O4	O	0.993680	0.612743	0.430825
O5	O	0.573127	-0.010436	-0.069155
O6	O	1.073127	0.489564	0.430845
O7	O	0.555574	0.221513	-0.069170
O8	O	1.055574	0.721513	0.430830
O9	O	0.577744	-0.017607	0.069356
O10	O	1.077744	0.482393	0.569356
O11	O	0.498297	0.105572	0.069336
O12	O	0.998297	0.605572	0.569336
O13	O	0.639638	0.091163	0.069362
O14	O	1.139638	0.591163	0.569362
Zn15	Zn	0.569701	0.097229	0.091341
Zn16	Zn	1.069701	0.597229	0.591341
Zn17	Zn	0.563618	0.106677	-0.091154
Zn18	Zn	1.063618	0.606677	0.408846
O19	O	0.560191	0.214342	0.069342
O20	O	1.060191	0.714342	0.569342
C21	C	0.477993	0.108855	0.000078
C22	C	0.977993	0.608855	0.500078
C23	C	0.424372	0.107945	0.000068
C24	C	0.924372	0.607945	0.500068
C25	C	0.083012	0.175000	0.000100
C26	C	0.583012	0.675000	0.500100
C27	C	-0.118519	0.171621	0.000107
C28	C	0.381481	0.671621	0.500107
O29	O	-0.152102	0.232938	0.000140
O30	O	0.347898	0.732938	0.500140
N31	N	-0.134869	0.098581	0.000111
N32	N	0.365131	0.598581	0.500111
C33	C	-0.100833	0.026381	0.000117
C34	C	0.399167	0.526381	0.500117
O35	O	-0.119364	-0.035822	0.000129
O36	O	0.380636	0.464178	0.500129
C37	C	0.100697	0.029761	0.000116
C38	C	0.600697	0.529761	0.500116
C39	C	0.117044	0.102806	0.000104
C40	C	0.617044	0.602806	0.500104
C41	C	0.099360	0.248039	0.000089
C42	C	0.599360	0.748039	0.500089
C43	C	0.149740	0.248883	0.000083
C44	C	0.649740	0.748883	0.500083
C45	C	0.183772	0.176689	0.000087
C46	C	0.683772	0.676689	0.500087
C47	C	0.167424	0.103650	0.000098
C48	C	0.667424	0.603650	0.500098
C49	C	0.134733	-0.042439	0.000128
C50	C	0.634733	0.457561	0.500128
C51	C	0.185118	-0.041588	0.000130
C52	C	0.685118	0.458412	0.500130
C53	C	0.201465	0.031457	0.000119
C54	C	0.701465	0.531457	0.500119
C55	C	0.251835	0.032300	0.000095
C56	C	0.751835	0.532300	0.500095
N57	N	0.268186	0.105339	0.000092
N58	N	0.768186	0.605339	0.500092
C59	C	0.234154	0.177534	0.000088
C60	C	0.734154	0.677534	0.500088
C61	C	-0.206640	0.024612	0.000117
C62	C	0.293360	0.524612	0.500117
C63	C	-0.257022	0.023767	0.000116
C64	C	0.242978	0.523767	0.500116
C65	C	-0.274705	0.169007	0.000107
C66	C	0.225295	0.669007	0.500107
C67	C	-0.224321	0.169851	0.000102
C68	C	0.275679	0.669851	0.500102
C69	C	-0.190290	0.097651	0.000114
C70	C	0.309710	0.597651	0.500114
C71	C	0.339956	0.179301	0.000074
C72	C	0.839956	0.679301	0.500074
C73	C	0.390340	0.180140	0.000064
C74	C	0.890340	0.680140	0.500064
C75	C	0.408018	0.034899	0.000077
C76	C	0.908018	0.534899	0.500077
C77	C	0.357638	0.034061	0.000082
C78	C	0.857638	0.534061	0.500082
C79	C	0.323607	0.106269	0.000083
C80	C	0.823607	0.606269	0.500083
O81	O	0.285446	-0.028985	0.000073
O82	O	0.785446	0.471015	0.500073
O83	O	0.252695	0.239727	0.000095
O84	O	0.752695	0.739727	0.500095
C85	C	0.032633	0.174156	0.000106
C86	C	0.532633	0.674156	0.500106
C87	C	0.016285	0.101117	0.000117
C88	C	0.516285	0.601117	0.500117
C89	C	0.050317	0.028922	0.000121
C90	C	0.550317	0.528922	0.500121
C91	C	-0.034098	0.100272	0.000116
C92	C	0.465902	0.600272	0.500116
C93	C	-0.068129	0.172467	0.000112
C94	C	0.431871	0.672467	0.500112
C95	C	-0.051779	0.245506	0.000108
C96	C	0.448221	0.745506	0.500108
C97	C	-0.001399	0.246351	0.000102
C98	C	0.498601	0.746351	0.500102
C99	C	0.033966	-0.044117	0.000124
C100	C	0.533966	0.455883	0.500124
C101	C	-0.016414	-0.044956	0.000130
C102	C	0.483586	0.455044	0.500130
C103	C	-0.050446	0.027239	0.000126
C104	C	0.449554	0.527239	0.500126
C105	C	0.576378	-0.043687	0.000101
C106	C	1.076378	0.456313	0.500101
C107	C	0.579182	-0.132080	0.000100
C108	C	1.079182	0.367920	0.500100
C109	C	0.655325	0.095051	0.000107
C110	C	1.155325	0.595051	0.500107
C111	C	0.708946	0.095961	0.000111
C112	C	1.208946	0.595961	0.500111
C113	C	0.536040	-0.163575	0.000089
C114	C	1.036040	0.336425	0.500089
C115	C	0.538678	-0.246630	0.000092
C116	C	1.038678	0.253370	0.500092
C117	C	0.584456	-0.298190	0.000100
C118	C	1.084456	0.201810	0.500100
C119	C	0.627601	-0.266690	0.000114
C120	C	1.127601	0.233310	0.500114
C121	C	0.624963	-0.183637	0.000117
C122	C	1.124963	0.316363	0.500117
C123	C	0.594644	-0.549461	0.000096
C124	C	1.094644	-0.049461	0.500096
C125	C	0.597278	-0.632519	0.000090
C126	C	1.097278	-0.132519	0.500090
C127	C	0.508354	-0.612453	0.000070
C128	C	1.008354	-0.112453	0.500070
C129	C	0.505721	-0.529399	0.000068
C130	C	1.005721	-0.029399	0.500068
C131	C	0.548865	-0.497907	0.000086
C132	C	1.048865	0.002093	0.500086
C133	C	0.587153	-0.383086	0.000100
C134	C	1.087153	0.116914	0.500100
C135	C	0.546169	-0.413012	0.000092
C136	C	1.046169	0.086988	0.500092
C137	C	0.556940	0.247593	0.000084
C138	C	1.056940	0.747593	0.500084
C139	C	0.554136	0.335986	0.000079
C140	C	1.054136	0.835986	0.500079
N141	N	0.573856	0.090780	0.215888
N142	N	1.073856	0.590780	0.715888
C143	C	0.540130	0.143044	0.259485
C144	C	1.040130	0.643044	0.759485
C145	C	0.543051	0.138529	0.346673
C146	C	1.043051	0.638529	0.846673
C147	C	0.579696	0.081747	0.390263
C148	C	1.079696	0.581747	0.890263
C149	C	0.613425	0.029481	0.346660
C150	C	1.113425	0.529481	0.846660
C151	C	0.610506	0.034000	0.259473
C152	C	1.110506	0.534000	0.759473
C153	C	0.590272	0.065378	0.653509
C154	C	1.090272	0.565378	1.153509
C155	C	0.593187	0.060862	0.740701
C156	C	1.093187	0.560862	1.240701
C157	C	0.522813	0.169911	0.740709
C158	C	1.022813	0.669911	1.240709
C159	C	0.519895	0.174422	0.653521
C160	C	1.019895	0.674422	1.153521
C161	C	0.553626	0.122159	0.609926
C162	C	1.053626	0.622159	1.109926
C163	C	0.582681	0.077129	0.479383
C164	C	1.082681	0.577129	0.979383
C165	C	0.550643	0.126781	0.520807
C166	C	1.050643	0.626781	1.020807
N167	N	0.559461	0.113125	0.784298
N168	N	1.059461	0.613125	1.284298
H169	H	-0.211016	0.229331	0.000098
H170	H	0.288984	0.729331	0.500098
H171	H	-0.302422	0.227790	0.000104
H172	H	0.197578	0.727790	0.500104
H173	H	0.508896	-0.371029	0.000091
H174	H	1.008896	0.128971	0.500091
H175	H	0.624426	-0.425075	0.000105
H176	H	1.124426	0.074925	0.500105
H177	H	0.617736	0.022822	0.618020
H178	H	1.117736	0.522822	1.118020
Br179	Br	0.454214	-0.063074	0.000084
Br180	Br	0.954214	0.436926	0.500084
Br181	Br	0.480126	-0.289369	0.000077
Br182	Br	0.980126	0.210631	0.500077
H183	H	-0.270327	-0.035713	0.000112
H184	H	0.229673	0.464287	0.500112
Br185	Br	0.443590	-0.459429	0.000043
Br186	Br	0.943590	0.040571	0.500043
Br187	Br	0.689730	-0.336664	0.000138
Br188	Br	1.189730	0.163336	0.500138
Br189	Br	0.490391	0.220104	0.200338
Br190	Br	0.990391	0.720104	0.700338
Br191	Br	0.497281	0.209461	0.405844
Br192	Br	0.997281	0.709461	0.905844
Br193	Br	0.683515	-0.140894	0.000146
Br194	Br	1.183515	0.359106	0.500146
Br195	Br	0.449804	-0.655197	0.000045
Br196	Br	0.949804	-0.155197	0.500045
Br197	Br	0.293779	0.277298	0.000077
Br198	Br	0.793779	0.777298	0.500077
Br199	Br	0.470161	0.251481	0.594363
Br200	Br	0.970161	0.751481	1.094363
H201	H	0.634558	-0.674498	0.000091
H202	H	1.134558	-0.174498	0.500091
Br203	Br	-0.160460	-0.073384	0.000132
Br204	Br	0.339540	0.426616	0.500132
Br205	Br	0.112560	-0.141577	0.000126
Br206	Br	0.612560	0.358423	0.500126
Br207	Br	0.477038	0.240837	0.799877
Br208	Br	0.977038	0.740837	1.299877
Br209	Br	0.642923	-0.016211	0.799853
Br210	Br	1.142923	0.483789	1.299853
H211	H	0.629775	-0.523830	0.000109
H212	H	1.129775	-0.023830	0.500109
H213	H	0.643265	-0.016750	0.382155
H214	H	1.143265	0.483250	0.882155
H215	H	0.637970	-0.008557	0.223977
H216	H	1.137970	0.491443	0.723977
H217	H	0.011905	0.305831	0.000094
H218	H	0.511905	0.805831	0.500094
H219	H	-0.079497	0.304290	0.000102
H220	H	0.420503	0.804290	0.500102
Br221	Br	0.632414	0.000068	0.538543
Br222	Br	1.132414	0.500068	1.038543
Br223	Br	0.171917	0.348021	0.000071
Br224	Br	0.671917	0.848021	0.500071
Br225	Br	0.231302	-0.139580	0.000150
Br226	Br	0.731302	0.360420	0.500150
H227	H	0.403646	0.239624	0.000054
H228	H	0.903646	0.739624	0.500054
Br229	Br	-0.038592	-0.144097	0.000132
Br230	Br	0.461408	0.355903	0.500132
H231	H	0.071655	0.306832	0.000089
H232	H	0.571655	0.806832	0.500089
H233	H	0.061671	-0.102908	0.000130
H234	H	0.561671	0.397092	0.500130
H235	H	0.344327	-0.025417	0.000079
H236	H	0.844327	0.474583	0.500079
H237	H	0.498762	-0.121599	0.000078
H238	H	0.998762	0.378401	0.500078
H239	H	0.520808	0.173016	0.485314
H240	H	1.020808	0.673016	0.985314
