data_functionalizedCrystal
_audit_creation_method	'MofGen! by Chris Wilmer'
_symmetry_space_group_name_H-M	'P1'
_symmetry_Int_Tables_number	1
_symmetry_cell_setting	triclinic
loop_
_symmetry_equiv_pos_as_xyz
  x,y,z
_cell_length_a	23.532407
_cell_length_b	17.699083
_cell_length_c	16.176319
_cell_angle_alpha	90.001389
_cell_angle_beta	89.988536
_cell_angle_gamma	96.934153
loop_
_atom_site_label
_atom_site_type_symbol
_atom_site_fract_x
_atom_site_fract_y
_atom_site_fract_z
O1	O	0.072020	-1.003713	-0.068639
O2	O	0.081390	-0.783287	-0.068667
O3	O	-0.006208	-0.900147	-0.068637
O4	O	0.159618	-0.886853	-0.068669
O5	O	-0.006213	-0.900131	0.068856
O6	O	0.081384	-0.783271	0.068826
O7	O	0.072014	-1.003697	0.068854
Cu8	Cu	0.076699	-0.893483	0.081394
Cu9	Cu	0.076705	-0.893502	-0.081207
O10	O	0.159612	-0.886837	0.068824
C11	C	0.081051	-0.755084	0.000076
C12	C	0.080044	-0.671071	0.000066
C13	C	-0.027427	-0.899801	0.000111
C14	C	-0.090647	-0.898783	0.000118
C15	C	0.072353	-1.031901	0.000109
C16	C	0.073360	-1.115914	0.000114
C17	C	-0.489570	-0.961554	0.000080
C18	C	-0.548973	-0.960609	0.000074
O19	O	-0.585550	-1.018799	0.000051
N20	N	-0.571799	-0.891136	0.000066
C21	C	-0.535218	-0.822604	0.000055
O22	O	-0.560088	-0.763424	0.000047
C23	C	-0.475816	-0.823550	0.000056
C24	C	-0.452994	-0.893028	0.000073
C25	C	-0.466747	-1.031026	0.000096
C26	C	-0.407348	-1.031972	0.000104
C27	C	-0.370772	-0.963445	0.000096
C28	C	-0.393595	-0.893973	0.000080
C29	C	-0.439237	-0.755019	0.000040
C30	C	-0.379832	-0.755971	0.000039
C31	C	-0.357009	-0.825448	0.000056
C32	C	-0.297620	-0.826391	0.000081
N33	N	-0.274795	-0.895864	0.000089
C34	C	-0.311371	-0.964391	0.000097
C35	C	-0.659966	-0.820622	0.000053
C36	C	-0.719367	-0.819674	0.000058
C37	C	-0.733118	-0.957680	0.000075
C38	C	-0.673716	-0.958626	0.000076
C39	C	-0.637141	-0.890095	0.000061
C40	C	-0.186628	-0.966371	0.000114
C41	C	-0.127223	-0.967310	0.000125
C42	C	-0.113478	-0.829305	0.000104
C43	C	-0.172877	-0.828365	0.000097
C44	C	-0.209452	-0.896904	0.000099
O45	O	-0.261008	-0.768232	0.000100
O46	O	-0.286493	-1.023560	0.000094
C47	C	0.180832	-0.887184	0.000073
C48	C	0.244052	-0.888202	0.000062
N49	N	0.076694	-0.893475	0.195759
C50	C	0.131462	-0.622189	0.000056
C51	C	0.130512	-0.543251	0.000067
C52	C	0.078144	-0.513196	0.000082
C53	C	0.026722	-0.562084	0.000094
C54	C	0.027672	-0.641021	0.000089
C55	C	0.022888	-0.243740	0.000115
C56	C	0.021942	-0.164797	0.000117
C57	C	0.125728	-0.145970	0.000093
C58	C	0.126678	-0.224907	0.000088
C59	C	0.075257	-0.273788	0.000105
C60	C	0.076287	-0.359382	0.000094
C61	C	0.077113	-0.427603	0.000086
N62	N	0.076706	-0.893516	-0.195573
C63	C	0.037921	-0.945236	0.239037
C64	C	0.037921	-0.945240	0.325584
C65	C	0.076696	-0.893486	0.368852
C66	C	0.115470	-0.841719	0.325568
C67	C	0.115467	-0.841713	0.239023
C68	C	0.115481	-0.841745	0.674597
C69	C	0.115481	-0.841758	0.761148
C70	C	0.037934	-0.945273	0.761158
C71	C	0.037932	-0.945266	0.674612
C72	C	0.076704	-0.893497	0.631336
C73	C	0.076703	-0.893493	0.537492
C74	C	0.076700	-0.893493	0.462695
H75	H	-0.216401	-1.022182	0.000113
O76	O	-0.003900	-1.001070	0.372258
H77	H	0.002609	-0.992375	0.439708
O78	O	-0.074023	-0.755394	0.000095
H79	H	-0.028885	-0.767731	0.000093
H80	H	-0.020705	-0.140330	0.000130
O81	O	-0.032571	-0.296458	0.000132
H82	H	-0.069143	-0.262294	0.000136
H83	H	-0.014197	-0.680820	0.000096
O84	O	0.187945	-0.654605	0.000048
H85	H	0.223539	-0.607349	0.000054
O86	O	-0.003895	-1.001078	0.627941
H87	H	0.003298	-1.060027	0.644540
H88	H	0.006362	-0.987424	0.796402
H89	H	-0.015917	-0.537607	0.000117
O90	O	-0.003905	-1.001046	0.192364
H91	H	0.003286	-1.059996	0.208961
H92	H	0.172382	-0.503454	0.000058
H93	H	-0.388773	-1.088547	0.000114
H94	H	-0.496522	-1.086833	0.000099
H95	H	0.147058	-0.799610	0.796376
H96	H	-0.737943	-0.763099	0.000059
H97	H	-0.630189	-0.764811	0.000048
H98	H	-0.655139	-1.015201	0.000089
O99	O	0.157302	-0.785919	0.627924
H100	H	0.184269	-0.749941	0.672554
O101	O	0.181193	-0.093248	0.000083
H102	H	0.206259	-0.103895	0.056112
O103	O	0.157296	-0.785899	0.372230
H104	H	0.150790	-0.794605	0.439682
O105	O	-0.197491	-0.753426	0.000089
H106	H	-0.224234	-0.749683	0.056127
H107	H	0.147039	-0.799563	0.203787
H108	H	-0.457808	-0.698442	0.000021
O109	O	-0.102607	-1.042249	0.000131
H110	H	-0.138024	-1.089739	0.000122
O111	O	-0.772572	-1.031597	0.000081
H112	H	-0.799952	-1.034471	-0.055965
O113	O	-0.340381	-0.682053	0.000034
H114	H	-0.366235	-0.633588	0.000030
O115	O	0.183160	-0.257326	0.000085
H116	H	0.218756	-0.210073	0.000091
