data_functionalizedCrystal
_audit_creation_method	'MofGen! by Chris Wilmer'
_symmetry_space_group_name_H-M	'P1'
_symmetry_Int_Tables_number	1
_symmetry_cell_setting	triclinic
loop_
_symmetry_equiv_pos_as_xyz
  x,y,z
_cell_length_a	15.944551
_cell_length_b	14.044220
_cell_length_c	12.503572
_cell_angle_alpha	86.156832
_cell_angle_beta	86.485927
_cell_angle_gamma	91.656192
loop_
_atom_site_label
_atom_site_type_symbol
_atom_site_fract_x
_atom_site_fract_y
_atom_site_fract_z
O1	O	1.128105	-0.116774	-0.089210
O2	O	1.378105	0.133226	0.160790
O3	O	1.628105	0.383226	0.410790
O4	O	1.878105	0.633226	0.660790
O5	O	0.884686	-0.131845	-0.089237
O6	O	1.134686	0.118155	0.160763
O7	O	1.384686	0.368155	0.410763
O8	O	1.634686	0.618155	0.660763
O9	O	1.002741	0.013675	-0.089213
O10	O	1.252741	0.263675	0.160787
O11	O	1.502741	0.513675	0.410787
O12	O	1.752741	0.763675	0.660787
O13	O	1.010050	-0.262294	-0.089234
O14	O	1.260050	-0.012294	0.160766
O15	O	1.510050	0.237706	0.410766
O16	O	1.760050	0.487706	0.660766
O17	O	0.993864	0.002713	0.089427
O18	O	1.243864	0.252713	0.339427
O19	O	1.493864	0.502713	0.589427
O20	O	1.743864	0.752713	0.839427
O21	O	0.875808	-0.142807	0.089403
O22	O	1.125808	0.107193	0.339403
O23	O	1.375808	0.357193	0.589403
O24	O	1.625808	0.607193	0.839403
O25	O	1.119228	-0.127736	0.089430
O26	O	1.369228	0.122264	0.339430
O27	O	1.619228	0.372264	0.589430
O28	O	1.869228	0.622264	0.839430
Cu29	Cu	0.996708	-0.136272	0.105728
Cu30	Cu	1.246708	0.113728	0.355728
Cu31	Cu	1.496708	0.363728	0.605728
Cu32	Cu	1.746708	0.613728	0.855728
Cu33	Cu	1.007206	-0.123309	-0.105535
Cu34	Cu	1.257206	0.126691	0.144465
Cu35	Cu	1.507206	0.376691	0.394465
Cu36	Cu	1.757206	0.626691	0.644465
O37	O	1.001173	-0.273256	0.089406
O38	O	1.251173	-0.023256	0.339406
O39	O	1.501173	0.226744	0.589406
O40	O	1.751173	0.476744	0.839406
C41	C	0.848906	-0.136700	0.000080
C42	C	1.098906	0.113300	0.250080
C43	C	1.348906	0.363300	0.500080
C44	C	1.598906	0.613300	0.750080
C45	C	0.755520	-0.134823	0.000070
C46	C	1.005520	0.115177	0.250070
C47	C	1.255520	0.365177	0.500070
C48	C	1.505520	0.615177	0.750070
N49	N	0.989330	-0.145390	0.254319
N50	N	1.239330	0.104610	0.504319
N51	N	1.489330	0.354610	0.754319
N52	N	1.739330	0.604610	1.004319
C53	C	0.995104	0.043508	0.000107
C54	C	1.245104	0.293508	0.250107
C55	C	1.495104	0.543508	0.500107
C56	C	1.745104	0.793508	0.750107
C57	C	0.985563	0.148735	0.000107
C58	C	1.235563	0.398735	0.250107
C59	C	1.485563	0.648735	0.500107
C60	C	1.735563	0.898735	0.750107
C61	C	0.533573	-0.040141	0.000097
C62	C	0.783573	0.209859	0.250097
C63	C	1.033573	0.459859	0.500097
C64	C	1.283573	0.709859	0.750097
C65	C	0.480222	-0.078704	-0.087985
C66	C	0.730222	0.171296	0.162015
C67	C	0.980222	0.421296	0.412015
C68	C	1.230222	0.671296	0.662015
C69	C	0.584540	-0.131431	0.000083
C70	C	0.834540	0.118569	0.250083
C71	C	1.084540	0.368569	0.500083
C72	C	1.334540	0.618569	0.750083
C73	C	0.471493	-0.089533	0.088140
C74	C	0.721493	0.160467	0.338140
C75	C	0.971493	0.410467	0.588140
C76	C	1.221493	0.660467	0.838140
C77	C	0.419380	-0.128147	0.000100
C78	C	0.669380	0.121853	0.250100
C79	C	0.919380	0.371853	0.500100
C80	C	1.169380	0.621853	0.750100
C81	C	0.532423	-0.170014	-0.088073
C82	C	0.782423	0.079986	0.161927
C83	C	1.032423	0.329986	0.411927
C84	C	1.282423	0.579986	0.661927
C85	C	0.523696	-0.180836	0.088132
C86	C	0.773696	0.069164	0.338132
C87	C	1.023696	0.319164	0.588132
C88	C	1.273696	0.569164	0.838132
C89	C	0.470368	-0.219464	0.000028
C90	C	0.720368	0.030536	0.250028
C91	C	0.970368	0.280536	0.500028
C92	C	1.220368	0.530536	0.750028
C93	C	0.679684	-0.133320	0.000072
C94	C	0.929684	0.116680	0.250072
C95	C	1.179684	0.366680	0.500072
C96	C	1.429684	0.616680	0.750072
C97	C	0.324238	-0.126264	0.000103
C98	C	0.574238	0.123736	0.250103
C99	C	0.824238	0.373736	0.500103
C100	C	1.074238	0.623736	0.750103
C101	C	1.155007	-0.122881	0.000111
C102	C	1.405007	0.127119	0.250111
C103	C	1.655007	0.377119	0.500111
C104	C	1.905007	0.627119	0.750111
C105	C	1.248394	-0.124757	0.000114
C106	C	1.498394	0.125243	0.250114
C107	C	1.748394	0.375243	0.500114
C108	C	1.998394	0.625243	0.750114
C109	C	1.008810	-0.303089	0.000084
C110	C	1.258810	-0.053089	0.250084
C111	C	1.508810	0.196911	0.500084
C112	C	1.758810	0.446911	0.750084
C113	C	1.018352	-0.408315	0.000076
C114	C	1.268352	-0.158315	0.250076
C115	C	1.518352	0.091685	0.500076
C116	C	1.768352	0.341685	0.750076
C117	C	0.968120	0.341398	0.000090
C118	C	1.218120	0.591398	0.250090
C119	C	1.468120	0.841398	0.500090
C120	C	1.718120	1.091398	0.750090
C121	C	1.035790	0.399027	0.000094
C122	C	1.285790	0.649027	0.250094
C123	C	1.535790	0.899027	0.500094
C124	C	1.785790	1.149027	0.750094
C125	C	1.026085	0.506232	0.000084
C126	C	1.276085	0.756232	0.250084
C127	C	1.526085	1.006232	0.500084
C128	C	1.776085	1.256232	0.750084
C129	C	0.977824	0.234184	0.000099
C130	C	1.227824	0.484184	0.250099
C131	C	1.477824	0.734184	0.500099
C132	C	1.727824	0.984184	0.750099
N133	N	1.014590	-0.114183	-0.254126
N134	N	1.264590	0.135817	-0.004126
N135	N	1.514590	0.385817	0.245874
N136	N	1.764590	0.635817	0.495874
C137	C	0.978477	-0.158810	0.473432
C138	C	1.228477	0.091190	0.723432
C139	C	1.478477	0.341190	0.973432
C140	C	1.728477	0.591190	1.223432
C141	C	1.025440	-0.100766	0.526768
C142	C	1.275440	0.149234	0.776768
C143	C	1.525440	0.399234	1.026768
C144	C	1.775440	0.649234	1.276768
C145	C	1.019401	-0.108234	0.648690
C146	C	1.269401	0.141766	0.898690
C147	C	1.519401	0.391766	1.148690
C148	C	1.769401	0.641766	1.398690
C149	C	0.984515	-0.151344	0.351499
C150	C	1.234515	0.098656	0.601499
C151	C	1.484515	0.348656	0.851499
C152	C	1.734515	0.598656	1.101499
H153	H	0.460921	-0.035522	-0.162447
H154	H	0.710921	0.214478	0.087553
H155	H	0.960921	0.464478	0.337553
H156	H	1.210921	0.714478	0.587553
C157	C	0.568323	-0.215977	-0.188768
C158	C	0.818323	0.034023	0.061232
C159	C	1.068323	0.284023	0.311232
C160	C	1.318323	0.534023	0.561232
H161	H	0.627849	-0.216863	-0.188173
H162	H	0.877849	0.033137	0.061827
H163	H	1.127849	0.283137	0.311827
H164	H	1.377849	0.533137	0.561827
H165	H	0.546153	-0.279470	-0.189001
H166	H	0.796153	-0.029470	0.060999
H167	H	1.046153	0.220530	0.310999
H168	H	1.296153	0.470530	0.560999
H169	H	0.553126	-0.179944	-0.251253
H170	H	0.803126	0.070056	-0.001253
H171	H	1.053126	0.320056	0.248747
H172	H	1.303126	0.570056	0.498747
H173	H	0.933740	-0.214108	0.519330
H174	H	1.183740	0.035892	0.769330
H175	H	1.433740	0.285892	1.019330
H176	H	1.683740	0.535892	1.269330
H177	H	1.101018	0.367856	0.000029
H178	H	1.351018	0.617856	0.250029
H179	H	1.601018	0.867856	0.500029
H180	H	1.851018	1.117856	0.750029
H181	H	1.070181	-0.045466	0.480864
H182	H	1.320181	0.204534	0.730864
H183	H	1.570181	0.454534	0.980864
H184	H	1.820181	0.704534	1.230864
H185	H	0.561238	0.035630	-0.000006
H186	H	0.811238	0.285630	0.249994
H187	H	1.061238	0.535630	0.499994
H188	H	1.311238	0.785630	0.749994
C189	C	0.880012	0.383503	0.000078
C190	C	1.130012	0.633503	0.250078
C191	C	1.380012	0.883503	0.500078
C192	C	1.630012	1.133503	0.750078
H193	H	0.838827	0.333250	0.000071
H194	H	1.088827	0.583250	0.250071
H195	H	1.338827	0.833250	0.500071
H196	H	1.588827	1.083250	0.750071
H197	H	0.870330	0.417803	0.062369
H198	H	1.120330	0.667803	0.312369
H199	H	1.370330	0.917803	0.562369
H200	H	1.620330	1.167803	0.812369
H201	H	0.876521	0.425430	-0.062230
H202	H	1.126521	0.675430	0.187770
H203	H	1.376521	0.925430	0.437770
H204	H	1.626521	1.175430	0.687770
H205	H	0.543015	-0.223986	0.162597
H206	H	0.793015	0.026014	0.412597
H207	H	1.043015	0.276014	0.662597
H208	H	1.293015	0.526014	0.912597
C209	C	0.433240	-0.321909	-0.000044
C210	C	0.683240	-0.071909	0.249956
C211	C	0.933240	0.178091	0.499956
C212	C	1.183240	0.428091	0.749956
H213	H	0.454279	-0.350338	-0.062671
H214	H	0.704279	-0.100338	0.187329
H215	H	0.954279	0.149662	0.437329
H216	H	1.204279	0.399662	0.687329
H217	H	0.448833	-0.358380	0.061928
H218	H	0.698833	-0.108380	0.311928
H219	H	0.948833	0.141620	0.561928
H220	H	1.198833	0.391620	0.811928
H221	H	0.373695	-0.320205	0.000542
H222	H	0.623695	-0.070205	0.250542
H223	H	0.873695	0.179795	0.500542
H224	H	1.123695	0.429795	0.750542
C225	C	0.435455	-0.043529	0.188737
C226	C	0.685455	0.206471	0.438737
C227	C	0.935455	0.456471	0.688737
C228	C	1.185455	0.706471	0.938737
H229	H	0.457207	0.020175	0.188625
H230	H	0.707207	0.270175	0.438625
H231	H	0.957207	0.520175	0.688625
H232	H	1.207207	0.770175	0.938625
H233	H	0.375905	-0.043193	0.188367
H234	H	0.625905	0.206807	0.438367
H235	H	0.875905	0.456807	0.688367
H236	H	1.125905	0.706807	0.938367
H237	H	0.451037	-0.079177	0.251283
H238	H	0.701037	0.170823	0.501283
H239	H	0.951037	0.420823	0.751283
H240	H	1.201037	0.670823	1.001283
