data_functionalizedCrystal
_audit_creation_method	'MofGen! by Chris Wilmer'
_symmetry_space_group_name_H-M	'P1'
_symmetry_Int_Tables_number	1
_symmetry_cell_setting	triclinic
loop_
_symmetry_equiv_pos_as_xyz
  x,y,z
_cell_length_a	10.654550
_cell_length_b	27.732048
_cell_length_c	9.130313
_cell_angle_alpha	89.990549
_cell_angle_beta	89.999724
_cell_angle_gamma	83.563793
loop_
_atom_site_label
_atom_site_type_symbol
_atom_site_fract_x
_atom_site_fract_y
_atom_site_fract_z
O1	O	1.664986	0.067886	-0.121708
O2	O	1.299235	0.074354	-0.121737
O3	O	1.493470	0.000794	-0.121693
O4	O	1.470751	0.141446	-0.121751
O5	O	1.493457	0.000792	0.121905
O6	O	1.299222	0.074351	0.121862
O7	O	1.664973	0.067884	0.121891
Cu8	Cu	1.482096	0.071117	0.144119
Cu9	Cu	1.482112	0.071120	-0.143965
O10	O	1.470738	0.141444	0.121848
C11	C	1.252451	0.073878	0.000060
C12	C	1.113067	0.072457	0.000050
C13	C	1.031761	0.115768	0.000036
C14	C	0.900796	0.114430	0.000063
C15	C	0.932457	0.026466	0.000110
C16	C	1.063419	0.027805	0.000094
C17	C	1.492986	-0.017217	0.000110
C18	C	1.491550	-0.070881	0.000122
C19	C	1.597290	-0.409038	0.000055
C20	C	1.591962	-0.610730	0.000034
O21	O	1.688653	-0.641384	-0.000022
N22	N	1.476789	-0.630571	0.000027
C23	C	1.362940	-0.599986	0.000015
O24	O	1.264855	-0.621490	-0.000008
C25	C	1.368269	-0.398294	0.000025
C26	C	1.483449	-0.378456	0.000047
C27	C	1.712461	-0.389199	0.000076
C28	C	1.713792	-0.338779	0.000089
C29	C	1.599951	-0.308197	0.000081
C30	C	1.484780	-0.328036	0.000061
C31	C	1.254421	-0.367709	0.000002
C32	C	1.255764	-0.317284	0.000001
C33	C	1.370944	-0.297446	0.000024
C34	C	1.372271	-0.247034	0.000066
N35	N	1.487444	-0.227193	0.000074
C36	C	1.601284	-0.257774	0.000081
C37	C	1.360150	-0.705877	0.000012
C38	C	1.358817	-0.756300	0.000012
C39	C	1.587840	-0.767041	0.000029
C40	C	1.589171	-0.716617	0.000039
C41	C	1.475323	-0.686036	0.000020
C42	C	1.604070	-0.151888	0.000110
C43	C	1.605391	-0.101463	0.000130
C44	C	1.376369	-0.090726	0.000105
C45	C	1.375047	-0.141147	0.000093
C46	C	1.488908	-0.171727	0.000091
O47	O	1.275631	-0.216352	0.000106
O48	O	1.699354	-0.236261	0.000071
C49	C	1.595959	-0.459458	0.000042
C50	C	1.480788	-0.479296	0.000021
C51	C	1.366947	-0.448715	0.000013
C52	C	1.479455	-0.529719	0.000021
C53	C	1.593296	-0.560301	0.000029
C54	C	1.708469	-0.540460	0.000036
C55	C	1.709799	-0.490040	0.000049
C56	C	1.251774	-0.468556	0.000006
C57	C	1.250453	-0.518976	-0.000006
C58	C	1.364293	-0.549558	0.000002
C59	C	1.711757	0.068360	0.000092
C60	C	1.851141	0.069781	0.000092
C61	C	1.471221	0.159455	0.000041
C62	C	1.472657	0.213118	0.000020
N63	N	1.482094	0.071115	0.346742
N64	N	1.482123	0.071118	-0.346587
C65	C	1.568130	0.038557	0.423413
C66	C	1.568142	0.038557	0.576750
C67	C	1.396079	0.103678	0.576731
C68	C	1.396062	0.103675	0.423397
H69	H	1.129623	-0.007466	0.000109
H70	H	1.638198	0.012044	0.639171
C71	C	1.128263	-0.435299	0.000232
C72	C	1.122341	-0.406039	0.125548
C73	C	1.008582	-0.375394	0.125804
H74	H	1.059382	-0.454280	0.000300
H75	H	1.124006	-0.415369	-0.084667
H76	H	1.126586	-0.425966	0.210424
H77	H	1.191195	-0.387048	0.125506
H78	H	1.004325	-0.355465	0.040905
H79	H	0.939710	-0.394379	0.125867
H80	H	1.004553	-0.355535	0.210821
C81	C	1.302482	0.138973	0.659888
C82	C	1.179242	0.130681	0.622648
C83	C	1.092987	0.163181	0.699235
H84	H	1.315308	0.171301	0.634799
H85	H	1.314732	0.134309	0.762203
H86	H	1.166997	0.135349	0.520356
H87	H	1.166376	0.098359	0.647741
H88	H	1.105237	0.158517	0.801550
H89	H	1.105825	0.195507	0.674140
H90	H	1.009360	0.157557	0.673989
C91	C	1.730581	-0.080018	0.000072
C92	C	1.829988	-0.117597	0.000032
C93	C	1.945325	-0.097863	-0.000045
H94	H	1.736042	-0.060585	0.085002
H95	H	1.735934	-0.060579	-0.084906
H96	H	1.824637	-0.137028	0.085001
H97	H	1.824568	-0.137033	-0.084892
H98	H	1.950679	-0.078424	-0.085023
H99	H	1.950773	-0.078430	0.084886
H100	H	2.012786	-0.123357	-0.000086
C101	C	1.132057	-0.284139	-0.000245
C102	C	1.062650	-0.293165	-0.125566
C103	C	0.948681	-0.262647	-0.125830
H104	H	1.149158	-0.251251	-0.000313
H105	H	1.084712	-0.290209	0.084650
H106	H	1.109985	-0.287090	-0.210439
H107	H	1.045515	-0.326047	-0.125525
H108	H	0.901336	-0.268717	-0.040935
H109	H	0.965795	-0.229761	-0.125894
H110	H	0.901569	-0.268770	-0.210851
C111	C	1.302790	0.139106	0.340223
C112	C	1.322247	0.186677	0.377451
C113	C	1.236361	0.219326	0.300846
H114	H	1.219036	0.133623	0.365306
H115	H	1.315104	0.134473	0.237910
H116	H	1.309922	0.191309	0.479740
H117	H	1.405983	0.192176	0.352364
H118	H	1.248675	0.214693	0.198533
H119	H	1.152613	0.213838	0.325935
H120	H	1.249558	0.251606	0.326084
H121	H	1.072179	0.152126	0.000012
H122	H	1.283683	-0.065817	0.000104
C123	C	1.714188	-0.695055	0.000350
C124	C	1.721663	-0.666436	0.125690
C125	C	1.836822	-0.646574	0.126031
H126	H	1.719602	-0.675572	-0.084502
H127	H	1.781826	-0.720481	0.000436
H128	H	1.654044	-0.641014	0.125591
H129	H	1.716271	-0.685908	0.210562
H130	H	1.904461	-0.672000	0.126117
H131	H	1.842226	-0.627093	0.041174
H132	H	1.841915	-0.627158	0.211079
C133	C	1.834764	-0.468440	-0.000168
C134	C	1.842222	-0.439789	-0.125473
C135	C	1.957320	-0.419883	-0.125718
H136	H	1.902470	-0.493830	-0.000243
H137	H	1.840064	-0.448971	0.084738
H138	H	1.836935	-0.459257	-0.210357
H139	H	1.774543	-0.414392	-0.125425
H140	H	1.962619	-0.400415	-0.040812
H141	H	2.025017	-0.445276	-0.125789
H142	H	1.962390	-0.400438	-0.210728
H143	H	0.834601	0.149698	0.000054
H144	H	0.892018	-0.009888	0.000154
H145	H	1.638181	0.012044	0.361004
H146	H	1.807584	-0.322632	0.000101
C147	C	1.711537	-0.800192	-0.000203
C148	C	1.780953	-0.791153	-0.125515
C149	C	1.894909	-0.821679	-0.125782
H150	H	1.694418	-0.833078	-0.000283
H151	H	1.758884	-0.794137	0.084698
H152	H	1.733615	-0.797211	-0.210395
H153	H	1.798105	-0.758273	-0.125462
H154	H	1.942256	-0.815625	-0.040881
H155	H	1.877777	-0.854563	-0.125858
H156	H	1.942026	-0.815548	-0.210797
C157	C	1.233633	-0.777742	-0.000070
C158	C	1.134230	-0.740161	-0.000119
C159	C	1.018889	-0.759893	-0.000224
H160	H	1.228159	-0.797186	0.084852
H161	H	1.228286	-0.797169	-0.085055
H162	H	1.139575	-0.720742	0.084858
H163	H	1.139662	-0.720714	-0.085035
H164	H	1.013543	-0.779320	-0.085209
H165	H	1.013429	-0.779337	0.084700
H166	H	0.951432	-0.734398	-0.000270
H167	H	1.696787	-0.176781	0.000103
H168	H	1.281258	-0.157299	0.000116
H169	H	1.805169	-0.414094	0.000077
C170	C	1.236629	-0.672620	0.000229
C171	C	1.230704	-0.643356	0.125536
C172	C	1.116944	-0.612712	0.125782
H173	H	1.167748	-0.691601	0.000303
H174	H	1.232372	-0.652694	-0.084676
H175	H	1.234948	-0.663280	0.210419
H176	H	1.299558	-0.624365	0.125489
H177	H	1.112688	-0.592785	0.040877
H178	H	1.048073	-0.631697	0.125851
H179	H	1.112914	-0.592850	0.210793
C180	C	1.832030	-0.573692	-0.000263
C181	C	1.837957	-0.602934	-0.125617
C182	C	1.951762	-0.633552	-0.125962
H183	H	1.836385	-0.593638	0.084580
H184	H	1.900860	-0.554677	-0.000335
H185	H	1.769145	-0.621948	-0.125532
H186	H	1.833623	-0.583001	-0.210480
H187	H	2.020592	-0.614536	-0.126034
H188	H	1.956107	-0.653494	-0.041114
H189	H	1.955803	-0.653392	-0.211019
H190	H	1.160629	-0.383852	-0.000025
H191	H	1.156652	-0.535123	-0.000011
