data_functionalizedCrystal
_audit_creation_method	'MofGen! by Chris Wilmer'
_symmetry_space_group_name_H-M	'P1'
_symmetry_Int_Tables_number	1
_symmetry_cell_setting	triclinic
loop_
_symmetry_equiv_pos_as_xyz
  x,y,z
_cell_length_a	38.067023
_cell_length_b	38.077490
_cell_length_c	38.067077
_cell_angle_alpha	59.997704
_cell_angle_beta	89.998734
_cell_angle_gamma	60.000154
loop_
_atom_site_label
_atom_site_type_symbol
_atom_site_fract_x
_atom_site_fract_y
_atom_site_fract_z
O1	O	-0.299412	-0.251366	0.010448
O2	O	-0.248328	-0.179451	-0.010403
O3	O	-0.248326	-0.251365	0.061532
O4	O	-0.299414	-0.179451	-0.061486
O5	O	-0.189899	-0.309776	0.061532
O6	O	-0.189901	-0.237861	-0.010403
O7	O	-0.240985	-0.309777	0.010448
Zn8	Zn	-0.206167	-0.283093	0.000023
Zn9	Zn	-0.283146	-0.206135	0.000023
O10	O	-0.240987	-0.237862	-0.061487
C11	C	-0.128227	-0.039355	-0.025248
C12	C	-0.085950	-0.060389	-0.025544
C13	C	-0.128229	-0.102948	-0.025252
C14	C	-0.085951	-0.123885	-0.025548
C15	C	-0.064614	-0.102951	-0.025248
C16	C	-0.149467	-0.060386	-0.025548
C17	C	-0.191984	0.024217	-0.020086
C18	C	-0.212145	0.064391	-0.016827
C19	C	-0.190407	0.084538	-0.015189
C20	C	-0.212265	0.128095	-0.011653
C21	C	-0.148508	0.064518	-0.016815
C22	C	-0.128349	0.024348	-0.020076
C23	C	-0.150087	0.004198	-0.021710
C24	C	0.004140	-0.107949	-0.020081
C25	C	0.047584	-0.131226	-0.016822
C26	C	0.069372	-0.174739	-0.015188
C27	C	0.116478	-0.199981	-0.011652
C28	C	0.047720	-0.194979	-0.016818
C29	C	0.004278	-0.171702	-0.020080
C30	C	-0.017511	-0.128189	-0.021709
C31	C	-0.191986	-0.107941	-0.020095
C32	C	-0.212147	-0.131219	-0.016834
C33	C	-0.190411	-0.174732	-0.015200
C34	C	-0.212269	-0.199971	-0.011669
C35	C	-0.148514	-0.194974	-0.016824
C36	C	-0.128351	-0.171700	-0.020083
C37	C	-0.150089	-0.128183	-0.021719
C38	C	-0.463698	-0.431923	0.031681
C39	C	-0.442362	-0.474487	0.031979
C40	C	-0.400086	-0.431922	0.031678
C41	C	-0.378847	-0.474485	0.031976
C42	C	-0.400085	-0.495519	0.031681
C43	C	-0.442363	-0.410986	0.031977
C44	C	-0.617099	-0.317399	0.020167
C45	C	-0.660541	-0.293986	0.016912
C46	C	-0.682333	-0.314084	0.015279
C47	C	-0.729438	-0.288695	0.011741
C48	C	-0.660680	-0.357598	0.016905
C49	C	-0.617240	-0.381011	0.020166
C50	C	-0.595450	-0.360909	0.021797
C51	C	-0.361240	-0.637368	0.020169
C52	C	-0.341218	-0.677543	0.016913
C53	C	-0.299325	-0.697695	0.015276
C54	C	-0.277614	-0.741250	0.011740
C55	C	-0.277453	-0.677671	0.016899
C56	C	-0.297472	-0.637503	0.020162
C57	C	-0.339370	-0.617352	0.021794
C58	C	-0.361243	-0.317391	0.020154
C59	C	-0.341223	-0.293973	0.016891
C60	C	-0.299329	-0.314068	0.015255
C61	C	-0.277621	-0.288678	0.011714
C62	C	-0.277458	-0.357579	0.016879
C63	C	-0.297480	-0.380994	0.020141
C64	C	-0.339372	-0.360898	0.021783
C65	C	-0.548347	-0.386298	0.025329
C66	C	-0.510801	-0.406535	0.028146
C67	C	-0.378379	-0.406531	0.028139
C68	C	-0.361077	-0.386292	0.025320
C69	C	-0.378378	-0.539074	0.028145
C70	C	-0.361075	-0.573793	0.025328
C71	C	-0.400366	-0.057316	-0.406377
C72	C	-0.442644	-0.014753	-0.427617
C73	C	-0.400367	-0.057315	-0.342764
C74	C	-0.442645	-0.014752	-0.364100
C75	C	-0.463980	0.006280	-0.406378
C76	C	-0.379128	-0.078252	-0.364099
C77	C	-0.297324	-0.171843	-0.445218
C78	C	-0.277160	-0.195257	-0.465240
C79	C	-0.298897	-0.175161	-0.507135
C80	C	-0.277039	-0.200550	-0.528843
C81	C	-0.340797	-0.131647	-0.529008
C82	C	-0.360956	-0.108233	-0.508988
C83	C	-0.339217	-0.128333	-0.467092
C84	C	-0.617383	0.148127	-0.509421
C85	C	-0.660825	0.188302	-0.529585
C86	C	-0.682620	0.208455	-0.507851
C87	C	-0.729723	0.252009	-0.529707
C88	C	-0.660967	0.188432	-0.465950
C89	C	-0.617524	0.148265	-0.445790
C90	C	-0.595735	0.128112	-0.467530
C91	C	-0.297326	-0.171842	-0.189359
C92	C	-0.277164	-0.195259	-0.145915
C93	C	-0.298901	-0.175162	-0.124123
C94	C	-0.277044	-0.200551	-0.077017
C95	C	-0.340800	-0.131651	-0.145775
C96	C	-0.360960	-0.108238	-0.189218
C97	C	-0.339217	-0.128335	-0.211008
C98	C	-0.361081	-0.102944	-0.445385
C99	C	-0.378507	-0.082705	-0.428083
C100	C	-0.378507	-0.082704	-0.295660
C101	C	-0.361082	-0.102942	-0.258114
C102	C	-0.511083	0.049835	-0.428238
C103	C	-0.548630	0.084554	-0.445664
O104	O	0.255029	-0.309790	0.010469
O105	O	0.132012	-0.237874	-0.010380
O106	O	0.203941	-0.309792	0.061554
O107	O	0.183100	-0.237872	-0.061465
O108	O	0.203942	-0.251384	0.061558
O109	O	0.132013	-0.179466	-0.010377
O110	O	0.255030	-0.251382	0.010473
Zn111	Zn	0.193522	-0.206151	0.000049
Zn112	Zn	0.193520	-0.283106	0.000044
O113	O	0.183101	-0.179464	-0.061461
O114	O	-0.240980	0.244491	0.010471
O115	O	-0.189894	0.142351	-0.010378
O116	O	-0.189896	0.142345	0.061556
O117	O	-0.240977	0.244497	-0.061463
O118	O	-0.248324	0.142347	0.061552
O119	O	-0.248322	0.142354	-0.010382
O120	O	-0.299407	0.244493	0.010467
Zn121	Zn	-0.283141	0.193424	0.000042
Zn122	Zn	-0.206160	0.193421	0.000047
O123	O	-0.299405	0.244499	-0.061467
O124	O	-0.868274	0.368411	-0.558424
O125	O	-0.745257	0.266268	-0.507336
O126	O	-0.817186	0.266266	-0.507334
O127	O	-0.796344	0.368414	-0.558426
O128	O	-0.817185	0.266264	-0.565760
O129	O	-0.745255	0.266267	-0.565762
O130	O	-0.868272	0.368410	-0.616850
Zn131	Zn	-0.806764	0.317338	-0.600583
Zn132	Zn	-0.806765	0.317340	-0.523604
O133	O	-0.796342	0.368413	-0.616852
O134	O	-0.248325	-0.251366	-0.616562
O135	O	-0.299411	-0.179454	-0.565477
O136	O	-0.299410	-0.251368	-0.565474
O137	O	-0.248326	-0.179452	-0.616565
O138	O	-0.240982	-0.309779	-0.507046
O139	O	-0.240984	-0.237866	-0.507050
O140	O	-0.189898	-0.309777	-0.558134
Zn141	Zn	-0.206164	-0.283096	-0.523316
Zn142	Zn	-0.283145	-0.206136	-0.600296
O143	O	-0.189899	-0.237864	-0.558138
C144	C	-0.064616	-0.449882	0.321773
C145	C	-0.085952	-0.428850	0.343012
C146	C	-0.128230	-0.386287	0.258159
C147	C	-0.149469	-0.365351	0.279495
C148	C	-0.128229	-0.386287	0.321772
C149	C	-0.085952	-0.428850	0.279495
C150	C	0.004137	-0.513456	0.321608
C151	C	0.047581	-0.553630	0.341633
C152	C	0.069370	-0.573779	0.383524
C153	C	0.116475	-0.617338	0.405237
C154	C	0.047719	-0.553761	0.405398
C155	C	0.004276	-0.513590	0.385375
C156	C	-0.017513	-0.493437	0.343480
C157	C	-0.128064	-0.381291	0.385528
C158	C	-0.148088	-0.358015	0.405689
C159	C	-0.189980	-0.314501	0.383952
C160	C	-0.211692	-0.289261	0.405809
C161	C	-0.211854	-0.294260	0.342053
C162	C	-0.191832	-0.317536	0.321894
C163	C	-0.149937	-0.361050	0.343631
C164	C	-0.128065	-0.381291	0.189406
C165	C	-0.148087	-0.358011	0.145960
C166	C	-0.189978	-0.314497	0.124170
C167	C	-0.211691	-0.289256	0.077065
C168	C	-0.211851	-0.294255	0.145820
C169	C	-0.191830	-0.317532	0.189264
C170	C	-0.149937	-0.361049	0.211055
C171	C	0.218795	-0.386318	0.321799
C172	C	0.219090	-0.428881	0.343036
C173	C	0.218796	-0.386313	0.258183
C174	C	0.219092	-0.428876	0.279518
C175	C	0.218793	-0.449911	0.321795
C176	C	0.219094	-0.365380	0.279521
C177	C	0.213634	-0.317421	0.321636
C178	C	0.210376	-0.294010	0.341662
C179	C	0.208740	-0.314109	0.383554
C180	C	0.205205	-0.288726	0.405268
C181	C	0.210366	-0.357622	0.405427
C182	C	0.213626	-0.381034	0.385403
C183	C	0.215258	-0.360931	0.343507
C184	C	0.213628	-0.513486	0.385550
C185	C	0.210368	-0.553661	0.405710
C186	C	0.208734	-0.573807	0.383972
C187	C	0.205197	-0.617365	0.405828
C188	C	0.210362	-0.553786	0.342073
C189	C	0.213624	-0.513615	0.321915
C190	C	0.215255	-0.493465	0.343653
C191	C	0.213638	-0.317412	0.189431
C192	C	0.210375	-0.293992	0.145985
C193	C	0.208741	-0.314087	0.124194
C194	C	0.205208	-0.288698	0.077089
C195	C	0.210365	-0.357596	0.145843
C196	C	0.213625	-0.381016	0.189287
C197	C	0.215261	-0.360922	0.211080
C198	C	-0.128228	-0.102999	0.321786
C199	C	-0.085950	-0.123940	0.343026
C200	C	-0.128227	-0.039396	0.258176
C201	C	-0.085949	-0.060433	0.279514
C202	C	-0.064613	-0.103002	0.321790
C203	C	-0.149467	-0.060430	0.279509
C204	C	-0.191985	-0.107991	0.321615
C205	C	-0.212148	-0.131268	0.341636
C206	C	-0.190411	-0.174788	0.383526
C207	C	-0.212269	-0.200030	0.405235
C208	C	-0.148512	-0.195034	0.405402
C209	C	-0.128351	-0.171757	0.385383
C210	C	-0.150088	-0.128237	0.343489
C211	C	0.004140	-0.171911	0.385546
C212	C	0.047584	-0.195328	0.405709
C213	C	0.069374	-0.175229	0.383974
C214	C	0.116479	-0.200619	0.405833
C215	C	0.047722	-0.131710	0.342077
C216	C	0.004280	-0.108293	0.321916
C217	C	-0.017510	-0.128395	0.343651
C218	C	-0.191984	0.024189	0.189422
C219	C	-0.212144	0.064366	0.145977
C220	C	-0.190407	0.084517	0.124191
C221	C	-0.212265	0.128082	0.077087
C222	C	-0.148510	0.064494	0.145842
C223	C	-0.128348	0.024316	0.189286
C224	C	-0.150087	0.004165	0.211074
C225	C	0.161897	0.006009	-0.406354
C226	C	0.161600	-0.015021	-0.427594
C227	C	0.161894	-0.057588	-0.342741
C228	C	0.161597	-0.078522	-0.364078
C229	C	0.161896	-0.057584	-0.406356
C230	C	0.161598	-0.015025	-0.364076
C231	C	0.173418	0.147853	-0.445193
C232	C	0.176676	0.188028	-0.465214
C233	C	0.178312	0.208182	-0.507109
C234	C	0.181853	0.251736	-0.528817
C235	C	0.176687	0.188162	-0.528983
C236	C	0.173424	0.147995	-0.508964
C237	C	0.171789	0.127840	-0.467067
C238	C	0.173414	-0.107925	-0.509401
C239	C	0.176670	-0.131195	-0.529566
C240	C	0.178305	-0.174712	-0.507832
C241	C	0.181842	-0.199951	-0.529689
C242	C	0.176678	-0.194956	-0.465932
C243	C	0.173415	-0.171682	-0.445770
C244	C	0.171785	-0.128164	-0.467510
C245	C	0.173406	-0.107944	-0.189336
C246	C	0.176666	-0.131222	-0.145891
C247	C	0.178299	-0.174739	-0.124100
C248	C	0.181836	-0.199982	-0.076994
C249	C	0.176676	-0.194979	-0.145753
C250	C	0.173417	-0.171701	-0.189195
C251	C	0.171779	-0.128180	-0.210985
C252	C	0.168255	0.084282	-0.445361
C253	C	0.165436	0.049564	-0.428059
C254	C	0.165429	-0.082827	-0.295637
C255	C	0.168246	-0.102944	-0.258091
C256	C	0.165432	-0.082819	-0.428217
C257	C	0.168250	-0.102933	-0.445644
O258	O	0.183071	-0.237904	0.492984
O259	O	0.203929	-0.309818	0.441900
O260	O	0.131993	-0.237903	0.441891
O261	O	0.255007	-0.309819	0.492993
O262	O	0.132000	-0.179493	0.383466
O263	O	0.203936	-0.251408	0.383475
O264	O	0.183078	-0.179494	0.434559
Zn265	Zn	0.193508	-0.206177	0.399741
Zn266	Zn	0.193499	-0.283135	0.476718
O267	O	0.255014	-0.251409	0.434569
C268	C	-0.463698	0.568132	-0.406349
C269	C	-0.442362	0.589070	-0.427585
C270	C	-0.400084	0.504526	-0.342735
C271	C	-0.378845	0.525561	-0.364068
C272	C	-0.400084	0.568130	-0.406344
C273	C	-0.442362	0.525563	-0.364072
C274	C	-0.617102	0.618488	-0.445200
C275	C	-0.660545	0.641764	-0.465223
C276	C	-0.682337	0.685287	-0.507117
C277	C	-0.729443	0.710531	-0.528827
C278	C	-0.660684	0.705530	-0.528986
C279	C	-0.617243	0.682251	-0.508965
C280	C	-0.595452	0.638728	-0.467069
C281	C	-0.361238	0.682666	-0.509374
C282	C	-0.341215	0.706081	-0.529534
C283	C	-0.299321	0.685984	-0.507797
C284	C	-0.277610	0.711371	-0.529649
C285	C	-0.277449	0.642464	-0.465898
C286	C	-0.297468	0.619046	-0.445742
C287	C	-0.339367	0.639154	-0.467484
C288	C	-0.361239	0.362658	-0.189337
C289	C	-0.341219	0.322481	-0.145894
C290	C	-0.299323	0.302324	-0.124100
C291	C	-0.277614	0.258762	-0.076995
C292	C	-0.277452	0.322348	-0.145748
C293	C	-0.297475	0.362526	-0.189190
C294	C	-0.339368	0.382675	-0.210982
C295	C	-0.548348	0.613491	-0.445361
C296	C	-0.510802	0.593373	-0.428057
C297	C	-0.378377	0.460965	-0.295632
C298	C	-0.361074	0.426240	-0.258087
C299	C	-0.378376	0.593521	-0.428200
C300	C	-0.361073	0.613760	-0.445623
H301	H	-0.068823	-0.158134	-0.026027
C302	C	-0.407320	0.704774	-0.533290
C303	C	-0.443476	0.720853	-0.514561
C304	C	-0.489557	0.742956	-0.538474
C305	C	-0.499481	0.748980	-0.581117
C306	C	-0.463324	0.732901	-0.599849
C307	C	-0.417243	0.710797	-0.575935
H308	H	-0.436130	0.716394	-0.482992
H309	H	-0.516323	0.754859	-0.524608
H310	H	-0.533593	0.765342	-0.598819
H311	H	-0.470669	0.737360	-0.631418
H312	H	-0.390477	0.698894	-0.589802
C313	C	0.208566	-0.379704	0.121873
C314	C	0.171949	-0.385727	0.117967
C315	C	0.170152	-0.407833	0.093996
C316	C	0.204972	-0.423916	0.073931
C317	C	0.241591	-0.417893	0.077836
C318	C	0.243388	-0.395787	0.101807
H319	H	0.146172	-0.373821	0.132821
H320	H	0.143044	-0.412291	0.091105
H321	H	0.203642	-0.440280	0.056186
H322	H	0.267369	-0.429799	0.062982
H323	H	0.270496	-0.391329	0.104697
H324	H	-0.243046	-0.230686	-0.447428
C325	C	0.215441	-0.295312	0.213406
C326	C	0.180624	-0.279233	0.233475
C327	C	0.182424	-0.257133	0.257451
C328	C	0.219042	-0.251111	0.261357
C329	C	0.253861	-0.267191	0.241287
C330	C	0.252061	-0.289291	0.217312
H331	H	0.153515	-0.283690	0.230584
H332	H	0.156648	-0.245230	0.272307
H333	H	0.220374	-0.234751	0.279105
H334	H	0.280970	-0.262733	0.244178
H335	H	0.277837	-0.301194	0.202455
H336	H	-0.094237	-0.188241	0.403196
H337	H	-0.459495	-0.376734	0.032451
C338	C	0.219734	-0.452668	0.389963
C339	C	0.257209	-0.471584	0.425360
C340	C	0.257853	-0.495372	0.472285
C341	C	0.221022	-0.500244	0.483813
C342	C	0.183544	-0.481327	0.448416
C343	C	0.182901	-0.457539	0.401491
H344	H	0.284476	-0.467978	0.416826
H345	H	0.285596	-0.509376	0.498488
H346	H	0.221498	-0.517853	0.518550
H347	H	0.156277	-0.484933	0.456949
H348	H	0.155157	-0.443535	0.375288
C349	C	-0.365275	0.753952	-0.575617
C350	C	-0.346664	0.755377	-0.611855
C351	C	-0.370726	0.803249	-0.657938
C352	C	-0.413399	0.849696	-0.667782
C353	C	-0.432013	0.848273	-0.631543
C354	C	-0.407951	0.800401	-0.585460
H355	H	-0.315073	0.720993	-0.604569
H356	H	-0.356947	0.804303	-0.684764
H357	H	-0.431212	0.885134	-0.701895
H358	H	-0.463604	0.882657	-0.638829
H359	H	-0.421730	0.799347	-0.558633
C360	C	0.171637	0.125973	-0.533023
C361	C	0.168051	0.081786	-0.511000
C362	C	0.166266	0.059763	-0.535058
C363	C	0.168067	0.081927	-0.581139
C364	C	0.171654	0.126117	-0.603165
C365	C	0.173438	0.148140	-0.579106
H366	H	0.166718	0.065377	-0.476886
H367	H	0.163612	0.027051	-0.518753
H368	H	0.166746	0.065624	-0.598949
H369	H	0.172987	0.142526	-0.637279
H370	H	0.176093	0.180852	-0.595411
H371	H	-0.243345	-0.373941	0.015546
H372	H	-0.130808	0.080901	0.128099
H373	H	-0.184204	-0.331097	0.262361
C374	C	-0.081982	-0.429161	0.213373
C375	C	-0.045826	-0.430498	0.233439
C376	C	0.000257	-0.478367	0.257403
C377	C	0.010185	-0.524897	0.261303
C378	C	-0.025972	-0.523561	0.241237
C379	C	-0.072056	-0.475693	0.217273
H380	H	-0.053175	-0.396052	0.230552
H381	H	0.027023	-0.479355	0.272257
H382	H	0.044299	-0.560332	0.279043
H383	H	-0.018624	-0.558007	0.244124
H384	H	-0.098821	-0.474704	0.202419
C385	C	0.171608	-0.060074	-0.213301
C386	C	0.206424	-0.058734	-0.233369
C387	C	0.204627	-0.010866	-0.257335
C388	C	0.168013	0.035664	-0.261232
C389	C	0.133193	0.034326	-0.241164
C390	C	0.134991	-0.013543	-0.217198
H391	H	0.233531	-0.093180	-0.230484
H392	H	0.230403	-0.009876	-0.272191
H393	H	0.166682	0.071099	-0.278973
H394	H	0.106087	0.068772	-0.244049
H395	H	0.109215	-0.014533	-0.202342
H396	H	-0.459769	0.002854	-0.462356
C397	C	0.178451	-0.108959	-0.122073
C398	C	0.215056	-0.102889	-0.118284
C399	C	0.216839	-0.080624	-0.094466
C400	C	0.182016	-0.064430	-0.074439
C401	C	0.145408	-0.070500	-0.078228
C402	C	0.143626	-0.092765	-0.102045
H403	H	0.240836	-0.114877	-0.133110
H404	H	0.243938	-0.076130	-0.091661
H405	H	0.183335	-0.047948	-0.056807
H406	H	0.119628	-0.058512	-0.063401
H407	H	0.116526	-0.097258	-0.104850
C408	C	-0.593414	0.125966	-0.533337
C409	C	-0.589511	0.158673	-0.575979
C410	C	-0.565542	0.136511	-0.599892
C411	C	-0.545476	0.081641	-0.581164
C412	C	-0.549379	0.048931	-0.538520
C413	C	-0.573348	0.071093	-0.514606
H414	H	-0.604365	0.199294	-0.589845
H415	H	-0.562653	0.160726	-0.631461
H416	H	-0.527733	0.065235	-0.598866
H417	H	-0.534525	0.008310	-0.524653
H418	H	-0.576237	0.046878	-0.483038
H419	H	-0.395353	-0.620965	0.021500
H420	H	-0.599361	-0.301028	0.021496
C421	C	-0.365277	0.300456	-0.122082
C422	C	-0.373904	0.300084	-0.082415
C423	C	-0.397963	0.278058	-0.058604
C424	C	-0.413395	0.256404	-0.074460
C425	C	-0.404768	0.256774	-0.114128
C426	C	-0.380709	0.278800	-0.137939
H427	H	-0.362481	0.316115	-0.070676
H428	H	-0.404349	0.277784	-0.029239
H429	H	-0.431205	0.240099	-0.056833
H430	H	-0.416192	0.240743	-0.125867
H431	H	-0.374323	0.279074	-0.167305
C432	C	0.208588	-0.246149	0.317606
C433	C	0.171977	-0.199690	0.274932
C434	C	0.170192	-0.151829	0.250878
C435	C	0.205017	-0.150426	0.269498
C436	C	0.241630	-0.196887	0.312174
C437	C	0.243416	-0.244748	0.336228
H438	H	0.146195	-0.200727	0.261146
H439	H	0.143088	-0.117436	0.219286
H440	H	0.203695	-0.114997	0.251692
H441	H	0.267412	-0.195850	0.325959
H442	H	0.270519	-0.279141	0.367819
H443	H	-0.068820	-0.042830	0.262384
H444	H	-0.245967	-0.258826	0.324356
H445	H	-0.013347	-0.072862	0.287802
C446	C	-0.124028	-0.380281	0.122150
C447	C	-0.081347	-0.386358	0.118368
C448	C	-0.057288	-0.408628	0.094556
C449	C	-0.075909	-0.424821	0.074525
C450	C	-0.118593	-0.418744	0.078306
C451	C	-0.142652	-0.396475	0.102118
H452	H	-0.067561	-0.374371	0.133197
H453	H	-0.025691	-0.413126	0.091757
H454	H	-0.058099	-0.441306	0.056898
H455	H	-0.132379	-0.430732	0.063477
H456	H	-0.174249	-0.391977	0.104917
H457	H	-0.243335	0.626096	-0.448202
C458	C	-0.684359	-0.246121	0.015117
C459	C	-0.724022	-0.197848	-0.024186
C460	C	-0.747840	-0.149982	-0.025982
C461	C	-0.731994	-0.150388	0.011526
C462	C	-0.692328	-0.198662	0.050832
C463	C	-0.668510	-0.246529	0.052628
H464	H	-0.735755	-0.197546	-0.051955
H465	H	-0.777204	-0.114246	-0.055080
H466	H	-0.749625	-0.114954	0.010196
H467	H	-0.680596	-0.198965	0.078600
H468	H	-0.639147	-0.282265	0.081725
H469	H	0.214949	-0.416463	0.403213
H470	H	-0.358490	-0.115286	-0.563120
C471	C	-0.364716	-0.109540	-0.121808
C472	C	-0.373230	-0.140322	-0.082104
C473	C	-0.397146	-0.118211	-0.058139
C474	C	-0.412549	-0.065319	-0.073877
C475	C	-0.404036	-0.034534	-0.113583
C476	C	-0.380119	-0.056645	-0.137548
H477	H	-0.361827	-0.179479	-0.070452
H478	H	-0.403448	-0.141000	-0.028746
H479	H	-0.430254	-0.048951	-0.056136
H480	H	-0.415438	0.004623	-0.125235
H481	H	-0.373817	-0.033855	-0.166941
H482	H	-0.359035	-0.258543	0.015565
H483	H	0.209032	-0.570197	0.324375
H484	H	-0.395356	-0.301022	0.021487
C485	C	0.208563	-0.379731	0.451510
C486	C	0.243378	-0.395816	0.487668
C487	C	0.241576	-0.417926	0.533751
C488	C	0.204959	-0.423952	0.543675
C489	C	0.170142	-0.407866	0.507516
C490	C	0.171944	-0.385756	0.461433
H491	H	0.270486	-0.391356	0.480322
H492	H	0.267350	-0.429834	0.560518
H493	H	0.203625	-0.440319	0.577789
H494	H	0.143034	-0.412326	0.514862
H495	H	0.146169	-0.373848	0.434666
C496	C	-0.082261	0.002290	0.213104
C497	C	-0.045163	-0.019363	0.197253
C498	C	0.000924	-0.041389	0.221071
C499	C	0.009914	-0.041764	0.260742
C500	C	-0.027186	-0.020111	0.276595
C501	C	-0.073273	0.001916	0.252777
H502	H	-0.051816	-0.019086	0.167885
H503	H	0.028387	-0.057418	0.209335
H504	H	0.044030	-0.058069	0.278373
H505	H	-0.020532	-0.020387	0.305963
H506	H	-0.100736	0.017945	0.264513
C507	C	-0.062819	-0.452625	0.389940
C508	C	-0.081386	-0.471537	0.425325
C509	C	-0.058258	-0.495308	0.472252
C510	C	-0.016563	-0.500169	0.483793
C511	C	0.002006	-0.481257	0.448406
C512	C	-0.021122	-0.457485	0.401480
H513	H	-0.112252	-0.467939	0.416783
H514	H	-0.072004	-0.509308	0.498447
H515	H	0.000557	-0.517766	0.518531
H516	H	0.032872	-0.484855	0.456949
H517	H	-0.007376	-0.443485	0.375285
H518	H	-0.678711	0.204846	-0.448256
H519	H	-0.395069	-0.072803	-0.526801
H520	H	0.161154	0.002555	-0.346935
C521	C	-0.231370	-0.699838	0.015103
C522	C	-0.222458	-0.700235	-0.024202
C523	C	-0.176375	-0.722401	-0.026000
C524	C	-0.139204	-0.744170	0.011505
C525	C	-0.148115	-0.743773	0.050812
C526	C	-0.194198	-0.721607	0.052611
H527	H	-0.249976	-0.684120	-0.051968
H528	H	-0.169779	-0.722694	-0.055098
H529	H	-0.105091	-0.760578	0.010174
H530	H	-0.120597	-0.759889	0.078579
H531	H	-0.200794	-0.721314	0.081709
C532	C	0.160950	-0.124791	-0.340941
C533	C	0.160632	-0.147933	-0.294336
C534	C	0.159986	-0.194201	-0.271200
C535	C	0.159659	-0.217326	-0.294670
C536	C	0.159978	-0.194183	-0.341277
C537	C	0.160624	-0.147916	-0.364413
H538	H	0.160874	-0.130815	-0.276960
H539	H	0.159750	-0.211332	-0.236698
H540	H	0.159181	-0.251576	-0.277543
H541	H	0.159736	-0.211302	-0.358653
H542	H	0.160859	-0.130785	-0.398915
H543	H	-0.094236	0.008051	-0.021402
H544	H	0.214954	-0.497319	0.287802
C545	C	-0.273411	0.571179	-0.399656
C546	C	-0.227330	0.549067	-0.375742
C547	C	-0.203273	0.501202	-0.329655
C548	C	-0.225298	0.475447	-0.307484
C549	C	-0.271381	0.497559	-0.331398
C550	C	-0.295438	0.545425	-0.377485
H551	H	-0.211023	0.568132	-0.392154
H552	H	-0.169158	0.484833	-0.311952
H553	H	-0.207489	0.440014	-0.273368
H554	H	-0.287688	0.478494	-0.314986
H555	H	-0.329553	0.561793	-0.395188
H556	H	-0.678451	0.204601	-0.563700
C557	C	0.071396	-0.575649	0.317573
C558	C	0.075190	-0.542838	0.274899
C559	C	0.099007	-0.564860	0.250841
C560	C	0.119031	-0.619693	0.269457
C561	C	0.115238	-0.652507	0.312134
C562	C	0.091421	-0.630485	0.336192
H563	H	0.060366	-0.502244	0.261116
H564	H	0.101814	-0.540568	0.219249
H565	H	0.136662	-0.635996	0.251648
H566	H	0.130061	-0.693101	0.325917
H567	H	0.088613	-0.654777	0.367784
H568	H	-0.209643	-0.301055	0.287780
H569	H	0.065466	-0.570172	0.439511
H570	H	-0.246258	0.080688	-0.015504
C571	C	-0.684650	-0.379705	0.015111
C572	C	-0.668917	-0.432594	0.052620
C573	C	-0.692887	-0.454703	0.050826
C574	C	-0.732590	-0.423922	0.011523
C575	C	-0.748325	-0.371030	-0.025989
C576	C	-0.724355	-0.348921	-0.024194
H577	H	-0.639525	-0.455383	0.081716
H578	H	-0.681239	-0.493858	0.078594
H579	H	-0.750333	-0.440288	0.010195
H580	H	-0.777717	-0.348241	-0.055085
H581	H	-0.736003	-0.309766	-0.051963
H582	H	-0.599897	0.131968	-0.411676
C583	C	-0.273415	-0.615478	0.021947
C584	C	-0.227335	-0.637640	0.020146
C585	C	-0.203279	-0.615613	0.021929
C586	C	-0.225303	-0.571425	0.025512
C587	C	-0.271386	-0.549262	0.027313
C588	C	-0.295442	-0.571288	0.025530
H589	H	-0.211030	-0.670352	0.017493
H590	H	-0.169166	-0.632020	0.020595
H591	H	-0.207496	-0.555120	0.026832
H592	H	-0.287692	-0.516549	0.029966
H593	H	-0.329556	-0.554881	0.026863
H594	H	-0.246258	-0.114786	0.323819
H595	H	-0.209640	-0.301047	0.206890
C596	C	-0.215895	0.002020	0.213390
C597	C	-0.224408	0.001609	0.253097
C598	C	-0.248316	-0.020565	0.277064
C599	C	-0.263712	-0.042327	0.261324
C600	C	-0.255200	-0.041917	0.221615
C601	C	-0.231291	-0.019743	0.197648
H602	H	-0.213011	0.017719	0.264751
H603	H	-0.254618	-0.020868	0.306460
H604	H	-0.281411	-0.058741	0.279066
H605	H	-0.266597	-0.058027	0.209961
H606	H	-0.224990	-0.019440	0.168252
H607	H	0.172087	0.131448	-0.411080
C608	C	-0.019543	-0.193962	-0.021865
C609	C	-0.003699	-0.246893	0.015654
C610	C	-0.027521	-0.269154	0.013873
C611	C	-0.067188	-0.238485	-0.025425
C612	C	-0.083034	-0.185551	-0.062946
C613	C	-0.059212	-0.163290	-0.061166
H614	H	0.025667	-0.269599	0.044747
H615	H	-0.015790	-0.308340	0.041649
H616	H	-0.084822	-0.254964	-0.026743
H617	H	-0.112400	-0.162845	-0.092040
H618	H	-0.070943	-0.124104	-0.088942
H619	H	-0.068816	-0.446445	0.262363
H620	H	0.172088	-0.188165	-0.411657
C621	C	-0.684652	0.753402	-0.575067
C622	C	-0.668920	0.753074	-0.612240
C623	C	-0.692887	0.800947	-0.658322
C624	C	-0.732587	0.849150	-0.667231
C625	C	-0.748322	0.849480	-0.630057
C626	C	-0.724354	0.801606	-0.583975
H627	H	-0.639530	0.717390	-0.605645
H628	H	-0.681239	0.800703	-0.685840
H629	H	-0.750329	0.884588	-0.701344
H630	H	-0.777712	0.885164	-0.636652
H631	H	-0.736002	0.801851	-0.556457
H632	H	-0.599613	-0.416440	0.021492
H633	H	-0.279663	0.378826	-0.206814
H634	H	0.214959	-0.497084	0.403255
C635	C	-0.231365	0.300178	-0.121779
C636	C	-0.195212	0.245310	-0.101721
C637	C	-0.149127	0.223141	-0.077753
C638	C	-0.139195	0.255840	-0.073844
C639	C	-0.175350	0.310711	-0.093902
C640	C	-0.221435	0.332880	-0.117870
H641	H	-0.202563	0.221101	-0.104615
H642	H	-0.122363	0.182521	-0.062905
H643	H	-0.105080	0.239429	-0.056101
H644	H	-0.167999	0.334919	-0.091008
H645	H	-0.248199	0.373499	-0.132718
H646	H	-0.245962	-0.258818	0.128074
C647	C	-0.019830	-0.060081	-0.021880
C648	C	-0.059534	-0.011876	-0.061181
C649	C	-0.083502	0.035990	-0.062976
C650	C	-0.067766	0.035651	-0.025469
C651	C	-0.028059	-0.012556	0.013835
C652	C	-0.004091	-0.060422	0.015630
H653	H	-0.071185	-0.011624	-0.088948
H654	H	-0.112895	0.071676	-0.092072
H655	H	-0.085509	0.071084	-0.026798
H656	H	-0.016409	-0.012808	0.041602
H657	H	0.025302	-0.096108	0.044725
H658	H	0.178001	0.204324	-0.447401
H659	H	0.065470	-0.115347	0.324383
C660	C	-0.124025	-0.380281	0.451774
C661	C	-0.108583	-0.433217	0.488877
C662	C	-0.084524	-0.455478	0.534962
C663	C	-0.075906	-0.424804	0.543945
C664	C	-0.091348	-0.371865	0.506842
C665	C	-0.115408	-0.349603	0.460756
H666	H	-0.114963	-0.455927	0.482228
H667	H	-0.073092	-0.494668	0.562429
H668	H	-0.058095	-0.441284	0.578060
H669	H	-0.084968	-0.349155	0.513490
H670	H	-0.126839	-0.310414	0.433289
H671	H	-0.068822	-0.042784	-0.026023
C672	C	0.208576	-0.575681	0.451796
C673	C	0.169276	-0.576047	0.460780
C674	C	0.167484	-0.598071	0.506866
C675	C	0.204992	-0.619729	0.543969
C676	C	0.244295	-0.619364	0.534986
C677	C	0.246087	-0.597340	0.488900
H678	H	0.141507	-0.560014	0.433313
H679	H	0.138388	-0.598341	0.513515
H680	H	0.203665	-0.636032	0.578084
H681	H	0.272064	-0.635397	0.562452
H682	H	0.275183	-0.597069	0.482250
H683	H	-0.279619	-0.188213	-0.411105
H684	H	0.219577	-0.446480	0.262387
H685	H	0.219572	-0.331129	0.262394
C686	C	0.208599	-0.246139	0.122179
C687	C	0.172001	-0.199689	0.118399
C688	C	0.170225	-0.151834	0.094593
C689	C	0.205048	-0.150429	0.074565
C690	C	0.241649	-0.196881	0.078344
C691	C	0.243425	-0.244736	0.102151
H692	H	0.146220	-0.200727	0.133225
H693	H	0.143130	-0.117447	0.091795
H694	H	0.203733	-0.115004	0.056942
H695	H	0.267429	-0.195843	0.063518
H696	H	0.270520	-0.279122	0.104948
H697	H	-0.013602	-0.497051	0.287496
C698	C	0.215413	-0.428878	0.213102
C699	C	0.252023	-0.475330	0.216892
C700	C	0.253811	-0.523192	0.240707
C701	C	0.218989	-0.524603	0.260733
C702	C	0.182376	-0.478150	0.256944
C703	C	0.180588	-0.430287	0.233129
H704	H	0.277803	-0.474287	0.202067
H705	H	0.280914	-0.557580	0.243512
H706	H	0.220312	-0.560034	0.278363
H707	H	0.156596	-0.479193	0.271769
H708	H	0.153485	-0.395900	0.230325
H709	H	-0.344111	-0.492084	0.032451
C710	C	-0.465501	0.501778	-0.340933
C711	C	-0.512105	0.524916	-0.364394
C712	C	-0.535241	0.501130	-0.341255
C713	C	-0.511772	0.454207	-0.294656
C714	C	-0.465165	0.431067	-0.271193
C715	C	-0.442029	0.454852	-0.294332
H716	H	-0.529480	0.559653	-0.398892
H717	H	-0.569743	0.518260	-0.358625
H718	H	-0.528899	0.436599	-0.277527
H719	H	-0.447790	0.396329	-0.236695
H720	H	-0.407527	0.437722	-0.276962
H721	H	-0.068823	-0.158191	0.377764
H722	H	-0.209690	-0.072507	-0.021428
H723	H	0.161122	0.002585	-0.462332
C724	C	-0.684363	0.619501	-0.441166
C725	C	-0.668519	0.566569	-0.425734
C726	C	-0.692337	0.544306	-0.401676
C727	C	-0.731999	0.574975	-0.393050
C728	C	-0.747845	0.627909	-0.408483
C729	C	-0.724027	0.650172	-0.432541
H730	H	-0.639156	0.543864	-0.432118
H731	H	-0.680606	0.505120	-0.390251
H732	H	-0.749631	0.558494	-0.375241
H733	H	-0.777208	0.650614	-0.402099
H734	H	-0.735758	0.689358	-0.443966
C735	C	-0.258233	0.086394	0.122166
C736	C	-0.268097	0.053587	0.118379
C737	C	-0.314187	0.075616	0.094567
C738	C	-0.350413	0.130451	0.074541
C739	C	-0.340550	0.163261	0.078327
C740	C	-0.294460	0.141232	0.102140
H741	H	-0.241279	0.012992	0.133204
H742	H	-0.321488	0.051328	0.091764
H743	H	-0.384532	0.146758	0.056913
H744	H	-0.367368	0.203857	0.063502
H745	H	-0.287159	0.165521	0.104942
H746	H	-0.013351	-0.497292	0.403186
H747	H	-0.459493	-0.492089	0.032459
H748	H	-0.184204	-0.042827	0.262380
C749	C	-0.124599	-0.242911	0.451483
C750	C	-0.081957	-0.289439	0.461406
C751	C	-0.058042	-0.337315	0.507487
C752	C	-0.076770	-0.338663	0.543645
C753	C	-0.119415	-0.292133	0.533724
C754	C	-0.143329	-0.244257	0.487643
H755	H	-0.068091	-0.288442	0.434638
H756	H	-0.026473	-0.371759	0.514831
H757	H	-0.059067	-0.374103	0.577757
H758	H	-0.133280	-0.293129	0.560491
H759	H	-0.174898	-0.209813	0.480299
H760	H	-0.184205	-0.042780	-0.026030
H761	H	-0.209688	0.007815	-0.021420
C762	C	-0.019830	-0.194019	0.409456
C763	C	-0.004095	-0.246909	0.424852
C764	C	-0.028064	-0.269020	0.448762
C765	C	-0.067768	-0.238242	0.457276
C766	C	-0.083505	-0.185350	0.441879
C767	C	-0.059536	-0.163238	0.417970
H768	H	0.025298	-0.269695	0.418550
H769	H	-0.016414	-0.308175	0.460159
H770	H	-0.085511	-0.254610	0.474975
H771	H	-0.112898	-0.162563	0.448182
H772	H	-0.071186	-0.124084	0.406573
C773	C	0.178469	-0.242847	-0.121786
C774	C	0.215084	-0.289380	-0.117883
C775	C	0.216877	-0.337246	-0.093919
C776	C	0.182055	-0.338579	-0.073858
C777	C	0.145437	-0.292044	-0.077760
C778	C	0.143644	-0.244178	-0.101725
H779	H	0.240864	-0.288395	-0.132734
H780	H	0.243984	-0.371694	-0.091030
H781	H	0.183382	-0.374012	-0.056118
H782	H	0.119657	-0.293030	-0.062909
H783	H	0.116537	-0.209730	-0.104613
H784	H	-0.359029	-0.693841	0.015589
C785	C	0.071398	-0.243197	0.451792
C786	C	0.075188	-0.289646	0.461638
C787	C	0.099006	-0.337516	0.507722
C788	C	0.119033	-0.338936	0.543961
C789	C	0.115244	-0.292485	0.534116
C790	C	0.091426	-0.244616	0.488032
H791	H	0.060362	-0.288597	0.434811
H792	H	0.101811	-0.371902	0.515009
H793	H	0.136664	-0.374372	0.578075
H794	H	0.130070	-0.293535	0.560943
H795	H	0.088621	-0.210230	0.480745
H796	H	-0.093952	-0.416724	0.403232
C797	C	0.178486	0.210331	-0.575066
C798	C	0.140980	0.232103	-0.612239
C799	C	0.142779	0.254272	-0.658323
C800	C	0.182084	0.254669	-0.667233
C801	C	0.219592	0.232896	-0.630059
C802	C	0.217793	0.210727	-0.583975
H803	H	0.111882	0.231810	-0.605644
H804	H	0.115013	0.270389	-0.685841
H805	H	0.183416	0.271080	-0.701347
H806	H	0.248690	0.233189	-0.636654
H807	H	0.245560	0.194610	-0.556456
H808	H	-0.209689	-0.072554	0.287504
H809	H	-0.279669	-0.416421	0.021464
H810	H	-0.246261	-0.114733	-0.015512
H811	H	-0.094238	-0.188182	-0.021409
H812	H	-0.130811	0.080929	-0.015481
H813	H	-0.459773	0.002849	-0.346970
H814	H	-0.279616	-0.188204	-0.207101
H815	H	-0.344390	-0.112500	-0.346971
C816	C	0.178466	-0.108933	-0.575651
C817	C	0.143648	-0.092729	-0.611888
C818	C	0.145445	-0.070467	-0.657973
C819	C	0.182059	-0.064409	-0.667820
C820	C	0.216879	-0.080613	-0.631581
C821	C	0.215082	-0.102875	-0.585497
H822	H	0.116542	-0.097213	-0.604600
H823	H	0.119669	-0.058471	-0.684799
H824	H	0.183389	-0.047929	-0.701934
H825	H	0.243985	-0.076128	-0.638870
H826	H	0.240859	-0.114870	-0.558671
C827	C	0.071399	-0.108963	-0.015027
C828	C	0.111064	-0.139640	0.024275
C829	C	0.134883	-0.117380	0.026069
C830	C	0.119036	-0.064444	-0.011439
C831	C	0.079368	-0.033764	-0.050744
C832	C	0.055549	-0.056024	-0.052538
H833	H	0.122797	-0.178829	0.052043
H834	H	0.164247	-0.140091	0.055165
H835	H	0.136668	-0.047966	-0.010111
H836	H	0.067635	0.005425	-0.078512
H837	H	0.026185	-0.033313	-0.081635
H838	H	0.065467	-0.230412	-0.015489
H839	H	-0.243050	-0.230687	-0.128288
H840	H	-0.130813	-0.230410	-0.015492
C841	C	-0.407046	-0.060375	-0.213036
C842	C	-0.430956	-0.038266	-0.189069
C843	C	-0.477042	0.009596	-0.212886
C844	C	-0.499218	0.035351	-0.260670
C845	C	-0.475308	0.013242	-0.284640
C846	C	-0.429221	-0.034621	-0.260822
H847	H	-0.414540	-0.057331	-0.153693
H848	H	-0.494742	0.025963	-0.195142
H849	H	-0.533334	0.070782	-0.278301
H850	H	-0.491724	0.032307	-0.320015
H851	H	-0.411521	-0.050987	-0.278567
H852	H	0.214967	-0.301052	0.287524
H853	H	0.172084	-0.072490	-0.527106
H854	H	0.178003	-0.230386	-0.448237
H855	H	0.172095	-0.188183	-0.206823
H856	H	-0.344108	0.507954	-0.346935
H857	H	-0.459492	0.623322	-0.462322
H858	H	-0.395352	0.379063	-0.207079
H859	H	-0.599364	0.583049	-0.411088
H860	H	-0.599615	0.698734	-0.526774
