data_functionalizedCrystal
_audit_creation_method	'MofGen! by Chris Wilmer'
_symmetry_space_group_name_H-M	'P1'
_symmetry_Int_Tables_number	1
_symmetry_cell_setting	triclinic
loop_
_symmetry_equiv_pos_as_xyz
  x,y,z
_cell_length_a	14.853568
_cell_length_b	13.330367
_cell_length_c	14.853559
_cell_angle_alpha	89.997552
_cell_angle_beta	96.366553
_cell_angle_gamma	90.004270
loop_
_atom_site_label
_atom_site_type_symbol
_atom_site_fract_x
_atom_site_fract_y
_atom_site_fract_z
O1	O	-1.196365	-0.083342	0.117709
O2	O	-0.933905	-0.083360	0.131730
O3	O	-1.072149	-0.083350	-0.006511
O4	O	-1.058120	-0.083353	0.255950
O5	O	-1.072129	0.083497	-0.006514
O6	O	-0.933885	0.083487	0.131727
O7	O	-1.196344	0.083505	0.117706
Cu8	Cu	-1.065113	0.098730	0.124716
Cu9	Cu	-1.065136	-0.098586	0.124720
O10	O	-1.058100	0.083494	0.255947
C11	C	-0.900306	0.000061	0.131093
C12	C	-0.800222	0.000054	0.129188
C13	C	-0.377049	-0.090880	0.121136
C14	C	-0.377049	0.091023	0.121133
C15	C	-0.471083	0.091020	0.122921
C16	C	-0.518104	0.000066	0.123818
C17	C	-0.471092	-0.090886	0.122927
C18	C	-0.518101	0.181971	0.123822
C19	C	-0.612141	0.181972	0.125611
C20	C	-0.659164	0.091017	0.126501
C21	C	-0.612146	0.000061	0.125609
C22	C	-0.659168	-0.090893	0.126506
C23	C	-0.612152	-0.181850	0.125607
C24	C	-0.518115	-0.181841	0.123817
C25	C	-0.753201	0.091008	0.128291
C26	C	-0.753210	-0.090898	0.128297
C27	C	-1.071505	0.000072	-0.040101
C28	C	-1.069604	0.000066	-0.140185
N29	N	-1.065103	0.237512	0.124713
C30	C	-0.229943	0.000080	0.118341
C31	C	-0.330028	0.000074	0.120239
N32	N	-1.065154	-0.237367	0.124716
C33	C	-1.003919	0.710130	0.185909
C34	C	-1.126378	0.710108	0.063524
C35	C	-1.126368	0.605089	0.063521
C36	C	-1.065133	0.552586	0.124714
C37	C	-1.003909	0.605102	0.185909
C38	C	-1.187597	0.552566	0.002333
C39	C	-1.187590	0.447541	0.002328
C40	C	-1.126351	0.395036	0.063518
C41	C	-1.065123	0.447558	0.124715
C42	C	-1.003888	0.395056	0.185908
C43	C	-0.942656	0.447576	0.247101
C44	C	-0.942669	0.552597	0.247099
C45	C	-1.126337	0.290015	0.063520
C46	C	-1.003878	0.290028	0.185909
C47	C	-1.061551	-0.090883	-0.563359
C48	C	-1.061529	0.091020	-0.563357
C49	C	-1.063323	0.091021	-0.469323
C50	C	-1.064229	0.000069	-0.422303
C51	C	-1.063342	-0.090885	-0.469316
C52	C	-1.064201	0.181973	-0.422302
C53	C	-1.065993	0.181978	-0.328263
C54	C	-1.066906	0.091024	-0.281242
C55	C	-1.066020	0.000067	-0.328261
C56	C	-1.066926	-0.090885	-0.281241
C57	C	-1.066047	-0.181844	-0.328259
C58	C	-1.064255	-0.181838	-0.422295
C59	C	-1.068698	0.091019	-0.187205
C60	C	-1.068717	-0.090887	-0.187198
C61	C	-1.058744	0.000071	0.289537
C62	C	-1.060645	0.000070	0.389621
H63	H	-0.338765	-0.164935	0.120400
N64	N	-1.066962	-0.274738	-0.280209
N65	N	-1.068551	-0.274716	-0.196247
H66	H	-1.069195	-0.340321	-0.162307
N67	N	-0.660174	0.274869	0.126528
N68	N	-0.704420	0.295162	0.191021
H69	H	-0.738346	0.360771	0.191666
H70	H	-1.237457	0.595317	-0.047484
N71	N	-0.801225	-0.183817	0.129202
N72	N	-0.759235	-0.265013	0.128396
H73	H	-0.793145	-0.330639	0.129034
H74	H	-0.954010	0.247286	0.235736
N75	N	-0.470087	0.274880	0.122899
N76	N	-0.512071	0.356080	0.123702
H77	H	-0.478159	0.421703	0.123049
H78	H	-1.063538	-0.255891	-0.460586
H79	H	-0.954062	0.752895	0.235729
N80	N	-1.250128	0.393864	-0.060156
N81	N	-1.306097	0.335241	-0.031428
H82	H	-1.350263	0.297322	-0.075553
N83	N	-1.060587	0.183928	-0.611369
N84	N	-0.997279	0.244818	-0.592630
H85	H	-0.996611	0.310439	-0.626541
N86	N	-1.188820	0.236312	0.001008
N87	N	-1.160074	0.177723	-0.054969
H88	H	-1.204187	0.139775	-0.099124
N89	N	-1.069663	-0.183795	-0.139174
N90	N	-1.132976	-0.244682	-0.157907
H91	H	-1.133646	-0.310299	-0.123990
H92	H	-1.060839	-0.164939	-0.601645
N93	N	-1.063264	0.274863	-0.470343
N94	N	-1.061669	0.274848	-0.554304
H95	H	-1.061008	0.340455	-0.588238
H96	H	-1.066713	0.256042	-0.289989
H97	H	-1.176238	0.752859	0.013707
H98	H	-1.069394	0.165076	-0.148925
H99	H	-0.479827	-0.255893	0.123084
N100	N	-0.660203	-0.274745	0.126515
N101	N	-0.720918	-0.295027	0.064019
H102	H	-0.754859	-0.360632	0.064659
N103	N	-0.880122	0.393941	0.309621
N104	N	-0.908794	0.335336	0.365636
H105	H	-0.864632	0.297452	0.409791
N106	N	-0.329018	0.183924	0.120235
N107	N	-0.268314	0.204219	0.182737
H108	H	-0.234388	0.269834	0.182103
N109	N	-0.801229	0.183901	0.129243
N110	N	-0.782493	0.244778	0.192557
H111	H	-0.816414	0.310387	0.193236
N112	N	-0.880132	0.606260	0.309594
N113	N	-0.880155	0.700029	0.309585
H114	H	-0.835990	0.737934	0.353723
