data_functionalizedCrystal
_audit_creation_method	'MofGen! by Chris Wilmer'
_symmetry_space_group_name_H-M	'P1'
_symmetry_Int_Tables_number	1
_symmetry_cell_setting	triclinic
loop_
_symmetry_equiv_pos_as_xyz
  x,y,z
_cell_length_a	16.992697
_cell_length_b	15.021413
_cell_length_c	16.992695
_cell_angle_alpha	90.003993
_cell_angle_beta	90.668337
_cell_angle_gamma	89.998647
loop_
_atom_site_label
_atom_site_type_symbol
_atom_site_fract_x
_atom_site_fract_y
_atom_site_fract_z
O1	O	-1.050854	0.073904	-0.166908
O2	O	-0.717521	0.407237	0.166425
O3	O	-0.384188	0.740571	0.499758
O4	O	-0.822454	0.073934	-0.165077
O5	O	-0.489121	0.407267	0.168257
O6	O	-0.155787	0.740601	0.501590
O7	O	-0.935739	0.073912	-0.051793
O8	O	-0.602405	0.407245	0.281541
O9	O	-0.269072	0.740579	0.614874
O10	O	-0.937570	0.073926	-0.280193
O11	O	-0.604236	0.407259	0.053141
O12	O	-0.270903	0.740592	0.386474
O13	O	-0.935720	-0.074152	-0.051809
O14	O	-0.602387	0.259181	0.281525
O15	O	-0.269054	0.592514	0.614858
O16	O	-0.822436	-0.074130	-0.165093
O17	O	-0.489103	0.259203	0.168240
O18	O	-0.155769	0.592536	0.501574
O19	O	-1.050836	-0.074160	-0.166925
O20	O	-0.717503	0.259173	0.166409
O21	O	-0.384169	0.592506	0.499742
Zn22	Zn	-0.936633	-0.097654	-0.166011
Zn23	Zn	-0.603300	0.235680	0.167322
Zn24	Zn	-0.269966	0.569013	0.500655
Zn25	Zn	-0.936657	0.097427	-0.165990
Zn26	Zn	-0.603324	0.430761	0.167343
Zn27	Zn	-0.269990	0.764094	0.500677
O28	O	-0.937552	-0.074138	-0.280209
O29	O	-0.604218	0.259195	0.053125
O30	O	-0.270885	0.592528	0.386458
C31	C	-0.793085	-0.000094	-0.162729
C32	C	-0.459752	0.333239	0.170604
C33	C	-0.126418	0.666572	0.503938
C34	C	-0.705600	-0.000083	-0.155700
C35	C	-0.372267	0.333250	0.177633
C36	C	-0.038934	0.666584	0.510967
N37	N	-0.936623	-0.230791	-0.166026
N38	N	-0.603289	0.102542	0.167308
N39	N	-0.269956	0.435875	0.500641
C40	C	-0.659609	-0.000079	-0.223518
C41	C	-0.326276	0.333254	0.109815
C42	C	0.007057	0.666588	0.443149
C43	C	-0.577409	-0.000090	-0.216909
C44	C	-0.244075	0.333243	0.116424
C45	C	0.089258	0.666576	0.449758
C46	C	-0.541200	-0.000099	-0.142481
C47	C	-0.207867	0.333234	0.190852
C48	C	0.125466	0.666567	0.524186
C49	C	-0.587197	-0.000106	-0.074658
C50	C	-0.253864	0.333227	0.258675
C51	C	0.079469	0.666560	0.592008
C52	C	-0.669397	-0.000101	-0.081268
C53	C	-0.336063	0.333232	0.252065
C54	C	-0.002730	0.666565	0.585399
C55	C	-0.295886	-0.000121	-0.115086
C56	C	0.037447	0.333213	0.218247
C57	C	0.370781	0.666546	0.551581
C58	C	-0.213681	-0.000123	-0.108481
C59	C	0.119652	0.333210	0.224852
C60	C	0.452986	0.666544	0.558185
C61	C	-0.203898	-0.000109	-0.250733
C62	C	0.129436	0.333225	0.082601
C63	C	0.462769	0.666558	0.415934
C64	C	-0.286099	-0.000098	-0.257336
C65	C	0.047234	0.333235	0.075997
C66	C	0.380568	0.666568	0.409331
C67	C	-0.332089	-0.000110	-0.189513
C68	C	0.001245	0.333223	0.143820
C69	C	0.334578	0.666557	0.477154
N70	N	-0.457178	-0.000108	-0.135724
N71	N	-0.123845	0.333225	0.197610
N72	N	0.209488	0.666558	0.530943
N73	N	-0.416109	-0.000108	-0.196271
N74	N	-0.082776	0.333226	0.137062
N75	N	0.250557	0.666559	0.470396
C76	C	-0.080205	-0.000126	-0.169272
C77	C	0.253128	0.333207	0.164062
C78	C	0.586461	0.666541	0.497395
C79	C	-0.167690	-0.000119	-0.176299
C80	C	0.165643	0.333214	0.157034
C81	C	0.498977	0.666548	0.490367
C82	C	-0.884230	-0.470464	-0.218381
C83	C	-0.550896	-0.137131	0.114952
C84	C	-0.217563	0.196202	0.448285
C85	C	-0.956318	-0.529807	-0.238117
C86	C	-0.622984	-0.196474	0.095216
C87	C	-0.289651	0.136859	0.428550
C88	C	-0.936641	-0.412398	-0.166007
C89	C	-0.603308	-0.079065	0.167326
C90	C	-0.269975	0.254268	0.500660
C91	C	-0.864574	-0.529797	-0.146290
C92	C	-0.531240	-0.196464	0.187043
C93	C	-0.197907	0.136869	0.520377
C94	C	-0.936653	-0.587822	-0.165991
C95	C	-0.603320	-0.254489	0.167343
C96	C	-0.269987	0.078844	0.500676
C97	C	-1.008768	-0.470435	-0.185781
C98	C	-0.675434	-0.137101	0.147553
C99	C	-0.342101	0.196232	0.480886
C100	C	-0.916975	-0.470419	-0.093920
C101	C	-0.583642	-0.137086	0.239414
C102	C	-0.250308	0.196247	0.572747
C103	C	-0.989113	-0.529735	-0.113629
C104	C	-0.655779	-0.196402	0.219705
C105	C	-0.322446	0.136931	0.553038
C106	C	-0.936634	-0.311341	-0.166019
C107	C	-0.603300	0.021992	0.167315
C108	C	-0.269967	0.355326	0.500648
C109	C	-0.936669	-0.688878	-0.165979
C110	C	-0.603336	-0.355544	0.167354
C111	C	-0.270003	-0.022211	0.500687
C112	C	-0.933374	-0.000120	-0.022440
C113	C	-0.600040	0.333214	0.310893
C114	C	-0.266707	0.666547	0.644226
C115	C	-0.926345	-0.000119	0.065044
C116	C	-0.593012	0.333215	0.398377
C117	C	-0.259678	0.666548	0.731711
N118	N	-0.936674	0.230565	-0.165970
N119	N	-0.603340	0.563898	0.167363
N120	N	-0.270007	0.897232	0.500697
C121	C	-0.939916	-0.000105	-0.309561
C122	C	-0.606583	0.333229	0.023772
C123	C	-0.273250	0.666562	0.357106
C124	C	-0.946945	-0.000100	-0.397045
C125	C	-0.613612	0.333233	-0.063712
C126	C	-0.280279	0.666567	0.269621
C127	C	-0.994163	-0.000128	0.111035
C128	C	-0.660830	0.333205	0.444368
C129	C	-0.327496	0.666538	0.777702
C130	C	-0.987554	-0.000119	0.193236
C131	C	-0.654221	0.333214	0.526569
C132	C	-0.320887	0.666548	0.859902
C133	C	-0.913126	-0.000106	0.229444
C134	C	-0.579793	0.333227	0.562777
C135	C	-0.246460	0.666560	0.896111
C136	C	-0.845303	-0.000094	0.183447
C137	C	-0.511970	0.333239	0.516781
C138	C	-0.178637	0.666573	0.850114
C139	C	-0.851913	-0.000097	0.101248
C140	C	-0.518580	0.333237	0.434581
C141	C	-0.185246	0.666570	0.767915
C142	C	-0.885732	-0.000091	0.474758
C143	C	-0.552399	0.333243	0.808092
C144	C	-0.219065	0.666576	1.141425
C145	C	-0.879127	-0.000090	0.556964
C146	C	-0.545794	0.333243	0.890297
C147	C	-0.212461	0.666576	1.223630
C148	C	-1.021379	-0.000114	0.566747
C149	C	-0.688045	0.333219	0.900080
C150	C	-0.354712	0.666553	1.233413
C151	C	-1.027982	-0.000122	0.484545
C152	C	-0.694648	0.333211	0.817879
C153	C	-0.361315	0.666545	1.151212
C154	C	-0.960159	-0.000105	0.438556
C155	C	-0.626825	0.333228	0.771889
C156	C	-0.293492	0.666562	1.105222
N157	N	-0.906369	-0.000100	0.313466
N158	N	-0.573036	0.333234	0.646800
N159	N	-0.239703	0.666567	0.980133
N160	N	-0.966917	-0.000105	0.354535
N161	N	-0.633583	0.333228	0.687868
N162	N	-0.300250	0.666561	1.021202
H163	H	-0.689084	-0.000071	-0.284125
H164	H	-0.355750	0.333262	0.049208
H165	H	-0.022417	0.666596	0.382542
H166	H	-1.069737	-0.444469	-0.202522
H167	H	-0.736403	-0.111135	0.130811
H168	H	-0.403070	0.222198	0.464144
Br169	Br	-0.538059	-0.000128	0.026352
Br170	Br	-0.204725	0.333206	0.359686
Br171	Br	0.128608	0.666539	0.693019
H172	H	-0.315574	-0.000081	-0.317943
H173	H	0.017760	0.333253	0.015390
H174	H	0.351093	0.666586	0.348724
Br175	Br	-1.063077	-0.572846	-0.039795
Br176	Br	-0.729744	-0.239512	0.293538
Br177	Br	-0.396410	0.093821	0.626871
H178	H	-0.706842	-0.000104	-0.026043
H179	H	-0.373509	0.333229	0.307290
H180	H	-0.040175	0.666562	0.640623
Br181	Br	-0.984064	-0.573285	-0.339713
Br182	Br	-0.650730	-0.239952	-0.006380
Br183	Br	-0.317397	0.093382	0.326954
Br184	Br	-0.810438	-0.427083	-0.292267
Br185	Br	-0.477104	-0.093750	0.041067
Br186	Br	-0.143771	0.239583	0.374400
Br187	Br	-1.113419	-0.000137	0.629165
Br188	Br	-0.780086	0.333196	0.962498
Br189	Br	-0.446752	0.666529	1.295831
H190	H	-0.900309	-0.444313	-0.032982
H191	H	-0.566976	-0.110980	0.300352
H192	H	-0.233642	0.222354	0.633685
H193	H	-1.042779	-0.000129	0.230678
H194	H	-0.709446	0.333204	0.564011
H195	H	-0.376112	0.666538	0.897345
Br196	Br	-1.128994	-0.000111	0.435411
Br197	Br	-0.795661	0.333222	0.768744
Br198	Br	-0.462328	0.666556	1.102078
Br199	Br	-0.762986	-0.573264	-0.118506
Br200	Br	-0.429653	-0.239931	0.214827
Br201	Br	-0.096319	0.093403	0.548160
H202	H	-0.166444	-0.000101	-0.305950
H203	H	0.166889	0.333232	0.027383
H204	H	0.500222	0.666565	0.360717
Br205	Br	-0.759871	-0.000076	0.038831
Br206	Br	-0.426537	0.333257	0.372164
Br207	Br	-0.093204	0.666590	0.705497
Br208	Br	-1.095177	-0.000159	0.061903
Br209	Br	-0.761843	0.333175	0.395236
Br210	Br	-0.428510	0.666508	0.728570
H211	H	-0.818516	-0.000094	0.586442
H212	H	-0.485183	0.333239	0.919775
H213	H	-0.151850	0.666572	1.253108
H214	H	-0.830505	-0.000077	0.437323
H215	H	-0.497172	0.333257	0.770657
H216	H	-0.163838	0.666590	1.103990
H217	H	-0.784703	-0.000078	0.212935
H218	H	-0.451369	0.333255	0.546268
H219	H	-0.118036	0.666589	0.879601
H220	H	-0.539966	-0.000086	-0.272134
H221	H	-0.206633	0.333247	0.061200
H222	H	0.126701	0.666581	0.394533
H223	H	-0.333321	-0.000131	-0.059859
H224	H	0.000012	0.333202	0.273474
H225	H	0.333345	0.666536	0.606807
Br226	Br	-0.164541	-0.000155	-0.007466
Br227	Br	0.168792	0.333179	0.325868
Br228	Br	0.502125	0.666512	0.659201
