data_functionalizedCrystal
_audit_creation_method	'MofGen! by Chris Wilmer'
_symmetry_space_group_name_H-M	'P1'
_symmetry_Int_Tables_number	1
_symmetry_cell_setting	triclinic
loop_
_symmetry_equiv_pos_as_xyz
  x,y,z
_cell_length_a	19.805407
_cell_length_b	18.101395
_cell_length_c	19.805399
_cell_angle_alpha	89.974882
_cell_angle_beta	89.980427
_cell_angle_gamma	90.031104
loop_
_atom_site_label
_atom_site_type_symbol
_atom_site_fract_x
_atom_site_fract_y
_atom_site_fract_z
Zn1	Zn	1.034714	-0.294847	-0.382731
Zn2	Zn	1.534714	0.205153	0.117269
Zn3	Zn	1.034619	-0.418690	-0.269548
Zn4	Zn	1.534619	0.081310	0.230452
Zn5	Zn	0.921528	-0.294867	-0.269556
Zn6	Zn	1.421528	0.205133	0.230444
Zn7	Zn	0.921482	-0.418651	-0.382695
Zn8	Zn	1.421482	0.081349	0.117305
O9	O	0.978086	-0.356764	-0.326132
O10	O	1.478086	0.143236	0.173868
O11	O	1.129418	-0.311283	-0.367729
O12	O	1.629418	0.188717	0.132271
O13	O	1.019597	-0.402290	-0.174832
O14	O	1.519597	0.097710	0.325168
O15	O	0.936601	-0.191232	-0.284587
O16	O	1.436601	0.308768	0.215413
O17	O	1.129348	-0.402270	-0.284574
O18	O	1.629348	0.097730	0.215426
O19	O	1.019758	-0.191217	-0.367737
O20	O	1.519758	0.308783	0.132263
O21	O	0.936510	-0.311318	-0.174838
O22	O	1.436510	0.188682	0.325162
O23	O	0.826806	-0.311279	-0.284552
O24	O	1.326806	0.188721	0.215448
O25	O	0.936523	-0.402203	-0.477416
O26	O	1.436523	0.097797	0.022584
O27	O	0.826772	-0.402223	-0.367674
O28	O	1.326772	0.097777	0.132326
O29	O	1.019714	-0.311245	-0.477443
O30	O	1.519714	0.188755	0.022557
O31	O	1.019553	-0.522318	-0.284538
O32	O	1.519553	-0.022318	0.215462
O33	O	0.936432	-0.522289	-0.367667
O34	O	1.436432	-0.022289	0.132333
C35	C	0.802230	-0.356750	-0.326110
C36	C	1.302230	0.143250	0.173890
C37	C	0.726998	-0.356761	-0.326117
C38	C	1.226998	0.143239	0.173883
C39	C	0.691654	-0.404187	-0.369329
C40	C	1.191654	0.095813	0.130671
C41	C	0.620965	-0.404188	-0.369339
C42	C	1.120965	0.095812	0.130661
C43	C	0.585622	-0.356767	-0.326132
C44	C	1.085622	0.143233	0.173868
C45	C	0.620971	-0.309336	-0.282919
C46	C	1.120971	0.190664	0.217081
C47	C	0.691658	-0.309332	-0.282913
C48	C	1.191658	0.190668	0.217087
C49	C	0.335898	-0.309353	-0.282941
C50	C	0.835898	0.190647	0.217059
C51	C	0.265206	-0.309363	-0.282948
C52	C	0.765206	0.190637	0.217052
C53	C	0.265205	-0.404209	-0.369367
C54	C	0.765205	0.095791	0.130633
C55	C	0.335892	-0.404205	-0.369361
C56	C	0.835892	0.095795	0.130639
C57	C	0.371235	-0.356771	-0.326150
C58	C	0.871235	0.143229	0.173850
C59	C	0.447883	-0.356770	-0.326141
C60	C	0.947883	0.143230	0.173859
C61	C	0.508975	-0.356772	-0.326137
C62	C	1.008975	0.143228	0.173863
C63	C	0.977995	-0.549174	-0.326112
C64	C	1.477995	-0.049174	0.173888
C65	C	0.978018	-0.631489	-0.326127
C66	C	1.478018	-0.131489	0.173873
C67	C	0.978167	-0.930579	-0.326163
C68	C	1.478167	-0.430579	0.173837
C69	C	0.925991	-0.899267	-0.378595
C70	C	1.425991	-0.399267	0.121405
C71	C	0.925743	-0.813649	-0.378431
C72	C	1.425743	-0.313649	0.121569
C73	C	0.978093	-0.782197	-0.326146
C74	C	1.478093	-0.282197	0.173854
C75	C	0.958782	-0.813345	-0.254811
C76	C	1.458782	-0.313345	0.245189
C77	C	0.958446	-0.898990	-0.255125
C78	C	1.458446	-0.398990	0.244875
C79	C	1.049768	-0.898924	-0.344438
C80	C	1.549768	-0.398924	0.155562
C81	C	1.049347	-0.813273	-0.346002
C82	C	1.549347	-0.313273	0.153998
C83	C	0.978053	-0.698337	-0.326131
C84	C	1.478053	-0.198337	0.173869
C85	C	0.978206	-1.014439	-0.326173
C86	C	1.478206	-0.514439	0.173827
C87	C	1.154629	-0.356779	-0.326155
C88	C	1.654629	0.143221	0.173845
C89	C	1.229861	-0.356785	-0.326164
C90	C	1.729861	0.143215	0.173836
C91	C	0.978124	-0.356717	-0.502675
C92	C	1.478124	0.143283	-0.002675
C93	C	0.978140	-0.356697	-0.577907
C94	C	1.478140	0.143303	-0.077907
C95	C	0.978195	-0.163602	-0.326167
C96	C	1.478195	0.336398	0.173833
C97	C	0.978242	-0.081288	-0.326182
C98	C	1.478242	0.418712	0.173818
C99	C	1.021458	-0.309333	-0.613266
C100	C	1.521458	0.190667	-0.113266
C101	C	1.021465	-0.309311	-0.683955
C102	C	1.521465	0.190689	-0.183955
C103	C	0.978157	-0.356659	-0.719283
C104	C	1.478157	0.143341	-0.219283
C105	C	0.934834	-0.404025	-0.683919
C106	C	1.434834	0.095975	-0.183919
C107	C	0.934824	-0.404042	-0.613231
C108	C	1.434824	0.095958	-0.113231
C109	C	0.934872	-0.403956	-0.968992
C110	C	1.434872	0.096044	-0.468992
C111	C	0.934887	-0.403937	-1.039684
C112	C	1.434887	0.096063	-0.539684
C113	C	1.021513	-0.309225	-1.039716
C114	C	1.521513	0.190775	-0.539716
C115	C	1.021503	-0.309242	-0.969028
C116	C	1.521503	0.190758	-0.469028
C117	C	0.978178	-0.356606	-0.933670
C118	C	1.478178	0.143394	-0.433670
C119	C	0.978170	-0.356628	-0.857022
C120	C	1.478170	0.143372	-0.357022
C121	C	0.978168	-0.356641	-0.795930
C122	C	1.478168	0.143359	-0.295930
C123	C	0.978087	-0.356757	-0.150276
C124	C	1.478087	0.143243	0.349724
C125	C	0.978202	-0.356568	-0.075045
C126	C	1.478202	0.143432	0.424955
H127	H	0.364665	-0.270735	-0.247751
H128	H	0.864665	0.229265	0.252249
N129	N	1.068178	-0.258270	-0.575169
N130	N	1.568178	0.241730	-0.075169
H131	H	1.099524	-0.288382	-0.545847
H132	H	1.599524	0.211618	-0.045847
H133	H	1.095574	-0.228276	-0.608344
H134	H	1.595574	0.271724	-0.108344
H135	H	1.056788	-0.270657	-1.068513
H136	H	1.556788	0.229343	-0.568513
N137	N	0.582855	-0.258202	-0.236304
N138	N	1.082855	0.241798	0.263696
H139	H	0.532711	-0.265408	-0.242856
H140	H	1.032711	0.234592	0.257144
H141	H	0.595196	-0.269676	-0.187951
H142	H	1.095196	0.230324	0.312049
N143	N	0.888096	-0.455121	-0.575090
N144	N	1.388096	0.044879	-0.075090
H145	H	0.860661	-0.485112	-0.608195
H146	H	1.360661	0.014888	-0.108195
H147	H	0.915618	-0.489404	-0.545757
H148	H	1.415618	0.010596	-0.045757
H149	H	1.056741	-0.270744	-0.712741
H150	H	1.556741	0.229256	-0.212741
N151	N	0.888172	-0.454999	-1.077797
N152	N	1.388172	0.045001	-0.577797
H153	H	0.898644	-0.507919	-1.065490
H154	H	1.398644	-0.007919	-0.565490
H155	H	0.839834	-0.443427	-1.065479
H156	H	1.339834	0.056573	-0.565479
H157	H	0.899569	-0.442573	-0.712688
H158	H	1.399569	0.057427	-0.212688
N159	N	0.729772	-0.455340	-0.415926
N160	N	1.229772	0.044660	0.084074
H161	H	0.696652	-0.485383	-0.443302
H162	H	1.196652	0.014617	0.056698
H163	H	0.759128	-0.425239	-0.447295
H164	H	1.259128	0.074761	0.052705
N165	N	0.729780	-0.258185	-0.236300
N166	N	1.229780	0.241815	0.263700
H167	H	0.779923	-0.265376	-0.242853
H168	H	1.279923	0.234624	0.257147
H169	H	0.717452	-0.205311	-0.246921
H170	H	1.217452	0.294689	0.253079
N171	N	0.888123	-0.455014	-0.930861
N172	N	1.388123	0.044986	-0.430861
H173	H	0.860685	-0.484998	-0.963969
H174	H	1.360685	0.015002	-0.463969
H175	H	0.915625	-0.489305	-0.901516
H176	H	1.415625	0.010695	-0.401516
H177	H	0.937825	-0.792587	-0.431325
H178	H	1.437825	-0.292587	0.068675
N179	N	0.582844	-0.455347	-0.415939
N180	N	1.082844	0.044653	0.084061
H181	H	0.553488	-0.489621	-0.388373
H182	H	1.053488	0.010379	0.111627
H183	H	0.553581	-0.425249	-0.447350
H184	H	1.053581	0.074751	0.052650
H185	H	1.088641	-0.919172	-0.306250
H186	H	1.588641	-0.419172	0.193750
N187	N	0.941825	-0.926489	-0.448888
N188	N	1.441825	-0.426489	0.051112
H189	H	0.982973	-0.959385	-0.447431
H190	H	1.482973	-0.459385	0.052569
H191	H	0.902080	-0.955383	-0.466876
H192	H	1.402080	-0.455383	0.033124
H193	H	0.872670	-0.793225	-0.366326
H194	H	1.372670	-0.293225	0.133674
N195	N	1.103565	-0.784923	-0.299098
N196	N	1.603565	-0.284923	0.200902
H197	H	1.148733	-0.805801	-0.313085
H198	H	1.648733	-0.305801	0.186915
H199	H	1.105163	-0.729214	-0.301469
H200	H	1.605163	-0.229214	0.198531
N201	N	1.068218	-0.258180	-0.930925
N202	N	1.568218	0.241820	-0.430925
H203	H	1.095661	-0.228169	-0.964051
H204	H	1.595661	0.271831	-0.464051
H205	H	1.040681	-0.223913	-0.901597
H206	H	1.540681	0.276087	-0.401597
N207	N	0.374012	-0.455356	-0.415957
N208	N	0.874012	0.044644	0.084043
H209	H	0.340895	-0.485400	-0.443335
H210	H	0.840895	0.014600	0.056665
H211	H	0.403368	-0.425253	-0.447326
H212	H	0.903368	0.074747	0.052674
N213	N	0.856115	-0.927854	-0.362768
N214	N	1.356115	-0.427854	0.137232
H215	H	0.858111	-0.960999	-0.321782
H216	H	1.358111	-0.460999	0.178218
H217	H	0.825042	-0.884847	-0.353366
H218	H	1.325042	-0.384847	0.146634
H219	H	0.236420	-0.442829	-0.404554
H220	H	0.736420	0.057171	0.095446
H221	H	0.906106	-0.919033	-0.239644
H222	H	1.406106	-0.419033	0.260356
N223	N	0.227084	-0.258214	-0.236344
N224	N	0.727084	0.241786	0.263656
H225	H	0.239406	-0.205313	-0.246942
H226	H	0.739406	0.294687	0.253058
H227	H	0.176954	-0.265484	-0.242926
H228	H	0.676954	0.234516	0.257074
N229	N	1.006596	-0.926439	-0.201614
N230	N	1.506596	-0.426439	0.298386
H231	H	1.027943	-0.882901	-0.177923
H232	H	1.527943	-0.382901	0.322077
H233	H	0.981060	-0.957421	-0.167722
H234	H	1.481060	-0.457421	0.332278
H235	H	0.995590	-0.792973	-0.214680
H236	H	1.495590	-0.292973	0.285320
N237	N	0.890187	-0.785019	-0.233938
N238	N	1.390187	-0.285019	0.266062
H239	H	0.855261	-0.801439	-0.267921
H240	H	1.355261	-0.301439	0.232079
H241	H	0.878269	-0.805375	-0.187964
H242	H	1.378269	-0.305375	0.312036
N243	N	1.073095	-0.927466	-0.412164
N244	N	1.573095	-0.427466	0.087836
H245	H	1.037481	-0.961212	-0.431687
H246	H	1.537481	-0.461212	0.068313
H247	H	1.080802	-0.884480	-0.443772
H248	H	1.580802	-0.384480	0.056228
H249	H	1.063910	-0.792912	-0.398501
H250	H	1.563910	-0.292912	0.101499
