data_functionalizedCrystal
_audit_creation_method	'MofGen! by Chris Wilmer'
_symmetry_space_group_name_H-M	'P1'
_symmetry_Int_Tables_number	1
_symmetry_cell_setting	triclinic
loop_
_symmetry_equiv_pos_as_xyz
  x,y,z
_cell_length_a	16.959455
_cell_length_b	21.295417
_cell_length_c	21.295120
_cell_angle_alpha	89.638316
_cell_angle_beta	89.934064
_cell_angle_gamma	90.027454
loop_
_atom_site_label
_atom_site_type_symbol
_atom_site_fract_x
_atom_site_fract_y
_atom_site_fract_z
Zn1	Zn	1.208730	-0.248620	-0.355904
Zn2	Zn	1.708730	0.251380	0.144096
Zn3	Zn	1.208509	-0.354497	-0.250626
Zn4	Zn	1.708509	0.145503	0.249374
Zn5	Zn	1.076439	-0.249239	-0.250648
Zn6	Zn	1.576439	0.250761	0.249352
Zn7	Zn	1.076499	-0.353850	-0.355863
Zn8	Zn	1.576499	0.146150	0.144137
O9	O	1.142545	-0.301551	-0.303260
O10	O	1.642545	0.198449	0.196740
O11	O	1.319312	-0.262676	-0.341947
O12	O	1.819312	0.237324	0.158053
O13	O	1.190872	-0.341064	-0.162537
O14	O	1.690872	0.158936	0.337463
O15	O	1.094055	-0.161068	-0.264636
O16	O	1.594055	0.338932	0.235364
O17	O	1.319149	-0.340463	-0.264599
O18	O	1.819149	0.159537	0.235401
O19	O	1.191249	-0.160613	-0.341968
O20	O	1.691249	0.339387	0.158032
O21	O	1.093841	-0.263732	-0.162553
O22	O	1.593841	0.236268	0.337447
O23	O	0.965836	-0.263105	-0.264597
O24	O	1.465836	0.236895	0.235403
O25	O	1.094158	-0.339361	-0.443961
O26	O	1.594158	0.160639	0.056039
O27	O	0.965880	-0.339962	-0.341898
O28	O	1.465880	0.160038	0.158102
O29	O	1.191307	-0.262049	-0.443991
O30	O	1.691307	0.237951	0.056009
O31	O	1.190930	-0.442500	-0.264560
O32	O	1.690930	0.057500	0.235440
O33	O	1.093943	-0.442025	-0.341877
O34	O	1.593943	0.057975	0.158123
C35	C	0.937178	-0.301531	-0.303246
C36	C	1.437178	0.198469	0.196754
C37	C	0.849322	-0.301537	-0.303255
C38	C	1.349322	0.198463	0.196745
C39	C	0.477799	-0.261499	-0.263094
C40	C	0.977799	0.238501	0.236906
C41	C	0.477893	-0.341656	-0.343463
C42	C	0.977893	0.158344	0.156537
C43	C	0.560439	-0.341647	-0.343459
C44	C	1.060439	0.158353	0.156541
C45	C	0.601669	-0.301564	-0.303271
C46	C	1.101669	0.198436	0.196729
C47	C	0.560352	-0.261490	-0.263087
C48	C	1.060352	0.238510	0.236913
C49	C	0.601762	-0.381725	-0.383638
C50	C	1.101762	0.118275	0.116362
C51	C	0.684313	-0.381718	-0.383636
C52	C	1.184313	0.118282	0.116364
C53	C	0.725544	-0.341631	-0.343450
C54	C	1.225544	0.158369	0.156550
C55	C	0.684222	-0.301555	-0.303265
C56	C	1.184222	0.198445	0.196735
C57	C	0.725452	-0.261472	-0.263077
C58	C	1.225452	0.238528	0.236923
C59	C	0.684132	-0.221392	-0.222894
C60	C	1.184132	0.278608	0.277106
C61	C	0.601583	-0.221403	-0.222902
C62	C	1.101583	0.278597	0.277098
C63	C	0.808092	-0.341620	-0.343443
C64	C	1.308092	0.158380	0.156557
C65	C	0.808005	-0.261463	-0.263071
C66	C	1.308005	0.238537	0.236929
C67	C	1.142441	-0.465103	-0.303226
C68	C	1.642441	0.034897	0.196774
C69	C	1.142469	-0.535071	-0.303232
C70	C	1.642469	-0.035071	0.196768
C71	C	1.193015	-0.568164	-0.263014
C72	C	1.693015	-0.068164	0.236986
C73	C	1.193052	-0.633907	-0.263028
C74	C	1.693052	-0.133907	0.236972
C75	C	1.142529	-0.666554	-0.303253
C76	C	1.642529	-0.166554	0.196747
C77	C	1.091979	-0.633453	-0.343479
C78	C	1.591979	-0.133453	0.156521
C79	C	1.091949	-0.567712	-0.343468
C80	C	1.591949	-0.067712	0.156532
N81	N	1.073387	-0.769789	-0.308048
N82	N	1.573387	-0.269789	0.191952
N83	N	1.073418	-0.832240	-0.308054
N84	N	1.573418	-0.332240	0.191946
C85	C	1.142617	-0.864628	-0.303289
C86	C	1.642617	-0.364628	0.196711
N87	N	1.211786	-0.832205	-0.298506
N88	N	1.711786	-0.332205	0.201494
N89	N	1.211755	-0.769748	-0.298496
N90	N	1.711755	-0.269748	0.201504
C91	C	1.142556	-0.737839	-0.303270
C92	C	1.642556	-0.237839	0.196730
C93	C	1.193208	-0.969007	-0.263085
C94	C	1.693208	-0.469007	0.236915
C95	C	1.193246	-1.034750	-0.263103
C96	C	1.693246	-0.534750	0.236897
C97	C	1.092166	-1.034295	-0.343551
C98	C	1.592166	-0.534295	0.156449
C99	C	1.092135	-0.968553	-0.343536
C100	C	1.592135	-0.468553	0.156464
C101	C	1.142655	-0.935912	-0.303299
C102	C	1.642655	-0.435912	0.196701
C103	C	1.348713	-0.301573	-0.303275
C104	C	1.848713	0.198427	0.196725
C105	C	1.436569	-0.301582	-0.303282
C106	C	1.936569	0.198418	0.196718
C107	C	1.142764	-0.300564	-0.467456
C108	C	1.642764	0.199436	0.032544
C109	C	1.142857	-0.300143	-0.537427
C110	C	1.642857	0.199857	-0.037427
C111	C	1.142670	-0.137361	-0.303309
C112	C	1.642670	0.362639	0.196691
C113	C	1.142724	-0.067393	-0.303330
C114	C	1.642724	0.432607	0.196670
C115	C	1.142372	-0.302490	-0.139703
C116	C	1.642372	0.197510	0.360297
C117	C	1.142431	-0.302734	-0.069733
C118	C	1.642431	0.197266	0.430267
C119	C	1.192662	-0.262027	-0.037393
C120	C	1.692662	0.237973	0.462607
C121	C	1.192720	-0.261709	0.028348
C122	C	1.692720	0.238291	0.528348
C123	C	1.142534	-0.302091	0.061745
C124	C	1.642534	0.197909	0.561745
C125	C	1.092299	-0.342805	0.029397
C126	C	1.592299	0.157195	0.529397
C127	C	1.092248	-0.343127	-0.036342
C128	C	1.592248	0.156873	0.463658
N129	N	1.073466	-0.306808	0.165118
N130	N	1.573466	0.193192	0.665118
N131	N	1.073517	-0.306499	0.227568
N132	N	1.573517	0.193501	0.727568
C133	C	1.142686	-0.301127	0.259814
C134	C	1.642686	0.198873	0.759814
N135	N	1.211804	-0.296062	0.227252
N136	N	1.711804	0.203938	0.727252
N137	N	1.211752	-0.296368	0.164797
N138	N	1.711752	0.203632	0.664797
C139	C	1.142584	-0.301748	0.133029
C140	C	1.642584	0.198252	0.633029
C141	C	1.192984	-0.260073	0.363438
C142	C	1.692984	0.239927	0.863438
C143	C	1.193043	-0.259760	0.429180
C144	C	1.693043	0.240240	0.929180
C145	C	1.092615	-0.340853	0.430228
C146	C	1.592615	0.159147	0.930228
C147	C	1.092563	-0.341169	0.364487
C148	C	1.592563	0.158831	0.864487
C149	C	1.142746	-0.300776	0.331097
C150	C	1.642746	0.199224	0.831097
H151	H	0.841731	-0.374254	-0.376157
H152	H	1.341731	0.125746	0.123843
N153	N	1.247514	-0.532960	-0.219628
N154	N	1.747514	-0.032960	0.280372
H155	H	1.235235	-0.544699	-0.174641
H156	H	1.735235	-0.044699	0.325359
H157	H	1.303974	-0.544319	-0.229507
H158	H	1.803974	-0.044319	0.270493
N159	N	1.037426	-0.532011	-0.386843
N160	N	1.537426	-0.032011	0.113157
H161	H	1.049721	-0.543148	-0.431833
H162	H	1.549721	-0.043148	0.068167
H163	H	0.980974	-0.543568	-0.376974
H164	H	1.480974	-0.043568	0.123026
N165	N	0.557016	-0.178187	-0.179558
N166	N	1.057016	0.321813	0.320442
H167	H	0.595658	-0.152792	-0.154097
H168	H	1.095658	0.347208	0.345903
H169	H	0.522814	-0.148946	-0.205236
H170	H	1.022814	0.351054	0.294764
H171	H	0.444152	-0.228865	-0.230380
H172	H	0.944152	0.271135	0.269620
H173	H	1.234347	-0.942430	-0.230324
H174	H	1.734347	-0.442430	0.269676
H175	H	0.568187	-0.414363	-0.416353
H176	H	1.068187	0.085637	0.083647
H177	H	0.444319	-0.374293	-0.376179
H178	H	0.944319	0.125707	0.123821
N179	N	0.728876	-0.424944	-0.426972
N180	N	1.228876	0.075056	0.073028
H181	H	0.690231	-0.450338	-0.452430
H182	H	1.190231	0.049662	0.047570
H183	H	0.763181	-0.399186	-0.456151
H184	H	1.263181	0.100814	0.043849
H185	H	1.233845	-0.227182	0.336250
H186	H	1.733845	0.272818	0.836250
H187	H	1.233953	-0.226613	0.455511
H188	H	1.733953	0.273387	0.955511
H189	H	1.234216	-0.660856	-0.230278
H190	H	1.734216	-0.160856	0.269722
H191	H	1.051755	-0.373735	0.457419
H192	H	1.551755	0.126265	0.957419
H193	H	1.050844	-0.660038	-0.376232
H194	H	1.550844	-0.160038	0.123768
H195	H	1.234412	-1.061693	-0.230354
H196	H	1.734412	-0.561693	0.269646
N197	N	1.037678	-1.069497	-0.386944
N198	N	1.537678	-0.569497	0.113056
H199	H	1.045368	-1.116166	-0.380850
H200	H	1.545368	-0.616166	0.119150
H201	H	0.981217	-1.058109	-0.377104
H202	H	1.481217	-0.558109	0.122896
H203	H	1.050972	-0.941607	-0.376283
H204	H	1.550972	-0.441607	0.123717
N205	N	1.246777	-0.218455	-0.073407
N206	N	1.746777	0.281545	0.426593
H207	H	1.278604	-0.192617	-0.042940
H208	H	1.778604	0.307383	0.457060
H209	H	1.283555	-0.243993	-0.100454
H210	H	1.783555	0.256007	0.399546
H211	H	1.233624	-0.228559	0.054685
H212	H	1.733624	0.271441	0.554685
N213	N	0.852463	-0.218227	-0.219721
N214	N	1.352463	0.281773	0.280279
H215	H	0.886654	-0.243934	-0.190495
H216	H	1.386654	0.256066	0.309505
H217	H	0.886721	-0.188945	-0.245398
H218	H	1.386721	0.311055	0.254602
H219	H	1.051656	-0.374315	0.338155
H220	H	1.551656	0.125685	0.838155
N221	N	1.038165	-0.386362	0.065408
N222	N	1.538165	0.113638	0.565408
H223	H	1.070549	-0.415217	0.092965
H224	H	1.570549	0.084783	0.592965
H225	H	1.001348	-0.360813	0.092412
H226	H	1.501348	0.139187	0.592412
N227	N	0.728603	-0.178165	-0.179545
N228	N	1.228603	0.321835	0.320455
H229	H	0.787167	-0.184246	-0.185639
H230	H	1.287167	0.315754	0.314361
H231	H	0.714218	-0.133163	-0.189427
H232	H	1.214218	0.366837	0.310573
N233	N	1.038069	-0.387034	-0.071229
N234	N	1.538069	0.112966	0.428771
H235	H	1.006285	-0.412570	-0.040099
H236	H	1.506285	0.087430	0.459901
H237	H	1.001253	-0.361751	-0.098735
H238	H	1.501253	0.138249	0.401265
