data_functionalizedCrystal
_audit_creation_method	'MofGen! by Chris Wilmer'
_symmetry_space_group_name_H-M	'P1'
_symmetry_Int_Tables_number	1
_symmetry_cell_setting	triclinic
loop_
_symmetry_equiv_pos_as_xyz
  x,y,z
_cell_length_a	17.638166
_cell_length_b	12.827893
_cell_length_c	12.827885
_cell_angle_alpha	90.019272
_cell_angle_beta	101.173721
_cell_angle_gamma	78.755887
loop_
_atom_site_label
_atom_site_type_symbol
_atom_site_fract_x
_atom_site_fract_y
_atom_site_fract_z
Zn1	Zn	-0.314654	-1.513448	-0.674878
Zn2	Zn	-0.446859	-1.477956	-0.535444
Zn3	Zn	-0.314693	-1.338679	-0.500162
Zn4	Zn	-0.446799	-1.303304	-0.710128
O5	O	-0.380751	-1.408347	-0.605153
O6	O	-0.332200	-1.654974	-0.656395
O7	O	-0.429368	-1.459431	-0.384538
O8	O	-0.204073	-1.391521	-0.493821
O9	O	-0.429330	-1.628898	-0.553953
O10	O	-0.204044	-1.519923	-0.622184
O11	O	-0.332266	-1.357105	-0.358617
O12	O	-0.332209	-1.187753	-0.528001
O13	O	-0.429229	-1.331230	-0.851677
O14	O	-0.429267	-1.161763	-0.682262
O15	O	-0.332142	-1.485621	-0.825779
O16	O	-0.557466	-1.425130	-0.588134
O17	O	-0.557422	-1.296814	-0.716473
C18	C	-0.380736	-1.136841	-0.605129
C19	C	-0.380749	-1.020685	-0.605148
C20	C	-0.586125	-1.353310	-0.659980
C21	C	-0.673985	-1.329861	-0.683470
C22	C	-0.380675	-1.408439	-0.877703
C23	C	-0.380642	-1.408478	-0.993847
C24	C	-0.797826	-1.229947	-0.783344
C25	C	-0.715268	-1.251989	-0.761264
C26	C	-0.715250	-1.385718	-0.627722
C27	C	-0.797810	-1.363684	-0.649787
C28	C	-0.839091	-1.285798	-0.727600
C29	C	-0.839075	-1.419535	-0.594043
C30	C	-0.921627	-1.397505	-0.616111
C31	C	-0.962914	-1.319625	-0.693922
C32	C	-0.921643	-1.263768	-0.749668
C33	C	-0.797792	-1.497426	-0.516235
C34	C	-0.839058	-1.553277	-0.460491
C35	C	-0.921611	-1.531242	-0.482553
C36	C	-0.962898	-1.453362	-0.560365
C37	C	-0.962882	-1.587099	-0.426808
C38	C	-1.045434	-1.565070	-0.448876
C39	C	-1.045450	-1.431333	-0.582433
C40	C	-0.174575	-1.463627	-0.550134
C41	C	-0.086715	-1.487184	-0.526689
C42	C	-0.380767	-1.680913	-0.605178
C43	C	-0.380774	-1.797064	-0.605188
C44	C	-0.428851	-0.956047	-0.681404
C45	C	-0.428865	-0.835993	-0.681426
C46	C	-0.332551	-1.357908	-1.152838
C47	C	-0.332584	-1.357866	-1.032797
C48	C	-0.380771	-1.408331	-0.333648
C49	C	-0.380580	-1.408554	-0.217445
H50	H	-1.079064	-1.367915	-0.645801
C51	C	-0.277030	-1.299285	-0.957814
C52	C	-0.187155	-1.331900	-0.948738
C53	C	-0.131599	-1.273317	-0.873753
C54	C	-0.165918	-1.182119	-0.807843
C55	C	-0.255797	-1.149499	-0.816917
C56	C	-0.311353	-1.208083	-0.891902
H57	H	-0.161746	-1.399415	-0.997531
H58	H	-0.065065	-1.297465	-0.867037
H59	H	-0.124792	-1.138752	-0.752335
H60	H	-0.281206	-1.081985	-0.768125
H61	H	-0.377888	-1.183935	-0.898619
H62	H	-0.681674	-1.206503	-0.806665
C63	C	-0.843240	-1.144270	-0.868941
C64	C	-0.899916	-1.174389	-0.966174
C65	C	-0.945329	-1.088719	-1.051769
C66	C	-0.934067	-0.972930	-1.040131
C67	C	-0.877388	-0.942805	-0.942894
C68	C	-0.831975	-1.028475	-0.857299
H69	H	-0.908255	-1.260108	-0.974792
H70	H	-0.987286	-1.111020	-1.123750
H71	H	-0.967684	-0.909512	-1.103493
H72	H	-0.869049	-0.857086	-0.934275
H73	H	-0.790018	-1.006174	-0.785317
H74	H	-0.470020	-0.989588	-0.746675
H75	H	-0.470049	-0.780455	-0.746708
H76	H	-1.030133	-1.301695	-0.711892
H77	H	-0.339592	-0.852595	-0.539897
C78	C	-0.325124	-0.975386	-0.516969
C79	C	-0.263166	-0.916939	-0.545923
C80	C	-0.207540	-0.871644	-0.457740
C81	C	-0.213872	-0.884796	-0.340602
C82	C	-0.275833	-0.943245	-0.311642
C83	C	-0.331459	-0.988540	-0.399825
H84	H	-0.258476	-0.907202	-0.632640
H85	H	-0.161672	-0.828376	-0.479179
H86	H	-0.172694	-0.851265	-0.275324
H87	H	-0.280522	-0.952982	-0.224925
H88	H	-0.377327	-1.031808	-0.378387
C89	C	-0.436167	-1.467093	-1.172122
C90	C	-0.429730	-1.587635	-1.185317
C91	C	-0.485318	-1.646177	-1.139998
C92	C	-0.547344	-1.584176	-1.081484
C93	C	-0.553783	-1.463627	-1.068286
C94	C	-0.498195	-1.405086	-1.113605
H95	H	-0.383813	-1.633538	-1.228635
H96	H	-0.480551	-1.735415	-1.149768
H97	H	-0.588494	-1.627512	-1.047936
H98	H	-0.599701	-1.417725	-1.024968
H99	H	-0.502962	-1.315848	-1.103835
H100	H	-0.681630	-1.449136	-0.564368
C101	C	-0.967064	-1.178089	-0.835258
C102	C	-0.955806	-1.062298	-0.823616
C103	C	-1.001229	-0.976625	-0.909203
C104	C	-1.057910	-1.006742	-1.006431
C105	C	-1.069170	-1.122539	-1.018078
C106	C	-1.023747	-1.208212	-0.932491
H107	H	-0.913846	-1.039998	-0.751638
H108	H	-0.992893	-0.890904	-0.900581
H109	H	-1.091535	-0.943322	-1.069788
H110	H	-1.111131	-1.144839	-1.090056
H111	H	-1.032083	-1.293933	-0.941113
C112	C	-0.706984	-1.521676	-0.491916
C113	C	-0.661471	-1.560678	-0.580162
C114	C	-0.570662	-1.584935	-0.555824
C115	C	-0.525367	-1.570190	-0.443240
C116	C	-0.570880	-1.531185	-0.354986
C117	C	-0.661689	-1.506928	-0.379325
H118	H	-0.695001	-1.571596	-0.663511
H119	H	-0.536971	-1.613809	-0.621156
H120	H	-0.458146	-1.588146	-0.425223
H121	H	-0.537350	-1.520268	-0.271638
H122	H	-0.695380	-1.478055	-0.313993
H123	H	-0.805437	-1.616695	-0.397138
C124	C	-0.276965	-1.299369	-1.198164
C125	C	-0.311244	-1.208225	-1.282368
C126	C	-0.255657	-1.149685	-1.327691
C127	C	-0.165790	-1.182289	-1.288809
C128	C	-0.131506	-1.273439	-1.204599
C129	C	-0.187094	-1.331979	-1.159277
H130	H	-0.377773	-1.184085	-1.311155
H131	H	-0.281036	-1.082210	-1.390028
H132	H	-0.124640	-1.138955	-1.322359
H133	H	-0.064977	-1.297579	-1.175812
H134	H	-0.161714	-1.399454	-1.096939
H135	H	-0.929260	-1.650521	-0.363460
H136	H	-1.079033	-1.610552	-0.403486
H137	H	-0.421765	-1.451839	-1.049352
