data_functionalizedCrystal
_audit_creation_method	'MofGen! by Chris Wilmer'
_symmetry_space_group_name_H-M	'P1'
_symmetry_Int_Tables_number	1
_symmetry_cell_setting	triclinic
loop_
_symmetry_equiv_pos_as_xyz
  x,y,z
_cell_length_a	14.519731
_cell_length_b	16.109302
_cell_length_c	14.586319
_cell_angle_alpha	89.994552
_cell_angle_beta	89.998350
_cell_angle_gamma	96.424683
loop_
_atom_site_label
_atom_site_type_symbol
_atom_site_fract_x
_atom_site_fract_y
_atom_site_fract_z
O1	O	-0.118542	1.103344	-0.076270
O2	O	0.381458	1.603344	0.423730
O3	O	-0.133293	0.861308	-0.076262
O4	O	0.366707	1.361308	0.423738
O5	O	0.008333	0.988734	-0.076273
O6	O	0.508333	1.488734	0.423727
O7	O	-0.260168	0.975918	-0.076259
O8	O	0.239832	1.475918	0.423741
O9	O	0.008335	0.988725	0.076208
O10	O	0.508335	1.488725	0.576208
O11	O	-0.133291	0.861300	0.076219
O12	O	0.366709	1.361300	0.576219
O13	O	-0.118540	1.103335	0.076210
O14	O	0.381460	1.603335	0.576210
Cu15	Cu	-0.125915	0.982316	0.090137
Cu16	Cu	0.374085	1.482316	0.590137
Cu17	Cu	-0.125918	0.982327	-0.090189
Cu18	Cu	0.374082	1.482327	0.409811
O19	O	-0.260166	0.975909	0.076222
O20	O	0.239834	1.475909	0.576222
C21	C	-0.132695	0.830328	-0.000020
C22	C	0.367305	1.330328	0.499980
C23	C	-0.130903	0.738030	-0.000018
C24	C	0.369097	1.238030	0.499982
C25	C	-0.126758	0.525676	0.083090
C26	C	0.373242	1.025676	0.583090
C27	C	-0.125065	0.438953	0.083087
C28	C	0.374935	0.938953	0.583087
C29	C	-0.125072	0.438973	-0.083156
C30	C	0.374928	0.938973	0.416844
C31	C	-0.126759	0.525696	-0.083152
C32	C	0.373241	1.025696	0.416848
C33	C	-0.127607	0.569044	-0.000026
C34	C	0.372393	1.069044	0.499974
C35	C	-0.124226	0.395599	-0.000033
C36	C	0.375774	0.895599	0.499967
C37	C	-0.122390	0.301570	-0.000038
C38	C	0.377610	0.801570	0.499962
C39	C	-0.129441	0.663080	-0.000021
C40	C	0.370559	1.163080	0.499979
C41	C	-0.294525	0.976514	-0.000017
C42	C	0.205475	1.476514	0.499983
C43	C	-0.396902	0.978314	-0.000012
C44	C	0.103098	1.478314	0.499988
C45	C	-0.480043	0.979776	-0.000016
C46	C	0.019957	1.479776	0.499984
C47	C	-0.584348	0.981603	-0.000025
C48	C	-0.084348	1.481603	0.499975
C49	C	-0.667484	0.983053	-0.000032
C50	C	-0.167484	1.483053	0.499968
C51	C	-0.771795	0.984880	-0.000039
C52	C	-0.271795	1.484880	0.499961
C53	C	0.042692	0.988129	-0.000036
C54	C	0.542692	1.488129	0.499964
C55	C	0.145069	0.986330	-0.000047
C56	C	0.645069	1.486330	0.499953
C57	C	-0.119139	1.134315	-0.000033
C58	C	0.380861	1.634315	0.499967
C59	C	-0.120930	1.226614	-0.000042
C60	C	0.379070	1.726614	0.499958
N61	N	-0.125913	0.982315	0.216969
N62	N	0.374087	1.482315	0.716969
N63	N	-0.125913	0.982335	-0.217020
N64	N	0.374087	1.482335	0.282980
C65	C	-0.063222	1.038758	0.451971
C66	C	0.436778	1.538758	0.951971
C67	C	-0.063220	1.038760	0.547952
C68	C	0.436780	1.538760	1.047952
C69	C	-0.188607	0.925886	0.547971
C70	C	0.311393	1.425886	1.047971
C71	C	-0.188604	0.925880	0.451992
C72	C	0.311396	1.425880	0.951992
C73	C	-0.125913	0.982321	0.403994
C74	C	0.374087	1.482321	0.903994
C75	C	-0.125913	0.982329	0.595955
C76	C	0.374087	1.482329	1.095955
C77	C	-0.125911	0.982331	0.700022
C78	C	0.374089	1.482331	1.200022
C79	C	-0.125913	0.982318	0.299920
C80	C	0.374087	1.482318	0.799920
H81	H	-0.124374	0.403647	0.150769
H82	H	0.375626	0.903647	0.650769
H83	H	-0.239655	0.879918	0.412926
H84	H	0.260345	1.379918	0.912926
H85	H	-0.124383	0.403668	-0.150834
H86	H	0.375617	0.903668	0.349166
N87	N	-0.127616	0.569989	-0.168066
N88	N	0.372384	1.069989	0.331934
N89	N	-0.126863	0.531277	-0.242278
N90	N	0.373137	1.031277	0.257722
H91	H	-0.127464	0.562559	-0.302247
H92	H	0.372536	1.062559	0.197753
N93	N	0.000832	1.096393	0.596964
N94	N	0.500832	1.596393	1.096964
N95	N	0.058089	1.069917	0.650512
N96	N	0.558089	1.569917	1.150512
H97	H	0.103335	1.110618	0.685124
H98	H	0.603335	1.610618	1.185124
N99	N	-0.252635	0.868241	0.597016
N100	N	0.247365	1.368241	1.097016
N101	N	-0.252630	0.868253	0.682711
N102	N	0.247370	1.368253	1.182711
H103	H	-0.297852	0.827541	0.717349
H104	H	0.202148	1.327541	1.217349
H105	H	-0.012173	1.084714	0.412893
H106	H	0.487827	1.584714	0.912893
H107	H	-0.127449	0.560968	0.150777
H108	H	0.372551	1.060968	0.650777
