data_functionalizedCrystal
_audit_creation_method	'MofGen! by Chris Wilmer'
_symmetry_space_group_name_H-M	'P1'
_symmetry_Int_Tables_number	1
_symmetry_cell_setting	triclinic
loop_
_symmetry_equiv_pos_as_xyz
  x,y,z
_cell_length_a	10.654550
_cell_length_b	10.723024
_cell_length_c	9.130313
_cell_angle_alpha	89.996649
_cell_angle_beta	89.999724
_cell_angle_gamma	84.476400
loop_
_atom_site_label
_atom_site_type_symbol
_atom_site_fract_x
_atom_site_fract_y
_atom_site_fract_z
O1	O	1.667813	0.175275	-0.121686
O2	O	1.302332	0.191974	-0.121712
O3	O	1.493503	0.002049	-0.121693
O4	O	1.476642	0.365199	-0.121705
O5	O	1.493490	0.002044	0.121906
O6	O	1.302319	0.191968	0.121886
O7	O	1.667800	0.175269	0.121913
Cu8	Cu	1.485058	0.183618	0.144142
Cu9	Cu	1.485074	0.183625	-0.143942
O10	O	1.476629	0.365194	0.121894
C11	C	1.255528	0.190745	0.000084
C12	C	1.116085	0.187077	0.000073
C13	C	1.492269	-0.044453	0.000104
C14	C	1.488598	-0.183008	0.000099
C15	C	1.036583	0.298901	0.000074
C16	C	0.905562	0.295447	0.000100
C17	C	0.933560	0.068334	0.000118
C18	C	1.064577	0.071789	0.000103
C19	C	1.595567	-0.257975	0.000105
C20	C	1.591776	-0.401179	0.000099
C21	C	1.714604	0.176498	0.000114
C22	C	1.854047	0.180167	0.000114
C23	C	1.477863	0.411696	0.000093
C24	C	1.481534	0.550251	0.000089
N25	N	1.485056	0.183613	0.346765
N26	N	1.485085	0.183620	-0.346564
C27	C	1.569736	0.099550	0.423425
C28	C	1.569748	0.099550	0.576762
C29	C	1.400397	0.267687	0.576765
C30	C	1.400380	0.267680	0.423431
H31	H	0.840836	0.386506	0.000103
H32	H	1.078515	0.392775	0.000061
H33	H	1.689955	-0.216138	0.000121
H34	H	1.394211	-0.224844	0.000083
H35	H	1.331418	0.336135	0.361009
H36	H	0.891606	-0.025530	0.000151
H37	H	1.129312	-0.019278	0.000107
O38	O	1.652025	0.017763	0.349178
C39	C	1.820042	-0.148961	0.365367
C40	C	1.726899	-0.056419	0.449627
H41	H	1.880620	-0.208944	0.446543
H42	H	1.765345	-0.211894	0.293638
H43	H	1.883179	-0.094484	0.293522
H44	H	1.663740	-0.110794	0.521552
H45	H	1.781674	0.006514	0.521264
O46	O	1.701114	-0.477892	-0.000092
C47	C	1.895331	-0.541741	-0.126330
C48	C	1.771563	-0.454769	-0.126278
H49	H	1.952312	-0.523095	-0.228356
H50	H	1.952482	-0.523058	-0.024450
H51	H	1.872778	-0.643533	-0.126263
H52	H	1.794002	-0.352946	-0.126396
H53	H	1.714448	-0.473560	-0.228149
O54	O	1.372309	-0.372863	-0.000178
C55	C	1.243786	-0.209560	-0.126340
C56	C	1.367514	-0.296592	-0.126237
H57	H	1.239881	-0.147854	-0.228232
H58	H	1.160145	-0.268348	-0.126445
H59	H	1.239773	-0.147985	-0.024346
H60	H	1.371651	-0.358184	-0.228214
H61	H	1.451097	-0.237730	-0.126055
O62	O	1.318029	0.349394	0.651014
C63	C	1.150099	0.516207	0.634831
C64	C	1.243295	0.423719	0.550567
H65	H	1.089671	0.576340	0.553656
H66	H	1.086826	0.461810	0.706595
H67	H	1.204879	0.579002	0.706641
H68	H	1.188618	0.360901	0.478677
H69	H	1.306568	0.478194	0.478895
H70	H	1.638700	0.031097	0.639175
