data_functionalizedCrystal
_audit_creation_method	'MofGen! by Chris Wilmer'
_symmetry_space_group_name_H-M	'P1'
_symmetry_Int_Tables_number	1
_symmetry_cell_setting	triclinic
loop_
_symmetry_equiv_pos_as_xyz
  x,y,z
_cell_length_a	13.033293
_cell_length_b	16.625539
_cell_length_c	13.032721
_cell_angle_alpha	97.153640
_cell_angle_beta	105.184121
_cell_angle_gamma	82.790144
loop_
_atom_site_label
_atom_site_type_symbol
_atom_site_fract_x
_atom_site_fract_y
_atom_site_fract_z
Zn1	Zn	1.570217	-0.631280	-0.216821
Zn2	Zn	1.547533	-0.511623	-0.394466
Zn3	Zn	1.392579	-0.481235	-0.239396
Zn4	Zn	1.369996	-0.631187	-0.416927
O5	O	1.470081	-0.563831	-0.316903
O6	O	1.715850	-0.628163	-0.221539
O7	O	1.526936	-0.394760	-0.373943
O8	O	1.435087	-0.488460	-0.087759
O9	O	1.699185	-0.540252	-0.352054
O10	O	1.565598	-0.598697	-0.071174
O11	O	1.413091	-0.372434	-0.260013
O12	O	1.240941	-0.488370	-0.281793
O13	O	1.396598	-0.744031	-0.390336
O14	O	1.224350	-0.598539	-0.412225
O15	O	1.543700	-0.744099	-0.243319
O16	O	1.505038	-0.540162	-0.546088
O17	O	1.374603	-0.628005	-0.562590
C18	C	1.194104	-0.540147	-0.351897
C19	C	1.076036	-0.530037	-0.366893
C20	C	1.031631	-0.569110	-0.309103
C21	C	0.909602	-0.558661	-0.324601
C22	C	1.470161	-0.774139	-0.316815
C23	C	1.470194	-0.863760	-0.316777
C24	C	1.470258	-1.191930	-0.316652
C25	C	1.470237	-1.100623	-0.316691
C26	C	1.470227	-1.027848	-0.316715
C27	C	1.470205	-0.936535	-0.316752
C28	C	1.747136	-0.587608	-0.281773
C29	C	1.865201	-0.597740	-0.266802
C30	C	1.434937	-0.587391	-0.592877
C31	C	1.419999	-0.597505	-0.710927
C32	C	1.470073	-0.354340	-0.316906
C33	C	1.470284	-0.264712	-0.316618
C34	C	1.477934	-0.558593	-0.755351
C35	C	1.462497	-0.569046	-0.877362
C36	C	1.505392	-0.540199	-0.039847
C37	C	1.520439	-0.530129	0.078217
H38	H	1.023712	-0.488847	-0.427840
H39	H	0.857281	-0.517469	-0.385552
C40	C	0.935130	-0.652662	-0.185618
C41	C	1.042259	-0.652132	-0.186410
C42	C	1.106705	-0.702724	-0.111649
H43	H	0.926211	-0.633374	-0.116458
H44	H	0.915105	-0.706638	-0.203542
H45	H	1.062277	-0.598167	-0.168479
H46	H	1.051211	-0.671427	-0.255551
H47	H	1.086680	-0.756699	-0.129573
H48	H	1.097777	-0.683431	-0.042495
H49	H	1.179398	-0.702376	-0.112184
C50	C	1.381253	-0.623932	-0.947005
C51	C	1.407730	-0.703411	-0.917102
C52	C	1.332925	-0.753995	-0.981243
H53	H	1.312116	-0.604536	-0.938058
H54	H	1.381702	-0.623739	-1.019753
H55	H	1.407271	-0.703601	-0.844372
H56	H	1.476855	-0.722831	-0.926053
H57	H	1.333373	-0.753802	-1.053991
H58	H	1.263791	-0.734592	-0.972291
H59	H	1.350884	-0.807928	-0.960969
C60	C	1.559141	-0.503732	-0.685596
C61	C	1.507017	-0.441438	-0.629660
C62	C	1.581789	-0.390877	-0.565405
H63	H	1.610876	-0.534788	-0.636302
H64	H	1.593473	-0.480621	-0.729256
H65	H	1.472702	-0.464548	-0.586004
H66	H	1.455287	-0.410362	-0.678928
H67	H	1.616121	-0.367766	-0.609064
H68	H	1.633520	-0.421940	-0.516117
H69	H	1.546432	-0.348601	-0.527452
C70	C	1.338761	-0.652389	-0.780574
C71	C	1.365238	-0.731867	-0.750670
C72	C	1.290432	-0.782452	-0.814811
H73	H	1.269623	-0.632993	-0.771627
H74	H	1.339209	-0.652196	-0.853322
H75	H	1.364778	-0.732058	-0.677940
H76	H	1.434363	-0.751288	-0.759622
H77	H	1.290880	-0.782259	-0.887559
H78	H	1.221299	-0.763048	-0.805859
H79	H	1.308391	-0.836385	-0.794537
C80	C	1.601652	-0.475263	-0.852037
C81	C	1.549531	-0.412966	-0.796102
C82	C	1.624305	-0.362403	-0.731855
H83	H	1.653390	-0.506317	-0.802743
H84	H	1.635980	-0.452154	-0.895703
H85	H	1.515220	-0.436074	-0.752440
H86	H	1.497798	-0.381892	-0.845370
H87	H	1.658633	-0.339294	-0.775520
H88	H	1.676040	-0.393464	-0.682566
H89	H	1.588951	-0.320125	-0.693902
H90	H	1.083956	-0.610295	-0.248149
