data_functionalizedCrystal
_audit_creation_method	'MofGen! by Chris Wilmer'
_symmetry_space_group_name_H-M	'P1'
_symmetry_Int_Tables_number	1
_symmetry_cell_setting	triclinic
loop_
_symmetry_equiv_pos_as_xyz
  x,y,z
_cell_length_a	15.995292
_cell_length_b	15.995350
_cell_length_c	14.472310
_cell_angle_alpha	90.001162
_cell_angle_beta	89.985801
_cell_angle_gamma	83.480495
loop_
_atom_site_label
_atom_site_type_symbol
_atom_site_fract_x
_atom_site_fract_y
_atom_site_fract_z
O1	O	1.111027	0.107689	-0.076861
O2	O	0.867245	0.121067	-0.076857
O3	O	0.995800	-0.007511	-0.076858
O4	O	0.982472	0.236267	-0.076860
O5	O	0.995767	-0.007503	0.076824
O6	O	0.867212	0.121075	0.076825
O7	O	1.110994	0.107696	0.076821
Cu8	Cu	0.989100	0.114386	0.090855
Cu9	Cu	0.989139	0.114378	-0.090892
O10	O	0.982439	0.236275	0.076822
C11	C	0.836033	0.120527	-0.000016
C12	C	0.743080	0.118894	-0.000014
C13	C	0.995232	-0.038702	-0.000019
C14	C	0.993580	-0.131652	-0.000024
C15	C	0.405341	0.112893	-0.000025
C16	C	0.428654	0.205697	-0.000368
C17	C	0.525329	0.207461	-0.000018
C18	C	0.572897	0.115871	-0.000020
C19	C	0.543777	0.069477	0.087737
C20	C	0.446986	0.068360	0.087807
C21	C	0.447168	0.066457	-0.086958
C22	C	0.543661	0.069896	-0.088114
C23	C	0.667593	0.117549	-0.000014
C24	C	0.310646	0.111212	-0.000024
C25	C	0.987648	-0.469398	-0.000021
C26	C	0.896094	-0.421945	-0.000364
C27	C	0.897746	-0.325255	-0.000018
C28	C	0.990591	-0.301838	-0.000023
C29	C	1.035730	-0.342921	0.087734
C30	C	1.033430	-0.439556	0.087808
C31	C	1.035359	-0.439923	-0.086958
C32	C	1.035337	-0.342978	-0.088117
C33	C	0.992259	-0.207141	-0.000021
C34	C	0.985983	-0.564095	-0.000017
C35	C	1.142206	0.108237	-0.000023
C36	C	1.235159	0.109870	-0.000030
C37	C	0.983006	0.267466	-0.000019
C38	C	0.984658	0.360416	-0.000020
N39	N	0.989078	0.114392	0.218686
N40	N	0.989167	0.114365	-0.218722
C41	C	0.989138	0.114374	0.592777
C42	C	0.920120	0.182943	0.553612
C43	C	0.920279	0.183193	0.446524
C44	C	0.989108	0.114383	0.407186
C45	C	1.076475	0.133447	0.446022
C46	C	1.076087	0.133934	0.553143
C47	C	0.971568	0.026538	0.553308
C48	C	0.969564	0.027124	0.446180
C49	C	0.989096	0.114386	0.302298
C50	C	0.989155	0.114373	0.697665
H51	H	0.544369	0.243790	-0.062928
H52	H	0.418855	0.095461	-0.153473
H53	H	1.002335	-0.315725	-0.153038
Cl54	Cl	1.139873	-0.319279	-0.096311
H55	H	0.562245	0.103675	-0.153037
Cl56	Cl	0.937211	0.283018	0.595136
Cl57	Cl	0.842549	-0.282211	0.097273
Cl58	Cl	0.870339	0.004783	0.406995
Cl59	Cl	0.385451	0.260926	-0.097535
Cl60	Cl	1.137204	-0.489370	0.093963
Cl61	Cl	1.049274	-0.052243	0.592409
H62	H	1.016569	-0.026291	0.419406
Cl63	Cl	0.989157	-0.471617	-0.189653
H64	H	1.103940	-0.328809	0.090994
Cl65	Cl	0.574720	0.119227	0.188574
H66	H	1.091569	0.197992	0.578118
Cl67	Cl	0.383831	0.260628	0.096249
H68	H	0.862262	-0.296829	-0.062926
Cl69	Cl	0.592967	-0.034584	0.092773
Cl70	Cl	0.553729	0.263899	0.097277
H71	H	1.102861	-0.471698	-0.087551
H72	H	0.855338	0.171838	0.420269
H73	H	0.854968	0.171775	0.579401
H74	H	0.576632	0.003044	-0.093416
H75	H	0.931499	0.248375	0.420889
Cl76	Cl	0.982563	-0.467800	0.189091
Cl77	Cl	0.425569	-0.039010	-0.087875
Cl78	Cl	0.839612	-0.450547	-0.097528
H79	H	0.859649	-0.441528	0.062219
Cl80	Cl	0.987285	-0.299092	0.188571
H81	H	0.420155	0.100497	0.153408
Cl82	Cl	1.157666	0.058390	0.406682
Cl83	Cl	1.157685	0.059677	0.593144
Cl84	Cl	0.424515	-0.036689	0.094014
Cl85	Cl	1.100954	0.231219	0.404590
H86	H	0.909244	0.008203	0.580376
