data_functionalizedCrystal
_audit_creation_method	'MofGen! by Chris Wilmer'
_symmetry_space_group_name_H-M	'P1'
_symmetry_Int_Tables_number	1
_symmetry_cell_setting	triclinic
loop_
_symmetry_equiv_pos_as_xyz
  x,y,z
_cell_length_a	17.077404
_cell_length_b	25.639239
_cell_length_c	25.639233
_cell_angle_alpha	89.981253
_cell_angle_beta	89.986697
_cell_angle_gamma	90.038911
loop_
_atom_site_label
_atom_site_type_symbol
_atom_site_fract_x
_atom_site_fract_y
_atom_site_fract_z
Zn1	Zn	1.199920	-0.208211	-0.295619
Zn2	Zn	1.533254	0.125122	0.037715
Zn3	Zn	1.866587	0.458455	0.371048
Zn4	Zn	1.199805	-0.295630	-0.208183
Zn5	Zn	1.533139	0.037703	0.125150
Zn6	Zn	1.866472	0.371037	0.458484
Zn7	Zn	1.068666	-0.208211	-0.208196
Zn8	Zn	1.402000	0.125123	0.125137
Zn9	Zn	1.735333	0.458456	0.458470
Zn10	Zn	1.068584	-0.295618	-0.295586
Zn11	Zn	1.401917	0.037715	0.037747
Zn12	Zn	1.735251	0.371049	0.371080
O13	O	1.134244	-0.251918	-0.251896
O14	O	1.467577	0.081416	0.081437
O15	O	1.800911	0.414749	0.414771
O16	O	1.309752	-0.219813	-0.284028
O17	O	1.643085	0.113520	0.049305
O18	O	1.976419	0.446854	0.382639
O19	O	1.182396	-0.284039	-0.135020
O20	O	1.515729	0.049295	0.198314
O21	O	1.849063	0.382628	0.531647
O22	O	1.086160	-0.135046	-0.219812
O23	O	1.419493	0.198288	0.113521
O24	O	1.752827	0.531621	0.446855
O25	O	1.309668	-0.284039	-0.219789
O26	O	1.643001	0.049294	0.113544
O27	O	1.976334	0.382628	0.446877
O28	O	1.182592	-0.135046	-0.284041
O29	O	1.515925	0.198287	0.049292
O30	O	1.849258	0.531621	0.382626
O31	O	1.086049	-0.219812	-0.135029
O32	O	1.419382	0.113521	0.198304
O33	O	1.752715	0.446855	0.531637
O34	O	0.958809	-0.219800	-0.219781
O35	O	1.292142	0.113533	0.113553
O36	O	1.625475	0.446866	0.446886
O37	O	1.086020	-0.284018	-0.368756
O38	O	1.419353	0.049315	-0.035423
O39	O	1.752686	0.382648	0.297911
O40	O	0.958748	-0.284018	-0.283986
O41	O	1.292081	0.049316	0.049347
O42	O	1.625415	0.382649	0.382681
O43	O	1.182512	-0.219801	-0.368780
O44	O	1.515845	0.113532	-0.035446
O45	O	1.849179	0.446866	0.297887
O46	O	1.182316	-0.368794	-0.219758
O47	O	1.515649	-0.035460	0.113575
O48	O	1.848983	0.297873	0.446908
O49	O	1.085908	-0.368785	-0.283973
O50	O	1.419242	-0.035451	0.049360
O51	O	1.752575	0.297882	0.382694
C52	C	0.930296	-0.251908	-0.251882
C53	C	1.263630	0.081425	0.081452
C54	C	1.596963	0.414759	0.414785
C55	C	0.843046	-0.251917	-0.251888
C56	C	1.176380	0.081417	0.081445
C57	C	1.509713	0.414750	0.414779
C58	C	0.802045	-0.285405	-0.285266
C59	C	1.135379	0.047928	0.048067
C60	C	1.468712	0.381262	0.381401
C61	C	0.720065	-0.285406	-0.285274
C62	C	1.053398	0.047927	0.048059
C63	C	1.386731	0.381260	0.381392
C64	C	0.679087	-0.251921	-0.251902
C65	C	1.012420	0.081412	0.081432
C66	C	1.345754	0.414746	0.414765
C67	C	0.720094	-0.218429	-0.218522
C68	C	1.053427	0.114904	0.114811
C69	C	1.386761	0.448238	0.448145
C70	C	0.802073	-0.218425	-0.218517
C71	C	1.135406	0.114908	0.114817
C72	C	1.468740	0.448241	0.448150
C73	C	0.549224	-0.218439	-0.218535
C74	C	0.882557	0.114894	0.114799
C75	C	1.215891	0.448227	0.448132
C76	C	0.467239	-0.218443	-0.218539
C77	C	0.800573	0.114890	0.114794
C78	C	1.133906	0.448224	0.448128
C79	C	0.467216	-0.285420	-0.285292
C80	C	0.800549	0.047913	0.048041
C81	C	1.133882	0.381247	0.381375
C82	C	0.549195	-0.285417	-0.285287
C83	C	0.882528	0.047917	0.048047
C84	C	1.215861	0.381250	0.381380
C85	C	0.590196	-0.251925	-0.251906
C86	C	0.923529	0.081408	0.081427
C87	C	1.256863	0.414742	0.414760
C88	C	1.134112	-0.387760	-0.251872
C89	C	1.467445	-0.054427	0.081461
C90	C	1.800779	0.278907	0.414795
C91	C	1.134127	-0.445874	-0.251879
C92	C	1.467461	-0.112541	0.081454
C93	C	1.800794	0.220793	0.414787
C94	C	1.184575	-0.806229	-0.218516
C95	C	1.517908	-0.472896	0.114817
C96	C	1.851241	-0.139563	0.448150
C97	C	1.184605	-0.860834	-0.218523
C98	C	1.517938	-0.527500	0.114810
C99	C	1.851272	-0.194167	0.448143
O100	O	1.227360	-0.889064	-0.190131
O101	O	1.560693	-0.555730	0.143203
O102	O	1.894027	-0.222397	0.476536
N103	N	1.134382	-0.888157	-0.251931
N104	N	1.467715	-0.554823	0.081403
N105	N	1.801049	-0.221490	0.414736
C106	C	1.084131	-0.860872	-0.285337
C107	C	1.417464	-0.527539	0.047996
C108	C	1.750798	-0.194206	0.381330
O109	O	1.041416	-0.889127	-0.313754
O110	O	1.374749	-0.555793	0.019580
O111	O	1.708082	-0.222460	0.352913
C112	C	1.084105	-0.806269	-0.285332
C113	C	1.417438	-0.472936	0.048001
C114	C	1.750772	-0.139602	0.381334
C115	C	1.134326	-0.778949	-0.251919
C116	C	1.467659	-0.445616	0.081414
C117	C	1.800992	-0.112282	0.414748
C118	C	1.234792	-0.778909	-0.185106
C119	C	1.568125	-0.445576	0.148227
C120	C	1.901458	-0.112242	0.481561
C121	C	1.234760	-0.724309	-0.185099
C122	C	1.568093	-0.390975	0.148235
C123	C	1.901427	-0.057642	0.481568
C124	C	1.184511	-0.697028	-0.218501
C125	C	1.517845	-0.363695	0.114832
C126	C	1.851178	-0.030362	0.448165
C127	C	1.134294	-0.724348	-0.251911
C128	C	1.467627	-0.391015	0.081422
C129	C	1.800961	-0.057682	0.414755
C130	C	1.033859	-0.778986	-0.318741
C131	C	1.367192	-0.445653	0.014592
C132	C	1.700525	-0.112319	0.347926
C133	C	1.033837	-0.724379	-0.318734
C134	C	1.367171	-0.391046	0.014600
C135	C	1.700504	-0.057712	0.347933
C136	C	1.084058	-0.697059	-0.285320
C137	C	1.417391	-0.363725	0.048013
C138	C	1.750725	-0.030392	0.381346
C139	C	1.084014	-0.642468	-0.285306
C140	C	1.417347	-0.309134	0.048027
C141	C	1.750680	0.024199	0.381360
N142	N	1.134237	-0.615145	-0.251899
N143	N	1.467570	-0.281811	0.081434
N144	N	1.800903	0.051522	0.414768
C145	C	1.184485	-0.642425	-0.218496
C146	C	1.517819	-0.309092	0.114837
C147	C	1.851152	0.024242	0.448170
C148	C	1.084190	-0.975543	-0.285345
C149	C	1.417523	-0.642210	0.047988
C150	C	1.750857	-0.308876	0.381322
C151	C	1.084211	-1.030145	-0.285348
C152	C	1.417545	-0.696812	0.047986
C153	C	1.750878	-0.363479	0.381319
C154	C	1.184687	-1.030103	-0.218534
C155	C	1.518020	-0.696769	0.114799
C156	C	1.851353	-0.363436	0.448132
C157	C	1.184661	-0.975499	-0.218530
C158	C	1.517994	-0.642166	0.114804
C159	C	1.851328	-0.308833	0.448137
C160	C	1.134413	-0.948220	-0.251938
C161	C	1.467746	-0.614887	0.081396
C162	C	1.801080	-0.281553	0.414729
C163	C	1.184415	-0.527760	-0.218483
C164	C	1.517748	-0.194426	0.114851
C165	C	1.851081	0.138907	0.448184
C166	C	1.184376	-0.473154	-0.218477
C167	C	1.517710	-0.139821	0.114857
C168	C	1.851043	0.193512	0.448190
C169	C	1.083904	-0.473202	-0.285292
C170	C	1.417238	-0.139869	0.048042
C171	C	1.750571	0.193465	0.381375
C172	C	1.083939	-0.527802	-0.285296
C173	C	1.417273	-0.194469	0.048037
C174	C	1.750606	0.138864	0.381371
C175	C	1.134201	-0.555080	-0.251890
C176	C	1.467534	-0.221747	0.081443
C177	C	1.800868	0.111587	0.414777
O178	O	1.041283	-0.614203	-0.313686
O179	O	1.374616	-0.280870	0.019647
O180	O	1.707949	0.052464	0.352980
O181	O	1.227201	-0.614164	-0.190090
O182	O	1.560534	-0.280831	0.143244
O183	O	1.893867	0.052503	0.476577
C184	C	1.338988	-0.251927	-0.251911
C185	C	1.672322	0.081406	0.081422
C186	C	2.005655	0.414739	0.414756
C187	C	1.426238	-0.251932	-0.251917
C188	C	1.759571	0.081402	0.081416
C189	C	2.092905	0.414735	0.414750
C190	C	1.134269	-0.251908	-0.388269
C191	C	1.467603	0.081425	-0.054936
C192	C	1.800936	0.414758	0.278398
C193	C	1.134280	-0.251904	-0.446383
C194	C	1.467614	0.081429	-0.113050
C195	C	1.800947	0.414762	0.220284
C196	C	1.134398	-0.115544	-0.251932
C197	C	1.467731	0.217789	0.081402
C198	C	1.801065	0.551122	0.414735
C199	C	1.134464	-0.057430	-0.251947
C200	C	1.467797	0.275903	0.081387
C201	C	1.801130	0.609236	0.414720
C202	C	1.184587	-0.218367	-0.806764
C203	C	1.517921	0.114966	-0.473431
C204	C	1.851254	0.448300	-0.140098
C205	C	1.184597	-0.218353	-0.861369
C206	C	1.517930	0.114981	-0.528035
C207	C	1.851264	0.448314	-0.194702
O208	O	1.227307	-0.189900	-0.889621
O209	O	1.560640	0.143434	-0.556287
O210	O	1.893973	0.476767	-0.222954
N211	N	1.134367	-0.251782	-0.888666
N212	N	1.467700	0.081551	-0.555333
N213	N	1.801033	0.414885	-0.221999
C214	C	1.084118	-0.285224	-0.861356
C215	C	1.417451	0.048109	-0.528023
C216	C	1.750784	0.381443	-0.194689
O217	O	1.041393	-0.313656	-0.889588
O218	O	1.374727	0.019677	-0.556255
O219	O	1.708060	0.353010	-0.222922
C220	C	1.084105	-0.285235	-0.806753
C221	C	1.417438	0.048098	-0.473419
C222	C	1.750771	0.381431	-0.140086
C223	C	1.134344	-0.251808	-0.779458
C224	C	1.467677	0.081526	-0.446125
C225	C	1.801011	0.414859	-0.112792
C226	C	1.234822	-0.184942	-0.779470
C227	C	1.568155	0.148391	-0.446137
C228	C	1.901489	0.481725	-0.112803
C229	C	1.234813	-0.184957	-0.724869
C230	C	1.568146	0.148376	-0.391536
C231	C	1.901480	0.481709	-0.058203
C232	C	1.184570	-0.218398	-0.697563
C233	C	1.517903	0.114936	-0.364230
C234	C	1.851236	0.448269	-0.030897
C235	C	1.134335	-0.251823	-0.724858
C236	C	1.467668	0.081510	-0.391524
C237	C	1.801002	0.414844	-0.058191
C238	C	1.033852	-0.318674	-0.779443
C239	C	1.367186	0.014659	-0.446110
C240	C	1.700519	0.347992	-0.112777
C241	C	1.033843	-0.318683	-0.724836
C242	C	1.367176	0.014651	-0.391503
C243	C	1.700510	0.347984	-0.058170
C244	C	1.084082	-0.285255	-0.697542
C245	C	1.417416	0.048078	-0.364209
C246	C	1.750749	0.381412	-0.030875
C247	C	1.084083	-0.285279	-0.642951
C248	C	1.417416	0.048054	-0.309618
C249	C	1.750749	0.381388	0.023716
N250	N	1.134313	-0.251850	-0.615654
N251	N	1.467646	0.081484	-0.282320
N252	N	1.800980	0.414817	0.051013
C253	C	1.184557	-0.218409	-0.642960
C254	C	1.517890	0.114924	-0.309627
C255	C	1.851223	0.448258	0.023707
C256	C	1.084148	-0.285197	-0.976027
C257	C	1.417481	0.048137	-0.642693
C258	C	1.750815	0.381470	-0.309360
C259	C	1.084164	-0.285188	-1.030629
C260	C	1.417498	0.048145	-0.697296
C261	C	1.750831	0.381478	-0.363962
C262	C	1.184643	-0.218316	-1.030638
C263	C	1.517976	0.115017	-0.697305
C264	C	1.851310	0.448350	-0.363971
C265	C	1.184630	-0.218328	-0.976035
C266	C	1.517963	0.115006	-0.642701
C267	C	1.851297	0.448339	-0.309368
C268	C	1.134378	-0.251768	-0.948729
C269	C	1.467712	0.081566	-0.615396
C270	C	1.801045	0.414899	-0.282063
C271	C	1.184535	-0.218444	-0.528295
C272	C	1.517868	0.114889	-0.194961
C273	C	1.851201	0.448223	0.138372
C274	C	1.184524	-0.218464	-0.473689
C275	C	1.517857	0.114869	-0.140356
C276	C	1.851190	0.448203	0.192977
C277	C	1.084043	-0.285334	-0.473685
C278	C	1.417376	0.048000	-0.140352
C279	C	1.750709	0.381333	0.192982
C280	C	1.084056	-0.285316	-0.528286
C281	C	1.417389	0.048017	-0.194952
C282	C	1.750723	0.381351	0.138381
C283	C	1.134305	-0.251867	-0.555589
C284	C	1.467638	0.081466	-0.222256
C285	C	1.800971	0.414800	0.111077
O286	O	1.041393	-0.313716	-0.614664
O287	O	1.374726	0.019618	-0.281331
O288	O	1.708059	0.352951	0.052003
O289	O	1.227267	-0.189977	-0.614721
O290	O	1.560600	0.143357	-0.281388
O291	O	1.893933	0.476690	0.051946
C292	C	1.134264	-0.251889	-0.116054
C293	C	1.467597	0.081444	0.217280
C294	C	1.800931	0.414778	0.550613
C295	C	1.134405	-0.251746	-0.057940
C296	C	1.467739	0.081588	0.275394
C297	C	1.801072	0.414921	0.608727
H298	H	0.433829	-0.312689	-0.312473
H299	H	0.767162	0.020645	0.020860
H300	H	1.100495	0.353978	0.354194
H301	H	0.992913	-0.345908	-0.702607
H302	H	1.326246	-0.012575	-0.369274
H303	H	1.659580	0.320758	-0.035941
H304	H	1.043048	-0.550048	-0.312505
H305	H	1.376381	-0.216714	0.020828
H306	H	1.709715	0.116619	0.354161
H307	H	1.043155	-0.312540	-0.550510
H308	H	1.376488	0.020793	-0.217177
H309	H	1.709821	0.354126	0.116157
H310	H	1.275736	-0.157708	-0.801697
H311	H	1.609070	0.175626	-0.468364
H312	H	1.942403	0.508959	-0.135030
Cl313	Cl	1.020742	-0.438896	-0.327284
Cl314	Cl	1.354075	-0.105563	0.006049
Cl315	Cl	1.687408	0.227770	0.339383
H316	H	0.686685	-0.312676	-0.312453
H317	H	1.020019	0.020657	0.020880
H318	H	1.353352	0.353990	0.354213
H319	H	0.686723	-0.191162	-0.191352
H320	H	1.020057	0.142171	0.141982
H321	H	1.353390	0.475504	0.475315
H322	H	0.433877	-0.191170	-0.191370
H323	H	0.767211	0.142163	0.141963
H324	H	1.100544	0.475496	0.475296
H325	H	1.225272	-0.450912	-0.191266
H326	H	1.558605	-0.117579	0.142068
H327	H	1.891938	0.215755	0.475401
Cl328	Cl	1.020974	-0.327244	-0.941705
Cl329	Cl	1.354308	0.006089	-0.608372
Cl330	Cl	1.687641	0.339423	-0.275039
Cl331	Cl	1.247688	-0.176438	-0.439380
Cl332	Cl	1.581021	0.156895	-0.106047
Cl333	Cl	1.914354	0.490228	0.227287
H334	H	1.225344	-0.549963	-0.191282
H335	H	1.558677	-0.216629	0.142052
H336	H	1.892011	0.116704	0.475385
H337	H	0.582605	-0.191162	-0.191357
H338	H	0.915938	0.142171	0.141976
H339	H	1.249271	0.475505	0.475309
H340	H	1.043309	-1.052385	-0.312551
H341	H	1.376643	-0.719051	0.020782
H342	H	1.709976	-0.385718	0.354116
H343	H	0.835455	-0.191153	-0.191340
H344	H	1.168788	0.142180	0.141994
H345	H	1.502122	0.475514	0.475327
Cl346	Cl	1.297910	-0.689971	-0.143099
Cl347	Cl	1.631244	-0.356638	0.190234
Cl348	Cl	1.964577	-0.023305	0.523568
H349	H	1.043266	-0.953335	-0.312548
H350	H	1.376599	-0.620001	0.020785
H351	H	1.709932	-0.286668	0.354118
H352	H	0.992942	-0.345895	-0.801657
H353	H	1.326275	-0.012561	-0.468324
H354	H	1.659608	0.320772	-0.134991
H355	H	1.043138	-0.312562	-0.451442
H356	H	1.376471	0.020772	-0.118109
H357	H	1.709805	0.354105	0.215224
Cl358	Cl	1.247799	-0.941160	-0.176524
Cl359	Cl	1.581132	-0.607826	0.156810
Cl360	Cl	1.914465	-0.274493	0.490143
Cl361	Cl	0.853552	-0.327506	-0.327220
Cl362	Cl	1.186885	0.005828	0.006113
Cl363	Cl	1.520219	0.339161	0.339447
H364	H	1.225552	-0.191086	-1.052881
H365	H	1.558886	0.142247	-0.719547
H366	H	1.892219	0.475581	-0.386214
H367	H	0.582557	-0.312686	-0.312459
H368	H	0.915890	0.020647	0.020874
H369	H	1.249223	0.353981	0.354208
H370	H	1.275715	-0.801115	-0.157906
H371	H	1.609048	-0.467782	0.175428
H372	H	1.942381	-0.134448	0.508761
H373	H	1.225605	-1.052324	-0.191338
H374	H	1.558938	-0.718991	0.141995
H375	H	1.892272	-0.385658	0.475329
Cl376	Cl	0.970729	-0.813318	-0.360755
Cl377	Cl	1.304062	-0.479985	-0.027422
Cl378	Cl	1.637395	-0.146651	0.305911
H379	H	0.992920	-0.702171	-0.345940
H380	H	1.326254	-0.368837	-0.012607
H381	H	1.659587	-0.035504	0.320727
Cl382	Cl	1.247702	-0.176391	-0.562611
Cl383	Cl	1.581035	0.156942	-0.229277
Cl384	Cl	1.914369	0.490276	0.104056
H385	H	1.043263	-0.312414	-1.052847
H386	H	1.376596	0.020919	-0.719514
H387	H	1.709930	0.354253	-0.386181
Cl388	Cl	1.297969	-0.142928	-0.690565
Cl389	Cl	1.631302	0.190406	-0.357231
Cl390	Cl	1.964636	0.523739	-0.023898
H391	H	1.225538	-0.191107	-0.953815
H392	H	1.558871	0.142226	-0.620482
H393	H	1.892205	0.475560	-0.287148
