data_functionalizedCrystal
_audit_creation_method	'MofGen! by Chris Wilmer'
_symmetry_space_group_name_H-M	'P1'
_symmetry_Int_Tables_number	1
_symmetry_cell_setting	triclinic
loop_
_symmetry_equiv_pos_as_xyz
  x,y,z
_cell_length_a	23.096457
_cell_length_b	21.606444
_cell_length_c	21.606444
_cell_angle_alpha	60.001331
_cell_angle_beta	90.000061
_cell_angle_gamma	59.998565
loop_
_atom_site_label
_atom_site_type_symbol
_atom_site_fract_x
_atom_site_fract_y
_atom_site_fract_z
Zr1	Zr	0.557754	0.677461	-0.081223
O2	O	0.465300	0.806582	-0.180042
O3	O	0.586097	0.548342	-0.050932
O4	O	0.586090	0.677466	-0.180051
O5	O	0.465312	0.677454	0.050931
O6	O	0.681370	0.677468	-0.180054
O7	O	0.465307	0.677458	-0.050923
O8	O	0.681383	0.446488	0.050915
O9	O	0.465299	0.908433	-0.180038
O10	O	0.669291	0.601451	-0.038013
O11	O	0.598188	0.601447	0.038002
O12	O	0.598179	0.753473	-0.114018
O13	O	0.527076	0.753469	-0.038002
Zr14	Zr	0.709723	0.677457	0.081217
Zr15	Zr	0.709715	0.677464	-0.081229
Zr16	Zr	0.557762	0.677454	0.081223
Zr17	Zr	0.557753	0.839901	-0.081217
Zr18	Zr	0.709725	0.515017	0.081212
O19	O	0.681380	0.806576	0.050927
O20	O	0.681369	0.806586	-0.180050
O21	O	0.465311	0.806572	0.050935
O22	O	0.802177	0.548336	0.180036
O23	O	0.802167	0.548346	-0.050941
O24	O	0.586108	0.548332	0.180044
O25	O	0.802165	0.677464	-0.050936
O26	O	0.681387	0.677452	0.180045
O27	O	0.586107	0.677450	0.180049
O28	O	0.802170	0.677460	0.050918
O29	O	0.586088	0.908435	-0.180043
O30	O	0.681390	0.446483	0.180037
O31	O	0.802178	0.446485	0.180033
O32	O	0.802172	0.446491	0.050910
O33	O	0.465305	0.908427	-0.050916
O34	O	0.586094	0.908429	-0.050921
O35	O	0.669298	0.601445	0.114012
O36	O	0.740401	0.601449	0.037997
O37	O	0.669289	0.753471	-0.038008
O38	O	0.598186	0.753467	0.038007
C39	C	0.633741	0.474271	-0.000009
C40	C	0.633741	0.405311	-0.000012
C41	C	0.670855	0.372916	-0.039692
C42	C	0.670857	0.308116	-0.039687
C43	C	0.633742	0.275716	-0.000005
C44	C	0.596627	0.308114	0.039680
C45	C	0.596629	0.372909	0.039679
C46	C	0.596619	0.046805	0.039686
C47	C	0.596618	-0.017992	0.039682
C48	C	0.670847	-0.017988	-0.039679
C49	C	0.670849	0.046806	-0.039681
C50	C	0.633738	0.079195	0.000008
C51	C	0.633736	0.149458	0.000003
C52	C	0.633738	0.205460	-0.000005
C53	C	0.443658	0.677456	0.000005
C54	C	0.379147	0.677454	0.000007
C55	C	0.385961	0.598103	0.039674
C56	C	0.325345	0.598101	0.039677
C57	C	0.257916	0.677456	-0.000001
C58	C	0.251105	0.756819	-0.039669
C59	C	0.311720	0.756818	-0.039665
N60	N	0.135117	0.736526	-0.064577
N61	N	0.077537	0.736522	-0.064580
C62	C	0.075283	0.677464	-0.000015
N63	N	0.132790	0.618398	0.064552
N64	N	0.190376	0.618400	0.064553
C65	C	0.192185	0.677466	-0.000010
C66	C	0.016374	0.598106	0.039659
C67	C	-0.044244	0.598108	0.039665
C68	C	-0.118485	0.756827	-0.039689
C69	C	-0.057867	0.756823	-0.039687
C70	C	0.009560	0.677460	-0.000015
C71	C	0.823819	0.677462	-0.000010
C72	C	0.888330	0.677464	-0.000013
C73	C	0.633729	0.677468	-0.203197
C74	C	0.633726	0.677471	-0.272160
C75	C	0.633737	0.880647	0.000004
C76	C	0.633736	0.949607	0.000006
C77	C	0.596606	0.756824	-0.344232
C78	C	0.596612	0.756822	-0.409027
C79	C	0.633734	0.677465	-0.401748
C80	C	0.670859	0.598105	-0.329668
C81	C	0.670856	0.598109	-0.264875
C82	C	0.670870	0.598090	-0.590971
C83	C	0.670868	0.598093	-0.655772
C84	C	0.596625	0.756803	-0.735123
C85	C	0.596623	0.756806	-0.670330
C86	C	0.633750	0.677447	-0.598256
C87	C	0.633744	0.677451	-0.527999
C88	C	0.633736	0.677460	-0.472004
C89	C	0.633748	0.677450	0.203192
C90	C	0.633751	0.677447	0.272154
C91	C	0.823821	0.474274	-0.000017
C92	C	0.888333	0.405315	-0.000022
C93	C	0.633750	0.474262	0.203185
C94	C	0.633754	0.405299	0.272145
C95	C	0.823831	0.474266	0.203178
C96	C	0.888346	0.405304	0.272135
C97	C	0.443647	0.880652	-0.203183
C98	C	0.379131	0.949614	-0.272141
C99	C	0.443656	0.880644	0.000011
C100	C	0.379144	0.949603	0.000016
C101	C	0.633727	0.880656	-0.203191
C102	C	0.633723	0.949619	-0.272151
C103	C	0.881510	0.372933	-0.039707
C104	C	0.942120	0.308147	-0.039727
C105	C	1.009553	0.275741	-0.000056
C106	C	1.016375	0.308131	0.039631
C107	C	0.955765	0.372919	0.039645
C108	C	0.670875	0.372912	0.344213
C109	C	0.670876	0.308123	0.409015
C110	C	0.633760	0.275718	0.401747
C111	C	0.596635	0.308111	0.329672
C112	C	0.596630	0.372903	0.264872
C113	C	0.955765	0.372921	0.264839
C114	C	1.016390	0.308133	0.329626
C115	C	1.009594	0.275724	0.401708
C116	C	0.942169	0.308114	0.409003
C117	C	0.881545	0.372905	0.344217
C118	C	0.311713	0.982005	-0.264845
C119	C	0.251088	1.046813	-0.329632
C120	C	0.257883	1.079225	-0.401714
C121	C	0.325308	1.046832	-0.409008
C122	C	0.385932	0.982029	-0.344222
C123	C	0.385967	0.981992	0.039695
C124	C	0.325357	1.046795	0.039696
C125	C	0.257924	1.079203	0.000023
C126	C	0.251102	1.046811	-0.039660
C127	C	0.311712	0.982013	-0.039666
C128	C	0.670846	0.982004	-0.264859
C129	C	0.670856	1.046793	-0.329648
C130	C	0.633739	1.079201	-0.401729
C131	C	0.596614	1.046810	-0.409019
C132	C	0.596609	0.982017	-0.344231
H133	H	0.701078	0.281739	-0.071997
H134	H	0.330894	0.533482	0.071979
C135	C	-0.065357	0.844108	-0.083135
H136	H	-0.019600	0.832742	-0.077388
H137	H	-0.090557	0.876892	-0.135364
H138	H	-0.090528	0.876536	-0.063388
C139	C	0.555782	1.082472	-0.488309
H140	H	0.561099	1.125705	-0.525845
H141	H	0.574101	1.035970	-0.494012
H142	H	0.506944	1.107763	-0.493993
C143	C	0.711680	0.946361	-0.185578
H144	H	0.706361	0.903138	-0.148029
H145	H	0.760513	0.921081	-0.179898
H146	H	0.693350	0.992881	-0.179892
C147	C	0.090544	0.510814	0.083301
H148	H	0.125670	0.522178	0.077614
H149	H	0.095864	0.478206	0.135501
H150	H	0.095860	0.478212	0.063700
H151	H	0.701110	0.281756	0.467695
C152	C	0.963250	0.408564	0.185556
H153	H	0.917493	0.451786	0.148009
H154	H	0.988431	0.433846	0.179873
H155	H	0.988439	0.362045	0.179871
H156	H	0.306166	0.821437	-0.071965
H157	H	0.566411	0.281725	0.071993
H158	H	0.826608	0.399317	-0.072021
H159	H	0.196191	1.073208	-0.071961
C160	C	0.711685	0.510820	-0.185595
H161	H	0.733789	0.463557	-0.190538
H162	H	0.746808	0.507522	-0.158669
H163	H	0.679641	0.507523	-0.158671
H164	H	0.196200	0.821430	-0.071975
C165	C	1.090548	0.272508	0.321589
H166	H	1.085907	0.301080	0.269380
H167	H	1.115745	0.283131	0.345204
H168	H	1.115739	0.211330	0.345214
H169	H	-0.038690	0.533488	0.071971
H170	H	0.566396	0.821421	-0.793816
H171	H	0.936646	0.281717	0.467701
C172	C	0.633746	1.150474	-0.472991
H173	H	0.606328	1.165137	-0.516968
H174	H	0.613879	1.201022	-0.472986
H175	H	0.681043	1.129222	-0.472988
C176	C	0.555761	0.946411	-0.352261
H177	H	0.533652	0.975003	-0.404470
H178	H	0.587787	0.885237	-0.328641
H179	H	0.520629	0.957046	-0.328640
H180	H	0.936552	0.281784	-0.072044
C181	C	0.633775	0.204442	0.473031
H182	H	0.661207	0.189793	0.516991
H183	H	0.586489	0.225670	0.473048
H184	H	0.653658	0.153879	0.473040
H185	H	1.058964	0.222967	0.454455
H186	H	0.701075	0.399295	-0.072009
C187	C	0.555801	0.408547	0.083324
H188	H	0.533690	0.379978	0.106951
H189	H	0.587841	0.397927	0.120868
H190	H	0.520672	0.469724	0.049072
C191	C	0.304201	0.946379	-0.083304
H192	H	0.349952	0.903148	-0.077634
H193	H	0.279011	0.921111	-0.063704
H194	H	0.279012	0.992901	-0.135507
H195	H	0.566416	0.281717	0.323766
H196	H	0.826652	0.399263	0.350168
H197	H	-0.173386	0.821440	-0.071996
C198	C	0.555771	0.844116	-0.352242
H199	H	0.561079	0.832755	-0.303332
H200	H	0.574099	0.876723	-0.379164
H201	H	0.506935	0.876718	-0.379164
H202	H	0.566403	0.073165	0.072006
H203	H	0.566404	0.399264	0.206194
C204	C	1.076217	0.204468	-0.000070
H205	H	1.062489	0.189821	-0.029383
H206	H	1.103644	0.225696	-0.021314
H207	H	1.103638	0.153904	0.050482
H208	H	0.961331	0.399277	0.071966
C209	C	0.460127	0.510809	0.083320
H210	H	0.495253	0.522171	0.077639
H211	H	0.465441	0.478202	0.135518
H212	H	0.465446	0.478206	0.063717
C213	C	0.555777	0.844110	-0.488304
H214	H	0.533660	0.891372	-0.483359
H215	H	0.587813	0.847415	-0.515232
H216	H	0.520652	0.847403	-0.515228
H217	H	0.306166	0.955619	-0.206158
H218	H	0.701069	0.073187	-0.071996
C219	C	0.460135	0.946354	0.083339
H220	H	0.455508	0.974938	0.106961
H221	H	0.485326	0.885181	0.120887
H222	H	0.485323	0.956978	0.049086
C223	C	0.555792	0.844098	-0.678340
H224	H	0.533690	0.891360	-0.730545
H225	H	0.520667	0.847401	-0.654714
H226	H	0.587837	0.847394	-0.654713
C227	C	1.090553	0.272471	0.083272
H228	H	1.125667	0.229241	0.077582
H229	H	1.095883	0.318975	0.063690
H230	H	1.095875	0.247177	0.135477
C231	C	0.711706	0.510797	-0.647762
H232	H	0.733822	0.463533	-0.595557
H233	H	0.679668	0.507495	-0.671386
H234	H	0.746831	0.507503	-0.671393
C235	C	0.711700	0.510799	-0.511699
H236	H	0.733801	0.463540	-0.516647
H237	H	0.746826	0.507495	-0.484770
H238	H	0.679657	0.507502	-0.484776
C239	C	0.711677	-0.053621	-0.083331
H240	H	0.733774	-0.025037	-0.106970
H241	H	0.746805	-0.114795	-0.049088
H242	H	0.679631	-0.042995	-0.120879
H243	H	0.196193	1.073177	-0.323678
C244	C	0.191193	1.150494	-0.472972
H245	H	0.150070	1.165130	-0.458296
H246	H	0.191174	1.201059	-0.502293
H247	H	0.191185	1.129248	-0.502280
H248	H	0.566393	-0.044370	0.071998
H249	H	0.701088	0.533492	-0.323746
H250	H	0.330833	1.073230	-0.467705
H251	H	0.701099	0.399290	0.350145
H252	H	0.330925	1.073158	0.072014
C253	C	0.191260	1.150477	0.000038
H254	H	0.204988	1.165115	0.029359
H255	H	0.163832	1.201038	-0.050508
H256	H	0.163840	1.129236	0.021291
H257	H	0.440826	0.955657	-0.350172
C258	C	0.711685	1.082422	-0.321615
H259	H	0.733777	1.053850	-0.269407
H260	H	0.746818	1.071802	-0.345233
H261	H	0.679641	1.143599	-0.345241
