data_functionalizedCrystal
_audit_creation_method	'MofGen! by Chris Wilmer'
_symmetry_space_group_name_H-M	'P1'
_symmetry_Int_Tables_number	1
_symmetry_cell_setting	triclinic
loop_
_symmetry_equiv_pos_as_xyz
  x,y,z
_cell_length_a	14.971491
_cell_length_b	19.288865
_cell_length_c	14.048226
_cell_angle_alpha	89.988335
_cell_angle_beta	89.991693
_cell_angle_gamma	83.376241
loop_
_atom_site_label
_atom_site_type_symbol
_atom_site_fract_x
_atom_site_fract_y
_atom_site_fract_z
O1	O	1.186455	0.090534	-0.079213
O2	O	0.925997	0.101370	-0.079207
O3	O	1.063752	-0.005153	-0.079191
O4	O	1.048700	0.197058	-0.079229
O5	O	1.063735	-0.005160	0.079130
O6	O	0.925980	0.101364	0.079114
O7	O	1.186438	0.090528	0.079109
Zn8	Zn	1.056207	0.095945	0.104248
Zn9	Zn	1.056228	0.095953	-0.104347
O10	O	1.048683	0.197052	0.079093
C11	C	0.892666	0.100882	-0.000045
C12	C	0.793377	0.099428	-0.000042
C13	C	1.063259	-0.031035	-0.000028
C14	C	1.061805	-0.108143	-0.000019
C15	C	0.365715	0.093156	-0.086364
C16	C	0.459008	0.094521	-0.086361
C17	C	0.505641	0.095204	-0.000057
C18	C	0.458977	0.094516	0.086250
C19	C	0.365687	0.093147	0.086245
C20	C	0.653424	0.097371	0.086253
C21	C	0.746720	0.098742	0.086257
C22	C	0.746744	0.098745	-0.086354
C23	C	0.653454	0.097376	-0.086358
C24	C	0.606797	0.096689	-0.000051
C25	C	1.142634	-0.152575	-0.000016
C26	C	1.141268	-0.225026	-0.000031
C27	C	1.059069	-0.253043	-0.000030
C28	C	0.978230	-0.208601	-0.000038
C29	C	0.979598	-0.136151	-0.000033
C30	C	0.994445	-0.361544	0.055428
C31	C	0.993080	-0.433993	0.055428
C32	C	1.054846	-0.476502	-0.000051
C33	C	1.117991	-0.446555	-0.055519
C34	C	1.119359	-0.374105	-0.055514
C35	C	1.057576	-0.331602	-0.000037
C36	C	1.134199	-0.599495	-0.000066
C37	C	1.132829	-0.671947	-0.000087
C38	C	0.969789	-0.655521	-0.000085
C39	C	0.971161	-0.583070	-0.000073
C40	C	1.053368	-0.555061	-0.000059
C41	C	1.219768	0.091016	-0.000055
C42	C	1.319057	0.092471	-0.000064
C43	C	1.049176	0.222933	-0.000073
C44	C	1.050630	0.300041	-0.000087
N45	N	1.056198	0.095939	0.246609
N46	N	1.056244	0.095954	-0.246707
C47	C	1.117215	0.048790	0.296434
C48	C	1.117221	0.048789	0.396092
C49	C	1.056214	0.095942	0.445923
C50	C	0.995190	0.143093	0.396091
C51	C	0.995181	0.143090	0.296435
C52	C	0.995216	0.143098	0.603805
C53	C	0.995227	0.143103	0.703467
C54	C	1.117257	0.048798	0.703462
C55	C	1.117247	0.048794	0.603806
C56	C	1.056224	0.095947	0.553981
H57	H	0.327752	0.092605	-0.156643
H58	H	1.166905	0.010397	0.436659
N59	N	1.231302	-0.122374	-0.000008
H60	H	1.266706	-0.138566	-0.058699
H61	H	1.219839	-0.069739	0.000031
N62	N	1.183022	-0.002064	0.242691
H63	H	1.221675	-0.031934	0.289381
H64	H	1.148904	-0.032818	0.201363
N65	N	1.184617	-0.492396	-0.115359
H66	H	1.224826	-0.462431	-0.150490
H67	H	1.222393	-0.526326	-0.072810
H68	H	1.166928	0.010403	0.563234
H69	H	1.170772	-0.349725	-0.100679
H70	H	0.945494	0.181483	0.255868
N71	N	1.222859	-0.569278	-0.000053
H72	H	1.258268	-0.585459	-0.058745
H73	H	1.211382	-0.516644	-0.000005
N74	N	0.315362	0.092402	0.179327
H75	H	0.359142	0.092554	0.233998
H76	H	0.269655	0.135108	0.183369
N77	N	0.929387	0.193946	0.449839
H78	H	0.963443	0.224748	0.491164
H79	H	0.890743	0.223767	0.403093
N80	N	0.881131	-0.685731	-0.000068
H81	H	0.830132	-0.646586	-0.000061
H82	H	0.877012	-0.715423	-0.058760
N83	N	1.183078	-0.002059	0.757194
H84	H	1.173826	0.005094	0.827887
H85	H	1.172952	-0.051349	0.739792
N86	N	0.929436	0.193965	0.757217
H87	H	0.890775	0.223834	0.710533
H88	H	0.890013	0.167326	0.798594
H89	H	1.207090	-0.261209	-0.000033
N90	N	0.797021	0.099473	0.179340
H91	H	0.828296	0.143067	0.183182
H92	H	0.753257	0.098798	0.233959
H93	H	0.945522	0.181493	0.563240
H94	H	0.615437	0.096820	0.156533
N95	N	0.509271	0.095259	0.179335
H96	H	0.465556	0.094616	0.234006
H97	H	0.555406	0.052804	0.183110
N98	N	0.883981	-0.535142	-0.000071
H99	H	0.831699	-0.563882	-0.000072
H100	H	0.880992	-0.504735	0.058624
H101	H	0.496993	0.095075	-0.156635
H102	H	0.615487	0.096825	-0.156634
H103	H	1.198652	-0.708123	-0.000090
H104	H	0.944146	-0.326938	0.100611
N105	N	0.797060	0.099489	-0.179444
H106	H	0.863235	0.100457	-0.166349
H107	H	0.788183	0.056228	-0.217127
H108	H	0.941660	-0.458370	0.100588
N109	N	0.889571	-0.238814	-0.000042
H110	H	0.900969	-0.291453	-0.000042
H111	H	0.854205	-0.222573	0.058649
H112	H	0.913776	-0.099974	-0.000035
