data_functionalizedCrystal
_audit_creation_method	'MofGen! by Chris Wilmer'
_symmetry_space_group_name_H-M	'P1'
_symmetry_Int_Tables_number	1
_symmetry_cell_setting	triclinic
loop_
_symmetry_equiv_pos_as_xyz
  x,y,z
_cell_length_a	12.594517
_cell_length_b	18.215405
_cell_length_c	18.215399
_cell_angle_alpha	89.969449
_cell_angle_beta	89.979999
_cell_angle_gamma	90.024685
loop_
_atom_site_label
_atom_site_type_symbol
_atom_site_fract_x
_atom_site_fract_y
_atom_site_fract_z
Zn1	Zn	1.627188	-0.292996	-0.416106
Zn2	Zn	2.127188	0.207004	0.083894
Zn3	Zn	1.627055	-0.416067	-0.293034
Zn4	Zn	2.127055	0.083933	0.206966
Zn5	Zn	1.449196	-0.293018	-0.293053
Zn6	Zn	1.949196	0.206982	0.206947
Zn7	Zn	1.449146	-0.416025	-0.416059
Zn8	Zn	1.949146	0.083975	0.083941
O9	O	1.538146	-0.354526	-0.354563
O10	O	2.038146	0.145474	0.145437
O11	O	1.776116	-0.309330	-0.399792
O12	O	2.276116	0.190670	0.100208
O13	O	1.603427	-0.399772	-0.190052
O14	O	2.103427	0.100228	0.309948
O15	O	1.472883	-0.190031	-0.309404
O16	O	1.972883	0.309969	0.190596
O17	O	1.776019	-0.399750	-0.309372
O18	O	2.276019	0.100250	0.190628
O19	O	1.603653	-0.190014	-0.399810
O20	O	2.103653	0.309986	0.100190
O21	O	1.472754	-0.309368	-0.190066
O22	O	1.972754	0.190632	0.309934
O23	O	1.300243	-0.309327	-0.309358
O24	O	1.800243	0.190673	0.190642
O25	O	1.472799	-0.399677	-0.519049
O26	O	1.972799	0.100323	-0.019049
O27	O	1.300207	-0.399699	-0.399730
O28	O	1.800207	0.100301	0.100270
O29	O	1.603605	-0.309289	-0.519084
O30	O	2.103605	0.190711	-0.019084
O31	O	1.603379	-0.519046	-0.309326
O32	O	2.103379	-0.019046	0.190674
O33	O	1.472670	-0.519015	-0.399711
O34	O	1.972670	-0.019015	0.100289
C35	C	1.538034	-0.545733	-0.354527
C36	C	2.038034	-0.045733	0.145473
C37	C	1.538083	-0.627532	-0.354537
C38	C	2.038083	-0.127532	0.145463
C39	C	1.261605	-0.354512	-0.354541
C40	C	1.761605	0.145488	0.145459
C41	C	1.143300	-0.354523	-0.354549
C42	C	1.643300	0.145477	0.145451
C43	C	1.606303	-0.815717	-0.307560
C44	C	2.106303	-0.315717	0.192440
C45	C	1.606351	-0.892576	-0.307578
C46	C	2.106351	-0.392576	0.192422
C47	C	1.470126	-0.892584	-0.401619
C48	C	1.970126	-0.392584	0.098381
C49	C	1.470084	-0.815726	-0.401604
C50	C	1.970084	-0.315726	0.098396
C51	C	1.538171	-0.777295	-0.354570
C52	C	2.038171	-0.277295	0.145430
C53	C	1.538260	-0.931011	-0.354603
C54	C	2.038260	-0.431011	0.145397
C55	C	1.538311	-1.014345	-0.354623
C56	C	2.038311	-0.514345	0.145377
C57	C	1.538122	-0.693956	-0.354552
C58	C	2.038122	-0.193956	0.145448
C59	C	1.074036	-0.305303	-0.305490
C60	C	1.574036	0.194697	0.194510
C61	C	1.003210	-0.372431	-0.287381
C62	C	1.503210	0.127569	0.212619
C63	C	1.003326	-0.287428	-0.372671
C64	C	1.503326	0.212572	0.127329
C65	C	1.074033	-0.421686	-0.336405
C66	C	1.574033	0.078314	0.163595
C67	C	1.074155	-0.336639	-0.421726
C68	C	1.574155	0.163361	0.078274
C69	C	1.003362	-0.403813	-0.403643
C70	C	1.503362	0.096187	0.096357
C71	C	1.815767	-0.354542	-0.354585
C72	C	2.315767	0.145458	0.145415
C73	C	1.934072	-0.354548	-0.354594
C74	C	2.434072	0.145452	0.145406
C75	C	1.538211	-0.354476	-0.546516
C76	C	2.038211	0.145524	-0.046516
C77	C	1.538239	-0.354454	-0.628315
C78	C	2.038239	0.145546	-0.128315
C79	C	1.538288	-0.162574	-0.354614
C80	C	2.038288	0.337426	0.145386
C81	C	1.538348	-0.080775	-0.354636
C82	C	2.038348	0.419225	0.145364
C83	C	1.606374	-0.307345	-0.816528
C84	C	2.106374	0.192655	-0.316528
C85	C	1.606387	-0.307323	-0.893387
C86	C	2.106387	0.192677	-0.393387
C87	C	1.470179	-0.401450	-0.893339
C88	C	1.970179	0.098550	-0.393339
C89	C	1.470161	-0.401467	-0.816482
C90	C	1.970161	0.098533	-0.316482
C91	C	1.538265	-0.354415	-0.778078
C92	C	2.038265	0.145585	-0.278078
C93	C	1.538295	-0.354377	-0.931795
C94	C	2.038295	0.145623	-0.431795
C95	C	1.538308	-0.354354	-1.015128
C96	C	2.038308	0.145646	-0.515128
C97	C	1.538251	-0.354437	-0.694739
C98	C	2.038251	0.145563	-0.194739
C99	C	1.538143	-0.354524	-0.163357
C100	C	2.038143	0.145476	0.336643
C101	C	1.538321	-0.354338	-0.081558
C102	C	2.038321	0.145662	0.418442
H103	H	1.661832	-0.923856	-0.269298
H104	H	2.161832	-0.423856	0.230702
H105	H	1.414690	-0.923884	-0.439911
H106	H	1.914690	-0.423884	0.060089
N107	N	1.675840	-0.776461	-0.259511
N108	N	2.175840	-0.276461	0.240489
N109	N	1.668844	-0.785100	-0.191601
N110	N	2.168844	-0.285100	0.308399
H111	H	1.717957	-0.757377	-0.157665
H112	H	2.217957	-0.257377	0.342335
N113	N	1.675960	-0.259233	-0.932651
N114	N	2.175960	0.240767	-0.432651
N115	N	1.736752	-0.217226	-0.898350
N116	N	2.236752	0.282774	-0.398350
H117	H	1.785890	-0.183258	-0.926079
H118	H	2.285890	0.316742	-0.426079
H119	H	1.661825	-0.269030	-0.785262
H120	H	2.161825	0.230970	-0.285262
N121	N	1.112958	-0.253128	-0.253387
N122	N	1.612958	0.246872	0.246613
N123	N	1.049231	-0.216293	-0.215851
N124	N	1.549231	0.283707	0.284149
H125	H	1.076719	-0.179447	-0.179052
H126	H	1.576719	0.320553	0.320948
N127	N	0.964132	-0.391425	-0.216134
N128	N	1.464132	0.108575	0.283866
N129	N	0.986764	-0.352311	-0.161987
N130	N	1.486764	0.147689	0.338013
H131	H	0.959171	-0.365722	-0.111667
H132	H	1.459171	0.134278	0.388333
H133	H	1.414603	-0.784441	-0.439889
H134	H	1.914603	-0.284441	0.060111
H135	H	1.104962	-0.478455	-0.321034
H136	H	1.604962	0.021545	0.178966
H137	H	0.972525	-0.445496	-0.445150
H138	H	1.472525	0.054504	0.054850
H139	H	1.105341	-0.321475	-0.478500
H140	H	1.605341	0.178525	0.021500
N141	N	0.964362	-0.216232	-0.391867
N142	N	1.464362	0.283768	0.108133
N143	N	0.987017	-0.161977	-0.352905
N144	N	1.487017	0.338023	0.147095
H145	H	0.959501	-0.111693	-0.366456
H146	H	1.459501	0.388307	0.133544
N147	N	1.400622	-0.449504	-0.932581
N148	N	1.900622	0.050496	-0.432581
N149	N	1.400646	-0.449483	-1.001203
N150	N	1.900646	0.050517	-0.501203
H151	H	1.351521	-0.483423	-1.028917
H152	H	1.851521	0.016577	-0.528917
H153	H	1.414691	-0.439797	-0.785175
H154	H	1.914691	0.060203	-0.285175
