data_functionalizedCrystal
_audit_creation_method	'MofGen! by Chris Wilmer'
_symmetry_space_group_name_H-M	'P1'
_symmetry_Int_Tables_number	1
_symmetry_cell_setting	triclinic
loop_
_symmetry_equiv_pos_as_xyz
  x,y,z
_cell_length_a	12.759401
_cell_length_b	19.805405
_cell_length_c	12.759393
_cell_angle_alpha	89.963446
_cell_angle_beta	89.979062
_cell_angle_gamma	90.027935
loop_
_atom_site_label
_atom_site_type_symbol
_atom_site_fract_x
_atom_site_fract_y
_atom_site_fract_z
Zn1	Zn	1.606181	-0.269403	-0.593976
Zn2	Zn	1.606036	-0.382606	-0.418277
Zn3	Zn	1.430480	-0.269439	-0.418311
Zn4	Zn	1.430436	-0.382558	-0.593915
O5	O	1.518283	-0.326001	-0.506120
O6	O	1.753183	-0.284424	-0.570681
O7	O	1.582706	-0.367629	-0.271261
O8	O	1.453866	-0.174718	-0.441653
O9	O	1.753076	-0.367594	-0.441596
O10	O	1.582953	-0.174691	-0.570713
O11	O	1.453725	-0.284486	-0.271285
O12	O	1.283453	-0.284440	-0.441594
O13	O	1.453791	-0.367513	-0.740944
O14	O	1.283420	-0.367548	-0.570609
O15	O	1.582910	-0.284378	-0.740989
O16	O	1.582663	-0.477316	-0.441536
O17	O	1.453650	-0.477281	-0.570576
C18	C	1.245316	-0.325993	-0.506099
C19	C	1.128539	-0.326006	-0.506115
C20	C	1.073688	-0.369346	-0.573187
C21	C	0.963964	-0.369349	-0.573208
C22	C	0.963952	-0.282669	-0.439075
C23	C	1.073674	-0.282663	-0.439060
C24	C	1.518165	-0.501858	-0.506069
C25	C	1.518210	-0.577089	-0.506082
C26	C	1.585453	-0.612429	-0.438962
C27	C	1.585497	-0.683118	-0.438985
C28	C	1.518294	-0.718465	-0.506124
C29	C	1.451048	-0.683120	-0.573252
C30	C	1.451010	-0.612433	-0.573234
C31	C	1.451203	-0.968194	-0.573330
C32	C	1.451245	-1.038886	-0.573342
C33	C	1.585691	-1.038878	-0.439081
C34	C	1.585652	-0.968191	-0.439063
C35	C	1.518411	-0.932852	-0.506194
C36	C	1.518365	-0.856204	-0.506170
C37	C	1.518334	-0.795112	-0.506144
C38	C	1.792316	-0.326010	-0.506141
C39	C	1.909093	-0.326014	-0.506150
C40	C	1.518362	-0.325936	-0.780153
C41	C	1.518395	-0.325909	-0.896930
C42	C	1.518430	-0.149459	-0.506194
C43	C	1.518493	-0.074227	-0.506225
C44	C	1.585633	-0.282614	-0.951817
C45	C	1.585650	-0.282584	-1.061541
C46	C	1.451190	-0.369151	-1.061481
C47	C	1.451168	-0.369177	-0.951759
C48	C	1.518265	-0.326017	-0.233152
C49	C	1.518435	-0.325854	-0.116376
H50	H	0.919267	-0.247382	-0.384480
C51	C	1.134015	-0.234988	-0.365275
H52	H	1.085626	-0.209182	-0.325332
H53	H	1.176857	-0.205527	-0.405545
H54	H	1.176777	-0.260847	-0.319416
C55	C	1.377205	-0.416802	-0.891374
H56	H	1.386813	-0.410614	-0.818176
H57	H	1.392539	-0.462277	-0.909334
H58	H	1.306623	-0.406883	-0.909349
C59	C	1.377127	-0.721997	-0.647110
H60	H	1.337082	-0.690824	-0.687090
H61	H	1.331385	-0.749619	-0.606891
H62	H	1.417317	-0.749525	-0.692932
H63	H	1.640173	-0.583654	-0.384284
C64	C	1.134036	-0.417014	-0.646954
H65	H	1.085650	-0.442822	-0.686909
H66	H	1.176802	-0.446474	-0.606679
H67	H	1.176875	-0.391150	-0.692802
C68	C	0.903632	-0.417022	-0.646990
H69	H	0.952025	-0.442834	-0.686917
H70	H	0.860873	-0.391166	-0.692848
H71	H	0.860787	-0.446486	-0.606720
H72	H	1.640252	-0.711888	-0.384328
H73	H	1.396521	-1.067663	-0.628022
H74	H	1.640372	-0.939413	-0.384388
C75	C	1.659569	-0.235018	-0.891503
H76	H	1.649935	-0.241236	-0.818295
H77	H	1.644236	-0.189536	-0.909502
H78	H	1.730159	-0.244926	-0.909494
H79	H	1.640446	-1.067659	-0.384424
H80	H	1.396452	-0.939426	-0.627989
C81	C	1.377045	-0.573559	-0.647068
H82	H	1.337021	-0.604734	-0.687052
H83	H	1.417200	-0.545940	-0.692871
H84	H	1.331269	-0.546029	-0.606829
C85	C	1.659616	-0.234963	-1.121913
H86	H	1.699654	-0.209203	-1.073540
H87	H	1.619466	-0.205457	-1.164721
H88	H	1.705381	-0.260852	-1.164711
H89	H	1.396459	-0.404380	-1.106137
