data_functionalizedCrystal
_audit_creation_method	'MofGen! by Chris Wilmer'
_symmetry_space_group_name_H-M	'P1'
_symmetry_Int_Tables_number	1
_symmetry_cell_setting	triclinic
loop_
_symmetry_equiv_pos_as_xyz
  x,y,z
_cell_length_a	16.992694
_cell_length_b	15.944551
_cell_length_c	16.053802
_cell_angle_alpha	92.564789
_cell_angle_beta	87.249047
_cell_angle_gamma	87.083481
loop_
_atom_site_label
_atom_site_type_symbol
_atom_site_fract_x
_atom_site_fract_y
_atom_site_fract_z
O1	O	1.043704	0.174798	-0.069327
O2	O	0.815419	0.172843	-0.069352
O3	O	0.935795	0.051964	-0.069332
O4	O	0.923328	0.295677	-0.069348
O5	O	0.929169	0.058588	0.069526
O6	O	0.808793	0.179467	0.069506
O7	O	1.037078	0.181422	0.069530
Zn8	Zn	0.921884	0.181497	0.091565
Zn9	Zn	0.930613	0.172769	-0.091386
O10	O	0.916702	0.302301	0.069510
C11	C	0.782894	0.173641	0.000074
C12	C	0.695850	0.166141	0.000065
C13	C	0.645613	0.238506	0.000061
C14	C	0.563826	0.231454	0.000073
C15	C	0.532276	0.152037	0.000083
C16	C	0.582519	0.079667	0.000089
C17	C	0.664305	0.086719	0.000083
C18	C	0.288676	0.122807	0.000107
C19	C	0.206884	0.115759	0.000111
C20	C	0.188196	0.267548	0.000095
C21	C	0.269984	0.274593	0.000084
C22	C	0.320220	0.202223	0.000095
N23	N	0.448677	0.144827	0.000092
N24	N	0.403818	0.209434	0.000092
C25	C	0.931964	0.023948	0.000097
C26	C	0.930413	-0.069402	0.000098
C27	C	0.852090	-0.289513	0.000078
C28	C	0.885194	-0.344825	0.068547
C29	C	0.927606	-0.240317	0.000091
C30	C	0.891744	-0.351338	-0.068356
C31	C	0.924889	-0.405412	0.000081
C32	C	0.960728	-0.294396	0.068617
C33	C	0.967271	-0.300907	-0.068348
C34	C	1.000429	-0.356196	0.000138
C35	C	0.929169	-0.145209	0.000098
C36	C	0.923332	-0.500518	0.000080
C37	C	1.069603	0.180624	0.000103
C38	C	1.156648	0.188124	0.000106
C39	C	0.920533	0.330318	0.000079
C40	C	0.922085	0.423667	0.000073
N41	N	0.915931	0.187453	0.216424
N42	N	0.936572	0.166806	-0.216246
C43	C	0.967170	0.136040	0.260127
C44	C	0.963014	0.140215	0.347533
C45	C	0.907622	0.195808	0.391235
C46	C	0.856378	0.247223	0.347526
C47	C	0.860531	0.243043	0.260121
C48	C	0.889481	0.214042	0.652641
C49	C	0.885333	0.218220	0.740052
C50	C	0.991968	0.111209	0.740053
C51	C	0.996120	0.107038	0.652646
C52	C	0.944873	0.158450	0.608945
N53	N	0.903374	0.200078	0.480578
N54	N	0.949118	0.154175	0.519604
H55	H	0.295666	0.339262	0.000066
H56	H	0.789404	-0.260406	0.000139
O57	O	0.802462	0.301131	0.389940
C58	C	0.725862	0.281205	0.368581
H59	H	0.726623	0.212780	0.344565
H60	H	0.683783	0.290946	0.426067
H61	H	0.705240	0.323776	0.317843
H62	H	0.147286	0.326467	0.000088
O63	O	0.995450	-0.264561	0.137726
C64	C	0.996479	-0.176236	0.136904
H65	H	0.948081	-0.151351	0.096323
H66	H	0.985897	-0.148117	0.203284
H67	H	1.056288	-0.157818	0.110442
H68	H	0.705207	0.027792	0.000086
O69	O	0.839821	0.264033	0.610110
C70	C	0.884216	0.316296	0.559556
H71	H	0.946187	0.286364	0.546449
H72	H	0.854406	0.324443	0.498100
H73	H	0.887955	0.380342	0.593238
O74	O	0.176331	0.038559	0.000011
C75	C	0.205407	-0.009318	-0.071909
H76	H	0.263277	0.016228	-0.095888
H77	H	0.215976	-0.077733	-0.055727
H78	H	0.160481	-0.005164	-0.122269
O79	O	0.843675	-0.368036	0.137534
C80	C	0.765512	-0.333870	0.137295
H81	H	0.750494	-0.320022	0.070668
H82	H	0.723370	-0.380829	0.163153
H83	H	0.759468	-0.273133	0.177870
H84	H	0.329568	0.063878	0.000117
O85	O	0.856915	-0.381291	-0.137350
C86	C	0.856596	-0.469674	-0.136799
H87	H	0.861189	-0.490354	-0.070066
H88	H	0.799402	-0.491521	-0.162738
H89	H	0.908936	-0.498614	-0.177145
H90	H	0.818806	0.284908	0.224539
H91	H	1.001946	-0.281397	-0.126229
O92	O	0.515140	0.301833	0.000030
C93	C	0.560523	0.373441	0.000036
H94	H	0.622812	0.354962	-0.026258
H95	H	0.532272	0.422557	-0.040281
H96	H	0.563183	0.400707	0.066649
H97	H	1.004736	0.098349	0.383115
O98	O	0.676300	0.315627	-0.000100
C99	C	0.726483	0.320811	-0.072010
H100	H	0.709532	0.273218	-0.122269
H101	H	0.720289	0.386861	-0.096155
H102	H	0.790205	0.306546	-0.055755
O103	O	1.021002	0.081963	0.217808
C104	C	1.065347	0.037494	0.275128
H105	H	1.030239	0.037348	0.337437
H106	H	1.078508	-0.029984	0.249887
H107	H	1.123151	0.069158	0.284412
O108	O	1.049834	0.052756	0.610422
C109	C	1.035869	-0.030107	0.632080
H110	H	0.971894	-0.033406	0.655997
H111	H	1.047653	-0.074617	0.574771
H112	H	1.076767	-0.049304	0.682982
O113	O	0.551746	0.002583	0.000064
C114	C	0.468787	0.011874	0.000087
H115	H	0.450834	0.074879	-0.026207
H116	H	0.445592	-0.041199	-0.040221
H117	H	0.442850	0.009455	0.066705
H118	H	1.063164	-0.385145	0.000184
H119	H	1.033690	0.069351	0.775642
H120	H	0.840224	0.263494	0.775630
