data_functionalizedCrystal
_audit_creation_method	'MofGen! by Chris Wilmer'
_symmetry_space_group_name_H-M	'P1'
_symmetry_Int_Tables_number	1
_symmetry_cell_setting	triclinic
loop_
_symmetry_equiv_pos_as_xyz
  x,y,z
_cell_length_a	6.817900
_cell_length_b	19.551136
_cell_length_c	10.773894
_cell_angle_alpha	96.651751
_cell_angle_beta	96.645922
_cell_angle_gamma	101.650842
loop_
_atom_site_label
_atom_site_type_symbol
_atom_site_fract_x
_atom_site_fract_y
_atom_site_fract_z
V1	V	-3.940036	-0.094105	-0.389542
O2	O	-3.938617	0.007164	-0.381495
O3	O	-3.883090	-0.189135	-0.387486
O4	O	-3.857944	-0.091498	-0.559158
O5	O	-3.963937	-0.091149	-0.208635
V6	V	-4.429137	-0.082129	-0.367830
O7	O	-4.189059	-0.120375	-0.437169
O8	O	-4.630313	-0.055859	-0.320204
O9	O	-4.262877	0.012901	-0.369887
O10	O	-4.547953	-0.183398	-0.375878
O11	O	-4.522633	-0.085085	-0.548738
O12	O	-4.288024	-0.084736	-0.198215
C13	C	-3.727102	-0.212338	-0.381498
C14	C	-3.761603	-0.290019	-0.380947
C15	C	-3.761301	-0.317266	-0.266376
C16	C	-3.793798	-0.390254	-0.265821
C17	C	-3.826557	-0.435992	-0.379841
C18	C	-3.826868	-0.408738	-0.494427
C19	C	-3.794392	-0.335752	-0.494980
C20	C	-3.774646	-0.556457	-0.462514
C21	C	-3.807109	-0.629442	-0.461956
C22	C	-3.926736	-0.661108	-0.378140
C23	C	-4.013867	-0.619777	-0.294860
C24	C	-3.981390	-0.546791	-0.295413
C25	C	-3.861776	-0.515135	-0.379254
C26	C	-3.961672	-0.767496	-0.262959
C27	C	-3.994183	-0.840486	-0.262409
C28	C	-4.027233	-0.858968	-0.491018
C29	C	-3.994742	-0.785980	-0.491566
C30	C	-3.961954	-0.740247	-0.377532
C31	C	-3.695025	-0.087791	-0.600480
C32	C	-3.709132	-0.086289	-0.739146
C33	C	-3.886972	-0.088893	-0.807024
C34	C	-3.901557	-0.087340	-0.950343
C35	C	-4.082208	0.036100	-0.375871
C36	C	-4.026943	0.113781	-0.376430
C37	C	-4.114286	-0.088445	-0.156886
C38	C	-4.079418	-0.089944	-0.018219
H39	H	-3.934973	-0.730258	-0.170106
N40	N	-3.862187	-0.458059	-0.617414
H41	H	-3.986532	-0.451775	-0.671724
H42	H	-3.882615	-0.508410	-0.599584
H43	H	-3.994975	-0.763796	-0.584861
N44	N	-3.714141	-0.082882	-1.013875
H45	H	-3.612047	-0.038190	-0.976086
H46	H	-3.751271	-0.082442	-1.107243
N47	N	-3.993879	-0.869877	-0.138831
H48	H	-3.968177	-0.829828	-0.066681
H49	H	-3.883870	-0.897383	-0.129379
N50	N	-4.062553	-0.908287	-0.614003
H51	H	-4.186894	-0.902002	-0.668317
H52	H	-4.082990	-0.958638	-0.596167
H53	H	-3.567671	-0.082905	-0.787133
N54	N	-3.713082	-0.674013	-0.551744
H55	H	-3.632378	-0.642880	-0.604928
H56	H	-3.823302	-0.710377	-0.608375
H57	H	-3.793548	-0.412443	-0.172520
N58	N	-3.725836	-0.267939	-0.143386
H59	H	-3.730543	-0.296279	-0.070719
H60	H	-3.834364	-0.239612	-0.142831
N61	N	-4.074351	-0.093369	-0.743459
H62	H	-4.176426	-0.138066	-0.781246
H63	H	-4.134649	-0.051165	-0.756476
N64	N	-4.075555	-0.502224	-0.205704
H65	H	-4.156332	-0.533357	-0.152552
H66	H	-4.167837	-0.477636	-0.255629
N67	N	-4.142692	-0.653906	-0.204341
H68	H	-4.149992	-0.706411	-0.216593
H69	H	-4.283476	-0.644922	-0.221057
H70	H	-4.220892	-0.093326	-0.970238
N71	N	-3.794698	-0.306354	-0.618553
H72	H	-3.930343	-0.325471	-0.672679
H73	H	-3.684719	-0.320725	-0.664076
N74	N	-3.645625	-0.522308	-0.552928
H75	H	-3.595345	-0.559562	-0.605591
H76	H	-3.526374	-0.486373	-0.503577
