data_functionalizedCrystal
_audit_creation_method	'MofGen! by Chris Wilmer'
_symmetry_space_group_name_H-M	'P1'
_symmetry_Int_Tables_number	1
_symmetry_cell_setting	triclinic
loop_
_symmetry_equiv_pos_as_xyz
  x,y,z
_cell_length_a	14.044220
_cell_length_b	27.732048
_cell_length_c	13.101039
_cell_angle_alpha	93.329410
_cell_angle_beta	86.340132
_cell_angle_gamma	87.915767
loop_
_atom_site_label
_atom_site_type_symbol
_atom_site_fract_x
_atom_site_fract_y
_atom_site_fract_z
O1	O	1.261246	0.114020	-0.085126
O2	O	0.985339	0.109817	-0.085151
O3	O	1.131860	0.041925	-0.085119
O4	O	1.114725	0.181913	-0.085159
O5	O	1.121348	0.046805	0.085309
O6	O	0.974827	0.114697	0.085276
O7	O	1.250733	0.118900	0.085301
Zn8	Zn	1.111111	0.117574	0.112348
Zn9	Zn	1.124962	0.111144	-0.112198
O10	O	1.104212	0.186793	0.085268
C11	C	0.944796	0.110418	0.000059
C12	C	0.839651	0.104930	0.000051
C13	C	1.126244	0.026341	0.000098
C14	C	1.125160	-0.027364	0.000106
C15	C	0.647135	0.094899	0.000074
C16	C	0.588932	0.133816	0.000067
C17	C	0.481810	0.128235	0.000080
C18	C	0.754268	0.100480	0.000061
C19	C	1.204929	-0.362438	0.000061
C20	C	1.200910	-0.564286	0.000046
O21	O	1.273853	-0.592120	0.000008
N22	N	1.114029	-0.587487	0.000039
C23	C	1.028146	-0.560223	0.000029
O24	O	0.954156	-0.584589	0.000012
C25	C	1.032166	-0.358376	0.000037
C26	C	1.119052	-0.335177	0.000054
C27	C	1.291808	-0.339239	0.000077
C28	C	1.292812	-0.288779	0.000086
C29	C	1.206935	-0.261519	0.000079
C30	C	1.120056	-0.284718	0.000063
C31	C	0.946285	-0.331113	0.000019
C32	C	0.947297	-0.280648	0.000018
C33	C	1.034184	-0.257449	0.000036
C34	C	1.035183	-0.206998	0.000066
N35	N	1.122064	-0.183797	0.000072
C36	C	1.207941	-0.211057	0.000079
C37	C	1.026042	-0.666196	0.000027
C38	C	1.025036	-0.716658	0.000027
C39	C	1.197801	-0.720717	0.000043
C40	C	1.198805	-0.670255	0.000050
C41	C	1.112923	-0.642995	0.000034
C42	C	1.210041	-0.105089	0.000100
C43	C	1.211037	-0.054625	0.000113
C44	C	1.038273	-0.050570	0.000093
C45	C	1.037276	-0.101030	0.000085
C46	C	1.123168	-0.128288	0.000085
O47	O	0.962280	-0.179134	0.000092
O48	O	1.281921	-0.186683	0.000073
C49	C	1.203925	-0.412897	0.000052
C50	C	1.117046	-0.436096	0.000035
C51	C	1.031169	-0.408835	0.000029
C52	C	1.116040	-0.486557	0.000035
C53	C	1.201917	-0.513818	0.000042
C54	C	1.288798	-0.490617	0.000049
C55	C	1.289802	-0.440157	0.000059
C56	C	0.944288	-0.432037	0.000022
C57	C	0.943292	-0.482496	0.000013
C58	C	1.029168	-0.509756	0.000020
C59	C	1.291277	0.118300	0.000088
C60	C	1.396422	0.123787	0.000090
C61	C	1.109828	0.202376	0.000050
C62	C	1.110913	0.256082	0.000034
N63	N	1.101664	0.121962	0.265594
N64	N	1.134415	0.106752	-0.265444
C65	C	1.088813	0.127936	0.474634
C66	C	1.147264	0.100779	0.525523
C67	C	1.140113	0.104104	0.641839
C68	C	1.095962	0.124612	0.358306
H69	H	0.616514	0.057393	0.000090
C70	C	1.383264	-0.520610	0.000054
C71	C	1.400865	-0.553337	0.088546
C72	C	1.495325	-0.583333	0.088543
C73	C	1.572184	-0.580601	0.000050
C74	C	1.554585	-0.547872	-0.088448
C75	C	1.460125	-0.517876	-0.088446
H76	H	1.343968	-0.555361	0.154060
H77	H	1.508352	-0.607561	0.154056
H78	H	1.642109	-0.602806	0.000048
H79	H	1.611482	-0.545848	-0.153963
H80	H	1.447098	-0.493648	-0.153959
C81	C	1.013963	0.162720	0.533780
C82	C	1.006209	0.165697	0.651775
C83	C	0.931364	0.200482	0.710934
C84	C	0.864271	0.232291	0.652099
C85	C	0.872023	0.229316	0.534097
C86	C	0.946868	0.194530	0.474937
H87	H	1.055877	0.142149	0.695335
H88	H	0.925626	0.202685	0.798288
H89	H	0.808866	0.258041	0.695892
H90	H	0.822355	0.252864	0.490537
H91	H	0.952606	0.192328	0.387584
H92	H	1.360554	-0.421273	0.000072
H93	H	1.281793	-0.035739	0.000130
H94	H	0.956102	-0.644006	0.000015
C95	C	1.292268	-0.750709	0.000042
C96	C	1.358226	-0.742927	0.088537
C97	C	1.452688	-0.772922	0.088526
C98	C	1.481193	-0.810698	0.000021
C99	C	1.415234	-0.818482	-0.088480
C100	C	1.320771	-0.788488	-0.088470
H101	H	1.337126	-0.714961	0.154059
H102	H	1.501515	-0.767159	0.154041
H103	H	1.551119	-0.832902	0.000014
H104	H	1.436333	-0.846449	-0.154003
H105	H	1.271944	-0.794250	-0.153985
C106	C	1.222131	0.066001	0.466372
C107	C	1.229225	0.062657	0.348373
C108	C	1.304092	0.027882	0.289217
C109	C	1.371863	-0.003550	0.348060
C110	C	1.364771	-0.000207	0.466066
C111	C	1.289905	0.034568	0.525222
H112	H	1.179055	0.085925	0.304808
H113	H	1.309341	0.025407	0.201861
H114	H	1.427284	-0.029293	0.304269
H115	H	1.414941	-0.023476	0.509631
H116	H	1.284655	0.037042	0.612578
H117	H	1.279983	-0.127277	0.000096
H118	H	1.363564	-0.269896	0.000096
H119	H	1.361743	-0.361429	0.000079
H120	H	0.875533	-0.349993	-0.000001
C121	C	0.630293	0.184490	0.000045
C122	C	0.738986	0.190077	0.000031
C123	C	0.780351	0.240749	0.000009
C124	C	0.713024	0.285834	0.000000
C125	C	0.604325	0.280249	0.000014
C126	C	0.562959	0.229577	0.000036
H127	H	0.788831	0.156700	0.000038
H128	H	0.860818	0.244883	-0.000001
H129	H	0.743646	0.323344	-0.000016
H130	H	0.554479	0.313625	0.000007
H131	H	0.482492	0.225443	0.000046
H132	H	0.874355	-0.409846	0.000014
C133	C	0.852823	-0.250663	0.000005
C134	C	0.786886	-0.258455	-0.088505
C135	C	0.692413	-0.228470	-0.088516
C136	C	0.663878	-0.190695	-0.000018
C137	C	0.729818	-0.182901	0.088498
C138	C	0.824290	-0.212886	0.088510
H139	H	0.808007	-0.286420	-0.154023
H140	H	0.643601	-0.234240	-0.154042
H141	H	0.593944	-0.168498	-0.000026
H142	H	0.708696	-0.154936	0.154016
H143	H	0.873102	-0.207116	0.154036
H144	H	1.269556	-0.651370	0.000063
H145	H	0.954283	-0.735541	0.000031
H146	H	0.872532	-0.501380	0.000008
H147	H	0.966524	-0.119918	0.000099
H148	H	0.968354	-0.028365	0.000091
