data_functionalizedCrystal
_audit_creation_method	'MofGen! by Chris Wilmer'
_symmetry_space_group_name_H-M	'P1'
_symmetry_Int_Tables_number	1
_symmetry_cell_setting	triclinic
loop_
_symmetry_equiv_pos_as_xyz
  x,y,z
_cell_length_a	14.044220
_cell_length_b	9.065218
_cell_length_c	7.540329
_cell_angle_alpha	89.996962
_cell_angle_beta	90.002479
_cell_angle_gamma	90.897619
loop_
_atom_site_label
_atom_site_type_symbol
_atom_site_fract_x
_atom_site_fract_y
_atom_site_fract_z
O1	O	-0.139141	1.975818	-0.147483
O2	O	-0.150554	1.547798	-0.147485
O3	O	-0.006808	1.755384	-0.147477
O4	O	-0.282887	1.768233	-0.147492
O5	O	-0.006806	1.755370	0.147488
O6	O	-0.150552	1.547785	0.147480
O7	O	-0.139139	1.975805	0.147482
Cu8	Cu	-0.144845	1.761793	0.174413
Cu9	Cu	-0.144848	1.761810	-0.174417
O10	O	-0.282885	1.768219	0.147473
C11	C	-0.149456	1.492683	-0.000003
C12	C	-0.146176	1.328477	-0.000004
C13	C	-0.318249	1.773850	-0.000012
C14	C	-0.423619	1.790627	-0.000018
C15	C	-0.616544	1.821299	-0.000010
C16	C	-0.673155	1.702310	-0.000009
C17	C	-0.780505	1.719376	-0.000005
C18	C	-0.509184	1.804235	-0.000015
C19	C	0.028556	1.749752	0.000004
C20	C	0.133926	1.732975	-0.000001
C21	C	-0.140237	2.030920	-0.000004
C22	C	-0.143517	2.195126	-0.000015
N23	N	-0.144843	1.761793	0.419762
N24	N	-0.144842	1.761821	-0.419766
H25	H	-0.641000	1.587623	-0.000009
H26	H	-0.648697	1.935977	-0.000003
