data_functionalizedCrystal
_audit_creation_method	'MofGen! by Chris Wilmer'
_symmetry_space_group_name_H-M	'P1'
_symmetry_Int_Tables_number	1
_symmetry_cell_setting	triclinic
loop_
_symmetry_equiv_pos_as_xyz
  x,y,z
_cell_length_a	12.759395
_cell_length_b	16.625545
_cell_length_c	16.625548
_cell_angle_alpha	90.009225
_cell_angle_beta	90.002900
_cell_angle_gamma	90.026319
loop_
_atom_site_label
_atom_site_type_symbol
_atom_site_fract_x
_atom_site_fract_y
_atom_site_fract_z
Zn1	Zn	1.606001	-0.321134	0.455870
Zn2	Zn	2.106001	0.178866	0.955870
Zn3	Zn	1.605914	-0.455933	0.321038
Zn4	Zn	2.105914	0.044067	0.821038
Zn5	Zn	1.430355	-0.321120	0.321055
Zn6	Zn	1.930355	0.178880	0.821055
Zn7	Zn	1.430259	-0.455930	0.455832
Zn8	Zn	1.930259	0.044070	0.955832
O9	O	1.518132	-0.388529	0.388449
O10	O	2.018132	0.111471	0.888449
O11	O	1.753011	-0.339023	0.437993
O12	O	2.253011	0.160977	0.937993
O13	O	1.582630	-0.438045	0.208208
O14	O	2.082630	0.061955	0.708208
O15	O	1.453732	-0.208289	0.338962
O16	O	1.953732	0.291711	0.838962
O17	O	1.752947	-0.438059	0.338933
O18	O	2.252947	0.061941	0.838933
O19	O	1.582778	-0.208300	0.438010
O20	O	2.082778	0.291700	0.938010
O21	O	1.453647	-0.338998	0.208221
O22	O	1.953647	0.161002	0.708221
O23	O	1.283321	-0.338995	0.338925
O24	O	1.783321	0.161005	0.838925
O25	O	1.453567	-0.438054	0.568670
O26	O	1.953567	0.061946	1.068670
O27	O	1.283250	-0.438040	0.437945
O28	O	1.783250	0.061960	0.937945
O29	O	1.582685	-0.339020	0.568698
O30	O	2.082685	0.160980	1.068698
O31	O	1.582536	-0.568765	0.338896
O32	O	2.082536	-0.068765	0.838896
O33	O	1.453483	-0.568763	0.437928
O34	O	1.953483	-0.068763	0.937928
C35	C	1.245165	-0.388517	0.388433
C36	C	1.745165	0.111483	0.888433
C37	C	1.128388	-0.388531	0.388446
C38	C	1.628388	0.111469	0.888446
C39	C	0.909020	-0.285589	0.491791
C40	C	1.409020	0.214411	0.991791
C41	C	0.963919	-0.234101	0.543441
C42	C	1.463919	0.265899	1.043441
C43	C	1.073641	-0.234087	0.543427
C44	C	1.573641	0.265913	1.043427
C45	C	1.128466	-0.285568	0.491759
C46	C	1.628466	0.214432	0.991759
C47	C	1.073566	-0.337056	0.440109
C48	C	1.573566	0.162944	0.940109
C49	C	0.963842	-0.337063	0.440127
C50	C	1.463842	0.162937	0.940127
C51	C	1.073489	-0.440019	0.336796
C52	C	1.573489	0.059981	0.836796
C53	C	0.963767	-0.440030	0.336805
C54	C	1.463767	0.059970	0.836805
C55	C	1.128313	-0.491500	0.285128
C56	C	1.628313	0.008500	0.785128
C57	C	1.073414	-0.542985	0.233473
C58	C	1.573414	-0.042985	0.733473
C59	C	0.963686	-0.542996	0.233489
C60	C	1.463686	-0.042996	0.733489
C61	C	0.908868	-0.491518	0.285155
C62	C	1.408868	0.008482	0.785155
C63	C	1.518018	-0.598020	0.388424
C64	C	2.018018	-0.098020	0.888424
C65	C	1.518066	-0.687641	0.388440
C66	C	2.018066	-0.187641	0.888440
C67	C	1.518106	-0.760424	0.388456
C68	C	2.018106	-0.260424	0.888456
C69	C	1.518167	-0.851732	0.388474
C70	C	2.018167	-0.351732	0.888474
C71	C	1.518222	-0.924508	0.388484
C72	C	2.018222	-0.424508	0.888484
C73	C	1.518282	-1.015823	0.388500
C74	C	2.018282	-0.515823	0.888500
C75	C	1.792166	-0.388542	0.388465
C76	C	2.292166	0.111458	0.888465
C77	C	1.908942	-0.388548	0.388472
C78	C	2.408942	0.111452	0.888472
C79	C	1.518125	-0.388538	0.598758
C80	C	2.018125	0.111462	1.098758
C81	C	1.518122	-0.388542	0.688379
C82	C	2.018122	0.111458	1.188379
C83	C	1.518276	-0.178220	0.388492
C84	C	2.018276	0.321780	0.888492
C85	C	1.518337	-0.088599	0.388511
C86	C	2.018337	0.411401	0.888511
C87	C	1.518119	-0.388546	0.761161
C88	C	2.018119	0.111454	1.261161
C89	C	1.518118	-0.388543	0.852470
C90	C	2.018118	0.111457	1.352470
C91	C	1.518122	-0.388537	0.925246
C92	C	2.018122	0.111463	1.425246
C93	C	1.518123	-0.388535	1.016561
C94	C	2.018123	0.111465	1.516561
C95	C	1.518130	-0.388536	1.178958
C96	C	2.018130	0.111464	1.678958
C97	C	1.518127	-0.388528	1.089337
C98	C	2.018127	0.111472	1.589337
H99	H	0.819526	-0.491512	0.285163
H100	H	1.319526	0.008488	0.785163
N101	N	1.246807	-0.285596	0.491783
N102	N	1.746807	0.214404	0.991783
H103	H	1.273267	-0.245182	0.532356
H104	H	1.773267	0.254818	1.032356
H105	H	1.273196	-0.270717	0.436478
H106	H	1.773196	0.229283	0.936478
H107	H	1.118061	-0.584901	0.191414
H108	H	1.618061	-0.084901	0.691414
N109	N	1.132862	-0.178561	0.599137
N110	N	1.632862	0.321439	1.099137
H111	H	1.081487	-0.145951	0.631873
H112	H	1.581487	0.354049	1.131873
H113	H	1.178392	-0.141190	0.566375
H114	H	1.678392	0.358810	1.066375
N115	N	0.904470	-0.598524	0.177777
N116	N	1.404470	-0.098524	0.677777
H117	H	0.858937	-0.635947	0.210481
H118	H	1.358937	-0.135947	0.710481
H119	H	0.955916	-0.631078	0.145056
H120	H	1.455916	-0.131078	0.645056
H121	H	0.819679	-0.285577	0.491790
H122	H	1.319679	0.214423	0.991790
H123	H	0.919269	-0.192187	0.585509
H124	H	1.419269	0.307813	1.085509
H125	H	1.217654	-0.491490	0.285125
H126	H	1.717654	0.008510	0.785125
