data_functionalizedCrystal
_audit_creation_method	'MofGen! by Chris Wilmer'
_symmetry_space_group_name_H-M	'P1'
_symmetry_Int_Tables_number	1
_symmetry_cell_setting	triclinic
loop_
_symmetry_equiv_pos_as_xyz
  x,y,z
_cell_length_a	13.635800
_cell_length_b	27.923497
_cell_length_c	17.078481
_cell_angle_alpha	82.763225
_cell_angle_beta	99.306161
_cell_angle_gamma	81.035752
loop_
_atom_site_label
_atom_site_type_symbol
_atom_site_fract_x
_atom_site_fract_y
_atom_site_fract_z
V1	V	1.978738	-0.067014	0.247883
O2	O	1.984574	0.003337	0.242627
O3	O	1.943749	-0.132990	0.246705
O4	O	1.944439	-0.065932	0.355758
O5	O	1.983879	-0.064185	0.132819
V6	V	2.223258	-0.058605	0.234058
O7	O	2.103315	-0.085459	0.278210
O8	O	2.323779	-0.040160	0.203731
O9	O	2.146643	0.007370	0.235236
O10	O	2.276120	-0.128956	0.239314
O11	O	2.276815	-0.061434	0.349122
O12	O	2.145953	-0.059687	0.126183
V13	V	2.478738	-0.067014	0.247883
O14	O	2.484574	0.003337	0.242627
O15	O	2.443749	-0.132990	0.246705
O16	O	2.444439	-0.065932	0.355758
O17	O	2.483879	-0.064185	0.132819
V18	V	2.723258	-0.058605	0.234058
O19	O	2.603315	-0.085459	0.278210
O20	O	2.823779	-0.040160	0.203731
O21	O	2.646643	0.007370	0.235236
O22	O	2.776120	-0.128956	0.239314
O23	O	2.776815	-0.061434	0.349122
O24	O	2.645953	-0.059687	0.126183
C25	C	1.863952	-0.149075	0.242928
C26	C	1.875921	-0.203010	0.242684
C27	C	1.938167	-0.530567	0.168377
C28	C	1.983188	-0.733275	0.167416
O29	O	1.978794	-0.753623	0.105460
N30	N	2.000876	-0.765515	0.240004
C31	C	2.007315	-0.747077	0.312837
O32	O	2.023403	-0.779151	0.374556
C33	C	1.962301	-0.544370	0.313798
C34	C	1.944603	-0.512131	0.241205
C35	C	1.920470	-0.498328	0.095790
C36	C	1.909211	-0.447654	0.096030
C37	C	1.915647	-0.429219	0.168858
C38	C	1.933343	-0.461457	0.241445
C39	C	1.968748	-0.525932	0.386631
C40	C	1.957495	-0.475252	0.386865
C41	C	1.939797	-0.443013	0.314271
C42	C	1.928519	-0.392347	0.314514
N43	N	1.910831	-0.360107	0.241926
C44	C	1.904395	-0.378542	0.169098
C45	C	2.030946	-0.853500	0.312328
C46	C	2.042197	-0.904176	0.312088
C47	C	2.018071	-0.890371	0.166666
C48	C	2.006812	-0.839693	0.166907
C49	C	2.013258	-0.821259	0.239740
C50	C	1.880749	-0.272124	0.169609
C51	C	1.869485	-0.221446	0.169856
C52	C	1.893617	-0.235256	0.315277
C53	C	1.904875	-0.285929	0.315031
C54	C	1.898443	-0.304362	0.242190
O55	O	1.932912	-0.371965	0.376438
O56	O	1.888329	-0.346461	0.107390
C57	C	1.949427	-0.581241	0.168136
C58	C	1.967123	-0.613479	0.240723
C59	C	1.973559	-0.595043	0.313551
C60	C	1.978375	-0.664155	0.240483
C61	C	1.971938	-0.682591	0.167655
C62	C	1.954250	-0.650350	0.095068
C63	C	1.942990	-0.599676	0.095308
C64	C	1.991247	-0.627284	0.386139
C65	C	2.002505	-0.677957	0.385892
C66	C	1.996069	-0.696393	0.313065
C67	C	1.864832	-0.063535	0.382035
C68	C	1.877360	-0.063087	0.470226
C69	C	2.058111	0.023453	0.239011
C70	C	2.035761	0.077388	0.239260
C71	C	2.057232	-0.062085	0.099902
C72	C	2.034324	-0.062531	0.011710
C73	C	2.363952	-0.149075	0.242928
C74	C	2.375921	-0.203010	0.242684
C75	C	2.364832	-0.063535	0.382035
C76	C	2.377360	-0.063087	0.470226
C77	C	1.973515	-0.065299	0.515719
C78	C	1.985281	-0.064877	0.598584
C79	C	1.900890	-0.062248	0.635955
C80	C	1.804726	-0.060035	0.590456
C81	C	1.792961	-0.060453	0.507591
C82	C	1.926395	-0.060736	0.883347
C83	C	1.938168	-0.060320	0.966217
C84	C	2.118722	-0.065161	0.974340
C85	C	2.106949	-0.065582	0.891474
C86	C	2.010786	-0.063366	0.845981
N87	N	1.912914	-0.061819	0.720657
N88	N	1.998763	-0.063792	0.761280
C89	C	2.558111	0.023453	0.239011
C90	C	2.535761	0.077388	0.239260
C91	C	2.557232	-0.062085	0.099902
C92	C	2.534324	-0.062531	0.011710
C93	C	2.471822	-0.230811	0.246552
C94	C	2.483084	-0.281491	0.246335
C95	C	2.398443	-0.304368	0.242244
C96	C	2.302535	-0.276564	0.238377
C97	C	2.291275	-0.225885	0.238600
C98	C	2.473522	-0.065294	0.515704
C99	C	2.485306	-0.064867	0.598568
C100	C	2.400927	-0.062236	0.635953
C101	C	2.304756	-0.060028	0.590469
C102	C	2.292973	-0.060452	0.507605
C103	C	2.612354	0.105188	0.235394
C104	C	2.591363	0.155868	0.235615
C105	C	2.493781	0.178745	0.239708
C106	C	2.417182	0.150941	0.243573
C107	C	2.438171	0.100263	0.243346
C108	C	2.436471	-0.065156	-0.025654
C109	C	2.414930	-0.065569	-0.108521
C110	C	2.491244	-0.063360	-0.154021
C111	C	2.589104	-0.060734	-0.116651
C112	C	2.610642	-0.060317	-0.033787
H113	H	1.855070	-0.195198	0.110739
H114	H	1.962756	-0.460247	0.446176
H115	H	2.016908	-0.704203	0.445011
H116	H	2.540751	-0.212191	0.249879
H117	H	2.651233	-0.058934	-0.153710
H118	H	2.063578	-0.066675	0.635620
H119	H	2.690326	-0.058182	-0.003371
H120	H	2.036193	-0.838497	0.371641
H121	H	2.407626	-0.345634	0.242063
H122	H	2.337729	0.169576	0.246904
H123	H	2.561183	-0.304122	0.249481
H124	H	2.175671	-0.067722	0.861052
H125	H	2.233625	-0.295198	0.235046
H126	H	2.563620	-0.066667	0.635591
H127	H	2.473696	-0.063706	-0.221493
H128	H	2.213180	-0.203253	0.235446
H129	H	1.875509	-0.287125	0.110295
H130	H	2.375797	0.077631	0.246501
H131	H	2.410535	-0.061892	0.703427
H132	H	2.236059	-0.057886	0.620920
H133	H	2.653746	0.178499	0.232470
H134	H	2.542240	-0.067437	0.485277
H135	H	1.996490	-0.612280	0.445445
H136	H	2.214666	-0.058656	0.470583
H137	H	2.691817	0.086568	0.232062
H138	H	2.476703	0.220010	0.239892
H139	H	2.335243	-0.067708	-0.138936
H140	H	1.894807	-0.421410	0.036918
H141	H	1.915230	-0.513332	0.036481
H142	H	1.736014	-0.057891	0.620889
H143	H	1.992400	-0.813447	0.107795
H144	H	2.012827	-0.905389	0.107367
H145	H	1.714659	-0.058640	0.470548
H146	H	2.374320	-0.066954	0.011381
H147	H	1.983159	-0.552173	0.445744
H148	H	1.919270	-0.312179	0.374141
H149	H	2.056592	-0.930421	0.371200
H150	H	1.898851	-0.220236	0.374572
H151	H	1.949005	-0.665369	0.035768
H152	H	2.042239	-0.067443	0.485299
H153	H	1.928580	-0.573431	0.036195
H154	H	1.848100	-0.058949	0.846321
H155	H	2.197014	-0.066964	1.011388
H156	H	1.869441	-0.058177	0.996642
