data_functionalizedCrystal
_audit_creation_method	'MofGen! by Chris Wilmer'
_symmetry_space_group_name_H-M	'P1'
_symmetry_Int_Tables_number	1
_symmetry_cell_setting	triclinic
loop_
_symmetry_equiv_pos_as_xyz
  x,y,z
_cell_length_a	21.295418
_cell_length_b	12.759394
_cell_length_c	12.759387
_cell_angle_alpha	89.968340
_cell_angle_beta	90.042089
_cell_angle_gamma	89.969348
loop_
_atom_site_label
_atom_site_type_symbol
_atom_site_fract_x
_atom_site_fract_y
_atom_site_fract_z
Zn1	Zn	0.962414	0.417767	0.594604
Zn2	Zn	1.462414	0.917767	1.094604
Zn3	Zn	0.962348	0.593484	0.418922
Zn4	Zn	1.462348	1.093484	0.918922
Zn5	Zn	0.857140	0.417869	0.418875
Zn6	Zn	1.357140	0.917869	0.918875
Zn7	Zn	0.857135	0.593454	0.594495
Zn8	Zn	1.357135	1.093454	1.094495
O9	O	0.909760	0.505643	0.506724
O10	O	1.409760	1.005643	1.006724
O11	O	1.050495	0.441047	0.571365
O12	O	1.550495	0.941047	1.071365
O13	O	0.948367	0.570244	0.271894
O14	O	1.448367	1.070244	0.771894
O15	O	0.871135	0.270834	0.442212
O16	O	1.371135	0.770834	0.942212
O17	O	1.050446	0.570146	0.442292
O18	O	1.550446	1.070146	0.942292
O19	O	0.948479	0.270760	0.571319
O20	O	1.448479	0.770760	1.071319
O21	O	0.871071	0.441220	0.271860
O22	O	1.371071	0.941220	0.771860
O23	O	0.769050	0.441190	0.442106
O24	O	1.269050	0.941190	0.942106
O25	O	0.871126	0.570093	0.741530
O26	O	1.371126	1.070093	1.241530
O27	O	0.769047	0.570191	0.571133
O28	O	1.269047	1.070191	1.071133
O29	O	0.948474	0.441017	0.741611
O30	O	1.448474	0.941017	1.241611
O31	O	0.948362	0.740501	0.442186
O32	O	1.448362	1.240501	0.942186
O33	O	0.871063	0.740479	0.571179
O34	O	1.371063	1.240479	1.071179
C35	C	0.746208	0.505699	0.506603
C36	C	1.246208	1.005699	1.006603
C37	C	0.676240	0.505748	0.506576
C38	C	1.176240	1.005748	1.006576
C39	C	0.909807	0.505540	0.780757
C40	C	1.409807	1.005540	1.280757
C41	C	0.909827	0.505497	0.897534
C42	C	1.409827	1.005497	1.397534
C43	C	0.909722	0.778611	0.506698
C44	C	1.409722	1.278611	1.006698
C45	C	0.909763	0.895388	0.506723
C46	C	1.409763	1.395388	1.006723
C47	C	0.643388	0.573008	0.573660
C48	C	1.143388	1.073008	1.073660
C49	C	0.577645	0.572982	0.573707
C50	C	1.077645	1.072982	1.073707
C51	C	0.544757	0.505707	0.506652
C52	C	1.044757	1.005707	1.006652
C53	C	0.577617	0.438434	0.439563
C54	C	1.077617	0.938434	0.939563
C55	C	0.643358	0.438454	0.439525
C56	C	1.143358	0.938454	0.939525
N57	N	0.441482	0.497511	0.414760
N58	N	0.941482	0.997511	0.914760
N59	N	0.379030	0.497498	0.414798
N60	N	0.879030	0.997498	0.914798
C61	C	0.346683	0.505640	0.506763
C62	C	0.846683	1.005640	1.006763
N63	N	0.379146	0.513817	0.598689
N64	N	0.879146	1.013817	1.098689
N65	N	0.441603	0.513835	0.598649
N66	N	0.941603	1.013835	1.098649
C67	C	0.473472	0.505677	0.506686
C68	C	0.973472	1.005677	1.006686
C69	C	0.242545	0.572876	0.573904
C70	C	0.742545	1.072876	1.073904
C71	C	0.176801	0.572842	0.573953
C72	C	0.676801	1.072842	1.073953
C73	C	0.176775	0.438300	0.439799
C74	C	0.676775	0.938300	0.939799
C75	C	0.242517	0.438327	0.439760
C76	C	0.742517	0.938327	0.939760
C77	C	0.275398	0.505621	0.506811
C78	C	0.775398	1.005621	1.006811
C79	C	1.073950	0.505589	0.506846
C80	C	1.573950	1.005589	1.006846
C81	C	1.143918	0.505565	0.506898
C82	C	1.643918	1.005565	1.006898
C83	C	0.909815	0.231610	0.506772
C84	C	1.409815	0.731610	1.006772
C85	C	0.909838	0.114833	0.506793
C86	C	1.409838	0.614833	1.006793
C87	C	0.990315	0.895358	0.372503
C88	C	1.490315	1.395358	0.872503
C89	C	1.030608	0.950204	0.305406
C90	C	1.530608	1.450204	0.805406
C91	C	1.030645	1.059925	0.305435
C92	C	1.530645	1.559925	0.805435
C93	C	0.990386	1.114804	0.372570
C94	C	1.490386	1.614804	0.872570
C95	C	0.950094	1.059958	0.439667
C96	C	1.450094	1.559958	0.939667
C97	C	0.950060	0.950234	0.439629
C98	C	1.450060	1.450234	0.939629
C99	C	0.869546	1.059987	0.573890
C100	C	1.369546	1.559987	1.073890
C101	C	0.869504	0.950266	0.573858
C102	C	1.369504	1.450266	1.073858
C103	C	0.829287	1.114866	0.641026
C104	C	1.329287	1.614866	1.141026
C105	C	0.788990	1.060020	0.708119
C106	C	1.288990	1.560020	1.208119
C107	C	0.788954	0.950291	0.708087
C108	C	1.288954	1.450291	1.208087
C109	C	0.829212	0.895420	0.640955
C110	C	1.329212	1.395420	1.140955
C111	C	0.909748	0.505670	0.233756
C112	C	1.409748	1.005670	0.733756
C113	C	0.909850	0.505418	0.116980
C114	C	1.409850	1.005418	0.616980
C115	C	0.990375	0.371099	0.897638
C116	C	1.490375	0.871099	1.397638
C117	C	1.030658	0.303884	0.952550
C118	C	1.530658	0.803884	1.452550
C119	C	1.030673	0.303846	1.062272
C120	C	1.530673	0.803846	1.562272
C121	C	0.990400	0.371027	1.117084
C122	C	1.490400	0.871027	1.617084
C123	C	0.950117	0.438242	1.062171
C124	C	1.450117	0.938242	1.562171
C125	C	0.950108	0.438275	0.952447
C126	C	1.450108	0.938275	1.452447
C127	C	0.869567	0.572633	1.062068
C128	C	1.369567	1.072633	1.562068
C129	C	0.869554	0.572678	0.952346
C130	C	1.369554	1.072678	1.452346
C131	C	0.829294	0.639814	1.116879
C132	C	1.329294	1.139814	1.616879
C133	C	0.789014	0.707036	1.061967
C134	C	1.289014	1.207036	1.561967
C135	C	0.789001	0.707072	0.952238
C136	C	1.289001	1.207072	1.452238
C137	C	0.829272	0.639893	0.897433
C138	C	1.329272	1.139893	1.397433
H139	H	0.670156	0.627802	0.628260
H140	H	1.170156	1.127802	1.128260
H141	H	0.990373	0.371133	0.808296
H142	H	1.490373	0.871133	1.308296
H143	H	1.063458	1.104581	0.250803
H144	H	1.563458	1.604581	0.750803
H145	H	0.670106	0.383680	0.384897
H146	H	1.170106	0.883680	0.884897
H147	H	0.756218	1.104710	0.762780
H148	H	1.256218	1.604710	1.262780
H149	H	0.269318	0.627665	0.628506
H150	H	0.769318	1.127665	1.128506
H151	H	1.063446	0.249185	0.907910
H152	H	1.563446	0.749185	1.407910
H153	H	0.756146	0.905642	0.762730
H154	H	1.256146	1.405642	1.262730
H155	H	0.550892	0.627753	0.628339
H156	H	1.050892	1.127753	1.128339
H157	H	0.550836	0.383656	0.384968
H158	H	1.050836	0.883656	0.884968
H159	H	0.269265	0.383562	0.385127
H160	H	0.769265	0.883562	0.885127
H161	H	0.756191	0.761795	0.907535
H162	H	1.256191	1.261795	1.407535
H163	H	0.829307	0.639774	1.206221
H164	H	1.329307	1.139774	1.706221
H165	H	0.829183	0.806079	0.640916
H166	H	1.329183	1.306079	1.140916
H167	H	0.990281	0.806017	0.372460
H168	H	1.490281	1.306017	0.872460
H169	H	0.829322	1.204207	0.641049
H170	H	1.329322	1.704207	1.141049
H171	H	0.150054	0.627612	0.628587
H172	H	0.650054	1.127612	1.128587
H173	H	0.990411	0.370981	1.206425
H174	H	1.490411	0.870981	1.706425
H175	H	1.063471	0.249107	1.106982
H176	H	1.563471	0.749107	1.606982
H177	H	0.149998	0.383518	0.385206
H178	H	0.649998	0.883518	0.885206
H179	H	1.063388	0.905512	0.250747
H180	H	1.563388	1.405512	0.750747
H181	H	0.756224	0.761724	1.106603
H182	H	1.256224	1.261724	1.606603
H183	H	0.990425	1.204145	0.372596
H184	H	1.490425	1.704145	0.872596
H185	H	0.829268	0.639920	0.808092
H186	H	1.329268	1.139920	1.308092
