data_functionalizedCrystal
_audit_creation_method	'MofGen! by Chris Wilmer'
_symmetry_space_group_name_H-M	'P1'
_symmetry_Int_Tables_number	1
_symmetry_cell_setting	triclinic
loop_
_symmetry_equiv_pos_as_xyz
  x,y,z
_cell_length_a	10.489763
_cell_length_b	18.266242
_cell_length_c	10.489741
_cell_angle_alpha	90.006017
_cell_angle_beta	95.456233
_cell_angle_gamma	89.992881
loop_
_atom_site_label
_atom_site_type_symbol
_atom_site_fract_x
_atom_site_fract_y
_atom_site_fract_z
O1	O	-1.694045	0.060849	0.180106
O2	O	-1.322853	0.060857	0.196969
O3	O	-1.516896	0.060848	0.002941
O4	O	-1.500003	0.060857	0.374135
O5	O	-1.516862	-0.060914	0.002930
O6	O	-1.322820	-0.060905	0.196959
O7	O	-1.694012	-0.060913	0.180096
Zn8	Zn	-1.508411	-0.080241	0.188526
Zn9	Zn	-1.508455	0.080185	0.188540
O10	O	-1.499970	-0.060905	0.374125
C11	C	-1.275305	-0.000023	0.195684
C12	C	-1.133677	-0.000020	0.191856
N13	N	-1.508390	-0.189728	0.188516
C14	C	-1.065538	-0.000030	0.068386
C15	C	-0.973428	0.060004	0.126707
C16	C	-0.973430	-0.060044	0.126726
C17	C	-1.043433	0.060064	0.250228
C18	C	-1.043444	-0.060038	0.250230
C19	C	-0.951362	0.000011	0.308641
C20	C	-1.594341	-0.228041	0.102643
C21	C	-1.594349	-0.304686	0.102637
C22	C	-1.508419	-0.343015	0.188526
C23	C	-1.422451	-0.304693	0.274406
C24	C	-1.422437	-0.228050	0.274400
N25	N	-1.493219	-0.463345	0.301247
N26	N	-1.493240	-0.536153	0.301248
C27	C	-1.508454	-0.573938	0.188545
N28	N	-1.523672	-0.536164	0.075838
N29	N	-1.523657	-0.463349	0.075838
C30	C	-1.508424	-0.426122	0.188541
C31	C	-1.594419	-0.695358	0.102659
C32	C	-1.594418	-0.772004	0.102651
C33	C	-1.422527	-0.772010	0.274431
C34	C	-1.422521	-0.695365	0.274427
C35	C	-1.508474	-0.657043	0.188543
C36	C	-0.741562	-0.000034	0.181361
C37	C	-0.883198	-0.000038	0.185129
C38	C	-1.515603	-0.000032	-0.044596
C39	C	-1.511786	-0.000031	-0.186226
N40	N	-1.508485	0.189672	0.188540
C41	C	-1.388322	-0.000023	-0.254376
C42	C	-1.446629	-0.060059	-0.346499
C43	C	-1.446691	0.059989	-0.346463
C44	C	-1.570143	-0.060117	-0.276484
C45	C	-1.570188	0.059985	-0.276438
C46	C	-1.628584	-0.000066	-0.368534
C47	C	-1.501262	-0.000022	0.421662
C48	C	-1.505079	-0.000019	0.563291
H49	H	-1.115227	0.000043	-0.033106
H50	H	-1.664403	-0.664155	0.032722
H51	H	-1.074275	0.110877	0.302435
H52	H	-1.664406	-0.803199	0.032716
C53	C	-1.765781	-0.000152	-0.435425
H54	H	-1.778573	0.042500	-0.486875
H55	H	-1.777916	-0.042427	-0.487925
H56	H	-1.825484	-0.000586	-0.372770
H57	H	-1.664326	-0.196842	0.032708
H58	H	-1.394449	0.110750	-0.377427
C59	C	-1.327896	-0.185904	0.368874
H60	H	-1.276722	-0.219706	0.420032
H61	H	-1.274379	-0.156012	0.322466
H62	H	-1.374273	-0.155999	0.422430
H63	H	-1.394375	-0.110813	-0.377519
H64	H	-1.352556	-0.803217	0.344359
H65	H	-1.664343	-0.335886	0.032706
H66	H	-1.352537	-0.664168	0.344358
H67	H	-0.942428	0.110757	0.074468
C68	C	-1.640633	-0.128763	-0.234849
H69	H	-1.667662	-0.157394	-0.308083
H70	H	-1.584534	-0.156825	-0.177609
H71	H	-1.713210	-0.114415	-0.193184
C72	C	-0.931565	-0.128611	0.056124
H73	H	-0.971050	-0.128533	-0.029225
H74	H	-0.841137	-0.128361	0.054870
H75	H	-0.956711	-0.171243	0.099156
C76	C	-0.884582	0.000057	0.445884
H77	H	-0.908544	0.042744	0.489534
H78	H	-0.909613	-0.042183	0.490070
H79	H	-0.794377	-0.000345	0.442712
H80	H	-1.622398	0.110742	-0.245385
C81	C	-1.251192	-0.000089	-0.187317
H82	H	-1.238473	0.042590	-0.135913
H83	H	-1.239064	-0.042336	-0.134761
H84	H	-1.191437	-0.000549	-0.249921
C85	C	-1.085382	-0.128602	0.320738
H86	H	-1.061674	-0.171221	0.276745
H87	H	-1.044708	-0.129032	0.405604
H88	H	-1.175654	-0.127860	0.323332
C89	C	-1.327934	-0.346852	0.368885
H90	H	-1.340262	-0.397986	0.356599
H91	H	-1.242676	-0.334307	0.354194
H92	H	-1.342570	-0.334280	0.454159
