data_functionalizedCrystal
_audit_creation_method	'MofGen! by Chris Wilmer'
_symmetry_space_group_name_H-M	'P1'
_symmetry_Int_Tables_number	1
_symmetry_cell_setting	triclinic
loop_
_symmetry_equiv_pos_as_xyz
  x,y,z
_cell_length_a	14.971486
_cell_length_b	15.186229
_cell_length_c	14.971486
_cell_angle_alpha	89.996046
_cell_angle_beta	96.385871
_cell_angle_gamma	89.998401
loop_
_atom_site_label
_atom_site_type_symbol
_atom_site_fract_x
_atom_site_fract_y
_atom_site_fract_z
O1	O	1.186943	0.073128	-0.116562
O2	O	1.686943	0.573128	0.383438
O3	O	0.926543	0.073152	-0.130520
O4	O	1.426543	0.573152	0.369480
O5	O	1.063723	0.073133	0.006659
O6	O	1.563723	0.573133	0.506659
O7	O	1.049764	0.073147	-0.253741
O8	O	1.549764	0.573147	0.246259
O9	O	1.063713	-0.073324	0.006661
O10	O	1.563713	0.426676	0.506661
O11	O	0.926534	-0.073305	-0.130518
O12	O	1.426534	0.426695	0.369482
O13	O	1.186934	-0.073330	-0.116560
O14	O	1.686934	0.426670	0.383440
Zn15	Zn	1.056733	-0.096571	-0.123539
Zn16	Zn	1.556733	0.403429	0.376461
Zn17	Zn	1.056745	0.096393	-0.123541
Zn18	Zn	1.556745	0.596393	0.376459
O19	O	1.049755	-0.073311	-0.253739
O20	O	1.549755	0.426689	0.246261
C21	C	0.893214	-0.000074	-0.129895
C22	C	1.393214	0.499926	0.370105
C23	C	0.793917	-0.000065	-0.128024
C24	C	1.293917	0.499935	0.371976
N25	N	1.056731	-0.228263	-0.123536
N26	N	1.556731	0.271737	0.376464
C27	C	0.736692	-0.000062	-0.208614
C28	C	1.236692	0.499938	0.291386
C29	C	0.643392	-0.000075	-0.206850
C30	C	1.143392	0.499925	0.293150
C31	C	0.607320	-0.000085	-0.124497
C32	C	1.107320	0.499915	0.375503
C33	C	0.664552	-0.000091	-0.043902
C34	C	1.164552	0.499909	0.456098
C35	C	0.757850	-0.000084	-0.045666
C36	C	1.257850	0.499916	0.454334
C37	C	0.470090	-0.000103	-0.040231
C38	C	0.970090	0.499897	0.459769
C39	C	0.376786	-0.000108	-0.038466
C40	C	0.876786	0.499892	0.461534
C41	C	0.355632	-0.000094	-0.201415
C42	C	0.855632	0.499906	0.298585
C43	C	0.448930	-0.000087	-0.203179
C44	C	0.948930	0.499913	0.296821
C45	C	0.506156	-0.000091	-0.122584
C46	C	1.006156	0.499909	0.377416
C47	C	1.117495	-0.453995	-0.062814
C48	C	1.617495	0.046005	0.437186
C49	C	1.117498	-0.546184	-0.062812
C50	C	1.617498	-0.046184	0.437188
C51	C	0.995983	-0.546177	-0.184262
C52	C	1.495983	-0.046177	0.315738
C53	C	0.995977	-0.453989	-0.184259
C54	C	1.495977	0.046011	0.315741
C55	C	1.056738	-0.407900	-0.123536
C56	C	1.556738	0.092100	0.376464
C57	C	1.056747	-0.592278	-0.123537
C58	C	1.556747	-0.092278	0.376463
C59	C	1.056749	-0.692234	-0.123535
C60	C	1.556749	-0.192234	0.376465
C61	C	1.056734	-0.307938	-0.123536
C62	C	1.556734	0.192062	0.376464
C63	C	1.220263	-0.000102	-0.117185
C64	C	1.720263	0.499898	0.382815
C65	C	1.319561	-0.000105	-0.119056
C66	C	1.819561	0.499895	0.380944
C67	C	1.063094	-0.000095	0.039985
C68	C	1.563094	0.499905	0.539985
C69	C	1.061223	-0.000095	0.139282
C70	C	1.561223	0.499905	0.639282
N71	N	1.056754	0.228086	-0.123536
N72	N	1.556754	0.728086	0.376464
C73	C	1.050384	-0.000080	-0.287065
C74	C	1.550384	0.499920	0.212935
C75	C	1.052254	-0.000076	-0.386362
C76	C	1.552254	0.499924	0.113638
C77	C	1.141812	-0.000103	0.196507
C78	C	1.641812	0.499897	0.696507
C79	C	1.140049	-0.000094	0.289807
C80	C	1.640049	0.499906	0.789807
C81	C	1.057696	-0.000083	0.325879
C82	C	1.557696	0.499917	0.825879
C83	C	0.977101	-0.000072	0.268646
C84	C	1.477101	0.499928	0.768646
C85	C	0.978865	-0.000075	0.175349
C86	C	1.478865	0.499925	0.675349
C87	C	0.973430	-0.000069	0.463109
C88	C	1.473430	0.499931	0.963109
C89	C	0.971665	-0.000067	0.556413
C90	C	1.471665	0.499933	1.056413
C91	C	1.134614	-0.000087	0.577567
C92	C	1.634614	0.499913	1.077567
C93	C	1.136378	-0.000090	0.484269
C94	C	1.636378	0.499910	0.984269
C95	C	1.055782	-0.000081	0.427043
C96	C	1.555782	0.499919	0.927043
H97	H	0.766054	-0.000053	-0.275675
H98	H	1.266054	0.499947	0.224325
Cl99	Cl	1.245348	-0.000125	0.151169
Cl100	Cl	1.745348	0.499875	0.651169
Cl101	Cl	1.239909	-0.000099	0.438922
Cl102	Cl	1.739909	0.499901	0.938922
Cl103	Cl	0.331439	-0.000150	0.065065
Cl104	Cl	0.831439	0.499850	0.565065
Cl105	Cl	1.241366	-0.000106	0.361744
Cl106	Cl	1.741366	0.499894	0.861744
H107	H	1.166970	-0.583712	-0.013365
H108	H	1.666970	-0.083712	0.486635
Cl109	Cl	0.873570	-0.000048	0.313995
Cl110	Cl	1.373570	0.499952	0.813995
Cl111	Cl	0.829791	-0.000091	0.055651
Cl112	Cl	1.329791	0.499909	0.555651
Cl113	Cl	0.919605	-0.604121	-0.260599
Cl114	Cl	1.419605	-0.104121	0.239401
H115	H	0.907800	-0.000059	0.416517
H116	H	1.407800	0.499941	0.916517
Cl117	Cl	1.193876	-0.396058	0.013527
Cl118	Cl	1.693876	0.103942	0.513527
H119	H	0.946497	-0.416456	-0.233707
H120	H	1.446497	0.083544	0.266293
H121	H	1.200238	-0.000092	0.624165
H122	H	1.700238	0.499908	1.124165
H123	H	0.596802	-0.000072	-0.272474
H124	H	1.096802	0.499928	0.227526
H125	H	0.478296	-0.000071	-0.270239
H126	H	0.978296	0.499929	0.229761
H127	H	0.913240	-0.000068	0.128756
H128	H	1.413240	0.499932	0.628756
Cl129	Cl	0.283691	-0.000091	-0.302736
Cl130	Cl	0.783691	0.499909	0.197264
Cl131	Cl	0.542030	-0.000110	0.061092
Cl132	Cl	1.042030	0.499890	0.561092
H133	H	0.904606	-0.000073	0.585780
H134	H	1.404606	0.499927	1.085780
H135	H	0.635175	-0.000111	0.023152
H136	H	1.135175	0.499889	0.523152
