data_functionalizedCrystal
_audit_creation_method	'MofGen! by Chris Wilmer'
_symmetry_space_group_name_H-M	'P1'
_symmetry_Int_Tables_number	1
_symmetry_cell_setting	triclinic
loop_
_symmetry_equiv_pos_as_xyz
  x,y,z
_cell_length_a	11.026607
_cell_length_b	11.792241
_cell_length_c	9.482900
_cell_angle_alpha	99.398500
_cell_angle_beta	78.636152
_cell_angle_gamma	96.389716
loop_
_atom_site_label
_atom_site_type_symbol
_atom_site_fract_x
_atom_site_fract_y
_atom_site_fract_z
O1	O	1.632118	0.461983	-0.120906
O2	O	2.132118	0.961983	0.379094
O3	O	1.278456	0.407791	-0.120907
O4	O	1.778456	0.907791	0.379093
O5	O	1.463868	0.271422	-0.120897
O6	O	1.963868	0.771422	0.379103
O7	O	1.446706	0.598353	-0.120917
O8	O	1.946706	1.098353	0.379083
O9	O	1.426207	0.299264	0.120894
O10	O	1.926207	0.799264	0.620894
O11	O	1.240795	0.435633	0.120883
O12	O	1.740795	0.935633	0.620883
O13	O	1.594458	0.489825	0.120884
O14	O	2.094458	0.989825	0.620884
Cu15	Cu	1.414188	0.465271	0.142961
Cu16	Cu	1.914188	0.965271	0.642961
Cu17	Cu	1.458726	0.432345	-0.142984
Cu18	Cu	1.958726	0.932345	0.357016
O19	O	1.409046	0.626195	0.120873
O20	O	1.909046	1.126195	0.620873
C21	C	1.214349	0.411715	-0.000012
C22	C	1.714349	0.911715	0.499988
C23	C	1.079439	0.381912	-0.000012
C24	C	1.579439	0.881912	0.499988
C25	C	1.006176	0.464202	-0.000018
C26	C	1.506176	0.964202	0.499982
C27	C	0.866739	0.433401	-0.000018
C28	C	1.366739	0.933401	0.499982
C29	C	1.443960	0.242838	-0.000002
C30	C	1.943960	0.742838	0.499998
C31	C	1.440733	0.116183	-0.000003
C32	C	1.940733	0.616183	0.499997
C33	C	1.434802	-0.115710	-0.000028
C34	C	1.934802	0.384290	0.499972
C35	C	1.438097	0.013331	-0.000014
C36	C	1.938097	0.513331	0.499986
C37	C	1.658565	0.485901	-0.000014
C38	C	2.158565	0.985901	0.499986
C39	C	1.793477	0.515703	-0.000024
C40	C	2.293477	1.015703	0.499976
C41	C	1.428955	0.654778	-0.000025
C42	C	1.928955	1.154778	0.499975
C43	C	1.432183	0.781432	-0.000033
C44	C	1.932183	1.281432	0.499967
N45	N	1.382871	0.488431	0.344079
N46	N	1.882871	0.988431	0.844079
N47	N	1.490052	0.409178	-0.344102
N48	N	1.990052	0.909178	0.155898
C49	C	1.449480	0.439169	0.416282
C50	C	1.949480	0.939169	0.916282
C51	C	1.423433	0.458448	0.583698
C52	C	1.923433	0.958448	1.083698
H53	H	1.038939	0.288655	-0.000043
H54	H	1.538939	0.788655	0.499957
H55	H	1.046680	0.557456	-0.000015
H56	H	1.546680	1.057456	0.499985
C57	C	0.789884	0.710106	0.124253
C58	C	1.289884	1.210106	0.624253
C59	C	0.848149	0.641599	-0.000036
C60	C	1.348149	1.141599	0.499964
H61	H	0.823647	0.787825	0.124245
H62	H	1.323647	1.287825	0.624245
H63	H	0.703365	0.705931	0.124241
H64	H	1.203365	1.205931	0.624241
H65	H	0.803147	0.683033	0.208566
H66	H	1.303147	1.183033	0.708566
H67	H	0.834879	0.668668	-0.084349
H68	H	1.334879	1.168668	0.415651
H69	H	0.934689	0.645780	-0.000037
H70	H	1.434689	1.145780	0.499963
C71	C	1.526323	0.251402	0.369037
C72	C	2.026323	0.751402	0.869037
C73	C	1.552504	0.362982	0.332388
C74	C	2.052504	0.862982	0.832388
H75	H	1.589926	0.204373	0.317227
H76	H	2.089926	0.704373	0.817227
H77	H	1.522364	0.254344	0.470522
H78	H	2.022364	0.754344	0.970522
H79	H	1.448928	0.219809	0.344190
H80	H	1.948928	0.719809	0.844190
H81	H	1.629894	0.394578	0.357245
H82	H	2.129894	0.894578	0.857245
H83	H	1.556476	0.360043	0.230880
H84	H	2.056476	0.860043	0.730880
H85	H	0.826244	0.340138	-0.000049
H86	H	1.326244	0.840138	0.499951
C87	C	1.206344	0.488056	0.630897
C88	C	1.706344	0.988056	1.130897
C89	C	1.320406	0.534654	0.667550
C90	C	1.820406	1.034654	1.167550
H91	H	1.142741	0.535099	0.682673
H92	H	1.642741	1.035099	1.182673
H93	H	1.210339	0.485109	0.529404
H94	H	1.710339	0.985109	1.029404
H95	H	1.188588	0.412364	0.655781
H96	H	1.688588	0.912364	1.155781
H97	H	1.338166	0.610343	0.642656
H98	H	1.838166	1.110343	1.142656
H99	H	1.316412	0.537615	0.769065
H100	H	1.816412	1.037615	1.269065
H101	H	1.566362	0.352721	0.593777
H102	H	2.066362	0.852721	1.093777
H103	H	1.306557	0.544875	0.406205
H104	H	1.806557	1.044875	0.906205
