data_functionalizedCrystal
_audit_creation_method	'MofGen! by Chris Wilmer'
_symmetry_space_group_name_H-M	'P1'
_symmetry_Int_Tables_number	1
_symmetry_cell_setting	triclinic
loop_
_symmetry_equiv_pos_as_xyz
  x,y,z
_cell_length_a	11.792241
_cell_length_b	14.853567
_cell_length_c	13.330367
_cell_angle_alpha	90.000844
_cell_angle_beta	90.003349
_cell_angle_gamma	83.914173
loop_
_atom_site_label
_atom_site_type_symbol
_atom_site_fract_x
_atom_site_fract_y
_atom_site_fract_z
O1	O	-1.506151	-0.123567	-0.083317
O2	O	-1.175732	-0.136302	-0.083339
O3	O	-1.349768	0.001261	-0.083331
O4	O	-1.332116	-0.261130	-0.083326
O5	O	-1.349742	0.001264	0.083516
O6	O	-1.175706	-0.136299	0.083508
O7	O	-1.506126	-0.123564	0.083530
Cu8	Cu	-1.340914	-0.129931	0.098753
Cu9	Cu	-1.340944	-0.129935	-0.098563
O10	O	-1.332090	-0.261127	0.083521
C11	C	-1.133433	-0.135501	0.000081
C12	C	-1.007434	-0.133106	0.000072
C13	C	-1.348955	0.034854	0.000090
C14	C	-1.346558	0.134947	0.000081
C15	C	-1.548425	-0.124366	0.000107
C16	C	-1.674424	-0.126760	0.000110
C17	C	-0.776749	-0.128704	0.000101
C18	C	-0.905119	-0.131150	0.000085
C19	C	-1.332903	-0.294720	0.000099
C20	C	-1.335300	-0.394813	0.000101
N21	N	-1.340901	-0.129928	0.237535
C22	C	-1.233045	0.547923	0.000092
C23	C	-1.439804	0.568399	0.000106
C24	C	-1.442058	0.474356	0.000101
C25	C	-1.339804	0.417093	0.000092
C26	C	-1.235296	0.453871	0.000090
C27	C	-1.546563	0.437570	0.000113
C28	C	-1.548821	0.343522	0.000109
C29	C	-1.446566	0.286257	0.000093
C30	C	-1.342054	0.323041	0.000090
C31	C	-1.239800	0.265777	0.000081
C32	C	-1.135287	0.302560	0.000070
C33	C	-1.133041	0.396606	0.000074
C34	C	-1.448812	0.192211	0.000089
C35	C	-1.242051	0.171726	0.000078
N36	N	-1.340966	-0.129931	-0.237344
C37	C	-1.263877	-0.190824	0.710154
C38	C	-1.418041	-0.069039	0.710130
C39	C	-1.418028	-0.069037	0.605111
C40	C	-1.340940	-0.129929	0.552609
C41	C	-1.263864	-0.190825	0.605126
C42	C	-1.495110	-0.008148	0.552587
C43	C	-1.495101	-0.008144	0.447562
C44	C	-1.418006	-0.069033	0.395058
C45	C	-1.340927	-0.129930	0.447581
C46	C	-1.263839	-0.190823	0.395079
C47	C	-1.186753	-0.251716	0.447600
C48	C	-1.186770	-0.251714	0.552622
C49	C	-1.417989	-0.069036	0.290037
C50	C	-1.263826	-0.190824	0.290051
H51	H	-1.158782	0.125107	0.000067
C52	C	-1.179079	-0.257798	0.767927
N53	N	-1.115207	-0.308241	0.811443
C54	C	-1.563769	0.151754	0.000102
N55	N	-1.650361	0.121283	0.000108
C56	C	-1.579887	0.058847	0.389799
N57	N	-1.643745	0.109308	0.346290
H58	H	-1.052032	0.255923	0.000071
H59	H	-1.480809	-0.019467	0.752880
H60	H	-1.557878	0.041424	0.595337
H61	H	-1.201047	-0.240407	0.247310
H62	H	-1.123992	-0.301300	0.404841
C63	C	-1.552277	0.631391	0.000121
N64	N	-1.636996	0.678842	0.000130
C65	C	-1.101978	-0.318686	0.610403
N66	N	-1.038112	-0.369128	0.653927
H67	H	-1.629813	0.484201	0.000130
H68	H	-1.633922	0.313583	0.000116
C69	C	-1.118086	0.588384	0.000090
N70	N	-1.031498	0.618860	0.000092
C71	C	-1.018087	0.437074	0.000083
N72	N	-0.931504	0.467559	0.000099
C73	C	-1.502779	-0.002057	0.232269
N74	N	-1.566645	0.048396	0.188759
