data_functionalizedCrystal
_audit_creation_method	'MofGen! by Chris Wilmer'
_symmetry_space_group_name_H-M	'P1'
_symmetry_Int_Tables_number	1
_symmetry_cell_setting	triclinic
loop_
_symmetry_equiv_pos_as_xyz
  x,y,z
_cell_length_a	11.026607
_cell_length_b	11.026607
_cell_length_c	9.730223
_cell_angle_alpha	90.002448
_cell_angle_beta	90.002620
_cell_angle_gamma	108.586017
loop_
_atom_site_label
_atom_site_type_symbol
_atom_site_fract_x
_atom_site_fract_y
_atom_site_fract_z
O1	O	1.726731	0.533623	0.114287
O2	O	2.226731	1.033623	0.614287
O3	O	1.360151	0.472859	0.114289
O4	O	1.860151	0.972859	0.614289
O5	O	1.513059	0.319951	0.114283
O6	O	2.013059	0.819951	0.614283
O7	O	1.573823	0.686531	0.114292
O8	O	2.073823	1.186531	0.614292
O9	O	1.513046	0.319943	-0.114297
O10	O	2.013046	0.819943	0.385703
O11	O	1.360137	0.472851	-0.114291
O12	O	1.860137	0.972851	0.385709
O13	O	1.726717	0.533615	-0.114293
O14	O	2.226717	1.033615	0.385707
Zn15	Zn	1.543425	0.503232	-0.150584
Zn16	Zn	2.043425	1.003232	0.349416
Zn17	Zn	1.543443	0.503242	0.150580
Zn18	Zn	2.043443	1.003242	0.650580
O19	O	1.573809	0.686523	-0.114288
O20	O	2.073809	1.186523	0.385712
C21	C	1.312485	0.461645	-0.000001
C22	C	1.812485	0.961645	0.499999
C23	C	1.170471	0.428228	-0.000000
C24	C	1.670471	0.928228	0.500000
C25	C	1.501843	0.272287	-0.000005
C26	C	2.001843	0.772287	0.499995
C27	C	1.468426	0.130273	-0.000000
C28	C	1.968426	0.630273	0.500000
C29	C	1.116821	0.520498	0.000003
C30	C	1.616821	1.020498	0.500003
C31	C	0.970043	0.485962	0.000004
C32	C	1.470043	0.985962	0.500004
C33	C	1.560695	0.076624	0.000001
C34	C	2.060695	0.576624	0.500001
C35	C	1.526160	-0.070155	0.000006
C36	C	2.026160	0.429845	0.500006
C37	C	1.774384	0.544828	-0.000001
C38	C	2.274384	1.044828	0.499999
C39	C	1.916398	0.578245	0.000007
C40	C	2.416398	1.078245	0.500007
C41	C	1.585026	0.734187	0.000004
C42	C	2.085026	1.234187	0.500004
C43	C	1.618443	0.876200	0.000008
C44	C	2.118443	1.376200	0.500008
N45	N	1.543422	0.503226	-0.356121
N46	N	2.043422	1.003226	0.143879
C47	C	1.611167	0.435561	-0.428049
C48	C	2.111167	0.935561	0.071951
C49	C	1.611180	0.435564	-0.571932
C50	C	2.111180	0.935564	-0.071932
C51	C	1.475701	0.570907	-0.571945
C52	C	1.975701	1.070907	-0.071945
C53	C	1.475682	0.570896	-0.428065
C54	C	1.975682	1.070896	0.071935
N55	N	1.543454	0.503240	0.356116
N56	N	2.043454	1.003240	0.856116
H57	H	1.179555	0.625061	-0.000002
H58	H	1.679555	1.125061	0.499998
H59	H	1.421590	-0.132884	0.000016
H60	H	1.921590	0.367116	0.500016
H61	H	1.420510	0.625996	-0.369497
H62	H	1.920510	1.125996	0.130503
H63	H	1.363863	0.067540	0.000009
H64	H	1.863863	0.567540	0.500009
H65	H	0.907314	0.381393	0.000037
H66	H	1.407314	0.881393	0.500037
H67	H	1.420550	0.626005	-0.630537
H68	H	1.920550	1.126005	-0.130537
H69	H	1.723013	-0.061072	0.000110
H70	H	2.223013	0.438928	0.500110
H71	H	1.666323	0.380457	-0.369476
H72	H	2.166323	0.880457	0.130524
H73	H	0.979125	0.682816	0.000001
H74	H	1.479125	1.182816	0.500001
H75	H	1.666342	0.380463	-0.630493
H76	H	2.166342	0.880463	-0.130493
H77	H	1.107738	0.323666	0.000032
H78	H	1.607738	0.823666	0.500032
H79	H	1.665258	0.139357	-0.000008
H80	H	2.165258	0.639357	0.499992
