data_functionalizedCrystal
_audit_creation_method	'MofGen! by Chris Wilmer'
_symmetry_space_group_name_H-M	'P1'
_symmetry_Int_Tables_number	1
_symmetry_cell_setting	triclinic
loop_
_symmetry_equiv_pos_as_xyz
  x,y,z
_cell_length_a	13.032831
_cell_length_b	12.594516
_cell_length_c	13.033109
_cell_angle_alpha	97.157122
_cell_angle_beta	76.665514
_cell_angle_gamma	82.821304
loop_
_atom_site_label
_atom_site_type_symbol
_atom_site_fract_x
_atom_site_fract_y
_atom_site_fract_z
Zn1	Zn	1.700141	-0.748268	-0.806459
Zn2	Zn	1.677479	-0.900368	-0.628852
Zn3	Zn	1.499964	-0.696498	-0.606348
Zn4	Zn	1.522494	-0.900274	-0.783896
O5	O	1.600020	-0.811352	-0.706389
O6	O	1.845772	-0.790150	-0.801759
O7	O	1.635018	-0.851697	-0.477233
O8	O	1.526573	-0.554430	-0.632918
O9	O	1.829122	-0.901897	-0.671272
O10	O	1.673643	-0.592466	-0.779938
O11	O	1.504598	-0.701914	-0.460700
O12	O	1.354315	-0.701823	-0.611040
O13	O	1.564973	-0.901737	-0.935522
O14	O	1.370868	-0.851537	-0.741483
O15	O	1.695489	-0.790059	-0.952099
O16	O	1.656865	-1.049291	-0.649394
O17	O	1.542998	-1.049222	-0.763304
C18	C	1.324052	-0.771053	-0.671372
C19	C	1.205995	-0.753843	-0.656417
C20	C	1.161567	-0.820335	-0.714194
C21	C	1.039549	-0.802548	-0.698738
C22	C	1.599949	-1.087881	-0.706369
C23	C	1.600020	-1.206201	-0.706409
C24	C	1.538074	-1.275447	-0.768314
C25	C	1.499887	-1.328404	-0.668117
C26	C	1.638306	-1.364059	-0.806635
C27	C	1.561775	-1.257585	-0.606154
C28	C	1.700247	-1.293250	-0.744743
C29	C	1.662088	-1.346171	-0.644484
C30	C	1.877065	-0.851809	-0.741543
C31	C	1.995125	-0.869049	-0.756523
C32	C	1.635272	-0.851663	-0.983427
C33	C	1.650295	-0.868841	-1.101484
C34	C	1.600123	-0.533751	-0.706435
C35	C	1.600167	-0.415453	-0.706455
C36	C	1.592463	-0.802390	-1.145938
C37	C	1.607988	-0.820143	-1.267956
C38	C	1.564965	-0.771130	-0.430436
C39	C	1.550148	-0.753682	-0.312405
H40	H	0.987256	-0.732445	-0.637832
H41	H	1.047418	-0.939144	-0.817441
H42	H	1.531453	-0.732360	-1.093662
H43	H	1.668997	-0.890182	-1.320228
H44	H	1.714527	-1.377023	-0.592083
N45	N	1.140386	-0.665904	-0.580021
N46	N	1.041360	-0.651576	-0.567579
H47	H	0.995023	-0.589466	-0.513624
N48	N	1.678865	-1.422005	-0.912931
N49	N	1.686156	-1.522891	-0.929854
H50	H	1.714794	-1.563814	-1.004926
H51	H	1.485571	-1.244370	-0.820564
H52	H	1.213864	-0.890425	-0.775104
N53	N	1.521092	-1.199793	-0.499809
N54	N	1.514419	-1.098978	-0.482633
H55	H	1.485678	-1.058158	-0.407530
N56	N	1.806477	-1.273123	-0.785441
N57	N	1.857168	-1.314268	-0.878431
H58	H	1.932196	-1.300055	-0.907185
N59	N	1.473607	-0.665829	-1.246826
N60	N	1.461098	-0.651532	-1.147798
H61	H	1.407041	-0.589487	-1.101481
H62	H	1.711299	-0.938876	-1.153760
N63	N	1.393631	-1.348505	-0.627466
N64	N	1.322486	-1.322660	-0.673811
H65	H	1.247440	-1.336852	-0.645107
