data_functionalizedCrystal
_audit_creation_method	'MofGen! by Chris Wilmer'
_symmetry_space_group_name_H-M	'P1'
_symmetry_Int_Tables_number	1
_symmetry_cell_setting	triclinic
loop_
_symmetry_equiv_pos_as_xyz
  x,y,z
_cell_length_a	19.188930
_cell_length_b	8.559649
_cell_length_c	7.088929
_cell_angle_alpha	84.655815
_cell_angle_beta	96.168759
_cell_angle_gamma	76.461723
loop_
_atom_site_label
_atom_site_type_symbol
_atom_site_fract_x
_atom_site_fract_y
_atom_site_fract_z
O1	O	0.907629	0.216103	-0.159581
O2	O	0.702920	0.242953	-0.159448
O3	O	0.823310	-0.003199	-0.159524
O4	O	0.787240	0.462255	-0.159505
O5	O	0.839403	-0.036169	0.158441
O6	O	0.719013	0.209983	0.158517
O7	O	0.923722	0.183133	0.158384
Cu8	Cu	0.822837	0.193548	0.187483
Cu9	Cu	0.803805	0.232538	-0.188547
O10	O	0.803333	0.429285	0.158460
C11	C	0.834090	-0.079233	-0.000547
C12	C	0.842226	-0.256668	-0.000563
C13	C	0.685002	0.225596	-0.000449
C14	C	0.607637	0.222980	-0.000399
C15	C	0.555159	0.367421	-0.000422
C16	C	0.482463	0.364970	-0.000444
C17	C	0.462245	0.218073	-0.000479
C18	C	0.514734	0.073612	-0.000444
C19	C	0.587430	0.076065	-0.000404
N20	N	0.354655	0.117016	-0.108778
N21	N	0.285596	0.114695	-0.108820
C22	C	0.243218	0.210672	-0.000596
N23	N	0.272505	0.309083	0.107648
N24	N	0.341570	0.311409	0.107682
C25	C	0.383421	0.215396	-0.000522
C26	C	0.111914	0.352465	-0.000640
C27	C	0.039217	0.350006	-0.000650
C28	C	0.071489	0.058646	-0.000670
C29	C	0.144185	0.061107	-0.000641
C30	C	0.164392	0.208021	-0.000636
C31	C	0.941640	0.200490	-0.000620
C32	C	1.019005	0.203108	-0.000682
C33	C	0.792553	0.505319	-0.000521
C34	C	0.784416	0.682755	-0.000518
N35	N	0.836228	0.166122	0.451963
N36	N	0.790421	0.259951	-0.453027
H37	H	0.728698	-0.233363	-0.000475
C38	C	0.686110	0.473603	0.566765
C39	C	0.726329	0.391213	0.436808
H40	H	0.646545	0.554646	0.498740
H41	H	0.668436	0.399263	0.644857
H42	H	0.716073	0.522797	0.644812
H43	H	0.696367	0.342008	0.358769
H44	H	0.744003	0.465565	0.358683
H45	H	0.883709	0.068894	0.533589
C46	C	0.068376	-0.173500	-0.164151
C47	C	0.049280	-0.102833	-0.000705
H48	H	0.054667	-0.273200	-0.164156
H49	H	0.044233	-0.102556	-0.275013
H50	H	0.119182	-0.192695	-0.164108
H51	H	-0.001528	-0.083628	-0.000754
H52	H	0.073420	-0.173794	0.110187
C53	C	0.911227	-0.529661	-0.000598
C54	C	0.917451	-0.369904	-0.000612
H55	H	0.957667	-0.599563	-0.000642
H56	H	0.891517	-0.560380	0.110300
H57	H	0.880283	-0.537387	-0.111464
H58	H	0.948391	-0.362176	0.110262
H59	H	0.937171	-0.339177	-0.111521
C60	C	0.541763	0.633465	-0.163866
C61	C	0.577359	0.528919	-0.000405
H62	H	0.555464	0.733172	-0.163845
H63	H	0.554723	0.585508	-0.274718
H64	H	0.490959	0.652636	-0.163872
H65	H	0.628164	0.509738	-0.000406
H66	H	0.564404	0.576886	0.110476
H67	H	0.439728	0.482594	-0.000458
C68	C	0.443460	-0.081221	-0.163980
C69	C	0.492515	-0.087861	-0.000494
H70	H	0.429749	-0.180917	-0.164006
H71	H	0.401804	0.004442	-0.163982
H72	H	0.465565	-0.062710	-0.274827
H73	H	0.470408	-0.106360	0.110354
H74	H	0.534178	-0.173550	-0.000474
C75	C	0.629068	-0.154560	-0.163869
C76	C	0.645119	-0.082712	-0.000399
H77	H	0.664687	-0.252577	-0.163872
H78	H	0.582889	-0.177048	-0.163872
H79	H	0.628757	-0.082786	-0.274727
H80	H	0.645425	-0.154482	0.110460
H81	H	0.691311	-0.060230	-0.000378
C82	C	0.236410	-0.088194	-0.164075
C83	C	0.201873	-0.097665	-0.000645
H84	H	0.272027	-0.186216	-0.164064
H85	H	0.201785	-0.071604	-0.274948
H86	H	0.258850	-0.000350	-0.164029
H87	H	0.179429	-0.185503	-0.000698
H88	H	0.236503	-0.114274	0.110257
H89	H	0.128369	0.472088	-0.000608
H90	H	-0.003510	0.467631	-0.000658
