data_functionalizedCrystal
_audit_creation_method	'MofGen! by Chris Wilmer'
_symmetry_space_group_name_H-M	'P1'
_symmetry_Int_Tables_number	1
_symmetry_cell_setting	triclinic
loop_
_symmetry_equiv_pos_as_xyz
  x,y,z
_cell_length_a	10.685661
_cell_length_b	12.759400
_cell_length_c	10.686551
_cell_angle_alpha	94.404840
_cell_angle_beta	99.072787
_cell_angle_gamma	85.634848
loop_
_atom_site_label
_atom_site_type_symbol
_atom_site_fract_x
_atom_site_fract_y
_atom_site_fract_z
Zn1	Zn	1.995739	-0.490383	0.866195
Zn2	Zn	1.979324	-0.678616	0.653941
Zn3	Zn	1.767174	-0.490432	0.637719
Zn4	Zn	1.783453	-0.653497	0.849902
O5	O	1.881422	-0.578232	0.751939
O6	O	2.171189	-0.525845	0.851646
O7	O	1.937499	-0.664185	0.474161
O8	O	1.797550	-0.343406	0.668057
O9	O	2.159129	-0.664138	0.695704
O10	O	1.965475	-0.343370	0.835917
O11	O	1.781633	-0.525927	0.462243
O12	O	1.591705	-0.501570	0.652258
O13	O	1.825296	-0.621327	1.029691
O14	O	1.603666	-0.621374	0.808148
O15	O	1.981261	-0.501488	1.041662
O16	O	1.953285	-0.822303	0.679906
O17	O	1.809380	-0.803848	0.823877
C18	C	1.551629	-0.558752	0.726675
C19	C	1.410544	-0.550442	0.715897
C20	C	1.881354	-0.851196	0.751914
C21	C	1.881445	-0.967976	0.751955
C22	C	1.968848	-1.022734	0.839423
C23	C	1.968909	-1.132459	0.839458
C24	C	1.794160	-1.132661	0.664546
C25	C	1.794093	-1.022936	0.664518
C26	C	2.056199	-0.967773	0.926860
C27	C	2.143611	-1.022531	1.014334
C28	C	2.143672	-1.132257	1.014369
C29	C	2.056322	-1.187225	0.926930
C30	C	2.212504	-0.597788	0.777302
C31	C	2.353591	-0.606122	0.788111
C32	C	1.906926	-0.558600	1.083021
C33	C	1.917794	-0.550234	1.224109
C34	C	1.881527	-0.304202	0.751995
C35	C	1.881572	-0.187426	0.752018
C36	C	1.856091	-0.597716	0.422151
C37	C	1.845469	-0.605800	0.281083
H38	H	1.351370	-0.496408	0.645836
H39	H	1.412772	-0.660150	0.858188
N40	N	2.056146	-0.849430	0.926807
H41	H	2.124746	-0.822920	0.995465
H42	H	1.970788	-0.816596	0.943350
H43	H	1.988039	-0.496262	1.283274
N44	N	2.237806	-0.963250	1.108653
H45	H	2.224506	-0.885431	1.095361
H46	H	2.326973	-0.988900	1.095926
H47	H	1.775238	-0.659777	1.221925
H48	H	2.214837	-1.176836	1.085604
N49	N	2.056372	-1.305571	0.926964
H50	H	2.039689	-1.325445	1.012236
H51	H	2.141702	-1.338402	0.910328
N52	N	1.699960	-1.191943	0.570235
H53	H	1.713269	-1.269763	0.583522
H54	H	1.712802	-1.179318	0.481113
N55	N	1.699820	-0.963866	0.570185
H56	H	1.644499	-1.015332	0.514793
H57	H	1.746984	-0.924855	0.515435
