data_functionalizedCrystal
_audit_creation_method	'MofGen! by Chris Wilmer'
_symmetry_space_group_name_H-M	'P1'
_symmetry_Int_Tables_number	1
_symmetry_cell_setting	triclinic
loop_
_symmetry_equiv_pos_as_xyz
  x,y,z
_cell_length_a	18.215407
_cell_length_b	16.625545
_cell_length_c	16.625539
_cell_angle_alpha	89.973630
_cell_angle_beta	90.017219
_cell_angle_gamma	89.975515
loop_
_atom_site_label
_atom_site_type_symbol
_atom_site_fract_x
_atom_site_fract_y
_atom_site_fract_z
Zn1	Zn	1.125057	0.321005	0.455913
Zn2	Zn	1.124973	0.455844	0.321081
Zn3	Zn	1.001995	0.321030	0.321093
Zn4	Zn	1.001958	0.455801	0.455870
O5	O	1.063496	0.388420	0.388489
O6	O	1.228030	0.338900	0.438040
O7	O	1.108641	0.437989	0.208250
O8	O	1.018371	0.208195	0.339001
O9	O	1.227969	0.437965	0.338979
O10	O	1.108784	0.208176	0.438052
O11	O	1.018289	0.338942	0.208259
O12	O	0.899006	0.338900	0.338959
O13	O	1.018306	0.437891	0.568708
O14	O	0.898978	0.437915	0.437979
O15	O	1.108747	0.338858	0.568740
O16	O	1.108604	0.568671	0.338937
O17	O	1.018225	0.568639	0.437967
C18	C	0.872290	0.388406	0.388466
C19	C	0.790491	0.388420	0.388475
C20	C	0.602302	0.440058	0.439970
C21	C	0.525443	0.440061	0.439980
C22	C	0.525442	0.336797	0.337026
C23	C	0.602300	0.336791	0.337021
C24	C	0.640727	0.388426	0.388492
C25	C	0.487011	0.388435	0.388507
C26	C	0.403677	0.388437	0.388518
C27	C	0.724066	0.388423	0.388482
C28	C	1.063421	0.597911	0.388463
C29	C	1.063456	0.687532	0.388479
C30	C	1.063576	1.015708	0.388576
C31	C	1.063541	0.924399	0.388551
C32	C	1.063516	0.851623	0.388527
C33	C	1.063481	0.760309	0.388503
C34	C	1.255449	0.388435	0.388513
C35	C	1.337248	0.388441	0.388523
C36	C	1.063532	0.388367	0.598798
C37	C	1.063547	0.388344	0.688420
C38	C	1.063585	1.178111	0.388542
C39	C	1.063607	1.088490	0.388589
C40	C	1.063502	0.388415	0.178999
C41	C	1.063630	0.388210	0.089378
C42	C	1.063559	0.388326	0.761202
C43	C	1.063577	0.388296	0.852511
C44	C	1.063594	0.388268	0.925287
C45	C	1.063612	0.388239	1.016601
H46	H	0.494145	0.294758	0.295119
H47	H	0.633587	0.294741	0.295100
H48	H	0.633587	0.482101	0.481883
H49	H	0.494160	0.482104	0.481901
