data_functionalizedCrystal
_audit_creation_method	'MofGen! by Chris Wilmer'
_symmetry_space_group_name_H-M	'P1'
_symmetry_Int_Tables_number	1
_symmetry_cell_setting	triclinic
loop_
_symmetry_equiv_pos_as_xyz
  x,y,z
_cell_length_a	10.489711
_cell_length_b	16.992695
_cell_length_c	16.053802
_cell_angle_alpha	87.258926
_cell_angle_beta	87.391283
_cell_angle_gamma	92.402384
loop_
_atom_site_label
_atom_site_type_symbol
_atom_site_fract_x
_atom_site_fract_y
_atom_site_fract_z
O1	O	1.708745	-0.107302	-0.069461
O2	O	1.338451	-0.117716	-0.069456
O3	O	1.522113	0.001641	-0.069452
O4	O	1.525083	-0.226660	-0.069465
O5	O	1.512001	-0.004901	0.069407
O6	O	1.328338	-0.124259	0.069403
O7	O	1.698633	-0.113844	0.069398
Zn8	Zn	1.511880	-0.120090	0.091447
Zn9	Zn	1.525203	-0.111470	-0.091505
O10	O	1.514971	-0.233202	0.069394
C11	C	1.285794	-0.120206	-0.000026
C12	C	1.143959	-0.117868	-0.000024
C13	C	0.967818	-0.189645	-0.000038
C14	C	1.061830	-0.150565	-0.068499
C15	C	1.051832	-0.156997	0.068405
C16	C	0.985273	-0.074579	-0.068559
C17	C	0.975262	-0.081023	0.068406
C18	C	1.069242	-0.041888	-0.000072
C19	C	1.513238	0.027604	-0.000022
C20	C	1.501842	0.114712	-0.000022
C21	C	1.751290	-0.111355	-0.000034
C22	C	1.893125	-0.113693	-0.000041
C23	C	1.523846	-0.259165	-0.000037
C24	C	1.535242	-0.346272	-0.000043
N25	N	1.502797	-0.125973	0.216307
C26	C	1.611793	0.164339	-0.000023
C27	C	1.601078	0.246185	-0.000031
C28	C	1.480412	0.278403	-0.000032
C29	C	1.370454	0.228770	-0.000034
C30	C	1.381170	0.146925	-0.000032
C31	C	1.436000	0.522250	-0.000043
C32	C	1.425292	0.604101	-0.000042
C33	C	1.655917	0.621510	-0.000041
C34	C	1.666622	0.539663	-0.000034
C35	C	1.556664	0.490037	-0.000040
N36	N	1.469458	0.362064	-0.000037
N37	N	1.567621	0.406379	-0.000041
N38	N	1.534296	-0.105582	-0.216365
C39	C	1.580978	-0.075204	0.260003
C40	C	1.574637	-0.079327	0.347410
C41	C	1.490120	-0.134222	0.391119
C42	C	1.411931	-0.184993	0.347417
C43	C	1.418266	-0.180866	0.260012
C44	C	1.462442	-0.152226	0.652528
C45	C	1.456115	-0.156350	0.739939
C46	C	1.618821	-0.050683	0.739926
C47	C	1.625154	-0.046564	0.652519
C48	C	1.546960	-0.097332	0.608825
N49	N	1.483639	-0.138439	0.480462
N50	N	1.553435	-0.093111	0.519483
H51	H	1.710051	0.138113	-0.000017
Cl52	Cl	0.899486	-0.286021	-0.000145
H53	H	1.638297	-0.037987	0.382986
Cl54	Cl	1.242941	0.084537	-0.000035
H55	H	1.113266	0.020599	-0.000103
Cl56	Cl	1.717111	0.013139	0.794859
H57	H	1.354601	-0.222206	0.224436
Cl58	Cl	1.687240	-0.006193	0.205063
Cl59	Cl	1.818325	0.499168	-0.000059
Cl60	Cl	1.120494	-0.195969	-0.157869
Cl61	Cl	1.731406	0.022447	0.597570
Cl62	Cl	1.297765	0.459874	-0.000053
Cl63	Cl	1.794141	0.683901	-0.000035
Cl64	Cl	0.916536	-0.035657	0.157778
H65	H	1.327025	0.630328	-0.000030
Cl66	Cl	1.218759	0.269274	-0.000046
Cl67	Cl	1.097442	-0.210843	0.157765
Cl68	Cl	1.349857	-0.225370	0.794882
Cl69	Cl	1.364149	-0.216050	0.597604
Cl70	Cl	1.305673	-0.254002	0.402364
H71	H	0.955891	-0.039741	-0.126506
Cl72	Cl	1.739309	0.308571	-0.000029
