data_functionalizedCrystal
_audit_creation_method	'MofGen! by Chris Wilmer'
_symmetry_space_group_name_H-M	'P1'
_symmetry_Int_Tables_number	1
_symmetry_cell_setting	triclinic
loop_
_symmetry_equiv_pos_as_xyz
  x,y,z
_cell_length_a	11.026607
_cell_length_b	11.792241
_cell_length_c	9.482900
_cell_angle_alpha	99.398500
_cell_angle_beta	78.636152
_cell_angle_gamma	96.389716
loop_
_atom_site_label
_atom_site_type_symbol
_atom_site_fract_x
_atom_site_fract_y
_atom_site_fract_z
O1	O	1.632118	0.461983	-0.120906
O2	O	1.278456	0.407791	-0.120907
O3	O	1.463868	0.271422	-0.120897
O4	O	1.446706	0.598353	-0.120917
O5	O	1.426207	0.299264	0.120894
O6	O	1.240795	0.435633	0.120883
O7	O	1.594458	0.489825	0.120884
Cu8	Cu	1.414188	0.465271	0.142961
Cu9	Cu	1.458726	0.432345	-0.142984
O10	O	1.409046	0.626195	0.120873
C11	C	1.214349	0.411715	-0.000012
C12	C	1.079439	0.381912	-0.000012
C13	C	1.006176	0.464202	-0.000018
C14	C	0.866739	0.433401	-0.000018
C15	C	1.443960	0.242838	-0.000002
C16	C	1.440733	0.116183	-0.000003
C17	C	1.434802	-0.115710	-0.000028
C18	C	1.438097	0.013331	-0.000014
C19	C	1.658565	0.485901	-0.000014
C20	C	1.793477	0.515703	-0.000024
C21	C	1.428955	0.654778	-0.000025
C22	C	1.432183	0.781432	-0.000033
N23	N	1.382871	0.488431	0.344079
N24	N	1.490052	0.409178	-0.344102
C25	C	1.449480	0.439169	0.416282
C26	C	1.423433	0.458448	0.583698
H27	H	1.038939	0.288655	-0.000043
C28	C	0.812038	0.307411	-0.000011
C29	C	0.821182	0.242699	0.125549
C30	C	0.766480	0.116712	0.125556
C31	C	0.702634	0.055437	0.000003
C32	C	0.693488	0.120149	-0.125567
C33	C	0.748190	0.246136	-0.125574
H34	H	0.868447	0.288058	0.218500
H35	H	0.773251	0.068807	0.218512
H36	H	0.662140	-0.037827	0.000008
H37	H	0.646223	0.074790	-0.218517
H38	H	0.741418	0.294040	-0.218529
H39	H	1.347114	0.514896	0.645818
H40	H	0.833974	0.608964	-0.000020
H41	H	1.306557	0.544875	0.406205
C42	C	1.060888	0.590183	-0.000035
C43	C	1.124741	0.651462	0.125511
C44	C	1.179453	0.777445	0.125489
C45	C	1.170312	0.842150	-0.000079
C46	C	1.106456	0.780872	-0.125635
C47	C	1.051744	0.654888	-0.125612
H48	H	1.131511	0.603563	0.218472
H49	H	1.226723	0.822807	0.218433
H50	H	1.210813	0.935410	-0.000096
H51	H	1.099687	0.828771	-0.218596
H52	H	1.004474	0.609527	-0.218557
H53	H	1.525786	0.382714	0.354159
H54	H	1.566362	0.352721	0.593777
