data_functionalizedCrystal
_audit_creation_method	'MofGen! by Chris Wilmer'
_symmetry_space_group_name_H-M	'P1'
_symmetry_Int_Tables_number	1
_symmetry_cell_setting	triclinic
loop_
_symmetry_equiv_pos_as_xyz
  x,y,z
_cell_length_a	19.077105
_cell_length_b	12.594516
_cell_length_c	19.076919
_cell_angle_alpha	92.277239
_cell_angle_beta	90.076224
_cell_angle_gamma	87.712633
loop_
_atom_site_label
_atom_site_type_symbol
_atom_site_fract_x
_atom_site_fract_y
_atom_site_fract_z
Zn1	Zn	1.058319	-0.514930	-0.440450
Zn2	Zn	1.062975	-0.686069	-0.322954
Zn3	Zn	0.945535	-0.500672	-0.318243
Zn4	Zn	0.940797	-0.685427	-0.435707
O5	O	1.001907	-0.596775	-0.379338
O6	O	1.157269	-0.543868	-0.428821
O7	O	1.051328	-0.655777	-0.223998
O8	O	0.960531	-0.353620	-0.334467
O9	O	1.160690	-0.669603	-0.342497
O10	O	1.043393	-0.364096	-0.424253
O11	O	0.965046	-0.519567	-0.220536
O12	O	0.846574	-0.518944	-0.329868
O13	O	0.952455	-0.668509	-0.534668
O14	O	0.843093	-0.654683	-0.416168
O15	O	1.038798	-0.543246	-0.538153
O16	O	1.046733	-0.834927	-0.337898
O17	O	0.956969	-0.834455	-0.420737
C18	C	0.819337	-0.585197	-0.371992
C19	C	0.741233	-0.580271	-0.368866
C20	C	0.702747	-0.648728	-0.412259
C21	C	0.629360	-0.644085	-0.409325
C22	C	0.594459	-0.570991	-0.362994
C23	C	0.632949	-0.502527	-0.319600
C24	C	0.706335	-0.507165	-0.322538
C25	C	0.375169	-0.549525	-0.349400
C26	C	0.301778	-0.544895	-0.346464
C27	C	0.298194	-0.686452	-0.436191
C28	C	0.371582	-0.691088	-0.439121
C29	C	0.410065	-0.622620	-0.395730
N30	N	0.519445	-0.566246	-0.359993
N31	N	0.485078	-0.627361	-0.398735
C32	C	1.001861	-0.873312	-0.379330
C33	C	1.001905	-0.991622	-0.379352
C34	C	0.953079	-1.060655	-0.424375
C35	C	0.938538	-1.126689	-0.359570
C36	C	1.016509	-1.136391	-0.444171
C37	C	0.987331	-1.056094	-0.314511
C38	C	1.065330	-1.065794	-0.399157
C39	C	1.050816	-1.131795	-0.334309
C40	C	1.185189	-0.608398	-0.386714
C41	C	1.263293	-0.613351	-0.389857
C42	C	0.994578	-0.607396	-0.562619
C43	C	0.991455	-0.611923	-0.640723
C44	C	1.001971	-0.319159	-0.379363
C45	C	1.001998	-0.200856	-0.379374
C46	C	1.034940	-0.548834	-0.679231
C47	C	1.031997	-0.553083	-0.752617
C48	C	0.985572	-0.620426	-0.787494
C49	C	0.942083	-0.683517	-0.748980
C50	C	0.945023	-0.679262	-0.675595
C51	C	0.971956	-0.640139	-1.006776
C52	C	0.969021	-0.644391	-1.080166
C53	C	1.058935	-0.513955	-1.083799
C54	C	1.061873	-0.509711	-1.010412
C55	C	1.018381	-0.572798	-0.971905
N56	N	0.982565	-0.624772	-0.862506
N57	N	1.021386	-0.568445	-0.896894
C58	C	1.009247	-0.586120	-0.196772
C59	C	1.012506	-0.581302	-0.118675
H60	H	0.406494	-0.493782	-0.314062
N61	N	0.587850	-0.717934	-0.456117
H62	H	0.621096	-0.764952	-0.485906
H63	H	0.558540	-0.763527	-0.426227
N64	N	0.867543	-1.162341	-0.337393
H65	H	0.868237	-1.242552	-0.337124
H66	H	0.856204	-1.131818	-0.288785
N67	N	0.264132	-0.466057	-0.296489
H68	H	0.299646	-0.423385	-0.269447
H69	H	0.232547	-0.416612	-0.323930
N70	N	1.085019	-0.476210	-0.641616
H71	H	1.073615	-0.400207	-0.653950
H72	H	1.080260	-0.483185	-0.589296
H73	H	0.731159	-0.708252	-0.449984
N74	N	1.078894	-0.485015	-0.794140
H75	H	1.129610	-0.503985	-0.783394
H76	H	1.069931	-0.497937	-0.845908
H77	H	0.604527	-0.443008	-0.281879
H78	H	1.099679	-0.454876	-0.982021
N79	N	0.747848	-0.433324	-0.275741
H80	H	0.714604	-0.386315	-0.245945
H81	H	0.779588	-0.476603	-0.244392
N82	N	0.898293	-1.019266	-0.474721
H83	H	0.898948	-0.939116	-0.474683
H84	H	0.908824	-1.049745	-0.523512
H85	H	0.974954	-1.021106	-0.259686
N86	N	1.105840	-0.445913	-1.125331
H87	H	1.096935	-0.458823	-1.177112
H88	H	1.095434	-0.368461	-1.112069
N89	N	1.105569	-1.172906	-0.283834
H90	H	1.094482	-1.143423	-0.234919
H91	H	1.105562	-1.253129	-0.284475
H92	H	1.118911	-1.038859	-0.415922
N93	N	1.032824	-1.182911	-0.516766
H94	H	0.995873	-1.157021	-0.550723
H95	H	1.080351	-1.159780	-0.532007
H96	H	0.931215	-0.699232	-1.108560
N97	N	0.409224	-0.769931	-0.489088
H98	H	0.373707	-0.812595	-0.516133
H99	H	0.438386	-0.730498	-0.522875
H100	H	0.909606	-0.730624	-0.644242
N101	N	0.256687	-0.760295	-0.482989
H102	H	0.204901	-0.746269	-0.474100
H103	H	0.267521	-0.747567	-0.533707
N104	N	0.925026	-0.708142	-0.965247
H105	H	0.895166	-0.751438	-0.998479
H106	H	0.954811	-0.757459	-0.935931
N107	N	0.891994	-0.756127	-0.786591
H108	H	0.896726	-0.749247	-0.838924
H109	H	0.903413	-0.832098	-0.774202
