data_functionalizedCrystal
_audit_creation_method	'MofGen! by Chris Wilmer'
_symmetry_space_group_name_H-M	'P1'
_symmetry_Int_Tables_number	1
_symmetry_cell_setting	triclinic
loop_
_symmetry_equiv_pos_as_xyz
  x,y,z
_cell_length_a	27.732048
_cell_length_b	19.188930
_cell_length_c	18.266242
_cell_angle_alpha	89.977082
_cell_angle_beta	89.998607
_cell_angle_gamma	97.106281
loop_
_atom_site_label
_atom_site_type_symbol
_atom_site_fract_x
_atom_site_fract_y
_atom_site_fract_z
O1	O	-0.060348	0.925764	-0.061104
O2	O	0.189652	1.175764	0.188896
O3	O	0.439652	1.425764	0.438896
O4	O	0.689652	1.675764	0.688896
O5	O	-0.068472	0.722401	-0.061052
O6	O	0.181528	0.972401	0.188948
O7	O	0.431528	1.222401	0.438948
O8	O	0.681528	1.472401	0.688948
O9	O	0.005968	0.830399	-0.061089
O10	O	0.255968	1.080399	0.188911
O11	O	0.505968	1.330399	0.438911
O12	O	0.755968	1.580399	0.688911
O13	O	-0.134787	0.817767	-0.061066
O14	O	0.115213	1.067767	0.188934
O15	O	0.365213	1.317767	0.438934
O16	O	0.615213	1.567767	0.688934
O17	O	0.005971	0.830381	0.060673
O18	O	0.255971	1.080381	0.310673
O19	O	0.505971	1.330381	0.560673
O20	O	0.755971	1.580381	0.810673
O21	O	-0.068468	0.722383	0.060710
O22	O	0.181532	0.972383	0.310710
O23	O	0.431532	1.222383	0.560710
O24	O	0.681532	1.472383	0.810710
O25	O	-0.060344	0.925746	0.060658
O26	O	0.189656	1.175746	0.310658
O27	O	0.439656	1.425746	0.560658
O28	O	0.689656	1.675746	0.810658
Zn29	Zn	-0.064405	0.824062	0.080017
Zn30	Zn	0.185595	1.074062	0.330017
Zn31	Zn	0.435595	1.324062	0.580017
Zn32	Zn	0.685595	1.574062	0.830017
Zn33	Zn	-0.064410	0.824086	-0.080410
Zn34	Zn	0.185590	1.074086	0.169590
Zn35	Zn	0.435590	1.324086	0.419590
Zn36	Zn	0.685590	1.574086	0.669590
O37	O	-0.134783	0.817749	0.060695
O38	O	0.115217	1.067749	0.310695
O39	O	0.365217	1.317749	0.560695
O40	O	0.615217	1.567749	0.810695
C41	C	-0.068207	0.696383	-0.000164
C42	C	0.181793	0.946383	0.249836
C43	C	0.431793	1.196383	0.499836
C44	C	0.681793	1.446383	0.749836
C45	C	-0.067417	0.618883	-0.000145
C46	C	0.182583	0.868883	0.249855
C47	C	0.432583	1.118883	0.499855
C48	C	0.682583	1.368883	0.749855
C49	C	-0.111096	0.573681	-0.000150
C50	C	0.138904	0.823681	0.249850
C51	C	0.388904	1.073681	0.499850
C52	C	0.638904	1.323681	0.749850
C53	C	-0.110354	0.500862	-0.000158
C54	C	0.139646	0.750862	0.249842
C55	C	0.389646	1.000862	0.499842
C56	C	0.639646	1.250862	0.749842
C57	C	-0.065931	0.473249	-0.000176
C58	C	0.184069	0.723249	0.249824
C59	C	0.434069	0.973249	0.499824
C60	C	0.684069	1.223249	0.749824
C61	C	-0.022246	0.518461	-0.000168
C62	C	0.227754	0.768461	0.249832
C63	C	0.477754	1.018461	0.499832
C64	C	0.727754	1.268461	0.749832
C65	C	-0.022990	0.591278	-0.000152
C66	C	0.227010	0.841278	0.249848
C67	C	0.477010	1.091278	0.499848
C68	C	0.727010	1.341278	0.749848
N69	N	-0.031976	0.365491	-0.041652
N70	N	0.218024	0.615491	0.208348
N71	N	0.468024	0.865491	0.458348
N72	N	0.718024	1.115491	0.708348
N73	N	-0.031273	0.296317	-0.041669
N74	N	0.218727	0.546317	0.208331
N75	N	0.468727	0.796317	0.458331
N76	N	0.718727	1.046317	0.708331
C77	C	-0.063689	0.253854	-0.000222
C78	C	0.186311	0.503854	0.249778
C79	C	0.436311	0.753854	0.499778
C80	C	0.686311	1.003854	0.749778
N81	N	-0.096842	0.283177	0.041233
N82	N	0.153158	0.533177	0.291233
N83	N	0.403158	0.783177	0.541233
N84	N	0.653158	1.033177	0.791233
N85	N	-0.097546	0.352357	0.041246
N86	N	0.152454	0.602357	0.291246
N87	N	0.402454	0.852357	0.541246
N88	N	0.652454	1.102357	0.791246
C89	C	-0.065120	0.394291	-0.000193
C90	C	0.184880	0.644291	0.249807
C91	C	0.434880	0.894291	0.499807
C92	C	0.684880	1.144291	0.749807
C93	C	-0.106566	0.129692	-0.000234
C94	C	0.143434	0.379692	0.249766
C95	C	0.393434	0.629692	0.499766
C96	C	0.643434	0.879692	0.749766
C97	C	-0.105822	0.056872	-0.000237
C98	C	0.144178	0.306872	0.249763
C99	C	0.394178	0.556872	0.499763
C100	C	0.644178	0.806872	0.749763
C101	C	-0.017714	0.074473	-0.000255
C102	C	0.232286	0.324473	0.249745
C103	C	0.482286	0.574473	0.499745
C104	C	0.732286	0.824473	0.749745
C105	C	-0.018459	0.147292	-0.000244
C106	C	0.231541	0.397292	0.249756
C107	C	0.481541	0.647292	0.499756
C108	C	0.731541	0.897292	0.749756
C109	C	-0.062886	0.174897	-0.000237
C110	C	0.187114	0.424897	0.249763
C111	C	0.437114	0.674897	0.499763
C112	C	0.687114	0.924897	0.749763
C113	C	-0.152793	0.818023	-0.000183
C114	C	0.097207	1.068023	0.249817
C115	C	0.347207	1.318023	0.499817
C116	C	0.597207	1.568023	0.749817
C117	C	-0.206450	0.818821	-0.000176
C118	C	0.043550	1.068821	0.249824
C119	C	0.293550	1.318821	0.499824
C120	C	0.543550	1.568821	0.749824
C121	C	-0.545086	0.760029	-0.000196
C122	C	-0.295086	1.010029	0.249804
C123	C	-0.045086	1.260029	0.499804
C124	C	0.204914	1.510029	0.749804
C125	C	-0.746754	0.762991	-0.000206
C126	C	-0.496754	1.012991	0.249794
C127	C	-0.246754	1.262991	0.499794
C128	C	0.003246	1.512991	0.749794
O129	O	-0.777846	0.709229	-0.000224
O130	O	-0.527846	0.959229	0.249776
O131	O	-0.277846	1.209229	0.499776
O132	O	-0.027846	1.459229	0.749776
N133	N	-0.766074	0.827029	-0.000221
N134	N	-0.516074	1.077029	0.249779
N135	N	-0.266074	1.327029	0.499779
N136	N	-0.016074	1.577029	0.749779
C137	C	-0.734973	0.890331	-0.000239
C138	C	-0.484973	1.140331	0.249761
C139	C	-0.234973	1.390331	0.499761
C140	C	0.015027	1.640331	0.749761
O141	O	-0.756033	0.944867	-0.000260
O142	O	-0.506033	1.194867	0.249740
O143	O	-0.256033	1.444867	0.499740
O144	O	-0.006033	1.694867	0.749740
C145	C	-0.533305	0.887368	-0.000235
C146	C	-0.283305	1.137368	0.249765
C147	C	-0.033305	1.387368	0.499765
C148	C	0.216695	1.637368	0.749765
C149	C	-0.513989	0.823326	-0.000212
C150	C	-0.263989	1.073326	0.249788
C151	C	-0.013989	1.323326	0.499788
C152	C	0.236011	1.573326	0.749788
C153	C	-0.525769	0.695991	-0.000175
C154	C	-0.275769	0.945991	0.249825
C155	C	-0.025769	1.195991	0.499825
C156	C	0.224231	1.445991	0.749825
C157	C	-0.475354	0.695252	-0.000168
C158	C	-0.225354	0.945252	0.249832
C159	C	0.024646	1.195252	0.499832
C160	C	0.274646	1.445252	0.749832
C161	C	-0.444257	0.758549	-0.000184
C162	C	-0.194257	1.008549	0.249816
C163	C	0.055743	1.258549	0.499816
C164	C	0.305743	1.508549	0.749816
C165	C	-0.463574	0.822586	-0.000206
C166	C	-0.213574	1.072586	0.249794
C167	C	0.036426	1.322586	0.499794
C168	C	0.286426	1.572586	0.749794
C169	C	-0.502205	0.950669	-0.000258
C170	C	-0.252205	1.200669	0.249742
C171	C	-0.002205	1.450669	0.499742
C172	C	0.247795	1.700669	0.749742
C173	C	-0.451785	0.949923	-0.000258
C174	C	-0.201785	1.199923	0.249742
C175	C	0.048215	1.449923	0.499742
C176	C	0.298215	1.699923	0.749742
C177	C	-0.432469	0.885880	-0.000236
C178	C	-0.182469	1.135880	0.249764
C179	C	0.067531	1.385880	0.499764
C180	C	0.317531	1.635880	0.749764
C181	C	-0.382063	0.885143	-0.000215
C182	C	-0.132063	1.135143	0.249785
C183	C	0.117937	1.385143	0.499785
C184	C	0.367937	1.635143	0.749785
N185	N	-0.362743	0.821105	-0.000199
N186	N	-0.112743	1.071105	0.249801
N187	N	0.137257	1.321105	0.499801
N188	N	0.387257	1.571105	0.749801
C189	C	-0.393841	0.757808	-0.000184
C190	C	-0.143841	1.007808	0.249816
C191	C	0.106159	1.257808	0.499816
C192	C	0.356159	1.507808	0.749816
C193	C	-0.840852	0.891882	-0.000240
C194	C	-0.590852	1.141882	0.249760
C195	C	-0.340852	1.391882	0.499760
C196	C	-0.090852	1.641882	0.749760
C197	C	-0.891268	0.892623	-0.000239
C198	C	-0.641268	1.142623	0.249761
C199	C	-0.391268	1.392623	0.499761
C200	C	-0.141268	1.642623	0.749761
C201	C	-0.903046	0.765283	-0.000208
C202	C	-0.653046	1.015283	0.249792
C203	C	-0.403046	1.265283	0.499792
C204	C	-0.153046	1.515283	0.749792
C205	C	-0.852629	0.764543	-0.000203
C206	C	-0.602629	1.014543	0.249797
C207	C	-0.352629	1.264543	0.499797
C208	C	-0.102629	1.514543	0.749797
C209	C	-0.821532	0.827844	-0.000224
C210	C	-0.571532	1.077844	0.249776
C211	C	-0.321532	1.327844	0.499776
C212	C	-0.071532	1.577844	0.749776
C213	C	-0.287967	0.756259	-0.000170
C214	C	-0.037967	1.006259	0.249830
C215	C	0.212033	1.256259	0.499830
C216	C	0.462033	1.506259	0.749830
C217	C	-0.237548	0.755524	-0.000161
C218	C	0.012452	1.005524	0.249839
C219	C	0.262452	1.255524	0.499839
C220	C	0.512452	1.505524	0.749839
C221	C	-0.225774	0.882864	-0.000196
C222	C	0.024226	1.132864	0.249804
C223	C	0.274226	1.382864	0.499804
C224	C	0.524226	1.632864	0.749804
C225	C	-0.276189	0.883599	-0.000202
C226	C	-0.026189	1.133599	0.249798
C227	C	0.223811	1.383599	0.499798
C228	C	0.473811	1.633599	0.749798
C229	C	-0.307284	0.820290	-0.000191
C230	C	-0.057284	1.070290	0.249809
C231	C	0.192716	1.320290	0.499809
C232	C	0.442716	1.570290	0.749809
O233	O	-0.350943	0.938876	-0.000205
O234	O	-0.100943	1.188876	0.249795
O235	O	0.149057	1.438876	0.499795
O236	O	0.399057	1.688876	0.749795
O237	O	-0.372771	0.703279	-0.000179
O238	O	-0.122771	0.953279	0.249821
O239	O	0.127229	1.203279	0.499821
O240	O	0.377229	1.453279	0.749821
C241	C	-0.595500	0.760768	-0.000203
C242	C	-0.345500	1.010768	0.249797
C243	C	-0.095500	1.260768	0.499797
C244	C	0.154500	1.510768	0.749797
C245	C	-0.614817	0.824805	-0.000225
C246	C	-0.364817	1.074805	0.249775
C247	C	-0.114817	1.324805	0.499775
C248	C	0.135183	1.574805	0.749775
C249	C	-0.583720	0.888103	-0.000240
C250	C	-0.333720	1.138103	0.249760
C251	C	-0.083720	1.388103	0.499760
C252	C	0.166280	1.638103	0.749760
C253	C	-0.665234	0.825546	-0.000224
C254	C	-0.415234	1.075546	0.249776
C255	C	-0.165234	1.325546	0.499776
C256	C	0.084766	1.575546	0.749776
C257	C	-0.696331	0.762249	-0.000209
C258	C	-0.446331	1.012249	0.249791
C259	C	-0.196331	1.262249	0.499791
C260	C	0.053669	1.512249	0.749791
C261	C	-0.677011	0.698211	-0.000194
C262	C	-0.427011	0.948211	0.249806
C263	C	-0.177011	1.198211	0.499806
C264	C	0.072989	1.448211	0.749806
C265	C	-0.626597	0.697471	-0.000187
C266	C	-0.376597	0.947471	0.249813
C267	C	-0.126597	1.197471	0.499813
C268	C	0.123403	1.447471	0.749813
C269	C	-0.603039	0.952141	-0.000255
C270	C	-0.353039	1.202141	0.249745
C271	C	-0.103039	1.452141	0.499745
C272	C	0.146961	1.702141	0.749745
C273	C	-0.653454	0.952875	-0.000261
C274	C	-0.403454	1.202875	0.249739
C275	C	-0.153454	1.452875	0.499739
C276	C	0.096546	1.702875	0.749739
C277	C	-0.684551	0.889578	-0.000245
C278	C	-0.434551	1.139578	0.249755
C279	C	-0.184551	1.389578	0.499755
C280	C	0.065449	1.639578	0.749755
C281	C	0.023977	0.830125	-0.000212
C282	C	0.273977	1.080125	0.249788
C283	C	0.523977	1.330125	0.499788
C284	C	0.773977	1.580125	0.749788
C285	C	0.077635	0.829326	-0.000224
C286	C	0.327635	1.079326	0.249776
C287	C	0.577635	1.329326	0.499776
C288	C	0.827635	1.579326	0.749776
C289	C	-0.060609	0.951765	-0.000231
C290	C	0.189391	1.201765	0.249769
C291	C	0.439391	1.451765	0.499769
C292	C	0.689391	1.701765	0.749769
C293	C	-0.061399	1.029264	-0.000255
C294	C	0.188601	1.279264	0.249745
C295	C	0.438601	1.529264	0.499745
C296	C	0.688601	1.779264	0.749745
N297	N	-0.064402	0.824051	0.189503
N298	N	0.185598	1.074051	0.439503
N299	N	0.435598	1.324051	0.689503
N300	N	0.685598	1.574051	0.939503
N301	N	-0.064410	0.824102	-0.189897
N302	N	0.185590	1.074102	0.060103
N303	N	0.435590	1.324102	0.310103
N304	N	0.685590	1.574102	0.560103
C305	C	-0.031456	0.871887	0.227796
C306	C	0.218544	1.121887	0.477796
C307	C	0.468544	1.371887	0.727796
C308	C	0.718544	1.621887	0.977796
C309	C	-0.031454	0.871892	0.304441
C310	C	0.218546	1.121892	0.554441
C311	C	0.468546	1.371892	0.804441
C312	C	0.718546	1.621892	1.054441
C313	C	-0.064406	0.824066	0.342790
C314	C	0.185594	1.074066	0.592790
C315	C	0.435594	1.324066	0.842790
C316	C	0.685594	1.574066	1.092790
C317	C	-0.097354	0.776220	0.304489
C318	C	0.152646	1.026220	0.554489
C319	C	0.402646	1.276220	0.804489
C320	C	0.652646	1.526220	1.054489
C321	C	-0.097352	0.776213	0.227845
C322	C	0.152648	1.026213	0.477845
C323	C	0.402648	1.276213	0.727845
C324	C	0.652648	1.526213	0.977845
N325	N	-0.107196	0.814718	0.463131
N326	N	0.142804	1.064718	0.713131
N327	N	0.392804	1.314718	0.963131
N328	N	0.642804	1.564718	1.213131
N329	N	-0.107196	0.814729	0.535939
N330	N	0.142804	1.064729	0.785939
N331	N	0.392804	1.314729	1.035939
N332	N	0.642804	1.564729	1.285939
C333	C	-0.064413	0.824086	0.573713
C334	C	0.185587	1.074086	0.823713
C335	C	0.435587	1.324086	1.073713
C336	C	0.685587	1.574086	1.323713
N337	N	-0.021627	0.833444	0.535928
N338	N	0.228373	1.083444	0.785928
N339	N	0.478373	1.333444	1.035928
N340	N	0.728373	1.583444	1.285928
N341	N	-0.021628	0.833436	0.463113
N342	N	0.228372	1.083436	0.713113
N343	N	0.478372	1.333436	0.963113
N344	N	0.728372	1.583436	1.213113
C345	C	-0.064411	0.824069	0.425897
C346	C	0.185589	1.074069	0.675897
C347	C	0.435589	1.324069	0.925897
C348	C	0.685589	1.574069	1.175897
C349	C	-0.031462	0.871930	0.695112
C350	C	0.218538	1.121930	0.945112
C351	C	0.468538	1.371930	1.195112
C352	C	0.718538	1.621930	1.445112
C353	C	-0.031459	0.871929	0.771759
C354	C	0.218541	1.121929	1.021759
C355	C	0.468541	1.371929	1.271759
C356	C	0.718541	1.621929	1.521759
C357	C	-0.097363	0.776261	0.771805
C358	C	0.152637	1.026261	1.021805
C359	C	0.402637	1.276261	1.271805
C360	C	0.652637	1.526261	1.521805
C361	C	-0.097362	0.776258	0.695160
C362	C	0.152638	1.026258	0.945160
C363	C	0.402638	1.276258	1.195160
C364	C	0.652638	1.526258	1.445160
C365	C	-0.064412	0.824096	0.656818
C366	C	0.185588	1.074096	0.906818
C367	C	0.435588	1.324096	1.156818
C368	C	0.685588	1.574096	1.406818
H369	H	0.017109	0.184097	-0.000244
H370	H	0.267109	0.434097	0.249756
H371	H	0.517109	0.684097	0.499756
H372	H	0.767109	0.934097	0.749756
H373	H	-0.517923	1.002819	-0.000277
H374	H	-0.267923	1.252819	0.249723
H375	H	-0.017923	1.502819	0.499723
H376	H	0.232077	1.752819	0.749723
H377	H	-0.004625	0.910847	0.335624
H378	H	0.245375	1.160847	0.585624
H379	H	0.495375	1.410847	0.835624
H380	H	0.745375	1.660847	1.085624
H381	H	-0.221823	0.703371	-0.000139
H382	H	0.028177	0.953371	0.249861
H383	H	0.278177	1.203371	0.499861
H384	H	0.528177	1.453371	0.749861
H385	H	-0.313279	0.704707	-0.000162
H386	H	-0.063279	0.954707	0.249838
H387	H	0.186721	1.204707	0.499838
H388	H	0.436721	1.454707	0.749838
H389	H	-0.124191	0.737308	0.663981
H390	H	0.125809	0.987308	0.913981
H391	H	0.375809	1.237308	1.163981
H392	H	0.625809	1.487308	1.413981
H393	H	-0.124181	0.737257	0.196667
H394	H	0.125819	0.987257	0.446667
H395	H	0.375819	1.237257	0.696667
H396	H	0.625819	1.487257	0.946667
H397	H	-0.004625	0.910838	0.196580
H398	H	0.245375	1.160838	0.446580
H399	H	0.495375	1.410838	0.696580
H400	H	0.745375	1.660838	0.946580
H401	H	-0.124183	0.737279	0.335717
H402	H	0.125817	0.987279	0.585717
H403	H	0.375817	1.237279	0.835717
H404	H	0.625817	1.487279	1.085717
H405	H	-0.147272	0.596152	-0.000146
H406	H	0.102728	0.846152	0.249854
H407	H	0.352728	1.096152	0.499854
H408	H	0.602728	1.346152	0.749854
H409	H	-0.141392	0.020068	-0.000237
H410	H	0.108608	0.270068	0.249763
H411	H	0.358608	0.520068	0.499763
H412	H	0.608608	0.770068	0.749763
H413	H	-0.426468	1.001472	-0.000280
H414	H	-0.176468	1.251472	0.249720
H415	H	0.073532	1.501472	0.499720
H416	H	0.323532	1.751472	0.749720
H417	H	-0.004630	0.910880	0.663893
H418	H	0.245370	1.160880	0.913893
H419	H	0.495370	1.410880	1.163893
H420	H	0.745370	1.660880	1.413893
H421	H	-0.142741	0.152169	-0.000217
H422	H	0.107259	0.402169	0.249783
H423	H	0.357259	0.652169	0.499783
H424	H	0.607259	0.902169	0.749783
H425	H	-0.291917	0.935747	-0.000210
H426	H	-0.041917	1.185747	0.249790
H427	H	0.208083	1.435747	0.499790
H428	H	0.458083	1.685747	0.749790
H429	H	-0.145923	0.464051	-0.000160
H430	H	0.104077	0.714051	0.249840
H431	H	0.354077	0.964051	0.499840
H432	H	0.604077	1.214051	0.749840
H433	H	-0.004628	0.910882	0.802937
H434	H	0.245372	1.160882	1.052937
H435	H	0.495372	1.410882	1.302937
H436	H	0.745372	1.660882	1.552937
H437	H	0.018456	0.051991	-0.000315
H438	H	0.268456	0.301991	0.249685
H439	H	0.518456	0.551991	0.499685
H440	H	0.768456	0.801991	0.749685
H441	H	0.013923	0.495974	-0.000193
H442	H	0.263923	0.745974	0.249807
H443	H	0.513923	0.995974	0.499807
H444	H	0.763923	1.245974	0.749807
H445	H	0.012580	0.628083	-0.000149
H446	H	0.262580	0.878083	0.249851
H447	H	0.512580	1.128083	0.499851
H448	H	0.762580	1.378083	0.749851
H449	H	-0.459632	0.643102	-0.000156
H450	H	-0.209632	0.893102	0.249844
H451	H	0.040368	1.143102	0.499844
H452	H	0.290368	1.393102	0.749844
H453	H	-0.702340	0.646673	-0.000176
H454	H	-0.452340	0.896673	0.249824
H455	H	-0.202340	1.146673	0.499824
H456	H	0.047660	1.396673	0.749824
H457	H	-0.610875	0.645322	-0.000168
H458	H	-0.360875	0.895322	0.249832
H459	H	-0.110875	1.145322	0.499832
H460	H	0.139125	1.395322	0.749832
H461	H	-0.836905	0.712394	-0.000181
H462	H	-0.586905	0.962394	0.249819
H463	H	-0.336905	1.212394	0.499819
H464	H	-0.086905	1.462394	0.749819
H465	H	-0.551084	0.644444	-0.000164
H466	H	-0.301084	0.894444	0.249836
H467	H	-0.051084	1.144444	0.499836
H468	H	0.198916	1.394444	0.749836
H469	H	-0.928375	0.713744	-0.000192
H470	H	-0.678375	0.963744	0.249808
H471	H	-0.428375	1.213744	0.499808
H472	H	-0.178375	1.463744	0.749808
H473	H	-0.669176	1.005030	-0.000274
H474	H	-0.419176	1.255030	0.249726
H475	H	-0.169176	1.505030	0.499726
H476	H	0.080824	1.755030	0.749726
H477	H	-0.124191	0.737318	0.803029
H478	H	0.125809	0.987318	1.053029
H479	H	0.375809	1.237318	1.303029
H480	H	0.625809	1.487318	1.553029
H481	H	-0.906991	0.944773	-0.000246
H482	H	-0.656991	1.194773	0.249754
H483	H	-0.406991	1.444773	0.499754
H484	H	-0.156991	1.694773	0.749754
H485	H	-0.815536	0.943433	-0.000256
H486	H	-0.565536	1.193433	0.249744
H487	H	-0.315536	1.443433	0.499744
H488	H	-0.065536	1.693433	0.749744
H489	H	-0.200446	0.934399	-0.000205
H490	H	0.049554	1.184399	0.249795
H491	H	0.299554	1.434399	0.499795
H492	H	0.549554	1.684399	0.749795
H493	H	-0.577724	1.003686	-0.000269
H494	H	-0.327724	1.253686	0.249731
H495	H	-0.077724	1.503686	0.499731
H496	H	0.172276	1.753686	0.749731
