data_functionalizedCrystal
_audit_creation_method	'MofGen! by Chris Wilmer'
_symmetry_space_group_name_H-M	'P1'
_symmetry_Int_Tables_number	1
_symmetry_cell_setting	triclinic
loop_
_symmetry_equiv_pos_as_xyz
  x,y,z
_cell_length_a	17.038272
_cell_length_b	15.944551
_cell_length_c	15.021413
_cell_angle_alpha	90.002826
_cell_angle_beta	90.004029
_cell_angle_gamma	92.694853
loop_
_atom_site_label
_atom_site_type_symbol
_atom_site_fract_x
_atom_site_fract_y
_atom_site_fract_z
O1	O	0.100827	-1.121728	-0.073940
O2	O	0.600827	-0.621728	0.426060
O3	O	0.113259	-0.878066	-0.073962
O4	O	0.613259	-0.378066	0.426038
O5	O	-0.006773	-0.998449	-0.073944
O6	O	0.493227	-0.498449	0.426056
O7	O	0.220859	-1.001345	-0.073958
O8	O	0.720859	-0.501345	0.426042
O9	O	-0.006755	-0.998429	0.074120
O10	O	0.493245	-0.498429	0.574120
O11	O	0.113277	-0.878046	0.074102
O12	O	0.613277	-0.378046	0.574102
O13	O	0.100844	-1.121708	0.074125
O14	O	0.600844	-0.621708	0.574125
Zn15	Zn	0.107063	-0.999874	0.097622
Zn16	Zn	0.607063	-0.499874	0.597622
Zn17	Zn	0.107041	-0.999900	-0.097459
Zn18	Zn	0.607041	-0.499900	0.402541
O19	O	0.220876	-1.001326	0.074107
O20	O	0.720876	-0.501326	0.574107
C21	C	0.112752	-0.846725	0.000067
C22	C	0.612752	-0.346725	0.500067
C23	C	0.111205	-0.753369	0.000059
C24	C	0.611205	-0.253369	0.500059
C25	C	-0.035893	-0.995805	0.000088
C26	C	0.464107	-0.495805	0.500088
C27	C	-0.122688	-0.987945	0.000087
C28	C	0.377312	-0.487945	0.500087
C29	C	0.101352	-1.153049	0.000093
C30	C	0.601352	-0.653049	0.500093
C31	C	0.102899	-1.246405	0.000096
C32	C	0.602899	-0.746405	0.500096
C33	C	-0.172781	-1.060103	0.000094
C34	C	0.327219	-0.560103	0.500094
C35	C	-0.254334	-1.052713	0.000085
C36	C	0.245666	-0.552713	0.500085
C37	C	-0.285792	-0.973165	0.000075
C38	C	0.214208	-0.473165	0.500075
C39	C	-0.235693	-0.901002	0.000065
C40	C	0.264307	-0.401002	0.500065
C41	C	-0.154142	-0.908393	0.000068
C42	C	0.345858	-0.408393	0.500068
C43	C	-0.531558	-0.947056	0.000061
C44	C	-0.031558	-0.447056	0.500061
C45	C	-0.613115	-0.939671	0.000060
C46	C	-0.113115	-0.439671	0.500060
C47	C	-0.631751	-1.091383	0.000079
C48	C	-0.131751	-0.591383	0.500079
C49	C	-0.550197	-1.098766	0.000087
C50	C	-0.050197	-0.598766	0.500087
C51	C	-0.500105	-1.026603	0.000072
C52	C	-0.000105	-0.526603	0.500072
C53	C	-0.369152	-0.965610	0.000069
C54	C	0.130848	-0.465610	0.500069
C55	C	-0.416747	-1.034159	0.000073
C56	C	0.083253	-0.534159	0.500073
C57	C	0.249997	-1.003969	0.000073
C58	C	0.749997	-0.503969	0.500073
C59	C	0.336792	-1.011829	0.000068
C60	C	0.836792	-0.511829	0.500068
N61	N	0.107078	-0.999863	0.230759
N62	N	0.607078	-0.499863	0.730759
C63	C	0.033105	-0.532936	0.000081
C64	C	0.533105	-0.032936	0.500081
C65	C	0.069363	-0.474515	-0.072924
C66	C	0.569363	0.025485	0.427076
C67	C	0.108405	-0.582443	0.000070
C68	C	0.608405	-0.082443	0.500070
C69	C	0.069398	-0.474519	0.073055
C70	C	0.569398	0.025481	0.573055
C71	C	0.105696	-0.417337	0.000084
C72	C	0.605696	0.082663	0.500084
C73	C	0.144684	-0.525252	-0.072996
C74	C	0.644684	-0.025252	0.427004
C75	C	0.144709	-0.525262	0.073049
C76	C	0.644709	-0.025262	0.573049
C77	C	0.181022	-0.466862	0.000026
C78	C	0.681022	0.033138	0.500026
C79	C	0.109964	-0.677557	0.000061
C80	C	0.609964	-0.177557	0.500061
C81	C	0.104143	-0.322225	0.000087
C82	C	0.604143	0.177775	0.500087
N83	N	0.107019	-0.999917	-0.230597
N84	N	0.607019	-0.499917	0.269403
C85	C	0.162555	-0.944187	0.470434
C86	C	0.662555	-0.444187	0.970434
C87	C	0.177734	-1.021171	0.529775
C88	C	0.677734	-0.521171	1.029775
C89	C	0.107059	-0.999883	0.412366
C90	C	0.607059	-0.499883	0.912366
C91	C	0.091897	-0.922921	0.529768
C92	C	0.591897	-0.422921	1.029768
C93	C	0.107041	-0.999896	0.587790
C94	C	0.607041	-0.499896	1.087790
C95	C	0.122273	-1.076908	0.470400
C96	C	0.622273	-0.576908	0.970400
C97	C	0.036405	-0.978606	0.470388
C98	C	0.536405	-0.478606	0.970388
C99	C	0.051554	-1.055643	0.529702
C100	C	0.551554	-0.555643	1.029702
C101	C	0.107070	-0.999875	0.311309
C102	C	0.607070	-0.499875	0.811309
C103	C	0.107029	-0.999913	0.688846
C104	C	0.607029	-0.499913	1.188846
H105	H	-0.295117	-1.111472	0.000093
H106	H	0.204883	-0.611472	0.500093
N107	N	-0.516268	-1.184564	0.000104
N108	N	-0.016268	-0.684564	0.500104
H109	H	-0.560378	-1.229156	0.000107
H110	H	-0.060378	-0.729156	0.500107
H111	H	-0.482839	-1.190945	-0.054782
H112	H	0.017161	-0.690945	0.445218
H113	H	-0.394774	-0.900842	0.000062
H114	H	0.105226	-0.400842	0.500062
N115	N	0.256861	-1.045028	0.564346
N116	N	0.756861	-0.545028	1.064346
H117	H	0.268738	-1.102755	0.541822
H118	H	0.768738	-0.602755	1.041822
H119	H	0.298705	-1.002869	0.542789
H120	H	0.798705	-0.502869	1.042789
N121	N	-0.100120	-0.830558	0.000075
N122	N	0.399880	-0.330558	0.500075
H123	H	-0.065869	-0.830237	0.054965
H124	H	0.434131	-0.330237	0.554965
H125	H	-0.065919	-0.830285	-0.054846
H126	H	0.434081	-0.330285	0.445154
N127	N	-0.049688	-0.571138	0.000006
N128	N	0.450312	-0.071138	0.500006
H129	H	-0.078038	-0.552739	-0.055189
H130	H	0.421962	-0.052739	0.444811
H131	H	-0.048006	-0.634367	0.000605
H132	H	0.451994	-0.134367	0.500605
H133	H	0.037507	-0.452139	-0.134642
H134	H	0.537507	0.047861	0.365358
N135	N	0.074905	-0.836705	0.564310
N136	N	0.574905	-0.336705	1.064310
H137	H	0.074517	-0.837477	0.631540
H138	H	0.574517	-0.337477	1.131540
H139	H	0.116879	-0.794725	0.542689
H140	H	0.616879	-0.294725	1.042689
N141	N	0.224759	-0.881867	0.435946
N142	N	0.724759	-0.381867	0.935946
H143	H	0.213859	-0.823875	0.458470
H144	H	0.713859	-0.323875	0.958470
H145	H	0.278079	-0.898127	0.457554
H146	H	0.778079	-0.398127	0.957554
H147	H	0.176503	-0.547520	-0.134784
H148	H	0.676503	-0.047520	0.365216
N149	N	0.263882	-0.428847	-0.000027
N150	N	0.763882	0.071153	0.499973
H151	H	0.292208	-0.447347	-0.055195
H152	H	0.792208	0.052653	0.444805
H153	H	0.262323	-0.365607	0.000531
H154	H	0.762323	0.134393	0.500531
N155	N	-0.042702	-0.954729	0.435792
N156	N	0.457298	-0.454729	0.935792
H157	H	-0.084752	-0.996191	0.458291
H158	H	0.415248	-0.496191	0.958291
H159	H	-0.054031	-0.896533	0.457354
H160	H	0.445969	-0.396533	0.957354
H161	H	0.176539	-0.547657	0.134769
H162	H	0.676539	-0.047657	0.634769
N163	N	0.027208	-0.444884	0.154809
N164	N	0.527208	0.055116	0.654809
H165	H	-0.028656	-0.469061	0.154743
H166	H	0.471344	0.030939	0.654743
H167	H	0.055151	-0.464187	0.209902
H168	H	0.555151	0.035813	0.709902
H169	H	0.004613	-1.102803	0.555561
H170	H	0.504613	-0.602803	1.055561
N171	N	0.139351	-1.163156	0.436017
N172	N	0.639351	-0.663156	0.936017
H173	H	0.097691	-1.205283	0.458081
H174	H	0.597691	-0.705283	0.958081
H175	H	0.139292	-1.162538	0.368786
H176	H	0.639292	-0.662538	0.868786
H177	H	-0.638725	-0.874891	0.000067
H178	H	-0.138725	-0.374891	0.500067
N179	N	-0.138857	-1.145903	0.000114
N180	N	0.361143	-0.645903	0.500114
H181	H	-0.157124	-1.177789	-0.054770
H182	H	0.342876	-0.677789	0.445230
H183	H	-0.079599	-1.139567	0.000152
H184	H	0.420401	-0.639567	0.500152
N185	N	-0.685777	-1.169212	0.000097
N186	N	-0.185777	-0.669212	0.500097
H187	H	-0.742213	-1.152463	0.000094
H188	H	-0.242213	-0.652463	0.500094
H189	H	-0.675595	-1.203637	-0.054788
H190	H	-0.175595	-0.703637	0.445212
H191	H	-0.261313	-0.836233	0.000051
H192	H	0.238687	-0.336233	0.500051
N193	N	-0.477537	-0.869226	0.000050
N194	N	0.022463	-0.369226	0.500050
H195	H	-0.487665	-0.834787	-0.054840
H196	H	0.012335	-0.334787	0.445160
H197	H	-0.487679	-0.834837	0.054971
H198	H	0.012321	-0.334837	0.554971
N199	N	-0.382823	-1.119956	0.000091
N200	N	0.117177	-0.619956	0.500091
H201	H	-0.349402	-1.126416	-0.054792
H202	H	0.150598	-0.626416	0.445208
H203	H	-0.349440	-1.126328	0.055020
H204	H	0.150560	-0.626328	0.555020
