data_functionalizedCrystal
_audit_creation_method	'MofGen! by Chris Wilmer'
_symmetry_space_group_name_H-M	'P1'
_symmetry_Int_Tables_number	1
_symmetry_cell_setting	triclinic
loop_
_symmetry_equiv_pos_as_xyz
  x,y,z
_cell_length_a	18.101389
_cell_length_b	16.120530
_cell_length_c	16.120484
_cell_angle_alpha	90.167327
_cell_angle_beta	92.879328
_cell_angle_gamma	87.084523
loop_
_atom_site_label
_atom_site_type_symbol
_atom_site_fract_x
_atom_site_fract_y
_atom_site_fract_z
Zn1	Zn	-0.492978	1.254461	-0.395706
Zn2	Zn	0.007022	1.754461	0.104294
Zn3	Zn	-0.375072	1.247307	-0.534742
Zn4	Zn	0.124928	1.747307	-0.034742
Zn5	Zn	-0.362577	1.115404	-0.388647
Zn6	Zn	0.137423	1.615404	0.111353
Zn7	Zn	-0.492300	1.108313	-0.527659
Zn8	Zn	0.007700	1.608313	-0.027659
O9	O	-0.430732	1.181371	-0.461689
O10	O	0.069268	1.681371	0.038311
O11	O	-0.482850	1.369877	-0.420068
O12	O	0.017150	1.869877	0.079932
O13	O	-0.269781	1.229783	-0.515372
O14	O	0.230219	1.729783	-0.015372
O15	O	-0.374929	1.139811	-0.273219
O16	O	0.125071	1.639811	0.226781
O17	O	-0.396225	1.364621	-0.522217
O18	O	0.103775	1.864621	-0.022217
O19	O	-0.470734	1.241976	-0.278406
O20	O	0.029266	1.741976	0.221594
O21	O	-0.260601	1.132875	-0.408037
O22	O	0.239399	1.632875	0.091963
O23	O	-0.374272	0.998098	-0.401169
O24	O	0.125728	1.498098	0.098831
O25	O	-0.596024	1.127726	-0.510145
O26	O	-0.096024	1.627726	-0.010145
O27	O	-0.469579	0.992888	-0.503300
O28	O	0.030421	1.492888	-0.003300
O29	O	-0.596522	1.235100	-0.413200
O30	O	-0.096522	1.735100	0.086800
O31	O	-0.395568	1.222908	-0.650167
O32	O	0.104432	1.722908	-0.150167
O33	O	-0.481695	1.120789	-0.644963
O34	O	0.018305	1.620789	-0.144963
C35	C	-0.420497	0.965321	-0.450700
C36	C	0.079503	1.465321	0.049300
C37	C	-0.416137	0.872892	-0.446020
C38	C	0.083863	1.372892	0.053980
C39	C	-0.623895	1.181420	-0.461670
C40	C	-0.123895	1.681420	0.038330
C41	C	-0.706210	1.181441	-0.461662
C42	C	-0.206210	1.681441	0.038338
C43	C	-0.408182	0.703665	-0.437454
C44	C	0.091818	1.203665	0.062546
C45	C	-0.453338	0.659914	-0.485984
C46	C	0.046662	1.159914	0.014016
C47	C	-0.448912	0.565750	-0.481218
C48	C	0.051088	1.065750	0.018782
C49	C	-0.412607	0.797838	-0.442219
C50	C	0.087393	1.297838	0.057781
C51	C	-1.005297	1.181498	-0.461509
C52	C	-0.505297	1.681498	0.038491
C53	C	-0.973639	1.113730	-0.522288
C54	C	-0.473639	1.613730	-0.022288
C55	C	-0.888042	1.113889	-0.522594
C56	C	-0.388042	1.613889	-0.022594
C57	C	-0.856916	1.181469	-0.461585
C58	C	-0.356916	1.681469	0.038415
C59	C	-0.893173	1.267877	-0.489821
C60	C	-0.393173	1.767877	0.010179
C61	C	-0.978819	1.267496	-0.490224
C62	C	-0.478819	1.767496	0.009776
C63	C	-0.968908	1.163626	-0.372388
C64	C	-0.468908	1.663626	0.127612
C65	C	-0.883187	1.161651	-0.372798
C66	C	-0.383187	1.661651	0.127202
C67	C	-0.773058	1.181458	-0.461627
C68	C	-0.273058	1.681458	0.038373
C69	C	-1.089155	1.181514	-0.461469
C70	C	-0.589155	1.681514	0.038531
C71	C	-0.238320	1.181373	-0.461650
C72	C	0.261680	1.681373	0.038350
C73	C	-0.156003	1.181525	-0.461431
C74	C	0.343997	1.681525	0.038569
C75	C	-0.439931	1.170325	-0.677738
C76	C	0.060069	1.670325	-0.177738
C77	C	-0.443895	1.165676	-0.770168
C78	C	0.056105	1.665676	-0.270168
C79	C	-0.441007	1.398265	-0.472720
C80	C	0.058993	1.898265	0.027280
C81	C	-0.445386	1.490692	-0.477421
C82	C	0.054614	1.990692	0.022579
C83	C	-0.451148	1.157193	-0.939401
C84	C	0.048852	1.657193	-0.439401
C85	C	-0.410335	1.205699	-0.983143
C86	C	0.089665	1.705699	-0.483143
C87	C	-0.414370	1.200978	-1.077310
C88	C	0.085630	1.700978	-0.577310
C89	C	-0.447113	1.161912	-0.845226
C90	C	0.052887	1.661912	-0.345226
C91	C	-0.421514	1.192483	-0.244797
C92	C	0.078486	1.692483	0.255203
C93	C	-0.417585	1.197218	-0.152370
C94	C	0.082415	1.697218	0.347630
H95	H	-0.495323	0.693177	-0.531109
H96	H	0.004677	1.193177	-0.031109
H97	H	-0.986605	1.101947	-0.347528
H98	H	-0.486605	1.601947	0.152472
O99	O	-0.858405	1.037340	-0.500884
O100	O	-0.358405	1.537340	-0.000884
C101	C	-0.780532	1.037443	-0.501181
C102	C	-0.280532	1.537443	-0.001181
H103	H	-0.762217	1.103705	-0.492879
H104	H	-0.262217	1.603705	0.007121
H105	H	-0.755133	0.997118	-0.448095
H106	H	-0.255133	1.497118	0.051905
H107	H	-0.761277	1.011589	-0.562807
H108	H	-0.261277	1.511589	-0.062807
O109	O	-0.358116	0.663859	-0.383696
O110	O	0.141884	1.163859	0.116304
C111	C	-0.364799	0.577342	-0.390842
C112	C	0.135201	1.077342	0.109158
H113	H	-0.391158	0.562321	-0.454472
H114	H	0.108842	1.062321	0.045528
H115	H	-0.307567	0.544516	-0.383476
H116	H	0.192433	1.044516	0.116524
H117	H	-0.401073	0.555228	-0.340360
H118	H	0.098927	1.055228	0.159640
H119	H	-0.489116	1.112123	-0.972671
H120	H	0.010884	1.612123	-0.472671
H121	H	-0.990520	1.049312	-0.504246
H122	H	-0.490520	1.549312	-0.004246
H123	H	-0.998623	1.125041	-0.587850
H124	H	-0.498623	1.625041	-0.087850
H125	H	-0.859046	1.098084	-0.351585
H126	H	-0.359046	1.598084	0.148415
O127	O	-0.867849	1.127482	-0.601337
O128	O	-0.367849	1.627482	-0.101337
C129	C	-0.893583	1.063947	-0.653905
C130	C	-0.393583	1.563947	-0.153905
H131	H	-0.942429	1.034712	-0.625399
H132	H	-0.442429	1.534712	-0.125399
H133	H	-0.911994	1.091262	-0.717201
H134	H	-0.411994	1.591262	-0.217201
H135	H	-0.847134	1.014493	-0.661625
H136	H	-0.347134	1.514493	-0.161625
H137	H	-1.002444	1.283166	-0.555504
H138	H	-0.502444	1.783166	-0.055504
H139	H	-0.999998	1.319461	-0.448117
H140	H	-0.499998	1.819461	0.051883
H141	H	-0.861711	1.207763	-0.324751
H142	H	-0.361711	1.707763	0.175249
O143	O	-0.365015	1.259539	-0.943589
O144	O	0.134985	1.759539	-0.443589
C145	C	-0.327842	1.303694	-1.002805
C146	C	0.172158	1.803694	-0.502805
H147	H	-0.360915	1.303517	-1.064874
H148	H	0.139085	1.803517	-0.564874
H149	H	-0.322025	1.370455	-0.980899
H150	H	0.177975	1.870455	-0.480899
H151	H	-0.270526	1.272818	-1.010526
H152	H	0.229474	1.772818	-0.510526
H153	H	-0.873226	1.319532	-0.447139
H154	H	-0.373226	1.819532	0.052861
H155	H	-0.875358	1.283909	-0.554435
H156	H	-0.375358	1.783909	-0.054435
O157	O	-0.993410	1.222615	-0.318397
O158	O	-0.493410	1.722615	0.181603
C159	C	-1.043164	1.279808	-0.360903
C160	C	-0.543164	1.779808	0.139097
H161	H	-1.067795	1.249246	-0.419110
H162	H	-0.567795	1.749246	0.080890
H163	H	-1.089492	1.299990	-0.318726
H164	H	-0.589492	1.799990	0.181274
H165	H	-1.012440	1.336432	-0.379244
H166	H	-0.512440	1.836432	0.120756
