data_functionalizedCrystal
_audit_creation_method	'MofGen! by Chris Wilmer'
_symmetry_space_group_name_H-M	'P1'
_symmetry_Int_Tables_number	1
_symmetry_cell_setting	triclinic
loop_
_symmetry_equiv_pos_as_xyz
  x,y,z
_cell_length_a	19.188925
_cell_length_b	19.188930
_cell_length_c	15.021413
_cell_angle_alpha	89.998889
_cell_angle_beta	89.991764
_cell_angle_gamma	83.143665
loop_
_atom_site_label
_atom_site_type_symbol
_atom_site_fract_x
_atom_site_fract_y
_atom_site_fract_z
O1	O	0.926151	0.087140	-0.074061
O2	O	1.176151	0.337140	0.175939
O3	O	1.426151	0.587140	0.425939
O4	O	1.676151	0.837140	0.675939
O5	O	0.722839	0.098878	-0.074060
O6	O	0.972839	0.348878	0.175940
O7	O	1.222839	0.598878	0.425940
O8	O	1.472839	0.848878	0.675940
O9	O	0.830362	-0.008647	-0.074043
O10	O	1.080362	0.241353	0.175957
O11	O	1.330362	0.491353	0.425957
O12	O	1.580362	0.741353	0.675957
O13	O	0.818628	0.194665	-0.074078
O14	O	1.068628	0.444665	0.175922
O15	O	1.318628	0.694665	0.425922
O16	O	1.568628	0.944665	0.675922
O17	O	0.830345	-0.008631	0.074021
O18	O	1.080345	0.241369	0.324021
O19	O	1.330345	0.491369	0.574021
O20	O	1.580345	0.741369	0.824021
O21	O	0.722822	0.098894	0.074004
O22	O	0.972822	0.348894	0.324004
O23	O	1.222822	0.598894	0.574004
O24	O	1.472822	0.848894	0.824004
O25	O	0.926134	0.087155	0.074003
O26	O	1.176134	0.337155	0.324003
O27	O	1.426134	0.587155	0.574003
O28	O	1.676134	0.837155	0.824003
Zn29	Zn	0.824475	0.093027	0.097512
Zn30	Zn	1.074475	0.343027	0.347512
Zn31	Zn	1.324475	0.593027	0.597512
Zn32	Zn	1.574475	0.843027	0.847512
Zn33	Zn	0.824498	0.093007	-0.097569
Zn34	Zn	1.074498	0.343007	0.152431
Zn35	Zn	1.324498	0.593007	0.402431
Zn36	Zn	1.574498	0.843007	0.652431
O37	O	0.818611	0.194680	0.073986
O38	O	1.068611	0.444680	0.323986
O39	O	1.318611	0.694680	0.573986
O40	O	1.568611	0.944680	0.823986
C41	C	0.696820	0.098507	-0.000028
C42	C	0.946820	0.348507	0.249972
C43	C	1.196820	0.598507	0.499972
C44	C	1.446820	0.848507	0.749972
C45	C	0.619315	0.097367	-0.000026
C46	C	0.869315	0.347367	0.249974
C47	C	1.119315	0.597367	0.499974
C48	C	1.369315	0.847367	0.749974
C49	C	0.057545	0.152831	-0.000038
C50	C	0.307545	0.402831	0.249962
C51	C	0.557545	0.652831	0.499962
C52	C	0.807545	0.902831	0.749962
C53	C	0.130368	0.153908	-0.000043
C54	C	0.380368	0.403908	0.249957
C55	C	0.630368	0.653908	0.499957
C56	C	0.880368	0.903908	0.749957
C57	C	0.175302	0.090816	-0.000031
C58	C	0.425302	0.340816	0.249969
C59	C	0.675302	0.590816	0.499969
C60	C	0.925302	0.840816	0.749969
C61	C	0.147408	0.026642	-0.000036
C62	C	0.397408	0.276642	0.249964
C63	C	0.647408	0.526642	0.499964
C64	C	0.897408	0.776642	0.749964
C65	C	0.074586	0.025568	-0.000040
C66	C	0.324586	0.275568	0.249960
C67	C	0.574586	0.525568	0.499960
C68	C	0.824586	0.775568	0.749960
N69	N	0.295974	0.045145	0.050379
N70	N	0.545974	0.295145	0.300379
N71	N	0.795974	0.545145	0.550379
N72	N	1.045974	0.795145	0.800379
N73	N	0.365151	0.046170	0.050385
N74	N	0.615151	0.296170	0.300385
N75	N	0.865151	0.546170	0.550385
N76	N	1.115151	0.796170	0.800385
C77	C	0.394712	0.094050	-0.000021
C78	C	0.644712	0.344050	0.249979
C79	C	0.894712	0.594050	0.499979
C80	C	1.144712	0.844050	0.749979
N81	N	0.352480	0.140876	-0.050421
N82	N	0.602480	0.390876	0.199579
N83	N	0.852480	0.640876	0.449579
N84	N	1.102480	0.890876	0.699579
N85	N	0.283296	0.139853	-0.050423
N86	N	0.533296	0.389853	0.199577
N87	N	0.783296	0.639853	0.449577
N88	N	1.033296	0.889853	0.699577
C89	C	0.254267	0.091974	-0.000027
C90	C	0.504267	0.341974	0.249973
C91	C	0.754267	0.591974	0.499973
C92	C	1.004267	0.841974	0.749973
C93	C	0.501561	0.159386	-0.000027
C94	C	0.751561	0.409386	0.249973
C95	C	1.001561	0.659386	0.499973
C96	C	1.251561	0.909386	0.749973
C97	C	0.574385	0.160460	-0.000037
C98	C	0.824385	0.410460	0.249963
C99	C	1.074385	0.660460	0.499963
C100	C	1.324385	0.910460	0.749963
C101	C	0.591425	0.033193	-0.000021
C102	C	0.841425	0.283193	0.249979
C103	C	1.091425	0.533193	0.499979
C104	C	1.341425	0.783193	0.749979
C105	C	0.518601	0.032121	-0.000020
C106	C	0.768601	0.282121	0.249980
C107	C	1.018601	0.532121	0.499980
C108	C	1.268601	0.782121	0.749980
C109	C	0.473673	0.095220	-0.000018
C110	C	0.723673	0.345220	0.249982
C111	C	0.973673	0.595220	0.499982
C112	C	1.223673	0.845220	0.749982
C113	C	0.829974	-0.034650	-0.000009
C114	C	1.079974	0.215350	0.249991
C115	C	1.329974	0.465350	0.499991
C116	C	1.579974	0.715350	0.749991
C117	C	0.828833	-0.112154	-0.000001
C118	C	1.078833	0.137846	0.249999
C119	C	1.328833	0.387846	0.499999
C120	C	1.578833	0.637846	0.749999
C121	C	0.891924	-0.157079	0.000003
C122	C	1.141924	0.092921	0.250003
C123	C	1.391924	0.342921	0.500003
C124	C	1.641924	0.592921	0.750003
C125	C	0.890852	-0.229903	-0.000011
C126	C	1.140852	0.020097	0.249989
C127	C	1.390852	0.270097	0.499989
C128	C	1.640852	0.520097	0.749989
C129	C	0.826686	-0.257799	-0.000012
C130	C	1.076686	-0.007799	0.249988
C131	C	1.326686	0.242201	0.499988
C132	C	1.576686	0.492201	0.749988
C133	C	0.763587	-0.212864	-0.000021
C134	C	1.013587	0.037136	0.249979
C135	C	1.263587	0.287136	0.499979
C136	C	1.513587	0.537136	0.749979
C137	C	0.764660	-0.140041	-0.000015
C138	C	1.014660	0.109959	0.249985
C139	C	1.264660	0.359959	0.499985
C140	C	1.514660	0.609959	0.749985
N141	N	0.777633	-0.365797	0.050378
N142	N	1.027633	-0.115797	0.300378
N143	N	1.277633	0.134203	0.550378
N144	N	1.527633	0.384203	0.800378
N145	N	0.776617	-0.434976	0.050375
N146	N	1.026617	-0.184976	0.300375
N147	N	1.276617	0.065024	0.550375
N148	N	1.526617	0.315024	0.800375
C149	C	0.823448	-0.477207	-0.000030
C150	C	1.073448	-0.227207	0.249970
C151	C	1.323448	0.022793	0.499970
C152	C	1.573448	0.272793	0.749970
N153	N	0.871343	-0.447648	-0.050419
N154	N	1.121343	-0.197648	0.199581
N155	N	1.371343	0.052352	0.449581
N156	N	1.621343	0.302352	0.699581
N157	N	0.872361	-0.378463	-0.050412
N158	N	1.122361	-0.128463	0.199588
N159	N	1.372361	0.121537	0.449588
N160	N	1.622361	0.371537	0.699588
C161	C	0.825515	-0.336761	-0.000018
C162	C	1.075515	-0.086761	0.249982
C163	C	1.325515	0.163239	0.499982
C164	C	1.575515	0.413239	0.749982
C165	C	0.885381	-0.601097	-0.000042
C166	C	1.135381	-0.351097	0.249958
C167	C	1.385381	-0.101097	0.499958
C168	C	1.635381	0.148903	0.749958
C169	C	0.884307	-0.673922	-0.000062
C170	C	1.134307	-0.423922	0.249938
C171	C	1.384307	-0.173922	0.499938
C172	C	1.634307	0.076078	0.749938
C173	C	0.757040	-0.656880	-0.000062
C174	C	1.007040	-0.406880	0.249938
C175	C	1.257040	-0.156880	0.499938
C176	C	1.507040	0.093120	0.749938
C177	C	0.758116	-0.584057	-0.000052
C178	C	1.008116	-0.334057	0.249948
C179	C	1.258116	-0.084057	0.499948
C180	C	1.508116	0.165943	0.749948
C181	C	0.822289	-0.556170	-0.000037
C182	C	1.072289	-0.306170	0.249963
C183	C	1.322289	-0.056170	0.499963
C184	C	1.572289	0.193830	0.749963
C185	C	0.952154	0.087527	-0.000031
C186	C	1.202154	0.337527	0.249969
C187	C	1.452154	0.587527	0.499969
C188	C	1.702154	0.837527	0.749969
C189	C	1.029658	0.088666	-0.000038
C190	C	1.279658	0.338666	0.249962
C191	C	1.529658	0.588666	0.499962
C192	C	1.779658	0.838666	0.749962
C193	C	0.819000	0.220684	-0.000050
C194	C	1.069000	0.470684	0.249950
C195	C	1.319000	0.720684	0.499950
C196	C	1.569000	0.970684	0.749950
C197	C	0.820140	0.298188	-0.000064
C198	C	1.070140	0.548188	0.249936
C199	C	1.320140	0.798188	0.499936
C200	C	1.570140	1.048188	0.749936
N201	N	0.824465	0.093040	0.230650
N202	N	1.074465	0.343040	0.480650
N203	N	1.324465	0.593040	0.730650
N204	N	1.574465	0.843040	0.980650
N205	N	0.824514	0.092988	-0.230707
N206	N	1.074514	0.342988	0.019293
N207	N	1.324514	0.592988	0.269293
N208	N	1.574514	0.842988	0.519293
C209	C	0.774739	0.142737	0.470325
C210	C	1.024739	0.392737	0.720325
C211	C	1.274739	0.642737	0.970325
C212	C	1.524739	0.892737	1.220325
C213	C	0.837788	0.156094	0.529656
C214	C	1.087788	0.406094	0.779656
C215	C	1.337788	0.656094	1.029656
C216	C	1.587788	0.906094	1.279656
C217	C	0.824483	0.093023	0.412256
C218	C	1.074483	0.343023	0.662256
C219	C	1.324483	0.593023	0.912256
C220	C	1.574483	0.843023	1.162256
C221	C	0.761451	0.079681	0.529667
C222	C	1.011451	0.329681	0.779667
C223	C	1.261451	0.579681	1.029667
C224	C	1.511451	0.829681	1.279667
C225	C	0.824495	0.093008	0.587681
C226	C	1.074495	0.343008	0.837681
C227	C	1.324495	0.593008	1.087681
C228	C	1.574495	0.843008	1.337681
C229	C	0.887563	0.106412	0.470281
C230	C	1.137563	0.356412	0.720281
C231	C	1.387563	0.606412	0.970281
C232	C	1.637563	0.856412	1.220281
C233	C	0.811186	0.029971	0.470287
C234	C	1.061186	0.279971	0.720287
C235	C	1.311186	0.529971	0.970287
C236	C	1.561186	0.779971	1.220287
C237	C	0.874280	0.043302	0.529591
C238	C	1.124280	0.293302	0.779591
C239	C	1.374280	0.543302	1.029591
C240	C	1.624280	0.793302	1.279591
C241	C	0.824475	0.093034	0.311199
C242	C	1.074475	0.343034	0.561199
C243	C	1.324475	0.593034	0.811199
C244	C	1.574475	0.843034	1.061199
C245	C	0.824510	0.092996	0.688736
C246	C	1.074510	0.342996	0.938736
C247	C	1.324510	0.592996	1.188736
C248	C	1.574510	0.842996	1.438736
H249	H	0.597088	0.212713	-0.000044
H250	H	0.847088	0.462713	0.249956
H251	H	1.097088	0.712713	0.499956
H252	H	1.347088	0.962713	0.749956
Br253	Br	0.208389	-0.058984	-0.000027
Br254	Br	0.458389	0.191016	0.249973
Br255	Br	0.708389	0.441016	0.499973
Br256	Br	0.958389	0.691016	0.749973
H257	H	0.628010	-0.018178	-0.000018
H258	H	0.878010	0.231822	0.249982
H259	H	1.128010	0.481822	0.499982
H260	H	1.378010	0.731822	0.749982
Br261	Br	0.669955	-0.694730	-0.000072
Br262	Br	0.919955	-0.444730	0.249928
Br263	Br	1.169955	-0.194730	0.499928
Br264	Br	1.419955	0.055270	0.749928
Br265	Br	0.480752	-0.054965	-0.000028
Br266	Br	0.730752	0.195035	0.249972
Br267	Br	0.980752	0.445035	0.499972
Br268	Br	1.230752	0.695035	0.749972
Br269	Br	0.440583	0.245018	-0.000025
Br270	Br	0.690583	0.495018	0.249975
Br271	Br	0.940583	0.745018	0.499975
Br272	Br	1.190583	0.995018	0.749975
Br273	Br	0.672487	-0.523083	-0.000056
Br274	Br	0.922487	-0.273083	0.249944
Br275	Br	1.172487	-0.023083	0.499944
Br276	Br	1.422487	0.226917	0.749944
Br277	Br	0.036738	-0.061520	-0.000046
Br278	Br	0.286738	0.188480	0.249954
Br279	Br	0.536738	0.438480	0.499954
Br280	Br	0.786738	0.688480	0.749954
Br281	Br	0.979015	-0.119236	-0.000002
Br282	Br	1.229015	0.130764	0.249998
Br283	Br	1.479015	0.380764	0.499998
Br284	Br	1.729015	0.630764	0.749998
H285	H	0.711342	-0.235581	-0.000023
H286	H	0.961342	0.014419	0.249977
H287	H	1.211342	0.264419	0.499977
H288	H	1.461342	0.514419	0.749977
H289	H	0.708142	0.068403	0.555755
H290	H	0.958142	0.318403	0.805755
H291	H	1.208142	0.568403	1.055755
H292	H	1.458142	0.818403	1.305755
H293	H	0.942230	-0.266488	-0.000012
H294	H	1.192230	-0.016488	0.249988
H295	H	1.442230	0.233512	0.499988
H296	H	1.692230	0.483512	0.749988
Br297	Br	0.679030	-0.079067	-0.000023
Br298	Br	0.929030	0.170933	0.249977
Br299	Br	1.179030	0.420933	0.499977
Br300	Br	1.429030	0.670933	0.749977
Br301	Br	0.704695	0.212860	0.426947
Br302	Br	0.954695	0.462860	0.676947
Br303	Br	1.204695	0.712860	0.926947
Br304	Br	1.454695	0.962860	1.176947
Br305	Br	0.972470	-0.563245	-0.000014
Br306	Br	1.222470	-0.313245	0.249986
Br307	Br	1.472470	-0.063245	0.499986
Br308	Br	1.722470	0.186755	0.749986
H309	H	0.849045	0.209409	0.555734
H310	H	1.099045	0.459409	0.805734
H311	H	1.349045	0.709409	1.055734
H312	H	1.599045	0.959409	1.305734
H313	H	0.935686	-0.710500	-0.000064
H314	H	1.185686	-0.460500	0.249936
H315	H	1.435686	-0.210500	0.499936
H316	H	1.685686	0.039500	0.749936
Br317	Br	0.976438	0.125311	0.426994
Br318	Br	1.226438	0.375311	0.676994
Br319	Br	1.476438	0.625311	0.926994
Br320	Br	1.726438	0.875311	1.176994
H321	H	0.916398	0.001251	0.555450
H322	H	1.166398	0.251251	0.805450
H323	H	1.416398	0.501251	1.055450
H324	H	1.666398	0.751251	1.305450
H325	H	0.799909	-0.023326	0.444188
H326	H	1.049909	0.226674	0.694188
H327	H	1.299909	0.476674	0.944188
H328	H	1.549909	0.726674	1.194188
H329	H	0.153078	0.206160	-0.000034
H330	H	0.403078	0.456160	0.249966
H331	H	0.653078	0.706160	0.499966
H332	H	0.903078	0.956160	0.749966
Br333	Br	-0.003426	0.238465	-0.000046
Br334	Br	0.246574	0.488465	0.249954
Br335	Br	0.496574	0.738465	0.499954
Br336	Br	0.746574	0.988465	0.749954
