data_functionalizedCrystal
_audit_creation_method	'MofGen! by Chris Wilmer'
_symmetry_space_group_name_H-M	'P1'
_symmetry_Int_Tables_number	1
_symmetry_cell_setting	triclinic
loop_
_symmetry_equiv_pos_as_xyz
  x,y,z
_cell_length_a	14.908979
_cell_length_b	14.908178
_cell_length_c	14.908308
_cell_angle_alpha	90.221621
_cell_angle_beta	83.628929
_cell_angle_gamma	96.795332
loop_
_atom_site_label
_atom_site_type_symbol
_atom_site_fract_x
_atom_site_fract_y
_atom_site_fract_z
Zn1	Zn	1.337569	-0.305881	0.415333
Zn2	Zn	1.338485	-0.447535	0.256244
Zn3	Zn	1.194939	-0.305925	0.272710
Zn4	Zn	1.177452	-0.465956	0.415270
O5	O	1.262111	-0.381324	0.339889
O6	O	1.464774	-0.316945	0.387365
O7	O	1.327146	-0.421059	0.132187
O8	O	1.220795	-0.179663	0.298546
O9	O	1.465447	-0.421018	0.270483
O10	O	1.325584	-0.179631	0.403331
O11	O	1.221683	-0.317019	0.144285
O12	O	1.065536	-0.334880	0.298485
O13	O	1.190989	-0.452412	0.541519
O14	O	1.052688	-0.452454	0.403224
O15	O	1.308627	-0.334806	0.541566
O16	O	1.310189	-0.576235	0.270422
O17	O	1.191878	-0.589768	0.387258
C18	C	1.026160	-0.395671	0.352635
C19	C	0.925217	-0.401832	0.358108
C20	C	0.776278	-0.471811	0.420244
C21	C	0.871123	-0.466024	0.415110
C22	C	0.884460	-0.343426	0.306234
C23	C	0.789616	-0.349214	0.311369
C24	C	0.735527	-0.413408	0.368377
C25	C	0.640681	-0.419191	0.373515
C26	C	0.654020	-0.296598	0.264635
C27	C	0.748865	-0.290810	0.259501
C28	C	1.249259	-0.615738	0.327064
C29	C	1.243842	-0.716018	0.321604
C30	C	1.342683	-0.904285	0.420583
C31	C	1.337596	-0.998507	0.415455
C32	C	1.228576	-0.998687	0.306225
C33	C	1.233663	-0.904465	0.311353
C34	C	1.290720	-0.857267	0.368533
C35	C	1.295811	-0.763043	0.373656
C36	C	1.186787	-0.763225	0.264431
C37	C	1.181700	-0.857447	0.259303
C38	C	1.498983	-0.366922	0.327094
C39	C	1.599924	-0.360784	0.321642
C40	C	1.247755	-0.395659	0.575191
C41	C	1.241637	-0.401768	0.675462
C42	C	1.275038	-0.145995	0.352782
C43	C	1.280546	-0.045711	0.358277
C44	C	1.276467	-0.366977	0.105504
C45	C	1.282775	-0.360603	0.005237
C46	C	1.352636	-0.290763	0.863934
C47	C	1.346890	-0.296500	0.958148
C48	C	1.224398	-0.418972	0.958106
C49	C	1.230143	-0.413236	0.863892
C50	C	1.294265	-0.349130	0.816809
C51	C	1.300014	-0.343399	0.722593
C52	C	1.177518	-0.465867	0.722554
C53	C	1.171773	-0.471603	0.816768
H54	H	0.596644	-0.471457	0.419938
H55	H	1.404850	-0.238570	0.825598
C56	C	1.071117	-0.664047	0.264138
C57	C	1.129659	-0.711544	0.207212
H58	H	1.035849	-0.632148	0.228811
H59	H	1.105823	-0.622452	0.298913
H60	H	1.031965	-0.705335	0.303288
H61	H	1.168816	-0.670256	0.168066
H62	H	1.094950	-0.753144	0.172422
C63	C	1.121313	-0.989413	0.198780
C64	C	1.165856	-1.050577	0.243385
H65	H	1.082586	-1.021451	0.159991
H66	H	1.164997	-0.948140	0.164162
H67	H	1.086134	-0.957178	0.241941
H68	H	1.201040	-1.082807	0.200225
H69	H	1.122166	-1.091866	0.278005
H70	H	1.342272	-0.724615	0.420212
C71	C	1.066436	-0.474032	0.993013
C72	C	1.153911	-0.489428	1.009865
H73	H	1.022919	-0.517526	1.024971
H74	H	1.061514	-0.478976	0.930165
H75	H	1.055545	-0.415156	1.012490
H76	H	1.164804	-0.548303	0.990382
H77	H	1.158836	-0.484493	1.072727
C78	C	1.336981	-1.111034	0.530374
C79	C	1.394715	-1.050192	0.472669
H80	H	1.372246	-1.142938	0.565701
H81	H	1.302285	-1.152624	0.495586
H82	H	1.297267	-1.078797	0.568982
H83	H	1.434426	-1.082430	0.434057
H84	H	1.429427	-1.008596	0.507461
C85	C	1.420506	-0.222909	0.732102
C86	C	1.370491	-0.272931	0.670837
H87	H	1.464010	-0.179399	0.700151
H88	H	1.450847	-0.262339	0.764816
H89	H	1.380577	-0.193050	0.772880
H90	H	1.410419	-0.302796	0.630063
H91	H	1.340148	-0.233495	0.638108
C92	C	1.468549	-0.174871	0.948721
C93	C	1.411057	-0.232345	1.009948
H94	H	1.508167	-0.135267	0.980702
H95	H	1.433116	-0.140531	0.916006
H96	H	1.503367	-0.209839	0.907941
H97	H	1.376234	-0.197377	1.050724
H98	H	1.446494	-0.266688	1.042678
C99	C	1.117387	-0.628838	0.839800
C100	C	1.101294	-0.542068	0.868525
H101	H	1.073872	-0.672340	0.871748
H102	H	1.176732	-0.639258	0.851226
H103	H	1.112454	-0.633764	0.776944
H104	H	1.106233	-0.537139	0.931380
H105	H	1.041935	-0.531644	0.857105
C106	C	0.888129	-0.222848	0.199101
C107	C	0.943923	-0.272886	0.243555
H108	H	0.924841	-0.179308	0.160396
H109	H	0.850641	-0.193033	0.242343
H110	H	0.851077	-0.262269	0.164401
H111	H	0.980971	-0.233466	0.278259
H112	H	0.981427	-0.302702	0.200306
C113	C	1.449932	-0.913568	0.528040
C114	C	1.405394	-0.852400	0.483435
H115	H	1.488641	-0.881535	0.566848
H116	H	1.485119	-0.945788	0.484888
H117	H	1.406237	-0.954855	0.562647
H118	H	1.449089	-0.811117	0.448823
H119	H	1.370204	-0.820164	0.526593
H120	H	0.792916	-0.238547	0.213084
C121	C	1.131932	-0.511460	0.578114
C122	C	1.113350	-0.530029	0.670752
H123	H	1.092316	-0.551069	0.546136
H124	H	1.193160	-0.520012	0.558661
H125	H	1.122906	-0.450707	0.566718
H126	H	1.122383	-0.590780	0.682149
H127	H	1.052107	-0.521484	0.690211
H128	H	0.620831	-0.249038	0.222404
H129	H	0.732239	-0.524073	0.466671
H130	H	0.904298	-0.513583	0.457346
H131	H	1.135244	-0.895888	0.212751
