data_functionalizedCrystal
_audit_creation_method	'MofGen! by Chris Wilmer'
_symmetry_space_group_name_H-M	'P1'
_symmetry_Int_Tables_number	1
_symmetry_cell_setting	triclinic
loop_
_symmetry_equiv_pos_as_xyz
  x,y,z
_cell_length_a	13.032721
_cell_length_b	13.032951
_cell_length_c	13.034356
_cell_angle_alpha	74.813221
_cell_angle_beta	89.133493
_cell_angle_gamma	89.099524
loop_
_atom_site_label
_atom_site_type_symbol
_atom_site_fract_x
_atom_site_fract_y
_atom_site_fract_z
Zn1	Zn	-0.515096	-1.642122	0.864526
Zn2	Zn	-0.704135	-1.598124	0.708194
Zn3	Zn	-0.515097	-1.441926	0.664403
Zn4	Zn	-0.665747	-1.447481	0.858917
O5	O	-0.600019	-1.532413	0.774010
O6	O	-0.556238	-1.783113	0.864462
O7	O	-0.695124	-1.556665	0.555555
O8	O	-0.372936	-1.484572	0.674970
O9	O	-0.695124	-1.750787	0.749606
O10	O	-0.372936	-1.631655	0.821999
O11	O	-0.556239	-1.441908	0.523381
O12	O	-0.519015	-1.295836	0.669532
O13	O	-0.629697	-1.494039	1.006492
O14	O	-0.629697	-1.299917	0.812441
O15	O	-0.519015	-1.637041	1.010612
O16	O	-0.841203	-1.562051	0.744168
O17	O	-0.813000	-1.451375	0.854903
C18	C	-0.570191	-1.259806	0.735626
C19	C	-0.557453	-1.143184	0.719233
C20	C	-0.606646	-1.093212	0.782549
C21	C	-0.593481	-0.972678	0.765608
C22	C	-0.863963	-1.502573	0.803706
C23	C	-0.976886	-1.489908	0.816458
C24	C	-1.041151	-1.539086	0.767409
C25	C	-1.157864	-1.525997	0.780589
C26	C	-0.335044	-1.562402	0.744225
C27	C	-0.222128	-1.575181	0.731533
C28	C	-0.570074	-1.571068	1.047688
C29	C	-0.557313	-1.587540	1.164313
C30	C	-0.629953	-0.806086	0.812536
C31	C	-0.642681	-0.922709	0.828932
C32	C	-0.629780	-1.493978	0.501397
C33	C	-0.642277	-1.477741	0.384769
C34	C	-0.593204	-1.541150	1.334809
C35	C	-0.606393	-1.524123	1.214270
H36	H	-0.541611	-0.926230	0.698858
F37	F	-0.674439	-1.153924	0.869795
H38	H	-0.694541	-0.969158	0.895692
H39	H	-0.694059	-1.410853	1.338304
H40	H	-1.009769	-1.590883	0.715664
F41	F	-1.017902	-1.422216	0.884106
H42	H	-0.505586	-1.096732	0.652488
H43	H	-1.189244	-1.474206	0.832346
F44	F	-1.181119	-1.642889	0.663892
H45	H	-0.541431	-1.608046	1.381276
H46	H	-0.505534	-1.654440	1.210775
F47	F	-0.674081	-1.436687	1.153547
