data_functionalizedCrystal
_audit_creation_method	'MofGen! by Chris Wilmer'
_symmetry_space_group_name_H-M	'P1'
_symmetry_Int_Tables_number	1
_symmetry_cell_setting	triclinic
loop_
_symmetry_equiv_pos_as_xyz
  x,y,z
_cell_length_a	10.654543
_cell_length_b	10.654550
_cell_length_c	15.455341
_cell_angle_alpha	92.970663
_cell_angle_beta	87.022304
_cell_angle_gamma	95.516449
loop_
_atom_site_label
_atom_site_type_symbol
_atom_site_fract_x
_atom_site_fract_y
_atom_site_fract_z
O1	O	-1.662894	0.171416	-0.072031
O2	O	-1.297413	0.188230	-0.072053
O3	O	-1.488556	-0.002916	-0.072042
O4	O	-1.471750	0.362563	-0.072042
O5	O	-1.498458	0.006976	0.072219
O6	O	-1.307315	0.198122	0.072209
O7	O	-1.672796	0.181309	0.072230
Cu8	Cu	-1.490959	0.190618	0.085392
Cu9	Cu	-1.479249	0.178920	-0.085215
O10	O	-1.481652	0.372455	0.072220
C11	C	-1.255565	0.191943	0.000075
C12	C	-1.116121	0.188254	0.000067
C13	C	-1.492273	-0.044768	0.000086
C14	C	-1.488581	-0.184212	0.000080
C15	C	-1.036635	0.300797	0.000068
C16	C	-0.905615	0.297325	0.000081
C17	C	-0.933579	0.068755	0.000087
C18	C	-1.064597	0.072229	0.000081
C19	C	-0.714642	0.177601	0.000096
C20	C	-0.854083	0.181307	0.000086
C21	C	-1.477967	-0.386144	-0.078551
C22	C	-1.481448	-0.255124	-0.078556
C23	C	-1.492245	-0.244327	0.078726
C24	C	-1.488772	-0.375346	0.078731
C25	C	-1.477935	0.414307	0.000089
C26	C	-1.481627	0.553750	0.000090
N27	N	-1.499205	0.198846	0.205387
N28	N	-1.471014	0.170683	-0.205210
C29	C	-1.544726	0.244447	0.749394
C30	C	-1.538497	0.238216	0.658586
C31	C	-1.458562	0.158213	0.613176
C32	C	-1.384841	0.084446	0.658579
C33	C	-1.391064	0.090685	0.749385
C34	C	-1.431707	0.131317	0.341596
C35	C	-1.425492	0.125082	0.250783
C36	C	-1.579147	0.278854	0.250797
C37	C	-1.585368	0.285079	0.341605
C38	C	-1.511643	0.211318	0.386999
N39	N	-1.452196	0.151839	0.520356
N40	N	-1.518003	0.217699	0.479818
H41	H	-1.078582	0.395272	0.000063
C42	C	-1.499780	-0.351522	0.234204
C43	C	-1.492791	-0.441424	0.165179
H44	H	-1.502256	-0.392318	0.287569
H45	H	-1.574014	-0.309588	0.230939
H46	H	-1.427794	-0.291699	0.230922
H47	H	-1.564782	-0.501241	0.168457
H48	H	-1.418549	-0.483377	0.168446
C49	C	-0.797360	-0.072839	-0.074068
C50	C	-0.876938	-0.058776	0.000091
H51	H	-0.762402	-0.151577	-0.074068
H52	H	-0.731275	-0.006317	-0.074060
H53	H	-0.844443	-0.070181	-0.124370
H54	H	-0.829853	-0.061425	0.050394
H55	H	-0.943033	-0.125316	0.000091
C56	C	-1.274209	-0.026277	0.259885
C57	C	-1.337613	0.037145	0.200866
H58	H	-1.219955	-0.080557	0.229066
H59	H	-1.333980	-0.074773	0.295312
H60	H	-1.225674	0.033492	0.295295
H61	H	-1.386155	-0.022624	0.165461
H62	H	-1.277833	0.085644	0.165425
H63	H	-1.478469	-0.206192	-0.142592
C64	C	-1.223066	-0.061550	-0.074083
C65	C	-1.151982	-0.051487	0.000077
H66	H	-1.277018	-0.137920	-0.074079
H67	H	-1.167910	-0.061615	-0.124379
H68	H	-1.272495	0.008054	-0.074078
H69	H	-1.102545	-0.121086	0.000068
H70	H	-1.207144	-0.051433	0.050386
C71	C	-1.208875	0.068000	0.556431
C72	C	-1.296980	-0.003497	0.608662
H73	H	-1.154641	0.013700	0.525613
H74	H	-1.160335	0.127738	0.591845
H75	H	-1.251900	0.111034	0.516402
H76	H	-1.253954	-0.046525	0.648696
H77	H	-1.345525	-0.063257	0.573246
C78	C	-0.891143	0.523600	0.000060
C79	C	-0.818243	0.421036	0.000076
H80	H	-0.837200	0.599976	0.000052
H81	H	-0.946288	0.523657	0.050361
H82	H	-0.939364	0.516734	-0.050254
H83	H	-0.770029	0.427898	0.050394
H84	H	-0.763076	0.420981	-0.050230
C85	C	-1.788035	0.328218	0.222859
C86	C	-1.660172	0.359938	0.200897
H87	H	-1.838054	0.378278	0.192048
H88	H	-1.803170	0.343386	0.283430
H89	H	-1.809599	0.241479	0.207977
H90	H	-1.638606	0.446675	0.215785
H91	H	-1.645030	0.344780	0.140312
H92	H	-1.371678	0.071251	0.378545
C93	C	-1.467613	-0.383648	-0.234017
C94	C	-1.470098	-0.464081	-0.164991
H95	H	-1.462756	-0.431763	-0.287382
H96	H	-1.396097	-0.323371	-0.230740
H97	H	-1.542315	-0.341275	-0.230746
H98	H	-1.395391	-0.506447	-0.168258
H99	H	-1.541620	-0.524380	-0.168270
C100	C	-1.761356	0.301511	0.443729
C101	C	-1.673243	0.373020	0.391511
H102	H	-1.815615	0.355800	0.474532
H103	H	-1.718347	0.258489	0.483762
H104	H	-1.809878	0.241758	0.408300
H105	H	-1.624714	0.432767	0.426940
H106	H	-1.716256	0.416063	0.351473
H107	H	-1.498060	-0.186581	0.142753
H108	H	-1.331037	0.030621	0.786345
C109	C	-1.757447	0.297655	0.777365
C110	C	-1.632595	0.332389	0.799303
H111	H	-1.811691	0.351957	0.808172
H112	H	-1.781056	0.212975	0.792259
H113	H	-1.764270	0.304499	0.716785
H114	H	-1.625770	0.325536	0.859883
H115	H	-1.608980	0.417091	0.784415
C116	C	-1.587722	0.447147	0.630646
C117	C	-1.619532	0.319302	0.608695
H118	H	-1.637759	0.497208	0.599850
H119	H	-1.500989	0.468655	0.615747
H120	H	-1.602867	0.462283	0.691228
H121	H	-1.604378	0.304164	0.548113
H122	H	-1.706286	0.297786	0.623588
