data_functionalizedCrystal
_audit_creation_method	'MofGen! by Chris Wilmer'
_symmetry_space_group_name_H-M	'P1'
_symmetry_Int_Tables_number	1
_symmetry_cell_setting	triclinic
loop_
_symmetry_equiv_pos_as_xyz
  x,y,z
_cell_length_a	11.792254
_cell_length_b	10.268362
_cell_length_c	12.811415
_cell_angle_alpha	95.436139
_cell_angle_beta	84.120630
_cell_angle_gamma	90.004525
loop_
_atom_site_label
_atom_site_type_symbol
_atom_site_fract_x
_atom_site_fract_y
_atom_site_fract_z
O1	O	1.506623	0.125295	0.143929
O2	O	2.006623	0.625295	0.643929
O3	O	1.176255	0.127047	0.158742
O4	O	1.676255	0.627047	0.658742
O5	O	1.349750	0.108126	-0.001409
O6	O	1.849750	0.608126	0.498591
O7	O	1.333128	0.144216	0.304081
O8	O	1.833128	0.644216	0.804081
O9	O	1.349735	-0.108476	-0.001416
O10	O	1.849735	0.391524	0.498584
O11	O	1.176240	-0.089554	0.158736
O12	O	1.676240	0.410446	0.658736
O13	O	1.506608	-0.091306	0.143923
O14	O	2.006608	0.408694	0.643923
Cu15	Cu	1.341422	-0.110208	0.151329
Cu16	Cu	1.841422	0.389792	0.651329
Cu17	Cu	1.341440	0.145948	0.151336
Cu18	Cu	1.841440	0.645948	0.651336
O19	O	1.333113	-0.072385	0.304074
O20	O	1.833113	0.427615	0.804074
C21	C	1.133959	0.018636	0.157806
C22	C	1.633959	0.518636	0.657806
C23	C	1.007951	0.018308	0.155013
C24	C	1.507951	0.518308	0.655013
C25	C	0.905619	0.018045	0.152744
C26	C	1.405619	0.518045	0.652744
C27	C	0.777238	0.017711	0.149906
C28	C	1.277238	0.517711	0.649906
N29	N	1.341418	-0.290374	0.151322
N30	N	1.841418	0.209626	0.651322
C31	C	1.341435	-0.556044	0.151334
C32	C	1.841435	-0.056044	0.651334
C33	C	1.341422	-0.408206	0.151331
C34	C	1.841422	0.091794	0.651331
C35	C	1.548904	0.017107	0.144859
C36	C	2.048904	0.517107	0.644859
C37	C	1.674912	0.017444	0.147652
C38	C	2.174912	0.517444	0.647652
C39	C	1.348811	-0.004793	-0.040522
C40	C	1.848811	0.495207	0.459478
C41	C	1.346021	-0.018552	-0.157057
C42	C	1.846021	0.481448	0.342943
N43	N	1.341454	0.326114	0.151334
N44	N	1.841454	0.826114	0.651334
C45	C	1.340774	0.191759	-0.376019
C46	C	1.840774	0.691759	0.123981
C47	C	1.338153	0.178837	-0.485513
C48	C	1.838153	0.678837	0.014487
C49	C	1.338149	-0.057316	-0.485541
C50	C	1.838149	0.442684	0.014459
C51	C	1.340770	-0.044394	-0.376047
C52	C	1.840770	0.455606	0.123953
C53	C	1.342084	0.080147	-0.321289
C54	C	1.842084	0.580147	0.178711
C55	C	1.344714	0.093068	-0.211794
C56	C	1.844714	0.593068	0.288206
C57	C	1.344701	-0.143084	-0.211823
C58	C	1.844701	0.356916	0.288177
C59	C	1.342080	-0.156006	-0.321318
C60	C	1.842080	0.343994	0.178682
C61	C	1.334052	0.040536	0.343187
C62	C	1.834052	0.540536	0.843187
C63	C	1.336842	0.054304	0.459722
C64	C	1.836842	0.554304	0.959722
H65	H	1.341855	0.293166	-0.331435
H66	H	1.841855	0.793166	0.168565
C67	C	1.346160	0.230053	-0.151557
C68	C	1.846160	0.730053	0.348443
H69	H	1.347920	0.221767	-0.078508
H70	H	1.847920	0.721767	0.421492
H71	H	1.279624	0.277347	-0.161870
H72	H	1.779624	0.777347	0.338130
H73	H	1.411847	0.275550	-0.177124
H74	H	1.911847	0.775550	0.322876
H75	H	1.337082	0.269724	-0.530069
H76	H	1.837082	0.769724	-0.030069
H77	H	1.337069	-0.158711	-0.530142
H78	H	1.837069	0.341289	-0.030142
C79	C	1.340642	-0.292990	-0.381557
C80	C	1.840642	0.207010	0.118443
H81	H	1.338901	-0.284703	-0.454608
H82	H	1.838901	0.215297	0.045392
H83	H	1.274968	-0.338500	-0.355994
H84	H	1.774968	0.161500	0.144006
H85	H	1.407191	-0.340272	-0.371244
H86	H	1.907191	0.159728	0.128756
C87	C	1.346133	-0.265862	-0.151618
C88	C	1.846133	0.234138	0.348382
H89	H	1.347874	-0.240333	-0.078563
H90	H	1.847874	0.259667	0.421437
H91	H	1.411806	-0.317397	-0.177193
H92	H	1.911806	0.182603	0.322807
H93	H	1.279583	-0.315590	-0.161942
H94	H	1.779583	0.184410	0.338058
