data_functionalizedCrystal
_audit_creation_method	'MofGen! by Chris Wilmer'
_symmetry_space_group_name_H-M	'P1'
_symmetry_Int_Tables_number	1
_symmetry_cell_setting	triclinic
loop_
_symmetry_equiv_pos_as_xyz
  x,y,z
_cell_length_a	23.532407
_cell_length_b	19.188905
_cell_length_c	17.666332
_cell_angle_alpha	90.012948
_cell_angle_beta	90.009215
_cell_angle_gamma	82.991616
loop_
_atom_site_label
_atom_site_type_symbol
_atom_site_fract_x
_atom_site_fract_y
_atom_site_fract_z
O1	O	0.071033	0.925931	0.063081
O2	O	0.080619	0.722586	0.063056
O3	O	-0.007093	0.830390	0.063055
O4	O	0.158745	0.818127	0.063081
O5	O	-0.007095	0.830378	-0.062842
O6	O	0.080617	0.722574	-0.062841
O7	O	0.071031	0.925919	-0.062816
Cu8	Cu	0.075824	0.824245	-0.074324
Cu9	Cu	0.075826	0.824260	0.074564
O10	O	0.158743	0.818115	-0.062815
C11	C	0.080310	0.696570	0.000104
C12	C	0.079385	0.619067	0.000094
C13	C	0.078942	0.582684	0.068722
C14	C	0.078067	0.509863	0.068732
C15	C	0.077623	0.473430	0.000109
C16	C	0.078070	0.509823	-0.068529
C17	C	0.078951	0.582641	-0.068536
N18	N	0.043830	0.364513	-0.050966
N19	N	0.042992	0.295339	-0.050954
C20	C	0.074970	0.254032	0.000127
N21	N	0.107811	0.284514	0.051207
N22	N	0.108647	0.353696	0.051197
C23	C	0.076668	0.394471	0.000109
C24	C	0.073579	0.138688	0.068770
C25	C	0.072707	0.065865	0.068776
C26	C	0.072704	0.065827	-0.068486
C27	C	0.073582	0.138647	-0.068491
C28	C	0.074016	0.175074	0.000139
C29	C	-0.028311	0.830072	0.000105
C30	C	-0.091530	0.829133	0.000099
C31	C	-0.490514	0.887040	0.000147
C32	C	-0.549916	0.886168	0.000153
O33	O	-0.586551	0.939848	0.000188
N34	N	-0.572674	0.822078	0.000145
C35	C	-0.536026	0.758857	0.000138
O36	O	-0.560837	0.704264	0.000132
C37	C	-0.476625	0.759730	0.000138
C38	C	-0.453871	0.823824	0.000139
C39	C	-0.467759	0.951128	0.000149
C40	C	-0.408362	0.952000	0.000142
C41	C	-0.371718	0.888784	0.000133
C42	C	-0.394473	0.824696	0.000132
C43	C	-0.439978	0.696509	0.000137
C44	C	-0.380574	0.697388	0.000138
C45	C	-0.357820	0.761482	0.000138
C46	C	-0.298432	0.762351	0.000116
N47	N	-0.275674	0.826440	0.000125
C48	C	-0.312317	0.889657	0.000133
C49	C	-0.660772	0.757029	0.000140
C50	C	-0.720172	0.756155	0.000135
C51	C	-0.734058	0.883466	0.000151
C52	C	-0.674657	0.884339	0.000151
C53	C	-0.638014	0.821118	0.000149
C54	C	-0.187577	0.891483	0.000118
C55	C	-0.128173	0.892350	0.000107
C56	C	-0.114292	0.765039	0.000095
C57	C	-0.173691	0.764172	0.000102
C58	C	-0.210332	0.827400	0.000115
O59	O	-0.261762	0.708699	0.000085
O60	O	-0.287498	0.944241	0.000149
C61	C	0.179961	0.818433	0.000137
C62	C	0.243180	0.819372	0.000148
C63	C	0.071340	0.951935	0.000137
C64	C	0.072265	1.029437	0.000152
N65	N	0.075822	0.824240	-0.179043
C66	C	0.036995	0.872007	-0.781094
C67	C	0.036997	0.872008	-0.701846
C68	C	0.075821	0.824260	-0.662225
C69	C	0.114657	0.776520	-0.701858
C70	C	0.114658	0.776525	-0.781104
N71	N	0.083206	0.762424	-0.537819
N72	N	0.083201	0.762422	-0.462539
C73	C	0.075820	0.824244	-0.423461
N74	N	0.068432	0.886070	-0.462507
N75	N	0.068434	0.886072	-0.537795
C76	C	0.075824	0.824250	-0.576296
C77	C	0.036991	0.871986	-0.297908
C78	C	0.036996	0.871988	-0.218659
C79	C	0.114654	0.776494	-0.218672
C80	C	0.114651	0.776498	-0.297920
C81	C	0.075817	0.824243	-0.337533
N82	N	0.075824	0.824270	0.179283
H83	H	-0.109650	0.944544	0.000106
H84	H	-0.084446	0.713570	0.000086
H85	H	0.072350	0.036242	0.124664
H86	H	0.146278	0.737651	-0.813366
H87	H	0.072347	0.036164	-0.124360
H88	H	-0.763904	0.934940	0.000161
O89	O	0.079419	0.621973	0.142741
H90	H	0.078969	0.584433	0.190464
H91	H	0.005371	0.910865	-0.330163
H92	H	0.073939	0.168272	-0.124375
O93	O	-0.227094	0.959677	0.000121
H94	H	-0.201283	1.004382	0.000112
H95	H	0.005377	0.910882	-0.669579
H96	H	0.146266	0.737623	-0.330183
H97	H	0.005376	0.910885	-0.813345
O98	O	-0.004887	0.923475	-0.175916
H99	H	-0.031893	0.956668	-0.216779
H100	H	0.146269	0.737644	-0.669594
H101	H	0.077710	0.480154	-0.124402
O102	O	0.156526	0.724987	-0.175951
H103	H	0.150000	0.732998	-0.114188
H104	H	0.073939	0.168347	0.124652
O105	O	-0.744712	0.687026	0.000120
H106	H	-0.729975	0.656677	0.051431
O107	O	-0.507276	1.019320	0.000146
H108	H	-0.499194	1.050023	0.051455
H109	H	0.077707	0.480233	0.124619
O110	O	-0.621250	0.688837	0.000117
H111	H	-0.647059	0.644130	0.000102
H112	H	-0.389841	1.004192	0.000146
H113	H	0.079312	0.612264	-0.124423
H114	H	-0.656135	0.936530	0.000152
H115	H	-0.350741	0.645904	0.000137
O116	O	-0.464512	0.627380	0.000139
H117	H	-0.429044	0.583575	0.000143
O118	O	-0.198239	0.695046	0.000098
H119	H	-0.162776	0.651234	0.000094
