data_functionalizedCrystal
_audit_creation_method	'MofGen! by Chris Wilmer'
_symmetry_space_group_name_H-M	'P1'
_symmetry_Int_Tables_number	1
_symmetry_cell_setting	triclinic
loop_
_symmetry_equiv_pos_as_xyz
  x,y,z
_cell_length_a	16.120530
_cell_length_b	16.120484
_cell_length_c	19.076919
_cell_angle_alpha	84.953390
_cell_angle_beta	90.500157
_cell_angle_gamma	90.167327
loop_
_atom_site_label
_atom_site_type_symbol
_atom_site_fract_x
_atom_site_fract_y
_atom_site_fract_z
Zn1	Zn	1.231083	-0.416729	0.468408
Zn2	Zn	1.731083	0.083271	0.968408
Zn3	Zn	1.229520	-0.550737	0.356379
Zn4	Zn	1.729520	-0.050737	0.856379
Zn5	Zn	1.098210	-0.404109	0.344506
Zn6	Zn	1.598210	0.095891	0.844506
Zn7	Zn	1.084967	-0.548653	0.467764
Zn8	Zn	1.584967	-0.048653	0.967764
O9	O	1.160945	-0.480057	0.409264
O10	O	1.660945	0.019943	0.909264
O11	O	1.346980	-0.440659	0.458785
O12	O	1.846980	0.059341	0.958785
O13	O	1.216990	-0.526877	0.256335
O14	O	1.716990	-0.026877	0.756335
O15	O	1.122031	-0.289208	0.356243
O16	O	1.622031	0.210792	0.856243
O17	O	1.345832	-0.539114	0.376478
O18	O	1.845832	-0.039114	0.876478
O19	O	1.219653	-0.298479	0.447273
O20	O	1.719653	0.201521	0.947273
O21	O	1.120516	-0.419150	0.247613
O22	O	1.620516	0.080850	0.747613
O23	O	0.980349	-0.417129	0.355619
O24	O	1.480349	0.082871	0.855619
O25	O	1.099462	-0.535562	0.566318
O26	O	1.599462	-0.035562	1.066318
O27	O	0.970620	-0.523325	0.446176
O28	O	1.470620	-0.023325	0.946176
O29	O	1.206812	-0.438638	0.566791
O30	O	1.706812	0.061362	1.066791
O31	O	1.204149	-0.667035	0.375853
O32	O	1.704149	-0.167035	0.875853
O33	O	1.097947	-0.665504	0.457688
O34	O	1.597947	-0.165504	0.957688
C35	C	0.945380	-0.468632	0.399540
C36	C	1.445380	0.031368	0.899540
C37	C	0.853158	-0.463765	0.395397
C38	C	1.353158	0.036235	0.895397
C39	C	0.684309	-0.454861	0.387838
C40	C	1.184309	0.045139	0.887838
C41	C	0.638416	-0.505316	0.430744
C42	C	1.138416	-0.005316	0.930744
C43	C	0.544462	-0.500362	0.426539
C44	C	1.044462	-0.000362	0.926539
C45	C	0.778271	-0.459814	0.392043
C46	C	1.278271	0.040186	0.892043
C47	C	1.149463	-0.696498	0.418005
C48	C	1.649463	-0.196498	0.918005
C49	C	1.144626	-0.789098	0.421772
C50	C	1.644626	-0.289098	0.921772
C51	C	1.135798	-0.958640	0.428663
C52	C	1.635798	-0.458640	0.928663
C53	C	1.186240	-1.000641	0.389884
C54	C	1.686240	-0.500641	0.889884
C55	C	1.181328	-1.094980	0.393718
C56	C	1.681328	-0.594980	0.893718
C57	C	1.140709	-0.864292	0.424830
C58	C	1.640709	-0.364292	0.924830
C59	C	1.377352	-0.491526	0.419028
C60	C	1.877352	0.008474	0.919028
C61	C	1.469571	-0.496414	0.423188
C62	C	1.969571	0.003586	0.923188
C63	C	1.151834	-0.488275	0.592801
C64	C	1.651834	0.011725	1.092801
C65	C	1.147951	-0.491777	0.671013
C66	C	1.647951	0.008223	1.171013
C67	C	1.172494	-0.262772	0.400506
C68	C	1.672494	0.237228	0.900506
C69	C	1.177415	-0.170178	0.396773
C70	C	1.677415	0.329822	0.896773
C71	C	1.170072	-0.471812	0.226442
C72	C	1.670072	0.028188	0.726442
C73	C	1.174127	-0.468084	0.148228
C74	C	1.674127	0.031916	0.648228
C75	C	1.202016	-0.442962	0.708004
C76	C	1.702016	0.057038	1.208004
C77	C	1.198358	-0.446249	0.781492
C78	C	1.698358	0.053751	1.281492
C79	C	1.140639	-0.498357	0.817988
C80	C	1.640639	0.001643	1.317988
C81	C	1.086568	-0.547174	0.780991
C82	C	1.586568	-0.047174	1.280991
C83	C	1.090223	-0.543882	0.707504
C84	C	1.590223	-0.043882	1.207504
C85	C	1.123711	-0.513609	1.037744
C86	C	1.623711	-0.013609	1.537744
C87	C	1.120062	-0.516899	1.111236
C88	C	1.620062	-0.016899	1.611236
C89	C	1.231852	-0.415973	1.111733
C90	C	1.731852	0.084027	1.611733
C91	C	1.235505	-0.412689	1.038244
C92	C	1.735505	0.087311	1.538244
C93	C	1.181431	-0.461503	1.001254
C94	C	1.681431	0.038497	1.501254
N95	N	1.136900	-0.501720	0.893105
N96	N	1.636900	-0.001720	1.393105
N97	N	1.185167	-0.458135	0.926138
N98	N	1.685167	0.041865	1.426138
H99	H	0.669688	-0.552232	0.470636
H100	H	1.169688	-0.052232	0.970636
H101	H	0.653039	-0.407948	0.347950
H102	H	1.153039	0.092052	0.847950
H103	H	1.233112	-0.965749	0.353804
H104	H	1.733112	-0.465749	0.853804
C105	C	1.072474	-1.005768	0.477393
C106	C	1.572474	-0.505768	0.977393
H107	H	1.077435	-1.063910	0.473601
H108	H	1.577435	-0.563910	0.973601
H109	H	1.082940	-0.994285	0.524661
H110	H	1.582940	-0.494285	1.024661
H111	H	1.017972	-0.988201	0.463967
H112	H	1.517972	-0.488201	0.963967
H113	H	1.249020	-0.400533	0.678295
H114	H	1.749020	0.099467	1.178295
C115	C	1.257833	-0.392556	0.822181
C116	C	1.757833	0.107444	1.322181
H117	H	1.292739	-0.361060	0.789921
H118	H	1.792739	0.138940	1.289921
H119	H	1.226604	-0.355857	0.847951
H120	H	1.726604	0.144143	1.347951
H121	H	1.290864	-0.427631	0.853765
H122	H	1.790864	0.072369	1.353765
H123	H	1.282508	-0.370260	1.008535
H124	H	1.782508	0.129740	1.508535
H125	H	1.275874	-0.376230	1.141858
H126	H	1.775874	0.123770	1.641858
H127	H	1.073058	-0.559334	1.140949
H128	H	1.573058	-0.059334	1.640949
C129	C	1.064241	-0.567307	0.997060
C130	C	1.564241	-0.067307	1.497060
H131	H	1.074674	-0.557881	0.948066
H132	H	1.574674	-0.057881	1.448066
H133	H	1.072810	-0.624462	1.011909
H134	H	1.572810	-0.124462	1.511909
H135	H	1.008542	-0.552695	1.006097
H136	H	1.508542	-0.052695	1.506097
C137	C	1.023079	-0.604492	0.821134
C138	C	1.523079	-0.104492	1.321134
H139	H	1.028650	-0.599469	0.870199
H140	H	1.528650	-0.099469	1.370199
H141	H	0.968579	-0.588808	0.806083
H142	H	1.468579	-0.088808	1.306083
H143	H	1.032852	-0.660571	0.811893
H144	H	1.532852	-0.160571	1.311893
C145	C	1.030771	-0.597600	0.666815
C146	C	1.530771	-0.097600	1.166815
H147	H	0.995882	-0.629117	0.699075
H148	H	1.495882	-0.129117	1.199075
H149	H	0.997734	-0.562550	0.635222
H150	H	1.497734	-0.062550	1.135222
H151	H	1.062027	-0.634294	0.641054
H152	H	1.562027	-0.134294	1.141054
