data_functionalizedCrystal
_audit_creation_method	'MofGen! by Chris Wilmer'
_symmetry_space_group_name_H-M	'P1'
_symmetry_Int_Tables_number	1
_symmetry_cell_setting	triclinic
loop_
_symmetry_equiv_pos_as_xyz
  x,y,z
_cell_length_a	6.817900
_cell_length_b	11.353959
_cell_length_c	10.773894
_cell_angle_alpha	107.082425
_cell_angle_beta	96.645922
_cell_angle_gamma	107.526623
loop_
_atom_site_label
_atom_site_type_symbol
_atom_site_fract_x
_atom_site_fract_y
_atom_site_fract_z
V1	V	-3.980486	-0.175628	-0.427091
O2	O	-3.935538	0.013371	-0.378636
O3	O	-3.964386	-0.352984	-0.462954
O4	O	-3.897273	-0.170763	-0.595667
O5	O	-4.003116	-0.170112	-0.245004
V6	V	-4.464439	-0.153278	-0.400601
O7	O	-4.240800	-0.224657	-0.485200
O8	O	-4.654322	-0.104249	-0.342492
O9	O	-4.257332	0.024078	-0.364739
O10	O	-4.626784	-0.342277	-0.449056
O11	O	-4.559206	-0.158794	-0.582688
O12	O	-4.324446	-0.158143	-0.232026
C13	C	-3.818372	-0.396287	-0.466224
C14	C	-3.886263	-0.541264	-0.496669
C15	C	-3.897067	-0.589539	-0.398124
C16	C	-3.967236	-0.739380	-0.429589
C17	C	-3.732760	-0.163845	-0.635510
C18	C	-3.746222	-0.161040	-0.773576
C19	C	-3.925181	-0.165901	-0.842494
C20	C	-3.939098	-0.163002	-0.985193
C21	C	-4.066691	0.067374	-0.361467
C22	C	-3.978036	0.212350	-0.331030
C23	C	-4.152302	-0.165066	-0.192177
C24	C	-4.118079	-0.167863	-0.054108
H25	H	-3.854380	-0.519939	-0.290463
O26	O	-3.927319	-0.704515	-0.202642
C27	C	-4.004582	-0.536895	-0.040807
C28	C	-4.062205	-0.630955	-0.186249
H29	H	-4.113635	-0.477416	-0.027499
H30	H	-3.833990	-0.467136	-0.015686
H31	H	-4.023548	-0.596576	0.028469
H32	H	-4.043367	-0.571381	-0.255621
H33	H	-4.232775	-0.700716	-0.211260
H34	H	-4.009940	-0.808977	-0.537258
H35	H	-3.928968	-0.610864	-0.604331
O36	O	-4.095739	-0.173656	-0.786890
C37	C	-4.347469	-0.297330	-0.690698
C38	C	-4.154339	-0.288726	-0.753673
H39	H	-4.394879	-0.390342	-0.663798
H40	H	-4.484495	-0.300628	-0.764758
H41	H	-4.305911	-0.207321	-0.596822
H42	H	-4.195694	-0.378712	-0.847537
H43	H	-4.017368	-0.285364	-0.679525
O44	O	-3.768638	-0.155303	-1.040894
C45	C	-3.516741	-0.031540	-1.136927
C46	C	-3.709808	-0.040112	-1.073894
H47	H	-3.469091	0.061599	-1.163600
H48	H	-3.558202	-0.121436	-1.230905
H49	H	-3.379895	-0.028397	-1.062847
H50	H	-3.846736	-0.043214	-1.147873
H51	H	-3.668174	0.049782	-0.979893
O52	O	-4.288658	-0.175624	-0.998518
C53	C	-4.540409	-0.299310	-0.902346
C54	C	-4.347263	-0.290697	-0.965306
H55	H	-4.587822	-0.392325	-0.875450
H56	H	-4.677427	-0.302610	-0.976414
H57	H	-4.498868	-0.209304	-0.808470
H58	H	-4.388600	-0.380680	-1.059170
H59	H	-4.210300	-0.287333	-0.891150
H60	H	-3.603307	-0.154725	-0.820214
