data_functionalizedCrystal
_audit_creation_method	'MofGen! by Chris Wilmer'
_symmetry_space_group_name_H-M	'P1'
_symmetry_Int_Tables_number	1
_symmetry_cell_setting	triclinic
loop_
_symmetry_equiv_pos_as_xyz
  x,y,z
_cell_length_a	33.510554
_cell_length_b	33.509711
_cell_length_c	33.506470
_cell_angle_alpha	60.004186
_cell_angle_beta	60.008358
_cell_angle_gamma	59.994760
loop_
_atom_site_label
_atom_site_type_symbol
_atom_site_fract_x
_atom_site_fract_y
_atom_site_fract_z
O1	O	0.055430	-0.583081	0.487524
O2	O	0.555430	-0.083081	0.987524
O3	O	0.020931	-0.453975	0.392819
O4	O	0.520931	0.046025	0.892819
O5	O	0.102693	-0.535652	0.392731
O6	O	0.602693	-0.035652	0.892731
O7	O	-0.026332	-0.501404	0.487613
O8	O	0.473668	-0.001404	0.987613
O9	O	0.129823	-0.508526	0.419767
O10	O	0.629823	-0.008526	0.919767
O11	O	0.048062	-0.426850	0.419856
O12	O	0.548062	0.073150	0.919856
O13	O	0.082561	-0.555956	0.514561
O14	O	0.582561	-0.055956	1.014561
Cu15	Cu	0.067789	-0.488926	0.469677
Cu16	Cu	0.567789	0.011074	0.969677
Cu17	Cu	0.035703	-0.521005	0.437703
Cu18	Cu	0.535703	-0.021005	0.937703
O19	O	0.000799	-0.474279	0.514649
O20	O	0.500799	0.025721	1.014649
N21	N	0.090357	-0.466366	0.492168
N22	N	0.590357	0.033634	0.992168
N23	N	0.013139	-0.543569	0.415212
N24	N	0.513139	-0.043569	0.915212
C25	C	0.143028	-0.279707	0.544737
C26	C	0.643028	0.220293	1.044737
C27	C	0.143165	-0.413746	0.678712
C28	C	0.643165	0.086254	1.178712
C29	C	0.143043	-0.413725	0.544739
C30	C	0.643043	0.086275	1.044739
C31	C	0.277090	-0.413694	0.544637
C32	C	0.777090	0.086306	1.044637
C33	C	0.157791	-0.323929	0.559462
C34	C	0.657791	0.176071	1.059462
C35	C	0.157869	-0.398994	0.634489
C36	C	0.657869	0.101006	1.134489
C37	C	0.232865	-0.398963	0.559407
C38	C	0.732865	0.101037	1.059407
C39	C	0.157801	-0.398982	0.559463
C40	C	0.657801	0.101018	1.059463
C41	C	0.124237	-0.223419	0.525994
C42	C	0.624237	0.276581	1.025994
C43	C	0.124262	-0.432490	0.525997
C44	C	0.624262	0.067510	1.025997
C45	C	0.176583	-0.380217	0.578205
C46	C	0.676583	0.119783	1.078205
C47	C	0.358938	-0.399566	0.501510
C48	C	0.858938	0.100434	1.001510
C49	C	0.410104	-0.416609	0.484423
C50	C	0.910104	0.083391	0.984423
C51	C	0.410135	-0.499402	0.515995
C52	C	0.910135	0.000598	1.015995
C53	C	0.358969	-0.482358	0.533084
C54	C	0.858969	0.017642	1.033084
C55	C	0.136554	-0.197822	0.475693
C56	C	0.636554	0.302178	0.975693
C57	C	0.119469	-0.146653	0.458657
C58	C	0.619469	0.353347	0.958657
C59	C	0.077755	-0.146680	0.542223
C60	C	0.577755	0.353320	1.042223
C61	C	0.094840	-0.197850	0.559260
C62	C	0.594840	0.302150	1.059260
C63	C	0.073954	-0.420144	0.538396
C64	C	0.573954	0.079856	1.038396
C65	C	0.056884	-0.437203	0.521352
C66	C	0.556884	0.062797	1.021352
C67	C	0.140427	-0.478952	0.479524
C68	C	0.640427	0.021048	0.979524
C69	C	0.157498	-0.461894	0.496561
C70	C	0.657498	0.038106	0.996561
C71	C	0.074158	-0.420182	0.760618
C72	C	0.574158	0.079818	1.260618
C73	C	0.057149	-0.437256	0.811786
C74	C	0.557149	0.062744	1.311786
C75	C	0.140732	-0.479014	0.811717
C76	C	0.640732	0.020986	1.311717
C77	C	0.157740	-0.461942	0.760547
C78	C	0.657740	0.038058	1.260547
C79	C	0.124452	-0.432525	0.734999
C80	C	0.624452	0.067475	1.234999
C81	C	0.333372	-0.432439	0.525839
C82	C	0.833372	0.067561	1.025839
C83	C	-0.020612	-0.577650	0.170305
C84	C	0.479388	-0.077650	0.670305
C85	C	-0.020943	-0.788098	0.380897
C86	C	0.479057	-0.288098	0.880897
C87	C	-0.020912	-0.577638	0.380991
C88	C	0.479088	-0.077638	0.880991
C89	C	-0.231336	-0.577418	0.380585
C90	C	0.268664	-0.077418	0.880585
C91	C	-0.129735	-0.611383	0.346870
C92	C	0.370265	-0.111383	0.846870
C93	C	-0.054722	-0.611464	0.347017
C94	C	0.445278	-0.111464	0.847017
C95	C	-0.073450	-0.630202	0.328195
C96	C	0.426550	-0.130202	0.828195
C97	C	-0.087616	-0.712029	0.371239
C98	C	0.412384	-0.212029	0.871239
C99	C	-0.070599	-0.763199	0.388315
C100	C	0.429401	-0.263199	0.888315
C101	C	0.012191	-0.763282	0.356872
C102	C	0.512191	-0.263282	0.856872
C103	C	-0.004828	-0.712113	0.339795
C104	C	0.495172	-0.212113	0.839795
C105	C	-0.155381	-0.623711	0.397158
C106	C	0.344619	-0.123711	0.897158
C107	C	-0.206547	-0.606601	0.414133
C108	C	0.293453	-0.106601	0.914133
C109	C	-0.206417	-0.564839	0.330529
C110	C	0.293583	-0.064839	0.830529
C111	C	-0.155251	-0.581949	0.313554
C112	C	0.344749	-0.081949	0.813554
C113	C	-0.067051	-0.561160	0.334643
C114	C	0.432949	-0.061160	0.834643
C115	C	-0.050026	-0.544131	0.351759
C116	C	0.449974	-0.044131	0.851759
C117	C	-0.008343	-0.627704	0.393612
C118	C	0.491657	-0.127704	0.893612
C119	C	-0.025368	-0.644736	0.376502
C120	C	0.474632	-0.144736	0.876502
C121	C	-0.066922	-0.561168	0.246303
C122	C	0.433078	-0.061168	0.746303
C123	C	-0.049794	-0.544141	0.195134
C124	C	0.450206	-0.044141	0.695134
C125	C	-0.008048	-0.627719	0.195183
C126	C	0.491952	-0.127719	0.695183
C127	C	-0.025175	-0.644745	0.246352
C128	C	0.474825	-0.144745	0.746352
C129	C	-0.054614	-0.611468	0.271911
C130	C	0.445386	-0.111468	0.771911
C131	C	-0.054732	-0.686488	0.346980
C132	C	0.445268	-0.186488	0.846980
C133	C	-0.002117	-0.558258	0.114025
C134	C	0.497883	-0.058258	0.614025
C135	C	-0.002879	-0.844379	0.399940
C136	C	0.497121	-0.344379	0.899940
C137	C	-0.002504	-0.558243	0.399473
C138	C	0.497496	-0.058243	0.899473
C139	C	-0.287615	-0.558285	0.398601
C140	C	0.212385	-0.058285	0.898601
N141	N	0.434975	-0.466279	0.491900
N142	N	0.934975	0.033721	0.991900
O143	O	0.591199	-0.470749	0.375150
O144	O	1.091199	0.029251	0.875150
O145	O	0.591395	-0.565767	0.504116
O146	O	1.091395	-0.065767	1.004116
O147	O	0.591311	-0.565550	0.422329
O148	O	1.091311	-0.065550	0.922329
O149	O	0.591283	-0.470966	0.456937
O150	O	1.091283	0.029034	0.956937
O151	O	0.510024	-0.538522	0.449509
O152	O	1.010024	-0.038522	0.949509
O153	O	0.510108	-0.538739	0.531297
O154	O	1.010108	-0.038739	1.031297
O155	O	0.509913	-0.443721	0.402330
O156	O	1.009913	0.056279	0.902330
Cu157	Cu	0.502588	-0.488762	0.469295
Cu158	Cu	1.002588	0.011238	0.969295
Cu159	Cu	0.598719	-0.520726	0.437151
Cu160	Cu	1.098719	-0.020726	0.937151
O161	O	0.509997	-0.443938	0.484117
O162	O	1.009997	0.056062	0.984117
N163	N	0.666332	-0.543209	0.414541
N164	N	1.166332	-0.043209	0.914541
N165	N	0.090323	-0.121809	0.492157
N166	N	0.590323	0.378191	0.992157
O167	O	-0.026342	0.034503	0.487582
O168	O	0.473658	0.534503	0.987582
O169	O	0.102626	0.034543	0.392540
O170	O	0.602626	0.534543	0.892540
O171	O	0.020797	0.034507	0.392812
O172	O	0.520797	0.534507	0.892812
O173	O	0.055487	0.034539	0.487310
O174	O	0.555487	0.534539	0.987310
O175	O	0.047933	-0.046785	0.419900
O176	O	0.547933	0.453215	0.919900
O177	O	0.129763	-0.046749	0.419628
O178	O	0.629763	0.453251	0.919628
O179	O	0.000794	-0.046789	0.514670
O180	O	0.500794	0.453211	1.014670
Cu181	Cu	0.067756	-0.054192	0.469623
Cu182	Cu	0.567756	0.445808	0.969623
Cu183	Cu	0.035664	0.041946	0.437588
Cu184	Cu	0.535664	0.541946	0.937588
O185	O	0.082623	-0.046753	0.514399
O186	O	0.582623	0.453247	1.014399
N187	N	0.013091	0.109564	0.415054
N188	N	0.513091	0.609564	0.915054
N189	N	0.090671	-0.466416	0.836606
N190	N	0.590671	0.033584	1.336606
O191	O	0.086120	-0.583065	0.992910
O192	O	0.586120	-0.083065	1.492910
O193	O	-0.008880	-0.454051	0.992954
O194	O	0.491120	0.045949	1.492954
O195	O	-0.008658	-0.535864	0.992931
O196	O	0.491342	-0.035864	1.492931
O197	O	0.085897	-0.501252	0.992933
O198	O	0.585897	-0.001252	1.492933
O199	O	0.018407	-0.508749	0.911642
O200	O	0.518407	-0.008749	1.411642
O201	O	0.018185	-0.426936	0.911665
O202	O	0.518185	0.073064	1.411665
O203	O	0.113185	-0.555949	0.911621
O204	O	0.613185	-0.055949	1.411621
Cu205	Cu	0.068156	-0.488967	0.904221
Cu206	Cu	0.568156	0.011033	1.404221
Cu207	Cu	0.036148	-0.521034	1.000355
Cu208	Cu	0.536148	-0.021034	1.500355
O209	O	0.112963	-0.474136	0.911644
O210	O	0.612963	0.025864	1.411644
N211	N	0.013633	-0.543590	1.067970
N212	N	0.513633	-0.043590	1.567970
C213	C	0.031262	-0.424144	0.393290
C214	C	0.531262	0.075856	0.893290
C215	C	0.132513	-0.525291	0.393180
C216	C	0.632513	-0.025291	0.893180
C217	C	0.072229	-0.585787	0.514090
C218	C	0.572229	-0.085787	1.014090
C219	C	-0.029022	-0.484640	0.514200
C220	C	0.470978	0.015360	1.014200
C221	C	0.550775	-0.565338	0.533954
C222	C	1.050775	-0.065338	1.033954
C223	C	0.550672	-0.565070	0.432670
C224	C	1.050672	-0.065070	0.932670
C225	C	0.550530	-0.444149	0.372492
C226	C	1.050530	0.055851	0.872492
C227	C	0.550635	-0.444418	0.473776
C228	C	1.050635	0.055582	0.973776
C229	C	0.132408	-0.005998	0.392963
C230	C	0.632408	0.494002	0.892963
C231	C	0.031106	-0.006142	0.393333
C232	C	0.531106	0.493858	0.893333
C233	C	-0.029021	-0.006147	0.514213
C234	C	0.470979	0.493853	1.014213
C235	C	0.072314	-0.006104	0.513878
C236	C	0.572314	0.493896	1.013878
C237	C	-0.008430	-0.424240	0.952316
C238	C	0.491570	0.075760	1.452316
C239	C	-0.008150	-0.525550	0.952271
C240	C	0.491850	-0.025550	1.452271
C241	C	0.112735	-0.585760	0.952260
C242	C	0.612735	-0.085760	1.452260
C243	C	0.112461	-0.484444	0.952286
C244	C	0.612461	0.015556	1.452286
H245	H	0.016194	-0.427197	0.832639
H246	H	0.516194	0.072803	1.332639
H247	H	0.550826	-0.595166	0.570996
H248	H	1.050826	-0.095166	1.070996
H249	H	0.023675	-0.006147	0.363643
H250	H	0.523675	0.493853	0.863643
C251	C	0.550686	-0.605210	0.422670
C252	C	1.050686	-0.105210	0.922670
H253	H	0.550641	-0.593260	0.390315
H254	H	1.050641	-0.093260	0.890315
H255	H	0.579056	-0.632992	0.426283
H256	H	1.079056	-0.132992	0.926283
H257	H	0.522360	-0.614136	0.445239
H258	H	1.022360	-0.114136	0.945239
C259	C	0.182573	-0.535146	0.352929
C260	C	0.682573	-0.035146	0.852929
H261	H	0.203087	-0.567496	0.364779
H262	H	0.703087	-0.067496	0.864779
H263	H	0.178297	-0.531471	0.325161
H264	H	0.678297	-0.031471	0.825161
H265	H	0.197222	-0.512553	0.344020
H266	H	0.697222	-0.012553	0.844020
H267	H	-0.037843	-0.532946	0.952238
H268	H	0.462157	-0.032946	1.452238
C269	C	0.021309	-0.374045	0.353103
C270	C	0.521309	0.125955	0.853103
H271	H	0.049574	-0.373907	0.324672
H272	H	0.549574	0.126093	0.824672
H273	H	-0.005353	-0.368118	0.345493
H274	H	0.494647	0.131882	0.845493
H275	H	0.013573	-0.349201	0.364351
H276	H	0.513573	0.150799	0.864351
C277	C	0.082345	-0.006094	0.553988
C278	C	0.582345	0.493906	1.053988
H279	H	0.054105	-0.006098	0.582444
H280	H	0.554105	0.493902	1.082444
H281	H	0.109020	-0.034434	0.561580
H282	H	0.609020	0.465566	1.061580
H283	H	0.090091	0.022266	0.542687
H284	H	0.590091	0.522266	1.042687
C285	C	0.152593	-0.474440	0.952277
C286	C	0.652593	0.025560	1.452277
H287	H	0.140647	-0.442071	0.952281
H288	H	0.640647	0.057929	1.452281
H289	H	0.161512	-0.496990	0.980616
H290	H	0.661512	0.003010	1.480616
H291	H	0.180379	-0.478078	0.923918
H292	H	0.680379	0.021922	1.423918
C293	C	-0.079054	-0.006162	0.554521
C294	C	0.420946	0.493838	1.054521
H295	H	-0.099606	-0.006170	0.542733
H296	H	0.400394	0.493830	1.042733
H297	H	-0.074751	-0.034508	0.582294
H298	H	0.425249	0.465492	1.082294
H299	H	-0.093678	0.022192	0.563398
H300	H	0.406322	0.522192	1.063398
C301	C	0.168886	-0.225946	0.439100
C302	C	0.668886	0.274054	0.939100
H303	H	0.173767	-0.203371	0.406702
H304	H	0.673767	0.296629	0.906702
H305	H	0.199569	-0.245900	0.443989
H306	H	0.699569	0.254100	0.943989
H307	H	0.153261	-0.245913	0.444031
H308	H	0.653261	0.254087	0.944031
H309	H	0.079602	-0.622875	0.543835
H310	H	0.579602	-0.122875	1.043835
C311	C	0.182329	-0.005653	0.352545
C312	C	0.682329	0.494347	0.852545
H313	H	0.182330	-0.005592	0.324159
H314	H	0.682330	0.494408	0.824159
H315	H	0.188111	0.022771	0.344944
H316	H	0.688111	0.522771	0.844944
H317	H	0.207341	-0.033928	0.363592
H318	H	0.707341	0.466072	0.863592
H319	H	-0.038255	-0.387188	0.952329
H320	H	0.461745	0.112812	1.452329
C321	C	0.153028	-0.635812	0.952240
C322	C	0.653028	-0.135812	1.452240
H323	H	0.141223	-0.656351	0.952238
H324	H	0.641223	-0.156351	1.452238
H325	H	0.180796	-0.631527	0.923890
H326	H	0.680796	-0.131527	1.423890
H327	H	0.161918	-0.650442	0.980588
H328	H	0.661918	-0.150442	1.480588
H329	H	0.550629	-0.414708	0.481180
H330	H	1.050629	0.085292	0.981180
C331	C	0.037539	-0.387823	0.732519
C332	C	0.537539	0.112177	1.232519
H333	H	0.005150	-0.382921	0.755106
H334	H	0.505150	0.117079	1.255106
H335	H	0.042434	-0.357149	0.712559
H336	H	0.542434	0.142851	1.212559
H337	H	0.042438	-0.403446	0.712562
H338	H	0.542438	0.096554	1.212562
H339	H	0.167840	-0.502959	0.832516
H340	H	0.667840	-0.002959	1.332516
C341	C	-0.079082	-0.474789	0.554451
C342	C	0.420918	0.025211	1.054451
H343	H	-0.079156	-0.503090	0.582851
H344	H	0.420844	-0.003090	1.082851
H345	H	-0.085028	-0.448143	0.562097
H346	H	0.414972	0.051857	1.062097
H347	H	-0.103947	-0.467066	0.543237
H348	H	0.396053	0.032934	1.043237
C349	C	0.213066	-0.475518	0.732370
C350	C	0.713066	0.024482	1.232370
H351	H	0.230453	-0.495476	0.754916
H352	H	0.730453	0.004524	1.254916
H353	H	0.221445	-0.492873	0.712407
H354	H	0.721445	0.007127	1.212407
H355	H	0.221432	-0.446575	0.712410
H356	H	0.721432	0.053425	1.212410
C357	C	0.550447	-0.403847	0.322460
C358	C	1.050447	0.096153	0.822460
H359	H	0.550436	-0.415656	0.301926
H360	H	1.050436	0.084344	0.801926
H361	H	0.522083	-0.376088	0.326771
H362	H	1.022083	0.123912	0.826771
H363	H	0.578780	-0.394939	0.307810
H364	H	1.078780	0.105061	0.807810
H365	H	0.015920	-0.427139	0.531437
H366	H	0.515920	0.072861	1.031437
C367	C	0.037393	-0.387800	0.570771
C368	C	0.537393	0.112200	1.070771
H369	H	0.004987	-0.382886	0.575708
H370	H	0.504987	0.117114	1.075708
H371	H	0.042338	-0.403429	0.601428
H372	H	0.542338	0.096571	1.101428
H373	H	0.042294	-0.357124	0.555145
H374	H	0.542294	0.142876	1.055145
H375	H	0.198463	-0.471942	0.486461
H376	H	0.698463	0.028058	0.986461
C377	C	0.176991	-0.511298	0.447147
C378	C	0.676991	-0.011298	0.947147
H379	H	0.209397	-0.516205	0.442203
H380	H	0.709397	-0.016205	0.942203
H381	H	0.172091	-0.541972	0.462768
H382	H	0.672091	-0.041972	0.962768
H383	H	0.172045	-0.495665	0.416487
H384	H	0.672045	0.004335	0.916487
H385	H	0.338156	-0.509129	0.552896
H386	H	0.838156	-0.009129	1.052896
H387	H	0.430920	-0.389838	0.464614
H388	H	0.930920	0.110162	0.964614
C389	C	0.438290	-0.554311	0.523961
C390	C	0.938290	-0.054311	1.023961
H391	H	0.415736	-0.571450	0.540902
H392	H	0.915736	-0.071450	1.040902
H393	H	0.458229	-0.559051	0.493213
H394	H	0.958229	-0.059051	0.993213
H395	H	0.458272	-0.566309	0.542693
H396	H	0.958272	-0.066309	1.042693
H397	H	0.338097	-0.358917	0.495611
H398	H	0.838097	0.141083	0.995611
H399	H	0.129496	-0.125810	0.417697
H400	H	0.629496	0.374190	0.917697
H401	H	0.084809	-0.218687	0.600218
H402	H	0.584809	0.281313	1.100218
C403	C	0.045422	-0.118550	0.578813
C404	C	0.545422	0.381450	1.078813
H405	H	0.037012	-0.084409	0.561462
H406	H	0.537012	0.415591	1.061462
H407	H	0.016504	-0.126951	0.598794
H408	H	0.516504	0.373049	1.098794
H409	H	0.062809	-0.126933	0.598751
H410	H	0.562809	0.373067	1.098751
C411	C	-0.063345	-0.488807	0.166972
C412	C	0.436655	0.011193	0.666972
H413	H	-0.083334	-0.471431	0.189525
H414	H	0.416666	0.028569	0.689525
H415	H	-0.034401	-0.480446	0.147054
H416	H	0.465599	0.019554	0.647054
H417	H	-0.080670	-0.480409	0.146968
H418	H	0.419330	0.019591	0.646968
H419	H	-0.090896	-0.534066	0.267110
H420	H	0.409104	-0.034066	0.767110
H421	H	0.015913	-0.654818	0.174378
H422	H	0.515913	-0.154818	0.674378
H423	H	-0.015148	-0.685706	0.267200
H424	H	0.484852	-0.185706	0.767200
H425	H	-0.060067	-0.503170	0.341685
H426	H	0.439933	-0.003170	0.841685
C427	C	0.023946	-0.664305	0.426040
C428	C	0.523946	-0.164305	0.926040
H429	H	0.028846	-0.696702	0.430958
H430	H	0.528846	-0.196702	0.930958
H431	H	0.054623	-0.659425	0.410470
H432	H	0.554623	-0.159425	0.910470
H433	H	0.008282	-0.659374	0.456708
H434	H	0.508282	-0.159374	0.956708
H435	H	-0.090949	-0.534065	0.310634
H436	H	0.409051	-0.034065	0.810634
H437	H	-0.015331	-0.685697	0.386578
H438	H	0.484669	-0.185697	0.886578
H439	H	0.052828	-0.784146	0.351024
H440	H	0.552828	-0.284146	0.851024
C441	C	0.031347	-0.684018	0.313113
C442	C	0.531347	-0.184018	0.813113
H443	H	0.063504	-0.706609	0.311286
H444	H	0.563504	-0.206609	0.811286
H445	H	0.030090	-0.664063	0.281040
H446	H	0.530090	-0.164063	0.781040
H447	H	0.022768	-0.664054	0.330558
H448	H	0.522768	-0.164054	0.830558
H449	H	-0.128252	-0.691169	0.377093
H450	H	0.371748	-0.191169	0.877093
C451	C	-0.106771	-0.791296	0.415010
C452	C	0.393229	-0.291296	0.915010
H453	H	-0.089487	-0.825441	0.424150
H454	H	0.410513	-0.325441	0.924150
H455	H	-0.130222	-0.782886	0.443428
H456	H	0.369778	-0.282886	0.943428
H457	H	-0.122915	-0.782902	0.393919
H458	H	0.377085	-0.282902	0.893919
C459	C	-0.127311	-0.656089	0.433801
C460	C	0.372689	-0.156089	0.933801
H461	H	-0.093165	-0.664518	0.416489
H462	H	0.406835	-0.164518	0.916489
H463	H	-0.135716	-0.638728	0.453770
H464	H	0.364284	-0.138728	0.953770
H465	H	-0.135730	-0.685004	0.453747
H466	H	0.364270	-0.185004	0.953747
C467	C	-0.234763	-0.620156	0.469452
C468	C	0.265237	-0.120156	0.969452
H469	H	-0.268890	-0.605747	0.474790
H470	H	0.231110	-0.105747	0.974790
H471	H	-0.226410	-0.654677	0.483838
H472	H	0.273590	-0.154677	0.983838
H473	H	-0.226400	-0.608395	0.483853
H474	H	0.273600	-0.108395	0.983853
C475	C	-0.234489	-0.532465	0.293886
C476	C	0.265511	-0.032465	0.793886
H477	H	-0.268635	-0.524041	0.311199
H478	H	0.231365	-0.024041	0.811199
H479	H	-0.226070	-0.503553	0.273934
H480	H	0.273930	-0.003553	0.773934
H481	H	-0.226086	-0.549834	0.273922
H482	H	0.273914	-0.049834	0.773922
C483	C	-0.127038	-0.568394	0.258235
C484	C	0.372962	-0.068394	0.758235
H485	H	-0.149563	-0.548417	0.240825
H486	H	0.350437	-0.048417	0.740825
H487	H	-0.107068	-0.551064	0.249883
H488	H	0.392932	-0.051064	0.749883
H489	H	-0.107083	-0.597343	0.249868
H490	H	0.392917	-0.097343	0.749868
