data_functionalizedCrystal
_audit_creation_method	'MofGen! by Chris Wilmer'
_symmetry_space_group_name_H-M	'P1'
_symmetry_Int_Tables_number	1
_symmetry_cell_setting	triclinic
loop_
_symmetry_equiv_pos_as_xyz
  x,y,z
_cell_length_a	10.654556
_cell_length_b	17.699092
_cell_length_c	9.730223
_cell_angle_alpha	89.997288
_cell_angle_beta	89.998368
_cell_angle_gamma	83.886952
loop_
_atom_site_label
_atom_site_type_symbol
_atom_site_fract_x
_atom_site_fract_y
_atom_site_fract_z
O1	O	1.665978	0.106325	-0.114232
O2	O	1.300324	0.116448	-0.114246
O3	O	1.493477	0.001263	-0.114236
O4	O	1.472826	0.221509	-0.114243
O5	O	1.493464	0.001260	0.114344
O6	O	1.300312	0.116445	0.114334
O7	O	1.665966	0.106322	0.114348
Zn8	Zn	1.483137	0.111383	0.150633
Zn9	Zn	1.483153	0.111387	-0.150531
O10	O	1.472814	0.221506	0.114337
C11	C	1.253533	0.115702	0.000042
C12	C	1.114129	0.113475	0.000037
C13	C	1.492729	-0.026940	0.000052
C14	C	1.490504	-0.110972	0.000046
C15	C	0.917645	0.110342	-0.124551
C16	C	1.048631	0.112429	-0.124560
C17	C	1.048636	0.112426	0.124651
C18	C	0.917654	0.110333	0.124658
C19	C	1.489468	-0.150444	-0.124555
C20	C	1.487369	-0.229400	-0.124556
C21	C	1.486315	-0.268884	0.000044
C22	C	1.487347	-0.229405	0.124654
C23	C	1.489437	-0.150450	0.124654
C24	C	1.478918	-0.547824	0.124656
C25	C	1.476832	-0.626786	0.124646
C26	C	1.476850	-0.626775	-0.124555
C27	C	1.478940	-0.547819	-0.124555
C28	C	1.479965	-0.508347	0.000054
C29	C	1.482238	-0.422734	0.000055
C30	C	1.484051	-0.354496	0.000045
C31	C	1.712757	0.107068	0.000056
C32	C	1.852161	0.109295	0.000053
C33	C	1.473562	0.249709	0.000046
C34	C	1.475787	0.333741	0.000044
N35	N	1.483135	0.111379	0.356169
N36	N	1.483165	0.111384	-0.356068
C37	C	1.568692	0.060398	0.428100
C38	C	1.568704	0.060398	0.571983
C39	C	1.397599	0.162369	0.571992
C40	C	1.397582	0.162364	0.428112
H41	H	0.864325	0.109495	-0.226013
H42	H	0.864336	0.109479	0.226131
O43	O	1.486270	-0.267636	0.245815
C44	C	1.487663	-0.215865	0.355791
H45	H	1.449410	-0.156658	0.319261
H46	H	1.588591	-0.214876	0.394108
C47	C	1.451505	-0.313346	0.518379
C48	C	1.404511	-0.240628	0.473514
H49	H	1.400218	-0.328622	0.590999
H50	H	1.450571	-0.348226	0.444287
H51	H	1.535611	-0.312512	0.550299
H52	H	1.320413	-0.241465	0.441578
H53	H	1.405429	-0.205748	0.547604
H54	H	1.327905	0.203880	0.369542
H55	H	1.490333	-0.118303	-0.226019
H56	H	1.486531	-0.261536	-0.226019
H57	H	1.101943	0.113281	-0.226025
H58	H	1.101976	0.113272	0.226099
H59	H	1.479804	-0.515676	-0.226017
O60	O	1.475609	-0.665141	-0.245563
C61	C	1.365692	-0.702823	-0.252999
H62	H	1.290335	-0.673434	-0.182296
H63	H	1.388679	-0.764470	-0.219513
C64	C	1.408924	-0.736508	-0.488705
C65	C	1.316365	-0.700407	-0.401874
H66	H	1.378499	-0.735021	-0.580538
H67	H	1.482980	-0.711123	-0.483694
H68	H	1.428072	-0.787877	-0.460783
H69	H	1.297230	-0.649037	-0.429786
H70	H	1.242305	-0.725783	-0.406893
O71	O	1.480006	-0.509612	0.245819
C72	C	1.478619	-0.561394	0.355787
H73	H	1.516847	-0.620600	0.319238
H74	H	1.377696	-0.562376	0.394131
C75	C	1.514840	-0.463937	0.518380
C76	C	1.561803	-0.536654	0.473491
H77	H	1.566147	-0.448676	0.590988
H78	H	1.515770	-0.429050	0.444293
H79	H	1.430739	-0.464765	0.550323
H80	H	1.645897	-0.535823	0.441533
H81	H	1.560889	-0.571541	0.547576
O82	O	1.490221	-0.112050	0.245652
C83	C	1.382723	-0.058370	0.253073
H84	H	1.306116	-0.076578	0.182360
H85	H	1.408886	-0.000339	0.219590
C86	C	1.427532	-0.031163	0.488784
C87	C	1.333437	-0.053530	0.401942
H88	H	1.397132	-0.028174	0.580614
H89	H	1.499958	-0.067326	0.483784
H90	H	1.449325	0.017194	0.460865
H91	H	1.311657	-0.101890	0.429851
H92	H	1.261006	-0.017375	0.406950
O93	O	1.651834	0.010796	0.358427
C94	C	1.727370	-0.034189	0.452776
H95	H	1.675899	-0.035329	0.555347
H96	H	1.820579	-0.009090	0.468056
C97	C	1.816715	-0.114295	0.270657
C98	C	1.753493	-0.115700	0.396635
H99	H	1.832835	-0.164574	0.236026
H100	H	1.765829	-0.083986	0.207091
H101	H	1.894383	-0.093375	0.283409
H102	H	1.675820	-0.136610	0.383879
H103	H	1.804366	-0.146014	0.460198
H104	H	1.475970	-0.658930	0.226116
H105	H	1.638371	0.018883	0.630545
O106	O	1.314454	0.211792	0.642035
C107	C	1.237104	0.170825	0.725262
H108	H	1.287306	0.111882	0.746816
H109	H	1.144304	0.165159	0.669834
C110	C	1.148497	0.285744	0.835457
C111	C	1.210160	0.213352	0.861941
H112	H	1.131871	0.311978	0.919765
H113	H	1.200605	0.313346	0.779382
H114	H	1.071170	0.281013	0.789264
H115	H	1.287492	0.218084	0.908117
H116	H	1.158064	0.185752	0.918027
