data_functionalizedCrystal
_audit_creation_method	'MofGen! by Chris Wilmer'
_symmetry_space_group_name_H-M	'P1'
_symmetry_Int_Tables_number	1
_symmetry_cell_setting	triclinic
loop_
_symmetry_equiv_pos_as_xyz
  x,y,z
_cell_length_a	12.759401
_cell_length_b	18.101389
_cell_length_c	12.759400
_cell_angle_alpha	89.981094
_cell_angle_beta	89.987402
_cell_angle_gamma	90.014686
loop_
_atom_site_label
_atom_site_type_symbol
_atom_site_fract_x
_atom_site_fract_y
_atom_site_fract_z
Zn1	Zn	-1.606207	-0.418705	-0.418394
Zn2	Zn	-1.606116	-0.294871	-0.594074
Zn3	Zn	-1.430524	-0.294882	-0.418403
Zn4	Zn	-1.430498	-0.418676	-0.594025
O5	O	-1.518336	-0.356783	-0.506224
O6	O	-1.753216	-0.402285	-0.441715
O7	O	-1.582796	-0.191239	-0.570795
O8	O	-1.453877	-0.311325	-0.271381
O9	O	-1.753149	-0.311305	-0.570786
O10	O	-1.582951	-0.402296	-0.271374
O11	O	-1.453789	-0.191248	-0.441731
O12	O	-1.283499	-0.311297	-0.441683
O13	O	-1.453834	-0.522313	-0.570703
O14	O	-1.283480	-0.402247	-0.570712
O15	O	-1.582927	-0.522334	-0.441668
O16	O	-1.582771	-0.311277	-0.741089
O17	O	-1.453745	-0.402236	-0.741053
C18	C	-1.245369	-0.356771	-0.506194
C19	C	-1.128592	-0.356783	-0.506207
C20	C	-1.073748	-0.404062	-0.573497
C21	C	-0.964024	-0.404069	-0.573506
C22	C	-0.963998	-0.309511	-0.438931
C23	C	-1.073720	-0.309508	-0.438918
C24	C	-1.128620	-0.451336	-0.640786
C25	C	-1.073776	-0.498618	-0.708083
C26	C	-0.964052	-0.498625	-0.708092
C27	C	-0.909172	-0.451350	-0.640804
C28	C	-1.518388	-0.549945	-0.506179
C29	C	-1.518410	-0.632259	-0.506159
C30	C	-1.518274	-0.356768	-0.779192
C31	C	-1.518343	-0.356786	-0.895968
C32	C	-0.792370	-0.356794	-0.506245
C33	C	-0.909146	-0.356792	-0.506229
C34	C	-1.518449	-0.782968	-0.506078
C35	C	-1.437240	-0.814308	-0.587247
C36	C	-1.436945	-0.899927	-0.586962
C37	C	-1.518488	-0.931351	-0.505999
C38	C	-1.488824	-0.900265	-0.395207
C39	C	-1.488212	-0.814619	-0.395722
C40	C	-1.629534	-0.814534	-0.534715
C41	C	-1.628961	-0.900184	-0.537112
C42	C	-1.518511	-1.015210	-0.505948
C43	C	-1.518423	-0.699108	-0.506121
C44	C	-1.518346	-0.164373	-0.506194
C45	C	-1.518527	-0.082059	-0.505917
C46	C	-1.585602	-0.309476	-0.950814
C47	C	-1.585666	-0.309499	-1.060538
C48	C	-1.451205	-0.404144	-1.060561
C49	C	-1.451147	-0.404124	-0.950839
C50	C	-1.652798	-0.262138	-0.895944
C51	C	-1.720061	-0.214823	-0.950790
C52	C	-1.720126	-0.214846	-1.060514
C53	C	-1.652927	-0.262184	-1.115392
C54	C	-1.518427	-0.356815	-0.232191
C55	C	-1.518466	-0.356829	-0.115414
H56	H	-1.118375	-0.271015	-0.384116
O57	O	-1.380671	-0.788158	-0.363624
H58	H	-1.346316	-0.754522	-0.427763
O59	O	-0.904799	-0.258509	-0.366391
H60	H	-0.854809	-0.291712	-0.313017
O61	O	-1.652991	-0.262210	-1.233738
H62	H	-1.711046	-0.221357	-1.262660
O63	O	-1.132956	-0.549613	-0.780649
H64	H	-1.111924	-0.607755	-0.762732
O65	O	-1.792668	-0.163818	-1.119675
H66	H	-1.839374	-0.130896	-1.063083
O67	O	-1.652731	-0.262118	-0.777599
H68	H	-1.710760	-0.221259	-0.748656
H69	H	-1.355397	-0.792786	-0.568495
H70	H	-1.455465	-0.920945	-0.669105
H71	H	-1.408539	-0.921715	-0.370537
H72	H	-1.396495	-0.442683	-1.105251
O73	O	-0.904836	-0.549588	-0.780667
H74	H	-0.854831	-0.516335	-0.834009
H75	H	-1.455531	-0.793715	-0.669669
O76	O	-1.792557	-0.163781	-0.891610
H77	H	-1.781214	-0.171711	-0.806098
O78	O	-1.709684	-0.787677	-0.456423
H79	H	-1.687468	-0.806734	-0.376779
H80	H	-1.396380	-0.442649	-0.906183
H81	H	-1.544809	-0.793887	-0.333160
H82	H	-1.217963	-0.451334	-0.640788
O83	O	-0.790826	-0.451346	-0.640820
H84	H	-0.761905	-0.492160	-0.698924
H85	H	-1.354644	-0.920416	-0.567957
O86	O	-1.564779	-0.927219	-0.312866
H87	H	-1.624616	-0.963148	-0.350123
H88	H	-1.651334	-0.920499	-0.618651
O89	O	-1.665384	-0.785935	-0.639950
H90	H	-1.604418	-0.748899	-0.673018
O91	O	-1.713370	-0.928503	-0.464505
H92	H	-1.716149	-0.989722	-0.468578
