data_functionalizedCrystal
_audit_creation_method	'MofGen! by Chris Wilmer'
_symmetry_space_group_name_H-M	'P1'
_symmetry_Int_Tables_number	1
_symmetry_cell_setting	triclinic
loop_
_symmetry_equiv_pos_as_xyz
  x,y,z
_cell_length_a	14.519709
_cell_length_b	15.995350
_cell_length_c	13.596369
_cell_angle_alpha	89.996243
_cell_angle_beta	90.000291
_cell_angle_gamma	83.586260
loop_
_atom_site_label
_atom_site_type_symbol
_atom_site_fract_x
_atom_site_fract_y
_atom_site_fract_z
O1	O	1.223669	0.109760	-0.081658
O2	O	1.473669	0.359760	0.168342
O3	O	1.723669	0.609760	0.418342
O4	O	1.973669	0.859760	0.668342
O5	O	0.955169	0.122685	-0.081688
O6	O	1.205169	0.372685	0.168312
O7	O	1.455169	0.622685	0.418312
O8	O	1.705169	0.872685	0.668312
O9	O	1.096759	-0.005654	-0.081671
O10	O	1.346759	0.244346	0.168329
O11	O	1.596759	0.494346	0.418329
O12	O	1.846759	0.744346	0.668329
O13	O	1.082079	0.238099	-0.081675
O14	O	1.332079	0.488099	0.168325
O15	O	1.582079	0.738099	0.418325
O16	O	1.832079	0.988099	0.668325
O17	O	1.096744	-0.005661	0.081912
O18	O	1.346744	0.244339	0.331912
O19	O	1.596744	0.494339	0.581912
O20	O	1.846744	0.744339	0.831912
O21	O	0.955155	0.122679	0.081895
O22	O	1.205155	0.372679	0.331895
O23	O	1.455155	0.622679	0.581895
O24	O	1.705155	0.872679	0.831895
O25	O	1.223655	0.109753	0.081925
O26	O	1.473655	0.359753	0.331925
O27	O	1.723655	0.609753	0.581925
O28	O	1.973655	0.859753	0.831925
Zn29	Zn	1.089403	0.116215	0.107882
Zn30	Zn	1.339403	0.366215	0.357882
Zn31	Zn	1.589403	0.616215	0.607882
Zn32	Zn	1.839403	0.866215	0.857882
Zn33	Zn	1.089421	0.116224	-0.107645
Zn34	Zn	1.339421	0.366224	0.142355
Zn35	Zn	1.589421	0.616224	0.392355
Zn36	Zn	1.839421	0.866224	0.642355
O37	O	1.082065	0.238093	0.081908
O38	O	1.332065	0.488093	0.331908
O39	O	1.582065	0.738093	0.581908
O40	O	1.832065	0.988093	0.831908
C41	C	0.920803	0.122080	0.000100
C42	C	1.170803	0.372080	0.250100
C43	C	1.420803	0.622080	0.500100
C44	C	1.670803	0.872080	0.750100
C45	C	0.818425	0.120275	0.000088
C46	C	1.068425	0.370275	0.250088
C47	C	1.318425	0.620275	0.500088
C48	C	1.568425	0.870275	0.750088
C49	C	0.443541	0.113629	0.000133
C50	C	0.693541	0.363629	0.250133
C51	C	0.943541	0.613629	0.500133
C52	C	1.193541	0.863629	0.750133
C53	C	0.547846	0.115475	0.000120
C54	C	0.797846	0.365475	0.250120
C55	C	1.047846	0.615475	0.500120
C56	C	1.297846	0.865475	0.750120
C57	C	0.630980	0.116952	0.000110
C58	C	0.880980	0.366952	0.250110
C59	C	1.130980	0.616952	0.500110
C60	C	1.380980	0.866952	0.750110
C61	C	0.735291	0.118797	0.000099
C62	C	0.985291	0.368797	0.250099
C63	C	1.235291	0.618797	0.500099
C64	C	1.485291	0.868797	0.750099
C65	C	1.096145	-0.036853	0.000118
C66	C	1.346145	0.213147	0.250118
C67	C	1.596145	0.463147	0.500118
C68	C	1.846145	0.713147	0.750118
C69	C	1.094325	-0.129806	0.000112
C70	C	1.344325	0.120194	0.250112
C71	C	1.594325	0.370194	0.500112
C72	C	1.844325	0.620194	0.750112
C73	C	1.087791	-0.467563	0.000115
C74	C	1.337791	-0.217563	0.250115
C75	C	1.587791	0.032437	0.500115
C76	C	1.837791	0.282437	0.750115
C77	C	0.986954	-0.420280	-0.000263
C78	C	1.236954	-0.170280	0.249737
C79	C	1.486954	0.079720	0.499737
C80	C	1.736954	0.329720	0.749737
C81	C	0.988773	-0.323587	0.000106
C82	C	1.238773	-0.073587	0.250106
C83	C	1.488773	0.176413	0.500106
C84	C	1.738773	0.426413	0.750106
C85	C	1.091032	-0.299998	0.000113
C86	C	1.341032	-0.049998	0.250113
C87	C	1.591032	0.200002	0.500113
C88	C	1.841032	0.450002	0.750113
C89	C	1.140761	-0.341005	0.093531
C90	C	1.390761	-0.091005	0.343531
C91	C	1.640761	0.158995	0.593531
C92	C	1.890761	0.408995	0.843531
C93	C	1.138228	-0.437644	0.093609
C94	C	1.388228	-0.187644	0.343609
C95	C	1.638228	0.062356	0.593609
C96	C	1.888228	0.312356	0.843609
C97	C	1.140327	-0.437992	-0.092415
C98	C	1.390327	-0.187992	0.157585
C99	C	1.640327	0.062008	0.407585
C100	C	1.890327	0.312008	0.657585
C101	C	1.140303	-0.341046	-0.093650
C102	C	1.390303	-0.091046	0.156350
C103	C	1.640303	0.158954	0.406350
C104	C	1.890303	0.408954	0.656350
C105	C	1.092869	-0.205298	0.000115
C106	C	1.342869	0.044702	0.250115
C107	C	1.592869	0.294702	0.500115
C108	C	1.842869	0.544702	0.750115
C109	C	1.085957	-0.562264	0.000119
C110	C	1.335957	-0.312264	0.250119
C111	C	1.585957	-0.062264	0.500119
C112	C	1.835957	0.187736	0.750119
C113	C	1.258021	0.110359	0.000135
C114	C	1.508021	0.360359	0.250135
C115	C	1.758021	0.610359	0.500135
C116	C	2.008021	0.860359	0.750135
C117	C	1.360399	0.112164	0.000140
C118	C	1.610399	0.362164	0.250140
C119	C	1.860399	0.612164	0.500140
C120	C	2.110399	0.862164	0.750140
C121	C	1.082679	0.269292	0.000116
C122	C	1.332679	0.519292	0.250116
C123	C	1.582679	0.769292	0.500116
C124	C	1.832679	1.019292	0.750116
C125	C	1.084498	0.362245	0.000116
C126	C	1.334498	0.612245	0.250116
C127	C	1.584498	0.862245	0.500116
C128	C	1.834498	1.112245	0.750116
N129	N	1.089397	0.116208	0.254974
N130	N	1.339397	0.366208	0.504974
N131	N	1.589397	0.616208	0.754974
N132	N	1.839397	0.866208	1.004974
N133	N	1.089434	0.116224	-0.254737
N134	N	1.339434	0.366224	-0.004737
N135	N	1.589434	0.616224	0.245263
N136	N	1.839434	0.866224	0.495263
C137	C	1.089420	0.116225	0.656265
C138	C	1.339420	0.366225	0.906265
C139	C	1.589420	0.616225	1.156265
C140	C	1.839420	0.866225	1.406265
C141	C	1.089411	0.116223	0.544614
C142	C	1.339411	0.366223	0.794614
C143	C	1.589411	0.616223	1.044614
C144	C	1.839411	0.866223	1.294614
C145	C	1.089409	0.116217	0.455623
C146	C	1.339409	0.366217	0.705623
C147	C	1.589409	0.616217	0.955623
C148	C	1.839409	0.866217	1.205623
C149	C	1.089399	0.116214	0.343965
C150	C	1.339399	0.366214	0.593965
C151	C	1.589399	0.616214	0.843965
C152	C	1.839399	0.866214	1.093965
H153	H	0.946656	-0.438870	-0.067255
H154	H	1.196656	-0.188870	0.182745
H155	H	1.446656	0.061130	0.432745
H156	H	1.696656	0.311130	0.682745
N157	N	1.238812	-0.479900	-0.093243
N158	N	1.488812	-0.229900	0.156757
N159	N	1.738812	0.020100	0.406757
N160	N	1.988812	0.270100	0.656757
H161	H	1.249907	-0.514369	-0.155214
H162	H	1.499907	-0.264369	0.094786
H163	H	1.749907	-0.014369	0.344786
H164	H	1.999907	0.235631	0.594786
H165	H	1.283055	-0.435495	-0.091020
H166	H	1.533055	-0.185495	0.158980
H167	H	1.783055	0.064505	0.408980
H168	H	2.033055	0.314505	0.658980
N169	N	0.936642	-0.286747	0.088952
N170	N	1.186642	-0.036747	0.338952
N171	N	1.436642	0.213253	0.588952
N172	N	1.686642	0.463253	0.838952
H173	H	0.870367	-0.300198	0.086074
H174	H	1.120367	-0.050198	0.336074
H175	H	1.370367	0.199802	0.586074
H176	H	1.620367	0.449802	0.836074
H177	H	0.967097	-0.311670	0.150706
H178	H	1.217097	-0.061670	0.400706
H179	H	1.467097	0.188330	0.650706
H180	H	1.717097	0.438330	0.900706
N181	N	1.094999	-0.303474	0.185605
N182	N	1.344999	-0.053474	0.435605
N183	N	1.594999	0.196526	0.685605
N184	N	1.844999	0.446526	0.935605
H185	H	1.027748	-0.314155	0.186527
H186	H	1.277748	-0.064155	0.436527
H187	H	1.527748	0.185845	0.686527
H188	H	1.777748	0.435845	0.936527
H189	H	1.127553	-0.330276	0.245272
H190	H	1.377553	-0.080276	0.495272
H191	H	1.627553	0.169724	0.745272
H192	H	1.877553	0.419724	0.995272
H193	H	1.212261	-0.469782	0.097852
H194	H	1.462261	-0.219782	0.347852
H195	H	1.712261	0.030218	0.597852
H196	H	1.962261	0.280218	0.847852
H197	H	1.103945	-0.313849	-0.162758
H198	H	1.353945	-0.063849	0.087242
H199	H	1.603945	0.186151	0.337242
H200	H	1.853945	0.436151	0.587242
N201	N	0.933796	-0.446310	0.087972
N202	N	1.183796	-0.196310	0.337972
N203	N	1.433796	0.053690	0.587972
N204	N	1.683796	0.303690	0.837972
H205	H	0.913679	-0.395275	0.129683
H206	H	1.163679	-0.145275	0.379683
H207	H	1.413679	0.104725	0.629683
H208	H	1.663679	0.354725	0.879683
H209	H	0.877388	-0.472513	0.065087
H210	H	1.127388	-0.222513	0.315087
H211	H	1.377388	0.027487	0.565087
H212	H	1.627388	0.277487	0.815087
H213	H	0.949683	-0.295221	-0.066860
H214	H	1.199683	-0.045221	0.183140
H215	H	1.449683	0.204779	0.433140
H216	H	1.699683	0.454779	0.683140
H217	H	1.215888	-0.326767	0.097010
H218	H	1.465888	-0.076767	0.347010
H219	H	1.715888	0.173233	0.597010
H220	H	1.965888	0.423233	0.847010
N221	N	1.090181	-0.461972	0.186097
N222	N	1.340181	-0.211972	0.436097
N223	N	1.590181	0.038028	0.686097
N224	N	1.840181	0.288028	0.936097
H225	H	1.070841	-0.409941	0.226432
H226	H	1.320841	-0.159941	0.476432
H227	H	1.570841	0.090059	0.726432
H228	H	1.820841	0.340059	0.976432
H229	H	1.033579	-0.490008	0.167912
H230	H	1.283579	-0.240008	0.417912
H231	H	1.533579	0.009992	0.667912
H232	H	1.783579	0.259992	0.917912
N233	N	1.096673	-0.465260	-0.186208
N234	N	1.346673	-0.215260	0.063792
N235	N	1.596673	0.034740	0.313792
N236	N	1.846673	0.284740	0.563792
H237	H	1.042394	-0.497064	-0.169664
H238	H	1.292394	-0.247064	0.080336
H239	H	1.542394	0.002936	0.330336
H240	H	1.792394	0.252936	0.580336
H241	H	1.074462	-0.414036	-0.226746
H242	H	1.324462	-0.164036	0.023254
H243	H	1.574462	0.085964	0.273254
H244	H	1.824462	0.335964	0.523254
N245	N	1.239087	-0.320562	-0.101118
N246	N	1.489087	-0.070562	0.148882
N247	N	1.739087	0.179438	0.398882
N248	N	1.989087	0.429438	0.648882
H249	H	1.247431	-0.289344	-0.164498
H250	H	1.497431	-0.039344	0.085502
H251	H	1.747431	0.210656	0.335502
H252	H	1.997431	0.460656	0.585502
H253	H	1.253300	-0.284249	-0.043523
H254	H	1.503300	-0.034249	0.206477
H255	H	1.753300	0.215751	0.456477
H256	H	2.003300	0.465751	0.706477
