data_functionalizedCrystal
_audit_creation_method	'MofGen! by Chris Wilmer'
_symmetry_space_group_name_H-M	'P1'
_symmetry_Int_Tables_number	1
_symmetry_cell_setting	triclinic
loop_
_symmetry_equiv_pos_as_xyz
  x,y,z
_cell_length_a	11.792241
_cell_length_b	23.532407
_cell_length_c	10.868271
_cell_angle_alpha	89.990218
_cell_angle_beta	89.999893
_cell_angle_gamma	83.521047
loop_
_atom_site_label
_atom_site_type_symbol
_atom_site_fract_x
_atom_site_fract_y
_atom_site_fract_z
O1	O	1.505071	0.078055	-0.102217
O2	O	1.174541	0.086099	-0.102247
O3	O	1.349773	-0.000796	-0.102208
O4	O	1.329839	0.164950	-0.102255
O5	O	1.349759	-0.000799	0.102436
O6	O	1.174526	0.086096	0.102398
O7	O	1.505057	0.078051	0.102428
Zn8	Zn	1.339789	0.082073	0.134905
Zn9	Zn	1.339808	0.082078	-0.134723
O10	O	1.329824	0.164946	0.102390
C11	C	1.132254	0.085592	0.000072
C12	C	1.006276	0.084080	0.000062
C13	C	1.349258	-0.022016	0.000117
C14	C	1.347732	-0.085242	0.000127
C15	C	0.775630	0.081299	0.000098
C16	C	0.903978	0.082844	0.000078
C17	C	1.441858	-0.483788	0.000068
C18	C	1.440440	-0.543196	0.000058
O19	O	1.527696	-0.579424	0.000021
N20	N	1.336265	-0.566440	0.000050
C21	C	1.233500	-0.530271	0.000038
O22	O	1.144761	-0.555497	0.000029
C23	C	1.234919	-0.470864	0.000039
C24	C	1.339102	-0.447624	0.000060
C25	C	1.546032	-0.460547	0.000087
C26	C	1.547449	-0.401142	0.000099
C27	C	1.444693	-0.364979	0.000091
C28	C	1.340519	-0.388219	0.000072
C29	C	1.132156	-0.434696	0.000018
C30	C	1.133584	-0.375285	0.000018
C31	C	1.237766	-0.352045	0.000039
C32	C	1.239180	-0.292651	0.000075
N33	N	1.343355	-0.269407	0.000084
C34	C	1.446112	-0.305571	0.000092
C35	C	1.230528	-0.655031	0.000034
C36	C	1.229108	-0.714438	0.000043
C37	C	1.436049	-0.727359	0.000061
C38	C	1.437468	-0.667951	0.000061
C39	C	1.334704	-0.631788	0.000043
C40	C	1.449080	-0.180817	0.000118
C41	C	1.450489	-0.121406	0.000135
C42	C	1.243549	-0.108491	0.000110
C43	C	1.242140	-0.167896	0.000100
C44	C	1.344915	-0.204058	0.000099
O45	O	1.151970	-0.256388	0.000108
O46	O	1.534837	-0.280337	0.000085
C47	C	1.547343	0.078558	0.000107
C48	C	1.673321	0.080071	0.000109
C49	C	1.330339	0.186167	0.000061
C50	C	1.331865	0.249393	0.000044
N51	N	1.339785	0.082070	0.318919
N52	N	1.339822	0.082077	-0.318737
C53	C	1.339802	0.082076	0.569925
C54	C	1.339789	0.082074	0.430247
H55	H	1.532770	-0.210254	0.000113
H56	H	1.522302	-0.649034	0.000077
H57	H	1.632285	-0.382226	0.000111
C58	C	1.563573	-0.096143	0.000404
C59	C	1.570447	-0.062439	0.105710
C60	C	1.674605	-0.039166	0.106005
H61	H	1.568546	-0.073190	-0.070873
H62	H	1.624599	-0.126177	0.000468
H63	H	1.509438	-0.032410	0.105634
H64	H	1.565494	-0.085380	0.177004
H65	H	1.735631	-0.069200	0.106070
H66	H	1.679568	-0.016215	0.034724
H67	H	1.679287	-0.016300	0.177459
H68	H	1.629714	-0.489986	0.000089
C69	C	1.118825	-0.615865	0.000097
C70	C	1.027300	-0.648943	0.000123
C71	C	0.924384	-0.612887	0.000195
H72	H	1.114909	-0.592403	-0.071246
H73	H	1.115007	-0.592437	0.071492
H74	H	1.031116	-0.672361	-0.071265
H75	H	1.031179	-0.672405	0.071460
H76	H	0.920566	-0.589458	0.071590
H77	H	0.920480	-0.589426	-0.071149
H78	H	0.862272	-0.635324	0.000224
C79	C	1.131904	-0.069286	-0.000099
C80	C	1.069140	-0.079836	-0.105385
C81	C	0.966282	-0.043736	-0.105624
H82	H	1.147519	-0.030560	-0.000160
H83	H	1.089077	-0.076376	0.071217
H84	H	1.111958	-0.072742	-0.176683
H85	H	1.053495	-0.118556	-0.105347
H86	H	0.923455	-0.050826	-0.034308
H87	H	0.981908	-0.005012	-0.105681
H88	H	0.923679	-0.050893	-0.177052
H89	H	1.049899	-0.345843	0.000001
H90	H	1.144273	-0.733354	0.000047
C91	C	1.129114	-0.193212	-0.000104
C92	C	1.122278	-0.226936	-0.105387
C93	C	1.018182	-0.250268	-0.105620
H94	H	1.068020	-0.163224	-0.000165
H95	H	1.124244	-0.216161	0.071214
H96	H	1.127136	-0.203987	-0.176686
H97	H	1.183348	-0.256932	-0.105348
H98	H	1.013312	-0.273218	-0.034302
H99	H	0.957096	-0.220276	-0.105678
H100	H	1.013534	-0.273156	-0.177047
H101	H	1.519719	-0.756814	0.000062
H102	H	1.047320	-0.453608	-0.000006
