data_functionalizedCrystal
_audit_creation_method	'MofGen! by Chris Wilmer'
_symmetry_space_group_name_H-M	'P1'
_symmetry_Int_Tables_number	1
_symmetry_cell_setting	triclinic
loop_
_symmetry_equiv_pos_as_xyz
  x,y,z
_cell_length_a	23.532355
_cell_length_b	23.532407
_cell_length_c	17.666332
_cell_angle_alpha	89.988854
_cell_angle_beta	89.996463
_cell_angle_gamma	82.838088
loop_
_atom_site_label
_atom_site_type_symbol
_atom_site_fract_x
_atom_site_fract_y
_atom_site_fract_z
O1	O	0.755283	0.068995	-0.062853
O2	O	1.255283	0.568995	0.437147
O3	O	0.589415	0.079029	-0.062878
O4	O	1.089415	0.579029	0.437122
O5	O	0.677351	-0.008921	-0.062851
O6	O	1.177351	0.491079	0.437149
O7	O	0.667347	0.156945	-0.062880
O8	O	1.167347	0.656945	0.437120
O9	O	0.677335	-0.008925	0.063046
O10	O	1.177335	0.491075	0.563046
O11	O	0.589400	0.079025	0.063019
O12	O	1.089400	0.579025	0.563019
O13	O	0.755267	0.068990	0.063044
O14	O	1.255267	0.568990	0.563044
Cu15	Cu	0.672332	0.074007	0.074527
Cu16	Cu	1.172332	0.574007	0.574527
Cu17	Cu	0.672350	0.074013	-0.074361
Cu18	Cu	1.172350	0.574013	0.425639
O19	O	0.667332	0.156940	0.063017
O20	O	1.167332	0.656940	0.563017
C21	C	0.568191	0.078776	0.000067
C22	C	1.068191	0.578776	0.500067
C23	C	0.504972	0.078022	0.000058
C24	C	1.004972	0.578022	0.500058
C25	C	0.112950	0.073281	0.068717
C26	C	0.612950	0.573281	0.568717
C27	C	0.053551	0.072564	0.068720
C28	C	0.553551	0.572564	0.568720
O29	O	0.022825	0.072171	0.127083
O30	O	0.522825	0.572171	0.627083
N31	N	0.023850	0.072211	0.000094
N32	N	0.523850	0.572211	0.500094
C33	C	0.053554	0.072569	-0.068539
C34	C	0.553554	0.572569	0.431461
O35	O	0.022837	0.072202	-0.126911
O36	O	0.522837	0.572202	0.373089
C37	C	0.112952	0.073282	-0.068542
C38	C	0.612952	0.573282	0.431458
C39	C	0.142649	0.073641	0.000089
C40	C	0.642649	0.573641	0.500089
C41	C	0.142646	0.073640	0.137342
C42	C	0.642646	0.573640	0.637342
C43	C	0.202042	0.074358	0.137339
C44	C	0.702042	0.574358	0.637339
C45	C	0.231740	0.074718	0.068710
C46	C	0.731740	0.574718	0.568710
C47	C	0.202044	0.074360	0.000085
C48	C	0.702044	0.574360	0.500085
C49	C	0.142655	0.073637	-0.137174
C50	C	0.642655	0.573637	0.362826
C51	C	0.202058	0.074350	-0.137171
C52	C	0.702058	0.574350	0.362829
C53	C	0.231754	0.074709	-0.068540
C54	C	0.731754	0.574709	0.431460
C55	C	0.291138	0.075439	-0.068546
C56	C	0.791138	0.575439	0.431454
N57	N	0.320838	0.075792	0.000080
N58	N	0.820838	0.575792	0.500080
C59	C	0.291139	0.075432	0.068708
C60	C	0.791139	0.575432	0.568708
C61	C	-0.071188	0.071070	-0.068529
C62	C	0.428812	0.571070	0.431471
C63	C	-0.130586	0.070361	-0.068528
C64	C	0.369414	0.570361	0.431472
C65	C	-0.130585	0.070355	0.068732
C66	C	0.369415	0.570355	0.568732
C67	C	-0.071186	0.071068	0.068730
C68	C	0.428814	0.571068	0.568730
C69	C	-0.041488	0.071423	0.000097
C70	C	0.458512	0.571423	0.500097
C71	C	0.415873	0.076941	0.068696
C72	C	0.915873	0.576941	0.568696
C73	C	0.475273	0.077662	0.068686
C74	C	0.975273	0.577662	0.568686
C75	C	0.475267	0.077665	-0.068573
C76	C	0.975267	0.577665	0.431427
C77	C	0.415872	0.076947	-0.068564
C78	C	0.915872	0.576947	0.431436
C79	C	0.386177	0.076583	0.000077
C80	C	0.886177	0.576583	0.500077
O81	O	0.321902	0.075829	-0.126880
O82	O	0.821902	0.575829	0.373120
O83	O	0.321864	0.075791	0.127070
O84	O	0.821864	0.575791	0.627070
C85	C	0.677088	-0.030139	0.000099
C86	C	1.177088	0.469861	0.500099
C87	C	0.676322	-0.093356	0.000105
C88	C	1.176322	0.406644	0.500105
C89	C	0.723557	-0.492468	0.000071
C90	C	1.223557	0.007532	0.500071
C91	C	0.722845	-0.551868	0.000065
C92	C	1.222845	-0.051868	0.500065
O93	O	0.766632	-0.588620	0.000044
O94	O	1.266632	-0.088620	0.500044
N95	N	0.670568	-0.574484	0.000057
N96	N	1.170568	-0.074484	0.500057
C97	C	0.618998	-0.537697	0.000048
C98	C	1.118998	-0.037697	0.500048
O99	O	0.574467	-0.562388	0.000041
O100	O	1.074467	-0.062388	0.500041
C101	C	0.619710	-0.478298	0.000049
C102	C	1.119710	0.021702	0.500049
C103	C	0.671991	-0.455685	0.000064
C104	C	1.171991	0.044315	0.500064
C105	C	0.775834	-0.469854	0.000085
C106	C	1.275834	0.030146	0.500085
C107	C	0.776545	-0.410458	0.000092
C108	C	1.276545	0.089542	0.500092
C109	C	0.724979	-0.373676	0.000085
C110	C	1.224979	0.126324	0.500085
C111	C	0.672703	-0.396289	0.000071
C112	C	1.172703	0.103711	0.500071
C113	C	0.568141	-0.441512	0.000034
C114	C	1.068141	0.058488	0.500034
C115	C	0.568858	-0.382110	0.000034
C116	C	1.068858	0.117890	0.500034
C117	C	0.621139	-0.359497	0.000049
C118	C	1.121139	0.140503	0.500049
C119	C	0.621848	-0.300110	0.000071
C120	C	1.121848	0.199890	0.500071
N121	N	0.674126	-0.277494	0.000079
N122	N	1.174126	0.222506	0.500079
C123	C	0.725691	-0.314277	0.000086
C124	C	1.225691	0.185723	0.500086
C125	C	0.617507	-0.662439	0.000046
C126	C	1.117507	-0.162439	0.500046
C127	C	0.616794	-0.721837	0.000051
C128	C	1.116794	-0.221837	0.500051
C129	C	0.720642	-0.736004	0.000066
C130	C	1.220642	-0.236004	0.500066
C131	C	0.721354	-0.676605	0.000067
C132	C	1.221354	-0.176605	0.500067
C133	C	0.669784	-0.639823	0.000053
C134	C	1.169784	-0.139823	0.500053
C135	C	0.727181	-0.189540	0.000102
C136	C	1.227181	0.310460	0.500102
C137	C	0.727888	-0.130138	0.000112
C138	C	1.227888	0.369862	0.500112
C139	C	0.624041	-0.115977	0.000093
C140	C	1.124041	0.384023	0.500093
C141	C	0.623334	-0.175373	0.000086
C142	C	1.123334	0.324627	0.500086
C143	C	0.674909	-0.212154	0.000088
C144	C	1.174909	0.287846	0.500088
O145	O	0.578084	-0.263323	0.000090
O146	O	1.078084	0.236677	0.500090
O147	O	0.770216	-0.289577	0.000083
O148	O	1.270216	0.210423	0.500083
C149	C	0.776491	0.069244	0.000097
C150	C	1.276491	0.569244	0.500097
C151	C	0.839710	0.069998	0.000101
C152	C	1.339710	0.569998	0.500101
C153	C	0.667594	0.178158	0.000065
C154	C	1.167594	0.678158	0.500065
C155	C	0.668360	0.241375	0.000054
C156	C	1.168360	0.741375	0.500054
N157	N	0.672323	0.074003	0.179246
N158	N	1.172323	0.574003	0.679246
N159	N	0.672363	0.074012	-0.179080
N160	N	1.172363	0.574012	0.320920
C161	C	0.711274	0.035078	0.218868
C162	C	1.211274	0.535078	0.718868
C163	C	0.711277	0.035075	0.298115
C164	C	1.211277	0.535075	0.798115
C165	C	0.672336	0.074007	0.337738
C166	C	1.172336	0.574007	0.837738
C167	C	0.633378	0.112935	0.298107
C168	C	1.133378	0.612935	0.798107
C169	C	0.633372	0.112933	0.218861
C170	C	1.133372	0.612933	0.718861
N171	N	0.664801	0.124443	0.462147
N172	N	1.164801	0.624443	0.962147
N173	N	0.664810	0.124444	0.537428
N174	N	1.164810	0.624444	1.037428
C175	C	0.672350	0.074015	0.576502
C176	C	1.172350	0.574015	1.076502
N177	N	0.679893	0.023585	0.537452
N178	N	1.179893	0.523585	1.037452
N179	N	0.679887	0.023585	0.462165
N180	N	1.179887	0.523585	0.962165
C181	C	0.672337	0.074014	0.423667
C182	C	1.172337	0.574014	0.923667
C183	C	0.711307	0.035084	0.702053
C184	C	1.211307	0.535084	1.202053
C185	C	0.711306	0.035080	0.781302
C186	C	1.211306	0.535080	1.281302
C187	C	0.633409	0.112946	0.781292
C188	C	1.133409	0.612946	1.281292
C189	C	0.633407	0.112944	0.702045
C190	C	1.133407	0.612944	1.202045
C191	C	0.672359	0.074014	0.662430
C192	C	1.172359	0.574014	1.162430
H193	H	0.226215	0.074647	0.193225
H194	H	0.726215	0.574647	0.693225
H195	H	0.601653	0.144631	0.186600
H196	H	1.101653	0.644631	0.686600
C197	C	0.234722	0.074742	-0.212675
C198	C	0.734722	0.574742	0.287325
N199	N	0.259324	0.075040	-0.269544
N200	N	0.759324	0.575040	0.230456
H201	H	0.743022	0.003382	0.669798
H202	H	1.243022	0.503382	1.169798
H203	H	0.762629	-0.765963	0.000069
H204	H	1.262629	-0.265963	0.500069
C205	C	0.567321	-0.075505	0.000080
C206	C	1.067321	0.424495	0.500080
N207	N	0.524600	-0.045020	0.000063
N208	N	1.024600	0.454980	0.500063
C209	C	-0.038525	0.071457	0.144228
C210	C	0.461475	0.571457	0.644228
N211	N	-0.013927	0.071748	0.201096
N212	N	0.486073	0.571748	0.701096
C213	C	0.559281	-0.746704	0.000044
C214	C	1.059281	-0.246704	0.500044
N215	N	0.515960	-0.765431	0.000034
N216	N	1.015960	-0.265431	0.500034
H217	H	0.601700	0.144643	0.813552
H218	H	1.101700	0.644643	1.313552
C219	C	0.510627	-0.466372	0.000012
C220	C	1.010627	0.033628	0.500012
N221	N	0.467304	-0.485095	-0.000007
N222	N	0.967304	0.014905	0.499993
H223	H	0.391702	0.076650	0.124590
H224	H	0.891702	0.576650	0.624590
H225	H	0.118472	0.073345	0.193230
H226	H	0.618472	0.573345	0.693230
H227	H	0.817827	-0.499797	0.000088
H228	H	1.317827	0.000203	0.500088
H229	H	-0.047012	0.071365	-0.124422
H230	H	0.452988	0.571365	0.375578
H231	H	0.763925	-0.658198	0.000078
H232	H	1.263925	-0.158198	0.500078
H233	H	-0.154776	0.070060	0.124613
H234	H	0.345224	0.570060	0.624613
H235	H	0.118487	0.073344	-0.193061
H236	H	0.618487	0.573344	0.306939
C237	C	0.783916	-0.229991	0.000111
C238	C	1.283916	0.270009	0.500111
N239	N	0.826649	-0.260458	0.000124
N240	N	1.326649	0.239542	0.500124
H241	H	-0.154761	0.070078	-0.124414
H242	H	0.345239	0.570078	0.375586
C243	C	0.754116	-0.007752	0.175296
C244	C	1.254116	0.492248	0.675296
N245	N	0.786384	-0.040014	0.142477
N246	N	1.286384	0.459986	0.642477
H247	H	0.819117	-0.392053	0.000101
H248	H	1.319117	0.107947	0.500101
H249	H	0.580762	-0.193785	0.000095
H250	H	1.080762	0.306215	0.500095
H251	H	0.391691	0.076664	-0.124448
H252	H	0.891691	0.576664	0.375552
C253	C	0.754133	-0.007742	0.341708
C254	C	1.254133	0.492258	0.841708
N255	N	0.786414	-0.039989	0.374540
N256	N	1.286414	0.460011	0.874540
C257	C	0.507948	0.078057	-0.144060
C258	C	1.007948	0.578057	0.355940
N259	N	0.532565	0.078348	-0.200918
N260	N	1.032565	0.578348	0.299082
C261	C	0.590599	0.155807	0.658459
C262	C	1.090599	0.655807	1.158459
N263	N	0.558367	0.188105	0.625631
N264	N	1.058367	0.688105	1.125631
C265	C	0.785403	-0.105268	0.000126
C266	C	1.285403	0.394732	0.500126
N267	N	0.828723	-0.086538	0.000135
N268	N	1.328723	0.413462	0.500135
C269	C	0.590540	0.155759	0.341693
C270	C	1.090540	0.655759	0.841693
N271	N	0.558270	0.188012	0.374523
N272	N	1.058270	0.688012	0.874523
C273	C	0.754147	-0.007753	0.824886
C274	C	1.254147	0.492247	1.324886
N275	N	0.786413	-0.040018	0.857714
N276	N	1.286413	0.459982	1.357714
H277	H	0.499449	0.077956	0.124576
H278	H	0.999449	0.577956	0.624576
H279	H	0.575510	-0.632494	0.000042
H280	H	1.075510	-0.132494	0.500042
H281	H	0.526863	-0.352164	0.000022
H282	H	1.026863	0.147836	0.500022
