data_functionalizedCrystal
_audit_creation_method	'MofGen! by Chris Wilmer'
_symmetry_space_group_name_H-M	'P1'
_symmetry_Int_Tables_number	1
_symmetry_cell_setting	triclinic
loop_
_symmetry_equiv_pos_as_xyz
  x,y,z
_cell_length_a	8.597340
_cell_length_b	17.038272
_cell_length_c	7.681481
_cell_angle_alpha	83.842174
_cell_angle_beta	103.474906
_cell_angle_gamma	88.193829
loop_
_atom_site_label
_atom_site_type_symbol
_atom_site_fract_x
_atom_site_fract_y
_atom_site_fract_z
O1	O	2.114508	0.108124	0.174378
O2	O	1.652136	0.120582	0.104224
O3	O	1.880575	0.000537	0.138898
O4	O	1.886069	0.228170	0.139703
O5	O	1.908688	-0.014272	0.436023
O6	O	1.680249	0.105773	0.401348
O7	O	2.142620	0.093315	0.471502
Zn8	Zn	1.915898	0.097193	0.483600
Zn9	Zn	1.878858	0.116704	0.092126
O10	O	1.914181	0.213361	0.436828
C11	C	1.606739	0.112665	0.243766
C12	C	1.429586	0.111127	0.216887
C13	C	1.889633	-0.035996	0.286702
C14	C	1.874719	-0.122791	0.284438
C15	C	2.011645	-0.172891	0.305215
C16	C	1.997621	-0.254442	0.303071
C17	C	1.846670	-0.285892	0.280162
C18	C	1.709734	-0.235785	0.259378
C19	C	1.723758	-0.154235	0.261510
C20	C	1.797124	-0.531654	0.272620
C21	C	1.783110	-0.613211	0.270495
C22	C	2.070998	-0.631862	0.314185
C23	C	2.085011	-0.550310	0.316326
C24	C	1.948073	-0.500210	0.295532
C25	C	1.832332	-0.369250	0.277975
C26	C	1.962411	-0.416852	0.297707
C27	C	2.188017	0.101233	0.331957
C28	C	2.365168	0.102771	0.358823
C29	C	1.905123	0.249894	0.289021
C30	C	1.920036	0.336689	0.291272
N31	N	1.941188	0.083876	0.750773
N32	N	1.853580	0.130015	-0.175046
H33	H	2.134566	-0.147292	0.323881
O34	O	1.333615	0.118399	0.047395
C35	C	1.118782	0.193792	-0.170211
C36	C	1.227387	0.185661	0.021764
H37	H	1.032847	0.248161	-0.190983
H38	H	1.195685	0.200384	-0.272830
H39	H	1.047335	0.138807	-0.188902
H40	H	1.298854	0.240628	0.040629
H41	H	1.150395	0.179031	0.124286
H42	H	1.764150	0.177108	0.736183
H43	H	2.085310	-0.391240	0.316320
H44	H	1.612258	-0.113443	0.244590
H45	H	2.109121	-0.295232	0.319994
H46	H	1.445546	0.096788	0.500910
O47	O	2.231759	-0.519889	0.338525
C48	C	2.515837	-0.547004	0.381771
C49	C	2.349737	-0.581558	0.356585
H50	H	2.611270	-0.596849	0.396417
H51	H	2.517951	-0.503113	0.259511
H52	H	2.541262	-0.515467	0.508170
H53	H	2.324206	-0.613134	0.230252
H54	H	2.347706	-0.625408	0.478939
H55	H	2.182484	-0.672662	0.331110
H56	H	1.660185	-0.638815	0.251868
H57	H	2.030637	0.036786	0.839556
H58	H	1.685619	-0.490871	0.255689
H59	H	1.586825	-0.261397	0.240713
H60	H	1.709428	-0.394866	0.259326
