data_functionalizedCrystal
_audit_creation_method	'MofGen! by Chris Wilmer'
_symmetry_space_group_name_H-M	'P1'
_symmetry_Int_Tables_number	1
_symmetry_cell_setting	triclinic
loop_
_symmetry_equiv_pos_as_xyz
  x,y,z
_cell_length_a	17.917603
_cell_length_b	12.970454
_cell_length_c	12.970454
_cell_angle_alpha	89.998717
_cell_angle_beta	63.033594
_cell_angle_gamma	57.010876
loop_
_atom_site_label
_atom_site_type_symbol
_atom_site_fract_x
_atom_site_fract_y
_atom_site_fract_z
Zr1	Zr	0.818625	-0.186786	1.044682
O2	O	0.974653	-0.361219	0.889866
O3	O	0.662598	-0.126511	1.085340
O4	O	0.818626	-0.351412	1.095149
O5	O	0.818625	0.033350	0.880057
O6	O	0.818625	-0.351414	1.264816
O7	O	0.818626	-0.136317	0.880058
O8	O	0.539520	0.050893	1.247270
O9	O	1.097730	-0.368957	0.897603
O10	O	0.726774	-0.109025	1.237519
O11	O	0.726774	0.017598	1.110898
O12	O	0.910476	-0.247194	1.122446
O13	O	0.910476	-0.120571	0.995825
Zr14	Zr	0.818623	0.083810	1.315282
Zr15	Zr	0.818624	-0.186790	1.315282
Zr16	Zr	0.818624	0.083814	1.044682
Zr17	Zr	1.014918	-0.199128	1.057022
Zr18	Zr	0.622330	0.096152	1.302942
O19	O	0.974650	0.023534	1.274624
O20	O	0.974652	-0.361224	1.274625
O21	O	0.974652	0.023540	0.889866
O22	O	0.662595	0.258242	1.470098
O23	O	0.662597	-0.126516	1.470099
O24	O	0.662597	0.258248	1.085340
O25	O	0.818624	-0.136327	1.479907
O26	O	0.818623	0.248435	1.264815
O27	O	0.818624	0.248438	1.095148
O28	O	0.818623	0.033341	1.479907
O29	O	1.097729	-0.368960	1.112694
O30	O	0.539519	0.265984	1.247270
O31	O	0.539519	0.265980	1.462361
O32	O	0.539519	0.050889	1.462361
O33	O	1.097729	-0.153866	0.897603
O34	O	1.097728	-0.153869	1.112694
O35	O	0.726773	0.144217	1.237518
O36	O	0.726773	0.017594	1.364139
O37	O	0.910475	-0.120575	1.249067
O38	O	0.910475	0.006048	1.122446
C39	C	0.573092	-0.036050	1.164547
C40	C	0.489760	-0.030811	1.159309
C41	C	0.818626	-0.051483	0.841503
C42	C	0.818626	-0.051481	0.726626
C43	C	0.818623	0.286991	1.179982
C44	C	0.818623	0.401868	1.179981
C45	C	0.337190	-0.021243	1.149738
C46	C	0.300053	-0.081730	1.210223
C47	C	0.215158	-0.076407	1.204898
C48	C	0.422093	-0.026565	1.155062
C49	C	1.064157	-0.066926	1.195417
C50	C	1.147489	-0.072166	1.200655
C51	C	0.818626	-0.389968	1.179983
C52	C	0.818626	-0.504844	1.179983
C53	C	0.818623	-0.051493	1.518461
C54	C	0.818623	-0.051495	1.633338
C55	C	0.573090	-0.036056	1.503027
C56	C	0.489758	-0.030818	1.612665
C57	C	0.573090	0.302429	1.164547
C58	C	0.489758	0.422545	1.159308
C59	C	0.573089	0.302424	1.503026
C60	C	0.489757	0.422538	1.612664
C61	C	1.064160	-0.405400	0.856938
C62	C	1.147492	-0.525515	0.747300
C63	C	1.064158	-0.066921	0.856938
C64	C	1.147490	-0.072159	0.747300
C65	C	1.064158	-0.405405	1.195418
C66	C	1.147490	-0.525522	1.200656
C67	C	0.450625	-0.094463	1.598057
C68	C	0.372337	-0.089568	1.701065
C69	C	0.333178	-0.021019	1.818678
C70	C	0.372318	0.042628	1.833283
C71	C	0.450611	0.037725	1.730277
C72	C	0.450624	0.545058	1.222942
C73	C	0.372336	0.657930	1.218016
C74	C	0.333178	0.648286	1.149462
C75	C	0.372320	0.525760	1.085819
C76	C	0.450612	0.412891	1.090739
C77	C	0.450623	0.412850	1.730257
C78	C	0.372334	0.525699	1.833285
C79	C	0.333175	0.648236	1.818716
C80	C	0.372317	0.657922	1.701111
C81	C	0.450609	0.545073	1.598086
C82	C	1.186635	-0.515827	0.629707
C83	C	1.264948	-0.628677	0.526681
C84	C	1.304111	-0.751215	0.541250
C85	C	1.264965	-0.760900	0.658856
C86	C	1.186659	-0.648051	0.761880
C87	C	1.186632	-0.008525	0.761907
C88	C	1.264942	-0.013452	0.658902
C89	C	1.304104	-0.082005	0.541289
C90	C	1.264959	-0.145646	0.526683
C91	C	1.186656	-0.140727	0.629688
C92	C	1.186624	-0.515836	1.269222
C93	C	1.264913	-0.628687	1.274168
C94	C	1.304072	-0.751223	1.210541
C95	C	1.264931	-0.760906	1.141973
C96	C	1.186638	-0.648056	1.137034
H97	H	0.332019	-0.137514	1.266005
N98	N	0.332334	0.515811	1.953413
N99	N	0.262428	0.616567	2.045399
H100	H	0.234176	0.609583	2.130239
H101	H	0.340422	0.757707	1.689266
N102	N	0.490596	0.287701	1.745179
N103	N	0.455635	0.279093	1.850193
H104	H	0.483863	0.190709	1.860742
H105	H	0.340476	0.757685	1.269846
H106	H	0.305229	0.034535	1.093958
H107	H	0.482508	-0.150300	1.502301
N108	N	0.332377	-0.154592	1.686107
N109	N	0.367346	-0.215776	1.581084
H110	H	0.339128	-0.261700	1.570515
H111	H	0.269427	0.740202	1.145466
N112	N	0.253115	-0.015901	1.923871
N113	N	0.218127	-0.072648	1.910793
H114	H	0.161546	-0.068987	1.985079
N115	N	0.490586	0.102733	1.745209
N116	N	0.534268	0.071963	1.804275
H117	H	0.562499	0.117877	1.814828
H118	H	1.154752	0.047307	0.857665
H119	H	1.367873	-0.843094	0.457351
N120	N	0.490552	0.287761	1.025749
N121	N	0.429346	0.259448	1.049943
H122	H	0.457549	0.171077	1.004040
N123	N	1.304933	-0.618798	0.406548
N124	N	1.401051	-0.670298	0.337598
H125	H	1.429288	-0.663323	0.252754
N126	N	0.253202	0.763489	1.923973
N127	N	0.218274	0.754805	2.028958
H128	H	0.161790	0.836198	2.103301
H129	H	1.296862	-0.860684	0.670704
N130	N	1.146674	-0.657983	0.881985
N131	N	1.103006	-0.711574	0.911398
H132	H	1.074771	-0.718599	0.996221
N133	N	0.490597	0.554953	1.292986
N134	N	0.455637	0.664361	1.349786
H135	H	0.483865	0.671360	1.399255
H136	H	0.340423	0.098439	1.929057
H137	H	0.340425	0.517927	1.030003
N138	N	0.490558	0.554960	1.477958
N139	N	0.560445	0.454207	1.385969
H140	H	0.588651	0.461196	1.301128
N141	N	1.146650	-0.390677	0.614785
N142	N	1.181625	-0.382070	0.509772
H143	H	1.153393	-0.293686	0.499223
H144	H	1.296800	0.038379	0.670818
N145	N	1.384092	-0.087015	0.436091
N146	N	1.419023	-0.030186	0.449165
H147	H	1.475514	-0.033718	0.374873
H148	H	1.296857	-0.201461	0.430909
H149	H	1.154752	-0.416071	1.321036
H150	H	1.154789	-0.192542	0.617777
H151	H	1.296773	-0.620777	1.330002
H152	H	1.367823	-0.843102	1.214572
H153	H	1.154784	-0.655960	1.081195
H154	H	1.296827	-0.860690	1.090170
