data_functionalizedCrystal
_audit_creation_method	'MofGen! by Chris Wilmer'
_symmetry_space_group_name_H-M	'P1'
_symmetry_Int_Tables_number	1
_symmetry_cell_setting	triclinic
loop_
_symmetry_equiv_pos_as_xyz
  x,y,z
_cell_length_a	12.759395
_cell_length_b	19.121063
_cell_length_c	12.759387
_cell_angle_alpha	87.596398
_cell_angle_beta	90.020509
_cell_angle_gamma	92.470426
loop_
_atom_site_label
_atom_site_type_symbol
_atom_site_fract_x
_atom_site_fract_y
_atom_site_fract_z
Zn1	Zn	1.588336	-0.279547	0.611793
Zn2	Zn	1.580692	-0.397015	0.443587
Zn3	Zn	1.412632	-0.279586	0.436132
Zn4	Zn	1.405095	-0.396965	0.619223
O5	O	1.496689	-0.338278	0.527684
O6	O	1.734343	-0.295134	0.589490
O7	O	1.558353	-0.381475	0.295580
O8	O	1.442293	-0.181296	0.453204
O9	O	1.728726	-0.381437	0.465911
O10	O	1.571382	-0.181268	0.582261
O11	O	1.434881	-0.295200	0.290102
O12	O	1.264611	-0.295151	0.460409
O13	O	1.429447	-0.381352	0.765256
O14	O	1.259074	-0.381389	0.594925
O15	O	1.564074	-0.295086	0.759797
O16	O	1.551045	-0.495293	0.473116
O17	O	1.422034	-0.495256	0.602155
C18	C	1.223722	-0.338270	0.527665
C19	C	1.106944	-0.338283	0.527683
C20	C	1.484921	-0.520758	0.539274
C21	C	1.479982	-0.598824	0.544267
C22	C	1.101207	-0.428228	0.667547
C23	C	1.043477	-0.473206	0.737482
C24	C	0.933755	-0.473214	0.737496
C25	C	0.881761	-0.428239	0.667569
C26	C	0.939490	-0.383261	0.597633
C27	C	1.049215	-0.383258	0.597625
C28	C	0.945228	-0.293313	0.457776
C29	C	1.054950	-0.293307	0.457756
C30	C	0.893233	-0.248337	0.387849
C31	C	0.950963	-0.203362	0.317907
C32	C	1.060691	-0.203356	0.317895
C33	C	1.112679	-0.248329	0.387821
C34	C	1.544883	-0.635495	0.479485
C35	C	1.540245	-0.708846	0.484187
C36	C	1.470700	-0.745525	0.553667
C37	C	1.405796	-0.708848	0.618456
C38	C	1.410440	-0.635499	0.613759
C39	C	1.453319	-0.966994	0.571215
C40	C	1.448677	-1.040349	0.575905
C41	C	1.583128	-1.040341	0.441637
C42	C	1.587762	-0.966990	0.436941
C43	C	1.522862	-0.930320	0.501734
C44	C	1.465955	-0.820501	0.558473
C45	C	1.527613	-0.855345	0.496933
C46	C	1.770721	-0.338287	0.527703
C47	C	1.887498	-0.338291	0.527711
C48	C	1.496772	-0.338209	0.801713
C49	C	1.496808	-0.338180	0.918488
C50	C	1.508531	-0.155086	0.516072
C51	C	1.513578	-0.077020	0.511123
C52	C	1.496669	-0.338296	0.254717
C53	C	1.496849	-0.338128	0.137931
C54	C	1.637004	-0.248357	0.912823
C55	C	1.707117	-0.203435	0.964851
C56	C	1.707144	-0.203409	1.074571
C57	C	1.637048	-0.248309	1.132266
C58	C	1.566935	-0.293231	1.080238
C59	C	1.566918	-0.293253	0.970516
C60	C	1.426736	-0.383050	1.085903
C61	C	1.426712	-0.383080	0.976183
C62	C	1.356641	-0.427949	1.143598
C63	C	1.286531	-0.472876	1.091570
C64	C	1.286507	-0.472900	0.981843
C65	C	1.356599	-0.428002	0.924155
H66	H	1.085824	-0.509823	0.794417
H67	H	1.764230	-0.166825	1.116932
C68	C	1.653775	-1.080063	0.371357
C69	C	1.758843	-1.062130	0.393168
C70	C	1.823959	-1.098698	0.328437
H71	H	1.641199	-1.129011	0.384035
H72	H	1.639260	-1.068072	0.299967
H73	H	1.773351	-1.074125	0.464541
H74	H	1.771451	-1.013188	0.380484
H75	H	1.809445	-1.086708	0.257047
H76	H	1.811374	-1.147645	0.341120
H77	H	1.895255	-1.086531	0.343220
H78	H	1.356664	-0.427923	1.232937
C79	C	1.373035	-1.080207	0.651177
C80	C	1.303034	-1.122370	0.594329
C81	C	1.233330	-1.159089	0.663626
H82	H	1.411267	-1.108834	0.698838
H83	H	1.334988	-1.047883	0.689075
H84	H	1.341077	-1.154690	0.556449
H85	H	1.264777	-1.093760	0.546671
H86	H	1.195283	-1.126765	0.701524
H87	H	1.271571	-1.187712	0.711284
H88	H	1.185820	-1.187696	0.625064
H89	H	1.637068	-0.248278	1.221605
H90	H	1.584241	-0.825479	0.440366
C91	C	1.123178	-0.154496	0.241843
C92	C	1.054153	-0.115127	0.180596
C93	C	1.111672	-0.070118	0.110513
H94	H	1.167981	-0.123863	0.280040
H95	H	1.164204	-0.181307	0.197635
H96	H	1.013145	-0.088318	0.224798
H97	H	1.009348	-0.145742	0.142376
H98	H	1.152699	-0.096929	0.066305
H99	H	1.156474	-0.039490	0.148718
H100	H	1.064848	-0.043406	0.068942
C101	C	1.210551	-0.521593	1.154397
C102	C	1.225592	-0.511963	1.261620
C103	C	1.155628	-0.556836	1.319532
H104	H	1.140577	-0.511359	1.135880
H105	H	1.222878	-0.568805	1.139475
H106	H	1.213257	-0.464762	1.276535
H107	H	1.295552	-0.522202	1.280169
H108	H	1.167956	-0.604048	1.304610
H109	H	1.085659	-0.546599	1.301006
H110	H	1.165831	-0.550313	1.392289
H111	H	1.409329	-0.850373	0.615042
C112	C	1.210347	-0.521758	0.925554
C113	C	1.148994	-0.561084	0.999570
C114	C	1.078837	-0.606109	0.947761
H115	H	1.166200	-0.494982	0.881037
H116	H	1.248527	-0.552412	0.884730
H117	H	1.110817	-0.530434	1.040377
H118	H	1.193111	-0.587874	1.044091
H119	H	1.117017	-0.636763	0.906937
H120	H	1.034698	-0.579328	0.903246
H121	H	1.037207	-0.632802	0.997973
C122	C	1.231811	-0.248244	0.387614
C123	C	1.271245	-0.199240	0.311388
C124	C	1.380984	-0.199150	0.311163
H125	H	1.257572	-0.236132	0.454612
H126	H	1.253744	-0.293539	0.372149
H127	H	1.249323	-0.153955	0.326858
H128	H	1.245514	-0.211341	0.244378
H129	H	1.402917	-0.244444	0.295698
H130	H	1.406734	-0.187038	0.378164
H131	H	1.407754	-0.165906	0.259438
H132	H	0.803891	-0.248344	0.387869
C133	C	1.620496	-0.595803	0.404013
C134	C	1.676359	-0.643622	0.348307
C135	C	1.746035	-0.607085	0.278783
H136	H	1.582255	-0.567235	0.356277
H137	H	1.668123	-0.567156	0.442383
H138	H	1.628738	-0.672256	0.309938
H139	H	1.714620	-0.672191	0.396015
H140	H	1.793662	-0.578438	0.317153
H141	H	1.707786	-0.578518	0.231054
H142	H	1.783953	-0.639524	0.240985
C143	C	1.382717	-0.927313	0.641590
C144	C	1.320793	-0.975137	0.703411
C145	C	1.255724	-0.938606	0.768240
H146	H	1.424567	-0.898647	0.685667
H147	H	1.338715	-0.898766	0.599545
H148	H	1.364790	-1.003673	0.745452
H149	H	1.278922	-1.003805	0.659362
H150	H	1.211722	-0.910059	0.726196
H151	H	1.297582	-0.909941	0.812310
H152	H	1.213694	-0.971049	0.810186
C153	C	1.611007	-0.748635	0.414115
C154	C	1.675677	-0.790584	0.476472
C155	C	1.740968	-0.827211	0.411997
H156	H	1.569310	-0.777398	0.370041
H157	H	1.653144	-0.716256	0.372162
H158	H	1.633545	-0.822958	0.518407
H159	H	1.717396	-0.761837	0.520544
H160	H	1.783105	-0.794832	0.370044
H161	H	1.699262	-0.855970	0.367927
H162	H	1.784861	-0.855672	0.454297
C163	C	1.330453	-0.748759	0.693959
C164	C	1.387241	-0.790815	0.764024
C165	C	1.317866	-0.827596	0.833582
H166	H	1.292436	-0.716493	0.731976
H167	H	1.282896	-0.777460	0.655594
H168	H	1.434779	-0.762117	0.802386
H169	H	1.425255	-0.823094	0.726037
H170	H	1.270309	-0.856297	0.795216
H171	H	1.279853	-0.795326	0.871591
H172	H	1.356385	-0.856140	0.881123
H173	H	0.886752	-0.509836	0.794448
H174	H	1.764186	-0.166877	0.917864
H175	H	1.356591	-0.428020	0.834815
H176	H	1.190548	-0.428231	0.667536
C177	C	0.762625	-0.428373	0.667710
C178	C	0.723196	-0.477398	0.743909
C179	C	0.613453	-0.477548	0.744058
H180	H	0.740599	-0.383108	0.683158
H181	H	0.736953	-0.440499	0.600672
H182	H	0.748859	-0.465269	0.810933
H183	H	0.745194	-0.522671	0.728478
H184	H	0.587780	-0.489674	0.677019
H185	H	0.591437	-0.432280	0.759504
H186	H	0.586686	-0.510815	0.795751
C187	C	1.340096	-0.595555	0.684044
C188	C	1.359069	-0.523468	0.665082
C189	C	1.294299	-0.486651	0.729825
H190	H	1.268711	-0.607537	0.669443
H191	H	1.354692	-0.607489	0.755435
H192	H	1.344465	-0.511539	0.593707
H193	H	1.430441	-0.511465	0.679690
H194	H	1.308895	-0.498585	0.801216
H195	H	1.222918	-0.498639	0.715218
H196	H	1.307170	-0.437737	0.716975
H197	H	0.908620	-0.166743	0.260982
H198	H	1.644391	-0.937128	0.380365
H199	H	1.636998	-0.248380	0.823484
