data_functionalizedCrystal
_audit_creation_method	'MofGen! by Chris Wilmer'
_symmetry_space_group_name_H-M	'P1'
_symmetry_Int_Tables_number	1
_symmetry_cell_setting	triclinic
loop_
_symmetry_equiv_pos_as_xyz
  x,y,z
_cell_length_a	16.109302
_cell_length_b	16.109301
_cell_length_c	14.586319
_cell_angle_alpha	90.007381
_cell_angle_beta	90.002485
_cell_angle_gamma	83.461631
loop_
_atom_site_label
_atom_site_type_symbol
_atom_site_fract_x
_atom_site_fract_y
_atom_site_fract_z
O1	O	-1.103126	-0.106872	-0.076284
O2	O	-0.769793	0.226461	0.257049
O3	O	-0.436460	0.559795	0.590382
O4	O	-0.861065	-0.120171	-0.076278
O5	O	-0.527731	0.213163	0.257056
O6	O	-0.194398	0.546496	0.590389
O7	O	-0.988745	0.007510	-0.076272
O8	O	-0.655412	0.340843	0.257061
O9	O	-0.322079	0.674176	0.590395
O10	O	-0.975446	-0.234552	-0.076290
O11	O	-0.642113	0.098781	0.257043
O12	O	-0.308779	0.432114	0.590376
O13	O	-0.988744	0.007518	0.076209
O14	O	-0.655411	0.340851	0.409542
O15	O	-0.322078	0.674184	0.742876
O16	O	-0.861064	-0.120163	0.076203
O17	O	-0.527730	0.213171	0.409537
O18	O	-0.194397	0.546504	0.742870
O19	O	-1.103125	-0.106864	0.076196
O20	O	-0.769792	0.226469	0.409530
O21	O	-0.436459	0.559803	0.742863
Cu22	Cu	-0.982094	-0.113513	0.090122
Cu23	Cu	-0.648761	0.219821	0.423456
Cu24	Cu	-0.315428	0.553154	0.756789
Cu25	Cu	-0.982096	-0.113522	-0.090204
Cu26	Cu	-0.648762	0.219811	0.243130
Cu27	Cu	-0.315429	0.553145	0.576463
O28	O	-0.975445	-0.234544	0.076191
O29	O	-0.642112	0.098789	0.409524
O30	O	-0.308778	0.432122	0.742857
C31	C	-0.830089	-0.119628	-0.000036
C32	C	-0.496756	0.213705	0.333297
C33	C	-0.163423	0.547039	0.666630
C34	C	-0.737794	-0.118013	-0.000033
C35	C	-0.404461	0.215321	0.333300
C36	C	-0.071127	0.548654	0.666633
C37	C	-0.988206	0.038488	-0.000031
C38	C	-0.654873	0.371822	0.333302
C39	C	-0.321539	0.705155	0.666636
C40	C	-0.986591	0.130784	-0.000030
C41	C	-0.653258	0.464117	0.333304
C42	C	-0.319924	0.797450	0.666637
C43	C	-1.134101	-0.107407	-0.000047
C44	C	-0.800768	0.225926	0.333286
C45	C	-0.467434	0.559260	0.666620
C46	C	-1.226396	-0.109022	-0.000056
C47	C	-0.893063	0.224311	0.333277
C48	C	-0.559729	0.557644	0.666611
C49	C	-0.525452	-0.114273	0.083075
C50	C	-0.192119	0.219060	0.416409
C51	C	0.141214	0.552394	0.749742
C52	C	-0.438732	-0.112746	0.083072
C53	C	-0.105399	0.220587	0.416405
C54	C	0.227934	0.553920	0.749739
C55	C	-0.438744	-0.112759	-0.083171
C56	C	-0.105411	0.220574	0.250162
C57	C	0.227923	0.553907	0.583496
C58	C	-0.525463	-0.114280	-0.083167
C59	C	-0.192130	0.219053	0.250167
C60	C	0.141203	0.552387	0.583500
C61	C	-0.568815	-0.115041	-0.000041
C62	C	-0.235481	0.218292	0.333292
C63	C	0.097852	0.551626	0.666626
C64	C	-0.395375	-0.111994	-0.000048
C65	C	-0.062042	0.221340	0.333285
C66	C	0.271291	0.554673	0.666618
C67	C	-0.301350	-0.110338	-0.000052
C68	C	0.031984	0.222995	0.333281
C69	C	0.365317	0.556328	0.666615
C70	C	-0.662847	-0.116695	-0.000037
C71	C	-0.329513	0.216638	0.333297
C72	C	0.003820	0.549972	0.666630
N73	N	-0.982097	-0.113523	-0.217035
N74	N	-0.648764	0.219811	0.116298
N75	N	-0.315430	0.553144	0.449631
C76	C	-0.975984	-0.265523	-0.000052
C77	C	-0.642651	0.067810	0.333281
C78	C	-0.309317	0.401143	0.666614
C79	C	-0.977599	-0.357819	-0.000060
C80	C	-0.644266	-0.024485	0.333274
C81	C	-0.310933	0.308848	0.666607
C82	C	-1.058599	0.353056	-0.000046
C83	C	-0.725265	0.686389	0.333287
C84	C	-0.391932	1.019723	0.666620
C85	C	-1.057074	0.439776	-0.000054
C86	C	-0.723741	0.773110	0.333280
C87	C	-0.390408	1.106443	0.666613
C88	C	-0.905586	0.419902	-0.000046
C89	C	-0.572252	0.753236	0.333288
C90	C	-0.238919	1.086569	0.666621
C91	C	-0.907111	0.333184	-0.000045
C92	C	-0.573777	0.666517	0.333288
C93	C	-0.240444	0.999850	0.666622
C94	C	-0.983620	0.299763	-0.000040
C95	C	-0.650286	0.633096	0.333293
C96	C	-0.316953	0.966430	0.666626
C97	C	-0.980571	0.473202	-0.000049
C98	C	-0.647237	0.806535	0.333284
C99	C	-0.313904	1.139869	0.666618
C100	C	-0.978918	0.567228	-0.000057
C101	C	-0.645584	0.900562	0.333276
C102	C	-0.312251	1.233895	0.666610
C103	C	-0.985273	0.205731	-0.000034
C104	C	-0.651940	0.539064	0.333299
C105	C	-0.318606	0.872398	0.666633
C106	C	-1.038743	-0.057096	-0.452039
C107	C	-0.705410	0.276238	-0.118706
C108	C	-0.372076	0.609571	0.214627
C109	C	-1.038746	-0.057094	-0.548021
C110	C	-0.705412	0.276240	-0.214687
C111	C	-0.372079	0.609573	0.118646
C112	C	-0.925451	-0.169939	-0.548035
C113	C	-0.592118	0.163395	-0.214702
C114	C	-0.258784	0.496728	0.118632
C115	C	-0.925453	-0.169944	-0.452056
C116	C	-0.592120	0.163389	-0.118722
C117	C	-0.258786	0.496723	0.214611
C118	C	-0.982098	-0.113518	-0.404060
C119	C	-0.648765	0.219816	-0.070727
C120	C	-0.315432	0.553149	0.262606
C121	C	-0.982098	-0.113510	-0.596021
C122	C	-0.648765	0.219823	-0.262688
C123	C	-0.315432	0.553156	0.070646
C124	C	-0.982101	-0.113509	-0.700088
C125	C	-0.648767	0.219825	-0.366755
C126	C	-0.315434	0.553158	-0.033421
C127	C	-0.982097	-0.113520	-0.299986
C128	C	-0.648764	0.219813	0.033347
C129	C	-0.315431	0.553146	0.366680
N130	N	-0.982100	-0.113506	0.216954
N131	N	-0.648766	0.219828	0.550288
N132	N	-0.315433	0.553161	0.883621
H133	H	-0.560747	-0.114893	0.150762
H134	H	-0.227413	0.218441	0.484095
H135	H	0.105920	0.551774	0.817428
Br136	Br	-0.805346	0.260851	-0.000049
Br137	Br	-0.472013	0.594184	0.333284
Br138	Br	-0.138679	0.927518	0.666617
Br139	Br	-0.379887	-0.111703	0.195878
Br140	Br	-0.046553	0.221631	0.529211
Br141	Br	0.286780	0.554964	0.862544
Br142	Br	-0.379908	-0.111701	-0.195979
Br143	Br	-0.046575	0.221632	0.137355
Br144	Br	0.286759	0.554965	0.470688
Br145	Br	-0.801757	0.465265	-0.000055
Br146	Br	-0.468424	0.798598	0.333279
Br147	Br	-0.135091	1.131931	0.666612
Br148	Br	-1.115620	0.019481	-0.386906
Br149	Br	-0.782287	0.352814	-0.053573
Br150	Br	-0.448953	0.686148	0.279761
H151	H	-1.084872	-0.011151	-0.587083
H152	H	-0.751539	0.322183	-0.253749
H153	H	-0.418205	0.655516	0.079584
Br154	Br	-0.584319	-0.115312	-0.195976
Br155	Br	-0.250986	0.218021	0.137357
Br156	Br	0.082348	0.551354	0.470691
H157	H	-0.879330	-0.215879	-0.587123
H158	H	-0.545997	0.117455	-0.253789
H159	H	-0.212664	0.450788	0.079544
H160	H	-1.118130	0.483165	-0.000060
H161	H	-0.784797	0.816498	0.333273
H162	H	-0.451463	1.149831	0.666606
H163	H	-1.120897	0.325848	-0.000044
H164	H	-0.787564	0.659181	0.333289
H165	H	-0.454230	0.992515	0.666622
Br166	Br	-0.848579	-0.246529	-0.386933
Br167	Br	-0.515246	0.086805	-0.053600
Br168	Br	-0.181912	0.420138	0.279733
