data_functionalizedCrystal
_audit_creation_method	'MofGen! by Chris Wilmer'
_symmetry_space_group_name_H-M	'P1'
_symmetry_Int_Tables_number	1
_symmetry_cell_setting	triclinic
loop_
_symmetry_equiv_pos_as_xyz
  x,y,z
_cell_length_a	16.992697
_cell_length_b	16.974875
_cell_length_c	14.421503
_cell_angle_alpha	93.657657
_cell_angle_beta	89.998313
_cell_angle_gamma	87.024218
loop_
_atom_site_label
_atom_site_type_symbol
_atom_site_fract_x
_atom_site_fract_y
_atom_site_fract_z
O1	O	-1.040214	-0.167640	0.064404
O2	O	-0.811930	-0.165800	0.064574
O3	O	-0.932437	-0.052019	0.073085
O4	O	-0.919707	-0.281421	0.055893
O5	O	-0.932417	-0.052036	-0.081140
O6	O	-0.811910	-0.165817	-0.089651
O7	O	-1.040194	-0.167657	-0.089820
Cu8	Cu	-0.926050	-0.166738	-0.103818
Cu9	Cu	-0.926074	-0.166719	0.078571
O10	O	-0.919687	-0.281438	-0.098331
C11	C	-0.782710	-0.163443	-0.012357
C12	C	-0.695674	-0.156383	-0.011816
C13	C	-0.931943	-0.022539	-0.001815
C14	C	-0.930492	0.065329	0.004776
C15	C	-0.645360	-0.224498	-0.016921
C16	C	-0.563580	-0.217860	-0.016434
C17	C	-0.532117	-0.143106	-0.010837
C18	C	-0.582438	-0.074986	-0.005735
C19	C	-0.664216	-0.081624	-0.006228
C20	C	-0.288549	-0.115591	-0.008796
C21	C	-0.206765	-0.108957	-0.008300
C22	C	-0.187913	-0.251832	-0.019002
C23	C	-0.269693	-0.258464	-0.019488
C24	C	-0.320007	-0.190344	-0.014391
N25	N	-0.448525	-0.136319	-0.010337
N26	N	-0.403597	-0.197132	-0.014898
C27	C	-0.069414	-0.170014	-0.012883
C28	C	-0.156450	-0.177072	-0.013405
C29	C	-0.929797	0.106608	-0.076191
C30	C	-0.928438	0.189170	-0.069989
C31	C	-0.927769	0.230451	0.017181
C32	C	-0.928466	0.189167	0.098154
C33	C	-0.929830	0.106607	0.091951
C34	C	-0.923695	0.477369	0.044746
C35	C	-0.922328	0.559935	0.050943
C36	C	-0.922303	0.559932	-0.117201
C37	C	-0.923662	0.477371	-0.123396
C38	C	-0.924363	0.436094	-0.042423
N39	N	-0.926378	0.314842	0.023522
N40	N	-0.925760	0.351704	-0.048765
C41	C	-0.920181	0.689082	-0.023432
C42	C	-0.921634	0.601214	-0.030024
N43	N	-0.926039	-0.166752	-0.232100
C44	C	-0.870307	-0.219339	-0.485687
C45	C	-0.941137	-0.239161	-0.548985
C46	C	-0.926058	-0.166735	-0.421260
C47	C	-0.855247	-0.146932	-0.542057
C48	C	-0.926071	-0.166719	-0.603980
C49	C	-0.996924	-0.186595	-0.483200
C50	C	-0.910987	-0.094331	-0.476264
C51	C	-0.981868	-0.114127	-0.539532
C52	C	-0.926050	-0.166746	-0.316000
C53	C	-0.926087	-0.166708	-0.709238
N54	N	-0.926091	-0.166699	0.206854
H55	H	-0.670970	-0.285371	-0.021478
N56	N	-0.924492	0.432883	0.132096
H57	H	-0.973657	0.401996	0.133497
H58	H	-0.923843	0.471635	0.188185
H59	H	-0.930396	0.072999	0.157883
H60	H	-0.924224	0.443766	-0.194378
H61	H	-0.795358	-0.130190	-0.567964
N62	N	-0.172819	-0.028329	-0.002281
H63	H	-0.139310	-0.022381	0.055333
H64	H	-0.217139	0.013774	0.000829
H65	H	-0.927876	0.222776	-0.135921
N66	N	-0.509348	-0.291353	-0.021960
H67	H	-0.474985	-0.291809	0.035165
H68	H	-0.475061	-0.291762	-0.079210
H69	H	-0.146939	-0.307292	-0.023154
H70	H	-0.295304	-0.319337	-0.024036
N71	N	-1.076269	-0.208872	-0.449048
H72	H	-1.087784	-0.263377	-0.476186
H73	H	-1.118365	-0.169354	-0.469073
N74	N	-0.807926	-0.278321	-0.454199
H75	H	-0.808026	-0.277556	-0.384113
H76	H	-0.754565	-0.263899	-0.476642
H77	H	-0.898207	-0.033126	-0.444481
H78	H	-1.029072	-0.069635	-0.563132
H79	H	-0.329505	-0.060122	-0.004646
H80	H	-0.556814	-0.014119	-0.001191
H81	H	-0.705182	-0.026157	-0.002071
H82	H	-0.930329	0.073002	-0.147174
H83	H	-0.953895	-0.300385	-0.580748
H84	H	-0.921733	0.593549	-0.183124
N85	N	-0.921562	0.604460	0.144965
H86	H	-0.922200	0.565783	0.195321
H87	H	-0.969560	0.642074	0.151474
H88	H	-0.927926	0.222785	0.169129
