data_functionalizedCrystal
_audit_creation_method	'MofGen! by Chris Wilmer'
_symmetry_space_group_name_H-M	'P1'
_symmetry_Int_Tables_number	1
_symmetry_cell_setting	triclinic
loop_
_symmetry_equiv_pos_as_xyz
  x,y,z
_cell_length_a	17.077404
_cell_length_b	16.120484
_cell_length_c	17.077396
_cell_angle_alpha	87.131254
_cell_angle_beta	90.019501
_cell_angle_gamma	92.925780
loop_
_atom_site_label
_atom_site_type_symbol
_atom_site_fract_x
_atom_site_fract_y
_atom_site_fract_z
Zn1	Zn	1.184194	-0.331902	0.459673
Zn2	Zn	1.517528	0.001431	0.793006
Zn3	Zn	1.850861	0.334764	1.126340
Zn4	Zn	1.177439	-0.471326	0.335057
Zn5	Zn	1.510772	-0.137993	0.668390
Zn6	Zn	1.844105	0.195340	1.001724
Zn7	Zn	1.052925	-0.331932	0.328422
Zn8	Zn	1.386258	0.001402	0.661756
Zn9	Zn	1.719591	0.334735	0.995089
Zn10	Zn	1.046234	-0.471277	0.466278
Zn11	Zn	1.379567	-0.137944	0.799611
Zn12	Zn	1.712901	0.195390	1.132945
O13	O	1.115198	-0.401609	0.397358
O14	O	1.448531	-0.068276	0.730691
O15	O	1.781865	0.265057	1.064024
O16	O	1.293145	-0.350406	0.443155
O17	O	1.626478	-0.017073	0.776488
O18	O	1.959811	0.316261	1.109821
O19	O	1.160895	-0.452868	0.224331
O20	O	1.494228	-0.119535	0.557665
O21	O	1.827561	0.213798	0.890998
O22	O	1.075965	-0.215262	0.340292
O23	O	1.409299	0.118071	0.673625
O24	O	1.742632	0.451405	1.006959
O25	O	1.288181	-0.452840	0.351600
O26	O	1.621515	-0.119507	0.684933
O27	O	1.954848	0.213827	1.018266
O28	O	1.172408	-0.215241	0.436721
O29	O	1.505742	0.118093	0.770055
O30	O	1.839075	0.451426	1.103388
O31	O	1.069415	-0.350456	0.219457
O32	O	1.402748	-0.017122	0.552790
O33	O	1.736081	0.316211	0.886124
O34	O	0.942191	-0.350408	0.346697
O35	O	1.275524	-0.017074	0.680030
O36	O	1.608857	0.316259	1.013364
O37	O	1.064562	-0.452756	0.575247
O38	O	1.397895	-0.119422	0.908581
O39	O	1.731228	0.213911	1.241914
O40	O	0.937275	-0.452784	0.447979
O41	O	1.270608	-0.119451	0.781312
O42	O	1.603942	0.213883	1.114646
O43	O	1.165921	-0.350358	0.570395
O44	O	1.499254	-0.017025	0.903728
O45	O	1.832587	0.316309	1.237061
O46	O	1.154407	-0.587986	0.358004
O47	O	1.487740	-0.254652	0.691338
O48	O	1.821074	0.078681	1.024671
O49	O	1.058011	-0.587949	0.454412
O50	O	1.391345	-0.254616	0.787746
O51	O	1.724678	0.078717	1.121079
C52	C	0.911251	-0.401594	0.397335
C53	C	1.244584	-0.068261	0.730669
C54	C	1.577917	0.265072	1.064002
C55	C	0.824000	-0.401608	0.397345
C56	C	1.157334	-0.068275	0.730679
C57	C	1.490667	0.265059	1.064012
C58	C	0.780467	-0.454996	0.450006
C59	C	1.113801	-0.121662	0.783339
C60	C	1.447134	0.211671	1.116673
C61	C	0.698487	-0.454997	0.450019
C62	C	1.031820	-0.121664	0.783352
C63	C	1.365153	0.211669	1.116685
C64	C	0.660041	-0.401615	0.397366
C65	C	0.993374	-0.068282	0.730699
C66	C	1.326707	0.265052	1.064033
C67	C	0.703580	-0.348221	0.344703
C68	C	1.036913	-0.014888	0.678036
C69	C	1.370246	0.318445	1.011369
C70	C	0.785559	-0.348216	0.344694
C71	C	1.118892	-0.014883	0.678028
C72	C	1.452226	0.318451	1.011361
C73	C	0.532709	-0.348238	0.344722
C74	C	0.866042	-0.014905	0.678056
C75	C	1.199376	0.318429	1.011389
C76	C	0.450724	-0.348244	0.344729
C77	C	0.784057	-0.014911	0.678063
C78	C	1.117391	0.318423	1.011396
C79	C	0.445637	-0.455019	0.450047
C80	C	0.778970	-0.121686	0.783380
C81	C	1.112303	0.211647	1.116713
C82	C	0.527616	-0.455014	0.450038
C83	C	0.860949	-0.121681	0.783372
C84	C	1.194283	0.211653	1.116705
C85	C	0.571149	-0.401621	0.397374
C86	C	0.904483	-0.068288	0.730707
C87	C	1.237816	0.265046	1.064040
C88	C	1.104771	-0.618218	0.407662
C89	C	1.438105	-0.284884	0.740995
C90	C	1.771438	0.048449	1.074329
C91	C	1.100383	-0.710884	0.412097
C92	C	1.433716	-0.377550	0.745430
C93	C	1.767049	-0.044217	1.078763
C94	C	1.092374	-0.880545	0.420209
C95	C	1.425708	-0.547212	0.753543
C96	C	1.759041	-0.213879	1.086876
C97	C	1.138162	-0.921833	0.374519
C98	C	1.471495	-0.588500	0.707852
C99	C	1.804829	-0.255166	1.041185
C100	C	1.133706	-1.016239	0.379033
C101	C	1.467040	-0.682905	0.712366
C102	C	1.800373	-0.349572	1.045699
C103	C	1.096829	-0.786131	0.415696
C104	C	1.430162	-0.452798	0.749030
C105	C	1.763496	-0.119464	1.082363
C106	C	1.319941	-0.401625	0.397381
C107	C	1.653275	-0.068292	0.730714
C108	C	1.986608	0.265041	1.064047
C109	C	1.407191	-0.401632	0.397390
C110	C	1.740524	-0.068299	0.730724
C111	C	2.073858	0.265035	1.064057
C112	C	1.115248	-0.401548	0.602099
C113	C	1.448582	-0.068215	0.935432
C114	C	1.781915	0.265119	1.268766
C115	C	1.115270	-0.401522	0.689348
C116	C	1.448603	-0.068188	1.022681
C117	C	1.781937	0.265145	1.356014
C118	C	1.125687	-0.184155	0.387030
C119	C	1.459020	0.149178	0.720363
C120	C	1.792353	0.482511	1.053697
C121	C	1.130156	-0.091489	0.382629
C122	C	1.463490	0.241844	0.715962
C123	C	1.796823	0.575177	1.049296
C124	C	1.115196	-0.401610	0.193410
C125	C	1.448529	-0.068277	0.526743
C126	C	1.781862	0.265056	0.860076
C127	C	1.115338	-0.401402	0.106150
C128	C	1.448671	-0.068068	0.439484
C129	C	1.782004	0.265265	0.772817
C130	C	1.168049	-0.348199	0.727812
C131	C	1.501383	-0.014866	1.061145
C132	C	1.834716	0.318468	1.394479
C133	C	1.168060	-0.348171	0.809791
C134	C	1.501394	-0.014838	1.143125
C135	C	1.834727	0.318496	1.476458
C136	C	1.115295	-0.401471	0.853305
C137	C	1.448628	-0.068138	1.186638
C138	C	1.781961	0.265196	1.519971
C139	C	1.062509	-0.454796	0.814835
C140	C	1.395843	-0.121463	1.148168
C141	C	1.729176	0.211870	1.481501
C142	C	1.062495	-0.454819	0.732857
C143	C	1.395829	-0.121486	1.066190
C144	C	1.729162	0.211847	1.399523
C145	C	1.062543	-0.454746	0.985702
C146	C	1.395877	-0.121413	1.319036
C147	C	1.729210	0.211920	1.652369
C148	C	1.062558	-0.454725	1.067686
C149	C	1.395891	-0.121391	1.401019
C150	C	1.729225	0.211942	1.734353
C151	C	1.168108	-0.348098	1.062637
C152	C	1.501441	-0.014765	1.395970
C153	C	1.834775	0.318569	1.729304
C154	C	1.168094	-0.348121	0.980659
C155	C	1.501428	-0.014788	1.313992
C156	C	1.834761	0.318546	1.647326
C157	C	1.115310	-0.401448	0.942195
C158	C	1.448643	-0.068114	1.275528
C159	C	1.781976	0.265219	1.608861
H160	H	0.811764	-0.498469	0.492880
H161	H	1.145097	-0.165135	0.826213
H162	H	1.478430	0.168198	1.159546
F163	F	1.224286	-0.291344	1.103574
F164	F	1.557620	0.041989	1.436907
F165	F	1.890953	0.375323	1.770241
H166	H	1.211020	-0.304798	0.692389
H167	H	1.544353	0.028535	1.025722
H168	H	1.877686	0.361868	1.359056
H169	H	0.663045	-0.498472	0.492900
H170	H	0.996379	-0.165139	0.826233
H171	H	1.329712	0.168195	1.159566
H172	H	1.019549	-0.498158	0.954387
H173	H	1.352882	-0.164824	1.287720
H174	H	1.686216	0.168509	1.621054
H175	H	1.019509	-0.498232	0.701540
H176	H	1.352843	-0.164899	1.034873
H177	H	1.686176	0.168435	1.368207
H178	H	1.019544	-0.498191	0.850270
H179	H	1.352877	-0.164858	1.183603
H180	H	1.686210	0.168475	1.516936
H181	H	1.211065	-0.304724	0.945232
H182	H	1.544398	0.028609	1.278566
H183	H	1.877732	0.361943	1.611899
H184	H	1.049831	-0.916096	0.462712
H185	H	1.383164	-0.582763	0.796045
H186	H	1.716497	-0.249430	1.129379
H187	H	1.211040	-0.304752	0.841105
H188	H	1.544374	0.028581	1.174438
H189	H	1.877707	0.361915	1.507772
H190	H	1.180708	-0.886279	0.332012
H191	H	1.514041	-0.552946	0.665345
H192	H	1.847375	-0.219613	0.998678
H193	H	0.410188	-0.498491	0.492930
H194	H	0.743521	-0.165158	0.826264
H195	H	1.076855	0.168175	1.159597
H196	H	0.558916	-0.498487	0.492909
H197	H	0.892249	-0.165154	0.826242
H198	H	1.225583	0.168180	1.159575
H199	H	0.419424	-0.304766	0.301864
H200	H	0.752757	0.028568	0.635197
H201	H	1.086091	0.361901	0.968531
F202	F	0.579039	-0.291410	0.288671
F203	F	0.912372	0.041924	0.622005
F204	F	1.245705	0.375257	0.955338
H205	H	0.672271	-0.304753	0.301835
H206	H	1.005604	0.028580	0.635169
H207	H	1.338937	0.361914	0.968502
H208	H	1.019590	-0.498124	1.103113
H209	H	1.352923	-0.164791	1.436446
H210	H	1.686257	0.168542	1.769779
H211	H	0.821003	-0.304738	0.301816
H212	H	1.154336	0.028595	0.635150
H213	H	1.487670	0.361929	0.968483
