data_functionalizedCrystal
_audit_creation_method	'MofGen! by Chris Wilmer'
_symmetry_space_group_name_H-M	'P1'
_symmetry_Int_Tables_number	1
_symmetry_cell_setting	triclinic
loop_
_symmetry_equiv_pos_as_xyz
  x,y,z
_cell_length_a	20.919309
_cell_length_b	14.560438
_cell_length_c	14.560438
_cell_angle_alpha	60.000518
_cell_angle_beta	89.999330
_cell_angle_gamma	57.440967
loop_
_atom_site_label
_atom_site_type_symbol
_atom_site_fract_x
_atom_site_fract_y
_atom_site_fract_z
Zr1	Zr	0.641765	0.933518	-0.084645
O2	O	0.535392	1.137015	-0.237234
O3	O	0.674373	0.738270	-0.037871
O4	O	0.674371	0.929874	-0.229471
O5	O	0.535396	0.945408	0.105508
O6	O	0.784001	0.917616	-0.223345
O7	O	0.535394	0.945411	-0.045633
O8	O	0.784005	0.574871	0.119394
O9	O	0.535392	1.288153	-0.237231
O10	O	0.770096	0.806374	-0.013347
O11	O	0.688282	0.815520	0.094876
O12	O	0.688280	1.041110	-0.130709
O13	O	0.606466	1.050256	-0.022486
Zr14	Zr	0.816614	0.913962	0.166178
Zr15	Zr	0.816611	0.913967	-0.074874
Zr16	Zr	0.641767	0.933513	0.156408
Zr17	Zr	0.641765	1.174565	-0.084640
Zr18	Zr	0.816614	0.672915	0.166174
O19	O	0.784005	1.109210	0.119404
O20	O	0.784001	1.109217	-0.223342
O21	O	0.535396	1.137008	0.105511
O22	O	0.922987	0.710465	0.318768
O23	O	0.922983	0.710471	-0.023978
O24	O	0.674377	0.738263	0.304875
O25	O	0.922983	0.902072	-0.023974
O26	O	0.784007	0.917606	0.311005
O27	O	0.674378	0.929864	0.304879
O28	O	0.922985	0.902069	0.127167
O29	O	0.674372	1.272613	-0.229465
O30	O	0.784007	0.574867	0.310998
O31	O	0.922987	0.559327	0.318765
O32	O	0.922984	0.559331	0.127160
O33	O	0.535394	1.288149	-0.045627
O34	O	0.674374	1.272609	-0.037860
O35	O	0.770099	0.806370	0.212243
O36	O	0.851913	0.797224	0.104020
O37	O	0.770097	1.031959	-0.013343
O38	O	0.688282	1.041106	0.094880
C39	C	0.729189	0.622226	0.040761
C40	C	0.729189	0.519895	0.040759
C41	C	0.771893	0.467045	-0.015732
C42	C	0.771896	0.370885	-0.015722
C43	C	0.686484	0.380439	0.097273
C44	C	0.686486	0.476590	0.097269
C45	C	0.510483	0.948195	0.028545
C46	C	0.436256	0.956495	0.024397
C47	C	0.444089	0.837867	0.083705
C48	C	0.374342	0.845674	0.079805
C49	C	0.296763	0.972109	0.016590
C50	C	0.288931	1.090745	-0.042719
C51	C	0.358677	1.082937	-0.038812
C52	C	0.084038	1.001814	0.001734
C53	C	0.014290	1.009612	-0.002171
C54	C	0.099706	0.764540	0.120355
C55	C	0.169449	0.756744	0.124251
C56	C	0.161612	0.875380	0.064947
C57	C	0.225469	0.980091	0.012599
C58	C	0.232905	0.867396	0.068945
C59	C	0.947896	0.899285	0.052988
C60	C	1.022123	0.890985	0.057136
C61	C	0.729186	0.923746	-0.260753
C62	C	0.729185	0.923748	-0.363086
C63	C	0.729190	1.225254	0.040772
C64	C	0.729190	1.327585	0.040774
C65	C	0.686484	1.046267	-0.568578
C66	C	0.686477	1.046276	-0.472431
C67	C	0.771896	0.801204	-0.349890
C68	C	0.771898	0.801197	-0.446037
C69	C	0.729193	0.923734	0.342287
C70	C	0.729194	0.923732	0.444620
C71	C	0.947896	0.597771	0.052983
C72	C	1.022122	0.487141	0.057129
C73	C	0.729192	0.622220	0.342281
C74	C	0.729193	0.519887	0.444612
C75	C	0.947899	0.597765	0.354502
C76	C	1.022127	0.487133	0.460981
C77	C	0.510480	1.249714	-0.272969
C78	C	0.436252	1.360347	-0.379448
C79	C	0.510483	1.249709	0.028551
C80	C	0.436256	1.360339	0.024405
C81	C	0.729186	1.225260	-0.260747
C82	C	0.729185	1.327593	-0.363079
C83	C	1.014273	0.439964	-0.002199
C84	C	1.084010	0.336028	0.001674
C85	C	1.161596	0.279265	0.064881
C86	C	1.169444	0.326452	0.124210
C87	C	1.099708	0.430392	0.120330
C88	C	1.099699	0.430403	0.454494
C89	C	1.169451	0.326465	0.554534
C90	C	1.161629	0.279251	0.661059
C91	C	1.084049	0.335991	0.667544
C92	C	1.014299	0.439934	0.567505
C93	C	0.358680	1.417088	-0.372961
C94	C	0.288928	1.521057	-0.473000
C95	C	0.296750	1.568276	-0.579526
C96	C	0.374330	1.511530	-0.586010
C97	C	0.444080	1.407570	-0.485972
C98	C	0.444106	1.407526	0.083722
C99	C	0.374369	1.511488	0.079823
C100	C	0.296782	1.568255	0.016612
C101	C	0.288934	1.521063	-0.042712
C102	C	0.358671	1.417110	-0.038819
C103	C	0.771901	0.467033	0.553952
C104	C	0.771892	0.370890	0.650098
C105	C	0.686468	0.380461	0.527552
C106	C	0.686472	0.476609	0.431407
H107	H	0.651716	0.345169	0.143280
H108	H	0.106077	0.667954	0.168637
H109	H	0.352294	1.179536	-0.087092
H110	H	0.225766	1.567242	-0.467698
O111	O	0.221572	1.680373	0.012427
H112	H	0.166298	1.711933	-0.041497
H113	H	0.806677	0.701409	-0.435282
H114	H	0.225754	1.567298	-0.094177
O115	O	0.382759	1.562467	-0.700911
H116	H	0.416619	1.477976	-0.708810
H117	H	0.651711	0.519620	0.143276
O118	O	0.221516	1.680403	-0.687423
H119	H	0.221559	1.768015	-0.738182
O120	O	0.527764	0.701498	0.151887
H121	H	0.521489	0.620322	0.192480
O122	O	0.350192	1.366216	-0.102793
H123	H	0.379912	1.381346	-0.166223
H124	H	0.507240	1.361372	-0.491267
O125	O	0.382850	1.562352	0.143831
H126	H	0.321328	1.644184	0.130503
O127	O	0.930594	0.501189	-0.070388
H128	H	0.936865	0.450922	-0.110999
H129	H	0.806667	0.327862	0.739124
O130	O	0.075584	1.129764	-0.062242
H131	H	0.009920	1.218989	-0.106867
H132	H	0.380727	0.749075	0.128101
H133	H	0.651691	0.519648	0.342372
H134	H	0.352296	1.378649	-0.286232
O135	O	0.640419	1.178423	-0.686514
H136	H	0.610712	1.263630	-0.679534
H137	H	0.806665	0.701440	-0.260853
O138	O	0.817955	0.313887	-0.076656
H139	H	0.774835	0.337149	-0.144128
H140	H	0.232615	0.653787	0.175705
H141	H	0.806683	0.502271	0.564709
O142	O	-0.069391	1.145987	-0.070346
H143	H	-0.063125	1.227172	-0.110918
O144	O	0.640412	1.178437	-0.486662
H145	H	0.610724	1.263635	-0.578848
O146	O	0.527784	1.346329	0.151884
H147	H	0.521513	1.396637	0.192453
O148	O	0.640418	0.333745	0.513311
H149	H	0.647603	0.257986	0.598535
O150	O	0.205259	1.227120	-0.110915
H151	H	0.158075	1.212622	-0.103684
O152	O	1.075537	0.285135	-0.062309
H153	H	1.009869	0.342056	-0.106891
H154	H	0.806666	0.502300	-0.061744
H155	H	0.296073	0.764453	0.120419
H156	H	0.162296	1.083035	-0.038870
H157	H	1.218374	0.194630	0.068032
H158	H	1.232625	0.280220	0.175672
H159	H	1.106111	0.468790	0.168649
H160	H	1.106083	0.468829	0.367765
H161	H	1.218431	0.194613	0.742508
O162	O	1.253120	0.265263	0.547528
H163	H	1.246834	0.315543	0.456645
O164	O	1.075627	0.285038	0.782449
H165	H	1.041771	0.369512	0.790370
O166	O	0.930631	0.501091	0.574508
H167	H	0.936920	0.450774	0.665391
