data_functionalizedCrystal
_audit_creation_method	'MofGen! by Chris Wilmer'
_symmetry_space_group_name_H-M	'P1'
_symmetry_Int_Tables_number	1
_symmetry_cell_setting	triclinic
loop_
_symmetry_equiv_pos_as_xyz
  x,y,z
_cell_length_a	13.635800
_cell_length_b	11.168129
_cell_length_c	11.102291
_cell_angle_alpha	88.013784
_cell_angle_beta	71.394248
_cell_angle_gamma	108.508637
loop_
_atom_site_label
_atom_site_type_symbol
_atom_site_fract_x
_atom_site_fract_y
_atom_site_fract_z
V1	V	-2.055517	-0.174721	0.396270
O2	O	-2.035298	0.008380	0.388715
O3	O	-2.043657	-0.346426	0.393571
O4	O	-2.043913	-0.172040	0.569092
O5	O	-2.035040	-0.167213	0.211979
V6	V	-2.294100	-0.152819	0.374226
O7	O	-2.193119	-0.222764	0.444625
O8	O	-2.381596	-0.104776	0.325871
O9	O	-2.194356	0.018886	0.376925
O10	O	-2.373017	-0.335919	0.381781
O11	O	-2.373275	-0.160326	0.558517
O12	O	-2.194100	-0.155499	0.201404
V13	V	-1.555517	-0.174721	0.396270
O14	O	-1.535298	0.008380	0.388715
O15	O	-1.543657	-0.346426	0.393571
O16	O	-1.543913	-0.172040	0.569092
O17	O	-1.535040	-0.167213	0.211979
V18	V	-1.794100	-0.152819	0.374226
O19	O	-1.693119	-0.222764	0.444625
O20	O	-1.881596	-0.104776	0.325871
O21	O	-1.694356	0.018886	0.376925
O22	O	-1.873017	-0.335919	0.381781
O23	O	-1.873275	-0.160326	0.558517
O24	O	-1.694100	-0.155499	0.201404
C25	C	-1.968752	-0.388284	0.387322
C26	C	-1.999783	-0.528655	0.386267
C27	C	-1.985050	-0.574096	0.275189
C28	C	-2.017121	-0.719177	0.274096
C29	C	-1.969078	-0.165836	0.611215
C30	C	-2.000314	-0.164780	0.752498
C31	C	-2.100932	0.060738	0.383170
C32	C	-2.059521	0.201108	0.384233
C33	C	-2.100606	-0.161708	0.159274
C34	C	-2.058989	-0.162757	0.017990
C35	C	-1.468752	-0.388284	0.387322
C36	C	-1.499783	-0.528655	0.386267
C37	C	-1.469078	-0.165836	0.611215
C38	C	-1.500314	-0.164780	0.752498
C39	C	-2.106983	-0.170582	0.825347
C40	C	-2.136320	-0.169566	0.958093
C41	C	-1.952310	-0.156951	0.945131
C42	C	-1.922972	-0.157958	0.812386
C43	C	-2.213221	-0.177871	0.832832
C44	C	-2.242559	-0.176855	0.965578
C45	C	-1.600932	0.060738	0.383170
C46	C	-1.559521	0.201108	0.384233
C47	C	-1.600606	-0.161708	0.159274
C48	C	-1.558989	-0.162757	0.017990
C49	C	-1.606356	-0.601034	0.392112
C50	C	-1.635509	-0.732929	0.391132
C51	C	-1.451505	-0.720054	0.378456
C52	C	-1.422356	-0.588162	0.379446
C53	C	-1.712588	-0.608467	0.399424
C54	C	-1.741741	-0.740362	0.398444
C55	C	-1.606983	-0.170582	0.825347
C56	C	-1.636320	-0.169566	0.958093
C57	C	-1.452310	-0.156951	0.945131
C58	C	-1.422972	-0.157958	0.812386
C59	C	-1.713221	-0.177871	0.832832
C60	C	-1.742559	-0.176855	0.965578
H61	H	-1.948699	-0.505593	0.180901
Cl62	Cl	-1.288381	-0.497179	0.372122
Cl63	Cl	-1.354176	-0.794872	0.369881
H64	H	-2.260919	-0.087199	0.994674
Cl65	Cl	-2.286652	-0.323252	0.795061
H66	H	-1.807563	-0.797859	0.492603
Cl67	Cl	-2.078912	-0.738473	0.531073
Cl68	Cl	-1.712751	-0.526802	0.261071
H69	H	-1.836115	-0.153235	0.753077
H70	H	-1.389344	-0.151394	0.993907
Cl71	Cl	-2.353286	-0.317808	1.047188
H72	H	-1.768550	-0.589374	0.491853
H73	H	-1.336115	-0.153235	0.753077
Cl74	Cl	-1.781289	-0.778669	0.264414
H75	H	-1.889344	-0.151394	0.993907
Cl76	Cl	-2.055922	-0.634410	0.531851
H77	H	-2.004554	-0.758321	0.178996
H78	H	-2.223082	-0.092166	0.785731
H79	H	-1.723082	-0.092166	0.785731
Cl80	Cl	-1.786652	-0.323252	0.795061
H81	H	-1.760919	-0.087199	0.994674
H82	H	-1.814275	-0.268156	1.018431
