data_functionalizedCrystal
_audit_creation_method	'MofGen! by Chris Wilmer'
_symmetry_space_group_name_H-M	'P1'
_symmetry_Int_Tables_number	1
_symmetry_cell_setting	triclinic
loop_
_symmetry_equiv_pos_as_xyz
  x,y,z
_cell_length_a	16.109301
_cell_length_b	9.730223
_cell_length_c	16.109296
_cell_angle_alpha	89.994600
_cell_angle_beta	96.539474
_cell_angle_gamma	90.002516
loop_
_atom_site_label
_atom_site_type_symbol
_atom_site_fract_x
_atom_site_fract_y
_atom_site_fract_z
O1	O	1.103125	-0.114182	-0.106864
O2	O	1.603125	0.385818	0.393136
O3	O	0.861063	-0.114201	-0.120163
O4	O	1.361063	0.385799	0.379837
O5	O	0.988746	-0.114206	0.007518
O6	O	1.488746	0.385794	0.507518
O7	O	0.975443	-0.114178	-0.234545
O8	O	1.475443	0.385822	0.265455
O9	O	0.988744	0.114374	0.007515
O10	O	1.488744	0.614374	0.507515
O11	O	0.861062	0.114378	-0.120166
O12	O	1.361062	0.614378	0.379834
O13	O	1.103124	0.114398	-0.106867
O14	O	1.603124	0.614398	0.393133
Zn15	Zn	0.982092	0.150680	-0.113517
Zn16	Zn	1.482092	0.650680	0.386483
Zn17	Zn	0.982094	-0.150484	-0.113513
Zn18	Zn	1.482094	0.349516	0.386487
O19	O	0.975441	0.114402	-0.234548
O20	O	1.475441	0.614402	0.265452
C21	C	0.830088	0.000086	-0.119626
C22	C	1.330088	0.500086	0.380374
C23	C	0.737792	0.000077	-0.118011
C24	C	1.237792	0.500077	0.381989
N25	N	0.982097	0.356216	-0.113520
N26	N	1.482097	0.856216	0.386480
C27	C	0.988207	0.000078	0.038491
C28	C	1.488207	0.500078	0.538491
C29	C	0.986593	0.000058	0.130787
C30	C	1.486593	0.500058	0.630787
C31	C	0.515519	0.000101	-0.190019
C32	C	1.015519	0.500101	0.309981
C33	C	0.428798	0.000110	-0.188495
C34	C	0.928798	0.500110	0.311505
C35	C	0.448675	0.000087	-0.037006
C36	C	0.948675	0.500087	0.462994
C37	C	0.535394	0.000088	-0.038531
C38	C	1.035394	0.500088	0.461469
C39	C	0.568813	0.000088	-0.115040
C40	C	1.068813	0.500088	0.384960
C41	C	0.395374	0.000096	-0.111991
C42	C	0.895374	0.500096	0.388009
C43	C	0.301348	0.000105	-0.110338
C44	C	0.801348	0.500105	0.389662
C45	C	0.662845	0.000082	-0.116693
C46	C	1.162845	0.500082	0.383307
C47	C	1.134099	0.000108	-0.107404
C48	C	1.634099	0.500108	0.392596
C49	C	1.226395	0.000107	-0.109019
C50	C	1.726395	0.500107	0.390981
N51	N	0.982096	-0.356020	-0.113504
N52	N	1.482096	0.143980	0.386496
C53	C	1.038650	0.428141	-0.057001
C54	C	1.538650	0.928141	0.442999
C55	C	1.038647	0.572024	-0.056991
C56	C	1.538647	1.072024	0.443009
C57	C	0.925538	0.572046	-0.170025
C58	C	1.425538	1.072046	0.329975
C59	C	0.925537	0.428165	-0.170030
C60	C	1.425537	0.928165	0.329970
C61	C	1.103955	0.428129	0.008255
C62	C	1.603955	0.928129	0.508255
C63	C	1.103953	0.572012	0.008265
C64	C	1.603953	1.072012	0.508265
C65	C	0.981328	-0.124524	0.429857
C66	C	1.481328	0.375476	0.929857
C67	C	0.982856	-0.124531	0.343137
C68	C	1.482856	0.375469	0.843137
C69	C	0.982866	0.124680	0.343120
C70	C	1.482866	0.624680	0.843120
C71	C	0.981345	0.124685	0.429839
C72	C	1.481345	0.624685	0.929839
C73	C	0.980572	0.000078	0.473205
C74	C	1.480572	0.500078	0.973205
C75	C	0.983621	0.000067	0.299766
C76	C	1.483621	0.500067	0.799766
C77	C	0.985277	0.000061	0.205740
C78	C	1.485277	0.500061	0.705740
C79	C	0.978917	0.000084	0.567237
C80	C	1.478917	0.500084	1.067237
C81	C	0.975981	0.000106	0.734479
C82	C	1.475981	0.500106	1.234479
C83	C	0.977599	0.000088	0.642184
C84	C	1.477599	0.500088	1.142184
H85	H	0.542725	0.000112	-0.252317
H86	H	1.042725	0.500112	0.247683
F87	F	1.182616	0.369802	-0.017514
F88	F	1.682616	0.869802	0.482486
F89	F	0.983685	0.257287	0.296959
F90	F	1.483685	0.757287	0.796959
H91	H	0.980731	0.226157	0.465133
H92	H	1.480731	0.726157	0.965133
H93	H	0.879480	0.369606	-0.216044
H94	H	1.379480	0.869606	0.283956
H95	H	0.879487	0.630642	-0.216034
H96	H	1.379487	1.130642	0.283966
F97	F	1.078253	0.630324	0.086962
F98	F	1.578253	1.130324	0.586962
H99	H	1.167719	0.611070	-0.005407
H100	H	1.667719	1.111070	0.494593
F101	F	0.592118	0.000083	0.041277
F102	F	1.092118	0.500083	0.541277
H103	H	1.090334	0.389066	0.072036
H104	H	1.590334	0.889066	0.572036
F105	F	0.980509	-0.257141	0.476008
F106	F	1.480509	0.242859	0.976008
F107	F	0.413100	0.000081	0.044416
F108	F	0.913100	0.500081	0.544416
F109	F	0.372082	0.000126	-0.268298
F110	F	0.872082	0.500126	0.231702
F111	F	0.983664	-0.257150	0.297008
F112	F	1.483664	0.242850	0.797008
