data_functionalizedCrystal
_audit_creation_method	'MofGen! by Chris Wilmer'
_symmetry_space_group_name_H-M	'P1'
_symmetry_Int_Tables_number	1
_symmetry_cell_setting	triclinic
loop_
_symmetry_equiv_pos_as_xyz
  x,y,z
_cell_length_a	27.440280
_cell_length_b	20.875641
_cell_length_c	20.875641
_cell_angle_alpha	89.846015
_cell_angle_beta	57.595596
_cell_angle_gamma	57.588783
loop_
_atom_site_label
_atom_site_type_symbol
_atom_site_fract_x
_atom_site_fract_y
_atom_site_fract_z
Zr1	Zr	0.501269	-0.063040	0.639162
O2	O	0.615254	-0.173570	0.528646
O3	O	0.395830	-0.029158	0.673028
O4	O	0.505542	-0.168275	0.667746
O5	O	0.499190	0.075287	0.538110
O6	O	0.499191	-0.164097	0.777485
O7	O	0.505542	-0.034453	0.533929
O8	O	0.302935	0.084758	0.786934
O9	O	0.695446	-0.173568	0.528661
O10	O	0.431293	-0.011588	0.769384
O11	O	0.431293	0.067191	0.690607
O12	O	0.560465	-0.096601	0.684388
O13	O	0.560465	-0.017822	0.605612
Zr14	Zr	0.481009	0.118646	0.820851
Zr15	Zr	0.491139	-0.056376	0.814182
Zr16	Zr	0.491139	0.111982	0.645830
Zr17	Zr	0.629165	-0.063037	0.639185
Zr18	Zr	0.353113	0.118643	0.820828
O19	O	0.586448	0.084764	0.786984
O20	O	0.600851	-0.164095	0.777503
O21	O	0.600851	0.075289	0.538128
O22	O	0.367023	0.229175	0.931366
O23	O	0.381427	-0.019683	0.921885
O24	O	0.381426	0.219700	0.682510
O25	O	0.483087	-0.019681	0.921903
O26	O	0.476735	0.223881	0.792266
O27	O	0.483087	0.219703	0.682528
O28	O	0.476736	0.090058	0.926084
O29	O	0.687394	-0.168271	0.667778
O30	O	0.294883	0.223877	0.792234
O31	O	0.286832	0.229173	0.931352
O32	O	0.294884	0.090054	0.926052
O33	O	0.687394	-0.034449	0.533961
O34	O	0.679342	-0.029152	0.673079
O35	O	0.421813	0.152207	0.775624
O36	O	0.421813	0.073427	0.854401
O37	O	0.550985	-0.011585	0.769405
O38	O	0.550985	0.067194	0.690629
C39	C	0.331160	0.027799	0.729978
C40	C	0.276865	0.027798	0.729968
C41	C	0.503809	0.019468	0.511083
C42	C	0.508110	0.016639	0.436782
C43	C	0.478468	0.246728	0.738347
C44	C	0.474167	0.321030	0.741178
C45	C	-0.059881	-0.013311	0.771150
C46	C	-0.110906	-0.013309	0.771157
O47	O	-0.137315	-0.048255	0.806155
N48	N	-0.136422	0.027812	0.730036
C49	C	-0.110917	0.068939	0.688912
O50	O	-0.137306	0.103916	0.653936
C51	C	-0.059897	0.068941	0.688909
C52	C	-0.034378	0.027811	0.730026
C53	C	-0.034363	-0.054437	0.812264
C54	C	0.016659	-0.054441	0.812255
C55	C	0.042163	-0.013318	0.771132
C56	C	0.016644	0.027808	0.730017
C57	C	-0.034397	0.110073	0.647791
C58	C	0.016626	0.110072	0.647792
C59	C	0.042145	0.068942	0.688909
C60	C	0.093169	0.068926	0.688885
N61	N	0.118686	0.027806	0.730006
C62	C	0.093182	-0.013316	0.771130
C63	C	-0.218062	0.068933	0.688920
C64	C	-0.269076	0.068927	0.688917
C65	C	-0.269063	-0.013320	0.771164
C66	C	-0.218044	-0.013318	0.771162
C67	C	-0.192546	0.027813	0.730042
C68	C	0.200333	-0.013321	0.771107
C69	C	0.251361	-0.013324	0.771092
C70	C	0.251341	0.068926	0.688848
C71	C	0.200319	0.068925	0.688860
C72	C	0.174815	0.027800	0.729995
O73	O	0.119609	0.103858	0.653909
O74	O	0.119570	-0.048278	0.806108
C75	C	0.651118	0.027806	0.730035
C76	C	0.705413	0.027808	0.730044
C77	C	0.503810	-0.191123	0.721665
C78	C	0.508110	-0.265424	0.718835
C79	C	0.539572	0.311563	0.698143
C80	C	0.535527	0.381380	0.700799
C81	C	0.466077	0.460663	0.746496
C82	C	0.400668	0.470128	0.789533
C83	C	0.404713	0.400312	0.786871
C84	C	0.446747	0.674225	0.759209
C85	C	0.442706	0.744042	0.761870
C86	C	0.577566	0.655290	0.673135
C87	C	0.581605	0.585476	0.670481
C88	C	0.516196	0.594947	0.713514
N89	N	0.461941	0.532028	0.749215
N90	N	0.520334	0.523583	0.710790
C91	C	0.442705	0.059681	0.446240
C92	C	0.446750	0.057021	0.376423
C93	C	0.516201	0.011313	0.297150
C94	C	0.581610	-0.031730	0.287693
C95	C	0.577564	-0.029065	0.357509
C96	C	0.535531	-0.001412	0.083590
C97	C	0.539572	-0.004075	0.013773
C98	C	0.404712	0.084678	0.102508
C99	C	0.400673	0.087335	0.172321
C100	C	0.466081	0.044295	0.162859
N101	N	0.520337	0.008591	0.225785
N102	N	0.461944	0.047022	0.234223
C103	C	0.478468	0.036138	0.948930
C104	C	0.474168	0.038967	1.023231
C105	C	0.318489	0.036134	0.948902
C106	C	0.259894	0.038962	1.023193
C107	C	0.318489	0.246725	0.738319
C108	C	0.259893	0.321025	0.741140
C109	C	0.305818	0.255060	0.957243
C110	C	0.242922	0.332189	1.034364
C111	C	0.676459	-0.199454	0.502770
C112	C	0.739355	-0.276584	0.425648
C113	C	0.663788	0.019471	0.511111
C114	C	0.722384	0.016643	0.436820
C115	C	0.663789	-0.191119	0.721694
C116	C	0.722384	-0.265419	0.718872
C117	C	0.237326	-0.004094	1.013702
C118	C	0.182277	-0.001454	1.083499
C119	C	0.149794	0.044248	1.162786
C120	C	0.172368	0.087306	1.172275
C121	C	0.227419	0.084660	1.102479
C122	C	0.227427	0.400302	0.786843
C123	C	0.172377	0.470121	0.789491
C124	C	0.149791	0.460662	0.746440
C125	C	0.182262	0.381377	0.700732
C126	C	0.237315	0.311559	0.698079
C127	C	0.213385	0.327288	1.111710
C128	C	0.154295	0.399753	1.184180
C129	C	0.124739	0.477117	1.179304
C130	C	0.154282	0.482016	1.101951
C131	C	0.213375	0.409553	1.029482
C132	C	0.768898	-0.271682	0.348303
C133	C	0.828005	-0.344147	0.275832
C134	C	0.857563	-0.421512	0.280709
C135	C	0.828017	-0.426411	0.358062
C136	C	0.768916	-0.353947	0.430531
C137	C	0.744958	0.059693	0.446310
C138	C	0.800021	0.057033	0.376512
C139	C	0.832506	0.011329	0.297225
C140	C	0.809930	-0.031726	0.287736
C141	C	0.754871	-0.029071	0.357533
C142	C	0.744953	-0.255934	0.761933
C143	C	0.800002	-0.325740	0.759298
C144	C	0.832485	-0.405030	0.713598
C145	C	0.809911	-0.414514	0.670537
C146	C	0.754860	-0.344709	0.673176
H147	H	0.272139	-0.046820	0.804573
H148	H	0.245810	0.408019	0.821901
H149	H	0.386148	0.808600	0.799081
H150	H	0.145944	0.534672	0.826715
N151	N	0.859850	-0.338849	0.192411
H152	H	0.901777	-0.396489	0.147236
H153	H	0.879551	-0.308208	0.187130
H154	H	0.104962	0.517519	0.748607
H155	H	0.076622	0.536116	1.238319
H156	H	0.744836	-0.208695	0.344317
N157	N	0.157894	0.371182	0.654306
H158	H	0.118088	0.427445	0.662932
H159	H	0.137244	0.341174	0.675581
H160	H	0.351460	0.119719	0.110202
N161	N	0.251753	0.131106	1.112726
H162	H	0.306798	0.090874	1.084189
H163	H	0.222767	0.160451	1.173562
N164	N	0.824350	-0.315497	0.805733
H165	H	0.864152	-0.371745	0.797134
H166	H	0.780137	-0.282338	0.866684
N167	N	-0.190548	0.113282	0.644552
H168	H	-0.204180	0.157799	0.685388
H169	H	-0.214464	0.139275	0.618503
H170	H	0.596130	-0.041300	-0.050778
H171	H	0.037432	-0.087929	0.845739
N172	N	0.859895	-0.509856	0.363316
H173	H	0.879659	-0.515235	0.393908
H174	H	0.901786	-0.554961	0.305643
H175	H	0.836367	-0.479081	0.633328
N176	N	0.272368	0.226053	0.648734
H177	H	0.249714	0.230662	0.621852
H178	H	0.263028	0.196673	0.686767
N179	N	0.245250	0.243851	1.116981
H180	H	0.217566	0.251754	1.176981
H181	H	0.299816	0.211986	1.088709
N182	N	0.122437	0.394458	1.267604
H183	H	0.150126	0.334451	1.259689
H184	H	0.067872	0.422736	1.299460
N185	N	0.730525	-0.075498	0.347281
H186	H	0.675481	-0.035260	0.375816
H187	H	0.740370	-0.117495	0.372686
N188	N	0.122399	0.565462	1.096698
H189	H	0.080481	0.610617	1.154347
H190	H	0.102675	0.570759	1.066078
N191	N	0.737038	-0.359233	0.513954
H192	H	0.742552	-0.331001	0.545876
H193	H	0.764747	-0.419257	0.505974
N194	N	0.709927	0.108991	0.531821
H195	H	0.732593	0.135851	0.527229
H196	H	0.719293	0.070909	0.561153
N197	N	0.245214	0.414849	0.946062
H198	H	0.287133	0.357209	0.900887
H199	H	0.264927	0.445478	0.940773
N200	N	0.606077	-0.047847	0.073381
H201	H	0.650685	-0.077213	0.012567
H202	H	0.609706	-0.089788	0.098853
N203	N	0.921308	-0.499666	0.202542
H204	H	0.935532	-0.484814	0.152807
H205	H	0.905458	-0.533238	0.201293
H206	H	0.818393	0.092097	0.384254
N207	N	0.730535	-0.354950	0.626714
H208	H	0.690732	-0.298702	0.635313
H209	H	0.709898	-0.384971	0.647977
N210	N	0.606071	0.371167	0.654388
H211	H	0.605012	0.399728	0.694633
H212	H	0.609743	0.396574	0.612397
N213	N	0.891891	0.008469	0.221948
H214	H	0.901256	0.042680	0.239998
H215	H	0.874635	0.031504	0.189299
N216	N	0.044133	0.154430	0.603436
H217	H	0.030502	0.198941	0.644275
H218	H	0.020213	0.180430	0.577391
N219	N	0.844958	-0.081004	0.202219
H220	H	0.883255	-0.076140	0.159450
H221	H	0.805065	-0.058787	0.196609
N222	N	0.709925	-0.170419	0.811225
H223	H	0.732580	-0.175015	0.838103
H224	H	0.654441	-0.137957	0.855365
H225	H	0.179550	0.102405	0.655368
H226	H	0.877311	-0.461863	0.711455
N227	N	0.278852	0.113278	0.644496
H228	H	0.315044	0.107035	0.650738
H229	H	0.235128	0.173917	0.669223
H230	H	-0.055125	-0.087923	0.845755
N231	N	0.172829	-0.057679	0.815467
H232	H	0.146916	-0.032983	0.876118
H233	H	0.216549	-0.118328	0.790697
N234	N	-0.190521	-0.057679	0.815508
H235	H	-0.214422	-0.083730	0.841555
H236	H	-0.204156	-0.016792	0.859979
H237	H	-0.289838	-0.046803	0.804650
H238	H	-0.055167	0.143567	0.614310
N239	N	-0.296592	0.113280	0.644562
H240	H	-0.272689	0.139329	0.618513
H241	H	-0.352562	0.157756	0.685452
H242	H	0.393491	0.092072	0.384132
N243	N	0.614478	0.226053	0.648869
H244	H	0.655297	0.230654	0.622012
H245	H	0.621482	0.193577	0.604715
N246	N	0.656509	0.499967	0.621245
H247	H	0.697329	0.504565	0.594400
H248	H	0.663544	0.467455	0.577083
N249	N	0.648107	0.645083	0.626724
H250	H	0.651815	0.670505	0.584735
H251	H	0.692676	0.584252	0.597422
N252	N	0.376200	0.684443	0.805651
H253	H	0.331592	0.745263	0.835015
H254	H	0.372581	0.658973	0.847590
H255	H	0.344120	0.534686	0.826736
H256	H	0.386151	0.096905	0.510785
N257	N	0.334171	0.410518	0.833287
H258	H	0.289560	0.471337	0.862642
H259	H	0.330533	0.385050	0.875230
H260	H	0.638157	-0.068942	0.223143
N261	N	0.325766	0.136622	0.257821
H262	H	0.284946	0.163484	0.253219
H263	H	0.318763	0.180779	0.290295
H264	H	0.630822	-0.064105	0.349803
H265	H	0.104968	0.046396	1.219612
N266	N	0.272353	-0.053389	0.928192
H267	H	0.249698	-0.080263	0.932783
H268	H	0.327837	-0.097536	0.895736
H269	H	0.163905	-0.036517	1.075757
N270	N	0.137330	0.136596	1.257793
H271	H	0.099030	0.131736	1.300562
H272	H	0.112359	0.196629	1.266541
