data_functionalizedCrystal
_audit_creation_method	'MofGen! by Chris Wilmer'
_symmetry_space_group_name_H-M	'P1'
_symmetry_Int_Tables_number	1
_symmetry_cell_setting	triclinic
loop_
_symmetry_equiv_pos_as_xyz
  x,y,z
_cell_length_a	13.897449
_cell_length_b	14.908520
_cell_length_c	14.908308
_cell_angle_alpha	96.360765
_cell_angle_beta	93.279088
_cell_angle_gamma	93.321930
loop_
_atom_site_label
_atom_site_type_symbol
_atom_site_fract_x
_atom_site_fract_y
_atom_site_fract_z
Zn1	Zn	-1.417722	0.389845	0.532545
Zn2	Zn	-0.917722	0.889845	1.032545
Zn3	Zn	-1.417612	0.532490	0.389916
Zn4	Zn	-0.917612	1.032490	0.889916
Zn5	Zn	-1.266296	0.381150	0.381205
Zn6	Zn	-0.766296	0.881150	0.881205
Zn7	Zn	-1.246507	0.541167	0.541227
Zn8	Zn	-0.746507	1.041167	1.041227
O9	O	-1.337034	0.461163	0.461223
O10	O	-0.837034	0.961163	0.961223
O11	O	-1.552688	0.408775	0.513637
O12	O	-1.052688	0.908775	1.013637
O13	O	-1.405776	0.505145	0.262099
O14	O	-0.905776	1.005145	0.762099
O15	O	-1.294711	0.255639	0.394002
O16	O	-0.794711	0.755639	0.894002
O17	O	-1.552607	0.513575	0.408847
O18	O	-1.052607	1.013575	0.908847
O19	O	-1.405963	0.262027	0.505191
O20	O	-0.905963	0.762027	1.005191
O21	O	-1.294604	0.393956	0.255700
O22	O	-0.794604	0.893956	0.755700
O23	O	-1.128691	0.402369	0.402421
O24	O	-0.628691	0.902369	0.902421
O25	O	-1.260983	0.528363	0.666736
O26	O	-0.760983	1.028363	1.166736
O27	O	-1.114152	0.519933	0.519988
O28	O	-0.614152	1.019933	1.019988
O29	O	-1.386774	0.417188	0.660358
O30	O	-0.886774	0.917188	1.160358
O31	O	-1.386587	0.660306	0.417266
O32	O	-0.886587	1.160306	0.917266
O33	O	-1.260877	0.666681	0.528434
O34	O	-0.760877	1.166681	1.028434
C35	C	-1.321598	0.696337	0.474757
C36	C	-0.821598	1.196337	0.974757
C37	C	-1.315080	0.796947	0.480577
C38	C	-0.815080	1.296947	0.980577
C39	C	-1.086422	0.461150	0.461202
C40	C	-0.586422	0.961150	0.961202
C41	C	-0.979206	0.461167	0.461216
C42	C	-0.479206	0.961167	0.961216
C43	C	-1.588625	0.461177	0.461245
C44	C	-1.088625	0.961177	0.961245
C45	C	-1.695838	0.461183	0.461255
C46	C	-1.195838	0.961183	0.961255
C47	C	-0.782909	0.461172	0.461240
C48	C	-0.282909	0.961172	0.961240
C49	C	-0.892143	0.461166	0.461224
C50	C	-0.392143	0.961166	0.961224
C51	C	-1.321683	0.474713	0.697307
C52	C	-0.821683	0.974713	1.197307
C53	C	-1.315141	0.480488	0.797912
C54	C	-0.815141	0.980488	1.297912
C55	C	-1.352556	0.225072	0.447657
C56	C	-0.852556	0.725072	0.947657
C57	C	-1.359171	0.124464	0.441875
C58	C	-0.859171	0.624464	0.941875
C59	C	-1.433856	0.979311	0.375848
C60	C	-0.933856	1.479311	0.875848
C61	C	-1.427735	1.073843	0.381313
C62	C	-0.927735	1.573843	0.881313
C63	C	-1.296724	1.080546	0.496978
C64	C	-0.796724	1.580546	0.996978
C65	C	-1.302844	0.986014	0.491512
C66	C	-0.802844	1.486014	0.991512
C67	C	-1.371412	0.935399	0.430944
C68	C	-0.871412	1.435399	0.930944
C69	C	-1.377527	0.840865	0.425475
C70	C	-0.877527	1.340865	0.925475
C71	C	-1.246521	0.847570	0.541143
C72	C	-0.746521	1.347570	1.041143
C73	C	-1.240400	0.942102	0.546609
C74	C	-0.740400	1.442102	1.046609
C75	C	-1.352385	0.447600	0.226054
C76	C	-0.852385	0.947600	0.726054
C77	C	-1.359131	0.441571	0.125436
C78	C	-0.859131	0.941571	0.625436
C79	C	-1.433834	0.375550	0.980317
C80	C	-0.933834	0.875550	1.480317
C81	C	-1.427690	0.380972	1.074844
C82	C	-0.927690	0.880972	1.574844
C83	C	-1.296708	0.496749	1.081494
C84	C	-0.796708	0.996749	1.581494
C85	C	-1.302851	0.491327	0.986967
C86	C	-0.802851	0.991327	1.486967
C87	C	-1.371417	0.430726	0.936382
C88	C	-0.871417	0.930726	1.436382
C89	C	-1.377564	0.425309	0.841853
C90	C	-0.877564	0.925309	1.341853
C91	C	-1.246578	0.541081	0.848505
C92	C	-0.746578	1.041081	1.348505
C93	C	-1.240435	0.546503	0.943032
C94	C	-0.740435	1.046503	1.443032
H95	H	-1.433355	0.799656	0.376155
H96	H	-0.933355	1.299656	0.876155
N97	N	-1.507809	0.924717	0.310528
N98	N	-1.007809	1.424717	0.810528
H99	H	-1.502211	0.858168	0.315427
H100	H	-1.002211	1.358168	0.815427
H101	H	-1.495986	0.937563	0.246828
H102	H	-0.995986	1.437563	0.746828
N103	N	-1.179257	0.600604	0.801119
N104	N	-0.679257	1.100604	1.301119
H105	H	-1.193553	0.587978	0.733560
H106	H	-0.693553	1.087978	1.233560
H107	H	-1.110218	0.587467	0.816824
H108	H	-0.610218	1.087467	1.316824
N109	N	-1.451517	0.359955	0.787290
N110	N	-0.951517	0.859955	1.287290
H111	H	-1.490123	0.325822	0.829470
H112	H	-0.990123	0.825822	1.329470
H113	H	-1.417554	0.315817	0.745658
H114	H	-0.917554	0.815817	1.245658
N115	N	-1.507791	0.310203	0.925751
N116	N	-1.007791	0.810203	1.425751
H117	H	-1.546405	0.276074	0.967928
H118	H	-1.046405	0.776074	1.467928
H119	H	-1.473833	0.266061	0.884119
H120	H	-0.973833	0.766061	1.384119
H121	H	-1.478585	1.109592	0.336450
H122	H	-0.978585	1.609592	0.836450
H123	H	-1.240906	1.121772	0.546295
H124	H	-0.740906	1.621772	1.046295
N125	N	-1.495002	0.321454	1.122233
N126	N	-0.995002	0.821454	1.622233
H127	H	-1.539365	0.282241	1.075841
H128	H	-1.039365	0.782241	1.575841
H129	H	-1.534675	0.360542	1.163577
H130	H	-1.034675	0.860542	1.663577
N131	N	-1.166466	0.611844	0.997592
N132	N	-0.666466	1.111844	1.497592
H133	H	-1.172038	0.606902	1.064141
H134	H	-0.672038	1.106902	1.564141
H135	H	-1.178293	0.675547	0.984797
H136	H	-0.678293	1.175547	1.484797
N137	N	-1.166450	0.996695	0.611933
N138	N	-0.666450	1.496695	1.111933
H139	H	-1.172047	1.063244	0.607037
H140	H	-0.672047	1.563244	1.107037
H141	H	-1.099561	0.979422	0.596826
H142	H	-0.599561	1.479422	1.096826
N143	N	-1.179159	0.800209	0.600568
N144	N	-0.679159	1.300209	1.100568
H145	H	-1.193436	0.732642	0.587915
H146	H	-0.693436	1.232642	1.087915
H147	H	-1.188837	0.820405	0.666180
H148	H	-0.688837	1.320405	1.166180
N149	N	-1.222761	0.562090	1.136083
N150	N	-0.722761	1.062090	1.636083
H151	H	-1.234548	0.625828	1.123373
H152	H	-0.734548	1.125828	1.623373
H153	H	-1.155866	0.547007	1.118802
H154	H	-0.655866	1.047007	1.618802
