data_functionalizedCrystal
_audit_creation_method	'MofGen! by Chris Wilmer'
_symmetry_space_group_name_H-M	'P1'
_symmetry_Int_Tables_number	1
_symmetry_cell_setting	triclinic
loop_
_symmetry_equiv_pos_as_xyz
  x,y,z
_cell_length_a	12.759401
_cell_length_b	25.639240
_cell_length_c	25.639233
_cell_angle_alpha	90.013728
_cell_angle_beta	90.010331
_cell_angle_gamma	90.032485
loop_
_atom_site_label
_atom_site_type_symbol
_atom_site_fract_x
_atom_site_fract_y
_atom_site_fract_z
Zn1	Zn	1.606043	-0.208208	0.295595
Zn2	Zn	1.605909	-0.295627	0.208167
Zn3	Zn	1.430370	-0.208208	0.208178
Zn4	Zn	1.430280	-0.295615	0.295575
O5	O	1.518150	-0.251915	0.251879
O6	O	1.753046	-0.219810	0.284002
O7	O	1.582605	-0.284036	0.135004
O8	O	1.453767	-0.135043	0.219786
O9	O	1.752948	-0.284036	0.219769
O10	O	1.582833	-0.135043	0.284012
O11	O	1.453638	-0.219810	0.135011
O12	O	1.283337	-0.219798	0.219767
O13	O	1.453614	-0.284016	0.368743
O14	O	1.283271	-0.284016	0.283978
O15	O	1.582746	-0.219798	0.368758
O16	O	1.582518	-0.368791	0.219750
O17	O	1.453484	-0.368782	0.283968
C18	C	1.245183	-0.251906	0.251872
C19	C	1.128406	-0.251915	0.251881
C20	C	1.073596	-0.218532	0.285378
C21	C	0.963872	-0.218538	0.285382
C22	C	0.963778	-0.285312	0.218389
C23	C	1.073500	-0.285303	0.218383
C24	C	1.518005	-0.387757	0.251867
C25	C	1.518039	-0.445871	0.251879
C26	C	1.585349	-0.697014	0.285355
C27	C	1.585318	-0.642409	0.285351
O28	O	1.642426	-0.614129	0.313797
N29	N	1.518154	-0.615145	0.251886
C30	C	1.451026	-0.642488	0.218418
O31	O	1.393896	-0.614284	0.189952
C32	C	1.451064	-0.697092	0.218420
C33	C	1.518224	-0.724353	0.251891
C34	C	1.652504	-0.724275	0.318824
C35	C	1.652534	-0.778875	0.318828
C36	C	1.585409	-0.806215	0.285364
C37	C	1.518254	-0.778953	0.251896
C38	C	1.383941	-0.724434	0.184950
C39	C	1.383985	-0.779041	0.184954
C40	C	1.451145	-0.806302	0.218426
C41	C	1.451158	-0.860893	0.218437
N42	N	1.518321	-0.888157	0.251902
C43	C	1.585447	-0.860818	0.285366
C44	C	1.450953	-0.527818	0.218416
C45	C	1.450910	-0.473215	0.218417
C46	C	1.585203	-0.473140	0.285350
C47	C	1.585240	-0.527744	0.285351
C48	C	1.518116	-0.555082	0.251882
C49	C	1.585504	-0.975483	0.285373
C50	C	1.585525	-1.030088	0.285376
C51	C	1.451236	-1.030159	0.218442
C52	C	1.451210	-0.975558	0.218441
C53	C	1.518353	-0.948222	0.251908
O54	O	1.394082	-0.889208	0.190004
O55	O	1.642576	-0.889029	0.313822
C56	C	1.792184	-0.251924	0.251887
C57	C	1.908960	-0.251928	0.251890
C58	C	1.518184	-0.251906	0.388252
C59	C	1.518199	-0.251902	0.446366
C60	C	1.518325	-0.115542	0.251902
C61	C	1.518399	-0.057428	0.251912
C62	C	1.518177	-0.251886	0.116036
C63	C	1.518366	-0.251743	0.057923
C64	C	1.585523	-0.218364	0.806743
C65	C	1.585536	-0.218350	0.861347
O66	O	1.642693	-0.189897	0.889595
N67	N	1.518315	-0.251779	0.888649
C68	C	1.451068	-0.285221	0.861343
O69	O	1.393892	-0.313654	0.889580
C70	C	1.451051	-0.285233	0.806740
C71	C	1.518284	-0.251805	0.779441
C72	C	1.652750	-0.184939	0.779443
C73	C	1.652738	-0.184954	0.724843
C74	C	1.585499	-0.218395	0.697541
C75	C	1.518272	-0.251820	0.724840
C76	C	1.383800	-0.318672	0.779436
C77	C	1.383788	-0.318680	0.724829
C78	C	1.451021	-0.285252	0.697530
C79	C	1.451022	-0.285276	0.642938
N80	N	1.518243	-0.251847	0.615637
C81	C	1.585482	-0.218406	0.642938
C82	C	1.451109	-0.285194	0.976014
C83	C	1.451131	-0.285186	1.030616
C84	C	1.585598	-0.218313	1.030616
C85	C	1.585580	-0.218325	0.976013
C86	C	1.518330	-0.251765	0.948712
C87	C	1.585453	-0.218441	0.528273
C88	C	1.585438	-0.218461	0.473668
C89	C	1.450968	-0.285331	0.473673
C90	C	1.450986	-0.285314	0.528273
C91	C	1.518232	-0.251864	0.555572
O92	O	1.393891	-0.313713	0.614656
O93	O	1.642639	-0.189974	0.614695
H94	H	1.640213	-1.052282	0.312636
H95	H	1.329051	-0.345892	0.801653
C96	C	1.133990	-0.181802	0.322220
H97	H	1.085628	-0.161919	0.342167
H98	H	1.176790	-0.201832	0.344965
H99	H	1.176798	-0.158986	0.302253
C100	C	0.903378	-0.322041	0.181549
H101	H	0.830181	-0.317270	0.186353
H102	H	0.921344	-0.314337	0.146431
H103	H	0.921338	-0.357182	0.189143
H104	H	1.396394	-0.312412	1.052839
H105	H	1.396210	-0.451023	0.191167
C106	C	1.133801	-0.322025	0.181535
H107	H	1.207010	-0.317233	0.186326
H108	H	1.115798	-0.357168	0.189124
H109	H	1.115806	-0.314317	0.146418
C110	C	1.659126	-0.557726	0.322165
H111	H	1.699099	-0.533619	0.342090
H112	H	1.618929	-0.579042	0.344930
H113	H	1.704953	-0.579008	0.302180
H114	H	0.919250	-0.191354	0.312658
H115	H	1.640179	-0.953232	0.312625
H116	H	1.707231	-0.801067	0.346080
H117	H	1.396283	-0.550073	0.191163
C118	C	1.659563	-0.181530	1.060655
H119	H	1.649934	-0.186311	1.097084
H120	H	1.730141	-0.189187	1.051709
H121	H	1.644228	-0.146399	1.051710
C122	C	1.310141	-0.809110	0.148140
H123	H	1.270137	-0.785050	0.128211
H124	H	1.350369	-0.830402	0.125378
H125	H	1.264341	-0.830422	0.168125
H126	H	1.707171	-0.702020	0.346074
H127	H	1.329254	-0.702245	0.157694
C128	C	1.659049	-0.443060	0.322156
H129	H	1.649411	-0.406637	0.317354
H130	H	1.643640	-0.452001	0.357281
H131	H	1.729659	-0.451979	0.314529
H132	H	1.640207	-0.191202	0.550493
H133	H	1.396345	-0.312428	0.953789
C134	C	1.377327	-0.945570	0.181628
H135	H	1.337356	-0.969675	0.161699
H136	H	1.331514	-0.924280	0.201606
H137	H	1.417542	-0.924263	0.158858
H138	H	1.396581	-1.052428	0.191198
H139	H	1.640191	-0.191240	0.451443
H140	H	1.707485	-0.157733	0.702621
H141	H	1.707504	-0.157705	0.801667
C142	C	1.659524	-0.181549	0.945989
H143	H	1.699563	-0.161631	0.970074
H144	H	1.705272	-0.201550	0.924685
H145	H	1.619348	-0.158768	0.924692
H146	H	1.329012	-0.345906	0.702603
H147	H	1.396249	-0.312538	0.550501
C148	C	1.377005	-0.322110	0.443634
H149	H	1.386624	-0.317324	0.407205
H150	H	1.392325	-0.357241	0.452579
H151	H	1.306424	-0.314446	0.452580
