data_functionalizedCrystal
_audit_creation_method	'MofGen! by Chris Wilmer'
_symmetry_space_group_name_H-M	'P1'
_symmetry_Int_Tables_number	1
_symmetry_cell_setting	triclinic
loop_
_symmetry_equiv_pos_as_xyz
  x,y,z
_cell_length_a	19.288840
_cell_length_b	14.519731
_cell_length_c	18.366186
_cell_angle_alpha	89.992785
_cell_angle_beta	89.983729
_cell_angle_gamma	83.407434
loop_
_atom_site_label
_atom_site_type_symbol
_atom_site_fract_x
_atom_site_fract_y
_atom_site_fract_z
O1	O	0.921784	0.114934	-0.060673
O2	O	1.421784	0.614934	0.439327
O3	O	0.719578	0.130477	-0.060648
O4	O	1.219578	0.630477	0.439352
O5	O	0.826034	-0.011566	-0.060654
O6	O	1.326034	0.488434	0.439346
O7	O	0.815327	0.256977	-0.060666
O8	O	1.315327	0.756977	0.439334
O9	O	0.826016	-0.011573	0.060445
O10	O	1.326016	0.488427	0.560445
O11	O	0.719560	0.130470	0.060451
O12	O	1.219560	0.630470	0.560451
O13	O	0.921766	0.114927	0.060426
O14	O	1.421766	0.614927	0.560426
Zn15	Zn	0.820660	0.122697	0.079666
Zn16	Zn	1.320660	0.622697	0.579666
Zn17	Zn	0.820684	0.122706	-0.079888
Zn18	Zn	1.320684	0.622706	0.420112
O19	O	0.815309	0.256970	0.060433
O20	O	1.315309	0.756970	0.560433
C21	C	0.693690	0.129977	-0.000095
C22	C	1.193690	0.629977	0.499905
C23	C	0.616580	0.128487	-0.000085
C24	C	1.116580	0.628487	0.499915
C25	C	0.580384	0.127776	-0.066098
C26	C	1.080384	0.627776	0.433902
C27	C	0.507932	0.126366	-0.066107
C28	C	1.007932	0.626366	0.433893
C29	C	0.471681	0.125649	-0.000099
C30	C	0.971681	0.625649	0.499901
C31	C	0.507885	0.126366	0.065923
C32	C	1.007885	0.626366	0.565923
C33	C	0.580335	0.127785	0.065930
C34	C	1.080335	0.627785	0.565930
C35	C	0.362140	0.069381	0.050465
C36	C	0.862140	0.569381	0.550465
C37	C	0.289692	0.067956	0.050455
C38	C	0.789692	0.567956	0.550455
C39	C	0.248221	0.121275	-0.000118
C40	C	0.748221	0.621275	0.499882
C41	C	0.279208	0.176008	-0.050693
C42	C	0.779208	0.676008	0.449307
C43	C	0.351658	0.177427	-0.050686
C44	C	0.851658	0.677427	0.449314
C45	C	0.393121	0.124110	-0.000099
C46	C	0.893121	0.624110	0.499901
C47	C	0.133464	0.119036	-0.066145
C48	C	0.633464	0.619036	0.433855
C49	C	0.061010	0.117631	-0.066151
C50	C	0.561010	0.617631	0.433849
C51	C	0.060965	0.117623	0.065880
C52	C	0.560965	0.617623	0.565880
C53	C	0.133417	0.119036	0.065885
C54	C	0.633417	0.619036	0.565885
C55	C	0.169662	0.119738	-0.000130
C56	C	0.669662	0.619738	0.499870
C57	C	0.825524	-0.045926	-0.000105
C58	C	1.325524	0.454074	0.499895
C59	C	0.824020	-0.148297	-0.000104
C60	C	1.324020	0.351703	0.499896
C61	C	0.822799	-0.231433	-0.000105
C62	C	1.322799	0.268567	0.499895
C63	C	0.821272	-0.335732	-0.000111
C64	C	1.321272	0.164268	0.499889
C65	C	0.820061	-0.418863	-0.000115
C66	C	1.320061	0.081137	0.499885
C67	C	0.818535	-0.523168	-0.000119
C68	C	1.318535	-0.023168	0.499881
C69	C	0.947654	0.115426	-0.000128
C70	C	1.447654	0.615426	0.499872
C71	C	1.024764	0.116916	-0.000143
C72	C	1.524764	0.616916	0.499857
C73	C	0.815820	0.291330	-0.000118
C74	C	1.315820	0.791330	0.499882
C75	C	0.817323	0.393700	-0.000124
C76	C	1.317323	0.893700	0.499876
N77	N	0.820649	0.122690	0.188557
N78	N	1.320649	0.622690	0.688557
N79	N	0.820701	0.122706	-0.188779
N80	N	1.320701	0.622706	0.311221
C81	C	0.867803	0.059824	0.226655
C82	C	1.367803	0.559824	0.726655
C83	C	0.867808	0.059820	0.302883
C84	C	1.367808	0.559820	0.802883
C85	C	0.820664	0.122698	0.341010
C86	C	1.320664	0.622698	0.841010
C87	C	0.773501	0.185569	0.302903
C88	C	1.273501	0.685569	0.802903
C89	C	0.773493	0.185565	0.226677
C90	C	1.273493	0.685565	0.726677
C91	C	0.811673	0.206727	0.461767
C92	C	1.311673	0.706727	0.961767
C93	C	0.811686	0.206732	0.537992
C94	C	1.311686	0.706732	1.037992
C95	C	0.820684	0.122710	0.576118
C96	C	1.320684	0.622710	1.076118
C97	C	0.829684	0.038679	0.538008
C98	C	1.329684	0.538679	1.038008
C99	C	0.829677	0.038675	0.461782
C100	C	1.329677	0.538675	0.961782
C101	C	0.820667	0.122709	0.423665
C102	C	1.320667	0.622709	0.923665
C103	C	0.867846	0.059834	0.696870
C104	C	1.367846	0.559834	1.196870
C105	C	0.867845	0.059829	0.773099
C106	C	1.367845	0.559829	1.273099
C107	C	0.773542	0.185585	0.773118
C108	C	1.273542	0.685585	1.273118
C109	C	0.773539	0.185582	0.696891
C110	C	1.273539	0.685582	1.196891
C111	C	0.820695	0.122708	0.658771
C112	C	1.320695	0.622708	1.158771
H113	H	0.245443	0.219430	-0.091872
H114	H	0.745443	0.719430	0.408128
N115	N	0.918678	-0.007996	0.655737
N116	N	1.418678	0.492004	1.155737
H117	H	0.949475	0.027126	0.624088
H118	H	1.449475	0.527126	1.124088
H119	H	0.948503	-0.047826	0.691478
H120	H	1.448503	0.452174	1.191478
H121	H	0.162975	0.119617	-0.119898
H122	H	0.662975	0.619617	0.380102
H123	H	0.478365	0.125785	0.119667
H124	H	0.978365	0.625785	0.619667
N125	N	0.801975	0.297360	0.579090
N126	N	1.301975	0.797360	1.079090
H127	H	0.758987	0.299516	0.610735
H128	H	1.258987	0.799516	1.110735
H129	H	0.844202	0.302641	0.610656
H130	H	1.344202	0.802641	1.110656
H131	H	0.609805	0.128366	0.119687
H132	H	1.109805	0.628366	0.619687
H133	H	0.478455	0.125787	-0.119865
H134	H	0.978455	0.625787	0.380135
H135	H	0.906242	0.008631	0.804119
H136	H	1.406242	0.508631	1.304119
N137	N	0.722687	0.253398	0.814230
N138	N	1.222687	0.753398	1.314230
H139	H	0.729845	0.243861	0.868301
H140	H	1.229845	0.743861	1.368301
H141	H	0.730790	0.318795	0.800896
H142	H	1.230790	0.818795	1.300896
H143	H	0.804333	0.275152	0.430732
H144	H	1.304333	0.775152	0.930732
H145	H	0.162889	0.119610	0.119640
H146	H	0.662889	0.619610	0.619640
H147	H	0.735115	0.236764	0.333950
H148	H	1.235115	0.736764	0.833950
H149	H	0.735144	0.236778	0.665870
H150	H	1.235144	0.736778	1.165870
N151	N	0.021965	0.116866	-0.137355
N152	N	0.521965	0.616866	0.362645
H153	H	0.055924	0.117523	-0.179170
H154	H	0.555924	0.617523	0.320830
H155	H	-0.002530	0.059120	-0.140224
H156	H	0.497470	0.559120	0.359776
H157	H	0.264468	0.023385	0.091633
H158	H	0.764468	0.523385	0.591633
H159	H	0.031450	0.117045	0.119625
H160	H	0.531450	0.617045	0.619625
N161	N	0.406864	0.011864	0.105014
N162	N	0.906864	0.511864	0.605014
H163	H	0.457462	0.021070	0.097347
H164	H	0.957462	0.521070	0.597347
H165	H	0.392215	0.031808	0.155951
H166	H	0.892215	0.531808	0.655951
N167	N	0.619477	0.128529	-0.137297
N168	N	1.119477	0.628529	0.362703
H169	H	0.585549	0.127863	-0.179117
H170	H	1.085549	0.627863	0.320883
H171	H	0.643975	0.186274	-0.140178
H172	H	1.143975	0.686274	0.359822
N173	N	0.385082	0.236453	-0.105231
N174	N	0.885082	0.736453	0.394769
H175	H	0.347822	0.270017	-0.137273
H176	H	0.847822	0.770017	0.362727
H177	H	0.410641	0.283178	-0.078575
H178	H	0.910641	0.783178	0.421425
H179	H	0.735093	0.236759	0.195657
H180	H	1.235093	0.736759	0.695657
N181	N	0.839407	-0.051956	0.579113
N182	N	1.339407	0.448044	1.079113
H183	H	0.800758	-0.090285	0.565866
H184	H	1.300758	0.409715	1.065866
H185	H	0.885957	-0.087015	0.565806
H186	H	1.385957	0.412985	1.065806
H187	H	0.906208	0.008625	0.333907
H188	H	1.406208	0.508625	0.833907
N189	N	0.918659	-0.007990	0.185540
N190	N	1.418659	0.492010	0.685540
H191	H	0.948532	-0.047817	0.221246
H192	H	1.448532	0.452183	0.721246
H193	H	0.892015	-0.048672	0.153931
H194	H	1.392015	0.451328	0.653931
N195	N	0.839381	-0.051949	0.420677
N196	N	1.339381	0.448051	0.920677
H197	H	0.845084	-0.105180	0.456390
H198	H	1.345084	0.394820	0.956390
H199	H	0.797176	-0.057185	0.389069
H200	H	1.297176	0.442815	0.889069
