data_functionalizedCrystal
_audit_creation_method	'MofGen! by Chris Wilmer'
_symmetry_space_group_name_H-M	'P1'
_symmetry_Int_Tables_number	1
_symmetry_cell_setting	triclinic
loop_
_symmetry_equiv_pos_as_xyz
  x,y,z
_cell_length_a	12.759400
_cell_length_b	12.759401
_cell_length_c	13.033255
_cell_angle_alpha	97.199362
_cell_angle_beta	97.154014
_cell_angle_gamma	89.987402
loop_
_atom_site_label
_atom_site_type_symbol
_atom_site_fract_x
_atom_site_fract_y
_atom_site_fract_z
Zn1	Zn	-0.493731	-1.681670	-0.590815
Zn2	Zn	-0.647130	-1.659260	-0.416078
Zn3	Zn	-0.471461	-1.483670	-0.416095
Zn4	Zn	-0.669357	-1.505955	-0.590774
O5	O	-0.570420	-1.582639	-0.503441
O6	O	-0.514098	-1.825720	-0.567646
O7	O	-0.605205	-1.617263	-0.269849
O8	O	-0.327397	-1.509987	-0.439296
O9	O	-0.626799	-1.809255	-0.439268
O10	O	-0.343759	-1.655457	-0.567662
O11	O	-0.476142	-1.488257	-0.269861
O12	O	-0.497695	-1.339604	-0.439257
O13	O	-0.664682	-1.547970	-0.737011
O14	O	-0.643088	-1.355977	-0.567593
O15	O	-0.535650	-1.677066	-0.737041
O16	O	-0.797096	-1.638872	-0.439228
O17	O	-0.813426	-1.526240	-0.567577
C18	C	-0.570387	-1.309669	-0.503423
C19	C	-0.570402	-1.192895	-0.503440
C20	C	-0.646199	-1.146571	-0.570153
C21	C	-0.646210	-1.036849	-0.570163
C22	C	-0.494621	-1.019781	-0.436737
C23	C	-0.494607	-1.129502	-0.436733
C24	C	-0.721994	-1.209964	-0.636859
C25	C	-0.797799	-1.163641	-0.703577
C26	C	-0.797809	-1.053918	-0.703587
C27	C	-0.722015	-0.990518	-0.636879
C28	C	-0.843384	-1.582574	-0.503419
C29	C	-0.960164	-1.582646	-0.503445
C30	C	-1.006498	-1.641378	-0.436687
C31	C	-1.116226	-1.641447	-0.436720
C32	C	-1.133278	-1.524043	-0.570269
C33	C	-1.023552	-1.523981	-0.570241
C34	C	-0.943110	-1.700043	-0.369891
C35	C	-0.989442	-1.758778	-0.303127
C36	C	-1.099170	-1.758847	-0.303160
C37	C	-1.162566	-1.700180	-0.369955
C38	C	-0.296392	-1.582736	-0.503485
C39	C	-0.179618	-1.582777	-0.503505
C40	C	-0.605130	-1.617504	-0.776003
C41	C	-0.619921	-1.632361	-0.892153
C42	C	-0.570443	-0.856674	-0.503456
C43	C	-0.570426	-0.973450	-0.503453
C44	C	-0.577942	-1.590517	-1.063993
C45	C	-0.562652	-1.575153	-0.943946
C46	C	-0.535769	-1.547970	-0.231939
C47	C	-0.520682	-1.533317	-0.115790
H48	H	-0.432879	-1.167220	-0.382417
H49	H	-0.853762	-1.699990	-0.369854
O50	O	-0.879536	-1.232021	-0.775529
H51	H	-0.932236	-1.181374	-0.821930
H52	H	-0.859526	-1.016206	-0.757919
H53	H	-1.251914	-1.700250	-0.369984
H54	H	-0.502309	-1.514799	-0.899421
H55	H	-0.722021	-0.901176	-0.636901
O56	O	-0.657876	-1.670458	-1.122961
H57	H	-0.657337	-1.669987	-1.207997
O58	O	-0.699858	-1.712309	-0.951114
H59	H	-0.699320	-1.711839	-1.036151
O60	O	-0.973576	-1.460627	-0.642239
H61	H	-0.930311	-1.514387	-0.695439
O62	O	-0.440738	-1.453386	-1.056820
H63	H	-0.481458	-1.393597	-1.007077
O64	O	-0.721990	-1.328306	-0.636841
H65	H	-0.710922	-1.367347	-0.715690
O66	O	-0.412900	-0.951404	-0.364761
H67	H	-0.425658	-0.867323	-0.375957
O68	O	-0.921079	-1.822075	-0.231104
H69	H	-0.836994	-1.812161	-0.242294
O70	O	-1.149151	-1.822193	-0.231157
H71	H	-1.086635	-1.862966	-0.184702
H72	H	-1.184902	-1.476279	-0.624650
