data_functionalizedCrystal
_audit_creation_method	'MofGen! by Chris Wilmer'
_symmetry_space_group_name_H-M	'P1'
_symmetry_Int_Tables_number	1
_symmetry_cell_setting	triclinic
loop_
_symmetry_equiv_pos_as_xyz
  x,y,z
_cell_length_a	10.654553
_cell_length_b	15.455301
_cell_length_c	16.974875
_cell_angle_alpha	89.353449
_cell_angle_beta	96.058876
_cell_angle_gamma	87.022988
loop_
_atom_site_label
_atom_site_type_symbol
_atom_site_fract_x
_atom_site_fract_y
_atom_site_fract_z
O1	O	1.670465	-0.064147	-0.113861
O2	O	1.304773	-0.063408	-0.124402
O3	O	1.498359	-0.071819	-0.004433
O4	O	1.476879	-0.055736	-0.233830
O5	O	1.488569	0.072008	0.001784
O6	O	1.294983	0.080419	-0.118185
O7	O	1.660675	0.079680	-0.107644
Cu8	Cu	1.476935	0.093182	-0.112347
Cu9	Cu	1.488513	-0.076910	-0.119699
O10	O	1.467088	0.088091	-0.227613
C11	C	1.253096	0.008451	-0.120518
C12	C	1.113700	0.008288	-0.118197
C13	C	1.492829	-0.001967	0.028049
C14	C	1.490921	-0.008108	0.115572
C15	C	1.712352	0.007819	-0.111528
C16	C	1.851748	0.007977	-0.113849
C17	C	1.862429	-0.148827	-0.120636
C18	C	1.933256	-0.227152	-0.125122
C19	C	2.064230	-0.226999	-0.127300
C20	C	2.124380	-0.148514	-0.124990
C21	C	2.053553	-0.070189	-0.120505
C22	C	1.922576	-0.070350	-0.118329
C23	C	2.042873	0.086612	-0.113712
C24	C	1.911898	0.086462	-0.111539
C25	C	2.103024	0.165097	-0.111402
C26	C	2.032195	0.243424	-0.106922
C27	C	1.901213	0.243268	-0.104744
C28	C	1.841071	0.164786	-0.107053
N29	N	1.496657	-0.196544	-0.124864
N30	N	1.468800	0.212815	-0.107175
C31	C	1.541571	0.261452	-0.153478
C32	C	1.535436	0.351986	-0.149562
C33	C	1.456523	0.393881	-0.099347
C34	C	1.383750	0.345238	-0.053040
C35	C	1.389892	0.254705	-0.056952
C36	C	1.430026	0.664280	-0.082469
C37	C	1.423886	0.754819	-0.078562
C38	C	1.575576	0.761561	-0.175083
C39	C	1.581705	0.671027	-0.178995
C40	C	1.508937	0.622391	-0.132684
N41	N	1.450247	0.486421	-0.095346
N42	N	1.515220	0.529853	-0.136682
C43	C	1.484685	0.067403	0.160086
C44	C	1.482901	0.061624	0.242323
C45	C	1.487344	-0.019665	0.280044
C46	C	1.493584	-0.095182	0.235525
C47	C	1.495377	-0.089403	0.153289
C48	C	1.482562	-0.045356	0.525628
C49	C	1.480765	-0.051130	0.607869
C50	C	1.470084	0.105677	0.614662
C51	C	1.471870	0.111449	0.532424
C52	C	1.478117	0.035933	0.487912
N53	N	1.485516	-0.025574	0.364104
N54	N	1.479953	0.041842	0.403855
C55	C	1.472619	0.018239	0.739906
C56	C	1.474529	0.024381	0.652383
H57	H	1.755781	-0.148959	-0.118873
C58	C	1.350893	0.611398	-0.032345
C59	C	1.269087	0.562747	-0.081904
C60	C	1.196159	0.514017	-0.035764
H61	H	1.302900	0.649231	-0.001885
H62	H	1.404914	0.573496	0.002105
H63	H	1.215072	0.600646	-0.116341
H64	H	1.317046	0.524899	-0.112365
H65	H	1.250181	0.476115	-0.001313
H66	H	1.148175	0.551856	-0.005305
H67	H	1.140654	0.480996	-0.069382
C68	C	1.627374	0.216128	-0.208018
C69	C	1.689816	0.278103	-0.247713
C70	C	1.768885	0.236385	-0.297953
H71	H	1.578209	0.183340	-0.245589
H72	H	1.687840	0.178585	-0.177594
H73	H	1.629358	0.315631	-0.278135
H74	H	1.739004	0.310894	-0.210161
H75	H	1.829350	0.198842	-0.267529
H76	H	1.719710	0.203598	-0.335519
H77	H	1.811269	0.278428	-0.324886
C78	C	1.667247	0.625386	-0.233503
C79	C	1.657016	0.535693	-0.227040
C80	C	1.735773	0.493621	-0.277256
H81	H	1.752314	0.639114	-0.218784
H82	H	1.642525	0.643952	-0.286679
H83	H	1.681745	0.517133	-0.173876
H84	H	1.571967	0.521939	-0.241765
H85	H	1.711051	0.512188	-0.330432
H86	H	1.820835	0.507356	-0.262533
H87	H	1.728834	0.432761	-0.272883
C88	C	1.466998	0.199629	0.491322
C89	C	1.469868	0.188527	0.409773
C90	C	1.465358	0.269739	0.371883
H91	H	1.537711	0.230575	0.511710
H92	H	1.391258	0.231298	0.500539
H93	H	1.545599	0.156871	0.400562
H94	H	1.399160	0.157595	0.389363
H95	H	1.389619	0.301409	0.381100
H96	H	1.536073	0.300679	0.392277
H97	H	1.467293	0.262218	0.316548
C98	C	1.502391	-0.171357	0.104931
C99	C	1.611773	-0.173213	0.065810
C100	C	1.618286	-0.248702	0.021264
H101	H	1.430179	-0.172042	0.067040
H102	H	1.504845	-0.220625	0.139149
H103	H	1.609308	-0.123958	0.031596
H104	H	1.684003	-0.172541	0.103683
H105	H	1.620740	-0.297970	0.055481
H106	H	1.546069	-0.249380	-0.016623
H107	H	1.692506	-0.249975	-0.005279
C108	C	1.310734	0.202051	-0.006649
C109	C	1.240284	0.258117	0.038149
C110	C	1.167339	0.209644	0.084493
H111	H	1.364696	0.164200	0.027868
H112	H	1.255059	0.168997	-0.040123
H113	H	1.295953	0.291156	0.071620
H114	H	1.186298	0.295967	0.003651
H115	H	1.111664	0.176590	0.051019
H116	H	1.221310	0.171796	0.119005
H117	H	1.119521	0.247678	0.114888
C118	C	1.824531	0.328403	-0.099912
C119	C	1.905243	0.397163	-0.098374
C120	C	1.834652	0.475603	-0.093934
H121	H	1.783070	0.328503	-0.053042
H122	H	1.763366	0.334876	-0.144827
H123	H	1.966386	0.390691	-0.053464
H124	H	1.946706	0.397091	-0.145239
H125	H	1.773487	0.482076	-0.138848
H126	H	1.793194	0.475694	-0.047064
H127	H	1.889403	0.522266	-0.092897
C128	C	1.463054	0.187694	0.662930
C129	C	1.352229	0.236970	0.636714
C130	C	1.345706	0.312527	0.681167
H131	H	1.534286	0.220561	0.656489
H132	H	1.462553	0.172650	0.717313
H133	H	1.352742	0.252015	0.582344
H134	H	1.280978	0.204129	0.643157
H135	H	1.345205	0.297483	0.735550
H136	H	1.416943	0.345387	0.674723
H137	H	1.270507	0.345967	0.663390
C138	C	1.498629	-0.183473	0.276437
C139	C	1.610312	-0.229962	0.262679
C140	C	1.614988	-0.311300	0.300354
H141	H	1.427972	-0.214430	0.255971
H142	H	1.496723	-0.176154	0.331801
H143	H	1.612206	-0.237284	0.207327
H144	H	1.680988	-0.199032	0.283148
H145	H	1.613082	-0.303981	0.355718
H146	H	1.544326	-0.342248	0.279884
H147	H	1.690769	-0.342849	0.291031
H148	H	1.481046	0.133598	0.129378
C149	C	1.489269	-0.127443	0.477439
C150	C	1.492735	-0.199867	0.528075
C151	C	1.498895	-0.275503	0.483707
H152	H	1.563403	-0.128969	0.450818
H153	H	1.416941	-0.128104	0.439621
H154	H	1.565056	-0.199207	0.565880
H155	H	1.418609	-0.198370	0.554697
H156	H	1.426567	-0.276164	0.445889
H157	H	1.573029	-0.277020	0.457089
H158	H	1.501236	-0.324651	0.518056
H159	H	1.634820	0.801170	-0.212786
H160	H	1.884267	-0.291053	-0.126999
C161	C	1.485307	-0.139355	0.648869
C162	C	1.376529	-0.146644	0.687579
C163	C	1.380647	-0.227898	0.725359
H164	H	1.557959	-0.145339	0.686482
H165	H	1.489212	-0.183548	0.610618
H166	H	1.372636	-0.102464	0.725827
H167	H	1.303860	-0.140677	0.649985
H168	H	1.384552	-0.272091	0.687108
H169	H	1.453303	-0.233875	0.762967
H170	H	1.306838	-0.232858	0.751622
H171	H	2.231029	-0.148397	-0.126755
C172	C	2.141038	-0.312049	-0.132337
C173	C	2.097858	-0.354623	-0.201566
C174	C	2.168595	-0.432966	-0.206239
H175	H	2.131699	-0.347615	-0.087548
H176	H	2.227659	-0.300744	-0.133350
H177	H	2.011259	-0.365931	-0.200547
H178	H	2.107200	-0.319083	-0.246367
H179	H	2.255216	-0.421660	-0.207252
H180	H	2.159251	-0.468524	-0.161447
H181	H	2.139316	-0.461858	-0.253214
H182	H	2.081181	0.307320	-0.105036
H183	H	2.209671	0.165216	-0.113171
H184	H	1.734424	0.164652	-0.105285
H185	H	1.594697	0.391582	-0.187265
H186	H	1.319503	0.379356	-0.012150
H187	H	1.359619	0.788928	-0.037671
H188	H	1.477829	0.123113	0.278564
