data_functionalizedCrystal
_audit_creation_method	'MofGen! by Chris Wilmer'
_symmetry_space_group_name_H-M	'P1'
_symmetry_Int_Tables_number	1
_symmetry_cell_setting	triclinic
loop_
_symmetry_equiv_pos_as_xyz
  x,y,z
_cell_length_a	14.908782
_cell_length_b	14.908579
_cell_length_c	14.908308
_cell_angle_alpha	83.636704
_cell_angle_beta	96.759680
_cell_angle_gamma	90.160963
loop_
_atom_site_label
_atom_site_type_symbol
_atom_site_fract_x
_atom_site_fract_y
_atom_site_fract_z
Zn1	Zn	1.325891	0.462150	-0.460102
Zn2	Zn	1.825891	0.962150	0.039898
Zn3	Zn	1.325784	0.604790	-0.317485
Zn4	Zn	1.825784	1.104790	0.182515
Zn5	Zn	1.184272	0.445733	-0.316501
Zn6	Zn	1.684272	0.945733	0.183499
Zn7	Zn	1.165761	0.604740	-0.477542
Zn8	Zn	1.665761	1.104740	0.022458
O9	O	1.250427	0.529353	-0.392907
O10	O	1.750427	1.029353	0.107093
O11	O	1.452115	0.487963	-0.434296
O12	O	1.952115	0.987963	0.065704
O13	O	1.314715	0.576841	-0.190272
O14	O	1.814715	1.076841	0.309728
O15	O	1.210850	0.321670	-0.327840
O16	O	1.710850	0.821670	0.172160
O17	O	1.452037	0.592760	-0.329516
O18	O	1.952037	1.092760	0.170484
O19	O	1.314896	0.333732	-0.433343
O20	O	1.814896	0.833732	0.066657
O21	O	1.210747	0.459982	-0.189550
O22	O	1.710747	0.959982	0.310450
O23	O	1.055579	0.459934	-0.344751
O24	O	1.555579	0.959934	0.155249
O25	O	1.179300	0.592675	-0.602311
O26	O	1.679300	1.092675	-0.102311
O27	O	1.041978	0.576756	-0.463067
O28	O	1.541978	1.076756	0.036933
O29	O	1.296946	0.487915	-0.589497
O30	O	1.796946	0.987915	-0.089497
O31	O	1.296765	0.731024	-0.346427
O32	O	1.796765	1.231024	0.153573
O33	O	1.179197	0.730987	-0.464021
O34	O	1.679197	1.230987	0.035979
C35	C	1.016046	0.516558	-0.405695
C36	C	1.516046	1.016558	0.094305
C37	C	0.915774	0.511108	-0.411189
C38	C	1.415774	1.011108	0.088811
C39	C	0.727291	0.609822	-0.312217
C40	C	1.227291	1.109822	0.187783
C41	C	0.633076	0.604704	-0.317376
C42	C	1.133076	1.104704	0.182624
C43	C	0.633129	0.495757	-0.426670
C44	C	1.133129	0.995757	0.073330
C45	C	0.727343	0.500876	-0.421511
C46	C	1.227343	1.000876	0.078489
C47	C	0.774421	0.557909	-0.364282
C48	C	1.274421	1.057909	0.135718
C49	C	0.868638	0.563023	-0.359118
C50	C	1.368638	1.063023	0.140882
C51	C	0.868688	0.454081	-0.468417
C52	C	1.368688	0.954081	0.031583
C53	C	0.774474	0.448963	-0.473576
C54	C	1.274474	0.948963	0.026424
C55	C	1.235984	0.763740	-0.407241
C56	C	1.735984	1.263740	0.092759
C57	C	1.229886	0.864018	-0.413399
C58	C	1.729886	1.364018	0.086601
C59	C	1.340964	1.052440	-0.302608
C60	C	1.840964	1.552440	0.197392
C61	C	1.335237	1.146660	-0.308391
C62	C	1.835237	1.646660	0.191609
C63	C	1.212711	1.146681	-0.430752
C64	C	1.712711	1.646681	0.069248
C65	C	1.218438	1.052461	-0.424969
C66	C	1.718438	1.552461	0.075031
C67	C	1.282565	1.005343	-0.360894
C68	C	1.782565	1.505343	0.139106
C69	C	1.288287	0.911121	-0.355107
C70	C	1.788287	1.411121	0.144893
C71	C	1.165766	0.911144	-0.477472
C72	C	1.665766	1.411144	0.022528
C73	C	1.160039	1.005364	-0.483255
C74	C	1.660039	1.505364	0.016745
C75	C	1.485723	0.542198	-0.380070
C76	C	1.985723	1.042198	0.119930
C77	C	1.585992	0.547672	-0.374600
C78	C	2.085992	1.047672	0.125400
C79	C	1.236070	0.542120	-0.629776
C80	C	1.736070	1.042120	-0.129776
C81	C	1.229952	0.547561	-0.730716
C82	C	1.729952	1.047561	-0.230716
C83	C	1.264943	1.294053	-0.378548
C84	C	1.764943	1.794053	0.121452
C85	C	1.271112	1.193783	-0.372460
C86	C	1.771112	1.693783	0.127540
C87	C	1.340959	0.448677	-0.907050
C88	C	1.840959	0.948677	-0.407050
C89	C	1.335214	0.453786	-1.001891
C90	C	1.835214	0.953786	-0.501891
C91	C	1.212711	0.562883	-1.015241
C92	C	1.712711	1.062883	-0.515241
C93	C	1.218457	0.557774	-0.920400
C94	C	1.718457	1.057774	-0.420400
C95	C	1.282584	0.500670	-0.866307
C96	C	1.782584	1.000670	-0.366307
C97	C	1.288333	0.495566	-0.771464
C98	C	1.788333	0.995566	-0.271464
C99	C	1.165827	0.604658	-0.784816
C100	C	1.665827	1.104658	-0.284816
C101	C	1.160082	0.609767	-0.879657
C102	C	1.660082	1.109767	-0.379657
C103	C	1.264784	0.516573	-0.156953
C104	C	1.764784	1.016573	0.343047
C105	C	1.271093	0.510888	-0.055989
C106	C	1.771093	1.010888	0.444011
H107	H	0.594706	0.646978	-0.274981
H108	H	1.094706	1.146978	0.225019
H109	H	1.382747	0.411445	-1.035059
H110	H	1.882747	0.911445	-0.535059
Cl111	Cl	0.786477	0.681517	-0.240272
Cl112	Cl	1.286477	1.181517	0.259728
H113	H	0.906967	0.609460	-0.312517
H114	H	1.406967	1.109460	0.187483
Cl115	Cl	1.368951	0.423782	-0.703463
Cl116	Cl	1.868951	0.923782	-0.203463
Cl117	Cl	1.132112	1.205930	-0.511307
Cl118	Cl	1.632112	1.705930	-0.011307
Cl119	Cl	0.573929	0.424081	-0.498626
Cl120	Cl	1.073929	0.924081	0.001374
Cl121	Cl	1.132096	0.634657	-1.083257
Cl122	Cl	1.632096	1.134657	-0.583257
H123	H	1.382793	1.185002	-0.260930
H124	H	1.882793	1.685002	0.239070
H125	H	1.107870	0.656257	-0.923712
H126	H	1.607870	1.156257	-0.423712
Cl127	Cl	1.368900	0.851889	-0.274554
Cl128	Cl	1.868900	1.351889	0.225446
H129	H	0.736130	0.402531	-0.520173
H130	H	1.236130	0.902531	-0.020173
H131	H	0.907072	0.411806	-0.510807
H132	H	1.407072	0.911806	-0.010807
H133	H	1.393173	1.014076	-0.250430
H134	H	1.893173	1.514076	0.249570
Cl135	Cl	1.079429	1.064606	-0.563804
Cl136	Cl	1.579429	1.564606	-0.063804
H137	H	1.118211	0.872787	-0.524930
H138	H	1.618211	1.372787	-0.024930
H139	H	1.393178	0.402185	-0.863006
H140	H	1.893178	0.902185	-0.363006
Cl141	Cl	1.092446	0.670035	-0.733592
Cl142	Cl	1.592446	1.170035	-0.233592
