data_functionalizedCrystal
_audit_creation_method	'MofGen! by Chris Wilmer'
_symmetry_space_group_name_H-M	'P1'
_symmetry_Int_Tables_number	1
_symmetry_cell_setting	triclinic
loop_
_symmetry_equiv_pos_as_xyz
  x,y,z
_cell_length_a	17.699077
_cell_length_b	16.176319
_cell_length_c	17.699083
_cell_angle_alpha	90.007696
_cell_angle_beta	83.281795
_cell_angle_gamma	90.006860
loop_
_atom_site_label
_atom_site_type_symbol
_atom_site_fract_x
_atom_site_fract_y
_atom_site_fract_z
O1	O	1.004082	0.068737	0.095692
O2	O	1.504082	0.568737	0.595692
O3	O	0.783703	0.068741	0.108149
O4	O	1.283703	0.568741	0.608149
O5	O	0.900118	0.068732	-0.008269
O6	O	1.400118	0.568732	0.491731
O7	O	0.887666	0.068747	0.212110
O8	O	1.387666	0.568747	0.712110
O9	O	0.900102	-0.068761	-0.008277
O10	O	1.400102	0.431239	0.491723
O11	O	0.783687	-0.068752	0.108141
O12	O	1.283687	0.431248	0.608141
O13	O	1.004066	-0.068756	0.095684
O14	O	1.504066	0.431244	0.595684
Cu15	Cu	0.893875	-0.081308	0.101912
Cu16	Cu	1.393875	0.418692	0.601912
Cu17	Cu	0.893894	0.081294	0.101921
Cu18	Cu	1.393894	0.581294	0.601921
O19	O	0.887650	-0.068746	0.212102
O20	O	1.387650	0.431254	0.712102
C21	C	0.755498	-0.000005	0.107700
C22	C	1.255498	0.499995	0.607700
C23	C	0.671479	-0.000003	0.106363
C24	C	1.171479	0.499997	0.606363
C25	C	0.632003	-0.074952	0.105729
C26	C	1.132003	0.425048	0.605729
C27	C	0.553061	-0.074953	0.104461
C28	C	1.053061	0.425047	0.604461
C29	C	0.513595	-0.000004	0.103832
C30	C	1.013595	0.499996	0.603832
C31	C	0.553077	0.074950	0.104464
C32	C	1.053077	0.574950	0.604464
C33	C	0.632019	0.074950	0.105726
C34	C	1.132019	0.574950	0.605726
C35	C	0.234714	0.074951	0.099370
C36	C	0.734714	0.574951	0.599370
C37	C	0.155766	0.074945	0.098110
C38	C	0.655766	0.574945	0.598110
C39	C	0.155755	-0.074952	0.098105
C40	C	0.655755	0.425048	0.598105
C41	C	0.234697	-0.074951	0.099367
C42	C	0.734697	0.425049	0.599367
C43	C	0.274173	0.000002	0.099995
C44	C	0.774173	0.500002	0.599995
C45	C	0.359772	0.000002	0.101369
C46	C	0.859772	0.500002	0.601369
C47	C	0.427997	-0.000004	0.102464
C48	C	0.927997	0.499996	0.602464
N49	N	0.893867	-0.195673	0.101906
N50	N	1.393867	0.304327	0.601906
C51	C	0.945431	-0.238942	0.050377
C52	C	1.445431	0.261058	0.550377
C53	C	0.945435	-0.325489	0.050376
C54	C	1.445435	0.174511	0.550376
C55	C	0.893878	-0.368766	0.101908
C56	C	1.393878	0.131234	0.601908
C57	C	0.842308	-0.325491	0.153439
C58	C	1.342308	0.174509	0.653439
C59	C	0.842301	-0.238946	0.153436
C60	C	1.342301	0.261054	0.653436
C61	C	0.842334	-0.674520	0.153454
C62	C	1.342334	-0.174520	0.653454
C63	C	0.842346	-0.761071	0.153455
C64	C	1.342346	-0.261071	0.653455
C65	C	0.945468	-0.761063	0.050393
C66	C	1.445468	-0.261063	0.550393
C67	C	0.945461	-0.674517	0.050390
C68	C	1.445461	-0.174517	0.550390
C69	C	0.893889	-0.631250	0.101918
C70	C	1.393889	-0.131250	0.601918
C71	C	0.893884	-0.537406	0.101918
C72	C	1.393884	-0.037406	0.601918
C73	C	0.893885	-0.462608	0.101913
C74	C	1.393885	0.037392	0.601913
C75	C	1.032271	-0.000008	0.096133
C76	C	1.532271	0.499992	0.596133
C77	C	1.116289	-0.000004	0.097470
C78	C	1.616289	0.499996	0.597470
C79	C	0.899664	-0.000015	-0.036470
C80	C	1.399664	0.499985	0.463530
C81	C	0.898326	-0.000015	-0.120488
C82	C	1.398326	0.499985	0.379512
N83	N	0.893907	0.195659	0.101921
N84	N	1.393907	0.695659	0.601921
C85	C	0.966659	-0.000018	-0.169110
C86	C	1.466659	0.499982	0.330890
C87	C	0.965397	-0.000010	-0.248054
C88	C	1.465397	0.499990	0.251946
C89	C	0.895800	-0.000006	-0.278373
C90	C	1.395800	0.499994	0.221627
C91	C	0.827461	-0.000001	-0.229744
C92	C	1.327461	0.499999	0.270256
C93	C	0.828724	-0.000003	-0.150803
C94	C	1.328724	0.499997	0.349197
C95	C	0.822366	0.000005	-0.548107
C96	C	1.322366	0.500005	-0.048107
C97	C	0.821108	0.000004	-0.627055
C98	C	1.321108	0.500004	-0.127055
C99	C	0.959039	-0.000002	-0.645358
C100	C	1.459039	0.499998	-0.145358
C101	C	0.960302	-0.000003	-0.566417
C102	C	1.460302	0.499997	-0.066417
C103	C	0.891963	0.000006	-0.517795
C104	C	1.391963	0.500006	-0.017795
C105	C	0.893333	-0.000000	-0.432196
C106	C	1.393333	0.500000	0.067804
C107	C	0.894430	-0.000006	-0.363971
C108	C	1.394430	0.499994	0.136029
C109	C	0.888104	0.000002	0.240303
C110	C	1.388104	0.500002	0.740303
C111	C	0.889443	0.000008	0.324321
C112	C	1.389443	0.500008	0.824321
H113	H	0.664159	0.135981	0.106244
H114	H	1.164159	0.635981	0.606244
H115	H	0.987418	-0.203711	0.008416
H116	H	1.487418	0.296289	0.508416
Br117	Br	0.772371	-0.819805	0.223397
Br118	Br	1.272371	-0.319805	0.723397
H119	H	0.987422	-0.360718	0.008417
H120	H	1.487422	0.139282	0.508417
Br121	Br	1.015460	-0.819786	-0.019541
Br122	Br	1.515460	-0.319786	0.480459
H123	H	0.266845	0.135983	0.099879
H124	H	0.766845	0.635983	0.599879
H125	H	0.987446	-0.639284	0.008430
H126	H	1.487446	-0.139284	0.508430
H127	H	0.770794	0.000007	-0.254436
H128	H	1.270794	0.500007	0.245564
Br129	Br	0.772347	-0.615805	0.223384
Br130	Br	1.272347	-0.115805	0.723384
H131	H	0.800325	-0.360733	0.195395
H132	H	1.300325	0.139267	0.695395
Br133	Br	1.054757	-0.000008	-0.525273
Br134	Br	1.554757	0.499992	-0.025273
H135	H	0.520938	0.135974	0.103946
H136	H	1.020938	0.635974	0.603946
Br137	Br	0.735982	0.000007	-0.084813
Br138	Br	1.235982	0.500007	0.415187
Br139	Br	1.051786	-0.000014	-0.711349
Br140	Br	1.551786	0.499986	-0.211349
Br141	Br	1.058140	-0.000013	-0.314039
Br142	Br	1.558140	0.499987	0.185961
Br143	Br	0.685555	-0.176673	0.106590
Br144	Br	1.185555	0.323327	0.606590
Br145	Br	0.726649	0.000009	-0.668202
Br146	Br	1.226649	0.500009	-0.168202
Br147	Br	0.772313	-0.180224	0.223366
Br148	Br	1.272313	0.319776	0.723366
H149	H	1.023333	-0.000026	-0.144431
H150	H	1.523333	0.499974	0.355569
H151	H	0.520924	-0.135983	0.103932
H152	H	1.020924	0.364017	0.603932
Br153	Br	0.288253	-0.176671	0.100228
Br154	Br	0.788253	0.323329	0.600228
H155	H	0.766721	0.000013	-0.508528
H156	H	1.266721	0.500013	-0.008528
Br157	Br	0.102205	0.176668	0.097257
Br158	Br	0.602205	0.676668	0.597257
Br159	Br	0.102178	-0.176677	0.097251
Br160	Br	0.602178	0.323323	0.597251
