data_functionalizedCrystal
_audit_creation_method	'MofGen! by Chris Wilmer'
_symmetry_space_group_name_H-M	'P1'
_symmetry_Int_Tables_number	1
_symmetry_cell_setting	triclinic
loop_
_symmetry_equiv_pos_as_xyz
  x,y,z
_cell_length_a	18.215407
_cell_length_b	12.759399
_cell_length_c	12.759393
_cell_angle_alpha	89.969094
_cell_angle_beta	89.976349
_cell_angle_gamma	90.015037
loop_
_atom_site_label
_atom_site_type_symbol
_atom_site_fract_x
_atom_site_fract_y
_atom_site_fract_z
Zn1	Zn	-1.125144	0.418218	0.594093
Zn2	Zn	-1.125067	0.593933	0.418412
Zn3	Zn	-1.002070	0.418269	0.418420
Zn4	Zn	-1.002064	0.593855	0.594041
O5	O	-1.063586	0.506069	0.506242
O6	O	-1.228118	0.441538	0.570807
O7	O	-1.108722	0.570685	0.271392
O8	O	-1.018431	0.271241	0.441749
O9	O	-1.228061	0.570636	0.441735
O10	O	-1.108853	0.271203	0.570815
O11	O	-1.018356	0.441625	0.271398
O12	O	-0.899085	0.441549	0.441698
O13	O	-1.018420	0.570502	0.741069
O14	O	-0.899080	0.570552	0.570726
O15	O	-1.108847	0.441462	0.741107
O16	O	-1.108715	0.740944	0.441684
O17	O	-1.018345	0.740886	0.570718
C18	C	-0.872380	0.506048	0.506208
C19	C	-0.790581	0.506065	0.506218
C20	C	-1.063541	0.779036	0.506218
C21	C	-1.063589	0.895813	0.506243
C22	C	-1.063641	0.505968	0.780275
C23	C	-1.063665	0.505925	0.897052
C24	C	-0.602404	0.573339	0.573315
C25	C	-0.525545	0.573342	0.573327
C26	C	-0.525521	0.438804	0.439172
C27	C	-0.602378	0.438797	0.439166
C28	C	-0.640818	0.506071	0.506236
C29	C	-0.487101	0.506080	0.506254
C30	C	-0.403768	0.506082	0.506266
C31	C	-0.724156	0.506068	0.506226
C32	C	-0.255539	0.506087	0.506271
C33	C	-0.337338	0.506086	0.506272
C34	C	-1.063652	0.232035	0.506289
C35	C	-1.063679	0.115259	0.506309
C36	C	-1.110698	0.950670	0.439131
C37	C	-1.110746	1.060394	0.439166
C38	C	-1.016568	1.060394	0.573427
C39	C	-1.016525	0.950672	0.573397
C40	C	-1.063574	0.506093	0.233274
C41	C	-1.063693	0.505840	0.116498
C42	C	-1.110753	0.438723	0.951935
C43	C	-1.110766	0.438678	1.061660
C44	C	-1.016599	0.573045	1.061607
C45	C	-1.016583	0.573084	0.951885
H46	H	-0.633699	0.628115	0.627931
F47	F	-0.643263	0.367191	0.367773
H48	H	-1.149088	0.384034	0.907294
H49	H	-1.149109	0.383953	1.106341
F50	F	-0.966497	0.644521	1.119973
F51	F	-0.966385	0.892286	0.644835
H52	H	-1.149108	1.105053	0.384519
H53	H	-0.494272	0.628117	0.627951
F54	F	-0.484604	0.367212	0.367794
F55	F	-0.966480	1.118788	0.644892
H56	H	-0.978233	0.627807	0.907197
H57	H	-1.149022	0.906006	0.384452
