data_functionalizedCrystal
_audit_creation_method	'MofGen! by Chris Wilmer'
_symmetry_space_group_name_H-M	'P1'
_symmetry_Int_Tables_number	1
_symmetry_cell_setting	triclinic
loop_
_symmetry_equiv_pos_as_xyz
  x,y,z
_cell_length_a	10.723024
_cell_length_b	9.482900
_cell_length_c	10.723024
_cell_angle_alpha	99.424179
_cell_angle_beta	95.532131
_cell_angle_gamma	99.378782
loop_
_atom_site_label
_atom_site_type_symbol
_atom_site_fract_x
_atom_site_fract_y
_atom_site_fract_z
O1	O	1.676469	0.120884	-0.155656
O2	O	1.313318	0.120889	-0.172409
O3	O	1.503269	0.120879	0.017542
O4	O	1.486518	0.120894	-0.345607
O5	O	1.464687	-0.120912	-0.021197
O6	O	1.274736	-0.120902	-0.211148
O7	O	1.637887	-0.120906	-0.194396
Cu8	Cu	1.452789	-0.142981	-0.206309
Cu9	Cu	1.498416	0.142964	-0.160495
O10	O	1.447936	-0.120896	-0.384347
C11	C	1.247527	-0.000006	-0.190559
C12	C	1.108973	-0.000004	-0.186911
C13	C	1.033992	0.000001	-0.293198
C14	C	0.890788	0.000003	-0.289430
N15	N	1.420706	-0.344100	-0.238532
C16	C	1.488945	-0.416303	-0.169993
C17	C	1.462260	-0.583719	-0.196812
C18	C	1.703678	-0.000009	-0.176245
C19	C	1.842234	-0.000001	-0.179891
N20	N	1.530509	0.344082	-0.128263
C21	C	1.482759	-0.000016	0.044672
C22	C	1.479112	-0.000012	0.183227
C23	C	1.585399	-0.000012	0.258210
C24	C	1.581632	-0.000009	0.401414
C25	C	1.468446	-0.000002	0.588523
C26	C	1.472093	-0.000006	0.449968
H27	H	1.067156	0.000029	-0.093120
O28	O	1.367328	0.000187	0.233287
C29	C	1.378621	0.125435	0.327812
H30	H	1.483392	0.167183	0.365946
H31	H	1.337827	0.213120	0.284887
C32	C	1.175852	0.036127	0.390702
C33	C	1.304533	0.087396	0.437547
H34	H	1.130147	0.012667	0.458389
H35	H	1.168240	-0.048253	0.327015
H36	H	1.141874	0.109207	0.354931
H37	H	1.338512	0.014310	0.473302
H38	H	1.312149	0.171763	0.501242
O39	O	1.582376	-0.342391	-0.076384
C40	C	1.700273	-0.379464	-0.103410
H41	H	1.683091	-0.490004	-0.169138
H42	H	1.753168	-0.293820	-0.152097
C43	C	1.801916	-0.250566	0.102354
C44	C	1.780813	-0.386339	0.021634
H45	H	1.851601	-0.254801	0.179486
H46	H	1.722488	-0.225584	0.120561
H47	H	1.845990	-0.179210	0.061766
H48	H	1.736726	-0.457689	0.062216
H49	H	1.860235	-0.411333	0.003436
H50	H	0.826358	0.000014	-0.380419
H51	H	1.384073	-0.645839	-0.275347
O52	O	1.623840	-0.581834	-0.034617
C53	C	1.741879	-0.618651	-0.061423
H54	H	1.724938	-0.729245	-0.127040
H55	H	1.794699	-0.532990	-0.110146
C56	C	1.843159	-0.489352	0.144342
C57	C	1.822352	-0.625192	0.063759
H58	H	1.892802	-0.493381	0.221559
H59	H	1.763635	-0.464543	0.162401
H60	H	1.887171	-0.417983	0.103725
H61	H	1.778327	-0.696555	0.104370
H62	H	1.901871	-0.650014	0.045710
O63	O	1.697362	0.000248	0.208427
C64	C	1.785641	0.125455	0.268694
H65	H	1.732265	0.212978	0.310464
H66	H	1.850046	0.097143	0.348310
C67	C	1.932733	0.074746	0.119249
C68	C	1.867174	0.182247	0.170543
H69	H	1.983031	0.109776	0.058708
H70	H	1.873260	-0.009612	0.078649
H71	H	1.986393	0.051162	0.185607
H72	H	1.813504	0.205816	0.104187
H73	H	1.926640	0.266611	0.211130
O74	O	1.327359	-0.418364	-0.332078
C75	C	1.235615	-0.506400	-0.278805
H76	H	1.280634	-0.529043	-0.185106
H77	H	1.152552	-0.447848	-0.260414
C78	C	1.131498	-0.623262	-0.487112
C79	C	1.186794	-0.651083	-0.372034
H80	H	1.101377	-0.712506	-0.544621
H81	H	1.193304	-0.563947	-0.523004
H82	H	1.062286	-0.574465	-0.471769
H83	H	1.256014	-0.699862	-0.387376
H84	H	1.124998	-0.710409	-0.336146
H85	H	1.075813	-0.000003	-0.386985
H86	H	1.381096	-0.000015	0.385542
H87	H	0.906660	0.000004	-0.088895
H88	H	1.672622	-0.000016	0.465845
