data_functionalizedCrystal
_audit_creation_method	'MofGen! by Chris Wilmer'
_symmetry_space_group_name_H-M	'P1'
_symmetry_Int_Tables_number	1
_symmetry_cell_setting	triclinic
loop_
_symmetry_equiv_pos_as_xyz
  x,y,z
_cell_length_a	15.297328
_cell_length_b	15.298073
_cell_length_c	15.298431
_cell_angle_alpha	91.583285
_cell_angle_beta	91.658564
_cell_angle_gamma	69.203409
loop_
_atom_site_label
_atom_site_type_symbol
_atom_site_fract_x
_atom_site_fract_y
_atom_site_fract_z
Zn1	Zn	-0.016759	-1.250197	0.729792
Zn2	Zn	-0.190381	-1.241197	0.607394
Zn3	Zn	-0.067996	-1.118943	0.565047
Zn4	Zn	-0.199140	-1.067721	0.729638
O5	O	-0.118569	-1.169515	0.657968
O6	O	-0.014681	-1.376533	0.731343
O7	O	-0.191923	-1.242650	0.481671
O8	O	0.066346	-1.161558	0.569244
O9	O	-0.142240	-1.369921	0.641418
O10	O	0.103990	-1.257989	0.690281
O11	O	-0.102008	-1.152831	0.450559
O12	O	-0.110502	-0.984619	0.569094
O13	O	-0.157170	-1.074257	0.849764
O14	O	-0.206853	-0.946986	0.690017
O15	O	-0.023175	-1.208321	0.849878
O16	O	-0.319088	-1.192982	0.641268
O17	O	-0.325524	-1.065530	0.731080
C18	C	-0.165188	-0.932735	0.624944
C19	C	-0.185151	-0.831432	0.610840
C20	C	0.023916	-0.559527	0.758759
C21	C	0.042671	-0.654704	0.772016
C22	C	-0.014283	-0.698891	0.731723
C23	C	-0.089994	-0.647891	0.678171
C24	C	-0.108755	-0.552702	0.664918
C25	C	-0.146954	-0.692066	0.637882
C26	C	-0.222666	-0.641066	0.584330
C27	C	-0.241422	-0.545887	0.571079
C28	C	-0.184469	-0.501700	0.611372
C29	C	-0.128194	-0.787255	0.651135
C30	C	-0.260865	-0.780430	0.557294
C31	C	-0.279619	-0.685253	0.544037
C32	C	-0.355369	-1.122743	0.690774
C33	C	-0.456653	-1.102813	0.704849
C34	C	-0.507629	-1.027050	0.758184
C35	C	-0.602788	-1.008328	0.771417
C36	C	-0.646978	-1.065372	0.731322
C37	C	-0.596000	-1.141141	0.677991
C38	C	-0.500833	-1.159860	0.664751
C39	C	-0.640182	-1.198182	0.637889
C40	C	-0.589204	-1.273951	0.584558
C41	C	-0.494047	-1.292667	0.571321
C42	C	-0.449857	-1.235623	0.611416
C43	C	-0.735348	-1.179462	0.651129
C44	C	-0.728553	-1.312272	0.557696
C45	C	-0.633394	-1.330994	0.544463
C46	C	0.119163	-1.216491	0.625056
C47	C	0.220471	-1.236509	0.611031
C48	C	-0.085434	-1.136579	0.881834
C49	C	-0.071314	-1.122544	0.977232
C50	C	-0.071762	-0.407221	0.691112
C51	C	-0.051798	-0.508525	0.705213
C52	C	-0.151499	-1.202387	0.434971
C53	C	-0.165327	-1.216650	0.339563
C54	C	-0.017864	-1.069185	1.005844
C55	C	-0.004601	-1.055987	1.095474
C56	C	-0.044781	-1.096151	1.156501
C57	C	-0.098227	-1.149517	1.127889
C58	C	-0.111497	-1.162711	1.038250
C59	C	-0.138414	-1.189677	1.188906
C60	C	-0.191861	-1.243042	1.160294
C61	C	-0.205128	-1.256234	1.070664
C62	C	-0.164948	-1.216070	1.009637
C63	C	-0.125144	-1.176483	1.278545
C64	C	-0.218778	-1.270008	1.310950
C65	C	-0.232041	-1.283207	1.221320
H66	H	-0.303078	-0.504362	0.527481
Cl67	Cl	-0.784101	-1.383984	0.507281
H68	H	0.014839	-1.036483	0.956150
Cl69	Cl	-0.057954	-1.109400	1.314503
H70	H	-0.033978	-1.085403	1.229480
Cl71	Cl	0.062544	-0.988860	1.131438
Cl72	Cl	0.095496	-0.503970	0.809419
H73	H	-0.248662	-1.299674	1.047372
H74	H	-0.275558	-1.326657	1.198011
Cl75	Cl	-0.429964	-1.387916	0.504273
Cl76	Cl	-0.452073	-0.955346	0.808580
Cl77	Cl	-0.330193	-1.259234	0.594881
Cl78	Cl	-0.569297	-1.426243	0.477420
H79	H	-0.175740	-1.226817	0.936652
H80	H	-0.776844	-1.117774	0.694555
H81	H	-0.251493	-1.302717	1.360639
H82	H	-0.066548	-0.828771	0.694736
H83	H	0.000994	-0.776390	0.742517
H84	H	0.104313	-0.696221	0.815621
H85	H	-0.307245	-0.816405	0.524488
Cl86	Cl	-0.208041	-0.382044	0.594706
H87	H	-0.724460	-1.050125	0.742100
H88	H	-0.644290	-0.946632	0.814832
Cl89	Cl	-0.374797	-0.621127	0.476717
