data_functionalizedCrystal
_audit_creation_method	'MofGen! by Chris Wilmer'
_symmetry_space_group_name_H-M	'P1'
_symmetry_Int_Tables_number	1
_symmetry_cell_setting	triclinic
loop_
_symmetry_equiv_pos_as_xyz
  x,y,z
_cell_length_a	11.792241
_cell_length_b	8.965430
_cell_length_c	11.792241
_cell_angle_alpha	89.999725
_cell_angle_beta	95.806584
_cell_angle_gamma	90.001014
loop_
_atom_site_label
_atom_site_type_symbol
_atom_site_fract_x
_atom_site_fract_y
_atom_site_fract_z
O1	O	-1.506909	0.123873	0.155559
O2	O	-1.176567	0.123912	0.171592
O3	O	-1.349754	0.123881	-0.001595
O4	O	-1.333722	0.123904	0.328746
O5	O	-1.349740	-0.124198	-0.001583
O6	O	-1.176553	-0.124166	0.171604
O7	O	-1.506894	-0.124206	0.155571
Cu8	Cu	-1.341722	-0.146838	0.163588
Cu9	Cu	-1.341739	0.146544	0.163575
O10	O	-1.333707	-0.124175	0.328758
C11	C	-1.134269	-0.000122	0.170591
C12	C	-1.008255	-0.000107	0.167576
C13	C	-0.777543	-0.000147	0.162034
C14	C	-0.905928	-0.000125	0.165113
N15	N	-1.341718	-0.353187	0.163597
C16	C	-1.261600	-0.450478	0.243664
C17	C	-1.364301	-0.549903	0.266319
C18	C	-1.239061	-0.549890	0.140952
C19	C	-1.444471	-0.450422	0.186304
C20	C	-1.319163	-0.450401	0.060892
C21	C	-1.421938	-0.549780	0.083504
C22	C	-0.549192	-0.000165	0.156572
C23	C	-0.675206	-0.000159	0.159587
C24	C	-1.348740	-0.000158	-0.043880
C25	C	-1.345726	-0.000156	-0.169894
N26	N	-1.341752	0.352893	0.163557
C27	C	-1.340183	-0.000130	-0.400606
C28	C	-1.343262	-0.000144	-0.272221
C29	C	-1.334721	-0.000133	0.371043
C30	C	-1.337736	-0.000125	0.497057
H31	H	-1.193909	-0.406877	0.311436
F32	F	-1.125569	-0.607002	0.115937
H33	H	-1.383402	-0.593608	0.353157
F34	F	-1.294156	-0.393226	-0.052577
H35	H	-1.531321	-0.406914	0.205544
H36	H	-1.489780	-0.593108	0.015773
