data_functionalizedCrystal
_audit_creation_method	'MofGen! by Chris Wilmer'
_symmetry_space_group_name_H-M	'P1'
_symmetry_Int_Tables_number	1
_symmetry_cell_setting	triclinic
loop_
_symmetry_equiv_pos_as_xyz
  x,y,z
_cell_length_a	19.188930
_cell_length_b	23.532407
_cell_length_c	17.666332
_cell_angle_alpha	89.988854
_cell_angle_beta	89.976766
_cell_angle_gamma	82.996728
loop_
_atom_site_label
_atom_site_type_symbol
_atom_site_fract_x
_atom_site_fract_y
_atom_site_fract_z
O1	O	0.925923	0.071102	-0.063199
O2	O	1.425923	0.571102	0.436801
O3	O	0.722581	0.080673	-0.063148
O4	O	1.222581	0.580673	0.436852
O5	O	0.830384	-0.007031	-0.063161
O6	O	1.330384	0.492969	0.436839
O7	O	0.818120	0.158806	-0.063186
O8	O	1.318120	0.658806	0.436814
O9	O	0.830365	-0.007036	0.062735
O10	O	1.330365	0.492964	0.562735
O11	O	0.722562	0.080669	0.062748
O12	O	1.222562	0.580669	0.562748
O13	O	0.925904	0.071097	0.062697
O14	O	1.425904	0.571097	0.562697
Cu15	Cu	0.824231	0.075883	0.074218
Cu16	Cu	1.324231	0.575883	0.574218
Cu17	Cu	0.824253	0.075888	-0.074669
Cu18	Cu	1.324253	0.575888	0.425331
O19	O	0.818101	0.158802	0.062711
O20	O	1.318101	0.658802	0.562711
C21	C	0.696561	0.080361	-0.000193
C22	C	1.196561	0.580361	0.499807
C23	C	0.619060	0.079431	-0.000173
C24	C	1.119060	0.579431	0.499827
C25	C	0.573972	0.130893	-0.000193
C26	C	1.073972	0.630893	0.499807
C27	C	0.501151	0.130019	-0.000201
C28	C	1.001151	0.630019	0.499799
C29	C	0.473421	0.077680	-0.000205
C30	C	0.973421	0.577680	0.499795
C31	C	0.518519	0.026211	-0.000181
C32	C	1.018519	0.526211	0.499819
C33	C	0.591339	0.027086	-0.000165
C34	C	1.091339	0.527086	0.499835
N35	N	0.365575	0.037674	-0.043078
N36	N	0.865575	0.537674	0.456922
N37	N	0.296399	0.036846	-0.043094
N38	N	0.796399	0.536846	0.456906
C39	C	0.254021	0.075038	-0.000251
C40	C	0.754021	0.575038	0.499749
N41	N	0.283431	0.114099	0.042600
N42	N	0.783431	0.614099	0.542600
N43	N	0.352613	0.114929	0.042614
N44	N	0.852613	0.614929	0.542614
C45	C	0.394462	0.076724	-0.000222
C46	C	0.894462	0.576724	0.499778
C47	C	0.129971	0.125556	-0.000278
C48	C	0.629971	0.625556	0.499722
C49	C	0.057149	0.124680	-0.000282
C50	C	0.557149	0.624680	0.499718
C51	C	0.074520	0.020870	-0.000269
C52	C	0.574520	0.520870	0.499731
C53	C	0.147340	0.021748	-0.000258
C54	C	0.647340	0.521748	0.499742
C55	C	0.175061	0.074092	-0.000266
C56	C	0.675061	0.574092	0.499734
C57	C	0.830062	-0.028250	-0.000211
C58	C	1.330062	0.471750	0.499789
C59	C	0.829123	-0.091469	-0.000205
C60	C	1.329123	0.408531	0.499795
C61	C	0.887029	-0.490449	-0.000261
C62	C	1.387029	0.009551	0.499739
C63	C	0.886157	-0.549851	-0.000267
C64	C	1.386157	-0.049851	0.499733
O65	O	0.939837	-0.586482	-0.000308
O66	O	1.439837	-0.086482	0.499692
N67	N	0.822068	-0.572613	-0.000250
N68	N	1.322068	-0.072613	0.499750
C69	C	0.758848	-0.535970	-0.000236
C70	C	1.258848	-0.035970	0.499764
O71	O	0.704255	-0.560786	-0.000223
O72	O	1.204255	-0.060786	0.499777
C73	C	0.759721	-0.476569	-0.000235
C74	C	1.259721	0.023431	0.499765
C75	C	0.823814	-0.453810	-0.000244
C76	C	1.323814	0.046190	0.499756
C77	C	0.951117	-0.467690	-0.000271
C78	C	1.451117	0.032310	0.499729
C79	C	0.951989	-0.408292	-0.000264
C80	C	1.451989	0.091708	0.499736
C81	C	0.888773	-0.371653	-0.000247
C82	C	1.388773	0.128347	0.499753
C83	C	0.824685	-0.394412	-0.000237
C84	C	1.324685	0.105588	0.499763
C85	C	0.696501	-0.439927	-0.000226
C86	C	1.196501	0.060073	0.499774
C87	C	0.697379	-0.380523	-0.000227
C88	C	1.197379	0.119477	0.499773
C89	C	0.761472	-0.357764	-0.000236
C90	C	1.261472	0.142236	0.499764
C91	C	0.762342	-0.298376	-0.000214
C92	C	1.262342	0.201624	0.499786
N93	N	0.826430	-0.275614	-0.000230
N94	N	1.326430	0.224386	0.499770
C95	C	0.889646	-0.312252	-0.000247
C96	C	1.389646	0.187748	0.499753
C97	C	0.757019	-0.660717	-0.000237
C98	C	1.257019	-0.160717	0.499763
C99	C	0.756146	-0.720116	-0.000232
C100	C	1.256146	-0.220116	0.499768
C101	C	0.883455	-0.733993	-0.000264
C102	C	1.383455	-0.233993	0.499736
C103	C	0.884328	-0.674592	-0.000264
C104	C	1.384328	-0.174592	0.499736
C105	C	0.821108	-0.637954	-0.000254
C106	C	1.321108	-0.137954	0.499746
C107	C	0.891472	-0.187512	-0.000232
C108	C	1.391472	0.312488	0.499768
C109	C	0.892339	-0.128108	-0.000222
C110	C	1.392339	0.371892	0.499778
C111	C	0.765029	-0.114236	-0.000193
C112	C	1.265029	0.385764	0.499807
C113	C	0.764163	-0.173634	-0.000199
C114	C	1.264163	0.326366	0.499801
C115	C	0.827390	-0.210272	-0.000221
C116	C	1.327390	0.289728	0.499779
O117	O	0.708690	-0.261710	-0.000176
O118	O	1.208690	0.238290	0.499824
O119	O	0.944230	-0.287428	-0.000270
O120	O	1.444230	0.212572	0.499730
C121	C	0.951923	0.071410	-0.000259
C122	C	1.451923	0.571410	0.499741
C123	C	1.029425	0.072340	-0.000284
C124	C	1.529425	0.572340	0.499716
C125	C	0.818423	0.180021	-0.000241
C126	C	1.318423	0.680021	0.499759
C127	C	0.819362	0.243240	-0.000252
C128	C	1.319362	0.743240	0.499748
N129	N	0.824221	0.075878	0.178938
N130	N	1.324221	0.575878	0.678938
N131	N	0.824270	0.075888	-0.179389
N132	N	1.324270	0.575888	0.320611
C133	C	0.871971	0.037062	0.218542
C134	C	1.371971	0.537062	0.718542
C135	C	0.871975	0.037059	0.297789
C136	C	1.371975	0.537059	0.797789
C137	C	0.824236	0.075883	0.337430
C138	C	1.324236	0.575883	0.837430
C139	C	0.776476	0.114702	0.297816
C140	C	1.276476	0.614702	0.797816
C141	C	0.776469	0.114700	0.218570
C142	C	1.276469	0.614700	0.718570
N143	N	0.814998	0.126298	0.461842
N144	N	1.314998	0.626298	0.961842
N145	N	0.815010	0.126298	0.537123
N146	N	1.315010	0.626298	1.037123
C147	C	0.824254	0.075891	0.576194
C148	C	1.324254	0.575891	1.076194
N149	N	0.833500	0.025481	0.537141
N150	N	1.333500	0.525481	1.037141
N151	N	0.833493	0.025482	0.461853
N152	N	1.333493	0.525482	0.961853
C153	C	0.824238	0.075889	0.423359
C154	C	1.324238	0.575889	0.923359
C155	C	0.872011	0.037068	0.701727
C156	C	1.372011	0.537068	1.201727
C157	C	0.872010	0.037064	0.780976
C158	C	1.372010	0.537064	1.280976
C159	C	0.776515	0.114713	0.781002
C160	C	1.276515	0.614713	1.281002
C161	C	0.776512	0.114711	0.701754
C162	C	1.276512	0.614711	1.201754
C163	C	0.824264	0.075889	0.662122
C164	C	1.324264	0.575889	1.162122
H165	H	0.464433	0.171927	-0.000215
H166	H	0.964433	0.671927	0.499785
H167	H	0.910860	0.005449	0.330041
H168	H	1.410860	0.505449	0.830041
C169	C	0.952994	-0.774301	-0.000288
C170	C	1.452994	-0.274301	0.499712
H171	H	0.991292	-0.752243	-0.000291
H172	H	1.491292	-0.252243	0.499709
H173	H	0.955301	-0.797755	-0.044193
H174	H	1.455301	-0.297755	0.455807
H175	H	0.955290	-0.797768	0.043618
H176	H	1.455290	-0.297768	0.543618
H177	H	0.152543	0.168178	-0.000274
H178	H	0.652543	0.668178	0.499726
C179	C	0.007549	0.181289	-0.000304
C180	C	0.507549	0.681289	0.499696
H181	H	-0.039791	0.173273	-0.000304
H182	H	0.460209	0.673273	0.499696
H183	H	0.015937	0.202757	-0.044210
H184	H	0.515937	0.702757	0.455790
H185	H	0.015892	0.202760	0.043601
H186	H	0.515892	0.702760	0.543601
H187	H	0.645897	-0.350694	-0.000220
H188	H	1.145897	0.149306	0.499780
C189	C	0.724001	0.157419	0.658184
C190	C	1.224001	0.657419	1.158184
H191	H	0.730832	0.151857	0.605311
H192	H	1.230832	0.651857	1.105311
H193	H	0.731324	0.195412	0.671159
H194	H	1.231324	0.695412	1.171159
H195	H	0.677444	0.151330	0.671194
H196	H	1.177444	0.651330	1.171194
C197	C	0.044026	-0.036702	-0.000278
C198	C	0.544026	0.463298	0.499722
H199	H	-0.005801	-0.029854	-0.000296
H200	H	0.494199	0.470146	0.499704
H201	H	0.059504	-0.057889	0.043627
H202	H	0.559504	0.442111	0.543627
H203	H	0.059552	-0.057878	-0.044184
H204	H	0.559552	0.442122	0.455816
C205	C	0.695498	-0.073926	-0.000179
C206	C	1.195498	0.426074	0.499821
H207	H	0.705202	-0.035291	-0.000186
H208	H	1.205202	0.464709	0.499814
H209	H	0.669186	-0.080812	0.043725
H210	H	1.169186	0.419188	0.543725
H211	H	0.669213	-0.080801	-0.044086
H212	H	1.169213	0.419199	0.455914
C213	C	0.924489	-0.005646	0.174950
C214	C	1.424489	0.494354	0.674950
H215	H	0.952923	-0.028768	0.209891
H216	H	1.452923	0.471232	0.709891
H217	H	0.953405	0.014779	0.144010
H218	H	1.453405	0.514779	0.644010
H219	H	0.899531	-0.029307	0.144062
H220	H	1.399531	0.470693	0.644062
C221	C	0.924524	-0.005639	0.658125
C222	C	1.424524	0.494361	1.158125
H223	H	0.917687	-0.000077	0.605256
H224	H	1.417687	0.499923	1.105256
H225	H	0.917206	-0.043633	0.671127
H226	H	1.417206	0.456367	1.171127
H227	H	0.971081	0.000452	0.671085
H228	H	1.471081	0.500452	1.171085
C229	C	1.022491	-0.383265	-0.000288
C230	C	1.522491	0.116735	0.499712
H231	H	1.060010	-0.413599	-0.000308
H232	H	1.560010	0.086401	0.499692
H233	H	1.025483	-0.360386	0.043612
H234	H	1.525483	0.139614	0.543612
H235	H	1.025483	-0.360378	-0.044200
H236	H	1.525483	0.139622	0.455800
H237	H	0.705535	-0.630888	-0.000222
H238	H	1.205535	-0.130888	0.499778
C239	C	0.196939	-0.034861	-0.000248
C240	C	0.696939	0.465139	0.499752
H241	H	0.169997	-0.066158	-0.000258
H242	H	0.669997	0.433842	0.499742
H243	H	0.225685	-0.036680	0.043659
H244	H	0.725685	0.463320	0.543659
H245	H	0.225728	-0.036673	-0.044152
H246	H	0.725728	0.463327	0.455848
H247	H	0.910892	0.005452	0.813222
H248	H	1.410892	0.505452	1.313222
H249	H	0.596537	0.173516	-0.000201
H250	H	1.096537	0.673516	0.499799
C251	C	0.693663	-0.198671	-0.000191
C252	C	1.193663	0.301329	0.499809
H253	H	0.656140	-0.168340	-0.000185
H254	H	1.156140	0.331660	0.499815
H255	H	0.690663	-0.221568	0.043704
H256	H	1.190663	0.278432	0.543704
H257	H	0.690689	-0.221540	-0.044108
H258	H	1.190689	0.278460	0.455892
C259	C	0.723966	0.157409	0.341418
C260	C	1.223966	0.657409	0.841418
H261	H	0.730814	0.151855	0.394286
H262	H	1.230814	0.651855	0.894286
H263	H	0.677412	0.151318	0.328461
H264	H	1.177412	0.651318	0.828461
H265	H	0.731286	0.195404	0.328412
H266	H	1.231286	0.695404	0.828412
H267	H	0.942958	-0.217335	-0.000252
H268	H	1.442958	0.282665	0.499748
C269	C	0.685644	-0.745145	-0.000216
C270	C	1.185644	-0.245145	0.499784
H271	H	0.648124	-0.714812	-0.000211
H272	H	1.148124	-0.214812	0.499789
H273	H	0.682645	-0.768037	0.043684
H274	H	1.182645	-0.268037	0.543684
H275	H	0.682663	-0.768017	-0.044128
H276	H	1.182663	-0.268017	0.455872
C277	C	0.962842	-0.103074	-0.000231
C278	C	1.462842	0.396926	0.499769
H279	H	0.954312	-0.062449	-0.000217
H280	H	1.454312	0.437551	0.499783
H281	H	0.988861	-0.115652	-0.044140
H282	H	1.488861	0.384348	0.455860
H283	H	0.988842	-0.115671	0.043672
H284	H	1.488842	0.384329	0.543672
C285	C	1.020661	-0.507984	-0.000283
C286	C	1.520661	-0.007984	0.499717
H287	H	1.058947	-0.485913	-0.000283
H288	H	1.558947	0.014087	0.499717
H289	H	1.022985	-0.531443	-0.044183
H290	H	1.522985	-0.031443	0.455817
H291	H	1.022960	-0.531447	0.043628
H292	H	1.522960	-0.031447	0.543628
H293	H	0.737642	0.146321	0.813277
H294	H	1.237642	0.646321	1.313277
C295	C	0.954829	-0.649563	-0.000281
C296	C	1.454829	-0.149563	0.499719
H297	H	0.992350	-0.679896	-0.000295
H298	H	1.492350	-0.179896	0.499705
H299	H	0.957814	-0.626684	0.043619
H300	H	1.457814	-0.126684	0.543619
H301	H	0.957825	-0.626677	-0.044192
H302	H	1.457825	-0.126677	0.455808
C303	C	0.625998	-0.464949	-0.000223
C304	C	1.125998	0.035051	0.499777
H305	H	0.588480	-0.434613	-0.000223
H306	H	1.088480	0.065387	0.499777
H307	H	0.622991	-0.487840	0.043676
H308	H	1.122991	0.012160	0.543676
H309	H	0.623019	-0.487822	-0.044135
H310	H	1.123019	0.012178	0.455865
C311	C	0.723946	0.157404	0.175004
C312	C	1.223946	0.657404	0.675004
H313	H	0.695516	0.180529	0.209960
H314	H	1.195516	0.680529	0.709960
H315	H	0.695026	0.136977	0.144108
H316	H	1.195026	0.636977	0.644108
H317	H	0.748900	0.181063	0.144074
H318	H	1.248900	0.681063	0.644074
H319	H	0.628050	-0.014822	-0.000150
H320	H	1.128050	0.485178	0.499850
C321	C	0.488020	-0.031361	-0.000190
C322	C	0.988020	0.468639	0.499810
H323	H	0.438193	-0.024512	-0.000210
H324	H	0.938193	0.475488	0.499790
H325	H	0.503495	-0.052547	0.043718
H326	H	1.003495	0.447453	0.543718
H327	H	0.503548	-0.052539	-0.044093
H328	H	1.003548	0.447461	0.455907
