data_functionalizedCrystal
_audit_creation_method	'MofGen! by Chris Wilmer'
_symmetry_space_group_name_H-M	'P1'
_symmetry_Int_Tables_number	1
_symmetry_cell_setting	triclinic
loop_
_symmetry_equiv_pos_as_xyz
  x,y,z
_cell_length_a	23.532361
_cell_length_b	11.026607
_cell_length_c	9.482944
_cell_angle_alpha	81.873049
_cell_angle_beta	79.476730
_cell_angle_gamma	95.707842
loop_
_atom_site_label
_atom_site_type_symbol
_atom_site_fract_x
_atom_site_fract_y
_atom_site_fract_z
O1	O	-0.780388	-0.163580	0.120742
O2	O	-0.616769	-0.184931	0.120776
O3	O	-0.685018	0.002229	0.120757
O4	O	-0.712140	-0.350741	0.120762
O5	O	-0.665654	0.035730	-0.121032
O6	O	-0.597405	-0.151430	-0.121013
O7	O	-0.761025	-0.130079	-0.121047
Cu8	Cu	-0.677447	-0.137696	-0.143107
Cu9	Cu	-0.700347	-0.177315	0.142837
O10	O	-0.692776	-0.317240	-0.121027
C11	C	-0.585815	-0.167647	-0.000114
C12	C	-0.522428	-0.166042	-0.000101
C13	C	-0.670333	0.064128	-0.000135
C14	C	-0.655418	0.198656	-0.000127
C15	C	-0.791979	-0.147364	-0.000153
C16	C	-0.855366	-0.148971	-0.000157
C17	C	-0.259000	-0.177272	0.131690
C18	C	-0.318560	-0.178794	0.131693
O19	O	-0.358341	-0.195069	0.243781
N20	N	-0.337791	-0.161301	-0.000107
C21	C	-0.297458	-0.142272	-0.131919
O22	O	-0.319285	-0.127532	-0.244024
C23	C	-0.237899	-0.140742	-0.131921
C24	C	-0.218672	-0.158249	-0.000112
C25	C	-0.239772	-0.194775	0.263487
C26	C	-0.180216	-0.193256	0.263483
C27	C	-0.139888	-0.174233	0.131681
C28	C	-0.159116	-0.156729	-0.000116
C29	C	-0.197567	-0.121705	-0.263731
C30	C	-0.138004	-0.120175	-0.263722
C31	C	-0.118777	-0.137682	-0.131913
C32	C	-0.059232	-0.136186	-0.131922
N33	N	-0.040001	-0.153679	-0.000123
C34	C	-0.080329	-0.172702	0.131679
C35	C	-0.422537	-0.145486	-0.131904
C36	C	-0.482095	-0.147024	-0.131904
C37	C	-0.503193	-0.183543	0.131709
C38	C	-0.443634	-0.182013	0.131707
C39	C	-0.403306	-0.162978	-0.000104
C40	C	0.044744	-0.169511	0.131661
C41	C	0.104306	-0.167994	0.131645
C42	C	0.125398	-0.131469	-0.131967
C43	C	0.065841	-0.132992	-0.131952
C44	C	0.025515	-0.152010	-0.000126
O45	O	-0.019418	-0.119913	-0.243953
O46	O	-0.058493	-0.187424	0.243766
N47	N	-0.661344	-0.109830	-0.344224
C48	C	-0.707461	-0.379139	-0.000132
C49	C	-0.722377	-0.513668	-0.000131
C50	C	-0.696601	0.272974	-0.000133
C51	C	-0.681187	0.412015	-0.000125
C52	C	-0.695593	-0.169095	-0.416430
C53	C	-0.682199	-0.145898	-0.583845
N54	N	-0.716453	-0.205171	0.343954
H55	H	0.119956	-0.182254	0.238984
N56	N	-0.381353	-0.126046	-0.266569
N57	N	-0.398537	-0.110429	-0.384228
H58	H	-0.369454	-0.096697	-0.479336
H59	H	-0.755694	-0.273086	-0.593929
H60	H	-0.622108	-0.041914	-0.406349
H61	H	-0.164567	-0.207506	0.370815
N62	N	0.003565	-0.188932	0.266327
N63	N	0.020751	-0.204556	0.383984
H64	H	-0.008331	-0.218278	0.479094
H65	H	-0.272602	-0.210263	0.370822
N66	N	-0.632965	-0.060716	-0.661759
N67	N	-0.582819	-0.078463	-0.644893
H68	H	-0.548046	-0.018307	-0.699922
H69	H	-0.427984	-0.196268	0.239037
N70	N	-0.622632	0.461287	-0.000099
N71	N	-0.598638	0.423026	0.101825
H72	H	-0.557284	0.457823	0.101844
H73	H	-0.743271	0.233664	-0.000152
H74	H	-0.769060	0.447013	-0.000032
H75	H	-0.536039	-0.199032	0.239029
N76	N	-0.596870	0.247982	-0.000128
N77	N	-0.569698	0.329322	-0.102042
H78	H	-0.528348	0.364158	-0.102044
N79	N	-0.501723	-0.129170	-0.266556
N80	N	-0.465703	-0.112195	-0.384219
H81	H	-0.479562	-0.099581	-0.479324
N82	N	-0.217198	-0.103782	-0.398368
N83	N	-0.244566	-0.015103	-0.427765
H84	H	-0.258431	-0.002437	-0.522859
H85	H	-0.734832	-0.237002	-0.354305
H86	H	-0.105171	-0.104685	-0.371061
N87	N	0.046205	-0.115171	-0.266600
N88	N	0.082220	-0.098224	-0.384270
H89	H	0.068356	-0.085644	-0.479369
H90	H	0.158244	-0.115986	-0.239276
