data_functionalizedCrystal
_audit_creation_method	'MofGen! by Chris Wilmer'
_symmetry_space_group_name_H-M	'P1'
_symmetry_Int_Tables_number	1
_symmetry_cell_setting	triclinic
loop_
_symmetry_equiv_pos_as_xyz
  x,y,z
_cell_length_a	11.792254
_cell_length_b	17.019294
_cell_length_c	10.868271
_cell_angle_alpha	86.115896
_cell_angle_beta	89.995741
_cell_angle_gamma	83.795489
loop_
_atom_site_label
_atom_site_type_symbol
_atom_site_fract_x
_atom_site_fract_y
_atom_site_fract_z
O1	O	1.505767	0.108168	-0.113780
O2	O	1.839100	0.441501	0.219553
O3	O	2.172434	0.774834	0.552887
O4	O	1.175311	0.119300	-0.114962
O5	O	1.508645	0.452633	0.218371
O6	O	1.841978	0.785967	0.551705
O7	O	1.349758	-0.001059	-0.102202
O8	O	1.683091	0.332274	0.231131
O9	O	2.016424	0.665607	0.564464
O10	O	1.331321	0.228527	-0.126540
O11	O	1.664654	0.561860	0.206793
O12	O	1.997987	0.895194	0.540127
O13	O	1.349743	-0.001064	0.102443
O14	O	1.683077	0.332269	0.435776
O15	O	2.016410	0.665603	0.769110
O16	O	1.175297	0.119295	0.089683
O17	O	1.508630	0.452629	0.423016
O18	O	1.841964	0.785962	0.756350
O19	O	1.505753	0.108163	0.090865
O20	O	1.839086	0.441496	0.424198
O21	O	2.172419	0.774830	0.757532
Zn22	Zn	1.340523	0.113728	0.122766
Zn23	Zn	1.673856	0.447062	0.456099
Zn24	Zn	2.007189	0.780395	0.789433
Zn25	Zn	1.340541	0.113735	-0.146863
Zn26	Zn	1.673875	0.447068	0.186470
Zn27	Zn	2.007208	0.780401	0.519804
O28	O	1.331306	0.228522	0.078105
O29	O	1.664640	0.561856	0.411439
O30	O	1.997973	0.895189	0.744772
C31	C	1.133021	0.118596	-0.012566
C32	C	1.466354	0.451930	0.320768
C33	C	1.799687	0.785263	0.654101
C34	C	1.007030	0.116497	-0.012344
C35	C	1.340363	0.449831	0.320989
C36	C	1.673696	0.783164	0.654323
C37	C	0.904711	0.114792	-0.012168
C38	C	1.238044	0.448125	0.321165
C39	C	1.571378	0.781459	0.654498
C40	C	0.776347	0.112659	-0.011943
C41	C	1.109680	0.445993	0.321390
C42	C	1.443013	0.779326	0.654723
C43	C	1.349051	-0.030454	0.003234
C44	C	1.682385	0.302879	0.336567
C45	C	2.015718	0.636213	0.669900
C46	C	1.346954	-0.118033	0.012510
C47	C	1.680287	0.215300	0.345843
C48	C	2.013621	0.548633	0.679176
C49	C	1.345979	-0.159171	-0.094684
C50	C	1.679313	0.174162	0.238650
C51	C	2.012646	0.507495	0.571983
C52	C	1.344001	-0.241461	-0.085964
C53	C	1.677335	0.091872	0.247369
C54	C	2.010668	0.425206	0.580703
C55	C	1.343006	-0.282612	0.029950
C56	C	1.676340	0.050721	0.363284
C57	C	2.009673	0.384055	0.696617
C58	C	1.343978	-0.241468	0.137152
C59	C	1.677311	0.091865	0.470485
C60	C	2.010645	0.425199	0.803818
C61	C	1.345948	-0.159179	0.128431
C62	C	1.679281	0.174154	0.461764
C63	C	2.012614	0.507488	0.795097
C64	C	1.337051	-0.531071	0.061863
C65	C	1.670385	-0.197737	0.395196
C66	C	2.003718	0.135596	0.728530
C67	C	1.335085	-0.613366	0.070576
C68	C	1.668418	-0.280032	0.403909
C69	C	2.001752	0.053301	0.737243
C70	C	1.335106	-0.613353	-0.152541
C71	C	1.668439	-0.280020	0.180793
C72	C	2.001773	0.053314	0.514126
C73	C	1.337083	-0.531063	-0.161251
C74	C	1.670416	-0.197730	0.172082
C75	C	2.003749	0.135604	0.505415
C76	C	1.338048	-0.489926	-0.054050
C77	C	1.671381	-0.156592	0.279283
C78	C	2.004715	0.176741	0.612616
C79	C	1.340988	-0.366725	0.038866
C80	C	1.674322	-0.033392	0.372200
C81	C	2.007655	0.299941	0.705533
C82	C	1.340058	-0.405813	-0.062967
C83	C	1.673391	-0.072480	0.270366
C84	C	2.006725	0.260854	0.603699
C85	C	1.548043	0.108866	-0.011534
C86	C	1.881377	0.442200	0.321799
C87	C	2.214710	0.775533	0.655132
C88	C	1.674034	0.110966	-0.011764
C89	C	2.007368	0.444299	0.321570
C90	C	2.340701	0.777632	0.654903
C91	C	1.332013	0.257917	-0.027333
C92	C	1.665346	0.591250	0.306000
C93	C	1.998679	0.924583	0.639333
C94	C	1.334110	0.345496	-0.036617
C95	C	1.667443	0.678830	0.296716
C96	C	2.000777	1.012163	0.630049
N97	N	1.340518	0.113724	0.306781
N98	N	1.673851	0.447057	0.640114
N99	N	2.007185	0.780390	0.973447
N100	N	1.340555	0.113733	-0.330877
N101	N	1.673888	0.447066	0.002457
N102	N	2.007222	0.780400	0.335790
C103	C	1.340536	0.113733	0.557786
C104	C	1.673869	0.447066	0.891119
C105	C	2.007202	0.780400	1.224452
C106	C	1.340522	0.113730	0.418108
C107	C	1.673855	0.447063	0.751442
C108	C	2.007189	0.780397	1.084775
H109	H	1.346795	-0.125673	-0.189074
H110	H	1.680129	0.207661	0.144260
H111	H	2.013462	0.540994	0.477593
C112	C	1.341154	-0.360554	-0.190468
C113	C	1.674488	-0.027220	0.142865
C114	C	2.007821	0.306113	0.476199
H115	H	1.340287	-0.396836	-0.253067
H116	H	1.673621	-0.063503	0.080266
H117	H	2.006954	0.269831	0.413599
H118	H	1.408075	-0.334181	-0.197889
H119	H	1.741408	-0.000847	0.135445
H120	H	2.074741	0.332486	0.468778
H121	H	1.275761	-0.322724	-0.199114
H122	H	1.609094	0.010610	0.134219
H123	H	1.942428	0.343943	0.467552
C124	C	1.334029	-0.658604	-0.270451
C125	C	1.667362	-0.325271	0.062883
C126	C	2.000696	0.008063	0.396216
H127	H	1.332703	-0.713505	-0.248661
H128	H	1.666037	-0.380172	0.084673
H129	H	1.999370	-0.046838	0.418006
H130	H	1.400504	-0.650846	-0.317114
H131	H	1.733838	-0.317513	0.016219
H132	H	2.067171	0.015820	0.349553
H133	H	1.268191	-0.639383	-0.318316
H134	H	1.601524	-0.306050	0.015017
H135	H	1.934858	0.027283	0.348351
C136	C	1.333995	-0.658635	0.198084
C137	C	1.667328	-0.325301	0.531417
C138	C	2.000662	0.008032	0.864751
H139	H	1.332700	-0.713536	0.187920
H140	H	1.666033	-0.380202	0.521253
H141	H	1.999367	-0.046869	0.854587
H142	H	1.268162	-0.639428	0.241890
H143	H	1.601495	-0.306095	0.575223
H144	H	1.934828	0.027238	0.908557
H145	H	1.400476	-0.650878	0.243096
H146	H	1.733809	-0.317545	0.576429
H147	H	2.067142	0.015789	0.909762
H148	H	1.337860	-0.497589	0.149154
H149	H	1.671193	-0.164255	0.482488
H150	H	2.004527	0.169078	0.815821
H151	H	1.346726	-0.125684	0.215719
H152	H	1.680059	0.207649	0.549052
H153	H	2.013392	0.540982	0.882386
H154	H	1.340182	-0.400240	0.133244
H155	H	1.673515	-0.066907	0.466577
H156	H	2.006849	0.266427	0.799911
H157	H	1.343212	-0.274952	-0.173252
H158	H	1.676546	0.058381	0.160081
H159	H	2.009879	0.391714	0.493414
H160	H	1.343161	-0.274979	0.231532
H161	H	1.676494	0.058354	0.564865
H162	H	2.009828	0.391688	0.898198
H163	H	1.337894	-0.497564	-0.255641
H164	H	1.671228	-0.164230	0.077692
H165	H	2.004561	0.169103	0.411026
