data_functionalizedCrystal
_audit_creation_method	'MofGen! by Chris Wilmer'
_symmetry_space_group_name_H-M	'P1'
_symmetry_Int_Tables_number	1
_symmetry_cell_setting	triclinic
loop_
_symmetry_equiv_pos_as_xyz
  x,y,z
_cell_length_a	19.077105
_cell_length_b	13.897447
_cell_length_c	19.076919
_cell_angle_alpha	87.725848
_cell_angle_beta	89.923776
_cell_angle_gamma	87.715989
loop_
_atom_site_label
_atom_site_type_symbol
_atom_site_fract_x
_atom_site_fract_y
_atom_site_fract_z
Zn1	Zn	1.058299	-0.466652	0.440432
Zn2	Zn	1.391632	-0.133319	0.773765
Zn3	Zn	1.724966	0.200015	1.107099
Zn4	Zn	1.062948	-0.621745	0.322930
Zn5	Zn	1.396282	-0.288412	0.656263
Zn6	Zn	1.729615	0.044922	0.989596
Zn7	Zn	0.945516	-0.453730	0.318225
Zn8	Zn	1.278849	-0.120397	0.651558
Zn9	Zn	1.612183	0.212936	0.984892
Zn10	Zn	0.940770	-0.621163	0.435682
Zn11	Zn	1.274103	-0.287830	0.769016
Zn12	Zn	1.607437	0.045503	1.102349
O13	O	1.001883	-0.540823	0.379317
O14	O	1.335217	-0.207489	0.712651
O15	O	1.668550	0.125844	1.045984
O16	O	1.157248	-0.492877	0.428802
O17	O	1.490581	-0.159543	0.762135
O18	O	1.823915	0.173790	1.095468
O19	O	1.051303	-0.594293	0.223974
O20	O	1.384636	-0.260960	0.557308
O21	O	1.717969	0.072373	0.890641
O22	O	0.960517	-0.320466	0.334455
O23	O	1.293851	0.012867	0.667788
O24	O	1.627184	0.346201	1.001121
O25	O	1.160664	-0.606823	0.342473
O26	O	1.493997	-0.273490	0.675807
O27	O	1.827331	0.059844	1.009140
O28	O	1.043378	-0.329959	0.424240
O29	O	1.376712	0.003374	0.757573
O30	O	1.710045	0.336707	1.090906
O31	O	0.965026	-0.470853	0.220518
O32	O	1.298359	-0.137520	0.553851
O33	O	1.631692	0.195813	0.887184
O34	O	0.846554	-0.470289	0.329849
O35	O	1.179888	-0.136956	0.663182
O36	O	1.513221	0.196377	0.996516
O37	O	0.952429	-0.605831	0.534644
O38	O	1.285762	-0.272498	0.867977
O39	O	1.619095	0.060835	1.201311
O40	O	0.843068	-0.593302	0.416145
O41	O	1.176401	-0.259968	0.749478
O42	O	1.509734	0.073365	1.082811
O43	O	1.038777	-0.492313	0.538133
O44	O	1.372110	-0.158979	0.871467
O45	O	1.705443	0.174354	1.204800
O46	O	1.046701	-0.756646	0.337868
O47	O	1.380034	-0.423313	0.671201
O48	O	1.713368	-0.089980	1.004535
O49	O	0.956937	-0.756219	0.420707
O50	O	1.290270	-0.422886	0.754040
O51	O	1.623604	-0.089552	1.087374
C52	C	0.819315	-0.530331	0.371971
C53	C	1.152648	-0.196998	0.705305
C54	C	1.485981	0.136336	1.038638
C55	C	0.741210	-0.525867	0.368845
C56	C	1.074543	-0.192533	0.702179
C57	C	1.407877	0.140800	1.035512
C58	C	0.702722	-0.587905	0.412236
C59	C	1.036056	-0.254571	0.745569
C60	C	1.369389	0.078762	1.078902
C61	C	0.629335	-0.583697	0.409302
C62	C	0.962668	-0.250364	0.742635
C63	C	1.296001	0.082969	1.075969
C64	C	0.594436	-0.517456	0.362974
C65	C	0.927770	-0.184123	0.696307
C66	C	1.261103	0.149210	1.029641
C67	C	0.632929	-0.455412	0.319582
C68	C	0.966263	-0.122078	0.652915
C69	C	1.299596	0.211255	0.986249
C70	C	0.706316	-0.459615	0.322520
C71	C	1.039649	-0.126282	0.655853
C72	C	1.372982	0.207052	0.989186
C73	C	0.375148	-0.498003	0.349381
C74	C	0.708481	-0.164670	0.682714
C75	C	1.041815	0.168663	1.016047
C76	C	0.301757	-0.493807	0.346445
C77	C	0.635090	-0.160473	0.679778
C78	C	0.968423	0.172860	1.013111
C79	C	0.298167	-0.622092	0.436166
C80	C	0.631500	-0.288758	0.769499
C81	C	0.964834	0.044575	1.102833
C82	C	0.371555	-0.626293	0.439097
C83	C	0.704888	-0.292960	0.772430
C84	C	1.038221	0.040374	1.105763
C85	C	0.410041	-0.564245	0.395707
C86	C	0.743375	-0.230912	0.729041
C87	C	1.076708	0.102421	1.062374
N88	N	0.519423	-0.513156	0.359972
N89	N	0.852756	-0.179823	0.693306
N90	N	1.186089	0.153510	1.026639
N91	N	0.485054	-0.568541	0.398713
N92	N	0.818387	-0.235208	0.732046
N93	N	1.151720	0.098126	1.065380
C94	C	1.001827	-0.791433	0.379299
C95	C	1.335160	-0.458100	0.712632
C96	C	1.668494	-0.124766	1.045965
C97	C	1.001866	-0.898650	0.379317
C98	C	1.335199	-0.565317	0.712650
C99	C	1.668533	-0.231983	1.045983
C100	C	1.001899	-0.985722	0.379334
C101	C	1.335233	-0.652389	0.712667
C102	C	1.668566	-0.319056	1.046001
C103	C	1.001948	-1.094959	0.379354
C104	C	1.335281	-0.761625	0.712688
C105	C	1.668615	-0.428292	1.046021
C106	C	1.185165	-0.551356	0.386692
C107	C	1.518499	-0.218023	0.720026
C108	C	1.851832	0.115311	1.053359
C109	C	1.263269	-0.555845	0.389835
C110	C	1.596602	-0.222511	0.723168
C111	C	1.929936	0.110822	1.056502
C112	C	0.994555	-0.550448	0.562598
C113	C	1.327888	-0.217115	0.895931
C114	C	1.661221	0.116218	1.229264
C115	C	0.991431	-0.554550	0.640701
C116	C	1.324765	-0.221217	0.974034
C117	C	1.658098	0.112116	1.307368
C118	C	1.001959	-0.289236	0.379352
C119	C	1.335292	0.044098	0.712685
C120	C	1.668625	0.377431	1.046019
C121	C	1.001991	-0.182024	0.379367
C122	C	1.335324	0.151309	0.712700
C123	C	1.668657	0.484642	1.046034
C124	C	1.009224	-0.531167	0.196751
C125	C	1.342558	-0.197834	0.530085
C126	C	1.675891	0.135500	0.863418
C127	C	1.012483	-0.526801	0.118654
C128	C	1.345817	-0.193468	0.451987
C129	C	1.679150	0.139866	0.785321
C130	C	1.034919	-0.497377	0.679212
C131	C	1.368252	-0.164044	1.012545
C132	C	1.701585	0.169290	1.345878
C133	C	1.031976	-0.501227	0.752598
C134	C	1.365309	-0.167894	1.085931
C135	C	1.698642	0.165440	1.419264
C136	C	0.985548	-0.562256	0.787472
C137	C	1.318882	-0.228923	1.120805
C138	C	1.652215	0.104410	1.454138
C139	C	0.942056	-0.619432	0.748955
C140	C	1.275390	-0.286099	1.082289
C141	C	1.608723	0.047235	1.415622
C142	C	0.944996	-0.615576	0.675571
C143	C	1.278330	-0.282243	1.008904
C144	C	1.611663	0.051091	1.342237
C145	C	0.971932	-0.580121	1.006753
C146	C	1.305265	-0.246788	1.340086
C147	C	1.638598	0.086546	1.673420
C148	C	0.968996	-0.583974	1.080143
C149	C	1.302330	-0.250641	1.413477
C150	C	1.635663	0.082692	1.746810
C151	C	1.058915	-0.465768	1.083780
C152	C	1.392248	-0.132435	1.417114
C153	C	1.725582	0.200899	1.750447
C154	C	1.061854	-0.461922	1.010394
C155	C	1.395187	-0.128588	1.343728
C156	C	1.728520	0.204745	1.677061
C157	C	1.018359	-0.519094	0.971884
C158	C	1.351693	-0.185760	1.305218
C159	C	1.685026	0.147573	1.638551
N160	N	0.982541	-0.566195	0.862484
N161	N	1.315874	-0.232862	1.195817
N162	N	1.649207	0.100471	1.529150
N163	N	1.021364	-0.515149	0.896873
N164	N	1.354697	-0.181815	1.230207
N165	N	1.688031	0.151518	1.563540
H166	H	0.399964	-0.680236	0.476820
H167	H	0.733297	-0.346902	0.810154
H168	H	1.066631	-0.013569	1.143487
F169	F	0.892642	-0.684380	0.786073
F170	F	1.225975	-0.351047	1.119406
F171	F	1.559309	-0.017713	1.452739
H172	H	0.266824	-0.672606	0.471492
H173	H	0.600157	-0.339273	0.804826
H174	H	0.933490	-0.005940	1.138159
H175	H	0.273345	-0.439854	0.308723
H176	H	0.606678	-0.106521	0.642056
H177	H	0.940011	0.226812	0.975390
F178	F	0.919577	-0.648929	1.117257
F179	F	1.252910	-0.315596	1.450590
F180	F	1.586244	0.017738	1.783923
H181	H	1.094325	-0.419221	1.115143
H182	H	1.427658	-0.085887	1.448476
H183	H	1.760991	0.247446	1.781810
F184	F	1.111268	-0.396967	0.973284
F185	F	1.444602	-0.063633	1.306618
F186	F	1.777935	0.269700	1.639951
H187	H	0.406475	-0.447487	0.314045
H188	H	0.739809	-0.114153	0.647378
H189	H	1.073142	0.219180	0.980711
F190	F	0.925640	-0.640969	0.965777
F191	F	1.258974	-0.307635	1.299111
F192	F	1.592307	0.025698	1.632444
F193	F	0.595786	-0.384907	0.270280
F194	F	0.929119	-0.051573	0.603614
F195	F	1.262453	0.281760	0.936947
F196	F	1.078285	-0.440410	0.793582
F197	F	1.411618	-0.107076	1.126915
F198	F	1.744952	0.226257	1.460248
F199	F	0.739857	-0.658413	0.461541
F200	F	1.073191	-0.325079	0.794875
F201	F	1.406524	0.008254	1.128208
F202	F	0.588376	-0.649727	0.455484
F203	F	0.921710	-0.316393	0.788818
F204	F	1.255043	0.016940	1.122151
H205	H	0.909577	-0.662123	0.644216
H206	H	1.242911	-0.328789	0.977549
H207	H	1.576244	0.004544	1.310882
H208	H	0.737651	-0.409092	0.287190
H209	H	1.070985	-0.075759	0.620524
H210	H	1.404318	0.257575	0.953857
F211	F	1.084337	-0.432426	0.642103
F212	F	1.417670	-0.099093	0.975437
F213	F	1.751004	0.234241	1.308770
