data_functionalizedCrystal
_audit_creation_method	'MofGen! by Chris Wilmer'
_symmetry_space_group_name_H-M	'P1'
_symmetry_Int_Tables_number	1
_symmetry_cell_setting	triclinic
loop_
_symmetry_equiv_pos_as_xyz
  x,y,z
_cell_length_a	6.817900
_cell_length_b	9.582860
_cell_length_c	9.514088
_cell_angle_alpha	87.272217
_cell_angle_beta	118.843545
_cell_angle_gamma	111.206767
loop_
_atom_site_label
_atom_site_type_symbol
_atom_site_fract_x
_atom_site_fract_y
_atom_site_fract_z
V1	V	-4.257817	-0.209707	-0.500445
V2	V	-3.924484	0.123626	-0.167112
V3	V	-3.591151	0.456960	0.166222
O4	O	-4.199949	0.007347	-0.491221
O5	O	-3.866615	0.340681	-0.157888
O6	O	-3.533282	0.674014	0.175445
O7	O	-4.247171	-0.413188	-0.496731
O8	O	-3.913837	-0.079855	-0.163398
O9	O	-3.580504	0.253478	0.169936
O10	O	-4.292205	-0.207679	-0.718839
O11	O	-3.958872	0.125654	-0.385506
O12	O	-3.625538	0.458987	-0.052172
O13	O	-4.154602	-0.199584	-0.267576
O14	O	-3.821269	0.133749	0.065758
O15	O	-3.487936	0.467082	0.399091
V16	V	-4.725826	-0.183603	-0.472627
V17	V	-4.392493	0.149730	-0.139294
V18	V	-4.059159	0.483063	0.194039
O19	O	-4.553108	-0.266968	-0.561465
O20	O	-4.219775	0.066366	-0.228132
O21	O	-3.886441	0.399699	0.105201
O22	O	-4.880733	-0.126343	-0.411607
O23	O	-4.547399	0.206991	-0.078274
O24	O	-4.214066	0.540324	0.255060
O25	O	-4.513266	0.019878	-0.476341
O26	O	-4.179933	0.353211	-0.143008
O27	O	-3.846599	0.686544	0.190325
O28	O	-4.901091	-0.400658	-0.481851
O29	O	-4.567758	-0.067324	-0.148518
O30	O	-4.234425	0.266009	0.184816
O31	O	-4.946438	-0.193726	-0.705497
O32	O	-4.613104	0.139607	-0.372163
O33	O	-4.279771	0.472941	-0.038830
O34	O	-4.468232	-0.185631	-0.254233
O35	O	-4.134898	0.147702	0.079100
O36	O	-3.801565	0.481035	0.412434
C37	C	-4.098677	-0.462755	-0.488761
C38	C	-3.765344	-0.129422	-0.155428
C39	C	-3.432010	0.203911	0.177906
C40	C	-4.171811	-0.629111	-0.487180
C41	C	-3.838477	-0.295778	-0.153847
C42	C	-3.505144	0.037555	0.179486
C43	C	-4.156121	-0.200606	-0.772080
C44	C	-3.822788	0.132727	-0.438747
C45	C	-3.489454	0.466061	-0.105413
C46	C	-4.265770	-0.200295	-0.950617
C47	C	-3.932437	0.133039	-0.617283
C48	C	-3.599103	0.466372	-0.283950
C49	C	-4.325101	0.069437	-0.484307
C50	C	-3.991768	0.402770	-0.150973
C51	C	-3.658435	0.736104	0.182360
C52	C	-4.231210	0.235792	-0.485898
C53	C	-3.897877	0.569125	-0.152565
C54	C	-3.564544	0.902458	0.180769
C55	C	-4.267656	-0.192709	-0.200984
C56	C	-3.934322	0.140624	0.132350
C57	C	-3.600989	0.473957	0.465683
C58	C	-4.137243	-0.193013	-0.022446
C59	C	-3.803910	0.140320	0.310888
C60	C	-3.470576	0.473653	0.644221
H61	H	-4.459708	-0.206293	-1.025715
H62	H	-4.126375	0.127040	-0.692382
H63	H	-3.793042	0.460373	-0.359049
H64	H	-3.943329	-0.187032	-0.947358
H65	H	-3.609995	0.146302	-0.614025
H66	H	-3.276662	0.479635	-0.280692
