data_functionalizedCrystal
_audit_creation_method	'MofGen! by Chris Wilmer'
_symmetry_space_group_name_H-M	'P1'
_symmetry_Int_Tables_number	1
_symmetry_cell_setting	triclinic
loop_
_symmetry_equiv_pos_as_xyz
  x,y,z
_cell_length_a	14.519731
_cell_length_b	23.532357
_cell_length_c	12.996460
_cell_angle_alpha	89.988323
_cell_angle_beta	89.994327
_cell_angle_gamma	83.258572
loop_
_atom_site_label
_atom_site_type_symbol
_atom_site_fract_x
_atom_site_fract_y
_atom_site_fract_z
O1	O	1.222951	0.074713	-0.085582
O2	O	1.556284	0.408047	0.247751
O3	O	1.889618	0.741380	0.581085
O4	O	0.954370	0.083492	-0.085585
O5	O	1.287704	0.416826	0.247748
O6	O	1.621037	0.750159	0.581082
O7	O	1.096784	-0.003794	-0.085562
O8	O	1.430117	0.329540	0.247771
O9	O	1.763450	0.662873	0.581104
O10	O	1.080538	0.162000	-0.085605
O11	O	1.413871	0.495333	0.247728
O12	O	1.747204	0.828666	0.581062
O13	O	1.096769	-0.003799	0.085571
O14	O	1.430102	0.329535	0.418905
O15	O	1.763436	0.662868	0.752238
O16	O	0.954356	0.083488	0.085549
O17	O	1.287689	0.416821	0.418882
O18	O	1.621022	0.750154	0.752215
O19	O	1.222936	0.074709	0.085552
O20	O	1.556270	0.408042	0.418885
O21	O	1.889603	0.741375	0.752218
Cu22	Cu	1.088645	0.079098	0.101176
Cu23	Cu	1.421978	0.412431	0.434509
Cu24	Cu	1.755311	0.745764	0.767843
Cu25	Cu	1.088662	0.079103	-0.101209
Cu26	Cu	1.421995	0.412437	0.232124
Cu27	Cu	1.755329	0.745770	0.565457
O28	O	1.080523	0.161995	0.085529
O29	O	1.413856	0.495328	0.418862
O30	O	1.747190	0.828661	0.752196
C31	C	0.920009	0.083079	-0.000018
C32	C	1.253342	0.416412	0.333315
C33	C	1.586675	0.749745	0.666648
C34	C	0.817643	0.081846	-0.000019
C35	C	1.150977	0.415179	0.333315
C36	C	1.484310	0.748513	0.666648
C37	C	0.734511	0.080844	-0.000022
C38	C	1.067845	0.414178	0.333311
C39	C	1.401178	0.747511	0.666644
C40	C	0.630218	0.079593	-0.000023
C41	C	0.963551	0.412926	0.333311
C42	C	1.296884	0.746260	0.666644
C43	C	0.547091	0.078600	-0.000022
C44	C	0.880424	0.411933	0.333311
C45	C	1.213757	0.745266	0.666644
C46	C	0.442790	0.077348	-0.000024
C47	C	0.776124	0.410682	0.333309
C48	C	1.109457	0.744015	0.666642
C49	C	1.096370	-0.025015	0.000008
C50	C	1.429703	0.308319	0.333341
C51	C	1.763037	0.641652	0.666674
C52	C	1.095148	-0.088239	0.000017
C53	C	1.428482	0.245095	0.333351
C54	C	1.761815	0.578428	0.666684
C55	C	1.087486	-0.480282	-0.093323
C56	C	1.420820	-0.146949	0.240010
C57	C	1.754153	0.186384	0.573343
C58	C	1.086325	-0.539687	-0.093329
C59	C	1.419658	-0.206354	0.240004
C60	C	1.752991	0.126980	0.573338
O61	O	1.085700	-0.570404	-0.172664
O62	O	1.419033	-0.237071	0.160669
O63	O	1.752366	0.096263	0.494002
N64	N	1.085741	-0.569404	-0.000045
N65	N	1.419074	-0.236070	0.333288
N66	N	1.752408	0.097263	0.666621
C67	C	1.086309	-0.539711	0.093250
C68	C	1.419642	-0.206378	0.426584
C69	C	1.752976	0.126955	0.759917
O70	O	1.085705	-0.570442	0.172595
O71	O	1.419038	-0.237109	0.505928
O72	O	1.752371	0.096224	0.839262
C73	C	1.087464	-0.480307	0.093255
C74	C	1.420797	-0.146974	0.426588
C75	C	1.754130	0.186359	0.759922
C76	C	1.088057	-0.450595	-0.000035
C77	C	1.421390	-0.117261	0.333299
C78	C	1.754724	0.216072	0.666632
C79	C	1.088078	-0.450570	-0.186606
C80	C	1.421412	-0.117236	0.146728
C81	C	1.754745	0.216097	0.480061
C82	C	1.089242	-0.391169	-0.186599
C83	C	1.422575	-0.057836	0.146734
C84	C	1.755908	0.275498	0.480067
C85	C	1.089812	-0.361481	-0.093311
C86	C	1.423146	-0.028148	0.240023
C87	C	1.756479	0.305185	0.573356
C88	C	1.089220	-0.391194	-0.000028
C89	C	1.422553	-0.057861	0.333305
C90	C	1.755887	0.275473	0.666638
C91	C	1.088025	-0.450616	0.186550
C92	C	1.421359	-0.117282	0.519883
C93	C	1.754692	0.216051	0.853216
C94	C	1.089179	-0.391207	0.186547
C95	C	1.422513	-0.057874	0.519880
C96	C	1.755846	0.275459	0.853213
C97	C	1.089773	-0.361495	0.093257
C98	C	1.423106	-0.028161	0.426590
C99	C	1.756439	0.305172	0.759923
C100	C	1.090954	-0.302106	0.093266
C101	C	1.424287	0.031227	0.426600
C102	C	1.757621	0.364561	0.759933
N103	N	1.091538	-0.272389	-0.000017
N104	N	1.424871	0.060944	0.333316
N105	N	1.758205	0.394277	0.666649
C106	C	1.090967	-0.302077	-0.093306
C107	C	1.424300	0.031256	0.240027
C108	C	1.757634	0.364589	0.573361
C109	C	1.083882	-0.664464	0.093233
C110	C	1.417216	-0.331131	0.426566
C111	C	1.750549	0.002203	0.759900
C112	C	1.082734	-0.723868	0.093229
C113	C	1.416068	-0.390534	0.426563
C114	C	1.749401	-0.057201	0.759896
C115	C	1.082748	-0.723839	-0.093350
C116	C	1.416082	-0.390506	0.239983
C117	C	1.749415	-0.057172	0.573316
C118	C	1.083903	-0.664435	-0.093346
C119	C	1.417236	-0.331102	0.239988
C120	C	1.750570	0.002232	0.573321
C121	C	1.084466	-0.634748	-0.000051
C122	C	1.417800	-0.301414	0.333283
C123	C	1.751133	0.031919	0.666616
C124	C	1.093410	-0.177332	-0.093286
C125	C	1.426744	0.156001	0.240048
C126	C	1.760077	0.489335	0.573381
C127	C	1.094577	-0.117926	-0.093271
C128	C	1.427911	0.215407	0.240062
C129	C	1.761244	0.548740	0.573396
C130	C	1.094558	-0.117960	0.093308
C131	C	1.427892	0.215373	0.426641
C132	C	1.761225	0.548707	0.759975
C133	C	1.093396	-0.177361	0.093294
C134	C	1.426730	0.155973	0.426628
C135	C	1.760063	0.489306	0.759961
C136	C	1.092819	-0.207045	-0.000011
C137	C	1.426153	0.126288	0.333322
C138	C	1.759486	0.459622	0.666656
O139	O	1.091576	-0.271351	0.172561
O140	O	1.424909	0.061982	0.505894
O141	O	1.758243	0.395316	0.839228
O142	O	1.091559	-0.271338	-0.172637
O143	O	1.424893	0.061995	0.160696
O144	O	1.758226	0.395329	0.494030
C145	C	1.257298	0.075122	-0.000017
C146	C	1.590631	0.408456	0.333316
C147	C	1.923965	0.741789	0.666649
C148	C	1.359663	0.076355	-0.000024
C149	C	1.692997	0.409688	0.333309
C150	C	2.026330	0.743022	0.666643
C151	C	1.080937	0.183216	-0.000043
C152	C	1.414270	0.516549	0.333290
C153	C	1.747603	0.849882	0.666623
C154	C	1.082158	0.246440	-0.000060
C155	C	1.415492	0.579773	0.333274
C156	C	1.748825	0.913106	0.666607
N157	N	1.088639	0.079093	0.243523
N158	N	1.421972	0.412427	0.576857
N159	N	1.755306	0.745760	0.910190
N160	N	1.088675	0.079103	-0.243557
N161	N	1.422008	0.412437	0.089777
N162	N	1.755342	0.745770	0.423110
C163	C	1.088661	0.079104	0.663337
C164	C	1.421994	0.412437	0.996671
C165	C	1.755327	0.745771	1.330004
C166	C	1.088652	0.079103	0.546532
C167	C	1.421985	0.412436	0.879866
C168	C	1.755319	0.745770	1.213199
C169	C	1.088650	0.079099	0.453434
C170	C	1.421984	0.412432	0.786767
C171	C	1.755317	0.745766	1.120101
C172	C	1.088641	0.079097	0.336621
C173	C	1.421974	0.412430	0.669955
C174	C	1.755307	0.745764	1.003288
H175	H	1.095063	-0.093737	-0.169242
H176	H	1.428396	0.239596	0.164091
H177	H	1.761729	0.572929	0.497424
Br178	Br	1.089942	-0.350921	0.313169
Br179	Br	1.423275	-0.017587	0.646502
Br180	Br	1.756608	0.315746	0.979835
Br181	Br	1.081968	-0.764141	-0.219958
Br182	Br	1.415302	-0.430807	0.113375
Br183	Br	1.748635	-0.097474	0.446709
Br184	Br	1.090040	-0.350853	-0.313214
Br185	Br	1.423373	-0.017520	0.020119
Br186	Br	1.756707	0.315813	0.353453
H187	H	1.084385	-0.640247	-0.169311
H188	H	1.417718	-0.306913	0.164023
H189	H	1.751051	0.026420	0.497356
H190	H	1.082265	-0.748056	0.169195
H191	H	1.415598	-0.414723	0.502529
H192	H	1.748932	-0.081389	0.835862
Br193	Br	1.095336	-0.077658	0.219908
Br194	Br	1.428669	0.255675	0.553241
Br195	Br	1.762002	0.589008	0.886575
H196	H	1.087610	-0.474735	-0.262576
H197	H	1.420944	-0.141401	0.070757
H198	H	1.754277	0.191932	0.404090
Br199	Br	1.084653	-0.624181	0.219860
Br200	Br	1.417986	-0.290847	0.553194
Br201	Br	1.751320	0.042486	0.886527
H202	H	1.087544	-0.474798	0.262517
H203	H	1.420877	-0.141464	0.595850
H204	H	1.754210	0.191869	0.929183
Br205	Br	1.092627	-0.217608	-0.219915
Br206	Br	1.425960	0.115725	0.113418
Br207	Br	1.759293	0.449058	0.446752
Br208	Br	1.092613	-0.217688	0.219902
Br209	Br	1.425946	0.115645	0.553236
Br210	Br	1.759279	0.448979	0.886569
