data_functionalizedCrystal
_audit_creation_method	'MofGen! by Chris Wilmer'
_symmetry_space_group_name_H-M	'P1'
_symmetry_Int_Tables_number	1
_symmetry_cell_setting	triclinic
loop_
_symmetry_equiv_pos_as_xyz
  x,y,z
_cell_length_a	10.654546
_cell_length_b	15.455313
_cell_length_c	10.654559
_cell_angle_alpha	92.690768
_cell_angle_beta	84.486034
_cell_angle_gamma	87.285315
loop_
_atom_site_label
_atom_site_type_symbol
_atom_site_fract_x
_atom_site_fract_y
_atom_site_fract_z
O1	O	-1.673318	0.072285	-0.170921
O2	O	-1.307837	0.072254	-0.187733
O3	O	-1.498974	0.072264	0.003411
O4	O	-1.482181	0.072275	-0.362065
O5	O	-1.488044	-0.071999	-0.007474
O6	O	-1.296906	-0.072009	-0.198619
O7	O	-1.662387	-0.071977	-0.181806
Cu8	Cu	-1.478649	-0.085166	-0.191206
Cu9	Cu	-1.491575	0.085442	-0.178333
O10	O	-1.471250	-0.071987	-0.372950
C11	C	-1.255573	0.000118	-0.191943
C12	C	-1.116129	0.000106	-0.188254
N13	N	-1.469566	-0.205162	-0.200259
C14	C	-1.036648	0.000118	-0.300795
C15	C	-0.905627	0.000127	-0.297319
C16	C	-0.933582	0.000114	-0.068751
C17	C	-1.064600	0.000099	-0.072229
C18	C	-1.020507	0.000130	-0.432756
C19	C	-0.889487	0.000138	-0.429281
C20	C	-1.550797	-0.250551	-0.119085
C21	C	-1.543940	-0.341360	-0.125943
C22	C	-1.455857	-0.386776	-0.213983
C23	C	-1.374618	-0.341380	-0.295161
C24	C	-1.381470	-0.250574	-0.288296
C25	C	-1.426281	-0.658359	-0.243583
C26	C	-1.419437	-0.749172	-0.250444
C27	C	-1.588758	-0.749146	-0.081224
C28	C	-1.595608	-0.658337	-0.074372
C29	C	-1.514364	-0.612949	-0.155545
N30	N	-1.448848	-0.479597	-0.220998
N31	N	-1.521368	-0.520130	-0.148523
C32	C	-0.714650	0.000148	-0.177600
C33	C	-0.854091	0.000129	-0.181301
C34	C	-1.477951	0.000146	-0.414305
C35	C	-1.481648	0.000151	-0.553748
N36	N	-1.500668	0.205438	-0.169270
C37	C	-1.489333	0.078785	-0.613339
C38	C	-1.492802	0.078776	-0.744361
C39	C	-1.480895	-0.078507	-0.756190
C40	C	-1.477435	-0.078497	-0.625169
C41	C	-1.496202	0.169591	-0.606511
C42	C	-1.499671	0.169582	-0.737533
C43	C	-1.492274	0.000132	0.044766
C44	C	-1.488577	0.000133	0.184209
H45	H	-1.129309	0.000076	0.019413
C46	C	-1.579570	-0.212565	-0.793443
C47	C	-1.476245	-0.164957	-0.834699
H48	H	-1.576695	-0.265935	-0.841914
H49	H	-1.576400	-0.223807	-0.706893
H50	H	-1.655690	-0.180245	-0.803563
H51	H	-1.400125	-0.197275	-0.824570
H52	H	-1.479404	-0.153717	-0.921270
H53	H	-1.045265	-0.060244	-0.488922
H54	H	-0.891612	0.000122	0.025714
H55	H	-1.060883	0.062417	-0.470075
H56	H	-0.839097	-0.062145	-0.473862
C57	C	-0.708271	0.081639	-0.486763
C58	C	-0.839313	0.081645	-0.490241
H59	H	-0.677299	0.131954	-0.524401
H60	H	-0.688975	0.081635	-0.401564
H61	H	-0.669669	0.031327	-0.531985
H62	H	-0.877917	0.131954	-0.445010
H63	H	-0.858621	0.081657	-0.575455
H64	H	-1.360131	-0.621411	-0.309680
C65	C	-1.299658	0.232586	-0.669232
C66	C	-1.375440	0.207621	-0.563708
H67	H	-1.225108	0.256066	-0.642802
H68	H	-1.277628	0.183480	-0.725350
H69	H	-1.344841	0.275156	-0.711095
H70	H	-1.330260	0.165046	-0.521850
H71	H	-1.397469	0.256733	-0.507569
H72	H	-1.315322	-0.213618	-0.354395
H73	H	-1.622528	-0.213579	-0.047399
C74	C	-1.705757	0.232638	-0.665325
C75	C	-1.626197	0.207636	-0.774609
H76	H	-1.783863	0.256132	-0.688219
H77	H	-1.720353	0.183545	-0.616591
H78	H	-1.667015	0.275206	-0.617062
H79	H	-1.664935	0.165063	-0.822868
H80	H	-1.611603	0.256736	-0.823364
H81	H	-1.654902	-0.786109	-0.015135
C82	C	-1.712025	-0.332212	0.041976
C83	C	-1.633251	-0.391252	-0.036733
H84	H	-1.767172	-0.363015	0.097044
H85	H	-1.662038	-0.296819	0.090329
H86	H	-1.760306	-0.296771	-0.008069
H87	H	-1.584963	-0.426689	0.013313
H88	H	-1.683244	-0.426660	-0.085090
H89	H	-1.667332	-0.621361	-0.002683
H90	H	-1.347706	-0.786147	-0.322142
C91	C	-1.288941	-0.480590	-0.380833
C92	C	-1.277798	-0.391301	-0.391940
H93	H	-1.229174	-0.511406	-0.440590
H94	H	-1.273446	-0.495483	-0.298023
H95	H	-1.371760	-0.495438	-0.396375
H96	H	-1.194981	-0.376451	-0.376389
H97	H	-1.293284	-0.376402	-0.474770
C98	C	-1.358443	-0.212564	-0.608120
C99	C	-1.468985	-0.164940	-0.559682
H100	H	-1.353223	-0.265932	-0.567690
H101	H	-1.359915	-0.223810	-0.696363
H102	H	-1.287222	-0.180252	-0.593136
H103	H	-1.540208	-0.197250	-0.574675
H104	H	-1.467525	-0.153697	-0.471419
H105	H	-1.415513	0.204433	-0.781193
H106	H	-1.585636	0.204471	-0.557612
