data_functionalizedCrystal
_audit_creation_method	'MofGen! by Chris Wilmer'
_symmetry_space_group_name_H-M	'P1'
_symmetry_Int_Tables_number	1
_symmetry_cell_setting	triclinic
loop_
_symmetry_equiv_pos_as_xyz
  x,y,z
_cell_length_a	16.120490
_cell_length_b	12.759399
_cell_length_c	12.759393
_cell_angle_alpha	89.969792
_cell_angle_beta	87.082392
_cell_angle_gamma	87.108017
loop_
_atom_site_label
_atom_site_type_symbol
_atom_site_fract_x
_atom_site_fract_y
_atom_site_fract_z
Zn1	Zn	1.274626	-0.499843	-0.675398
Zn2	Zn	1.274540	-0.675557	-0.499717
Zn3	Zn	1.135202	-0.490968	-0.490833
Zn4	Zn	1.135192	-0.666550	-0.666459
O5	O	1.204890	-0.583230	-0.583102
O6	O	1.391282	-0.530636	-0.659553
O7	O	1.256026	-0.651126	-0.351515
O8	O	1.153738	-0.345127	-0.515339
O9	O	1.391219	-0.659732	-0.530481
O10	O	1.256172	-0.351648	-0.650939
O11	O	1.153655	-0.515509	-0.344988
O12	O	1.018534	-0.506776	-0.506671
O13	O	1.153719	-0.644381	-0.814668
O14	O	1.018526	-0.635775	-0.635702
O15	O	1.256161	-0.521903	-0.821236
O16	O	1.256015	-0.821381	-0.521812
O17	O	1.153636	-0.814763	-0.644317
C18	C	1.204838	-0.856194	-0.583083
C19	C	1.204892	-0.972974	-0.583115
C20	C	0.988279	-0.569336	-0.569253
C21	C	0.895612	-0.563417	-0.563354
C22	C	1.151685	-1.134261	-0.512499
C23	C	1.151630	-1.024534	-0.512477
C24	C	1.258206	-1.031147	-0.653787
C25	C	1.258257	-1.140872	-0.653814
C26	C	1.098426	-1.185816	-0.441849
C27	C	1.045109	-1.127650	-0.371177
C28	C	1.045054	-1.017923	-0.371155
C29	C	1.098315	-0.966361	-0.441804
C30	C	0.684678	-0.613922	-0.613706
C31	C	0.725954	-0.552621	-0.552581
C32	C	0.820360	-0.558630	-0.558577
C33	C	0.590262	-0.607915	-0.607711
C34	C	1.422347	-0.597179	-0.597005
C35	C	1.515014	-0.603123	-0.602930
C36	C	1.204948	-0.583127	-0.857139
C37	C	1.204973	-0.583084	-0.973917
C38	C	1.204965	-0.309201	-0.583145
C39	C	1.204997	-0.192427	-0.583164
C40	C	1.258322	-0.519303	-1.032201
C41	C	1.258342	-0.519266	-1.141927
C42	C	1.151662	-0.646800	-1.135074
C43	C	1.151638	-0.646830	-1.025351
C44	C	1.311657	-0.455557	-0.980768
C45	C	1.365011	-0.391772	-1.039053
C46	C	1.365031	-0.391735	-1.148778
C47	C	1.311697	-0.455483	-1.200219
C48	C	1.204880	-0.583259	-0.310134
C49	C	1.205017	-0.583017	-0.193366
H50	H	1.098466	-1.275161	-0.441857
Cl51	Cl	0.739584	-0.701924	-0.701435
H52	H	1.108239	-0.698700	-1.176966
Cl53	Cl	0.978148	-1.192469	-0.282378
H54	H	0.690389	-0.495627	-0.495748
Cl55	Cl	0.978021	-0.944802	-0.282325
Cl56	Cl	1.311639	-0.455602	-0.842828
H57	H	1.098264	-0.877013	-0.441783
Cl58	Cl	1.325159	-0.966325	-0.742595
Cl59	Cl	1.325282	-1.214000	-0.742648
Cl60	Cl	1.084569	-0.727012	-0.952074
H61	H	1.408428	-0.339863	-0.997162
Cl62	Cl	1.432105	-0.311553	-1.222047
H63	H	1.311708	-0.455435	-1.289565
