data_functionalizedCrystal
_audit_creation_method	'MofGen! by Chris Wilmer'
_symmetry_space_group_name_H-M	'P1'
_symmetry_Int_Tables_number	1
_symmetry_cell_setting	triclinic
loop_
_symmetry_equiv_pos_as_xyz
  x,y,z
_cell_length_a	15.944551
_cell_length_b	15.021413
_cell_length_c	11.792241
_cell_angle_alpha	89.996104
_cell_angle_beta	83.846077
_cell_angle_gamma	90.002826
loop_
_atom_site_label
_atom_site_type_symbol
_atom_site_fract_x
_atom_site_fract_y
_atom_site_fract_z
O1	O	1.115189	0.073940	0.146365
O2	O	0.870721	0.073962	0.164412
O3	O	0.998888	0.073944	-0.009831
O4	O	0.987023	0.073957	0.320608
O5	O	0.998867	-0.074120	-0.009806
O6	O	0.870701	-0.074103	0.164437
O7	O	1.115169	-0.074125	0.146390
Zn8	Zn	0.992932	-0.097622	0.155417
Zn9	Zn	0.992958	0.097459	0.155384
O10	O	0.987002	-0.074107	0.320632
C11	C	0.839414	-0.000068	0.163675
C12	C	0.746157	-0.000059	0.161429
N13	N	0.992919	-0.230760	0.155439
C14	C	0.530789	-0.000081	0.048056
C15	C	0.470017	0.072924	0.100690
C16	C	0.575413	-0.000070	0.157365
C17	C	0.470019	-0.073055	0.100741
C18	C	0.410483	-0.000084	0.153432
C19	C	0.515869	0.072996	0.210030
C20	C	0.515878	-0.073049	0.210065
C21	C	0.455123	-0.000026	0.262778
C22	C	0.670426	-0.000061	0.159628
C23	C	0.315471	-0.000087	0.151178
C24	C	0.933646	-0.470435	0.235971
C25	C	1.009646	-0.529775	0.258005
C26	C	0.992941	-0.412367	0.155410
C27	C	0.916962	-0.529768	0.133401
C28	C	0.992955	-0.587791	0.155386
C29	C	1.068979	-0.470400	0.177496
C30	C	0.976245	-0.470388	0.052847
C31	C	1.052299	-0.529702	0.074838
C32	C	0.992932	-0.311309	0.155428
C33	C	0.992972	-0.688846	0.155367
C34	C	1.146476	-0.000093	0.147126
C35	C	1.239733	-0.000096	0.149372
C36	C	0.998132	-0.000088	-0.052104
C37	C	0.995901	-0.000087	-0.178099
N38	N	0.992977	0.230597	0.155354
C39	C	0.991799	-0.000072	-0.408777
C40	C	0.994079	-0.000080	-0.280411
C41	C	0.987758	-0.000073	0.362905
C42	C	0.989989	-0.000068	0.488900
H43	H	0.563713	0.000005	-0.042662
F44	F	0.443471	0.153595	0.040250
F45	F	0.542274	0.153758	0.270401
H46	H	1.023780	-0.555860	0.344729
H47	H	0.422374	0.000019	0.353590
F48	F	0.542455	-0.153722	0.270459
F49	F	0.443482	-0.153727	0.040301
F50	F	0.868172	-0.436417	0.325087
F51	F	1.152992	-0.436462	0.201945
F52	F	1.117918	-0.563507	-0.014227
H53	H	0.962087	-0.444282	-0.033849
F54	F	0.832970	-0.563855	0.109082
