data_functionalizedCrystal
_audit_creation_method	'MofGen! by Chris Wilmer'
_symmetry_space_group_name_H-M	'P1'
_symmetry_Int_Tables_number	1
_symmetry_cell_setting	triclinic
loop_
_symmetry_equiv_pos_as_xyz
  x,y,z
_cell_length_a	23.532361
_cell_length_b	23.532409
_cell_length_c	22.010155
_cell_angle_alpha	90.001487
_cell_angle_beta	90.011417
_cell_angle_gamma	82.839614
loop_
_atom_site_label
_atom_site_type_symbol
_atom_site_fract_x
_atom_site_fract_y
_atom_site_fract_z
O1	O	0.755287	0.069007	0.050460
O2	O	1.255287	0.569007	0.550460
O3	O	0.589420	0.079038	0.050474
O4	O	1.089420	0.579038	0.550474
O5	O	0.677354	-0.008910	0.050468
O6	O	1.177354	0.491090	0.550468
O7	O	0.667352	0.156955	0.050467
O8	O	1.167352	0.656955	0.550467
O9	O	0.677328	-0.008910	-0.050583
O10	O	1.177328	0.491090	0.449417
O11	O	0.589393	0.079038	-0.050576
O12	O	1.089393	0.579038	0.449424
O13	O	0.755260	0.069007	-0.050590
O14	O	1.255260	0.569007	0.449410
Cu15	Cu	0.672324	0.074023	-0.059810
Cu16	Cu	1.172324	0.574023	0.440190
Cu17	Cu	0.672356	0.074023	0.059694
Cu18	Cu	1.172356	0.574023	0.559694
O19	O	0.667326	0.156955	-0.050583
O20	O	1.167326	0.656955	0.449417
C21	C	0.568190	0.078787	-0.000049
C22	C	1.068190	0.578787	0.499951
C23	C	0.504971	0.078032	-0.000043
C24	C	1.004971	0.578032	0.499957
C25	C	0.231742	0.074728	0.055035
C26	C	0.731742	0.574728	0.555035
C27	C	0.291142	0.075443	0.055037
C28	C	0.791142	0.575443	0.555037
O29	O	0.321880	0.075793	0.101882
O30	O	0.821880	0.575793	0.601882
N31	N	0.320833	0.075804	-0.000046
N32	N	0.820833	0.575804	0.499954
C33	C	0.291122	0.075445	-0.055134
C34	C	0.791122	0.575445	0.444866
O35	O	0.321831	0.075817	-0.101986
O36	O	0.821831	0.575817	0.398014
C37	C	0.231724	0.074726	-0.055135
C38	C	0.731724	0.574726	0.444865
C39	C	0.202035	0.074370	-0.000048
C40	C	0.702035	0.574370	0.499952
C41	C	0.202053	0.074372	0.110117
C42	C	0.702053	0.574372	0.610117
C43	C	0.142657	0.073658	0.110116
C44	C	0.642657	0.573658	0.610116
C45	C	0.112950	0.073301	0.055032
C46	C	0.612950	0.573301	0.555032
C47	C	0.142639	0.073656	-0.000050
C48	C	0.642639	0.573656	0.499950
C49	C	0.202015	0.074362	-0.110222
C50	C	0.702015	0.574362	0.389778
C51	C	0.142613	0.073642	-0.110218
C52	C	0.642613	0.573642	0.389782
C53	C	0.112924	0.073287	-0.055131
C54	C	0.612924	0.573287	0.444869
C55	C	0.053537	0.072585	-0.055135
C56	C	0.553537	0.572585	0.444865
N57	N	0.023845	0.072224	-0.000052
N58	N	0.523845	0.572224	0.499948
C59	C	0.053552	0.072582	0.055031
C60	C	0.553552	0.572582	0.555031
C61	C	0.415862	0.076954	-0.055128
C62	C	0.915862	0.576954	0.444872
C63	C	0.475259	0.077677	-0.055127
C64	C	0.975259	0.577677	0.444873
C65	C	0.475274	0.077674	0.055043
C66	C	0.975274	0.577674	0.555043
C67	C	0.415876	0.076955	0.055043
C68	C	0.915876	0.576955	0.555043
C69	C	0.386171	0.076592	-0.000045
C70	C	0.886171	0.576592	0.499955
C71	C	-0.071183	0.071083	0.055023
C72	C	0.428817	0.571083	0.555023
C73	C	-0.130585	0.070371	0.055017
C74	C	0.369415	0.570371	0.555017
C75	C	-0.130595	0.070371	-0.055154
C76	C	0.369405	0.570371	0.444846
C77	C	-0.071199	0.071086	-0.055147
C78	C	0.428801	0.571086	0.444853
C79	C	-0.041494	0.071440	-0.000054
C80	C	0.458506	0.571440	0.499946
O81	O	0.022761	0.072232	-0.101956
O82	O	0.522761	0.572232	0.398044
O83	O	0.022837	0.072202	0.101875
O84	O	0.522837	0.572202	0.601875
C85	C	0.677086	-0.030126	-0.000056
C86	C	1.177086	0.469874	0.499944
C87	C	0.676320	-0.093343	-0.000051
C88	C	1.176320	0.406657	0.499949
C89	C	0.673075	-0.366587	0.055034
C90	C	1.173075	0.133413	0.555034
C91	C	0.673787	-0.307187	0.055034
C92	C	1.173787	0.192813	0.555034
O93	O	0.674187	-0.276462	0.101878
O94	O	1.174187	0.223538	0.601878
N95	N	0.674125	-0.277485	-0.000049
N96	N	1.174125	0.222515	0.499951
C97	C	0.673757	-0.307187	-0.055137
C98	C	1.173757	0.192813	0.444863
O99	O	0.674110	-0.276469	-0.101989
O100	O	1.174110	0.223531	0.398011
C101	C	0.673049	-0.366586	-0.055136
C102	C	1.173049	0.133414	0.444864
C103	C	0.672705	-0.396285	-0.000049
C104	C	1.172705	0.103715	0.499951
C105	C	0.672732	-0.396286	0.110117
C106	C	1.172732	0.103714	0.610117
C107	C	0.672019	-0.455681	0.110116
C108	C	1.172019	0.044319	0.610116
C109	C	0.671650	-0.485379	0.055033
C110	C	1.171650	0.014621	0.555033
C111	C	0.671993	-0.455681	-0.000049
C112	C	1.171993	0.044319	0.499951
C113	C	0.672685	-0.396288	-0.110222
C114	C	1.172685	0.103712	0.389778
C115	C	0.671978	-0.455691	-0.110217
C116	C	1.171978	0.044309	0.389783
C117	C	0.671634	-0.485390	-0.055130
C118	C	1.171634	0.014610	0.444870
C119	C	0.670910	-0.544774	-0.055132
C120	C	1.170910	-0.044774	0.444868
N121	N	0.670572	-0.574476	-0.000049
N122	N	1.170572	-0.074476	0.499951
C123	C	0.670942	-0.544778	0.055034
C124	C	1.170942	-0.044778	0.555034
C125	C	0.675244	-0.182444	-0.055133
C126	C	1.175244	0.317556	0.444867
C127	C	0.675947	-0.123045	-0.055135
C128	C	1.175947	0.376955	0.444865
C129	C	0.675978	-0.123049	0.055036
C130	C	1.175978	0.376951	0.555036
C131	C	0.675271	-0.182449	0.055037
C132	C	1.175271	0.317551	0.555037
C133	C	0.674906	-0.212146	-0.000050
C134	C	1.174906	0.287854	0.499950
C135	C	0.669445	-0.669514	0.055029
C136	C	1.169445	-0.169514	0.555029
C137	C	0.668730	-0.728915	0.055024
C138	C	1.168730	-0.228915	0.555024
C139	C	0.668702	-0.728905	-0.055146
C140	C	1.168702	-0.228905	0.444854
C141	C	0.669414	-0.669509	-0.055142
C142	C	1.169414	-0.169509	0.444858
C143	C	0.669787	-0.639815	-0.000049
C144	C	1.169787	-0.139815	0.499951
O145	O	0.670512	-0.575537	-0.101952
O146	O	1.170512	-0.075537	0.398048
O147	O	0.670596	-0.575505	0.101879
O148	O	1.170596	-0.075505	0.601879
C149	C	0.776490	0.069258	-0.000065
C150	C	1.276490	0.569258	0.499935
C151	C	0.839708	0.070014	-0.000067
C152	C	1.339708	0.570014	0.499933
C153	C	0.667594	0.178171	-0.000058
C154	C	1.167594	0.678171	0.499942
C155	C	0.668360	0.241388	-0.000059
C156	C	1.168360	0.741388	0.499941
N157	N	0.672307	0.074022	-0.143862
N158	N	1.172307	0.574022	0.356138
C159	C	0.706702	0.108377	-0.563645
C160	C	1.206702	0.608377	-0.063645
C161	C	0.706709	0.108376	-0.627252
C162	C	1.206709	0.608376	-0.127252
O163	O	0.735933	0.137582	-0.660147
O164	O	1.235933	0.637582	-0.160147
N165	N	0.672367	0.074016	-0.659069
N166	N	1.172367	0.574016	-0.159069
C167	C	0.638020	0.039651	-0.627275
C168	C	1.138020	0.539651	-0.127275
O169	O	0.608810	0.010425	-0.660178
O170	O	1.108810	0.510425	-0.160178
C171	C	0.638017	0.039650	-0.563669
C172	C	1.138017	0.539650	-0.063669
C173	C	0.672357	0.074016	-0.531855
C174	C	1.172357	0.574016	-0.031855
C175	C	0.741040	0.142740	-0.531831
C176	C	1.241040	0.642740	-0.031831
C177	C	0.741032	0.142742	-0.468228
C178	C	1.241032	0.642742	0.031772
C179	C	0.706687	0.108381	-0.436438
C180	C	1.206687	0.608381	0.063562
C181	C	0.672349	0.074018	-0.468252
C182	C	1.172349	0.574018	0.031748
C183	C	0.603673	0.005282	-0.531876
C184	C	1.103673	0.505282	-0.031876
C185	C	0.603673	0.005284	-0.468265
C186	C	1.103673	0.505284	0.031735
C187	C	0.638014	0.039650	-0.436451
C188	C	1.138014	0.539650	0.063549
C189	C	0.637996	0.039659	-0.372859
C190	C	1.137996	0.539659	0.127141
N191	N	0.672338	0.074019	-0.341042
N192	N	1.172338	0.574019	0.158958
C193	C	0.706684	0.108380	-0.372832
C194	C	1.206684	0.608380	0.127168
C195	C	0.638030	0.039655	-0.760853
C196	C	1.138030	0.539655	-0.260853
C197	C	0.638030	0.039659	-0.824458
C198	C	1.138030	0.539659	-0.324458
C199	C	0.706720	0.108384	-0.824431
C200	C	1.206720	0.608384	-0.324431
C201	C	0.706716	0.108382	-0.760825
C202	C	1.206716	0.608382	-0.260825
C203	C	0.672372	0.074015	-0.729036
C204	C	1.172372	0.574015	-0.229036
C205	C	0.706664	0.108382	-0.239261
C206	C	1.206664	0.608382	0.260739
C207	C	0.706652	0.108383	-0.175652
C208	C	1.206652	0.608383	0.324348
C209	C	0.637965	0.039657	-0.175684
C210	C	1.137965	0.539657	0.324316
C211	C	0.637975	0.039658	-0.239288
C212	C	1.137975	0.539658	0.260712
C213	C	0.672329	0.074023	-0.271074
C214	C	1.172329	0.574023	0.228926
O215	O	0.608789	0.010466	-0.339924
O216	O	1.108789	0.510466	0.160076
O217	O	0.735894	0.137596	-0.339921
O218	O	1.235894	0.637596	0.160079
N219	N	0.672378	0.074018	0.143747
N220	N	1.172378	0.574018	0.643747
H221	H	0.391707	0.076666	0.099899
H222	H	0.891707	0.576666	0.599899
H223	H	0.734679	0.136367	-0.734926
H224	H	1.234679	0.636367	-0.234926
H225	H	0.734616	0.136371	-0.149752
H226	H	1.234616	0.636371	0.350248
N227	N	0.385530	0.076586	-0.111408
N228	N	0.885530	0.576586	0.388592
N229	N	0.412053	0.076909	-0.160581
N230	N	0.912053	0.576909	0.339419
H231	H	0.390634	0.076648	-0.200329
H232	H	0.890634	0.576648	0.299671
N233	N	0.674866	-0.212785	-0.111402
N234	N	1.174866	0.287215	0.388598
N235	N	0.714616	-0.251406	-0.123703
N236	N	1.214616	0.248594	0.376297
H237	H	0.714351	-0.272833	-0.163442
H238	H	1.214351	0.227167	0.336558
N239	N	-0.160908	0.069993	0.111289
N240	N	0.339092	0.569993	0.611289
N241	N	-0.188568	0.029442	0.123579
N242	N	0.311432	0.529442	0.623579
H243	H	-0.209982	0.029172	0.163321
H244	H	0.290018	0.529172	0.663321
H245	H	0.575706	-0.022703	-0.442386
H246	H	1.075706	0.477297	0.057614
N247	N	0.669836	-0.639188	0.111304
N248	N	1.169836	-0.139188	0.611304
N249	N	0.709916	-0.651305	0.148183
N250	N	1.209916	-0.151305	0.648183
H251	H	0.710190	-0.629887	0.187926
H252	H	1.210190	-0.129887	0.687926
N253	N	0.602904	0.004547	-0.271786
N254	N	1.102904	0.504547	0.228214
N255	N	0.625366	-0.033230	-0.307263
N256	N	1.125366	0.466770	0.192737
H257	H	0.600601	-0.058032	-0.330211
H258	H	1.100601	0.441968	0.169789
H259	H	0.668398	-0.753096	-0.099993
H260	H	1.168398	-0.253096	0.400007
N261	N	0.232324	0.074717	-0.166498
N262	N	0.732324	0.574717	0.333502
N263	N	0.205783	0.074387	-0.215670
N264	N	0.705783	0.574387	0.284330
H265	H	0.227188	0.074634	-0.255419
H266	H	0.727188	0.574634	0.244581
H267	H	0.672971	-0.372119	-0.155080
H268	H	1.172971	0.127881	0.344920
H269	H	0.673035	-0.372112	0.154974
H270	H	1.173035	0.127888	0.654974
N271	N	-0.040855	0.071441	0.111304
N272	N	0.459145	0.571441	0.611304
N273	N	-0.067380	0.071123	0.160476
N274	N	0.432620	0.571123	0.660476
H275	H	-0.045961	0.071378	0.200226
H276	H	0.454039	0.571378	0.700226
H277	H	-0.154793	0.070082	-0.100001
H278	H	0.345207	0.570082	0.399999
H279	H	-0.047026	0.071386	-0.100003
H280	H	0.452974	0.571386	0.399997
H281	H	0.668448	-0.753092	0.099885
H282	H	1.168448	-0.253092	0.599885
N283	N	0.741796	0.143494	-0.856907
N284	N	1.241796	0.643494	-0.356907
N285	N	0.719341	0.181264	-0.892403
N286	N	1.219341	0.681264	-0.392403
H287	H	0.744110	0.206062	-0.915340
H288	H	1.244110	0.706062	-0.415340
H289	H	0.674990	-0.206625	0.099894
H290	H	1.174990	0.293375	0.599894
H291	H	0.499473	0.077965	0.099896
H292	H	0.999473	0.577965	0.599896
N293	N	0.676357	-0.092699	0.111299
N294	N	1.176357	0.407301	0.611299
N295	N	0.676992	-0.039665	0.111284
N296	N	1.176992	0.460335	0.611284
H297	H	0.677259	-0.018228	0.151016
H298	H	1.177259	0.481772	0.651016
N299	N	0.671669	-0.486004	0.166393
N300	N	1.171669	0.013996	0.666393
N301	N	0.672001	-0.459472	0.215565
N302	N	1.172001	0.040528	0.715565
H303	H	0.671755	-0.480883	0.255314
H304	H	1.171755	0.019117	0.755314
N305	N	0.112344	0.073296	0.166391
N306	N	0.612344	0.573296	0.666391
N307	N	0.138885	0.073616	0.215564
N308	N	0.638885	0.573616	0.715564
H309	H	0.117480	0.073360	0.255312
H310	H	0.617480	0.573360	0.755312
N311	N	0.602883	0.004567	-0.143196
N312	N	1.102883	0.504567	0.356804
N313	N	0.602887	0.004576	-0.086405
N314	N	1.102887	0.504576	0.413595
H315	H	0.578113	-0.020209	-0.063458
H316	H	1.078113	0.479791	0.436542
N317	N	0.602938	0.004569	-0.856951
N318	N	1.102938	0.504569	-0.356951
N319	N	0.549826	0.011670	-0.849859
N320	N	1.049826	0.511670	-0.349859
H321	H	0.525041	-0.013115	-0.872805
H322	H	1.025041	0.486885	-0.372805
N323	N	0.232383	0.074734	0.166395
N324	N	0.732383	0.574734	0.666395
N325	N	0.205857	0.074414	0.215565
N326	N	0.705857	0.574414	0.715565
H327	H	0.227274	0.074672	0.255315
H328	H	0.727274	0.574672	0.755315
N329	N	0.741761	0.143486	-0.271714
N330	N	1.241761	0.643486	0.228286
N331	N	0.772415	0.174162	-0.243292
N332	N	1.272415	0.674162	0.256708
H333	H	0.797200	0.198956	-0.266211
H334	H	1.297200	0.698956	0.233789
N335	N	0.671607	-0.486017	-0.166494
N336	N	1.171607	0.013983	0.333506
N337	N	0.671914	-0.459489	-0.215670
N338	N	1.171914	0.040511	0.284330
H339	H	0.671650	-0.480904	-0.255416
H340	H	1.171650	0.019096	0.244584
N341	N	0.776123	0.177854	-0.564285
N342	N	1.276123	0.677854	-0.064285
N343	N	0.768993	0.230964	-0.557164
N344	N	1.268993	0.730964	-0.057164
H345	H	0.793770	0.255770	-0.580079
H346	H	1.293770	0.755770	-0.080079
H347	H	0.669671	-0.645325	-0.099998
H348	H	1.169671	-0.145325	0.400002
N349	N	0.112261	0.073281	-0.166485
N350	N	0.612261	0.573281	0.333515
N351	N	0.059227	0.072645	-0.166484
N352	N	0.559227	0.572645	0.333516
H353	H	0.037790	0.072392	-0.206222
H354	H	0.537790	0.572392	0.293778
N355	N	0.602943	0.004544	-0.728394
N356	N	1.102943	0.504544	-0.228394
N357	N	0.572287	-0.026131	-0.756815
N358	N	1.072287	0.473869	-0.256815
H359	H	0.547508	-0.050931	-0.733894
H360	H	1.047508	0.449069	-0.233894
H361	H	0.499426	0.077975	-0.099984
H362	H	0.999426	0.577975	0.400016
N363	N	0.776106	0.177858	-0.435746
N364	N	1.276106	0.677858	0.064254
N365	N	0.806763	0.208536	-0.464147
N366	N	1.306763	0.708536	0.035853
H367	H	0.831534	0.233340	-0.441211
H368	H	1.331534	0.733340	0.058789
H369	H	0.575711	-0.022703	-0.557767
H370	H	1.075711	0.477297	-0.057767
N371	N	0.676285	-0.092720	-0.111410
N372	N	1.176285	0.407280	0.388590
N373	N	0.675951	-0.119249	-0.160585
N374	N	1.175951	0.380751	0.339415
H375	H	0.676192	-0.097835	-0.200332
H376	H	1.176192	0.402165	0.299668
