data_functionalizedCrystal
_audit_creation_method	'MofGen! by Chris Wilmer'
_symmetry_space_group_name_H-M	'P1'
_symmetry_Int_Tables_number	1
_symmetry_cell_setting	triclinic
loop_
_symmetry_equiv_pos_as_xyz
  x,y,z
_cell_length_a	19.077105
_cell_length_b	18.101395
_cell_length_c	19.076919
_cell_angle_alpha	92.272317
_cell_angle_beta	90.076224
_cell_angle_gamma	87.727498
loop_
_atom_site_label
_atom_site_type_symbol
_atom_site_fract_x
_atom_site_fract_y
_atom_site_fract_z
Zn1	Zn	1.058231	-0.358271	-0.440421
Zn2	Zn	1.558231	0.141729	0.059579
Zn3	Zn	1.062857	-0.477344	-0.322915
Zn4	Zn	1.562857	0.022656	0.177085
Zn5	Zn	0.945450	-0.348351	-0.318214
Zn6	Zn	1.445450	0.151649	0.181786
Zn7	Zn	0.940679	-0.476897	-0.435668
Zn8	Zn	1.440679	0.023103	0.064332
O9	O	1.001804	-0.415216	-0.379305
O10	O	1.501804	0.084784	0.120695
O11	O	1.157176	-0.378405	-0.428790
O12	O	1.657176	0.121595	0.071210
O13	O	1.051216	-0.456268	-0.223960
O14	O	1.551216	0.043732	0.276040
O15	O	0.960470	-0.246037	-0.334447
O16	O	1.460470	0.253963	0.165553
O17	O	1.160575	-0.465887	-0.342459
O18	O	1.660575	0.034113	0.157541
O19	O	1.043330	-0.253326	-0.424232
O20	O	1.543330	0.246674	0.075768
O21	O	0.964957	-0.361497	-0.220507
O22	O	1.464957	0.138503	0.279493
O23	O	0.846486	-0.361064	-0.329838
O24	O	1.346486	0.138936	0.170162
O25	O	0.952340	-0.465126	-0.534630
O26	O	1.452340	0.034874	-0.034630
O27	O	0.842981	-0.455506	-0.416131
O28	O	1.342981	0.044494	0.083869
O29	O	1.038704	-0.377972	-0.538122
O30	O	1.538704	0.122028	-0.038122
O31	O	1.046590	-0.580914	-0.337850
O32	O	1.546590	-0.080914	0.162150
O33	O	0.956826	-0.580586	-0.420689
O34	O	1.456826	-0.080586	0.079311
C35	C	0.819237	-0.407161	-0.371959
C36	C	1.319237	0.092839	0.128041
C37	C	0.741133	-0.403733	-0.368833
C38	C	1.241133	0.096267	0.131167
C39	C	0.702636	-0.451363	-0.412222
C40	C	1.202636	0.048637	0.087778
C41	C	0.629249	-0.448133	-0.409288
C42	C	1.129249	0.051867	0.090712
C43	C	0.594361	-0.397276	-0.362962
C44	C	1.094361	0.102724	0.137038
C45	C	0.632863	-0.349642	-0.319571
C46	C	1.132863	0.150358	0.180429
C47	C	0.706248	-0.352869	-0.322509
C48	C	1.206248	0.147131	0.177491
C49	C	0.375075	-0.382341	-0.349369
C50	C	0.875075	0.117659	0.150631
C51	C	0.301684	-0.379119	-0.346433
C52	C	0.801684	0.120881	0.153567
C53	C	0.298076	-0.477610	-0.436152
C54	C	0.798076	0.022390	0.063848
C55	C	0.371463	-0.480836	-0.439082
C56	C	0.871463	0.019164	0.060918
C57	C	0.409959	-0.433198	-0.395694
C58	C	0.909959	0.066802	0.104306
N59	N	0.519348	-0.393975	-0.359960
N60	N	1.019348	0.106025	0.140040
N61	N	0.484970	-0.436497	-0.398700
N62	N	0.984970	0.063503	0.101300
C63	C	1.001711	-0.607621	-0.379280
C64	C	1.501711	-0.107621	0.120720
C65	C	1.001735	-0.689937	-0.379296
C66	C	1.501735	-0.189937	0.120704
C67	C	1.001887	-0.989036	-0.379340
C68	C	1.501887	-0.489036	0.120660
C69	C	0.945531	-0.957547	-0.431600
C70	C	1.445531	-0.457547	0.068400
C71	C	0.945280	-0.871910	-0.431419
C72	C	1.445280	-0.371910	0.068581
C73	C	1.001811	-0.840650	-0.379319
C74	C	1.501811	-0.340650	0.120681
C75	C	0.984741	-0.867911	-0.304458
C76	C	1.484741	-0.367911	0.195542
C77	C	0.984379	-0.953554	-0.304770
C78	C	1.484379	-0.453554	0.195230
C79	C	1.075459	-0.961424	-0.401293
C80	C	1.575459	-0.461424	0.098707
C81	C	1.074956	-0.875820	-0.402900
C82	C	1.574956	-0.375820	0.097100
C83	C	1.001770	-0.756788	-0.379302
C84	C	1.501770	-0.256788	0.120698
C85	C	1.001927	-1.072898	-0.379351
C86	C	1.501927	-0.572898	0.120649
C87	C	1.185084	-0.423303	-0.386679
C88	C	1.685084	0.076697	0.113321
C89	C	1.263188	-0.426749	-0.389822
C90	C	1.763188	0.073251	0.110178
C91	C	0.994474	-0.422606	-0.562585
C92	C	1.494474	0.077394	-0.062585
C93	C	0.991350	-0.425755	-0.640688
C94	C	1.491350	0.074245	-0.140688
C95	C	1.001916	-0.222060	-0.379345
C96	C	1.501916	0.277940	0.120655
C97	C	1.001964	-0.139749	-0.379363
C98	C	1.501964	0.360251	0.120637
C99	C	1.034846	-0.381860	-0.679200
C100	C	1.534846	0.118140	-0.179200
C101	C	1.031902	-0.384816	-0.752586
C102	C	1.531902	0.115184	-0.252586
C103	C	0.985466	-0.431671	-0.787458
C104	C	1.485466	0.068329	-0.287458
C105	C	0.941966	-0.475568	-0.748941
C106	C	1.441966	0.024432	-0.248941
C107	C	0.944906	-0.472608	-0.675556
C108	C	1.444906	0.027392	-0.175556
C109	C	0.971847	-0.445387	-1.006740
C110	C	1.471847	0.054613	-0.506740
C111	C	0.968911	-0.448346	-1.080130
C112	C	1.468911	0.051654	-0.580130
C113	C	1.058847	-0.357593	-1.083770
C114	C	1.558847	0.142407	-0.583770
C115	C	1.061786	-0.354640	-1.010384
C116	C	1.561786	0.145360	-0.510384
C117	C	1.018283	-0.398533	-0.971872
C118	C	1.518283	0.101467	-0.471872
N119	N	0.982458	-0.434696	-0.862471
N120	N	1.482458	0.065304	-0.362471
N121	N	1.021289	-0.395505	-0.896861
N122	N	1.521289	0.104495	-0.396861
C123	C	1.009146	-0.407803	-0.196739
C124	C	1.509146	0.092197	0.303261
C125	C	1.012406	-0.404451	-0.118642
C126	C	1.512406	0.095549	0.381358
H127	H	0.955615	-0.853628	-0.486834
H128	H	1.455615	-0.353628	0.013166
F129	F	0.915328	-0.836001	-0.280256
F130	F	1.415328	-0.336001	0.219744
H131	H	0.890687	-0.848550	-0.416642
H132	H	1.390687	-0.348550	0.083358
H133	H	0.266725	-0.516393	-0.471476
H134	H	0.766725	-0.016393	0.028524
H135	H	0.931095	-0.486502	-1.108520
H136	H	1.431095	0.013498	-0.608520
F137	F	0.892542	-0.525432	-0.786056
F138	F	1.392542	-0.025432	-0.286056
F139	F	0.925546	-0.492103	-0.965762
F140	F	1.425546	0.007897	-0.465762
F141	F	0.874604	-0.981964	-0.412521
F142	F	1.374604	-0.481964	0.087479
H143	H	0.909480	-0.508344	-0.644200
H144	H	1.409480	-0.008344	-0.144200
H145	H	0.273280	-0.337698	-0.308713
H146	H	0.773280	0.162302	0.191287
H147	H	0.731037	-0.492778	-0.449944
H148	H	1.231037	0.007222	0.050056
H149	H	0.597908	-0.486918	-0.444619
H150	H	1.097908	0.013082	0.055381
F151	F	0.408589	-0.534966	-0.488388
F152	F	0.908589	-0.034966	0.011612
F153	F	0.416036	-0.331639	-0.303193
F154	F	0.916036	0.168361	0.196807
F155	F	0.958863	-0.988044	-0.504259
F156	F	1.458863	-0.488044	-0.004259
H157	H	1.024629	-0.847532	-0.264328
H158	H	1.524629	-0.347532	0.235672
F159	F	0.914201	-0.975773	-0.280915
F160	F	1.414201	-0.475773	0.219085
F161	F	1.096560	-0.993457	-0.471633
F162	F	1.596560	-0.493457	0.028367
F163	F	0.595730	-0.295511	-0.270271
F164	F	1.095730	0.204489	0.229729
H165	H	0.737591	-0.314080	-0.287181
H166	H	1.237591	0.185920	0.212819
F167	F	1.035908	-0.980581	-0.251927
F168	F	1.535908	-0.480581	0.248073
F169	F	1.091854	-0.852968	-0.474930
F170	F	1.591854	-0.352968	0.025070
H171	H	1.118927	-0.854786	-0.367848
H172	H	1.618927	-0.354786	0.132152
H173	H	1.117410	-0.981841	-0.363267
H174	H	1.617410	-0.481841	0.136733
H175	H	1.072661	-0.343708	-0.650813
H176	H	1.572661	0.156292	-0.150813
F177	F	1.078221	-0.338124	-0.793571
F178	F	1.578221	0.161876	-0.293571
H179	H	1.099601	-0.316487	-0.981996
H180	H	1.599601	0.183513	-0.481996
H181	H	1.094263	-0.321856	-1.115133
H182	H	1.594263	0.178144	-0.615133
