data_functionalizedCrystal
_audit_creation_method	'MofGen! by Chris Wilmer'
_symmetry_space_group_name_H-M	'P1'
_symmetry_Int_Tables_number	1
_symmetry_cell_setting	triclinic
loop_
_symmetry_equiv_pos_as_xyz
  x,y,z
_cell_length_a	11.792241
_cell_length_b	11.792254
_cell_length_c	10.868271
_cell_angle_alpha	90.005308
_cell_angle_beta	90.000107
_cell_angle_gamma	84.196007
loop_
_atom_site_label
_atom_site_type_symbol
_atom_site_fract_x
_atom_site_fract_y
_atom_site_fract_z
O1	O	-1.506915	-0.155568	-0.102203
O2	O	-1.176575	-0.171600	-0.102232
O3	O	-1.349754	0.001586	-0.102208
O4	O	-1.333736	-0.328754	-0.102227
O5	O	-1.349740	0.001592	0.102436
O6	O	-1.176561	-0.171594	0.102413
O7	O	-1.506901	-0.155561	0.102441
Zn8	Zn	-1.341729	-0.163576	0.134919
Zn9	Zn	-1.341748	-0.163585	-0.134709
O10	O	-1.333722	-0.328747	0.102418
C11	C	-1.134277	-0.170590	0.000087
C12	C	-1.008263	-0.167576	0.000076
N13	N	-1.341724	-0.163569	0.318933
C14	C	-1.348738	0.043880	0.000114
C15	C	-1.345718	0.169893	0.000112
C16	C	-1.549199	-0.156571	0.000120
C17	C	-1.675213	-0.159586	0.000123
C18	C	-0.777551	-0.162033	0.000112
C19	C	-0.905936	-0.165112	0.000092
C20	C	-1.334738	-0.371041	0.000093
C21	C	-1.337758	-0.497054	0.000086
C22	C	-1.343264	0.272229	0.000108
C23	C	-1.340196	0.400616	0.000096
N24	N	-1.341761	-0.163583	-0.318724
C25	C	-1.341742	-0.163583	0.569939
C26	C	-1.341728	-0.163579	0.430261
