data_functionalizedCrystal
_audit_creation_method	'MofGen! by Chris Wilmer'
_symmetry_space_group_name_H-M	'P1'
_symmetry_Int_Tables_number	1
_symmetry_cell_setting	triclinic
loop_
_symmetry_equiv_pos_as_xyz
  x,y,z
_cell_length_a	10.654550
_cell_length_b	10.723024
_cell_length_c	9.730223
_cell_angle_alpha	89.996766
_cell_angle_beta	89.999957
_cell_angle_gamma	84.476400
loop_
_atom_site_label
_atom_site_type_symbol
_atom_site_fract_x
_atom_site_fract_y
_atom_site_fract_z
O1	O	1.667813	0.175275	-0.114183
O2	O	2.167813	0.675275	0.385817
O3	O	1.302332	0.191974	-0.114208
O4	O	1.802332	0.691974	0.385792
O5	O	1.493503	0.002049	-0.114190
O6	O	1.993503	0.502049	0.385810
O7	O	1.476642	0.365199	-0.114202
O8	O	1.976642	0.865199	0.385798
O9	O	1.493490	0.002044	0.114390
O10	O	1.993490	0.502044	0.614390
O11	O	1.302319	0.191968	0.114372
O12	O	1.802319	0.691968	0.614372
O13	O	1.667800	0.175269	0.114396
O14	O	2.167800	0.675269	0.614396
Zn15	Zn	1.485058	0.183618	0.150676
Zn16	Zn	1.985058	0.683618	0.650676
Zn17	Zn	1.485074	0.183625	-0.150488
Zn18	Zn	1.985074	0.683625	0.349512
O19	O	1.476629	0.365194	0.114378
O20	O	1.976629	0.865194	0.614378
C21	C	1.255528	0.190745	0.000078
C22	C	1.755528	0.690745	0.500078
C23	C	1.116085	0.187077	0.000069
C24	C	1.616085	0.687077	0.500069
C25	C	1.036583	0.298901	0.000069
C26	C	1.536583	0.798901	0.500069
C27	C	0.905562	0.295447	0.000093
C28	C	1.405562	0.795447	0.500093
C29	C	0.933560	0.068334	0.000111
C30	C	1.433560	0.568334	0.500111
C31	C	1.064577	0.071789	0.000097
C32	C	1.564577	0.571789	0.500097
C33	C	1.492269	-0.044453	0.000098
C34	C	1.992269	0.455547	0.500098
C35	C	1.488598	-0.183008	0.000093
C36	C	1.988598	0.316992	0.500093
C37	C	1.595567	-0.257975	0.000098
C38	C	2.095567	0.242025	0.500098
C39	C	1.591776	-0.401179	0.000093
C40	C	2.091776	0.098821	0.500093
C41	C	1.714604	0.176498	0.000107
C42	C	2.214604	0.676498	0.500107
C43	C	1.854047	0.180167	0.000107
C44	C	2.354047	0.680167	0.500107
C45	C	1.477863	0.411696	0.000087
C46	C	1.977863	0.911696	0.500087
C47	C	1.481534	0.550251	0.000083
C48	C	1.981534	1.050251	0.500083
N49	N	1.485056	0.183613	0.356212
N50	N	1.985056	0.683613	0.856212
N51	N	1.485086	0.183621	-0.356024
N52	N	1.985086	0.683621	0.143976
C53	C	1.569735	0.099550	0.428146
C54	C	2.069735	0.599550	0.928146
C55	C	1.569748	0.099550	0.572029
C56	C	2.069748	0.599550	1.072029
C57	C	1.400397	0.267687	0.572032
C58	C	1.900397	0.767687	1.072032
C59	C	1.400380	0.267680	0.428151
C60	C	1.900380	0.767680	0.928151
H61	H	1.078515	0.392775	0.000057
H62	H	1.578515	0.892775	0.500057
F63	F	0.820955	0.414466	0.000096
F64	F	1.320955	0.914466	0.500096
F65	F	1.361830	-0.365560	0.000087
F66	F	1.861830	0.134440	0.500087
F67	F	1.659852	0.010075	0.351589
F68	F	2.159852	0.510075	0.851589
H69	H	1.638700	0.031098	0.630594
H70	H	2.138700	0.531098	1.130594
F71	F	1.365223	-0.237684	0.000072
F72	F	1.865223	0.262316	0.500072
H73	H	1.331458	0.336135	0.630619
H74	H	1.831458	0.836135	1.130619
F75	F	0.878730	-0.054357	0.000134
F76	F	1.378730	0.445643	0.500134
H77	H	1.129312	-0.019278	0.000100
H78	H	1.629312	0.480722	0.500100
F79	F	1.718943	-0.203299	0.000099
F80	F	2.218943	0.296701	0.500099
H81	H	1.331417	0.336134	0.369579
H82	H	1.831417	0.836134	0.869579
H83	H	1.683350	-0.465598	0.000104
H84	H	2.183350	0.034402	0.500104
