data_functionalizedCrystal
_audit_creation_method	'MofGen! by Chris Wilmer'
_symmetry_space_group_name_H-M	'P1'
_symmetry_Int_Tables_number	1
_symmetry_cell_setting	triclinic
loop_
_symmetry_equiv_pos_as_xyz
  x,y,z
_cell_length_a	13.897448
_cell_length_b	12.759395
_cell_length_c	12.759387
_cell_angle_alpha	90.020509
_cell_angle_beta	89.967288
_cell_angle_gamma	89.980771
loop_
_atom_site_label
_atom_site_type_symbol
_atom_site_fract_x
_atom_site_fract_y
_atom_site_fract_z
Zn1	Zn	-0.383924	-1.606247	-0.593991
Zn2	Zn	0.116076	-1.106247	-0.093991
Zn3	Zn	-0.545252	-1.606128	-0.418306
Zn4	Zn	-0.045252	-1.106128	0.081694
Zn5	Zn	-0.383977	-1.430545	-0.418328
Zn6	Zn	0.116023	-0.930545	0.081672
Zn7	Zn	-0.545184	-1.430528	-0.593945
Zn8	Zn	-0.045184	-0.930528	-0.093945
O9	O	-0.464584	-1.518362	-0.506142
O10	O	0.035416	-1.018362	-0.006142
O11	O	-0.405332	-1.753252	-0.570696
O12	O	0.094668	-1.253252	-0.070696
O13	O	-0.523909	-1.582794	-0.271287
O14	O	-0.023909	-1.082794	0.228713
O15	O	-0.248988	-1.453909	-0.441659
O16	O	0.251012	-0.953909	0.058341
O17	O	-0.523858	-1.753165	-0.441621
O18	O	-0.023858	-1.253165	0.058379
O19	O	-0.248950	-1.582996	-0.570718
O20	O	0.251050	-1.082996	-0.070718
O21	O	-0.405421	-1.453794	-0.271304
O22	O	0.094579	-0.953794	0.228696
O23	O	-0.405355	-1.283522	-0.441614
O24	O	0.094645	-0.783522	0.058386
O25	O	-0.523741	-1.453880	-0.740972
O26	O	-0.023741	-0.953880	-0.240972
O27	O	-0.523792	-1.283509	-0.570639
O28	O	-0.023792	-0.783509	-0.070639
O29	O	-0.405265	-1.582980	-0.741006
O30	O	0.094735	-1.082980	-0.241006
O31	O	-0.680225	-1.582778	-0.441576
O32	O	-0.180225	-1.082778	0.058424
O33	O	-0.680174	-1.453765	-0.570617
O34	O	-0.180174	-0.953765	-0.070617
C35	C	-0.715199	-1.518285	-0.506112
C36	C	-0.215199	-1.018285	-0.006112
C37	C	-0.822413	-1.518349	-0.506134
C38	C	-0.322413	-1.018349	-0.006134
C39	C	-0.464573	-1.245395	-0.506124
C40	C	0.035427	-0.745395	-0.006124
C41	C	-0.464591	-1.128618	-0.506142
C42	C	0.035409	-0.628618	-0.006142
C43	C	-0.464490	-1.518441	-0.780176
C44	C	0.035510	-1.018441	-0.280176
C45	C	-0.464449	-1.518475	-0.896953
C46	C	0.035551	-1.018475	-0.396953
C47	C	-1.018708	-1.518459	-0.506200
C48	C	-0.518708	-1.018459	-0.006200
C49	C	-0.909475	-1.518395	-0.506167
C50	C	-0.409475	-1.018395	-0.006167
C51	C	-0.212991	-1.518468	-0.506196
C52	C	0.287009	-1.018468	-0.006196
C53	C	-0.105777	-1.518513	-0.506219
C54	C	0.394223	-1.018513	-0.006219
C55	C	-0.464597	-1.792395	-0.506161
C56	C	0.035403	-1.292395	-0.006161
C57	C	-0.464602	-1.909172	-0.506169
C58	C	0.035398	-1.409172	-0.006169
C59	C	-0.588119	-1.128644	-0.640278
C60	C	-0.088119	-0.628644	-0.140278
C61	C	-0.649891	-1.073796	-0.707349
C62	C	-0.149891	-0.573796	-0.207349
C63	C	-0.649903	-0.964074	-0.707362
C64	C	-0.149903	-0.464074	-0.207362
C65	C	-0.588134	-0.909198	-0.640299
C66	C	-0.088134	-0.409198	-0.140299
C67	C	-0.526362	-0.964046	-0.573227
C68	C	-0.026362	-0.464046	-0.073227
C69	C	-0.526359	-1.073770	-0.573220
C70	C	-0.026359	-0.573770	-0.073220
C71	C	-0.402830	-0.964020	-0.439098
C72	C	0.097170	-0.464020	0.060902
C73	C	-0.402822	-1.073742	-0.439078
C74	C	0.097178	-0.573742	0.060922
C75	C	-0.341061	-0.909144	-0.372035
C76	C	0.158939	-0.409144	0.127965
C77	C	-0.279293	-0.963992	-0.304957
C78	C	0.220707	-0.463992	0.195043
C79	C	-0.279284	-1.073720	-0.304946
C80	C	0.220716	-0.573720	0.195054
C81	C	-0.341050	-1.128590	-0.372007
C82	C	0.158950	-0.628590	0.127993
C83	C	-0.341088	-1.652916	-0.897008
C84	C	0.158912	-1.152916	-0.397008
C85	C	-0.279393	-1.720151	-0.951896
C86	C	0.220607	-1.220151	-0.451896
C87	C	-0.279358	-1.720176	-1.061618
C88	C	0.220642	-1.220176	-0.561618
C89	C	-0.341022	-1.652958	-1.116454
C90	C	0.158978	-1.152958	-0.616454
C91	C	-0.402718	-1.585723	-1.061565
C92	C	0.097282	-1.085723	-0.561565
C93	C	-0.402748	-1.585707	-0.951841
C94	C	0.097252	-1.085707	-0.451841
C95	C	-0.526072	-1.451278	-1.061510
C96	C	-0.026072	-0.951278	-0.561510
C97	C	-0.526114	-1.451256	-0.951789
C98	C	-0.026114	-0.951256	-0.451789
C99	C	-0.587737	-1.384059	-1.116346
C100	C	-0.087737	-0.884059	-0.616346
C101	C	-0.649438	-1.316828	-1.061458
C102	C	-0.149438	-0.816828	-0.561458
C103	C	-0.649472	-1.316806	-0.951729
C104	C	-0.149472	-0.816806	-0.451729
C105	C	-0.587809	-1.384021	-0.896900
C106	C	-0.087809	-0.884021	-0.396900
C107	C	-0.464609	-1.518344	-0.233175
C108	C	0.035391	-1.018344	0.266825
C109	C	-0.464377	-1.518513	-0.116399
C110	C	0.035623	-1.018513	0.383601
H111	H	-0.588123	-1.217985	-0.640266
H112	H	-0.088123	-0.717985	-0.140266
H113	H	-0.229186	-1.774877	-0.907237
H114	H	0.270814	-1.274877	-0.407237
H115	H	-0.700181	-1.118488	-0.761952
H116	H	-0.200181	-0.618488	-0.261952
H117	H	-0.700198	-0.919417	-0.761982
H118	H	-0.200198	-0.419417	-0.261982
H119	H	-0.588141	-0.819857	-0.640324
H120	H	-0.088141	-0.319857	-0.140324
H121	H	-0.229001	-0.919303	-0.250364
H122	H	0.270999	-0.419303	0.249636
H123	H	-0.341120	-1.652912	-0.807667
H124	H	0.158880	-1.152912	-0.307667
H125	H	-0.341071	-0.819803	-0.372054
H126	H	0.158929	-0.319803	0.127946
H127	H	-0.229114	-1.774918	-1.106308
H128	H	0.270886	-1.274918	-0.606308
H129	H	-0.228975	-1.118371	-0.250335
H130	H	0.271025	-0.618371	0.249665
H131	H	-0.341052	-1.217931	-0.372002
H132	H	0.158948	-0.717931	0.127998
H133	H	-0.340980	-1.652975	-1.205795
H134	H	0.159020	-1.152975	-0.705795
H135	H	-0.587834	-1.384014	-0.807559
H136	H	-0.087834	-0.884014	-0.307559
H137	H	-0.587700	-1.384081	-1.205687
H138	H	-0.087700	-0.884081	-0.705687
H139	H	-0.699636	-1.262098	-1.106114
H140	H	-0.199636	-0.762098	-0.606114
H141	H	-0.699701	-1.262044	-0.907046
H142	H	-0.199701	-0.762044	-0.407046
