data_functionalizedCrystal
_audit_creation_method	'MofGen! by Chris Wilmer'
_symmetry_space_group_name_H-M	'P1'
_symmetry_Int_Tables_number	1
_symmetry_cell_setting	triclinic
loop_
_symmetry_equiv_pos_as_xyz
  x,y,z
_cell_length_a	19.121063
_cell_length_b	19.077105
_cell_length_c	19.077569
_cell_angle_alpha	94.700723
_cell_angle_beta	90.211718
_cell_angle_gamma	89.736948
loop_
_atom_site_label
_atom_site_type_symbol
_atom_site_fract_x
_atom_site_fract_y
_atom_site_fract_z
Zn1	Zn	-0.304834	-1.081170	-0.454357
Zn2	Zn	0.195166	-0.581170	0.045643
Zn3	Zn	-0.426418	-1.071348	-0.341455
Zn4	Zn	0.073582	-0.571348	0.158545
Zn5	Zn	-0.304844	-0.958552	-0.331752
Zn6	Zn	0.195156	-0.458552	0.168248
Zn7	Zn	-0.417334	-0.958619	-0.454202
Zn8	Zn	0.082666	-0.458619	0.045798
O9	O	-0.363357	-1.017422	-0.395441
O10	O	0.136643	-0.517422	0.104559
O11	O	-0.324760	-1.178361	-0.443505
O12	O	0.175240	-0.678361	0.056495
O13	O	-0.414097	-1.052247	-0.241673
O14	O	0.085903	-0.552247	0.258327
O15	O	-0.206882	-0.978900	-0.344020
O16	O	0.293118	-0.478900	0.155980
O17	O	-0.414087	-1.171145	-0.360557
O18	O	0.085913	-0.671145	0.139443
O19	O	-0.206875	-1.068987	-0.434097
O20	O	0.293125	-0.568987	0.065903
O21	O	-0.324777	-0.969376	-0.234544
O22	O	0.175223	-0.469376	0.265456
O23	O	-0.315969	-0.860067	-0.343870
O24	O	0.184031	-0.360067	0.156130
O25	O	-0.398605	-0.979014	-0.552718
O26	O	0.101395	-0.479014	-0.052718
O27	O	-0.398615	-0.860116	-0.433834
O28	O	0.101385	-0.360116	0.066166
O29	O	-0.315951	-1.069052	-0.552831
O30	O	0.184049	-0.569052	-0.052831
O31	O	-0.523173	-1.052312	-0.360407
O32	O	-0.023173	-0.552312	0.139593
O33	O	-0.516500	-0.969490	-0.443242
O34	O	-0.016500	-0.469490	0.056758
C35	C	-0.356307	-0.834553	-0.387783
C36	C	0.143693	-0.334553	0.112217
C37	C	-0.353308	-0.756321	-0.384524
C38	C	0.146692	-0.256321	0.115476
C39	C	-0.545237	-1.009862	-0.402876
C40	C	-0.045237	-0.509862	0.097124
C41	C	-0.623047	-1.006693	-0.406083
C42	C	-0.123047	-0.506693	0.093917
C43	C	-0.356264	-1.025136	-0.579027
C44	C	0.143736	-0.525136	-0.079027
C45	C	-0.353241	-1.028423	-0.657261
C46	C	0.146759	-0.528423	-0.157261
C47	C	-0.663054	-1.048362	-0.364501
C48	C	-0.163054	-0.548362	0.135499
C49	C	-0.736165	-1.045386	-0.367521
C50	C	-0.236165	-0.545386	0.132479
C51	C	-0.769267	-1.000738	-0.412121
C52	C	-0.269267	-0.500738	0.087879
C53	C	-0.729255	-0.959067	-0.453708
C54	C	-0.229255	-0.459067	0.046292
C55	C	-0.656146	-0.962047	-0.450691
C56	C	-0.156146	-0.462047	0.049309
C57	C	-0.989838	-0.989584	-0.423390
C58	C	-0.489838	-0.489584	0.076610
C59	C	-1.062953	-0.986605	-0.426402
C60	C	-0.562953	-0.486605	0.073598
C61	C	-1.069857	-1.072926	-0.340216
C62	C	-0.569857	-0.572926	0.159784
C63	C	-0.996746	-1.075899	-0.337200
C64	C	-0.496746	-0.575899	0.162800
C65	C	-0.956740	-1.034231	-0.378790
C66	C	-0.456740	-0.534231	0.121210
C67	C	-0.843998	-0.997693	-0.415208
C68	C	-0.343998	-0.497693	0.084792
C69	C	-0.882011	-1.037280	-0.375706
C70	C	-0.382011	-0.537280	0.124294
C71	C	-0.180768	-1.025032	-0.387994
C72	C	0.319232	-0.525032	0.112006
C73	C	-0.102959	-1.028274	-0.384820
C74	C	0.397041	-0.528274	0.115180
C75	C	-0.370435	-1.201006	-0.403130
C76	C	0.129565	-0.701006	0.096870
C77	C	-0.373452	-1.279238	-0.406407
C78	C	0.126548	-0.779238	0.093593
C79	C	-0.394998	-0.719605	-0.429764
C80	C	0.105002	-0.219605	0.070236
C81	C	-0.392170	-0.646098	-0.426704
C82	C	0.107830	-0.146098	0.073296
C83	C	-0.347655	-0.609308	-0.378401
C84	C	0.152345	-0.109308	0.121599
C85	C	-0.305960	-0.646028	-0.333160
C86	C	0.194040	-0.146028	0.166840
C87	C	-0.308785	-0.719534	-0.336223
C88	C	0.191215	-0.219534	0.163777
C89	C	-0.334582	-0.389465	-0.364228
C90	C	0.165418	0.110535	0.135772
C91	C	-0.331761	-0.315953	-0.361167
C92	C	0.168239	0.184047	0.138833
C93	C	-0.417971	-0.316028	-0.454713
C94	C	0.082029	0.183972	0.045287
C95	C	-0.420794	-0.389535	-0.457769
C96	C	0.079206	0.110465	0.042231
C97	C	-0.379097	-0.426250	-0.412530
C98	C	0.120903	0.073750	0.087470
N99	N	-0.344765	-0.534172	-0.375272
N100	N	0.155235	-0.034172	0.124728
N101	N	-0.381984	-0.501385	-0.415663
N102	N	0.118016	-0.001385	0.084337
C103	C	-0.394850	-0.983090	-0.693957
C104	C	0.105150	-0.483090	-0.193957
C105	C	-0.392010	-0.986185	-0.767465
C106	C	0.107990	-0.486185	-0.267465
C107	C	-0.347556	-1.034609	-0.804277
C108	C	0.152444	-0.534609	-0.304277
C109	C	-0.305945	-1.079946	-0.767575
C110	C	0.194055	-0.579946	-0.267575
C111	C	-0.308789	-1.076855	-0.694068
C112	C	0.191211	-0.576855	-0.194068
C113	C	-0.334439	-1.048885	-1.024126
C114	C	0.165561	-0.548885	-0.524126
C115	C	-0.331596	-1.051971	-1.097638
C116	C	0.168404	-0.551971	-0.597638
C117	C	-0.417662	-0.958210	-1.097523
C118	C	0.082338	-0.458210	-0.597523
C119	C	-0.420500	-0.955120	-1.024014
C120	C	0.079500	-0.455120	-0.524014
C121	C	-0.378891	-1.000460	-0.987320
C122	C	0.121109	-0.500460	-0.487320
N123	N	-0.344650	-1.037771	-0.879414
N124	N	0.155350	-0.537771	-0.379414
N125	N	-0.381801	-0.997300	-0.912184
N126	N	0.118199	-0.497300	-0.412184
C127	C	-0.370375	-1.009781	-0.212569
C128	C	0.129625	-0.509781	0.287431
C129	C	-0.373206	-1.006639	-0.134334
C130	C	0.126794	-0.506639	0.365666
H131	H	-0.768735	-1.079317	-0.333660
H132	H	-0.268735	-0.579317	0.166340
H133	H	-0.969795	-1.112256	-0.300884
H134	H	-0.469795	-0.612256	0.199116
C135	C	-0.880411	-0.948579	-0.464263
C136	C	-0.380411	-0.448579	0.035737
H137	H	-0.846116	-0.924188	-0.488601
H138	H	-0.346116	-0.424188	0.011399
H139	H	-0.908833	-0.915641	-0.437209
H140	H	-0.408833	-0.415641	0.062791
H141	H	-0.908741	-0.975615	-0.497257
H142	H	-0.408741	-0.475615	0.002743
C143	C	-0.263014	-1.126716	-0.653702
C144	C	0.236986	-0.626716	-0.153702
H145	H	-0.236125	-1.155993	-0.686152
H146	H	0.263875	-0.655993	-0.186152
H147	H	-0.292082	-1.155061	-0.627402
H148	H	0.207918	-0.655061	-0.127402
H149	H	-0.232582	-1.099850	-0.622656
H150	H	0.267418	-0.599850	-0.122656
C151	C	-0.765663	-0.909956	-0.502770
C152	C	-0.265663	-0.409956	-0.002770
H153	H	-0.731363	-0.885571	-0.527108
H154	H	-0.231363	-0.385571	-0.027108
H155	H	-0.794082	-0.877013	-0.475718
H156	H	-0.294082	-0.377013	0.024282
H157	H	-0.793996	-0.936990	-0.535763
H158	H	-0.293996	-0.436990	-0.035763
H159	H	-0.855056	-1.073636	-0.339396
H160	H	-0.355056	-0.573636	0.160604
C161	C	-1.099364	-0.937496	-0.475470
C162	C	-0.599364	-0.437496	0.024530
H163	H	-1.065068	-0.913112	-0.499813
H164	H	-0.565068	-0.413112	0.000187
H165	H	-1.127783	-0.904552	-0.448419
H166	H	-0.627783	-0.404552	0.051581
H167	H	-1.127698	-0.964534	-0.508459
H168	H	-0.627698	-0.464534	-0.008459
C169	C	-0.463434	-0.908345	-1.137885
C170	C	0.036566	-0.408345	-0.637885
H171	H	-0.490313	-0.879060	-1.105433
H172	H	0.009687	-0.379060	-0.605433
H173	H	-0.493863	-0.935203	-1.168933
H174	H	0.006137	-0.435203	-0.668933
H175	H	-0.434361	-0.879995	-1.164182
H176	H	0.065639	-0.379995	-0.664182
C177	C	-0.443764	-0.929837	-0.653472
C178	C	0.056236	-0.429837	-0.153472
H179	H	-0.468147	-0.903290	-0.685858
H180	H	0.031853	-0.403290	-0.185858
H181	H	-0.416928	-0.899073	-0.622412
H182	H	0.083072	-0.399073	-0.122412
H183	H	-0.476412	-0.954302	-0.627179
H184	H	0.023588	-0.454302	-0.127179
C185	C	-0.626647	-1.097478	-0.315442
C186	C	-0.126647	-0.597478	0.184558
H187	H	-0.660948	-1.121872	-0.291116
H188	H	-0.160948	-0.621872	0.208884
H189	H	-0.598312	-1.070453	-0.282449
H190	H	-0.098312	-0.570453	0.217551
H191	H	-0.598230	-1.130422	-0.342503
H192	H	-0.098230	-0.630422	0.157497
H193	H	-0.300634	-0.419348	-0.327386
H194	H	0.199366	0.080652	0.172614
H195	H	-0.269712	-0.616068	-0.293833
H196	H	0.230288	-0.116068	0.206167
H197	H	-0.623572	-0.928117	-0.484552
H198	H	-0.123572	-0.428117	0.015448
C199	C	-0.443968	-0.760071	-0.482892
C200	C	0.056032	-0.260071	0.017108
H201	H	-0.439687	-0.809107	-0.478233
H202	H	0.060313	-0.309107	0.021767
H203	H	-0.431510	-0.750447	-0.529284
H204	H	0.068490	-0.250447	-0.029284
H205	H	-0.490926	-0.745630	-0.473925
H206	H	0.009074	-0.245630	0.026075
C207	C	-0.282699	-1.105244	-1.138130
C208	C	0.217301	-0.605244	-0.638130
H209	H	-0.258331	-1.131810	-1.105749
H210	H	0.241669	-0.631810	-0.605749
H211	H	-0.250049	-1.080800	-1.164432
H212	H	0.249951	-0.580800	-0.664432
H213	H	-0.309560	-1.135999	-1.169182
H214	H	0.190440	-0.635999	-0.669182
H215	H	-0.957271	-0.955655	-0.457252
H216	H	-0.457271	-0.455655	0.042748
C217	C	-0.257047	-1.133214	-0.808062
C218	C	0.242953	-0.633214	-0.308062
H219	H	-0.232678	-1.159775	-0.775678
H220	H	0.267322	-0.659775	-0.275678
H221	H	-0.224398	-1.108769	-0.834365
H222	H	0.275602	-0.608769	-0.334365
H223	H	-0.283904	-1.163973	-0.839114
H224	H	0.216096	-0.663973	-0.339114
C225	C	-0.437786	-0.936327	-0.807832
C226	C	0.062214	-0.436327	-0.307832
H227	H	-0.429736	-0.945110	-0.856883
H228	H	0.070264	-0.445110	-0.356883
H229	H	-0.426190	-0.888954	-0.793394
H230	H	0.073810	-0.388954	-0.293394
H231	H	-0.485685	-0.944171	-0.798131
H232	H	0.014315	-0.444171	-0.298131
C233	C	-0.288668	-1.098753	-0.983771
C234	C	0.211332	-0.598753	-0.483771
H235	H	-0.261781	-1.128029	-1.016224
H236	H	0.238219	-0.628029	-0.516224
H237	H	-0.317737	-1.127101	-0.957474
H238	H	0.182263	-0.627101	-0.457474
H239	H	-0.258234	-1.071893	-0.952723
H240	H	0.241766	-0.571893	-0.452723
H241	H	-1.102437	-1.106850	-0.306358
H242	H	-0.602437	-0.606850	0.193642
H243	H	-0.456710	-0.915699	-0.994049
H244	H	0.043290	-0.415699	-0.494049
H245	H	-0.426119	-0.616208	-0.463543
H246	H	0.073881	-0.116208	0.036457
H247	H	-0.457045	-0.419485	-0.497101
H248	H	0.042955	0.080515	0.002899
H249	H	-0.274832	-0.749428	-0.299387
H250	H	0.225168	-0.249428	0.200613
H251	H	-0.295504	-0.286001	-0.321837
H252	H	0.204496	0.213999	0.178163
C253	C	-0.463827	-0.275642	-0.504478
C254	C	0.036173	0.224358	-0.004478
H255	H	-0.455766	-0.226595	-0.495742
H256	H	0.044234	0.273405	0.004258
H257	H	-0.511710	-0.285297	-0.496528
H258	H	-0.011710	0.214703	0.003472
H259	H	-0.452282	-0.290111	-0.551874
H260	H	0.047718	0.209889	-0.051874
