data_functionalizedCrystal
_audit_creation_method	'MofGen! by Chris Wilmer'
_symmetry_space_group_name_H-M	'P1'
_symmetry_Int_Tables_number	1
_symmetry_cell_setting	triclinic
loop_
_symmetry_equiv_pos_as_xyz
  x,y,z
_cell_length_a	15.995350
_cell_length_b	15.995350
_cell_length_c	14.472310
_cell_angle_alpha	90.001162
_cell_angle_beta	89.990621
_cell_angle_gamma	83.492375
loop_
_atom_site_label
_atom_site_type_symbol
_atom_site_fract_x
_atom_site_fract_y
_atom_site_fract_z
O1	O	1.110997	0.107921	-0.076758
O2	O	0.867221	0.121248	-0.076776
O3	O	0.995773	-0.007303	-0.076766
O4	O	0.982445	0.236472	-0.076769
O5	O	0.995740	-0.007296	0.076916
O6	O	0.867188	0.121256	0.076906
O7	O	1.110963	0.107928	0.076924
Cu8	Cu	0.989073	0.114593	0.090947
Cu9	Cu	0.989112	0.114584	-0.090800
O10	O	0.982412	0.236480	0.076913
C11	C	0.836010	0.120701	0.000062
C12	C	0.743060	0.119049	0.000055
C13	C	0.405312	0.113117	0.000074
C14	C	0.452746	0.021565	0.000418
C15	C	0.549436	0.023217	0.000065
C16	C	0.572873	0.116060	0.000065
C17	C	0.531804	0.161212	-0.087692
C18	C	0.435169	0.158912	-0.087759
C19	C	0.434792	0.160812	0.087007
C20	C	0.531737	0.160790	0.088160
C21	C	0.667570	0.117727	0.000057
C22	C	0.310614	0.111452	0.000076
C23	C	0.995205	-0.038494	0.000073
C24	C	0.993553	-0.131444	0.000068
C25	C	0.987621	-0.469192	0.000071
C26	C	0.896069	-0.421758	-0.000281
C27	C	0.897721	-0.325068	0.000066
C28	C	0.990564	-0.301631	0.000069
C29	C	1.035701	-0.342705	0.087831
C30	C	1.033401	-0.439340	0.087904
C31	C	1.035330	-0.439707	-0.086861
C32	C	1.035309	-0.342762	-0.088021
C33	C	0.992231	-0.206934	0.000071
C34	C	0.985956	-0.563890	0.000075
C35	C	1.142175	0.108476	0.000083
C36	C	1.235125	0.110127	0.000084
C37	C	0.982980	0.267671	0.000072
C38	C	0.984631	0.360621	0.000071
N39	N	0.989051	0.114598	0.218778
N40	N	0.989140	0.114572	-0.218631
C41	C	0.989111	0.114581	0.592869
C42	C	0.920095	0.183135	0.553698
C43	C	0.920254	0.183385	0.446610
C44	C	0.989081	0.114590	0.407278
C45	C	1.076445	0.133671	0.446122
C46	C	1.076057	0.134159	0.553243
C47	C	0.971542	0.026741	0.553398
C48	C	0.969538	0.027327	0.446270
C49	C	0.989069	0.114593	0.302390
C50	C	0.989128	0.114579	0.697757
H51	H	0.547101	0.228494	0.093461
C52	C	0.849433	-0.287411	0.085189
H53	H	0.850270	-0.228119	0.085686
H54	H	0.875384	-0.310889	0.139782
H55	H	0.792841	-0.299982	0.082604
C56	C	0.391891	0.251999	0.087810
H57	H	0.356180	0.260994	0.035456
H58	H	0.433560	0.289819	0.085880
H59	H	0.359448	0.261432	0.142582
C60	C	0.391601	0.249708	-0.093163
H61	H	0.432985	0.287835	-0.095315
H62	H	0.357073	0.261269	-0.040248
H63	H	0.357877	0.256038	-0.147285
H64	H	1.129029	0.085068	0.420643
C65	C	0.849777	-0.286670	-0.084911
H66	H	0.829109	-0.330160	-0.119954
H67	H	0.886678	-0.258381	-0.122043
H68	H	0.803945	-0.247790	-0.065156
H69	H	0.433166	-0.014865	-0.062168
C70	C	1.127842	-0.323619	0.092253
H71	H	1.139628	-0.290349	0.040494
H72	H	1.164148	-0.374906	0.091442
H73	H	1.136588	-0.293810	0.147550
C74	C	0.550890	0.253353	-0.092111
H75	H	0.584158	0.265131	-0.040354
H76	H	0.499603	0.289659	-0.091295
H77	H	0.580703	0.262108	-0.147409
C78	C	1.124198	-0.482909	0.093304
H79	H	1.162324	-0.441525	0.095451
H80	H	1.135760	-0.517429	0.040388
H81	H	1.130526	-0.516639	0.147426
H82	H	1.000459	-0.457639	0.153505
C83	C	0.832077	0.168033	0.588515
H84	H	0.791329	0.210065	0.564087
H85	H	0.830943	0.170570	0.654087
H86	H	0.819651	0.114144	0.568833
C87	C	0.993308	-0.304375	0.176057
H88	H	0.948108	-0.263351	0.159596
H89	H	1.033287	-0.278634	0.211568
H90	H	0.972355	-0.347498	0.211427
H91	H	1.005412	-0.460250	-0.153379
H92	H	1.103014	-0.327400	-0.093317
H93	H	0.416874	0.125979	-0.153359
C94	C	0.846645	-0.446804	-0.085292
H95	H	0.881396	-0.486417	-0.121331
H96	H	0.829814	-0.398230	-0.121433
H97	H	0.798234	-0.471238	-0.065552
H98	H	1.091540	0.198219	0.578220
H99	H	0.859626	-0.441349	0.062299
C100	C	1.033029	-0.044826	0.410111
H101	H	1.019703	-0.096748	0.434762
H102	H	1.088211	-0.035640	0.428679
H103	H	1.030333	-0.046610	0.344576
H104	H	1.002307	-0.315516	-0.152945
C105	C	1.126514	-0.482618	-0.087665
H106	H	1.135499	-0.518334	-0.035310
H107	H	1.164341	-0.440956	-0.085738
H108	H	1.135946	-0.515057	-0.142436
H109	H	0.855314	0.172016	0.420349
C110	C	0.935040	0.270700	0.590041
H111	H	0.983159	0.265661	0.628980
H112	H	0.887243	0.294013	0.624142
H113	H	0.943957	0.306444	0.539415
H114	H	0.931473	0.248569	0.420976
C115	C	0.587093	-0.025051	-0.085069
H116	H	0.543288	-0.045740	-0.119578
H117	H	0.626062	-0.070872	-0.065504
H118	H	0.615151	0.011690	-0.122661
H119	H	1.129018	0.086196	0.579154
C120	C	0.568600	0.116258	0.175869
H121	H	0.543464	0.143603	0.228925
H122	H	0.627673	0.118501	0.177490
H123	H	0.557390	0.059192	0.175308
C124	C	0.587828	-0.024729	0.085045
H125	H	0.544335	-0.045399	0.120093
H126	H	0.616110	0.012175	0.122170
H127	H	0.626712	-0.070559	0.065297
C128	C	0.427702	-0.027871	0.085433
H129	H	0.388089	0.006876	0.121478
H130	H	0.476277	-0.044703	0.121566
H131	H	0.403269	-0.076280	0.065700
C132	C	1.039524	-0.042180	0.587623
H133	H	1.078430	-0.017589	0.625782
H134	H	1.068308	-0.068619	0.536109
H135	H	1.013773	-0.082841	0.622114
C136	C	1.097862	0.219226	0.409878
H137	H	1.053681	0.243426	0.371086
H138	H	1.148822	0.211335	0.375643
H139	H	1.104277	0.255708	0.460554
H140	H	0.909219	0.008392	0.580461
C141	C	0.882720	0.007761	0.411981
H142	H	0.858480	0.052577	0.374055
H143	H	0.847103	0.001592	0.463479
H144	H	0.889020	-0.042954	0.377234
H145	H	0.560193	0.129845	-0.153002
H146	H	0.414242	0.130885	0.153524
