data_functionalizedCrystal
_audit_creation_method	'MofGen! by Chris Wilmer'
_symmetry_space_group_name_H-M	'P1'
_symmetry_Int_Tables_number	1
_symmetry_cell_setting	triclinic
loop_
_symmetry_equiv_pos_as_xyz
  x,y,z
_cell_length_a	12.645331
_cell_length_b	12.645330
_cell_length_c	17.639306
_cell_angle_alpha	101.188554
_cell_angle_beta	78.774927
_cell_angle_gamma	90.017906
loop_
_atom_site_label
_atom_site_type_symbol
_atom_site_fract_x
_atom_site_fract_y
_atom_site_fract_z
Zn1	Zn	1.741818	-0.543221	-0.446944
Zn2	Zn	1.705894	-0.684671	-0.314781
Zn3	Zn	1.528728	-0.507423	-0.314784
Zn4	Zn	1.564506	-0.720435	-0.446911
O5	O	1.635237	-0.613938	-0.380855
O6	O	1.885404	-0.561999	-0.429425
O7	O	1.652385	-0.631210	-0.204175
O8	O	1.557056	-0.363829	-0.332330
O9	O	1.859010	-0.665922	-0.332325
O10	O	1.713613	-0.390129	-0.429428
O11	O	1.522222	-0.500987	-0.204177
O12	O	1.385123	-0.535666	-0.332298
O13	O	1.618034	-0.726876	-0.557521
O14	O	1.411409	-0.692164	-0.429371
O15	O	1.748305	-0.596678	-0.557546
O16	O	1.687077	-0.837758	-0.332293
O17	O	1.583200	-0.864034	-0.429368
C18	C	1.359800	-0.613912	-0.380831
C19	C	1.241973	-0.613932	-0.380840
C20	C	1.180546	-0.515378	-0.319871
C21	C	1.058043	-0.515132	-0.320080
C22	C	1.096748	-0.606765	-0.464277
C23	C	1.219243	-0.606049	-0.463896
C24	C	1.190884	-0.720110	-0.359159
C25	C	1.067786	-0.719035	-0.357351
C26	C	1.635156	-0.889364	-0.380844
C27	C	1.635226	-1.007200	-0.380865
C28	C	1.570265	-1.191389	-0.442124
C29	C	1.569795	-1.068777	-0.441927
C30	C	1.582413	-1.029207	-0.297567
C31	C	1.582016	-1.151906	-0.297938
C32	C	1.753315	-1.180083	-0.402230
C33	C	1.753121	-1.057970	-0.404052
C34	C	1.911748	-0.613964	-0.380879
C35	C	2.029581	-0.613976	-0.380889
C36	C	1.691168	-0.669759	-0.587014
C37	C	1.715002	-0.693547	-0.674867
C38	C	1.635351	-0.337440	-0.380883
C39	C	1.635399	-0.219613	-0.380895
C40	C	1.454580	-0.432829	-0.963834
C41	C	1.477000	-0.455203	-1.046385
C42	C	1.612525	-0.590790	-1.046363
C43	C	1.590120	-0.568423	-0.963810
C44	C	1.511145	-0.489442	-0.922552
C45	C	1.646685	-0.625037	-0.922528
C46	C	1.624278	-0.602675	-0.839982
C47	C	1.545305	-0.523700	-0.798719
C48	C	1.488738	-0.467081	-0.840006
C49	C	1.725654	-0.704023	-0.963788
C50	C	1.782219	-0.760637	-0.922506
C51	C	1.759818	-0.738270	-0.839959
C52	C	1.680845	-0.659295	-0.798695
C53	C	1.816385	-0.794890	-0.798671
C54	C	1.793977	-0.772528	-0.716125
C55	C	1.658437	-0.636933	-0.716149
C56	C	1.579584	-0.558257	-0.175497
C57	C	1.555955	-0.534170	-0.087645
H58	H	1.205549	-0.731127	-0.299364
Cl59	Cl	1.820888	-1.252698	-0.494418
H60	H	1.496310	-0.993606	-0.279166
Cl61	Cl	1.071355	-0.715738	-0.536365
Cl62	Cl	1.624842	-1.048075	-0.537289
H63	H	1.032634	-0.436011	-0.334478
H64	H	1.390282	-0.368503	-0.930239
H65	H	1.626175	-1.168770	-0.250763
Cl66	Cl	1.435532	-1.017716	-0.420107
Cl67	Cl	1.234077	-0.393852	-0.341807
H68	H	1.483872	-1.218506	-0.428169
Cl69	Cl	0.997125	-0.728081	-0.262601
Cl70	Cl	1.559164	-0.537630	-0.664276
H71	H	1.527054	-0.505502	-0.731505
Cl72	Cl	1.651790	-0.964569	-0.225204
Cl73	Cl	1.447898	-1.188642	-0.270035
Cl74	Cl	1.037824	-0.835620	-0.420906
Cl75	Cl	1.828673	-1.206192	-0.333393
H76	H	1.231954	-0.793256	-0.403567
Cl77	Cl	1.813983	-1.038630	-0.498700
Cl78	Cl	1.389465	-0.367777	-0.788133
H79	H	1.806012	-1.016107	-0.362704
H80	H	1.605804	-1.237605	-0.504092
H81	H	1.261691	-0.675961	-0.510896
Cl82	Cl	1.405912	-0.383989	-1.098280
H83	H	1.840053	-0.818615	-0.682513
Cl84	Cl	1.711799	-0.690081	-1.098238
Cl85	Cl	1.753827	-0.732131	-1.067561
Cl86	Cl	1.881494	-0.859927	-0.974380
H87	H	1.011150	-0.516974	-0.258259
Cl88	Cl	1.915650	-0.894189	-0.850548
Cl89	Cl	1.200036	-0.517769	-0.224102
Cl90	Cl	1.057188	-0.489536	-0.493082
Cl91	Cl	1.271098	-0.487279	-0.492191
