data_functionalizedCrystal
_audit_creation_method	'MofGen! by Chris Wilmer'
_symmetry_space_group_name_H-M	'P1'
_symmetry_Int_Tables_number	1
_symmetry_cell_setting	triclinic
loop_
_symmetry_equiv_pos_as_xyz
  x,y,z
_cell_length_a	14.971486
_cell_length_b	15.995292
_cell_length_c	13.448316
_cell_angle_alpha	89.996588
_cell_angle_beta	89.998199
_cell_angle_gamma	83.541372
loop_
_atom_site_label
_atom_site_type_symbol
_atom_site_fract_x
_atom_site_fract_y
_atom_site_fract_z
O1	O	1.186798	0.109119	-0.082570
O2	O	0.926380	0.122187	-0.082596
O3	O	1.063735	-0.006231	-0.082584
O4	O	1.049444	0.237537	-0.082583
O5	O	1.063718	-0.006239	0.082800
O6	O	0.926363	0.122179	0.082787
O7	O	1.186781	0.109112	0.082814
Cu8	Cu	1.056571	0.115644	0.097901
Cu9	Cu	1.056591	0.115654	-0.097684
O10	O	1.049426	0.237529	0.082801
C11	C	0.893048	0.121598	0.000092
C12	C	0.793753	0.119847	0.000082
C13	C	1.063145	-0.037431	0.000105
C14	C	1.061401	-0.130386	0.000098
C15	C	0.736425	0.195289	0.000084
C16	C	0.643128	0.193638	0.000098
C17	C	0.607161	0.116545	0.000104
C18	C	0.664496	0.041098	0.000105
C19	C	0.757792	0.042749	0.000098
C20	C	0.470038	0.037661	0.000119
C21	C	0.376737	0.036009	0.000125
C22	C	0.355375	0.188550	0.000120
C23	C	0.448670	0.190202	0.000112
C24	C	0.505999	0.114754	0.000111
C25	C	1.054990	-0.468130	0.000106
C26	C	1.154129	-0.444719	0.000485
C27	C	1.156014	-0.348041	0.000109
C28	C	1.058171	-0.300571	0.000102
C29	C	1.008616	-0.329717	-0.094342
C30	C	1.007423	-0.426509	-0.094417
C31	C	1.005379	-0.426377	0.093655
C32	C	1.009053	-0.329881	0.094900
C33	C	1.059964	-0.205873	0.000097
C34	C	1.053195	-0.562828	0.000105
C35	C	1.220114	0.109700	0.000123
C36	C	1.319408	0.111451	0.000127
C37	C	1.050017	0.268729	0.000110
C38	C	1.051760	0.361684	0.000111
N39	N	1.056563	0.115637	0.235466
N40	N	1.056606	0.115654	-0.235249
C41	C	1.117402	0.058797	0.287511
C42	C	1.117408	0.058797	0.391615
C43	C	1.056578	0.115641	0.443670
C44	C	0.995732	0.172483	0.391617
C45	C	0.995722	0.172479	0.287516
C46	C	0.995756	0.172489	0.608597
C47	C	0.995766	0.172494	0.712706
C48	C	1.117442	0.058806	0.712696
C49	C	1.117433	0.058802	0.608595
C50	C	1.056588	0.115646	0.556549
H51	H	0.765701	0.258067	0.000078
H52	H	1.166969	0.012520	0.566211
N53	N	1.179487	0.000694	0.234325
N54	N	1.178219	-0.076695	0.245968
H55	H	1.222046	-0.117745	0.208395
H56	H	1.195067	-0.329595	-0.067703
H57	H	1.192335	-0.472681	0.068216
H58	H	0.937637	-0.296984	0.100598
N59	N	0.933579	0.230554	0.234364
N60	N	0.934783	0.307952	0.245982
H61	H	0.890890	0.348968	0.208445
H62	H	1.166947	0.012513	0.433990
N63	N	0.913830	-0.444006	0.094450
N64	N	0.862927	-0.420380	0.023765
H65	H	0.798273	-0.432832	0.024320
N66	N	1.179561	0.000720	0.765869
N67	N	1.179542	0.000708	0.858816
H68	H	1.223402	-0.040321	0.896375
H69	H	0.477951	0.252978	0.000098
N70	N	0.933607	0.230543	0.555417
N71	N	0.878091	0.203890	0.497338
H72	H	0.834201	0.244892	0.459777
H73	H	0.946231	0.218781	0.755084
H74	H	0.347456	-0.026767	0.000131
N75	N	0.584581	0.270708	0.000106
N76	N	0.616706	0.339536	0.000096
H77	H	0.575358	0.393971	0.000103
N78	N	0.933589	0.230555	0.444772
N79	N	0.879270	0.281299	0.398286
H80	H	0.835380	0.322315	0.435824
N81	N	1.054296	-0.306516	0.182550
N82	N	1.013339	-0.258648	0.245019
H83	H	1.045292	-0.242135	0.306920
H84	H	0.516714	-0.023777	0.000120
N85	N	0.296812	0.265616	0.000151
N86	N	0.242383	0.281706	0.069880
H87	H	0.201021	0.336133	0.069905
N88	N	0.627760	-0.037652	0.000132
N89	N	0.578087	-0.055593	0.069851
H90	H	0.552143	-0.111212	0.069870
N91	N	1.050494	-0.460096	-0.182980
N92	N	1.081225	-0.412026	-0.244301
H93	H	1.111646	-0.435742	-0.306850
N94	N	0.816341	-0.034321	0.000107
N95	N	0.784220	-0.103149	0.000117
H96	H	0.825569	-0.157583	0.000129
H97	H	1.192137	-0.473695	-0.066857
N98	N	1.204702	-0.324137	0.085041
N99	N	1.237526	-0.378907	0.145009
H100	H	1.271918	-0.362029	0.204993
H101	H	0.934734	-0.441132	-0.098702
H102	H	0.936618	-0.297922	-0.097858
H103	H	1.043043	-0.309619	-0.164621
N104	N	1.044330	-0.461801	0.183450
N105	N	1.109136	-0.518258	0.179587
H106	H	1.136654	-0.543280	0.243000
