data_functionalizedCrystal
_audit_creation_method	'MofGen! by Chris Wilmer'
_symmetry_space_group_name_H-M	'P1'
_symmetry_Int_Tables_number	1
_symmetry_cell_setting	triclinic
loop_
_symmetry_equiv_pos_as_xyz
  x,y,z
_cell_length_a	21.295418
_cell_length_b	21.295418
_cell_length_c	21.295411
_cell_angle_alpha	90.027030
_cell_angle_beta	90.035622
_cell_angle_gamma	90.043213
loop_
_atom_site_label
_atom_site_type_symbol
_atom_site_fract_x
_atom_site_fract_y
_atom_site_fract_z
Zn1	Zn	0.962319	-0.250371	0.356241
Zn2	Zn	0.962242	-0.355636	0.250969
Zn3	Zn	0.857057	-0.250414	0.250951
Zn4	Zn	0.857017	-0.355636	0.356166
O5	O	0.909659	-0.303014	0.303582
O6	O	1.050398	-0.264317	0.342316
O7	O	0.948273	-0.341696	0.162878
O8	O	0.871069	-0.162319	0.264941
O9	O	1.050342	-0.341655	0.264973
O10	O	0.948405	-0.162287	0.342298
O11	O	0.870994	-0.264390	0.162864
O12	O	0.768962	-0.264389	0.264869
O13	O	0.871001	-0.341654	0.444265
O14	O	0.768933	-0.341695	0.342170
O15	O	0.948366	-0.264317	0.444320
O16	O	0.948235	-0.443725	0.264900
O17	O	0.870927	-0.443725	0.342188
C18	C	0.746107	-0.303047	0.303509
C19	C	0.676139	-0.303077	0.303493
C20	C	0.909585	-0.466566	0.303552
C21	C	0.909611	-0.536534	0.303560
C22	C	0.950064	-1.035971	0.263440
C23	C	0.950040	-0.970229	0.263425
C24	C	0.909747	-0.937373	0.303626
C25	C	0.869464	-0.970266	0.343833
C26	C	0.869485	-1.036007	0.343843
N27	N	0.904851	-0.834125	0.358707
N28	N	0.904835	-0.771673	0.358697
C29	C	0.909682	-0.739299	0.303599
N30	N	0.914558	-0.771734	0.248512
N31	N	0.914577	-0.834192	0.248523
C32	C	0.909720	-0.866088	0.303620
C33	C	0.949934	-0.635128	0.263375
C34	C	0.949905	-0.569385	0.263359
C35	C	0.869332	-0.569423	0.343773
C36	C	0.869357	-0.635166	0.343784
C37	C	0.909661	-0.668014	0.303586
C38	C	0.643274	-0.343383	0.343684
C39	C	0.577531	-0.343368	0.343712
C40	C	0.544657	-0.303052	0.303539
C41	C	0.577530	-0.262738	0.263345
C42	C	0.643271	-0.262750	0.263323
N43	N	0.441388	-0.298132	0.248481
N44	N	0.378937	-0.298124	0.248504
C45	C	0.346582	-0.303012	0.303605
N46	N	0.379038	-0.307921	0.358684
N47	N	0.441495	-0.307932	0.358660
C48	C	0.473371	-0.303034	0.303559
C49	C	0.242431	-0.343304	0.343830
C50	C	0.176687	-0.343284	0.343859
C51	C	0.176687	-0.262657	0.263487
C52	C	0.242430	-0.262674	0.263463
C53	C	0.275298	-0.303001	0.303634
C54	C	1.073849	-0.302981	0.303655
C55	C	1.143817	-0.302967	0.303686
C56	C	0.909688	-0.302981	0.467772
C57	C	0.909700	-0.302966	0.537740
C58	C	0.909750	-0.138824	0.303626
C59	C	0.909789	-0.068856	0.303644
C60	C	0.909666	-0.303002	0.140030
C61	C	0.909776	-0.302839	0.070063
C62	C	0.950010	-0.343089	1.037206
C63	C	0.949998	-0.343109	0.971464
C64	C	0.909760	-0.302868	0.938580
C65	C	0.869518	-0.262615	0.971444
C66	C	0.869526	-0.262601	1.037186
N67	N	0.904948	-0.247790	0.835371
N68	N	0.904944	-0.247806	0.772920
C69	C	0.909732	-0.302911	0.740505
N70	N	0.914536	-0.358001	0.772901
N71	N	0.914543	-0.357984	0.835358
C72	C	0.909746	-0.302880	0.867295
C73	C	0.949956	-0.343186	0.636363
C74	C	0.949940	-0.343207	0.570619
C75	C	0.869463	-0.262707	0.570601
C76	C	0.869475	-0.262692	0.636344
C77	C	0.909725	-0.302930	0.669221
H78	H	0.982881	-1.062712	0.230705
H79	H	0.670030	-0.229926	0.230594
N80	N	0.991184	-0.936638	0.222349
N81	N	1.027163	-0.965975	0.186460
H82	H	1.056222	-0.942253	0.157449
N83	N	0.991056	-0.384312	0.537059
N84	N	1.031175	-0.362153	0.500405
H85	H	1.060217	-0.391181	0.476704
H86	H	0.836562	-0.661941	0.376525
H87	H	0.836523	-0.542673	0.376503
H88	H	0.836762	-0.229823	1.063937
N89	N	0.276019	-0.384478	0.384869
N90	N	0.334716	-0.384484	0.384844
H91	H	0.358438	-0.413562	0.413830
H92	H	0.836698	-0.229944	0.543828
N93	N	0.676849	-0.384563	0.384725
N94	N	0.713592	-0.362478	0.424867
H95	H	0.737308	-0.391561	0.453853
N96	N	0.276014	-0.221516	0.222402
N97	N	0.334711	-0.221533	0.222386
H98	H	0.358432	-0.192463	0.193386
H99	H	0.550767	-0.376190	0.376442
H100	H	0.982771	-0.375879	0.944707
N101	N	0.143124	-0.384457	0.384925
N102	N	0.172481	-0.420455	0.420787
H103	H	0.148777	-0.449534	0.449792
N104	N	0.828374	-0.221572	0.669900
N105	N	0.792446	-0.185647	0.640535
H106	H	0.763414	-0.156606	0.664233
H107	H	0.982728	-0.375952	0.663133
H108	H	0.149921	-0.229829	0.230780
H109	H	0.550759	-0.229912	0.230637
N110	N	0.828420	-0.221497	0.937867
N111	N	0.792503	-0.185556	0.967215
H112	H	0.763475	-0.156515	0.943502
N113	N	0.828306	-0.936699	0.384891
N114	N	0.828294	-0.878002	0.384878
H115	H	0.799223	-0.854294	0.413874
H116	H	0.982782	-0.375856	1.063971
N117	N	0.828336	-1.069592	0.384915
N118	N	0.792358	-1.040253	0.420802
H119	H	0.763296	-1.063973	0.449811
H120	H	0.982751	-0.661875	0.230643
H121	H	0.982700	-0.542609	0.230616
