data_functionalizedCrystal
_audit_creation_method	'MofGen! by Chris Wilmer'
_symmetry_space_group_name_H-M	'P1'
_symmetry_Int_Tables_number	1
_symmetry_cell_setting	triclinic
loop_
_symmetry_equiv_pos_as_xyz
  x,y,z
_cell_length_a	16.109318
_cell_length_b	10.489741
_cell_length_c	14.586319
_cell_angle_alpha	89.996488
_cell_angle_beta	90.000075
_cell_angle_gamma	84.003869
loop_
_atom_site_label
_atom_site_type_symbol
_atom_site_fract_x
_atom_site_fract_y
_atom_site_fract_z
O1	O	1.104133	0.164052	-0.076163
O2	O	0.862199	0.184432	-0.076182
O3	O	0.988671	-0.011435	-0.076167
O4	O	0.977661	0.359919	-0.076179
O5	O	0.988662	-0.011438	0.076314
O6	O	0.862190	0.184429	0.076299
O7	O	1.104124	0.164049	0.076317
Cu8	Cu	0.983156	0.174239	0.090231
Cu9	Cu	0.983167	0.174242	-0.090095
O10	O	0.977652	0.359916	0.076302
C11	C	0.831214	0.183601	0.000056
C12	C	0.738905	0.181115	0.000049
C13	C	0.439786	0.173085	-0.083052
C14	C	0.526522	0.175413	-0.083057
C15	C	0.526531	0.175392	0.083185
C16	C	0.439797	0.173055	0.083190
C17	C	0.396427	0.171908	0.000069
C18	C	0.569896	0.176573	0.000058
C19	C	0.663938	0.179097	0.000053
C20	C	0.302378	0.169382	0.000074
C21	C	0.987835	-0.058956	0.000073
C22	C	0.985347	-0.200550	0.000071
C23	C	0.904876	-0.267530	0.000058
C24	C	0.942886	-0.360202	0.075242
C25	C	0.942913	-0.360174	-0.075092
C26	C	1.023389	-0.291357	0.075317
C27	C	1.023406	-0.291319	-0.075085
C28	C	1.061474	-0.383964	0.000118
C29	C	1.135108	0.164880	0.000077
C30	C	1.227418	0.167367	0.000078
C31	C	0.978488	0.407438	0.000060
C32	C	0.980976	0.549031	0.000056
N33	N	0.983155	0.174236	0.217063
N34	N	0.983174	0.174236	-0.216927
C35	C	1.039176	0.087535	0.452076
C36	C	1.039178	0.087532	0.548057
C37	C	0.927148	0.260941	0.548053
C38	C	0.927142	0.260937	0.452073
C39	C	0.983161	0.174235	0.404087
C40	C	0.983169	0.174236	0.596048
C41	C	0.983171	0.174233	0.700115
C42	C	0.983158	0.174236	0.300014
H43	H	0.838714	-0.216925	0.000129
H44	H	0.881540	0.331533	0.587133
Br45	Br	0.380929	0.171525	-0.195858
Br46	Br	1.115199	-0.030133	0.386955
H47	H	1.084789	0.016931	0.587126
H48	H	0.881524	0.331539	0.412999
H49	H	0.404493	0.172096	0.150881
Br50	Br	0.585365	0.177000	-0.195869
H51	H	0.561853	0.176329	0.150860
H52	H	0.908833	-0.390724	0.138800
Br53	Br	1.080090	-0.240798	0.181376
Br54	Br	1.171846	-0.467936	0.000189
Br55	Br	1.080117	-0.240388	-0.181024
H56	H	0.908858	-0.390646	-0.138660
