data_functionalizedCrystal
_audit_creation_method	'MofGen! by Chris Wilmer'
_symmetry_space_group_name_H-M	'P1'
_symmetry_Int_Tables_number	1
_symmetry_cell_setting	triclinic
loop_
_symmetry_equiv_pos_as_xyz
  x,y,z
_cell_length_a	13.635800
_cell_length_b	10.992723
_cell_length_c	10.992410
_cell_angle_alpha	88.169042
_cell_angle_beta	71.235349
_cell_angle_gamma	108.770285
loop_
_atom_site_label
_atom_site_type_symbol
_atom_site_fract_x
_atom_site_fract_y
_atom_site_fract_z
V1	V	-2.057141	-0.177763	0.400582
O2	O	-2.036187	0.008542	0.392968
O3	O	-2.045946	-0.352473	0.397831
O4	O	-2.045936	-0.175028	0.575295
O5	O	-2.036197	-0.170131	0.214276
V6	V	-2.295585	-0.155478	0.378300
O7	O	-2.195045	-0.226645	0.449460
O8	O	-2.382779	-0.106596	0.329421
O9	O	-2.195176	0.019232	0.381050
O10	O	-2.375237	-0.341783	0.385913
O11	O	-2.375227	-0.163110	0.564605
O12	O	-2.195186	-0.158213	0.203587
C13	C	-1.971190	-0.395064	0.391509
C14	C	-2.002767	-0.537892	0.390424
V15	V	-1.557141	-0.177763	0.400582
O16	O	-1.536187	0.008542	0.392968
O17	O	-1.545946	-0.352473	0.397831
O18	O	-1.545936	-0.175028	0.575295
O19	O	-1.536197	-0.170131	0.214276
V20	V	-1.795585	-0.155478	0.378300
O21	O	-1.695045	-0.226645	0.449460
O22	O	-1.882779	-0.106596	0.329421
O23	O	-1.695176	0.019232	0.381050
O24	O	-1.875237	-0.341783	0.385913
O25	O	-1.875227	-0.163110	0.564605
O26	O	-1.695186	-0.158213	0.203587
C27	C	-2.158733	-0.748833	0.396136
C28	C	-2.126095	-0.600354	0.397761
C29	C	-1.991304	-0.607105	0.509425
C30	C	-2.024886	-0.755778	0.508444
C31	C	-1.959198	-0.717504	0.262824
C32	C	-1.928021	-0.568782	0.262474
C33	C	-1.971177	-0.168714	0.617879
C34	C	-2.002744	-0.167634	0.760708
C35	C	-2.101604	0.061816	0.387369
C36	C	-2.059646	0.204643	0.388462
C37	C	-2.101617	-0.164532	0.160995
C38	C	-2.059668	-0.165605	0.018165
C39	C	-1.471190	-0.395064	0.391509
C40	C	-1.502767	-0.537892	0.390424
C41	C	-1.471177	-0.168714	0.617879
C42	C	-1.502744	-0.167634	0.760708
C43	C	-1.936304	-0.157797	0.955832
C44	C	-1.903530	-0.159452	0.807348
C45	C	-2.101764	-0.294316	0.837804
C46	C	-2.133920	-0.293195	0.986371
C47	C	-2.072781	-0.047894	0.948354
C48	C	-2.037426	-0.047293	0.799341
C49	C	-1.601604	0.061816	0.387369
C50	C	-1.559646	0.204643	0.388462
C51	C	-1.601617	-0.164532	0.160995
C52	C	-1.559668	-0.165605	0.018165
C53	C	-1.436618	-0.733182	0.381645
C54	C	-1.403563	-0.584536	0.382264
C55	C	-1.538076	-0.576528	0.270610
C56	C	-1.570207	-0.725073	0.269346
C57	C	-1.635964	-0.763655	0.514964
C58	C	-1.601423	-0.615140	0.517558
C59	C	-1.436304	-0.157797	0.955832
C60	C	-1.403530	-0.159452	0.807348
C61	C	-1.601764	-0.294316	0.837804
C62	C	-1.633920	-0.293195	0.986371
C63	C	-1.572781	-0.047894	0.948354
C64	C	-1.537426	-0.047293	0.799341
H65	H	-2.138546	-0.553204	0.312705
H66	H	-1.378723	-0.753742	0.290443
O67	O	-1.444976	-0.504645	0.145935
H68	H	-1.470943	-0.532755	0.061920
O69	O	-2.062657	-0.580377	0.634826
H70	H	-2.009802	-0.530019	0.689593
H71	H	-1.874948	-0.245203	0.782528
H72	H	-1.923844	-0.242373	1.003819
H73	H	-2.078891	-0.383663	0.812193
H74	H	-2.126148	-0.382324	1.032635
H75	H	-2.224922	-0.304211	1.029001
H76	H	-1.965790	0.046420	0.746989
O77	O	-1.305204	-0.038786	0.736694
H78	H	-1.281650	-0.039842	0.630330
O79	O	-2.004610	0.079529	0.975338
H80	H	-2.059803	0.132083	1.024741
H81	H	-2.162273	-0.052498	0.989195
O82	O	-1.442541	0.076848	0.730004
H83	H	-1.418584	0.135920	0.802721
H84	H	-1.952684	-0.786810	0.508115
H85	H	-1.610889	-0.546292	0.271990
H86	H	-2.176953	-0.304877	0.809000
O87	O	-1.623622	-0.411252	1.047658
H88	H	-1.646446	-0.411630	1.154164
H89	H	-1.578891	-0.383663	0.812193
H90	H	-1.662273	-0.052498	0.989195
H91	H	-1.836710	-0.524703	0.249649
O92	O	-2.131523	-0.045282	0.756243
H93	H	-2.155155	-0.130412	0.706404
H94	H	-1.884813	-0.746698	0.256021
H95	H	-1.374999	-0.558771	0.467876
O96	O	-1.419505	-0.794667	0.494341
H97	H	-1.439067	-0.900404	0.491307
H98	H	-2.187508	-0.774000	0.310573
O99	O	-1.305077	-0.515051	0.261363
H100	H	-1.280909	-0.587611	0.202217
H101	H	-1.514809	-0.742588	0.174216
O102	O	-1.631792	-0.829254	0.635067
H103	H	-1.575334	-0.885195	0.605956
O104	O	-2.257301	-0.820524	0.516203
H105	H	-2.236025	-0.889145	0.570438
O106	O	-1.568655	-0.584343	0.634919
H107	H	-1.482512	-0.514197	0.602861
O108	O	-1.686911	-0.779242	0.269081
H109	H	-1.720166	-0.699320	0.269844
O110	O	-1.858656	-0.036326	0.980795
H111	H	-1.907155	0.019782	1.037902
O112	O	-1.701365	-0.308330	0.799652
H113	H	-1.681298	-0.224955	0.725154
O114	O	-1.700633	-0.575147	0.535291
H115	H	-1.681090	-0.499257	0.453396
H116	H	-1.725892	-0.804773	0.521245
O117	O	-1.358656	-0.036326	0.980795
H118	H	-1.407155	0.019782	1.037902
O119	O	-1.419784	-0.269824	1.019381
H120	H	-1.499055	-0.331043	1.095166
H121	H	-1.829293	-0.068363	0.754014
O122	O	-1.874164	-0.553521	0.508324
H123	H	-1.817185	-0.569392	0.417390
O124	O	-1.365671	-0.273039	0.774452
H125	H	-1.370739	-0.327007	0.864662
H126	H	-1.724922	-0.304211	1.029001
H127	H	-1.978934	-0.742960	0.171595
O128	O	-1.504616	0.079546	0.975316
H129	H	-1.416090	0.089295	0.939105
H130	H	-1.608482	-0.045806	0.766830
H131	H	-2.184719	-0.581708	0.489581
H132	H	-1.936941	-0.522188	0.174363
O133	O	-2.118577	-0.824438	0.633755
H134	H	-2.139524	-0.751348	0.694479
