data_functionalizedCrystal
_audit_creation_method	'MofGen! by Chris Wilmer'
_symmetry_space_group_name_H-M	'P1'
_symmetry_Int_Tables_number	1
_symmetry_cell_setting	triclinic
loop_
_symmetry_equiv_pos_as_xyz
  x,y,z
_cell_length_a	16.992694
_cell_length_b	10.723024
_cell_length_c	15.455313
_cell_angle_alpha	92.691723
_cell_angle_beta	87.142206
_cell_angle_gamma	87.568046
loop_
_atom_site_label
_atom_site_type_symbol
_atom_site_fract_x
_atom_site_fract_y
_atom_site_fract_z
O1	O	1.045219	0.259622	-0.072018
O2	O	0.816920	0.256716	-0.072044
O3	O	0.936335	0.077046	-0.072027
O4	O	0.925803	0.439291	-0.072035
O5	O	0.929506	0.087275	0.072234
O6	O	0.810091	0.266945	0.072217
O7	O	1.038390	0.269851	0.072243
Cu8	Cu	0.923617	0.269332	0.085402
Cu9	Cu	0.931693	0.257235	-0.085203
O10	O	0.918974	0.449520	0.072226
C11	C	0.784273	0.258094	0.000083
C12	C	0.697169	0.246945	0.000074
C13	C	0.932154	0.035595	0.000102
C14	C	0.929861	-0.103157	0.000099
C15	C	0.647507	0.354505	0.000072
C16	C	0.565663	0.344024	0.000084
C17	C	0.533484	0.225982	0.000092
C18	C	0.583152	0.118414	0.000096
C19	C	0.664993	0.128896	0.000090
C20	C	0.289651	0.182535	0.000116
C21	C	0.207803	0.172061	0.000119
C22	C	0.190320	0.397673	0.000109
C23	C	0.272165	0.408144	0.000098
C24	C	0.321825	0.300577	0.000107
N25	N	0.449827	0.215266	0.000102
N26	N	0.405480	0.311295	0.000103
C27	C	0.996680	-0.172386	0.000105
C28	C	0.994312	-0.315793	0.000102
C29	C	1.071037	0.268473	0.000114
C30	C	1.158141	0.279621	0.000118
C31	C	0.923155	0.490971	0.000095
C32	C	0.925449	0.629723	0.000093
N33	N	0.917942	0.277840	0.205397
N34	N	0.937374	0.248717	-0.205198
C35	C	0.968692	0.201542	0.250798
C36	C	0.964408	0.207989	0.341605
C37	C	0.909377	0.290741	0.387010
C38	C	0.858622	0.367042	0.341602
C39	C	0.862903	0.360588	0.250797
C40	C	0.890899	0.318564	0.658589
C41	C	0.886624	0.325015	0.749401
C42	C	0.992409	0.165960	0.749398
C43	C	0.996689	0.159518	0.658590
C44	C	0.945931	0.235815	0.613191
N45	N	0.904999	0.297335	0.479830
N46	N	0.950306	0.229213	0.520373
H47	H	0.525232	0.431612	0.000082
C48	C	0.848163	-0.289906	0.000085
C49	C	0.785413	-0.296009	0.074989
C50	C	0.708128	-0.215627	0.074982
C51	C	0.693593	-0.129142	0.000071
C52	C	0.756345	-0.123036	-0.074838
C53	C	0.833630	-0.203418	-0.074831
H54	H	0.796171	-0.360033	0.130448
H55	H	0.661675	-0.220148	0.130435
H56	H	0.636382	-0.069639	0.000066
H57	H	0.745587	-0.059012	-0.130297
H58	H	0.880083	-0.198897	-0.130284
H59	H	1.055640	-0.125486	0.000117
H60	H	0.870902	-0.150057	0.000087
H61	H	1.033733	0.103841	0.786370
H62	H	1.041499	0.092135	0.621624
H63	H	1.005732	0.145860	0.378571
H64	H	0.298359	0.504266	0.000082
C65	C	1.029228	0.110512	0.200858
C66	C	1.085048	0.026580	0.250804
C67	C	1.145584	-0.064456	0.200867
C68	C	1.150299	-0.071561	0.100984
C69	C	1.094477	0.012373	0.051033
C70	C	1.033942	0.103409	0.100970
H71	H	1.081559	0.031837	0.324748
H72	H	1.186907	-0.126590	0.237844
H73	H	1.195111	-0.138952	0.064018
H74	H	1.097967	0.007116	-0.022911
H75	H	0.992619	0.165543	0.063992
H76	H	0.841809	0.392407	0.786365
H77	H	0.149878	0.485248	0.000104
H78	H	0.849571	0.380691	0.621632
H79	H	0.813811	0.434416	0.378576
H80	H	0.821576	0.422716	0.213832
C81	C	0.547755	-0.011435	0.000104
C82	C	0.490356	-0.044350	0.075017
C83	C	0.454961	-0.174201	0.075022
C84	C	0.476965	-0.271137	0.000114
C85	C	0.534366	-0.238224	-0.074804
C86	C	0.569761	-0.108373	-0.074809
H87	H	0.474065	0.027410	0.130473
H88	H	0.412469	-0.198565	0.130482
H89	H	0.450763	-0.367261	0.000118
H90	H	0.550657	-0.309984	-0.130260
H91	H	0.612254	-0.084009	-0.130269
H92	H	0.181606	0.075931	0.000125
H93	H	0.673701	0.450628	0.000065
H94	H	0.330075	0.094946	0.000124
H95	H	0.705428	0.041309	0.000091
H96	H	1.051514	-0.375300	0.000111
