data_functionalizedCrystal
_audit_creation_method	'MofGen! by Chris Wilmer'
_symmetry_space_group_name_H-M	'P1'
_symmetry_Int_Tables_number	1
_symmetry_cell_setting	triclinic
loop_
_symmetry_equiv_pos_as_xyz
  x,y,z
_cell_length_a	19.076808
_cell_length_b	19.077267
_cell_length_c	12.759393
_cell_angle_alpha	87.724858
_cell_angle_beta	87.664746
_cell_angle_gamma	89.883307
loop_
_atom_site_label
_atom_site_type_symbol
_atom_site_fract_x
_atom_site_fract_y
_atom_site_fract_z
Zn1	Zn	-0.322914	-1.062979	-0.510928
Zn2	Zn	0.177086	-0.562979	-0.010928
Zn3	Zn	-0.440444	-1.058165	-0.328470
Zn4	Zn	0.059556	-0.558165	0.171530
Zn5	Zn	-0.318226	-0.945470	-0.342584
Zn6	Zn	0.181774	-0.445470	0.157416
Zn7	Zn	-0.435668	-0.940722	-0.511430
Zn8	Zn	0.064332	-0.440722	-0.011430
O9	O	-0.379313	-1.001834	-0.423353
O10	O	0.120687	-0.501834	0.076647
O11	O	-0.342466	-1.160668	-0.480607
O12	O	0.157534	-0.660668	0.019393
O13	O	-0.424269	-1.043187	-0.183321
O14	O	0.075731	-0.543187	0.316679
O15	O	-0.220512	-0.965060	-0.370612
O16	O	0.279488	-0.465060	0.129388
O17	O	-0.428814	-1.157131	-0.346557
O18	O	0.071186	-0.657131	0.153443
O19	O	-0.223957	-1.051393	-0.494293
O20	O	0.276043	-0.551393	0.005707
O21	O	-0.334476	-0.960391	-0.193690
O22	O	0.165524	-0.460391	0.306310
O23	O	-0.329844	-0.846512	-0.371099
O24	O	0.170156	-0.346512	0.128901
O25	O	-0.420674	-0.956968	-0.658385
O26	O	0.079326	-0.456968	-0.158385
O27	O	-0.416128	-0.843024	-0.495150
O28	O	0.083872	-0.343024	0.004850
O29	O	-0.337834	-1.046789	-0.658016
O30	O	0.162166	-0.546789	-0.158016
O31	O	-0.538146	-1.038584	-0.347044
O32	O	-0.038146	-0.538584	0.152956
O33	O	-0.534637	-0.952299	-0.481464
O34	O	-0.034637	-0.452299	0.018536
C35	C	-0.371960	-0.819273	-0.434711
C36	C	0.128040	-0.319273	0.065289
C37	C	-0.368831	-0.741172	-0.439594
C38	C	0.131169	-0.241172	0.060406
C39	C	-0.561890	-0.994423	-0.412799
C40	C	-0.061890	-0.494423	0.087201
C41	C	-0.640000	-0.991317	-0.408315
C42	C	-0.140000	-0.491317	0.091685
C43	C	-0.412245	-0.702638	-0.371999
C44	C	0.087755	-0.202638	0.128001
C45	C	-0.409305	-0.629254	-0.376601
C46	C	0.090695	-0.129254	0.123399
C47	C	-0.362947	-0.594405	-0.448793
C48	C	0.137053	-0.094405	0.051207
C49	C	-0.319531	-0.632944	-0.516395
C50	C	0.180469	-0.132944	-0.016395
C51	C	-0.322475	-0.706327	-0.511798
C52	C	0.177525	-0.206327	-0.011798
C53	C	-0.349333	-0.375131	-0.470042
C54	C	0.150667	0.124869	0.029958
C55	C	-0.346391	-0.301743	-0.474632
C56	C	0.153609	0.198257	0.025368
C57	C	-0.436166	-0.298059	-0.334839
C58	C	0.063834	0.201941	0.165161
C59	C	-0.439103	-0.371443	-0.330244
C60	C	0.060897	0.128557	0.169756
C61	C	-0.395690	-0.409975	-0.397849
C62	C	0.104310	0.090025	0.102151
N63	N	-0.359940	-0.519394	-0.453496
N64	N	0.140060	-0.019394	0.046504
N65	N	-0.398701	-0.484984	-0.393150
N66	N	0.101299	0.015016	0.106850
C67	C	-0.678427	-1.034773	-0.470659
C68	C	-0.178427	-0.534773	0.029341
C69	C	-0.751820	-1.031852	-0.466447
C70	C	-0.251820	-0.531852	0.033553
C71	C	-0.786783	-0.985477	-0.399886
C72	C	-0.286783	-0.485477	0.100114
C73	C	-0.748350	-0.942016	-0.337540
C74	C	-0.248350	-0.442016	0.162460
C75	C	-0.674959	-0.944934	-0.341757
C76	C	-0.174959	-0.444934	0.158243
C77	C	-1.006093	-0.971929	-0.380366
C78	C	-0.506093	-0.471929	0.119634
C79	C	-1.079490	-0.969016	-0.376151
C80	C	-0.579490	-0.469016	0.123849
C81	C	-1.082954	-1.058851	-0.505061
C82	C	-0.582954	-0.558851	-0.005061
C83	C	-1.009561	-1.061768	-0.509268
C84	C	-0.509561	-0.561768	-0.009268
C85	C	-0.971135	-1.018304	-0.446926
C86	C	-0.471135	-0.518304	0.053074
N87	N	-0.861802	-0.982491	-0.395577
N88	N	-0.361802	-0.482491	0.104423
N89	N	-0.896117	-1.021287	-0.451241
N90	N	-0.396117	-0.521287	0.048759
C91	C	-0.196024	-1.009293	-0.433971
C92	C	0.303976	-0.509293	0.066029
C93	C	-0.117917	-1.012472	-0.438495
C94	C	0.382083	-0.512472	0.061505
C95	C	-0.379244	-1.001886	-0.697388
C96	C	0.120756	-0.501886	-0.197388
C97	C	-0.379215	-1.001908	-0.814165
C98	C	0.120785	-0.501908	-0.314165
C99	C	-0.386687	-0.185108	-0.411938
C100	C	0.113313	0.314892	0.088062
C101	C	-0.389805	-0.263210	-0.407038
C102	C	0.110195	0.236790	0.092962
C103	C	-0.336076	-1.048685	-0.868836
C104	C	0.163924	-0.548685	-0.368836
C105	C	-0.336052	-1.048702	-0.978561
C106	C	0.163948	-0.548702	-0.478561
C107	C	-0.422310	-0.955165	-0.978933
C108	C	0.077690	-0.455165	-0.478933
C109	C	-0.422330	-0.955144	-0.869211
C110	C	0.077670	-0.455144	-0.369211
C111	C	-0.286278	-1.102690	-0.868622
C112	C	0.213722	-0.602690	-0.368622
C113	C	-0.286253	-1.102708	-0.978347
C114	C	0.213747	-0.602708	-0.478347
C115	C	-0.379333	-1.001825	-0.150385
C116	C	0.120667	-0.501825	0.349615
C117	C	-0.379170	-1.001947	-0.033612
C118	C	0.120830	-0.501947	0.466388
H119	H	-0.444657	-0.597883	-0.321558
H120	H	0.055343	-0.097883	0.178442
O121	O	-1.124402	-1.105714	-0.572314
O122	O	-0.624402	-0.605714	-0.072314
H123	H	-1.159277	-1.140150	-0.521197
H124	H	-0.659277	-0.640150	-0.021197
O125	O	-0.964649	-0.925057	-0.313126
O126	O	-0.464649	-0.425057	0.186874
H127	H	-0.932471	-0.957857	-0.259685
H128	H	-0.432471	-0.457857	0.240315
H129	H	-0.457411	-0.917090	-1.023765
H130	H	0.042589	-0.417090	-0.523765
H131	H	-0.233761	-1.085323	-1.016591
H132	H	0.266239	-0.585323	-0.516591
H133	H	-0.981095	-1.099530	-0.563468
H134	H	-0.481095	-0.599530	-0.063468
O135	O	-0.308458	-1.174011	-1.012201
O136	O	0.191542	-0.674011	-0.512201
H137	H	-0.356557	-1.168543	-1.057951
H138	H	0.143443	-0.668543	-0.557951
O139	O	-0.462244	-0.740219	-0.294126
O140	O	0.037756	-0.240219	0.205874
H141	H	-0.456993	-0.797721	-0.302273
H142	H	0.043007	-0.297721	0.197727
O143	O	-0.633514	-0.898066	-0.274504
O144	O	-0.133514	-0.398066	0.225496
H145	H	-0.598651	-0.863623	-0.325629
H146	H	-0.098651	-0.363623	0.174371
H147	H	-1.107955	-0.931248	-0.321948
H148	H	-0.607955	-0.431248	0.178052
O149	O	-0.489097	-0.409031	-0.252371
O150	O	0.010903	0.090969	0.247629
H151	H	-0.518793	-0.369907	-0.206141
H152	H	-0.018793	0.130093	0.293859
H153	H	-0.471511	-0.266678	-0.279800
H154	H	0.028489	0.233322	0.220200
O155	O	-0.793263	-1.078725	-0.533691
O156	O	-0.293263	-0.578725	-0.033691
H157	H	-0.850171	-1.068900	-0.519589
H158	H	-0.350171	-0.568900	-0.019589
H159	H	-0.287122	-0.737700	-0.566840
H160	H	0.212878	-0.237700	-0.066840
O161	O	-0.640717	-1.084798	-0.542441
O162	O	-0.140717	-0.584798	-0.042441
H163	H	-0.679771	-1.114522	-0.585088
H164	H	-0.179771	-0.614522	-0.085088
O165	O	-0.786056	-0.892005	-0.265731
O166	O	-0.286056	-0.392005	0.234269
H167	H	-0.843546	-0.897284	-0.273257
H168	H	-0.343546	-0.397284	0.226743
H169	H	-0.231271	-1.090327	-0.842913
H170	H	0.268729	-0.590327	-0.342913
H171	H	-0.308635	-0.273372	-0.533418
H172	H	0.191365	0.226628	-0.033418
O173	O	-0.302498	-0.416688	-0.542937
O174	O	0.197502	0.083312	-0.042937
H175	H	-0.269761	-0.380125	-0.593893
H176	H	0.230239	0.119875	-0.093893
H177	H	-0.457455	-0.917052	-0.824702
H178	H	0.042545	-0.417052	-0.324702
O179	O	-0.314860	-1.170103	-0.817767
O180	O	0.185140	-0.670103	-0.317767
H181	H	-0.329994	-1.205862	-0.879539
H182	H	0.170006	-0.705862	-0.379539
O183	O	-0.269524	-0.595362	-0.594255
O184	O	0.230476	-0.095362	-0.094255
H185	H	-0.274762	-0.537861	-0.586087
H186	H	0.225238	-0.037861	-0.086087
