data_functionalizedCrystal
_audit_creation_method	'MofGen! by Chris Wilmer'
_symmetry_space_group_name_H-M	'P1'
_symmetry_Int_Tables_number	1
_symmetry_cell_setting	triclinic
loop_
_symmetry_equiv_pos_as_xyz
  x,y,z
_cell_length_a	6.817900
_cell_length_b	9.582860
_cell_length_c	10.992410
_cell_angle_alpha	90.912681
_cell_angle_beta	108.764651
_cell_angle_gamma	111.206767
loop_
_atom_site_label
_atom_site_type_symbol
_atom_site_fract_x
_atom_site_fract_y
_atom_site_fract_z
V1	V	-4.127214	-0.207056	-0.400358
O2	O	-4.071753	0.009950	-0.392979
O3	O	-4.117537	-0.410556	-0.397386
O4	O	-4.104607	-0.203871	-0.575074
O5	O	-4.084772	-0.198167	-0.214061
V6	V	-4.602483	-0.181099	-0.378103
O7	O	-4.406580	-0.263993	-0.449174
O8	O	-4.773314	-0.124162	-0.329287
O9	O	-4.388954	0.022402	-0.381075
O10	O	-4.775341	-0.398105	-0.385482
O11	O	-4.762322	-0.189988	-0.564400
O12	O	-4.401883	-0.184284	-0.203387
C13	C	-3.971123	-0.460166	-0.391011
C14	C	-4.044670	-0.626530	-0.389746
C15	C	-3.954628	-0.196515	-0.617667
C16	C	-4.017684	-0.195258	-0.760496
C17	C	-3.884090	-0.183800	-0.955633
C18	C	-3.818660	-0.185728	-0.807147
C19	C	-4.224941	-0.342815	-0.837433
C20	C	-4.289172	-0.341510	-0.986001
C21	C	-4.149046	-0.055786	-0.948294
C22	C	-4.078293	-0.055087	-0.799282
C23	C	-4.198710	0.072003	-0.387447
C24	C	-4.104404	0.238366	-0.388720
C25	C	-4.215204	-0.191644	-0.160788
C26	C	-4.131385	-0.192894	-0.017957
H27	H	-3.663561	-0.079628	-0.753927
O28	O	-3.859217	-0.314294	-1.019044
H29	H	-3.729353	-0.269652	-1.064382
O30	O	-4.003457	0.092640	-0.975444
H31	H	-4.018854	0.187509	-0.925273
O32	O	-3.751212	-0.318037	-0.774119
H33	H	-3.575003	-0.275758	-0.705443
H34	H	-3.928203	0.054070	-0.747048
O35	O	-4.266345	-0.052762	-0.756181
H36	H	-4.418107	-0.157482	-0.802922
H37	H	-4.185696	-0.446886	-0.811709
O38	O	-3.719955	-0.042312	-0.980749
H39	H	-3.812872	0.023041	-1.037927
H40	H	-4.471978	-0.354341	-1.028618
H41	H	-4.376087	-0.355117	-0.808615
H42	H	-4.328365	-0.061149	-0.989128
O43	O	-4.277137	-0.479017	-1.047127
H44	H	-4.444714	-0.549834	-1.119072
