data_functionalizedCrystal
_audit_creation_method	'MofGen! by Chris Wilmer'
_symmetry_space_group_name_H-M	'P1'
_symmetry_Int_Tables_number	1
_symmetry_cell_setting	triclinic
loop_
_symmetry_equiv_pos_as_xyz
  x,y,z
_cell_length_a	6.817900
_cell_length_b	9.170630
_cell_length_c	19.453114
_cell_angle_alpha	86.436817
_cell_angle_beta	101.709288
_cell_angle_gamma	112.460426
loop_
_atom_site_label
_atom_site_type_symbol
_atom_site_fract_x
_atom_site_fract_y
_atom_site_fract_z
V1	V	-4.045002	-0.217348	-0.205531
O2	O	-3.993200	0.008774	-0.215374
O3	O	-4.033872	-0.429357	-0.190896
O4	O	-3.987458	-0.214737	-0.301206
O5	O	-4.039936	-0.207332	-0.104300
V6	V	-4.524986	-0.190214	-0.195030
O7	O	-4.314025	-0.276867	-0.228566
O8	O	-4.706160	-0.130695	-0.171995
O9	O	-4.312909	0.021795	-0.209665
O10	O	-4.694184	-0.416336	-0.185187
O11	O	-4.647449	-0.200230	-0.296261
O12	O	-4.359323	-0.192825	-0.099355
C13	C	-3.888236	-0.481018	-0.184240
C14	C	-3.960362	-0.654343	-0.172912
C15	C	-3.829029	-0.207247	-0.324950
C16	C	-3.863511	-0.206515	-0.403078
C17	C	-4.062868	-0.213998	-0.442871
C18	C	-4.095268	-0.213311	-0.516281
C19	C	-3.928313	-0.205173	-0.549894
C20	C	-3.728923	-0.197680	-0.510091
C21	C	-3.696522	-0.198351	-0.436683
N22	N	-3.883045	-0.287513	-0.663581
N23	N	-3.913838	-0.286880	-0.733316
C24	C	-4.025923	-0.203146	-0.771068
N25	N	-4.106090	-0.120091	-0.736452
N26	N	-4.075302	-0.120732	-0.666711
C27	C	-3.963425	-0.204443	-0.629492
C28	C	-4.260423	-0.209882	-0.890460
C29	C	-4.292811	-0.209185	-0.963871
C30	C	-3.926468	-0.193569	-0.957680
C31	C	-3.894078	-0.194251	-0.884271
C32	C	-4.061067	-0.202415	-0.850666
C33	C	-4.121889	0.073448	-0.216319
C34	C	-4.029001	0.246771	-0.227651
C35	C	-4.181096	-0.200320	-0.075607
C36	C	-4.125851	-0.201044	0.002521
H37	H	-3.956761	-0.702280	-0.117379
H38	H	-4.257618	-0.219413	-0.548687
C39	C	-4.033738	-0.689014	-0.301653
C40	C	-3.958933	-0.524106	-0.298562
C41	C	-3.963296	-0.464899	-0.366718
H42	H	-3.943394	-0.719721	-0.323919
H43	H	-4.177810	-0.729993	-0.327716
H44	H	-3.814885	-0.483142	-0.272510
H45	H	-4.049256	-0.493356	-0.276310
H46	H	-4.107368	-0.505877	-0.392780
H47	H	-3.872952	-0.495616	-0.388978
H48	H	-3.912562	-0.353004	-0.364630
H49	H	-3.534173	-0.192246	-0.404283
C50	C	-3.745266	-0.184487	-0.994254
C51	C	-3.692453	-0.048828	-1.035120
C52	C	-3.525551	-0.040412	-1.068832
H53	H	-3.621723	-0.180044	-0.960114
H54	H	-3.791441	-0.275243	-1.023554
H55	H	-3.646269	0.041904	-1.005822
H56	H	-3.815946	-0.053241	-1.069273
H57	H	-3.571726	-0.131167	-1.098133
H58	H	-3.402022	-0.035973	-1.034687
H59	H	-3.489709	0.051624	-1.096569
C60	C	-4.244235	-0.223173	-0.406354
C61	C	-4.297124	-0.358870	-0.365514
C62	C	-4.464209	-0.367385	-0.331871
H63	H	-4.198268	-0.132484	-0.377043
H64	H	-4.367691	-0.227619	-0.440554
H65	H	-4.173693	-0.354411	-0.331318
H66	H	-4.343128	-0.449583	-0.394808
H67	H	-4.587665	-0.371831	-0.366071
H68	H	-4.418225	-0.276690	-0.302563
H69	H	-4.500129	-0.459462	-0.304162
C70	C	-3.677873	-0.186499	-0.840999
C71	C	-3.709430	-0.321293	-0.799798
C72	C	-3.510314	-0.314236	-0.759930
H73	H	-3.582975	-0.181662	-0.871465
H74	H	-3.616310	-0.095117	-0.811424
H75	H	-3.770962	-0.412651	-0.829369
H76	H	-3.804293	-0.326157	-0.769318
H77	H	-3.448751	-0.222854	-0.730356
H78	H	-3.415430	-0.309396	-0.790402
H79	H	-3.531701	-0.405683	-0.731966
C80	C	-3.547734	-0.188606	-0.546673
C81	C	-3.494932	-0.052955	-0.587545
C82	C	-3.328040	-0.044545	-0.621260
H83	H	-3.424184	-0.184156	-0.512535
H84	H	-3.593914	-0.279366	-0.575970
H85	H	-3.448743	0.037783	-0.558250
H86	H	-3.618432	-0.057374	-0.621695
H87	H	-3.374221	-0.135306	-0.650557
H88	H	-3.204505	-0.040101	-0.587117
H89	H	-3.292207	0.047485	-0.649000
H90	H	-4.396393	-0.216524	-0.863098
H91	H	-4.455151	-0.215267	-0.996270
