data_functionalizedCrystal
_audit_creation_method	'MofGen! by Chris Wilmer'
_symmetry_space_group_name_H-M	'P1'
_symmetry_Int_Tables_number	1
_symmetry_cell_setting	triclinic
loop_
_symmetry_equiv_pos_as_xyz
  x,y,z
_cell_length_a	12.759401
_cell_length_b	12.759393
_cell_length_c	12.759400
_cell_angle_alpha	89.968231
_cell_angle_beta	89.986693
_cell_angle_gamma	90.019778
loop_
_atom_site_label
_atom_site_type_symbol
_atom_site_fract_x
_atom_site_fract_y
_atom_site_fract_z
Zn1	Zn	-1.606244	-0.594049	-0.418241
Zn2	Zn	-1.606142	-0.418369	-0.593960
Zn3	Zn	-1.430549	-0.418381	-0.418292
Zn4	Zn	-1.430535	-0.594003	-0.593874
O5	O	-1.518367	-0.506200	-0.506092
O6	O	-1.753251	-0.570758	-0.441565
O7	O	-1.582812	-0.271349	-0.570715
O8	O	-1.453905	-0.441708	-0.271264
O9	O	-1.753176	-0.441687	-0.570666
O10	O	-1.582987	-0.570770	-0.271227
O11	O	-1.453805	-0.271358	-0.441652
O12	O	-1.283526	-0.441663	-0.441568
O13	O	-1.453879	-0.741030	-0.570519
O14	O	-1.283516	-0.570692	-0.570568
O15	O	-1.582972	-0.741064	-0.441482
O16	O	-1.582798	-0.441643	-0.740970
O17	O	-1.453780	-0.570680	-0.740907
C18	C	-1.245400	-0.506175	-0.506065
C19	C	-1.128623	-0.506188	-0.506079
C20	C	-0.963999	-0.438905	-0.573217
C21	C	-1.073723	-0.438890	-0.573198
C22	C	-1.073794	-0.573499	-0.438967
C23	C	-0.964072	-0.573508	-0.438982
C24	C	-0.909104	-0.371610	-0.640348
C25	C	-0.963926	-0.304298	-0.707459
C26	C	-1.073650	-0.304282	-0.707440
C27	C	-1.128552	-0.371579	-0.640310
C28	C	-1.518436	-0.780234	-0.505985
C29	C	-1.518465	-0.897010	-0.505939
C30	C	-0.792401	-0.506220	-0.506115
C31	C	-0.909177	-0.506213	-0.506113
C32	C	-1.451319	-0.951883	-0.438724
C33	C	-1.451351	-1.061607	-0.438692
C34	C	-1.585683	-1.061576	-0.573095
C35	C	-1.585645	-0.951854	-0.573131
C36	C	-1.384139	-0.897039	-0.371532
C37	C	-1.316989	-0.951912	-0.304310
C38	C	-1.317021	-1.061636	-0.304279
C39	C	-1.384203	-1.116487	-0.371469
C40	C	-1.518305	-0.506178	-0.779059
C41	C	-1.518375	-0.506204	-0.895836
C42	C	-1.518360	-0.233233	-0.506122
C43	C	-1.518534	-0.116457	-0.505872
C44	C	-1.585629	-0.439088	-0.950696
C45	C	-1.585693	-0.439121	-1.060420
C46	C	-1.451240	-0.573387	-1.060414
C47	C	-1.451182	-0.573359	-0.950692
C48	C	-1.652821	-0.371933	-0.895840
C49	C	-1.720080	-0.304811	-0.950700
C50	C	-1.720144	-0.304843	-1.060424
C51	C	-1.652950	-0.371998	-1.115288
C52	C	-1.518459	-0.506245	-0.232058
C53	C	-1.518497	-0.506264	-0.115282
H54	H	-1.118283	-0.249466	-0.762077
H55	H	-1.653016	-0.372027	-1.204632
H56	H	-1.774917	-0.250197	-1.105088
H57	H	-0.919435	-0.628312	-0.384335
Br58	Br	-1.653061	-0.372209	-0.746929
H59	H	-0.819762	-0.371617	-0.640373
Br60	Br	-1.359912	-0.664451	-0.876232
H61	H	-1.384220	-1.205832	-0.371441
H62	H	-0.919218	-0.249502	-0.762108
Br63	Br	-1.360053	-0.664518	-1.134871
Br64	Br	-1.277465	-0.371539	-0.640267
Br65	Br	-1.676764	-0.877377	-0.664362
Br66	Br	-1.148304	-0.664827	-0.347871
Br67	Br	-1.384100	-0.748128	-0.371563
H68	H	-1.262286	-0.907245	-0.249612
Br69	Br	-1.225866	-1.136105	-0.213076
Br70	Br	-1.676853	-1.136017	-0.664275
Br71	Br	-1.811281	-0.213691	-0.876246
