data_functionalizedCrystal
_audit_creation_method	'MofGen! by Chris Wilmer'
_symmetry_space_group_name_H-M	'P1'
_symmetry_Int_Tables_number	1
_symmetry_cell_setting	triclinic
loop_
_symmetry_equiv_pos_as_xyz
  x,y,z
_cell_length_a	21.295418
_cell_length_b	21.295417
_cell_length_c	21.295411
_cell_angle_alpha	89.979403
_cell_angle_beta	89.956262
_cell_angle_gamma	90.045515
loop_
_atom_site_label
_atom_site_type_symbol
_atom_site_fract_x
_atom_site_fract_y
_atom_site_fract_z
Zn1	Zn	0.962359	-0.250415	-0.356238
Zn2	Zn	0.962263	-0.355667	-0.250965
Zn3	Zn	0.857082	-0.250445	-0.250948
Zn4	Zn	0.857053	-0.355680	-0.356162
O5	O	0.909690	-0.303052	-0.303578
O6	O	1.050436	-0.264360	-0.342313
O7	O	0.948283	-0.341716	-0.162874
O8	O	0.871100	-0.162351	-0.264940
O9	O	1.050365	-0.341688	-0.264969
O10	O	0.948447	-0.162330	-0.342296
O11	O	0.871007	-0.264410	-0.162861
O12	O	0.768989	-0.264422	-0.264866
O13	O	0.871050	-0.341709	-0.444262
O14	O	0.768968	-0.341738	-0.342166
O15	O	0.948418	-0.264372	-0.444318
O16	O	0.948254	-0.443758	-0.264895
O17	O	0.870957	-0.443767	-0.342183
C18	C	0.746138	-0.303085	-0.303506
C19	C	0.676170	-0.303114	-0.303490
C20	C	0.909609	-0.466603	-0.303547
C21	C	0.909633	-0.536571	-0.303554
C22	C	0.643308	-0.343426	-0.343680
C23	C	0.577566	-0.343410	-0.343708
C24	C	0.544687	-0.303090	-0.303535
C25	C	0.577557	-0.262770	-0.263342
C26	C	0.643298	-0.262783	-0.263320
N27	N	0.441411	-0.298163	-0.248477
N28	N	0.378960	-0.298155	-0.248501
C29	C	0.346613	-0.303050	-0.303602
N30	N	0.379076	-0.307965	-0.358680
N31	N	0.441533	-0.307976	-0.358656
C32	C	0.473402	-0.303072	-0.303556
C33	C	0.242466	-0.343346	-0.343826
C34	C	0.176722	-0.343326	-0.343855
C35	C	0.176714	-0.262690	-0.263484
C36	C	0.242456	-0.262707	-0.263460
C37	C	0.275328	-0.303038	-0.303630
C38	C	0.949884	-0.569370	-0.343862
C39	C	0.949906	-0.635112	-0.343878
C40	C	0.909684	-0.668054	-0.303574
C41	C	0.869425	-0.635248	-0.263263
C42	C	0.869399	-0.569507	-0.263253
N43	N	0.904924	-0.771307	-0.248481
N44	N	0.904952	-0.833759	-0.248492
C45	C	0.909757	-0.866129	-0.303602
N46	N	0.914546	-0.833687	-0.358702
N47	N	0.914521	-0.771230	-0.358690
C48	C	0.909707	-0.739339	-0.303580
C49	C	0.950035	-0.970212	-0.343931
C50	C	0.950052	-1.035956	-0.343947
C51	C	0.869574	-1.036090	-0.263327
C52	C	0.869553	-0.970348	-0.263316
C53	C	0.909787	-0.937413	-0.303617
C54	C	1.073880	-0.303019	-0.303652
C55	C	1.143848	-0.303005	-0.303683
C56	C	0.909742	-0.303038	-0.467769
C57	C	0.909764	-0.303033	-0.537737
C58	C	0.909787	-0.138861	-0.303624
C59	C	0.909829	-0.068893	-0.303644
C60	C	0.950048	-0.262761	-0.570634
C61	C	0.950047	-0.262734	-0.636376
C62	C	0.909769	-0.302989	-0.669219
C63	C	0.869477	-0.343263	-0.636315
C64	C	0.869475	-0.343285	-0.570573
N65	N	0.904913	-0.358058	-0.772434
N66	N	0.904919	-0.358036	-0.834886
C67	C	0.909773	-0.302926	-0.867294
N68	N	0.914633	-0.247837	-0.834892
N69	N	0.914630	-0.247860	-0.772435
C70	C	0.909767	-0.302970	-0.740505
C71	C	0.950058	-0.262621	-0.971477
C72	C	0.950053	-0.262593	-1.037220
C73	C	0.869486	-0.343128	-1.037158
C74	C	0.869488	-0.343151	-0.971415
C75	C	0.909777	-0.302898	-0.938579
C76	C	0.909674	-0.303019	-0.140027
C77	C	0.909774	-0.302848	-0.070059
H78	H	0.670069	-0.376266	-0.376391
O79	O	0.988983	-0.537475	-0.383071
C80	C	1.024527	-0.580527	-0.418640
H81	H	0.998759	-0.627418	-0.420795
H82	H	1.072348	-0.587474	-0.395645
C83	C	1.065211	-0.497233	-0.482997
C84	C	1.033560	-0.554825	-0.485649
H85	H	1.070785	-0.481379	-0.524331
H86	H	1.041266	-0.468228	-0.459033
H87	H	1.105058	-0.503031	-0.463832
H88	H	0.993710	-0.549025	-0.504806
H89	H	1.057498	-0.583829	-0.509618
H90	H	0.982830	-1.062659	-0.376774
O91	O	0.830326	-0.382470	-0.538712
C92	C	0.794761	-0.417984	-0.581793
H93	H	0.820541	-0.420140	-0.628677
H94	H	0.746964	-0.394941	-0.588746
C95	C	0.753989	-0.482345	-0.498546
C96	C	0.785655	-0.484997	-0.556128
H97	H	0.748368	-0.523681	-0.482714
H98	H	0.777947	-0.458417	-0.469520
H99	H	0.714162	-0.463140	-0.504348
H100	H	0.825484	-0.504195	-0.550325
H101	H	0.761702	-0.508929	-0.585152
H102	H	0.836674	-0.662073	-0.230449
O103	O	0.989245	-0.223450	-1.069081
C104	C	1.024792	-0.187920	-1.025998
H105	H	1.026953	-0.213720	-0.979137
H106	H	1.001773	-0.140116	-1.018988
C107	C	1.089139	-0.147142	-1.109262
C108	C	1.091799	-0.178833	-1.051708
H109	H	1.130472	-0.141534	-1.125122
H110	H	1.065190	-0.171077	-1.138289
H111	H	1.069954	-0.107308	-1.103413
H112	H	1.110976	-0.218668	-1.057560
H113	H	1.115753	-0.154904	-1.022683
H114	H	0.550805	-0.376236	-0.376438
O115	O	0.830279	-0.537741	-0.224034
C116	C	0.794767	-0.580909	-0.188476
H117	H	0.820567	-0.627744	-0.186336
H118	H	0.746950	-0.587943	-0.211471
C119	C	0.754029	-0.497774	-0.124093
C120	C	0.785719	-0.555296	-0.121460
H121	H	0.748445	-0.481974	-0.082754
H122	H	0.777952	-0.468690	-0.148050
H123	H	0.714184	-0.503643	-0.143257
H124	H	0.825566	-0.549425	-0.102303
H125	H	0.761802	-0.584379	-0.097498
O126	O	0.545595	-0.223696	-0.224247
C127	C	0.507479	-0.259470	-0.183546
H128	H	0.527240	-0.309046	-0.179564
H129	H	0.457673	-0.261658	-0.203018
C130	C	0.482162	-0.167732	-0.123052
C131	C	0.506435	-0.228621	-0.118157
H132	H	0.481515	-0.148703	-0.082718
H133	H	0.507839	-0.143630	-0.150474
H134	H	0.440659	-0.169564	-0.139282
H135	H	0.547940	-0.226788	-0.101936
H136	H	0.480765	-0.252723	-0.090730
O137	O	0.675125	-0.223605	-0.224214
C138	C	0.632012	-0.187999	-0.188774
H139	H	0.585120	-0.213767	-0.186565
H140	H	0.625097	-0.140222	-0.211916
C141	C	0.715197	-0.147186	-0.124497
C142	C	0.657604	-0.178837	-0.121780
H143	H	0.730984	-0.141531	-0.083173
H144	H	0.744244	-0.171172	-0.148375
H145	H	0.709427	-0.107375	-0.143785
H146	H	0.663377	-0.218650	-0.102500
H147	H	0.628559	-0.154857	-0.097897
H148	H	0.269232	-0.376183	-0.376538
H149	H	0.836685	-0.375898	-1.063898
O150	O	0.989102	-0.223490	-0.939503
C151	C	0.953287	-0.182844	-0.901457
H152	H	0.905568	-0.205057	-0.891574
H153	H	0.946401	-0.136184	-0.926784
C154	C	1.046539	-0.144186	-0.851174
C155	C	0.987931	-0.171471	-0.839031
H156	H	1.067909	-0.137167	-0.812667
H157	H	1.070668	-0.171567	-0.876807
H158	H	1.040792	-0.105305	-0.872281
H159	H	0.993679	-0.210354	-0.817931
H160	H	0.963803	-0.144095	-0.813392
H161	H	0.982793	-0.943395	-0.376748
O162	O	0.830439	-0.938582	-0.224094
C163	C	0.794930	-0.981751	-0.188534
H164	H	0.820732	-1.028585	-0.186396
H165	H	0.747111	-0.988786	-0.211525
C166	C	0.754193	-0.898617	-0.124148
C167	C	0.785886	-0.956138	-0.121517
H168	H	0.748612	-0.882817	-0.082809
H169	H	0.778114	-0.869532	-0.148107
H170	H	0.714348	-0.904487	-0.143310
H171	H	0.825733	-0.950266	-0.102363
H172	H	0.761972	-0.985222	-0.097553
O173	O	0.274284	-0.223532	-0.224355
C174	C	0.231170	-0.187928	-0.188914
H175	H	0.184279	-0.213699	-0.186703
H176	H	0.224251	-0.140152	-0.212056
C177	C	0.314355	-0.147108	-0.124641
C178	C	0.256764	-0.178763	-0.121921
H179	H	0.330143	-0.141452	-0.083317
H180	H	0.343402	-0.171093	-0.148520
H181	H	0.308581	-0.107298	-0.143929
H182	H	0.262540	-0.218575	-0.102640
H183	H	0.227718	-0.154785	-0.098037
O184	O	0.988917	-0.667014	-0.383099
C185	C	0.953072	-0.705077	-0.423704
H186	H	0.903486	-0.685316	-0.427534
H187	H	0.950924	-0.754910	-0.404238
C188	C	1.044700	-0.730302	-0.484475
C189	C	0.983800	-0.706028	-0.489184
H190	H	1.063656	-0.730891	-0.524866
H191	H	1.068851	-0.704660	-0.457118
H192	H	1.042902	-0.771827	-0.468251
H193	H	0.985599	-0.664501	-0.505400
H194	H	0.959650	-0.731662	-0.516546
O195	O	0.830448	-0.382307	-0.939388
C196	C	0.866262	-0.422982	-0.901398
H197	H	0.913980	-0.400774	-0.891583
H198	H	0.873152	-0.469621	-0.926739
C199	C	0.773010	-0.461685	-0.850980
C200	C	0.831616	-0.434406	-0.838921
H201	H	0.751638	-0.468735	-0.812442
H202	H	0.748881	-0.434284	-0.876576
H203	H	0.778760	-0.500548	-0.872099
H204	H	0.825865	-0.395541	-0.817809
H205	H	0.855743	-0.461801	-0.813320
O206	O	0.989199	-0.223598	-0.538835
C207	C	1.024765	-0.188058	-0.581974
H208	H	0.998985	-0.185870	-0.628818
H209	H	1.072560	-0.211099	-0.588998
C210	C	1.065542	-0.123753	-0.498793
C211	C	1.033875	-0.121062	-0.556327
H212	H	1.071164	-0.082428	-0.482973
H213	H	1.041582	-0.147699	-0.469729
H214	H	1.105368	-0.142957	-0.504655
H215	H	0.994047	-0.101866	-0.550463
H216	H	1.057829	-0.097112	-0.585389
H217	H	0.149968	-0.376152	-0.376587
H218	H	0.149945	-0.229857	-0.230777
H219	H	0.836820	-1.062911	-0.230515
H220	H	0.982849	-0.229937	-0.663166
H221	H	0.836681	-0.376038	-0.663060
