data_functionalizedCrystal
_audit_creation_method	'MofGen! by Chris Wilmer'
_symmetry_space_group_name_H-M	'P1'
_symmetry_Int_Tables_number	1
_symmetry_cell_setting	triclinic
loop_
_symmetry_equiv_pos_as_xyz
  x,y,z
_cell_length_a	19.077105
_cell_length_b	19.076929
_cell_length_c	19.077068
_cell_angle_alpha	94.467801
_cell_angle_beta	90.115316
_cell_angle_gamma	90.078300
loop_
_atom_site_label
_atom_site_type_symbol
_atom_site_fract_x
_atom_site_fract_y
_atom_site_fract_z
Zn1	Zn	1.044032	-0.453497	-0.340427
Zn2	Zn	1.043949	-0.340339	-0.453583
Zn3	Zn	0.931648	-0.330929	-0.331006
Zn4	Zn	0.921785	-0.453075	-0.453152
O5	O	0.985354	-0.394460	-0.394542
O6	O	1.142180	-0.442602	-0.359560
O7	O	1.033146	-0.240615	-0.433560
O8	O	0.950719	-0.343427	-0.233781
O9	O	1.142120	-0.359465	-0.442695
O10	O	1.033287	-0.433477	-0.240703
O11	O	0.950638	-0.233702	-0.343504
O12	O	0.832180	-0.343017	-0.343086
O13	O	0.933908	-0.551606	-0.441962
O14	O	0.824934	-0.432757	-0.432827
O15	O	1.023722	-0.551917	-0.359143
O16	O	1.023581	-0.359055	-0.552000
O17	O	0.933828	-0.441881	-0.551684
C18	C	0.803105	-0.386820	-0.386888
C19	C	0.725137	-0.383570	-0.383631
C20	C	0.977644	-0.401459	-0.577377
C21	C	0.974409	-0.404480	-0.655598
C22	C	0.977724	-0.578009	-0.401555
C23	C	0.974473	-0.656227	-0.404544
C24	C	0.684753	-0.428697	-0.428889
C25	C	0.611494	-0.425645	-0.425820
C26	C	0.578621	-0.377463	-0.377496
C27	C	0.619010	-0.332333	-0.332233
C28	C	0.692268	-0.335389	-0.335299
C29	C	0.359927	-0.363325	-0.363304
C30	C	0.286664	-0.360271	-0.360243
C31	C	0.279153	-0.453584	-0.453830
C32	C	0.352413	-0.456633	-0.456895
C33	C	0.392795	-0.411506	-0.411629
N34	N	0.503738	-0.374341	-0.374359
N35	N	0.467676	-0.414632	-0.414763
C36	C	1.168313	-0.402130	-0.402226
C37	C	1.246280	-0.405398	-0.405501
C38	C	0.951156	-1.096494	-0.426035
C39	C	0.954209	-1.023000	-0.423217
C40	C	1.002500	-0.986418	-0.378692
C41	C	1.047737	-1.023334	-0.336978
C42	C	1.044681	-1.096827	-0.339794
C43	C	1.016653	-0.766636	-0.365645
C44	C	1.019708	-0.693138	-0.362835
C45	C	0.926178	-0.692809	-0.449072
C46	C	0.923129	-0.766303	-0.451887
C47	C	0.968363	-0.803213	-0.410170
N48	N	1.005623	-0.911295	-0.375812
N49	N	0.965236	-0.878334	-0.413048
C50	C	0.992996	-0.211625	-0.387507
C51	C	0.996391	-0.133405	-0.384326
C52	C	1.019652	-0.362814	-0.692490
C53	C	1.016613	-0.365660	-0.765988
C54	C	0.968327	-0.410167	-0.802591
C55	C	0.923082	-0.451837	-0.765693
C56	C	0.926124	-0.448995	-0.692198
C57	C	0.954215	-0.423291	-1.022385
C58	C	0.951175	-0.426128	-1.095885
C59	C	1.044708	-0.339951	-1.096175
C60	C	1.047743	-0.337110	-1.022677
C61	C	1.002500	-0.378782	-0.985786
N62	N	0.965218	-0.413075	-0.877717
N63	N	1.005613	-0.375878	-0.910662
C64	C	0.993112	-0.387450	-0.210995
C65	C	0.996418	-0.384462	-0.132778
H66	H	0.711513	-0.467930	-0.468243
H67	H	0.883769	-0.488079	-0.795502
H68	H	0.392798	-0.326574	-0.326451
C69	C	0.904454	-0.982398	-0.469097
H70	H	0.913184	-0.933388	-0.461039
H71	H	0.912220	-0.996673	-0.517271
H72	H	0.857257	-0.992075	-0.457276
C73	C	1.066362	-0.319810	-0.806569
H74	H	1.057637	-0.327877	-0.855582
H75	H	1.058580	-0.271631	-0.792310
H76	H	1.113563	-0.331642	-0.796857
H77	H	1.087054	-0.993544	-0.300722
H78	H	0.917376	-0.457221	-0.992354
H79	H	0.911862	-0.462384	-1.125686
C80	C	1.094441	-1.137430	-0.293917
H81	H	1.123645	-1.105119	-0.267001
H82	H	1.067715	-1.163806	-0.263226
H83	H	1.122675	-1.168406	-0.323224
C84	C	0.876358	-0.494828	-0.651616
H85	H	0.847161	-0.521739	-0.683940
H86	H	0.903082	-0.525524	-0.625208
H87	H	0.848118	-0.465496	-0.620671
H88	H	0.578617	-0.462392	-0.462675
H89	H	0.883806	-0.796083	-0.488144
H90	H	0.379173	-0.495867	-0.496247
H91	H	0.246266	-0.490325	-0.490681
H92	H	0.889351	-0.662749	-0.483035
C93	C	1.100862	-0.288156	-0.982419
H94	H	1.127377	-0.263753	-1.014918
H95	H	1.076517	-0.255242	-0.951486
H96	H	1.131473	-0.315277	-0.956024
C97	C	0.250504	-0.307272	-0.307080
H98	H	0.285046	-0.280838	-0.280555
H99	H	0.222064	-0.276401	-0.331579
H100	H	0.222100	-0.331887	-0.276297
C101	C	0.582851	-0.279331	-0.279079
H102	H	0.533437	-0.283968	-0.283740
H103	H	0.596417	-0.288395	-0.232711
H104	H	0.596385	-0.232923	-0.288007
H105	H	1.058969	-0.326568	-0.662693
C106	C	1.072829	-0.652896	-0.313857
H107	H	1.068175	-0.603841	-0.318163
H108	H	1.064064	-0.662703	-0.266603
H109	H	1.119025	-0.667311	-0.326602
C110	C	0.736690	-0.285750	-0.285514
H111	H	0.706621	-0.256613	-0.256298
H112	H	0.765441	-0.312742	-0.257123
H113	H	0.765407	-0.257261	-0.312409
H114	H	1.053489	-0.796679	-0.331681
H115	H	1.081543	-0.306024	-1.126219
H116	H	0.911835	-1.126274	-0.462295
