data_functionalizedCrystal
_audit_creation_method	'MofGen! by Chris Wilmer'
_symmetry_space_group_name_H-M	'P1'
_symmetry_Int_Tables_number	1
_symmetry_cell_setting	triclinic
loop_
_symmetry_equiv_pos_as_xyz
  x,y,z
_cell_length_a	16.120297
_cell_length_b	12.759401
_cell_length_c	12.759399
_cell_angle_alpha	89.983359
_cell_angle_beta	92.874963
_cell_angle_gamma	87.120011
loop_
_atom_site_label
_atom_site_type_symbol
_atom_site_fract_x
_atom_site_fract_y
_atom_site_fract_z
Zn1	Zn	-0.471361	-1.576116	-0.448371
Zn2	Zn	-0.331955	-1.584922	-0.615155
Zn3	Zn	-0.331968	-1.409330	-0.439497
Zn4	Zn	-0.471326	-1.400408	-0.624011
O5	O	-0.401653	-1.492694	-0.531759
O6	O	-0.452877	-1.724305	-0.470503
O7	O	-0.215294	-1.569049	-0.584434
O8	O	-0.350479	-1.431503	-0.293654
O9	O	-0.350457	-1.730774	-0.593039
O10	O	-0.452890	-1.554040	-0.300174
O11	O	-0.215303	-1.440042	-0.455378
O12	O	-0.350445	-1.261126	-0.463965
O13	O	-0.587994	-1.416296	-0.608132
O14	O	-0.452831	-1.254571	-0.599527
O15	O	-0.588019	-1.545389	-0.479090
O16	O	-0.350423	-1.560397	-0.763350
O17	O	-0.452818	-1.424835	-0.769856
C18	C	-0.401634	-1.492631	-0.804725
C19	C	-0.401653	-1.492698	-0.921503
C20	C	-0.619102	-1.478865	-0.545589
C21	C	-0.711766	-1.472972	-0.551483
C22	C	-0.401636	-1.219728	-0.531745
C23	C	-0.401649	-1.102950	-0.531765
C24	C	-0.881424	-1.462174	-0.562219
C25	C	-0.922733	-1.523421	-0.500983
C26	C	-1.017137	-1.517413	-0.506957
C27	C	-0.787012	-1.468181	-0.556247
C28	C	-0.185049	-1.506530	-0.517906
C29	C	-0.092386	-1.512626	-0.511717
C30	C	-0.401670	-1.766726	-0.531773
C31	C	-0.401677	-1.883502	-0.531780
C32	C	-0.454877	-1.044708	-0.602449
C33	C	-0.454893	-0.934983	-0.602454
C34	C	-0.348446	-0.941753	-0.461088
C35	C	-0.348435	-1.051475	-0.461079
C36	C	-0.348397	-1.563358	-0.972946
C37	C	-0.348425	-1.563424	-1.082672
C38	C	-0.454968	-1.422160	-1.089502
C39	C	-0.454944	-1.422101	-0.979778
C40	C	-0.401690	-1.492785	-0.257728
C41	C	-0.401706	-1.492824	-0.140952
H42	H	-0.887200	-1.580367	-0.444069
C43	C	-0.290635	-0.886055	-0.384237
C44	C	-0.244033	-0.960549	-0.322314
C45	C	-0.190774	-0.909282	-0.251499
H46	H	-0.254186	-0.845550	-0.421925
H47	H	-0.322574	-0.841260	-0.340502
H48	H	-0.212096	-1.005326	-0.366044
H49	H	-0.280461	-1.001057	-0.284604
H50	H	-0.222713	-0.864487	-0.207764
H51	H	-0.154330	-0.868778	-0.289195
H52	H	-0.159153	-0.959817	-0.209470
H53	H	-0.916955	-1.405232	-0.619129
H54	H	-0.498209	-1.086615	-0.660004
H55	H	-0.498238	-0.887566	-0.660011
C56	C	-0.290591	-1.114856	-0.384500
C57	C	-0.237083	-1.181246	-0.440473
C58	C	-0.183799	-1.239657	-0.369965
H59	H	-0.258816	-1.068612	-0.342378
H60	H	-0.322520	-1.155706	-0.340832
H61	H	-0.205157	-1.140399	-0.484122
H62	H	-0.268835	-1.227510	-0.482591
H63	H	-0.215729	-1.280507	-0.326297
H64	H	-0.152030	-1.193405	-0.327847
H65	H	-0.147493	-1.284716	-0.407932
C66	C	-0.512910	-1.345463	-1.152590
C67	C	-0.559562	-1.283590	-1.084051
C68	C	-0.612955	-1.212932	-1.142128
H69	H	-0.481091	-1.301672	-1.193430
H70	H	-0.549316	-1.383303	-1.197632
H71	H	-0.523161	-1.245753	-1.039028
H72	H	-0.591398	-1.327352	-1.043210
H73	H	-0.649361	-1.250771	-1.187169
H74	H	-0.581129	-1.169147	-1.182965
H75	H	-0.644620	-1.170949	-1.095633
H76	H	-0.305006	-1.620844	-0.925500
C77	C	-0.290650	-1.640338	-1.138355
C78	C	-0.308879	-1.743075	-1.112654
C79	C	-0.255666	-1.813975	-1.163901
H80	H	-0.298225	-1.630450	-1.212067
H81	H	-0.234608	-1.628641	-1.116820
H82	H	-0.364908	-1.754768	-1.134195
H83	H	-0.301299	-1.752996	-1.038950
H84	H	-0.199624	-1.802277	-1.142366
H85	H	-0.263245	-1.804077	-1.237611
H86	H	-0.268022	-1.883689	-1.146462
C87	C	-0.512737	-1.345495	-0.923726
C88	C	-0.501326	-1.360577	-0.815163
C89	C	-0.554558	-1.290045	-0.763495
H90	H	-0.500547	-1.275658	-0.940868
H91	H	-0.568784	-1.357273	-0.945166
H92	H	-0.445291	-1.348791	-0.793731
H93	H	-0.513522	-1.430400	-0.797990
H94	H	-0.610605	-1.301822	-0.784935
H95	H	-0.542363	-1.220211	-0.780645
H96	H	-0.546828	-1.300274	-0.689831
