data_functionalizedCrystal
_audit_creation_method	'MofGen! by Chris Wilmer'
_symmetry_space_group_name_H-M	'P1'
_symmetry_Int_Tables_number	1
_symmetry_cell_setting	triclinic
loop_
_symmetry_equiv_pos_as_xyz
  x,y,z
_cell_length_a	10.686220
_cell_length_b	17.640280
_cell_length_c	10.686551
_cell_angle_alpha	106.368030
_cell_angle_beta	89.691918
_cell_angle_gamma	83.981976
loop_
_atom_site_label
_atom_site_type_symbol
_atom_site_fract_x
_atom_site_fract_y
_atom_site_fract_z
Zn1	Zn	2.029519	-0.193149	0.495722
Zn2	Zn	2.055778	-0.336546	0.236472
Zn3	Zn	1.809642	-0.213416	0.295045
Zn4	Zn	1.861733	-0.334940	0.462803
O5	O	1.939168	-0.269513	0.372511
O6	O	2.206230	-0.204361	0.450596
O7	O	2.012318	-0.329366	0.065537
O8	O	1.806019	-0.099857	0.359955
O9	O	2.225523	-0.309714	0.260125
O10	O	1.967562	-0.084968	0.507392
O11	O	1.831482	-0.238903	0.108570
O12	O	1.643324	-0.237346	0.328035
O13	O	1.894800	-0.306978	0.645875
O14	O	1.681595	-0.326629	0.451286
O15	O	2.018072	-0.202805	0.670060
O16	O	2.062828	-0.447203	0.228205
O17	O	1.920263	-0.446023	0.394490
C18	C	1.617544	-0.284013	0.392445
C19	C	1.479959	-0.290234	0.400997
C20	C	2.000083	-0.475357	0.301445
C21	C	2.026258	-0.563411	0.271079
C22	C	1.740852	-0.850116	0.603633
C23	C	1.765448	-0.932858	0.575058
C24	C	1.914008	-0.934008	0.402065
C25	C	1.889430	-0.851264	0.430629
C26	C	1.802849	-0.809324	0.531413
C27	C	1.951427	-0.810472	0.358409
C28	C	1.926845	-0.727736	0.386967
C29	C	1.840266	-0.685791	0.487744
C30	C	1.778267	-0.726588	0.559971
C31	C	2.038000	-0.852414	0.257619
C32	C	2.099997	-0.811622	0.185400
C33	C	2.075422	-0.728884	0.213963
C34	C	1.988843	-0.686939	0.314741
C35	C	2.137421	-0.688087	0.141737
C36	C	2.112839	-0.605351	0.170295
C37	C	1.964261	-0.604203	0.343299
C38	C	2.262048	-0.254956	0.352499
C39	C	2.399641	-0.248753	0.343971
C40	C	1.959317	-0.252451	0.705599
C41	C	1.967904	-0.245181	0.847542
C42	C	1.878051	-0.062861	0.443879
C43	C	1.852006	0.025201	0.474292
C44	C	1.919151	-0.286447	0.040733
C45	C	1.910739	-0.293484	-0.101147
H46	H	1.436133	-0.208480	0.288605
O47	O	1.837182	-0.355627	0.813230
H48	H	1.900856	-0.396521	0.735101
O49	O	1.813716	-0.596556	0.518516
H50	H	1.743077	-0.574250	0.600711
H51	H	2.023424	-0.198264	0.912208
H52	H	1.443463	-0.330515	0.456356
H53	H	2.207905	-0.722247	0.059670
H54	H	1.893768	-0.570053	0.425376
O55	O	1.684884	-0.681342	0.668675
H56	H	1.645895	-0.723605	0.714099
O57	O	2.179710	-0.561344	0.092415
H58	H	2.244055	-0.604405	0.017547
O59	O	1.647469	-0.804869	0.712336
H60	H	1.608480	-0.847132	0.757760
H61	H	1.714971	-0.966065	0.633890
O62	O	2.007425	-0.979239	0.293397
H63	H	2.014122	-1.043623	0.285685
O64	O	2.064510	-0.941653	0.226800
H65	H	2.165894	-0.957883	0.239368
O66	O	2.193414	-0.856854	0.076732
H67	H	2.200111	-0.921238	0.069020
