data_functionalizedCrystal
_audit_creation_method	'MofGen! by Chris Wilmer'
_symmetry_space_group_name_H-M	'P1'
_symmetry_Int_Tables_number	1
_symmetry_cell_setting	triclinic
loop_
_symmetry_equiv_pos_as_xyz
  x,y,z
_cell_length_a	14.044220
_cell_length_b	11.026607
_cell_length_c	10.065875
_cell_angle_alpha	79.268236
_cell_angle_beta	80.445026
_cell_angle_gamma	79.112553
loop_
_atom_site_label
_atom_site_type_symbol
_atom_site_fract_x
_atom_site_fract_y
_atom_site_fract_z
O1	O	1.319595	-0.281426	-0.113483
O2	O	1.041790	-0.270669	-0.113487
O3	O	1.157668	-0.096903	-0.113480
O4	O	1.203717	-0.455192	-0.113490
O5	O	1.135596	-0.130183	0.113507
O6	O	1.019719	-0.303950	0.113501
O7	O	1.297523	-0.314706	0.113504
Zn8	Zn	1.155117	-0.314612	0.149542
Zn9	Zn	1.184197	-0.270764	-0.149524
O10	O	1.181646	-0.488472	0.113498
C11	C	1.138137	-0.067412	0.000012
C12	C	1.112813	0.070044	0.000006
C13	C	0.994637	-0.282601	0.000006
C14	C	0.887015	-0.268557	0.000005
C15	C	1.344677	-0.302774	0.000008
C16	C	1.452300	-0.316816	0.000000
C17	C	1.649342	-0.342491	0.000001
C18	C	1.689979	-0.242888	0.000004
C19	C	1.799620	-0.257174	0.000005
C20	C	1.539691	-0.328207	0.000001
C21	C	1.201177	-0.517963	0.000003
C22	C	1.226501	-0.655417	-0.000001
N23	N	1.135277	-0.344537	0.353646
C24	C	1.182738	0.136280	0.000005
C25	C	1.156566	0.278349	-0.000000
N26	N	1.204042	-0.240830	-0.353629
C27	C	1.177287	-0.281167	0.421427
C28	C	1.162027	-0.304209	0.578594
H29	H	1.642436	-0.146870	-0.000092
F30	F	1.711493	-0.467965	-0.000010
F31	F	1.238855	-0.187719	0.345200
H32	H	1.261978	0.087810	0.000015
F33	F	1.052987	0.341691	-0.000014
F34	F	1.330083	0.281245	-0.000006
F35	F	1.266020	-0.147836	0.570152
H36	H	1.033574	0.118514	-0.000004
F37	F	1.100240	-0.397418	0.654816
H38	H	1.088010	-0.415844	0.411969
