data_functionalizedCrystal
_audit_creation_method	'MofGen! by Chris Wilmer'
_symmetry_space_group_name_H-M	'P1'
_symmetry_Int_Tables_number	1
_symmetry_cell_setting	triclinic
loop_
_symmetry_equiv_pos_as_xyz
  x,y,z
_cell_length_a	16.959455
_cell_length_b	16.959454
_cell_length_c	16.959447
_cell_angle_alpha	89.973264
_cell_angle_beta	89.979626
_cell_angle_gamma	90.017095
loop_
_atom_site_label
_atom_site_type_symbol
_atom_site_fract_x
_atom_site_fract_y
_atom_site_fract_z
Zn1	Zn	1.208384	-0.314729	-0.447056
Zn2	Zn	1.708384	0.185271	0.052944
Zn3	Zn	1.208306	-0.446921	-0.314886
Zn4	Zn	1.708306	0.053079	0.185114
Zn5	Zn	1.076212	-0.314754	-0.314880
Zn6	Zn	1.576212	0.185246	0.185120
Zn7	Zn	1.076177	-0.446862	-0.447010
Zn8	Zn	1.576177	0.053138	0.052990
O9	O	1.142270	-0.380816	-0.380958
O10	O	1.642270	0.119184	0.119042
O11	O	1.318984	-0.332279	-0.429545
O12	O	1.818984	0.167721	0.070455
O13	O	1.190766	-0.429424	-0.204274
O14	O	1.690766	0.070576	0.295726
O15	O	1.093792	-0.204140	-0.332430
O16	O	1.593792	0.295860	0.167570
O17	O	1.318927	-0.429400	-0.332440
O18	O	1.818927	0.070600	0.167560
O19	O	1.190898	-0.204121	-0.429539
O20	O	1.690898	0.295879	0.070461
O21	O	1.093717	-0.332321	-0.204269
O22	O	1.593717	0.167679	0.295731
O23	O	0.965597	-0.332264	-0.332385
O24	O	1.465597	0.167736	0.167615
O25	O	1.093732	-0.429299	-0.557627
O26	O	1.593732	0.070701	-0.057627
O27	O	0.965571	-0.429324	-0.429461
O28	O	1.465571	0.070676	0.070539
O29	O	1.190864	-0.332221	-0.557661
O30	O	1.690864	0.167779	-0.057661
O31	O	1.190732	-0.557524	-0.332396
O32	O	1.690732	-0.057524	0.167604
O33	O	1.093657	-0.557481	-0.429467
O34	O	1.593657	-0.057481	0.070533
C35	C	0.936904	-0.380791	-0.380918
C36	C	1.436904	0.119209	0.119082
C37	C	0.849047	-0.380799	-0.380920
C38	C	1.349047	0.119201	0.119080
C39	C	0.477531	-0.431337	-0.330370
C40	C	0.977531	0.068663	0.169630
C41	C	0.477612	-0.330361	-0.431642
C42	C	0.977612	0.169639	0.068358
C43	C	0.560158	-0.330348	-0.431623
C44	C	1.060158	0.169652	0.068377
C45	C	0.601394	-0.380831	-0.380977
C46	C	1.101394	0.119169	0.119023
C47	C	0.560085	-0.431328	-0.330350
C48	C	1.060085	0.068672	0.169650
C49	C	0.601473	-0.279859	-0.482255
C50	C	1.101473	0.220141	0.017745
C51	C	0.684024	-0.279844	-0.482238
C52	C	1.184024	0.220156	0.017762
C53	C	0.725262	-0.330324	-0.431588
C54	C	1.225262	0.169676	0.068412
C55	C	0.683948	-0.380822	-0.380958
C56	C	1.183948	0.119178	0.119042
C57	C	0.725184	-0.431305	-0.330312
C58	C	1.225184	0.068695	0.169688
C59	C	0.683871	-0.481799	-0.279678
C60	C	1.183871	0.018201	0.220322
C61	C	0.601323	-0.481807	-0.279700
C62	C	1.101323	0.018193	0.220300
C63	C	0.807811	-0.330315	-0.431566
C64	C	1.307811	0.169685	0.068434
C65	C	0.807738	-0.431295	-0.330293
C66	C	1.307738	0.068705	0.169707
C67	C	1.142204	-0.586183	-0.380944
C68	C	1.642204	-0.086183	0.119056
C69	C	1.142248	-0.674039	-0.380965
C70	C	1.642248	-0.174039	0.119035
C71	C	1.091796	-1.045522	-0.431498
C72	C	1.591796	-0.545522	0.068502
C73	C	1.192964	-1.045507	-0.330499
C74	C	1.692964	-0.545507	0.169501
C75	C	1.192936	-0.962962	-0.330491
C76	C	1.692936	-0.462962	0.169509
C77	C	1.142337	-0.921692	-0.380987
C78	C	1.642337	-0.421692	0.119013
C79	C	1.091765	-0.962969	-0.431490
C80	C	1.591765	-0.462969	0.068510
C81	C	1.243501	-0.921679	-0.279984
C82	C	1.743501	-0.421679	0.220016
C83	C	1.243475	-0.839128	-0.279974
C84	C	1.743475	-0.339128	0.220026
C85	C	1.192879	-0.797857	-0.330474
C86	C	1.692879	-0.297857	0.169526
C87	C	1.142306	-0.839139	-0.380980
C88	C	1.642306	-0.339139	0.119020
C89	C	1.091707	-0.797869	-0.431476
C90	C	1.591707	-0.297869	0.068524
C91	C	1.041138	-0.839150	-0.481986
C92	C	1.541138	-0.339150	0.018014
C93	C	1.041170	-0.921698	-0.481991
C94	C	1.541170	-0.421698	0.018009
C95	C	1.192847	-0.715309	-0.330469
C96	C	1.692847	-0.215309	0.169531
C97	C	1.091676	-0.715316	-0.431468
C98	C	1.591676	-0.215316	0.068532
C99	C	1.348438	-0.380843	-0.380998
C100	C	1.848438	0.119157	0.119002
C101	C	1.436295	-0.380854	-0.381016
C102	C	1.936295	0.119146	0.118984
C103	C	1.142303	-0.380751	-0.587126
C104	C	1.642303	0.119249	-0.087126
C105	C	1.142317	-0.380723	-0.674983
C106	C	1.642317	0.119277	-0.174983
C107	C	1.142358	-0.174648	-0.380989
C108	C	1.642358	0.325352	0.119011
C109	C	1.142395	-0.086792	-0.381002
C110	C	1.642395	0.413208	0.118998
C111	C	1.091839	-0.431184	-1.046444
C112	C	1.591839	0.068816	-0.546444
C113	C	1.192983	-0.330096	-1.046474
C114	C	1.692983	0.169904	-0.546474
C115	C	1.192962	-0.330113	-0.963928
C116	C	1.692962	0.169887	-0.463928
C117	C	1.142380	-0.380667	-0.922636
C118	C	1.642380	0.119333	-0.422636
C119	C	1.091818	-0.431204	-0.963890
C120	C	1.591818	0.068796	-0.463890
C121	C	1.243529	-0.279582	-0.922667
C122	C	1.743529	0.220418	-0.422667
C123	C	1.243510	-0.279597	-0.840116
C124	C	1.743510	0.220403	-0.340116
C125	C	1.192923	-0.330148	-0.798823
C126	C	1.692923	0.169852	-0.298823
C127	C	1.142359	-0.380686	-0.840082
C128	C	1.642359	0.119314	-0.340082
C129	C	1.091776	-0.431240	-0.798791
C130	C	1.591776	0.068760	-0.298791
C131	C	1.041207	-0.481776	-0.840048
C132	C	1.541207	0.018224	-0.340048
C133	C	1.041231	-0.481754	-0.922597
C134	C	1.541231	0.018246	-0.422597
C135	C	1.192899	-0.330169	-0.716275
C136	C	1.692899	0.169831	-0.216275
C137	C	1.091755	-0.431260	-0.716237
C138	C	1.591755	0.068740	-0.216237
C139	C	1.142283	-0.380825	-0.175592
C140	C	1.642283	0.119175	0.324408
C141	C	1.142422	-0.380630	-0.087736
C142	C	1.642422	0.119370	0.412264
H143	H	0.443890	-0.472446	-0.289142
H144	H	0.943890	0.027554	0.210858
H145	H	0.999998	-0.955316	-0.523112
H146	H	1.499998	-0.455316	-0.023112
Br147	Br	0.972464	-0.783131	-0.550507
Br148	Br	1.472464	-0.283131	-0.050507
Br149	Br	0.972569	-0.550389	-0.784000
Br150	Br	1.472569	-0.050389	-0.284000
Br151	Br	0.545507	-0.211363	-0.550998
Br152	Br	1.045507	0.288637	-0.050998
H153	H	1.000063	-0.522900	-0.956196
H154	H	1.500063	-0.022900	-0.456196
Br155	Br	0.863695	-0.499805	-0.261548
Br156	Br	1.363695	0.000195	0.238452
H157	H	1.050475	-0.681719	-0.472591
H158	H	1.550475	-0.181719	0.027409
Br159	Br	1.023175	-1.101541	-0.500050
Br160	Br	1.523175	-0.601541	-0.000050
Br161	Br	1.261459	-0.659289	-0.261915
Br162	Br	1.761459	-0.159289	0.238085
H163	H	0.717654	-0.238728	-0.523467
H164	H	1.217654	0.261272	-0.023467
Br165	Br	1.261530	-0.261599	-0.660285
Br166	Br	1.761530	0.238401	-0.160285
Br167	Br	0.863875	-0.261800	-0.500283
Br168	Br	1.363875	0.238200	-0.000283
Br169	Br	0.739844	-0.550317	-0.210955
Br170	Br	1.239844	-0.050317	0.289045
Br171	Br	1.261636	-0.261498	-1.102513
Br172	Br	1.761636	0.238502	-0.602513
H173	H	1.284715	-0.238429	-0.956293
H174	H	1.784715	0.261571	-0.456293
H175	H	1.284651	-0.805523	-0.238847
H176	H	1.784651	-0.305523	0.261153
H177	H	0.567678	-0.522917	-0.238476
H178	H	1.067678	-0.022917	0.261524
Br179	Br	0.421648	-0.261863	-0.500384
Br180	Br	0.921648	0.238137	-0.000384
H181	H	1.234154	-1.079114	-0.289383
H182	H	1.734154	-0.579114	0.210617
H183	H	1.284690	-0.955286	-0.238867
H184	H	1.784690	-0.455286	0.261133
H185	H	1.050665	-0.472326	-1.080039
H186	H	1.550665	0.027674	-0.580039
H187	H	1.050557	-0.472421	-0.682623
H188	H	1.550557	0.027579	-0.182623
Br189	Br	1.312136	-0.211014	-0.784131
Br190	Br	1.812136	0.288986	-0.284131
