data_functionalizedCrystal
_audit_creation_method	'MofGen! by Chris Wilmer'
_symmetry_space_group_name_H-M	'P1'
_symmetry_Int_Tables_number	1
_symmetry_cell_setting	triclinic
loop_
_symmetry_equiv_pos_as_xyz
  x,y,z
_cell_length_a	17.699083
_cell_length_b	14.853567
_cell_length_c	16.776229
_cell_angle_alpha	89.997147
_cell_angle_beta	89.998886
_cell_angle_gamma	83.458972
loop_
_atom_site_label
_atom_site_type_symbol
_atom_site_fract_x
_atom_site_fract_y
_atom_site_fract_z
O1	O	1.004374	0.114008	-0.066170
O2	O	0.784034	0.128841	-0.066195
O3	O	0.900090	-0.009827	-0.066184
O4	O	0.888319	0.252676	-0.066181
O5	O	0.900075	-0.009835	0.066392
O6	O	0.784019	0.128832	0.066381
O7	O	1.004359	0.114000	0.066407
Zn8	Zn	0.894187	0.121415	0.087443
Zn9	Zn	0.894207	0.121426	-0.087232
O10	O	0.888303	0.252667	0.066396
C11	C	0.755828	0.128305	0.000090
C12	C	0.671806	0.126711	0.000080
C13	C	0.899549	-0.043418	0.000102
C14	C	0.897951	-0.143496	0.000095
C15	C	0.623396	0.208106	0.000081
C16	C	0.544449	0.206602	0.000092
C17	C	0.513913	0.123703	0.000095
C18	C	0.562329	0.042301	0.000096
C19	C	0.641275	0.043806	0.000091
C20	C	0.243950	0.036232	0.000116
C21	C	0.164999	0.034734	0.000118
C22	C	0.147125	0.199028	0.000116
C23	C	0.226070	0.200533	0.000111
C24	C	0.274479	0.119132	0.000116
C25	C	0.360083	0.120763	0.000107
C26	C	0.428311	0.122070	0.000099
C27	C	0.822255	-0.555751	0.000101
C28	C	0.960131	-0.577539	0.000117
C29	C	0.961634	-0.483511	0.000112
C30	C	0.893446	-0.425598	0.000103
C31	C	0.823756	-0.461714	0.000099
C32	C	1.031324	-0.447389	0.000125
C33	C	1.032829	-0.353355	0.000121
C34	C	0.964641	-0.295441	0.000107
C35	C	0.894947	-0.331561	0.000101
C36	C	0.826759	-0.273648	0.000092
C37	C	0.757065	-0.309767	0.000081
C38	C	0.755567	-0.403799	0.000084
C39	C	0.966139	-0.201409	0.000104
C40	C	0.828260	-0.179611	0.000090
C41	C	1.032565	0.114535	0.000120
C42	C	1.116587	0.116130	0.000125
C43	C	0.888844	0.286258	0.000108
C44	C	0.890443	0.386336	0.000110
N45	N	0.894178	0.121406	0.206655
N46	N	0.894221	0.121427	-0.206443
C47	C	0.945583	0.060029	0.248377
C48	C	0.945587	0.060029	0.331829
C49	C	0.894190	0.121410	0.373558
C50	C	0.842779	0.182790	0.331830
C51	C	0.842772	0.182786	0.248379
C52	C	0.842806	0.182808	0.668377
C53	C	0.842819	0.182809	0.751834
C54	C	0.945622	0.060051	0.751827
C55	C	0.945615	0.060046	0.668376
C56	C	0.894202	0.121423	0.626656
C57	C	0.894197	0.121422	0.536167
C58	C	0.894198	0.121416	0.464044
H59	H	0.648252	0.275612	0.000078
O60	O	1.097535	-0.503683	-0.000004
C61	C	1.175839	-0.622541	-0.068649
C62	C	1.100834	-0.558818	-0.068612
H63	H	1.178524	-0.667148	-0.124103
H64	H	1.225940	-0.580626	-0.068689
H65	H	1.178558	-0.667070	-0.013140
H66	H	1.098041	-0.514277	-0.124111
H67	H	1.050768	-0.600787	-0.068529
H68	H	1.015647	-0.624697	0.000131
H69	H	1.089579	-0.323956	0.000129
O70	O	0.761950	-0.123486	0.000115
C71	C	0.625035	-0.111798	0.000043
C72	C	0.700073	-0.175462	0.000034
H73	H	0.574988	-0.153795	-0.000039
H74	H	0.622227	-0.067249	0.055539
H75	H	0.622342	-0.067209	-0.055427
H76	H	0.702816	-0.220108	0.055467
H77	H	0.702849	-0.219949	-0.055499
H78	H	1.022883	-0.172005	0.000118
H79	H	0.987440	0.010050	0.214407
O80	O	0.290860	-0.042921	0.000082
C81	C	0.300250	-0.206043	0.000135
C82	C	0.247035	-0.116465	0.000153
H83	H	0.264839	-0.265527	0.000209
H84	H	0.337645	-0.209511	-0.055361
H85	H	0.337672	-0.209400	0.055605
H86	H	0.209566	-0.113048	-0.055280
H87	H	0.209691	-0.113034	0.055685
O88	O	0.995604	0.000383	0.372234
C89	C	1.097563	-0.121393	0.363420
C90	C	1.040966	-0.053881	0.317564
H91	H	1.134242	-0.165296	0.319240
H92	H	1.135459	-0.082558	0.402456
H93	H	1.064844	-0.166350	0.402523
H94	H	1.073624	-0.008907	0.278418
H95	H	1.003071	-0.092773	0.278578
H96	H	0.537461	-0.025197	0.000110
H97	H	0.698825	-0.433216	0.000076
O98	O	0.754538	-0.590789	-0.000051
C99	C	0.636225	-0.600879	-0.068729
C100	C	0.712894	-0.561155	-0.068665
H101	H	0.602527	-0.576921	-0.124189
H102	H	0.646817	-0.678038	-0.068781
H103	H	0.602549	-0.577036	-0.013225
H104	H	0.746610	-0.584928	-0.124159
H105	H	0.702249	-0.484001	-0.068571
H106	H	0.140140	-0.032777	0.000121
O107	O	0.497390	0.285643	0.000226
C108	C	0.397848	0.379277	0.068877
C109	C	0.451112	0.289737	0.068836
H110	H	0.360407	0.382607	0.124334
H111	H	0.433192	0.438824	0.068918
H112	H	0.360475	0.382659	0.013371
H113	H	0.488496	0.286265	0.124333
H114	H	0.415723	0.230232	0.068754
O115	O	0.995571	0.000333	0.627965
C116	C	1.097568	-0.121400	0.636768
C117	C	1.041024	-0.053834	0.682631
H118	H	1.134343	-0.165198	0.680945
H119	H	1.064881	-0.166452	0.597729
H120	H	1.135377	-0.082518	0.597667
H121	H	1.003201	-0.092642	0.721774
H122	H	1.073758	-0.008782	0.721619
H123	H	0.987483	0.010072	0.785804
O124	O	0.690779	-0.253597	-0.000034
C125	C	0.573430	-0.206136	-0.068760
C126	C	0.648458	-0.269818	-0.068719
H127	H	0.539200	-0.219215	-0.124295
H128	H	0.539075	-0.219259	-0.013321
H129	H	0.586500	-0.132736	-0.068717
H130	H	0.635457	-0.343242	-0.068791
H131	H	0.682791	-0.256617	-0.124154
O132	O	0.792779	0.242343	0.792335
C133	C	0.661237	0.295383	0.817857
C134	C	0.717818	0.227902	0.771953
H135	H	0.600618	0.283743	0.801382
H136	H	0.670012	0.284843	0.884677
H137	H	0.671199	0.367573	0.801452
H138	H	0.707889	0.155685	0.788291
H139	H	0.709029	0.238521	0.705144
O140	O	0.792945	0.242559	0.627897
C141	C	0.748726	0.399392	0.602413
C142	C	0.805250	0.331816	0.648293
H143	H	0.758644	0.471570	0.618899
H144	H	0.757537	0.388933	0.535589
H145	H	0.688106	0.387689	0.618827
H146	H	0.865892	0.343478	0.631946
H147	H	0.796372	0.342291	0.715105
O148	O	0.792819	0.242291	0.372453
C149	C	0.689461	0.261638	0.466650
C150	C	0.746008	0.194151	0.420710
H151	H	0.651588	0.222743	0.505664
H152	H	0.722145	0.306617	0.505764
H153	H	0.652750	0.305523	0.422480
H154	H	0.782732	0.150206	0.464823
H155	H	0.713277	0.149234	0.381584
O156	O	0.792914	0.242534	0.207883
C157	C	0.748688	0.399359	0.182375
C158	C	0.805210	0.331796	0.228270
H159	H	0.758599	0.471542	0.198853
H160	H	0.757509	0.388890	0.115554
H161	H	0.688068	0.387654	0.198783
H162	H	0.865853	0.343461	0.211929
H163	H	0.796323	0.342282	0.295080
H164	H	0.250928	0.268038	0.000105
H165	H	0.107700	0.265309	0.000116
H166	H	0.680690	-0.022475	0.000090
