data_functionalizedCrystal
_audit_creation_method	'MofGen! by Chris Wilmer'
_symmetry_space_group_name_H-M	'P1'
_symmetry_Int_Tables_number	1
_symmetry_cell_setting	triclinic
loop_
_symmetry_equiv_pos_as_xyz
  x,y,z
_cell_length_a	16.959455
_cell_length_b	18.050590
_cell_length_c	16.959447
_cell_angle_alpha	89.968225
_cell_angle_beta	89.985678
_cell_angle_gamma	90.015500
loop_
_atom_site_label
_atom_site_type_symbol
_atom_site_fract_x
_atom_site_fract_y
_atom_site_fract_z
Zn1	Zn	1.208392	-0.295705	-0.446901
Zn2	Zn	1.541725	0.037628	-0.113567
Zn3	Zn	1.875059	0.370961	0.219766
Zn4	Zn	1.208318	-0.419907	-0.314719
Zn5	Zn	1.541651	-0.086574	0.018615
Zn6	Zn	1.874985	0.246760	0.351948
Zn7	Zn	1.076221	-0.295729	-0.314738
Zn8	Zn	1.409554	0.037605	0.018595
Zn9	Zn	1.742887	0.370938	0.351928
Zn10	Zn	1.076189	-0.419851	-0.446857
Zn11	Zn	1.409522	-0.086518	-0.113524
Zn12	Zn	1.742855	0.246815	0.219809
O13	O	1.142280	-0.357798	-0.380804
O14	O	1.475613	-0.024465	-0.047470
O15	O	1.808947	0.308869	0.285863
O16	O	1.318993	-0.312194	-0.429376
O17	O	1.652327	0.021139	-0.096043
O18	O	1.985660	0.354472	0.237290
O19	O	1.190777	-0.403467	-0.204110
O20	O	1.524111	-0.070134	0.129223
O21	O	1.857444	0.263199	0.462556
O22	O	1.093798	-0.191801	-0.332296
O23	O	1.427131	0.141532	0.001037
O24	O	1.760464	0.474866	0.334371
O25	O	1.318939	-0.403445	-0.332263
O26	O	1.652272	-0.070111	0.001070
O27	O	1.985605	0.263222	0.334404
O28	O	1.190904	-0.191784	-0.429395
O29	O	1.524237	0.141550	-0.096062
O30	O	1.857570	0.474883	0.237271
O31	O	1.093726	-0.312234	-0.204125
O32	O	1.427059	0.021099	0.129209
O33	O	1.760393	0.354433	0.462542
O34	O	0.965605	-0.312180	-0.332254
O35	O	1.298939	0.021153	0.001079
O36	O	1.632272	0.354486	0.334413
O37	O	1.093743	-0.403350	-0.557474
O38	O	1.427077	-0.070017	-0.224141
O39	O	1.760410	0.263317	0.109193
O40	O	0.965582	-0.403373	-0.429321
O41	O	1.298915	-0.070039	-0.095988
O42	O	1.632249	0.263294	0.237345
O43	O	1.190873	-0.312141	-0.557506
O44	O	1.524206	0.021193	-0.224173
O45	O	1.857539	0.354526	0.109161
O46	O	1.190747	-0.523824	-0.332221
O47	O	1.524080	-0.190491	0.001112
O48	O	1.857413	0.142843	0.334446
O49	O	1.093672	-0.523783	-0.429303
O50	O	1.427005	-0.190450	-0.095969
O51	O	1.760338	0.142883	0.237364
C52	C	0.936914	-0.357774	-0.380786
C53	C	1.270247	-0.024440	-0.047452
C54	C	1.603580	0.308893	0.285881
C55	C	0.849057	-0.357781	-0.380797
C56	C	1.182390	-0.024448	-0.047463
C57	C	1.515724	0.308886	0.285870
C58	C	0.477569	-0.310275	-0.330366
C59	C	0.810903	0.023058	0.002967
C60	C	1.144236	0.356391	0.336300
C61	C	0.477594	-0.405382	-0.431286
C62	C	0.810927	-0.072049	-0.097953
C63	C	1.144260	0.261285	0.235380
C64	C	0.560140	-0.405371	-0.431282
C65	C	0.893473	-0.072038	-0.097948
C66	C	1.226806	0.261295	0.235385
C67	C	0.601404	-0.357813	-0.380818
C68	C	0.934737	-0.024479	-0.047484
C69	C	1.268071	0.308854	0.285849
C70	C	0.560123	-0.310265	-0.330358
C71	C	0.893456	0.023069	0.002975
C72	C	1.226789	0.356402	0.336308
C73	C	0.601427	-0.452924	-0.481734
C74	C	0.934760	-0.119590	-0.148401
C75	C	1.268094	0.213743	0.184932
C76	C	0.683978	-0.452916	-0.481731
C77	C	1.017311	-0.119582	-0.148397
C78	C	1.350645	0.213751	0.184936
C79	C	0.725244	-0.405353	-0.431270
C80	C	1.058577	-0.072019	-0.097937
C81	C	1.391911	0.261314	0.235397
C82	C	0.683958	-0.357802	-0.380809
C83	C	1.017291	-0.024469	-0.047476
C84	C	1.350624	0.308865	0.285857
C85	C	0.725222	-0.310243	-0.330345
C86	C	1.058555	0.023090	0.002988
C87	C	1.391889	0.356423	0.336321
C88	C	0.683937	-0.262689	-0.279888
C89	C	1.017271	0.070645	0.053445
C90	C	1.350604	0.403978	0.386779
C91	C	0.601389	-0.262702	-0.279898
C92	C	0.934722	0.070632	0.053436
C93	C	1.268055	0.403965	0.386769
C94	C	0.807793	-0.405340	-0.431261
C95	C	1.141126	-0.072006	-0.097927
C96	C	1.474459	0.261327	0.235406
C97	C	0.807776	-0.310233	-0.330337
C98	C	1.141109	0.023100	0.002996
C99	C	1.474442	0.356434	0.336329
C100	C	1.142219	-0.550750	-0.380772
C101	C	1.475552	-0.217417	-0.047439
C102	C	1.808886	0.115916	0.285894
C103	C	1.142265	-0.633296	-0.380785
C104	C	1.475599	-0.299963	-0.047452
C105	C	1.808932	0.033371	0.285881
C106	C	1.195165	-0.832742	-0.328066
C107	C	1.528498	-0.499408	0.005267
C108	C	1.861831	-0.166075	0.338601
C109	C	1.214468	-0.882071	-0.400207
C110	C	1.547801	-0.548738	-0.066873
C111	C	1.881134	-0.215405	0.266460
C112	C	1.142310	-0.784426	-0.380817
C113	C	1.475644	-0.451093	-0.047483
C114	C	1.808977	-0.117760	0.285850
C115	C	1.123088	-0.882178	-0.308709
C116	C	1.456421	-0.548845	0.024625
C117	C	1.789754	-0.215512	0.357958
C118	C	1.142355	-0.930411	-0.380841
C119	C	1.475688	-0.597078	-0.047508
C120	C	1.809022	-0.263745	0.285826
C121	C	1.161650	-0.832669	-0.452995
C122	C	1.494984	-0.499335	-0.119662
C123	C	1.828317	-0.166002	0.213671
C124	C	1.070237	-0.832771	-0.361449
C125	C	1.403570	-0.499438	-0.028115
C126	C	1.736904	-0.166105	0.305218
C127	C	1.089513	-0.882079	-0.433639
C128	C	1.422846	-0.548745	-0.100306
C129	C	1.756179	-0.215412	0.233028
C130	C	1.142287	-0.700328	-0.380802
C131	C	1.475620	-0.366995	-0.047468
C132	C	1.808953	-0.033661	0.285865
C133	C	1.142379	-1.014508	-0.380864
C134	C	1.475712	-0.681175	-0.047531
C135	C	1.809046	-0.347841	0.285803
C136	C	1.348448	-0.357823	-0.380822
C137	C	1.681781	-0.024490	-0.047489
C138	C	2.015115	0.308844	0.285844
C139	C	1.436305	-0.357834	-0.380830
C140	C	1.769638	-0.024501	-0.047497
C141	C	2.102971	0.308833	0.285836
C142	C	1.142313	-0.357737	-0.586972
C143	C	1.475646	-0.024403	-0.253639
C144	C	1.808979	0.308930	0.079695
C145	C	1.142327	-0.357710	-0.674829
C146	C	1.475660	-0.024377	-0.341495
C147	C	1.808993	0.308956	-0.008162
C148	C	1.142362	-0.164092	-0.380853
C149	C	1.475696	0.169241	-0.047519
C150	C	1.809029	0.502574	0.285814
C151	C	1.142398	-0.081547	-0.380874
C152	C	1.475731	0.251787	-0.047540
C153	C	1.809064	0.585120	0.285793
C154	C	1.091850	-0.405121	-1.046290
C155	C	1.425184	-0.071787	-0.712957
C156	C	1.758517	0.261546	-0.379624
C157	C	1.192992	-0.310143	-1.046319
C158	C	1.526325	0.023190	-0.712985
C159	C	1.859659	0.356523	-0.379652
C160	C	1.192971	-0.310159	-0.963773
C161	C	1.526304	0.023174	-0.630439
C162	C	1.859638	0.356508	-0.297106
C163	C	1.142390	-0.357657	-0.922482
C164	C	1.475723	-0.024324	-0.589149
C165	C	1.809056	0.309010	-0.255815
C166	C	1.091830	-0.405139	-0.963737
C167	C	1.425163	-0.071806	-0.630404
C168	C	1.758496	0.261527	-0.297070
C169	C	1.243536	-0.262683	-0.922512
C170	C	1.576869	0.070650	-0.589178
C171	C	1.910203	0.403984	-0.255845
C172	C	1.243518	-0.262698	-0.839961
C173	C	1.576851	0.070636	-0.506627
C174	C	1.910184	0.403969	-0.173294
C175	C	1.192932	-0.310192	-0.798668
C176	C	1.526265	0.023141	-0.465335
C177	C	1.859598	0.356474	-0.132001
C178	C	1.142369	-0.357676	-0.839928
C179	C	1.475702	-0.024343	-0.506595
C180	C	1.809035	0.308991	-0.173262
C181	C	1.091788	-0.405174	-0.798637
C182	C	1.425121	-0.071841	-0.465304
C183	C	1.758454	0.261493	-0.131971
C184	C	1.041220	-0.452654	-0.839896
C185	C	1.374553	-0.119321	-0.506563
C186	C	1.707887	0.214012	-0.173229
C187	C	1.041244	-0.452634	-0.922444
C188	C	1.374577	-0.119301	-0.589111
C189	C	1.707910	0.214032	-0.255778
C190	C	1.192908	-0.310212	-0.716120
C191	C	1.526241	0.023121	-0.382786
C192	C	1.859575	0.356454	-0.049453
C193	C	1.091767	-0.405193	-0.716084
C194	C	1.425100	-0.071859	-0.382750
C195	C	1.758433	0.261474	-0.049417
C196	C	1.142293	-0.357806	-0.175438
C197	C	1.475626	-0.024472	0.157896
C198	C	1.808959	0.308861	0.491229
C199	C	1.142432	-0.357623	-0.087581
C200	C	1.475765	-0.024289	0.245752
C201	C	1.809098	0.309044	0.579085
H202	H	0.443951	-0.271555	-0.289287
H203	H	0.777285	0.061778	0.044046
H204	H	1.110618	0.395111	0.377379
H205	H	1.234081	-0.271557	-0.682531
H206	H	1.567415	0.061777	-0.349197
H207	H	1.900748	0.395110	-0.015864
H208	H	1.284692	-0.224036	-0.806375
H209	H	1.618026	0.109298	-0.473041
H210	H	1.951359	0.442631	-0.139708
H211	H	1.234177	-0.271477	-1.079943
H212	H	1.567511	0.061856	-0.746609
H213	H	1.900844	0.395190	-0.413276
H214	H	0.841367	-0.271500	-0.289248
H215	H	1.174701	0.061834	0.044086
H216	H	1.508034	0.395167	0.377419
Cl217	Cl	0.735822	-0.202908	-0.216445
Cl218	Cl	1.069156	0.130426	0.116888
Cl219	Cl	1.402489	0.463759	0.450221
Cl220	Cl	0.425718	-0.465182	-0.494707
Cl221	Cl	0.759051	-0.131849	-0.161373
Cl222	Cl	1.092384	0.201484	0.171960
Cl223	Cl	1.308603	-0.915492	-0.425537
Cl224	Cl	1.641936	-0.582159	-0.092204
Cl225	Cl	1.975269	-0.248825	0.241130
H226	H	1.106811	-0.903925	-0.247718
H227	H	1.440144	-0.570592	0.085616
H228	H	1.773478	-0.237258	0.418949
Cl229	Cl	0.549483	-0.202925	-0.216471
Cl230	Cl	0.882817	0.130408	0.116862
Cl231	Cl	1.216150	0.463741	0.450196
Cl232	Cl	1.028170	-0.464904	-0.664182
Cl233	Cl	1.361504	-0.131571	-0.330849
Cl234	Cl	1.694837	0.201763	0.002485
Cl235	Cl	0.549549	-0.512731	-0.545145
Cl236	Cl	0.882882	-0.179398	-0.211812
Cl237	Cl	1.216215	0.153936	0.121522
H238	H	0.717585	-0.491637	-0.522817
H239	H	1.050919	-0.158304	-0.189483
H240	H	1.384252	0.175030	0.143850
H241	H	1.044835	-0.903605	-0.478311
H242	H	1.378168	-0.570272	-0.144977
H243	H	1.711501	-0.236938	0.188356
H244	H	0.841403	-0.444060	-0.472340
H245	H	1.174736	-0.110727	-0.139006
H246	H	1.508070	0.222606	0.194327
H247	H	1.284721	-0.224017	-0.956137
H248	H	1.618055	0.109316	-0.622803
H249	H	1.951388	0.442649	-0.289470
Cl250	Cl	0.976127	-0.799312	-0.336103
Cl251	Cl	1.309460	-0.465978	-0.002769
Cl252	Cl	1.642794	-0.132645	0.330564
Cl253	Cl	0.977639	-0.512367	-0.787978
Cl254	Cl	1.310972	-0.179034	-0.454644
Cl255	Cl	1.644306	0.154299	-0.121311
H256	H	1.000077	-0.491293	-0.956045
H257	H	1.333410	-0.157959	-0.622711
H258	H	1.666744	0.175374	-0.289378
Cl259	Cl	1.028281	-0.464805	-1.098155
Cl260	Cl	1.361614	-0.131472	-0.764822
Cl261	Cl	1.694948	0.201862	-0.431489
Cl262	Cl	1.264193	-0.799291	-0.259262
Cl263	Cl	1.597526	-0.465958	0.074071
Cl264	Cl	1.930859	-0.132624	0.407405
Cl265	Cl	1.186902	-0.799240	-0.547186
Cl266	Cl	1.520236	-0.465907	-0.213852
Cl267	Cl	1.853569	-0.132574	0.119481
