data_functionalizedCrystal
_audit_creation_method	'MofGen! by Chris Wilmer'
_symmetry_space_group_name_H-M	'P1'
_symmetry_Int_Tables_number	1
_symmetry_cell_setting	triclinic
loop_
_symmetry_equiv_pos_as_xyz
  x,y,z
_cell_length_a	16.109301
_cell_length_b	15.944551
_cell_length_c	15.186229
_cell_angle_alpha	89.995303
_cell_angle_beta	89.999362
_cell_angle_gamma	83.480109
loop_
_atom_site_label
_atom_site_type_symbol
_atom_site_fract_x
_atom_site_fract_y
_atom_site_fract_z
O1	O	1.103166	0.107966	-0.073175
O2	O	1.603166	0.607966	0.426825
O3	O	0.861108	0.121402	-0.073189
O4	O	1.361108	0.621402	0.426811
O5	O	0.988747	-0.007593	-0.073174
O6	O	1.488747	0.492407	0.426826
O7	O	0.975527	0.236961	-0.073190
O8	O	1.475527	0.736961	0.426810
O9	O	0.988738	-0.007594	0.073284
O10	O	1.488738	0.492406	0.573284
O11	O	0.861099	0.121401	0.073268
O12	O	1.361099	0.621401	0.573268
O13	O	1.103157	0.107964	0.073282
O14	O	1.603157	0.607964	0.573282
Zn15	Zn	0.982127	0.114682	0.096529
Zn16	Zn	1.482127	0.614682	0.596529
Zn17	Zn	0.982138	0.114685	-0.096435
Zn18	Zn	1.482138	0.614685	0.403565
O19	O	0.975518	0.236960	0.073267
O20	O	1.475518	0.736960	0.573267
C21	C	0.830129	0.120857	0.000038
C22	C	1.330129	0.620857	0.500038
C23	C	0.737833	0.119226	0.000033
C24	C	1.237833	0.619226	0.500033
C25	C	0.988194	-0.038887	0.000055
C26	C	1.488194	0.461113	0.500055
C27	C	0.986548	-0.132133	0.000056
C28	C	1.486548	0.367867	0.500056
C29	C	0.515584	0.191975	0.000038
C30	C	1.015584	0.691975	0.500038
C31	C	0.428863	0.190435	0.000044
C32	C	0.928863	0.690435	0.500044
C33	C	0.448688	0.037387	0.000050
C34	C	0.948688	0.537387	0.500050
C35	C	0.535407	0.038927	0.000051
C36	C	1.035407	0.538927	0.500051
C37	C	0.568853	0.116224	0.000040
C38	C	1.068853	0.616224	0.500040
C39	C	0.395412	0.113143	0.000045
C40	C	0.895412	0.613143	0.500045
C41	C	0.301386	0.111473	0.000052
C42	C	0.801386	0.611473	0.500052
C43	C	0.662885	0.117894	0.000036
C44	C	1.162885	0.617894	0.500036
C45	C	0.903499	-0.346962	0.000039
C46	C	1.403499	0.153038	0.500039
C47	C	0.942060	-0.407993	0.072253
C48	C	1.442060	0.092007	0.572253
C49	C	0.983572	-0.302858	0.000049
C50	C	1.483572	0.197142	0.500049
C51	C	0.942087	-0.407975	-0.072142
C52	C	1.442087	0.092025	0.427858
C53	C	0.980691	-0.467769	0.000038
C54	C	1.480691	0.032231	0.500038
C55	C	1.022155	-0.362660	0.072323
C56	C	1.522155	0.137340	0.572323
C57	C	1.022171	-0.362636	-0.072137
C58	C	1.522171	0.137364	0.427863
C59	C	1.060790	-0.423649	0.000095
C60	C	1.560790	0.076351	0.500095
C61	C	0.985229	-0.207856	0.000055
C62	C	1.485229	0.292144	0.500055
C63	C	0.979039	-0.562770	0.000038
C64	C	1.479039	-0.062770	0.500038
C65	C	1.134136	0.108510	0.000054
C66	C	1.634136	0.608510	0.500054
C67	C	1.226432	0.110141	0.000053
C68	C	1.726432	0.610141	0.500053
C69	C	0.976071	0.268254	0.000036
C70	C	1.476071	0.768254	0.500036
C71	C	0.977717	0.361500	0.000030
C72	C	1.477717	0.861500	0.500030
N73	N	0.982125	0.114680	0.228221
N74	N	1.482125	0.614680	0.728221
N75	N	0.982146	0.114680	-0.228128
N76	N	1.482146	0.614680	0.271872
C77	C	1.038663	0.057580	0.453951
C78	C	1.538663	0.557580	0.953951
C79	C	1.038666	0.057578	0.546141
C80	C	1.538666	0.557578	1.046141
C81	C	0.925603	0.171783	0.546136
C82	C	1.425603	0.671783	1.046136
C83	C	0.925597	0.171780	0.453948
C84	C	1.425597	0.671780	0.953948
C85	C	0.982132	0.114680	0.407858
C86	C	1.482132	0.614680	0.907858
C87	C	0.982140	0.114680	0.592236
C88	C	1.482140	0.614680	1.092236
C89	C	0.982143	0.114679	0.692192
C90	C	1.482143	0.614679	1.192192
C91	C	0.982128	0.114680	0.307895
C92	C	1.482128	0.614680	0.807895
H93	H	0.542812	0.254914	0.000036
H94	H	1.042812	0.754914	0.500036
H95	H	0.385495	0.252119	0.000044
H96	H	0.885495	0.752119	0.500044
C97	C	1.099912	-0.004511	0.596231
C98	C	1.599912	0.495489	1.096231
C99	C	1.055630	-0.055961	0.649145
C100	C	1.555630	0.444039	1.149145
C101	C	1.112023	-0.113178	0.695291
C102	C	1.612023	0.386822	1.195291
H103	H	1.134544	0.025616	0.632261
H104	H	1.634544	0.525616	1.132261
H105	H	1.133567	-0.038565	0.555603
H106	H	1.633567	0.461435	1.055603
H107	H	1.021990	-0.021911	0.689769
H108	H	1.521990	0.478089	1.189769
H109	H	1.021001	-0.086107	0.613137
H110	H	1.521001	0.413893	1.113137
H111	H	1.145678	-0.147232	0.654663
H112	H	1.645678	0.352768	1.154663
H113	H	1.146652	-0.083044	0.731317
H114	H	1.646652	0.416956	1.231317
H115	H	1.081986	-0.148098	0.731193
H116	H	1.581986	0.351902	1.231193
H117	H	0.421446	-0.025546	0.000064
H118	H	0.921446	0.474454	0.500064
H119	H	1.055990	-0.342682	0.133442
H120	H	1.555990	0.157318	0.633442
C121	C	0.593346	-0.043258	-0.000086
C122	C	1.093346	0.456742	0.499914
C123	C	0.643728	-0.046829	-0.075422
C124	C	1.143728	0.453171	0.424578
C125	C	0.697118	-0.122516	-0.075570
C126	C	1.197118	0.377484	0.424430
H127	H	0.561113	-0.089583	-0.000131
H128	H	1.061113	0.410417	0.499869
H129	H	0.627635	-0.045845	0.050961
H130	H	1.127635	0.454155	0.550961
H131	H	0.609443	-0.044250	-0.126457
H132	H	1.109443	0.455750	0.373543
H133	H	0.675979	-0.000522	-0.075393
H134	H	1.175979	0.499478	0.424607
H135	H	0.731407	-0.125103	-0.024522
H136	H	1.231407	0.374897	0.475478
H137	H	0.664878	-0.168834	-0.075612
H138	H	1.164878	0.331166	0.424388
H139	H	0.731314	-0.124945	-0.126680
H140	H	1.231314	0.375055	0.373320
C141	C	0.864312	0.233915	0.403945
C142	C	1.364312	0.733915	0.903945
C143	C	0.877813	0.316462	0.426338
C144	C	1.377813	0.816462	0.926338
C145	C	0.821382	0.373718	0.380285
C146	C	1.321382	0.873718	0.880285
H147	H	0.808791	0.224892	0.419021
H148	H	1.308791	0.724892	0.919021
H149	H	0.872407	0.225791	0.342432
H150	H	1.372407	0.725791	0.842432
H151	H	0.869710	0.324583	0.487838
H152	H	1.369710	0.824583	0.987838
H153	H	0.933323	0.325512	0.411260
H154	H	1.433323	0.825512	0.911260
H155	H	0.829477	0.365593	0.318772
H156	H	1.329477	0.865593	0.818772
H157	H	0.765864	0.364687	0.395365
H158	H	1.265864	0.864687	0.895365
H159	H	0.830539	0.429732	0.395466
H160	H	1.330539	0.929732	0.895466
C161	C	1.099959	-0.004364	0.403750
C162	C	1.599959	0.495636	0.903750
C163	C	1.087854	0.007848	0.313149
C164	C	1.587854	0.507848	0.813149
C165	C	1.144294	-0.049213	0.266880
C166	C	1.644294	0.450787	0.766880
H167	H	1.090940	-0.060446	0.418784
H168	H	1.590940	0.439554	0.918784
H169	H	1.155480	0.004738	0.418779
H170	H	1.655480	0.504738	0.918779
H171	H	1.032346	-0.001260	0.298127
H172	H	1.532346	0.498740	0.798127
H173	H	1.096880	0.063919	0.298089
H174	H	1.596880	0.563919	0.798089
H175	H	1.199815	-0.040111	0.281908
H176	H	1.699815	0.459889	0.781908
H177	H	1.135271	-0.105291	0.281921
H178	H	1.635271	0.394709	0.781921
H179	H	1.136094	-0.040930	0.205403
H180	H	1.636094	0.459070	0.705403
H181	H	0.837035	-0.313632	0.000107
H182	H	1.337035	0.186368	0.500107
C183	C	0.896995	-0.434697	0.153759
C184	C	1.396995	0.065303	0.653759
C185	C	0.938272	-0.410599	0.229197
C186	C	1.438272	0.089401	0.729197
C187	C	0.896770	-0.435171	0.304292
C188	C	1.396770	0.064829	0.804292
H189	H	0.896709	-0.494237	0.153561
H190	H	1.396709	0.005763	0.653561
H191	H	0.841126	-0.408155	0.153731
H192	H	1.341126	0.091845	0.653731
H193	H	0.994125	-0.437143	0.229226
H194	H	1.494125	0.062857	0.729226
H195	H	0.938558	-0.351062	0.229424
H196	H	1.438558	0.148938	0.729424
H197	H	0.840902	-0.408629	0.304264
H198	H	1.340902	0.091371	0.804264
H199	H	0.896488	-0.494712	0.304085
H200	H	1.396488	0.005288	0.804085
H201	H	0.924766	-0.418818	0.355486
H202	H	1.424766	0.081182	0.855486
C203	C	1.149504	-0.467857	0.000332
C204	C	1.649504	0.032143	0.500332
C205	C	1.191025	-0.444886	0.076075
C206	C	1.691025	0.055114	0.576075
C207	C	1.272743	-0.485604	0.076334
C208	C	1.772743	0.014396	0.576334
H209	H	1.178263	-0.451674	-0.050417
H210	H	1.678263	0.048326	0.449583
H211	H	1.148010	-0.527250	-0.000107
H212	H	1.648010	-0.027250	0.499893
H213	H	1.192523	-0.385505	0.076506
H214	H	1.692523	0.114495	0.576506
H215	H	1.162291	-0.461070	0.126837
H216	H	1.662291	0.038930	0.626837
H217	H	1.271249	-0.544997	0.075895
H218	H	1.771249	-0.044997	0.575895
H219	H	1.301494	-0.469417	0.025582
H220	H	1.801494	0.030583	0.525582
H221	H	1.300922	-0.470030	0.127728
H222	H	1.800922	0.029970	0.627728
H223	H	1.056013	-0.342516	-0.133188
H224	H	1.556013	0.157484	0.366812
H225	H	0.908213	-0.428040	-0.133198
H226	H	1.408213	0.071960	0.366802
C227	C	0.864324	0.233744	0.596338
C228	C	1.364324	0.733744	1.096338
C229	C	0.876443	0.221543	0.686939
C230	C	1.376443	0.721543	1.186939
C231	C	0.820017	0.278617	0.733210
C232	C	1.320017	0.778617	1.233210
H233	H	0.808799	0.224663	0.581345
H234	H	1.308799	0.724663	1.081345
H235	H	0.873363	0.289823	0.581271
H236	H	1.373363	0.789823	1.081271
H237	H	0.867398	0.165478	0.702000
H238	H	1.367398	0.665478	1.202000
H239	H	0.931956	0.230631	0.701959
H240	H	1.431956	0.730631	1.201959
H241	H	0.829056	0.334696	0.718142
H242	H	1.329056	0.834696	1.218142
H243	H	0.764496	0.269531	0.718209
H244	H	1.264496	0.769531	1.218209
H245	H	0.828238	0.270352	0.794687
H246	H	1.328238	0.770352	1.294687
