data_functionalizedCrystal
_audit_creation_method	'MofGen! by Chris Wilmer'
_symmetry_space_group_name_H-M	'P1'
_symmetry_Int_Tables_number	1
_symmetry_cell_setting	triclinic
loop_
_symmetry_equiv_pos_as_xyz
  x,y,z
_cell_length_a	16.109318
_cell_length_b	11.792241
_cell_length_c	15.186229
_cell_angle_alpha	89.996105
_cell_angle_beta	90.000224
_cell_angle_gamma	83.830989
loop_
_atom_site_label
_atom_site_type_symbol
_atom_site_fract_x
_atom_site_fract_y
_atom_site_fract_z
O1	O	1.103809	0.145979	-0.073156
O2	O	0.861834	0.164114	-0.073173
O3	O	0.988693	-0.010175	-0.073158
O4	O	0.976949	0.320268	-0.073171
O5	O	0.988685	-0.010178	0.073299
O6	O	0.861825	0.164111	0.073284
O7	O	1.103800	0.145976	0.073302
Zn8	Zn	0.982811	0.155043	0.096546
Zn9	Zn	0.982823	0.155047	-0.096418
O10	O	0.976941	0.320265	0.073286
C11	C	0.830852	0.163374	0.000053
C12	C	0.738547	0.161162	0.000046
C13	C	0.439444	0.154017	-0.079772
C14	C	0.526175	0.156088	-0.079777
C15	C	0.526184	0.156070	0.079898
C16	C	0.439456	0.153990	0.079903
C17	C	0.396087	0.152969	0.000065
C18	C	0.569547	0.157121	0.000055
C19	C	0.663585	0.159367	0.000050
C20	C	0.302044	0.150721	0.000070
C21	C	0.987951	-0.052461	0.000070
C22	C	0.985743	-0.178456	0.000069
C23	C	0.981683	-0.409133	0.000054
C24	C	0.983939	-0.280767	0.000063
C25	C	1.134782	0.146716	0.000073
C26	C	1.227087	0.148928	0.000074
C27	C	0.977683	0.362551	0.000056
C28	C	0.979891	0.488546	0.000051
N29	N	0.982810	0.155040	0.228239
N30	N	0.982831	0.155041	-0.228110
C31	C	1.039002	0.077891	0.453968
C32	C	1.039005	0.077889	0.546158
C33	C	0.926632	0.232193	0.546153
C34	C	0.926626	0.232190	0.453965
C35	C	0.982816	0.155040	0.407875
C36	C	0.982825	0.155041	0.592253
C37	C	0.982827	0.155039	0.692209
C38	C	0.982813	0.155041	0.307913
H39	H	0.404136	0.153184	-0.144781
O40	O	1.093608	0.002835	0.409332
C41	C	1.205096	-0.150175	0.419071
C42	C	1.143287	-0.065248	0.469728
H43	H	1.245289	-0.205225	0.467879
H44	H	1.168987	-0.206970	0.375943
H45	H	1.246810	-0.101136	0.375881
H46	H	1.101558	-0.114193	0.512966
H47	H	1.179448	-0.008453	0.512801
O48	O	0.397457	0.153028	0.157541
C49	C	0.406618	0.153158	0.315917
C50	C	0.454281	0.154283	0.228063
H51	H	0.452542	0.154148	0.372957
H52	H	0.358783	0.231582	0.319971
H53	H	0.373242	0.072819	0.319858
H54	H	0.487707	0.234569	0.224063
H55	H	0.502069	0.075805	0.224046
O56	O	0.872013	0.307247	0.409321
C57	C	0.760520	0.460250	0.419037
C58	C	0.822336	0.375337	0.469706
H59	H	0.720328	0.515307	0.467836
H60	H	0.796623	0.517042	0.375892
H61	H	0.718805	0.411200	0.375861
H62	H	0.864066	0.424295	0.512930
H63	H	0.786181	0.318547	0.512795
O64	O	1.093507	0.002992	0.591069
C65	C	1.143353	-0.065351	0.733089
C66	C	1.081571	0.019518	0.682339
H67	H	1.133736	-0.052003	0.806890
H68	H	1.132113	-0.156288	0.715034
H69	H	1.209996	-0.050538	0.714906
H70	H	1.014904	0.004809	0.700495
H71	H	1.092884	0.110426	0.700398
O72	O	0.568158	0.157157	-0.157410
C73	C	0.558996	0.156894	-0.315786
C74	C	0.511345	0.155710	-0.227927
H75	H	0.513086	0.155700	-0.372821
H76	H	0.592327	0.237264	-0.319838
H77	H	0.606869	0.078504	-0.319735
H78	H	0.463432	0.234045	-0.223918
H79	H	0.478071	0.075288	-0.223911
H80	H	0.561505	0.156903	0.144899
O81	O	0.872138	0.307097	0.591064
C82	C	0.822314	0.375450	0.733081
C83	C	0.884085	0.290574	0.682334
H84	H	0.831941	0.362105	0.806882
H85	H	0.833556	0.466386	0.715011
H86	H	0.755667	0.360642	0.714911
H87	H	0.950756	0.305278	0.700477
H88	H	0.872771	0.199669	0.700409
