data_functionalizedCrystal
_audit_creation_method	'MofGen! by Chris Wilmer'
_symmetry_space_group_name_H-M	'P1'
_symmetry_Int_Tables_number	1
_symmetry_cell_setting	triclinic
loop_
_symmetry_equiv_pos_as_xyz
  x,y,z
_cell_length_a	14.044220
_cell_length_b	9.565339
_cell_length_c	14.044220
_cell_angle_alpha	89.999264
_cell_angle_beta	86.811122
_cell_angle_gamma	89.998998
loop_
_atom_site_label
_atom_site_type_symbol
_atom_site_fract_x
_atom_site_fract_y
_atom_site_fract_z
O1	O	1.277167	0.116117	-0.230161
O2	O	1.527167	0.366117	0.019839
O3	O	1.777167	0.616117	0.269839
O4	O	2.027167	0.866117	0.519839
O5	O	1.000495	0.116152	-0.221855
O6	O	1.250495	0.366152	0.028145
O7	O	1.500495	0.616152	0.278145
O8	O	1.750495	0.866152	0.528145
O9	O	1.134678	0.116121	-0.087672
O10	O	1.384678	0.366121	0.162328
O11	O	1.634678	0.616121	0.412328
O12	O	1.884678	0.866121	0.662328
O13	O	1.142984	0.116148	-0.364344
O14	O	1.392984	0.366148	-0.114344
O15	O	1.642984	0.616148	0.135656
O16	O	1.892984	0.866148	0.385656
O17	O	1.134667	-0.116399	-0.087680
O18	O	1.384667	0.133601	0.162320
O19	O	1.634667	0.383601	0.412320
O20	O	1.884667	0.633601	0.662320
O21	O	1.000485	-0.116368	-0.221863
O22	O	1.250485	0.133632	0.028137
O23	O	1.500485	0.383632	0.278137
O24	O	1.750485	0.633632	0.528137
O25	O	1.277156	-0.116403	-0.230169
O26	O	1.527156	0.133597	0.019831
O27	O	1.777156	0.383597	0.269831
O28	O	2.027156	0.633597	0.519831
Zn29	Zn	1.138819	-0.153303	-0.226017
Zn30	Zn	1.388819	0.096697	0.023983
Zn31	Zn	1.638819	0.346697	0.273983
Zn32	Zn	1.888819	0.596697	0.523983
Zn33	Zn	1.138833	0.153052	-0.226007
Zn34	Zn	1.388833	0.403052	0.023993
Zn35	Zn	1.638833	0.653052	0.273993
Zn36	Zn	1.888833	0.903052	0.523993
O37	O	1.142973	-0.116372	-0.364352
O38	O	1.392973	0.133628	-0.114352
O39	O	1.642973	0.383628	0.135648
O40	O	1.892973	0.633628	0.385648
C41	C	0.964868	-0.000104	-0.218223
C42	C	1.214868	0.249896	0.031777
C43	C	1.464868	0.499896	0.281777
C44	C	1.714868	0.749896	0.531777
C45	C	0.858725	-0.000091	-0.207379
C46	C	1.108725	0.249909	0.042621
C47	C	1.358725	0.499909	0.292621
C48	C	1.608725	0.749909	0.542621
N49	N	1.138816	-0.362383	-0.226025
N50	N	1.388816	-0.112383	0.023975
N51	N	1.638816	0.137617	0.273975
N52	N	1.888816	0.387617	0.523975
C53	C	0.664388	-0.000120	-0.187553
C54	C	0.914388	0.249880	0.062447
C55	C	1.164388	0.499880	0.312447
C56	C	1.414388	0.749880	0.562447
C57	C	0.613258	-0.000119	-0.264467
C58	C	0.863258	0.249881	-0.014467
C59	C	1.113258	0.499881	0.235533
C60	C	1.363258	0.749881	0.485533
C61	C	0.505122	-0.000135	-0.253435
C62	C	0.755122	0.249865	-0.003435
C63	C	1.005122	0.499865	0.246565
C64	C	1.255122	0.749865	0.496565
C65	C	0.772534	-0.000104	-0.198583
C66	C	1.022534	0.249896	0.051417
C67	C	1.272534	0.499896	0.301417
C68	C	1.522534	0.749896	0.551417
C69	C	1.076738	-0.453571	-0.288056
C70	C	1.326738	-0.203571	-0.038056
C71	C	1.576738	0.046429	0.211944
C72	C	1.826738	0.296429	0.461944
C73	C	1.164577	-0.546759	-0.313875
C74	C	1.414577	-0.296759	-0.063875
C75	C	1.664577	-0.046759	0.186125
C76	C	1.914577	0.203241	0.436125
C77	C	1.051015	-0.546750	-0.200215
C78	C	1.301015	-0.296750	0.049785
C79	C	1.551015	-0.046750	0.299785
C80	C	1.801015	0.203250	0.549785
C81	C	1.226701	-0.453519	-0.251891
C82	C	1.476701	-0.203519	-0.001891
C83	C	1.726701	0.046481	0.248109
C84	C	1.976701	0.296481	0.498109
C85	C	1.113080	-0.453501	-0.138189
C86	C	1.363080	-0.203501	0.111811
C87	C	1.613080	0.046499	0.361811
C88	C	1.863080	0.296499	0.611811
C89	C	1.200978	-0.546647	-0.163977
C90	C	1.450978	-0.296647	0.086023
C91	C	1.700978	-0.046647	0.336023
C92	C	1.950978	0.203353	0.586023
C93	C	1.312783	-0.000145	-0.233800
C94	C	1.562783	0.249855	0.016200
C95	C	1.812783	0.499855	0.266200
C96	C	2.062783	0.749855	0.516200
C97	C	1.418926	-0.000148	-0.244645
C98	C	1.668926	0.249852	0.005355
C99	C	1.918926	0.499852	0.255355
C100	C	2.168926	0.749852	0.505355
C101	C	1.131037	-0.000139	-0.052054
C102	C	1.381037	0.249861	0.197946
C103	C	1.631037	0.499861	0.447946
C104	C	1.881037	0.749861	0.697946
C105	C	1.120193	-0.000139	0.054088
C106	C	1.370193	0.249861	0.304088
C107	C	1.620193	0.499861	0.554088
C108	C	1.870193	0.749861	0.804088
N109	N	1.138843	0.362131	-0.225992
N110	N	1.388843	0.612131	0.024008
N111	N	1.638843	0.862131	0.274008
N112	N	1.888843	1.112131	0.524008
C113	C	1.146614	-0.000109	-0.399969
C114	C	1.396614	0.249891	-0.149969
C115	C	1.646614	0.499891	0.100031
C116	C	1.896614	0.749891	0.350031
C117	C	1.157459	-0.000100	-0.506112
C118	C	1.407459	0.249900	-0.256112
C119	C	1.657459	0.499900	-0.006112
C120	C	1.907459	0.749900	0.243888
C121	C	1.100366	-0.000117	0.248426
C122	C	1.350366	0.249883	0.498426
C123	C	1.600366	0.499883	0.748426
C124	C	1.850366	0.749883	0.998426
C125	C	1.177281	-0.000122	0.299556
C126	C	1.427281	0.249878	0.549556
C127	C	1.677281	0.499878	0.799556
C128	C	1.927281	0.749878	1.049556
C129	C	1.166249	-0.000110	0.407692
C130	C	1.416249	0.249890	0.657692
C131	C	1.666249	0.499890	0.907692
C132	C	1.916249	0.749890	1.157692
C133	C	1.111397	-0.000129	0.140280
C134	C	1.361397	0.249871	0.390280
C135	C	1.611397	0.499871	0.640280
C136	C	1.861397	0.749871	0.890280
H137	H	0.650697	-0.000105	-0.338600
H138	H	0.900697	0.249895	-0.088600
H139	H	1.150697	0.499895	0.161400
H140	H	1.400697	0.749895	0.411400
H141	H	0.626951	-0.000135	-0.113425
H142	H	0.876951	0.249865	0.136575
H143	H	1.126951	0.499865	0.386575
H144	H	1.376951	0.749865	0.636575
H145	H	1.300987	-0.412738	-0.273794
H146	H	1.550987	-0.162738	-0.023794
H147	H	1.800987	0.087262	0.226206
H148	H	2.050987	0.337262	0.476206
H149	H	1.186363	-0.587722	-0.388143
H150	H	1.436363	-0.337722	-0.138143
H151	H	1.686363	-0.087722	0.111857
H152	H	1.936363	0.162278	0.361857
H153	H	1.024298	-0.412705	-0.340570
H154	H	1.274298	-0.162705	-0.090570
H155	H	1.524298	0.087295	0.159430
H156	H	1.774298	0.337295	0.409430
H157	H	1.253548	-0.587258	-0.111507
H158	H	1.503548	-0.337258	0.138493
H159	H	1.753548	-0.087258	0.388493
H160	H	2.003548	0.162742	0.638493
H161	H	1.091269	-0.412506	-0.063942
H162	H	1.341269	-0.162506	0.186058
H163	H	1.591269	0.087494	0.436058
H164	H	1.841269	0.337494	0.686058
H165	H	0.976753	-0.587706	-0.178401
H166	H	1.226753	-0.337706	0.071599
H167	H	1.476753	-0.087706	0.321599
H168	H	1.726753	0.162294	0.571599
C169	C	1.269064	-0.000173	0.150126
C170	C	1.519064	0.249827	0.400126
C171	C	1.769064	0.499827	0.650126
C172	C	2.019064	0.749827	0.900126
C173	C	1.277361	-0.000156	0.249022
C174	C	1.527361	0.249844	0.499022
C175	C	1.777361	0.499844	0.749022
C176	C	2.027361	0.749844	0.999022
H177	H	1.330847	-0.000206	0.118928
H178	H	1.580847	0.249794	0.368928
H179	H	1.830847	0.499794	0.618928
H180	H	2.080847	0.749794	0.868928
H181	H	1.235380	0.080915	0.132181
H182	H	1.485380	0.330915	0.382181
H183	H	1.735380	0.580915	0.632181
H184	H	1.985380	0.830915	0.882181
H185	H	1.235349	-0.081255	0.132199
H186	H	1.485349	0.168745	0.382199
H187	H	1.735349	0.418745	0.632199
H188	H	1.985349	0.668745	0.882199
H189	H	1.311070	0.080932	0.266950
H190	H	1.561070	0.330932	0.516950
H191	H	1.811070	0.580932	0.766950
H192	H	2.061070	0.830932	1.016950
H193	H	1.311059	-0.081253	0.266974
H194	H	1.561059	0.168747	0.516974
H195	H	1.811059	0.418747	0.766974
H196	H	2.061059	0.668747	1.016974
H197	H	1.026239	-0.000104	0.285863
H198	H	1.276239	0.249896	0.535863
H199	H	1.526239	0.499896	0.785863
H200	H	1.776239	0.749896	1.035863
