data_functionalizedCrystal
_audit_creation_method	'MofGen! by Chris Wilmer'
_symmetry_space_group_name_H-M	'P1'
_symmetry_Int_Tables_number	1
_symmetry_cell_setting	triclinic
loop_
_symmetry_equiv_pos_as_xyz
  x,y,z
_cell_length_a	17.038272
_cell_length_b	8.559649
_cell_length_c	7.681481
_cell_angle_alpha	85.086760
_cell_angle_beta	83.842174
_cell_angle_gamma	99.554890
loop_
_atom_site_label
_atom_site_type_symbol
_atom_site_fract_x
_atom_site_fract_y
_atom_site_fract_z
O1	O	-0.018069	-2.102567	-0.146400
O2	O	0.021983	-1.642806	-0.146410
O3	O	-0.111695	-1.869955	-0.146391
O4	O	0.115610	-1.875418	-0.146419
O5	O	-0.128182	-1.897909	0.146469
O6	O	0.005496	-1.670760	0.146450
O7	O	-0.034556	-2.130521	0.146460
Zn8	Zn	-0.017147	-1.905079	0.192953
Zn9	Zn	0.004575	-1.868248	-0.192903
O10	O	0.099123	-1.903372	0.146441
C11	C	0.016775	-1.597666	0.000018
C12	C	0.025810	-1.421513	0.000015
C13	C	-0.148769	-1.878962	0.000039
C14	C	-0.234673	-1.864132	0.000038
N15	N	-0.031973	-1.930226	0.456289
C16	C	-0.292946	-2.000285	0.000043
C17	C	-0.373660	-1.986340	0.000026
C18	C	-0.396101	-1.836242	0.000016
C19	C	-0.337821	-1.700079	0.000006
C20	C	-0.257108	-1.714024	0.000010
C21	C	-0.638906	-1.786975	-0.000009
C22	C	-0.719626	-1.773041	-0.000008
C23	C	-0.755459	-2.059303	0.000008
C24	C	-0.674743	-2.073236	0.000023
C25	C	-0.616470	-1.937072	0.000004
C26	C	-0.478604	-1.821985	0.000004
C27	C	-0.533968	-1.951329	0.000003
C28	C	0.136197	-1.894365	0.000008
C29	C	0.222102	-1.909193	-0.000003
C30	C	-0.029347	-2.175661	0.000028
C31	C	-0.038381	-2.351812	0.000020
N32	N	0.019394	-1.843113	-0.456239
H33	H	-0.274682	-2.122512	0.000061
Cl34	Cl	0.100345	-1.705814	0.427653
Cl35	Cl	-0.112921	-2.067549	0.572403
Cl36	Cl	-0.747836	-1.584333	-0.000010
H37	H	-0.656479	-2.195461	0.000031
H38	H	-0.421103	-2.097211	0.000034
Cl39	Cl	-0.828719	-2.230469	0.000028
Cl40	Cl	-0.506822	-1.633295	-0.000017
Cl41	Cl	-0.133905	-1.467736	0.000022
H42	H	-0.591469	-1.676100	-0.000025
H43	H	-0.356098	-1.577864	-0.000013
H44	H	-0.209662	-1.603153	0.000006
Cl45	Cl	-0.505754	-2.140016	0.000006
H46	H	0.087683	-1.346417	-0.000002
