data_functionalizedCrystal
_audit_creation_method	'MofGen! by Chris Wilmer'
_symmetry_space_group_name_H-M	'P1'
_symmetry_Int_Tables_number	1
_symmetry_cell_setting	triclinic
loop_
_symmetry_equiv_pos_as_xyz
  x,y,z
_cell_length_a	21.295419
_cell_length_b	21.295417
_cell_length_c	21.295420
_cell_angle_alpha	90.005898
_cell_angle_beta	90.016964
_cell_angle_gamma	90.044503
loop_
_atom_site_label
_atom_site_type_symbol
_atom_site_fract_x
_atom_site_fract_y
_atom_site_fract_z
Zn1	Zn	0.962312	-0.250524	0.355916
Zn2	Zn	1.462312	0.249476	0.855916
Zn3	Zn	0.962230	-0.355749	0.250643
Zn4	Zn	1.462230	0.144251	0.750643
Zn5	Zn	0.857049	-0.250524	0.250661
Zn6	Zn	1.357049	0.249476	0.750661
Zn7	Zn	0.857006	-0.355786	0.355875
Zn8	Zn	1.357006	0.144214	0.855875
O9	O	0.909649	-0.303146	0.303273
O10	O	1.409649	0.196854	0.803273
O11	O	1.050390	-0.264466	0.341961
O12	O	1.550390	0.235534	0.841961
O13	O	0.948261	-0.341775	0.162556
O14	O	1.448261	0.158225	0.662556
O15	O	0.871065	-0.162435	0.264647
O16	O	1.371065	0.337565	0.764647
O17	O	1.050330	-0.341774	0.264617
O18	O	1.550330	0.158226	0.764617
O19	O	0.948401	-0.162434	0.341978
O20	O	1.448401	0.337566	0.841978
O21	O	0.870985	-0.264467	0.162569
O22	O	1.370985	0.235533	0.662569
O23	O	0.768954	-0.264504	0.264608
O24	O	1.268954	0.235496	0.764608
O25	O	0.870991	-0.341838	0.443969
O26	O	1.370991	0.158162	0.943969
O27	O	0.768922	-0.341839	0.341908
O28	O	1.268922	0.158161	0.841908
O29	O	0.948359	-0.264502	0.443999
O30	O	1.448359	0.235498	0.943999
O31	O	0.948219	-0.443843	0.264578
O32	O	1.448219	0.056157	0.764578
O33	O	0.870912	-0.443871	0.341891
O34	O	1.370912	0.056129	0.841891
C35	C	0.746098	-0.303176	0.303256
C36	C	1.246098	0.196824	0.803256
C37	C	0.676129	-0.303204	0.303263
C38	C	1.176129	0.196796	0.803263
C39	C	0.909569	-0.466697	0.303242
C40	C	1.409569	0.033303	0.803242
C41	C	0.909592	-0.536665	0.303249
C42	C	1.409592	-0.036665	0.803249
C43	C	0.643317	-0.263015	0.343598
C44	C	1.143317	0.236985	0.843598
C45	C	0.577574	-0.262998	0.343600
C46	C	1.077574	0.237002	0.843600
C47	C	0.544647	-0.303181	0.303275
C48	C	1.044647	0.196819	0.803275
C49	C	0.577468	-0.343373	0.262932
C50	C	1.077468	0.156627	0.762932
C51	C	0.643209	-0.343384	0.262926
C52	C	1.143209	0.156616	0.762926
N53	N	0.441373	-0.358257	0.298356
N54	N	0.941373	0.141743	0.798356
N55	N	0.378921	-0.358245	0.298365
N56	N	0.878921	0.141755	0.798365
C57	C	0.346572	-0.303149	0.303289
C58	C	0.846572	0.196851	0.803289
N59	N	0.379034	-0.248065	0.308215
N60	N	0.879034	0.251935	0.808215
N61	N	0.441491	-0.248078	0.308209
N62	N	0.941491	0.251922	0.808209
C63	C	0.473362	-0.303173	0.303276
C64	C	0.973362	0.196827	0.803276
C65	C	0.242474	-0.262939	0.343628
C66	C	0.742474	0.237061	0.843628
C67	C	0.176730	-0.262921	0.343626
C68	C	0.676730	0.237079	0.843626
C69	C	0.176625	-0.343300	0.262961
C70	C	0.676625	0.156700	0.762961
C71	C	0.242367	-0.343313	0.262960
C72	C	0.742367	0.156687	0.762960
C73	C	0.275288	-0.303133	0.303297
C74	C	0.775288	0.196867	0.803297
C75	C	0.949838	-0.569475	0.343544
C76	C	1.449838	-0.069475	0.843544
C77	C	0.949860	-0.635217	0.343559
C78	C	1.449860	-0.135217	0.843559
C79	C	0.909643	-0.668148	0.303269
C80	C	1.409643	-0.168148	0.803269
C81	C	0.869390	-0.635331	0.262971
C82	C	1.369390	-0.135331	0.762971
C83	C	0.869364	-0.569589	0.262961
C84	C	1.369364	-0.069589	0.762961
N85	N	0.904891	-0.771387	0.248178
N86	N	1.404891	-0.271387	0.748178
N87	N	0.904919	-0.833839	0.248189
N88	N	1.404919	-0.333839	0.748189
C89	C	0.909717	-0.866223	0.303297
C90	C	1.409717	-0.366223	0.803297
N91	N	0.914498	-0.833796	0.358395
N92	N	1.414498	-0.333796	0.858395
N93	N	0.914473	-0.771339	0.358383
N94	N	1.414473	-0.271339	0.858383
C95	C	0.909666	-0.739433	0.303275
C96	C	1.409666	-0.239433	0.803275
C97	C	0.949989	-0.970317	0.343612
C98	C	1.449989	-0.470317	0.843612
C99	C	0.950007	-1.036061	0.343629
C100	C	1.450007	-0.536061	0.843629
C101	C	0.869539	-1.036173	0.263035
C102	C	1.369539	-0.536173	0.763035
C103	C	0.869518	-0.970431	0.263024
C104	C	1.369518	-0.470431	0.763024
C105	C	0.909746	-0.937507	0.303312
C106	C	1.409746	-0.437507	0.803312
C107	C	1.073839	-0.303116	0.303292
C108	C	1.573839	0.196884	0.803292
C109	C	1.143808	-0.303103	0.303299
C110	C	1.643808	0.196897	0.803299
C111	C	0.909680	-0.303174	0.467464
C112	C	1.409680	0.196826	0.967464
C113	C	0.909693	-0.303187	0.537432
C114	C	1.409693	0.196813	1.037432
C115	C	0.909747	-0.138955	0.303319
C116	C	1.409747	0.361045	0.803319
C117	C	0.909788	-0.068987	0.303339
C118	C	1.409788	0.431013	0.803339
C119	C	0.949972	-0.262925	0.570315
C120	C	1.449972	0.237075	1.070315
C121	C	0.949962	-0.262914	0.636058
C122	C	1.449962	0.237086	1.136058
C123	C	0.909680	-0.303177	0.668914
C124	C	1.409680	0.196823	1.168914
C125	C	0.869393	-0.343442	0.636023
C126	C	1.369393	0.156558	1.136023
C127	C	0.869399	-0.343447	0.570282
C128	C	1.369399	0.156553	1.070282
N129	N	0.904811	-0.358273	0.772131
N130	N	1.404811	0.141727	1.272131
N131	N	0.904808	-0.358266	0.834582
N132	N	1.404808	0.141734	1.334582
C133	C	0.909658	-0.303164	0.866989
C134	C	1.409658	0.196836	1.366989
N135	N	0.914522	-0.248067	0.834585
N136	N	1.414522	0.251933	1.334585
N137	N	0.914528	-0.248074	0.772128
N138	N	1.414528	0.251926	1.272128
C139	C	0.909669	-0.303176	0.740200
C140	C	1.409669	0.196824	1.240200
C141	C	0.949929	-0.262887	0.971158
C142	C	1.449929	0.237113	1.471158
C143	C	0.949915	-0.262876	1.036902
C144	C	1.449915	0.237124	1.536902
C145	C	0.869349	-0.343409	1.036866
C146	C	1.369349	0.156591	1.536866
C147	C	0.869360	-0.343415	0.971123
C148	C	1.369360	0.156585	1.471123
C149	C	0.909653	-0.303155	0.938273
C150	C	1.409653	0.196845	1.438273
C151	C	0.909622	-0.303136	1.139722
C152	C	1.409622	0.196864	1.639722
C153	C	0.909632	-0.303138	1.069754
C154	C	1.409632	0.196862	1.569754
H155	H	0.670117	-0.230297	0.376443
H156	H	1.170117	0.269703	0.876443
C157	C	0.825804	-0.934919	0.219199
C158	C	1.325804	-0.434919	0.719199
C159	C	0.790599	-0.977826	0.183904
C160	C	1.290599	-0.477826	0.683904
C161	C	0.750327	-0.945136	0.143519
C162	C	1.250327	-0.445136	0.643519
H163	H	0.798296	-0.909295	0.243178
H164	H	1.298296	-0.409295	0.743178
H165	H	0.849880	-0.909267	0.191756
H166	H	1.349880	-0.409267	0.691756
H167	H	0.766525	-1.003467	0.211344
H168	H	1.266525	-0.503467	0.711344
H169	H	0.818092	-1.003451	0.159913
H170	H	1.318092	-0.503451	0.659913
H171	H	0.774403	-0.919484	0.116077
H172	H	1.274403	-0.419484	0.616077
H173	H	0.722822	-0.919513	0.167503
H174	H	1.222822	-0.419513	0.667503
H175	H	0.726440	-0.974243	0.119563
H176	H	1.226440	-0.474243	0.619563
H177	H	0.982781	-0.230141	0.543573
H178	H	1.482781	0.269859	1.043573
H179	H	0.982743	-0.943509	0.376419
H180	H	1.482743	-0.443509	0.876419
C181	C	0.993648	-0.219245	0.935373
C182	C	1.493648	0.280755	1.435373
C183	C	0.985050	-0.227883	0.870761
C184	C	1.485050	0.272117	1.370761
C185	C	1.025321	-0.187699	0.837779
C186	C	1.525321	0.312301	1.337779
H187	H	0.984502	-0.176924	0.946065
H188	H	1.484502	0.323076	1.446065
H189	H	1.035949	-0.228458	0.946132
H190	H	1.535949	0.271542	1.446132
H191	H	0.942759	-0.218666	0.860007
H192	H	1.442759	0.281334	1.360007
H193	H	0.994201	-0.270197	0.860051
H194	H	1.494201	0.229803	1.360051
H195	H	1.067622	-0.196912	0.848537
H196	H	1.567622	0.303088	1.348537
H197	H	1.016171	-0.145380	0.848475
H198	H	1.516171	0.354620	1.348475
H199	H	1.019497	-0.193559	0.793936
H200	H	1.519497	0.306441	1.293936
H201	H	0.836563	-0.376205	0.944349
H202	H	1.336563	0.123795	1.444349
C203	C	0.993671	-1.071603	0.387481
C204	C	1.493671	-0.571603	0.887481
C205	C	0.979940	-1.055597	0.449750
C206	C	1.479940	-0.555597	0.949750
C207	C	1.020158	-1.088319	0.490163
C208	C	1.520158	-0.588319	0.990163
H209	H	0.987966	-1.115482	0.381807
H210	H	1.487966	-0.615482	0.881807
H211	H	1.035977	-1.060768	0.378336
H212	H	1.535977	-0.560768	0.878336
H213	H	0.937644	-1.066436	0.458891
H214	H	1.437644	-0.566436	0.958891
H215	H	0.985648	-1.011724	0.455444
H216	H	1.485648	-0.511724	0.955444
H217	H	1.062464	-1.077485	0.481018
H218	H	1.562464	-0.577485	0.981018
H219	H	1.014450	-1.132196	0.484483
H220	H	1.514450	-0.632196	0.984483
H221	H	1.010850	-1.077459	0.532416
H222	H	1.510850	-0.577459	1.032416
H223	H	0.150015	-0.230190	0.376471
H224	H	0.650015	0.269810	0.876471
H225	H	0.982714	-0.230086	1.063674
H226	H	1.482714	0.269914	1.563674
C227	C	0.825688	-0.671161	0.219328
C228	C	1.325688	-0.171161	0.719328
C229	C	0.785346	-0.708955	0.254939
C230	C	1.285346	-0.208955	0.754939
C231	C	0.745082	-0.741976	0.214758
C232	C	1.245082	-0.241976	0.714758
H233	H	0.801655	-0.642275	0.195313
H234	H	1.301655	-0.142275	0.695313
H235	H	0.849779	-0.696821	0.191935
H236	H	1.349779	-0.196821	0.691935
H237	H	0.761259	-0.683298	0.282321
H238	H	1.261259	-0.183298	0.782321
H239	H	0.809363	-0.737853	0.278953
H240	H	1.309363	-0.237853	0.778953
H241	H	0.769172	-0.767636	0.187365
H242	H	1.269172	-0.267636	0.687365
H243	H	0.721053	-0.713086	0.190745
H244	H	1.221053	-0.213086	0.690745
H245	H	0.717709	-0.767627	0.238913
H246	H	1.217709	-0.267627	0.738913
H247	H	0.550853	-0.230269	0.376445
H248	H	1.050853	0.269731	0.876445
H249	H	0.836593	-0.376223	0.662779
H250	H	1.336593	0.123777	1.162779
H251	H	0.836790	-1.062985	0.230234
H252	H	1.336790	-0.562985	0.730234
H253	H	0.550654	-0.376089	0.230098
H254	H	1.050654	0.123911	0.730098
C255	C	0.278335	-0.219379	0.387390
C256	C	0.778335	0.280621	0.887390
C257	C	0.342932	-0.228005	0.378768
C258	C	0.842932	0.271995	0.878768
C259	C	0.375985	-0.187894	0.419075
C260	C	0.875985	0.312106	0.919075
H261	H	0.267676	-0.177040	0.378294
H262	H	0.767676	0.322960	0.878294
H263	H	0.267603	-0.228667	0.429683
H264	H	0.767603	0.271333	0.929683
H265	H	0.353660	-0.218713	0.336484
H266	H	0.853660	0.281287	0.836484
H267	H	0.353610	-0.270335	0.387869
H268	H	0.853610	0.229665	0.887869
H269	H	0.365252	-0.197182	0.461368
H270	H	0.865252	0.302818	0.961368
H271	H	0.365320	-0.145558	0.409976
H272	H	0.865320	0.354442	0.909976
H273	H	0.419817	-0.193746	0.413235
H274	H	0.919817	0.306254	0.913235
H275	H	0.669925	-0.376111	0.230080
H276	H	1.169925	0.123889	0.730080
H277	H	0.836590	-0.542876	0.230148
H278	H	1.336590	-0.042876	0.730148
C279	C	0.993768	-0.219177	0.671656
C280	C	1.493768	0.280823	1.171656
C281	C	1.029066	-0.183931	0.628816
C282	C	1.529066	0.316069	1.128816
C283	C	1.069432	-0.143641	0.661584
C284	C	1.569432	0.356359	1.161584
H285	H	0.969775	-0.191695	0.697297
H286	H	1.469775	0.308305	1.197297
H287	H	1.021209	-0.243242	0.697297
H288	H	1.521209	0.256758	1.197297
H289	H	1.001628	-0.159868	0.603187
H290	H	1.501628	0.340132	1.103187
H291	H	1.053071	-0.211396	0.603174
H292	H	1.553071	0.288604	1.103174
H293	H	1.096873	-0.167707	0.687225
H294	H	1.596873	0.332293	1.187225
H295	H	1.045434	-0.116163	0.687225
H296	H	1.545434	0.383837	1.187225
H297	H	1.093390	-0.119726	0.632523
H298	H	1.593390	0.380274	1.132523
C299	C	0.825687	-0.387107	1.072644
C300	C	1.325687	0.112893	1.572644
C301	C	0.834314	-0.378498	1.137257
C302	C	1.334314	0.121502	1.637257
C303	C	0.794109	-0.418749	1.170238
C304	C	1.294109	0.081251	1.670238
H305	H	0.783371	-0.377949	1.061932
H306	H	1.283371	0.122051	1.561932
H307	H	0.834888	-0.429413	1.061906
H308	H	1.334888	0.070587	1.561906
H309	H	0.825108	-0.336202	1.147990
H310	H	1.325108	0.163798	1.647990
H311	H	0.876622	-0.387661	1.147987
H312	H	1.376622	0.112339	1.647987
H313	H	0.803311	-0.461055	1.159500
H314	H	1.303311	0.038945	1.659500
H315	H	0.751796	-0.409588	1.159521
H316	H	1.251796	0.090412	1.659521
H317	H	0.799961	-0.412918	1.214081
H318	H	1.299961	0.087082	1.714081
C319	C	0.140770	-0.386906	0.219247
C320	C	0.640770	0.113094	0.719247
C321	C	0.076173	-0.378306	0.227895
C322	C	0.576173	0.121694	0.727895
C323	C	0.043121	-0.418471	0.187640
C324	C	0.543121	0.081529	0.687640
H325	H	0.151461	-0.377665	0.176942
H326	H	0.651461	0.122335	0.676942
H327	H	0.151471	-0.429232	0.228390
H328	H	0.651471	0.070768	0.728390
H329	H	0.065476	-0.335990	0.218747
H330	H	0.565476	0.164010	0.718747
H331	H	0.065463	-0.387552	0.270191
H332	H	0.565463	0.112448	0.770191
H333	H	0.053822	-0.460797	0.196783
H334	H	0.553822	0.039203	0.696783
H335	H	0.053817	-0.409226	0.145338
H336	H	0.553817	0.090774	0.645338
H337	H	-0.000712	-0.412645	0.193506
H338	H	0.499288	0.087355	0.693506
H339	H	0.269084	-0.376041	0.230117
H340	H	0.769084	0.123959	0.730117
H341	H	0.982628	-0.661936	0.376379
H342	H	1.482628	-0.161936	0.876379
C343	C	0.993534	-0.533843	0.387355
C344	C	1.493534	-0.033843	0.887355
C345	C	1.028774	-0.576653	0.422658
C346	C	1.528774	-0.076653	0.922658
C347	C	1.069027	-0.543850	0.463029
C348	C	1.569027	-0.043850	0.963029
H349	H	1.021022	-0.508169	0.363366
H350	H	1.521022	-0.008169	0.863366
H351	H	0.969443	-0.508232	0.414793
H352	H	1.469443	-0.008232	0.914793
H353	H	1.052864	-0.602253	0.395224
H354	H	1.552864	-0.102253	0.895224
H355	H	1.001303	-0.602328	0.446660
H356	H	1.501303	-0.102328	0.946660
H357	H	1.044936	-0.518240	0.490467
H358	H	1.544936	-0.018240	0.990467
H359	H	1.096511	-0.518177	0.439035
H360	H	1.596511	-0.018177	0.939035
H361	H	1.092938	-0.572892	0.486991
H362	H	1.592938	-0.072892	0.986991
C363	C	0.825646	-0.387237	0.534689
C364	C	1.325646	0.112763	1.034689
C365	C	0.790375	-0.422507	0.577531
C366	C	1.290375	0.077493	1.077531
C367	C	0.750071	-0.462861	0.544765
C368	C	1.250071	0.037139	1.044765
H369	H	0.798181	-0.363237	0.509027
H370	H	1.298181	0.136763	1.009027
H371	H	0.849703	-0.414696	0.509069
H372	H	1.349703	0.085304	1.009069
H373	H	0.766321	-0.395052	0.603140
H374	H	1.266321	0.104948	1.103140
H375	H	0.817824	-0.446521	0.603194
H376	H	1.317824	0.053479	1.103194
H377	H	0.774128	-0.490321	0.519145
H378	H	1.274128	0.009679	1.019145
H379	H	0.722610	-0.438856	0.519105
H380	H	1.222610	0.061144	1.019105
H381	H	0.726139	-0.486801	0.573828
H382	H	1.226139	0.013199	1.073828
