data_functionalizedCrystal
_audit_creation_method	'MofGen! by Chris Wilmer'
_symmetry_space_group_name_H-M	'P1'
_symmetry_Int_Tables_number	1
_symmetry_cell_setting	triclinic
loop_
_symmetry_equiv_pos_as_xyz
  x,y,z
_cell_length_a	19.805406
_cell_length_b	19.805407
_cell_length_c	19.805398
_cell_angle_alpha	89.979507
_cell_angle_beta	90.015373
_cell_angle_gamma	90.000119
loop_
_atom_site_label
_atom_site_type_symbol
_atom_site_fract_x
_atom_site_fract_y
_atom_site_fract_z
Zn1	Zn	0.269503	1.034832	-0.382853
Zn2	Zn	0.382689	1.034805	-0.269685
Zn3	Zn	0.269517	0.921654	-0.269668
Zn4	Zn	0.382654	0.921661	-0.382823
O5	O	0.326091	0.978238	-0.326257
O6	O	0.284526	1.129545	-0.367861
O7	O	0.367696	1.019781	-0.174967
O8	O	0.174799	0.936676	-0.284688
O9	O	0.367683	1.129525	-0.284717
O10	O	0.174789	1.019827	-0.367844
O11	O	0.284550	0.936650	-0.174954
O12	O	0.284517	0.826939	-0.284659
O13	O	0.367625	0.936688	-0.477544
O14	O	0.367638	0.826944	-0.367793
O15	O	0.284493	1.019834	-0.477565
O16	O	0.477401	1.019788	-0.284688
O17	O	0.477375	0.936662	-0.367810
C18	C	0.326076	0.802382	-0.326221
C19	C	0.326085	0.727150	-0.326222
C20	C	0.369454	0.265380	-0.369521
C21	C	0.369452	0.336068	-0.369506
C22	C	0.326107	0.371388	-0.326284
C23	C	0.282765	0.336017	-0.283068
C24	C	0.282770	0.265330	-0.283079
C25	C	0.282745	0.621090	-0.283020
C26	C	0.282741	0.691782	-0.283014
C27	C	0.369427	0.691829	-0.369447
C28	C	0.369432	0.621141	-0.369459
C29	C	0.326093	0.585776	-0.326241
C30	C	0.326095	0.509127	-0.326256
C31	C	0.326101	0.448036	-0.326272
C32	C	0.149548	0.978254	-0.326267
C33	C	0.074316	0.978260	-0.326271
C34	C	0.038961	0.934983	-0.369548
C35	C	-0.031728	0.934991	-0.369553
C36	C	-0.067059	0.978274	-0.326278
C37	C	-0.031699	1.021556	-0.282999
C38	C	0.038988	1.021551	-0.282998
C39	C	-0.316772	1.021578	-0.283004
C40	C	-0.387464	1.021579	-0.283007
C41	C	-0.387488	0.935019	-0.369558
C42	C	-0.316801	0.935014	-0.369557
C43	C	-0.281447	0.978298	-0.326282
C44	C	-0.204798	0.978290	-0.326278
C45	C	-0.143706	0.978279	-0.326278
C46	C	0.501947	0.978241	-0.326262
C47	C	0.577179	0.978304	-0.326287
C48	C	0.326053	0.978265	-0.502800
C49	C	0.326037	0.978276	-0.578032
C50	C	0.326107	1.154781	-0.326294
C51	C	0.326113	1.230013	-0.326310
C52	C	0.282631	1.021652	-1.039836
C53	C	0.282652	1.021641	-0.969147
C54	C	0.325943	0.978345	-0.933794
C55	C	0.369222	0.935062	-0.969133
C56	C	0.369204	0.935077	-1.039820
C57	C	0.369295	0.935003	-0.684059
C58	C	0.369308	0.934991	-0.613367
C59	C	0.282743	1.021568	-0.613387
C60	C	0.282725	1.021582	-0.684074
C61	C	0.326006	0.978302	-0.719407
C62	C	0.325984	0.978315	-0.796055
C63	C	0.325962	0.978329	-0.857147
C64	C	0.326079	0.978251	-0.150401
C65	C	0.325905	0.978371	-0.075170
H66	H	0.404725	0.592387	-0.404658
H67	H	-0.416281	0.899776	-0.404798
O68	O	0.240737	1.063710	-0.579137
C69	C	0.255537	1.131173	-0.596409
H70	H	0.281543	1.132585	-0.647733
H71	H	0.206688	1.161524	-0.598834
H72	H	0.290346	1.153963	-0.556629
O73	O	0.240578	0.586847	-0.241023
C74	C	0.202331	0.633182	-0.202864
H75	H	0.200024	0.683583	-0.230587
H76	H	0.148993	0.612753	-0.195734
H77	H	0.227047	0.640677	-0.151418
O78	O	-0.421682	1.063693	-0.240948
C79	C	-0.375321	1.101885	-0.202740
H80	H	-0.324939	1.104231	-0.230462
H81	H	-0.395744	1.155212	-0.195536
H82	H	-0.367791	1.077095	-0.151327
O83	O	0.411524	0.231145	-0.411604
C84	C	0.396807	0.248441	-0.479084
H85	H	0.370788	0.299764	-0.480519
H86	H	0.445695	0.250877	-0.509358
H87	H	0.362039	0.208668	-0.501943
O88	O	0.411212	0.893026	-0.934688
C89	C	0.401960	0.902303	-0.864721
H90	H	0.349730	0.924473	-0.855071
H91	H	0.406553	0.851598	-0.837849
H92	H	0.442116	0.938340	-0.844664
O93	O	0.411217	0.893096	-1.074250
C94	C	0.401909	0.902382	-1.144221
H95	H	0.379741	0.954620	-1.153883
H96	H	0.452601	0.897795	-1.171083
H97	H	0.365858	0.862240	-1.164277
O98	O	0.411439	0.726258	-0.411460
C99	C	0.372958	0.767155	-0.455241
H100	H	0.321634	0.777732	-0.431447
H101	H	0.400539	0.816868	-0.464262
H102	H	0.365586	0.739938	-0.505416
O103	O	-0.282459	1.063787	-0.241114
C104	C	-0.241642	1.107494	-0.279741
H105	H	-0.262956	1.111532	-0.333063
H106	H	-0.240936	1.159632	-0.255380
H107	H	-0.188031	1.086663	-0.282014
H108	H	0.247470	1.056836	-0.712855
O109	O	0.411401	0.893030	-0.578948
C110	C	0.455133	0.931564	-0.538076
H111	H	0.431260	0.982855	-0.527501
H112	H	0.464212	0.903988	-0.488361
H113	H	0.505288	0.939006	-0.565313
O114	O	-0.282376	0.892993	-0.411533
C115	C	-0.212404	0.902282	-0.402265
H116	H	-0.202735	0.924437	-0.350033
H117	H	-0.185541	0.851584	-0.406850
H118	H	-0.192354	0.938335	-0.442417
O119	O	-0.066050	1.063503	-0.240890
C120	C	-0.106941	1.024963	-0.197177
H121	H	-0.085639	0.971653	-0.192985
H122	H	-0.107729	1.049435	-0.145093
H123	H	-0.160518	1.022636	-0.218105
H124	H	0.247442	0.720538	-0.247815
O125	O	0.411431	0.892991	-0.718294
C126	C	0.478892	0.907790	-0.701022
H127	H	0.480298	0.933806	-0.649706
H128	H	0.509240	0.858939	-0.698582
H129	H	0.501690	0.942590	-0.740811
O130	O	0.411455	0.370495	-0.411521
C131	C	0.372971	0.411390	-0.455301
H132	H	0.321649	0.421968	-0.431503
H133	H	0.400551	0.461101	-0.464328
H134	H	0.365594	0.384170	-0.505474
O135	O	0.073309	0.892866	-0.411490
C136	C	0.114217	0.849149	-0.372949
H137	H	0.092930	0.844960	-0.319639
H138	H	0.115008	0.797065	-0.397420
H139	H	0.167792	0.870072	-0.370622
H140	H	0.247477	0.236535	-0.247894
O141	O	0.240681	0.370429	-0.241144
C142	C	0.249979	0.440404	-0.250389
H143	H	0.272216	0.450087	-0.302586
H144	H	0.199272	0.467262	-0.245875
H145	H	0.285968	0.460447	-0.210180
H146	H	0.247416	1.056887	-0.940382
O147	O	0.073230	1.063611	-0.240895
C148	C	0.026889	1.101826	-0.202710
H149	H	-0.023500	1.074105	-0.200359
H150	H	0.047328	1.109039	-0.149384
H151	H	0.019368	1.153235	-0.227509
H152	H	-0.060514	0.899752	-0.404792
O153	O	0.240555	1.063773	-1.074071
C154	C	0.202354	1.101960	-1.027722
H155	H	0.230091	1.104290	-0.977334
H156	H	0.195133	1.155294	-1.048153
H157	H	0.150948	1.077177	-1.020200
