data_functionalizedCrystal
_audit_creation_method	'MofGen! by Chris Wilmer'
_symmetry_space_group_name_H-M	'P1'
_symmetry_Int_Tables_number	1
_symmetry_cell_setting	triclinic
loop_
_symmetry_equiv_pos_as_xyz
  x,y,z
_cell_length_a	11.792241
_cell_length_b	19.288864
_cell_length_c	10.268362
_cell_angle_alpha	89.981569
_cell_angle_beta	90.005428
_cell_angle_gamma	96.335169
loop_
_atom_site_label
_atom_site_type_symbol
_atom_site_fract_x
_atom_site_fract_y
_atom_site_fract_z
O1	O	0.141581	-0.922153	0.108719
O2	O	0.160681	-0.720000	0.108630
O3	O	-0.014114	-0.825982	0.108667
O4	O	0.316376	-0.816171	0.108681
O5	O	-0.014121	-0.825973	-0.107933
O6	O	0.160674	-0.719991	-0.107971
O7	O	0.141574	-0.922143	-0.107882
Cu8	Cu	0.151123	-0.821066	-0.127704
Cu9	Cu	0.151132	-0.821077	0.128452
O10	O	0.316369	-0.816162	-0.107919
C11	C	0.160063	-0.694116	0.000318
C12	C	0.158218	-0.617002	0.000284
C13	C	-0.056399	-0.825361	0.000367
C14	C	-0.182385	-0.823517	0.000368
N15	N	0.151117	-0.821064	-0.307870
C16	C	-0.413046	-0.820125	0.000388
C17	C	-0.284689	-0.822009	0.000377
C18	C	0.358654	-0.816782	0.000384
C19	C	0.484640	-0.818627	0.000392
C20	C	0.142192	-0.948028	0.000433
C21	C	0.144037	-1.025142	0.000475
C22	C	0.260779	-0.572888	0.000309
C23	C	0.259046	-0.500431	0.000323
C24	C	0.154746	-0.472091	0.000339
C25	C	0.052171	-0.516215	0.000306
C26	C	0.053907	-0.588670	0.000279
C27	C	0.072756	-0.363367	0.076264
C28	C	0.071025	-0.290912	0.076299
C29	C	0.149387	-0.248615	0.000417
C30	C	0.229500	-0.278780	-0.075483
C31	C	0.231236	-0.351235	-0.075511
C32	C	0.152852	-0.393526	0.000367
C33	C	0.250076	-0.125935	0.000456
C34	C	0.248339	-0.053477	0.000462
C35	C	0.041460	-0.069262	0.000459
C36	C	0.043201	-0.141718	0.000439
C37	C	0.147512	-0.170050	0.000444
C38	C	0.151129	-0.821074	-0.573540
C39	C	0.151126	-0.821066	-0.425702
N40	N	0.151129	-0.821085	0.308617
H41	H	0.342567	-0.464507	0.000340
C42	C	0.315709	-0.232262	-0.158950
H43	H	0.303199	-0.184791	-0.148075
H44	H	0.391081	-0.238416	-0.132264
H45	H	0.306017	-0.244874	-0.248008
H46	H	-0.032752	-0.493136	0.000337
C47	C	-0.058913	-0.637200	0.000262
H48	H	-0.042940	-0.684410	0.000239
H49	H	-0.101697	-0.628587	0.075795
H50	H	-0.101697	-0.628550	-0.075281
H51	H	0.345717	-0.595951	0.000315
C52	C	-0.013439	-0.409886	0.159751
H53	H	-0.061384	-0.381545	0.204974
H54	H	-0.058595	-0.441637	0.105044
H55	H	0.026496	-0.435169	0.220762
H56	H	0.335012	-0.149004	0.000440
C57	C	-0.017086	-0.257734	0.159790
H58	H	-0.006887	-0.208524	0.148955
H59	H	-0.091893	-0.275326	0.133103
H60	H	-0.006819	-0.268875	0.248838
H61	H	0.296464	-0.375792	-0.137316
H62	H	-0.040316	-0.177637	0.000426
C63	C	-0.073271	-0.038100	0.000469
H64	H	-0.134107	-0.074754	0.000446
H65	H	-0.078250	-0.010181	0.076009
H66	H	-0.078248	-0.010146	-0.075067
H67	H	0.331860	-0.017560	0.000475
