data_functionalizedCrystal
_audit_creation_method	'MofGen! by Chris Wilmer'
_symmetry_space_group_name_H-M	'P1'
_symmetry_Int_Tables_number	1
_symmetry_cell_setting	triclinic
loop_
_symmetry_equiv_pos_as_xyz
  x,y,z
_cell_length_a	27.732048
_cell_length_b	11.792241
_cell_length_c	10.268362
_cell_angle_alpha	89.998512
_cell_angle_beta	90.000913
_cell_angle_gamma	83.418035
loop_
_atom_site_label
_atom_site_type_symbol
_atom_site_fract_x
_atom_site_fract_y
_atom_site_fract_z
O1	O	-0.641711	-0.135035	0.108133
O2	O	-0.501037	-0.155567	0.108173
O3	O	-0.574788	0.019979	0.108143
O4	O	-0.567960	-0.310581	0.108163
O5	O	-0.574780	0.019973	-0.108458
O6	O	-0.501030	-0.155574	-0.108428
O7	O	-0.641704	-0.135041	-0.108467
Cu8	Cu	-0.571366	-0.145308	-0.128225
Cu9	Cu	-0.571374	-0.145300	0.127930
O10	O	-0.567953	-0.310587	-0.108438
C11	C	-0.483024	-0.155140	-0.000123
C12	C	-0.429361	-0.153842	-0.000108
C13	C	-0.574355	0.062253	-0.000157
C14	C	-0.573071	0.188226	-0.000155
C15	C	-0.659717	-0.135469	-0.000169
C16	C	-0.713379	-0.136766	-0.000175
C17	C	-0.091101	-0.249407	-0.000158
C18	C	0.110587	-0.244592	-0.000170
O19	O	0.141335	-0.331980	-0.000221
N20	N	0.130315	-0.140500	-0.000174
C21	C	0.099617	-0.037605	-0.000184
O22	O	0.121024	0.051042	-0.000201
C23	C	-0.102070	-0.042422	-0.000181
C24	C	-0.121794	-0.146520	-0.000164
C25	C	-0.110826	-0.353497	-0.000143
C26	C	-0.161245	-0.354700	-0.000133
C27	C	-0.191939	-0.251813	-0.000138
C28	C	-0.172213	-0.147723	-0.000154
C29	C	-0.132766	0.060472	-0.000200
C30	C	-0.183191	0.059259	-0.000203
C31	C	-0.202915	-0.044840	-0.000186
C32	C	-0.253326	-0.046038	-0.000150
N33	N	-0.273054	-0.150130	-0.000146
C34	C	-0.242360	-0.253017	-0.000140
C35	C	0.205506	-0.035084	-0.000183
C36	C	0.255927	-0.033879	-0.000181
C37	C	0.266894	-0.240867	-0.000170
C38	C	0.216471	-0.242070	-0.000162
C39	C	0.185778	-0.139175	-0.000179
C40	C	-0.348244	-0.255535	-0.000118
C41	C	-0.398668	-0.256729	-0.000102
C42	C	-0.409630	-0.049742	-0.000120
C43	C	-0.359210	-0.048548	-0.000129
C44	C	-0.328518	-0.151454	-0.000132
O45	O	-0.284103	0.041303	-0.000113
O46	O	-0.263777	-0.341651	-0.000152
C47	C	-0.040682	-0.248205	-0.000169
C48	C	-0.020957	-0.144115	-0.000184
C49	C	-0.051650	-0.041227	-0.000190
C50	C	0.029465	-0.142910	-0.000183
C51	C	0.060159	-0.245797	-0.000177
C52	C	0.040431	-0.349889	-0.000173
C53	C	-0.009988	-0.351092	-0.000163
C54	C	-0.031923	0.062864	-0.000194
C55	C	0.018497	0.064058	-0.000203
C56	C	0.049191	-0.038829	-0.000197
C57	C	-0.568385	-0.352861	-0.000135
C58	C	-0.569669	-0.478834	-0.000128
N59	N	-0.571364	-0.145312	-0.308391
C60	C	-0.570711	0.418862	-0.000133
C61	C	-0.572023	0.290519	-0.000145
C62	C	-0.571367	-0.145312	-0.426233
C63	C	-0.571373	-0.145302	-0.574071
N64	N	-0.571381	-0.145287	0.308096
H65	H	-0.323260	-0.339331	-0.000124
O66	O	0.197393	-0.343290	-0.000212
C67	C	0.235302	-0.433834	-0.000168
H68	H	0.269635	-0.402627	-0.041172
H69	H	0.224574	-0.506570	-0.063049
H70	H	0.242351	-0.465522	0.103750
H71	H	-0.177300	-0.439467	-0.000118
H72	H	-0.085840	-0.437285	-0.000143
H73	H	-0.414724	-0.341502	-0.000087
O74	O	0.175763	0.064979	-0.000133
C75	C	0.203994	0.157098	-0.000166
H76	H	0.241542	0.127601	0.040842
H77	H	0.185595	0.229137	0.062718
H78	H	0.207671	0.189047	-0.104081
H79	H	-0.056909	0.146649	-0.000202
O80	O	-0.439520	0.050094	-0.000188
C81	C	-0.488251	0.026697	-0.000151
H82	H	-0.490418	-0.062418	-0.041139
H83	H	-0.510920	0.092319	-0.063050
H84	H	-0.502820	0.031271	0.103762
H85	H	-0.116716	0.145240	-0.000215
O86	O	-0.212936	0.159318	-0.000154
C87	C	-0.184710	0.251445	-0.000202
H88	H	-0.147159	0.221958	0.040800
H89	H	-0.203109	0.323484	0.062681
H90	H	-0.181036	0.283389	-0.104120
O91	O	0.275107	0.067213	0.000049
C92	C	0.303954	0.074104	0.112212
H93	H	0.291876	0.015011	0.190624
H94	H	0.299670	0.165652	0.149859
H95	H	0.343642	0.047224	0.086851
O96	O	0.296783	-0.340709	-0.000225
C97	C	0.345514	-0.317310	-0.000192
H98	H	0.347681	-0.228198	-0.041194
H99	H	0.368183	-0.382936	-0.063081
H100	H	0.360084	-0.321876	0.103722
H101	H	0.065431	-0.433663	-0.000163
H102	H	-0.026043	-0.435859	-0.000151
O103	O	-0.340127	0.052671	-0.000186
C104	C	-0.378033	0.143222	-0.000144
H105	H	-0.412369	0.112022	-0.041138
H106	H	-0.367305	0.215953	-0.063035
H107	H	-0.385076	0.174914	0.103772
O108	O	0.037574	0.165288	-0.000275
C109	C	-0.000335	0.255832	-0.000248
H110	H	-0.034669	0.224619	-0.041236
H111	H	0.010390	0.328558	-0.063152
H112	H	-0.007380	0.287537	0.103662
