data_functionalizedCrystal
_audit_creation_method	'MofGen! by Chris Wilmer'
_symmetry_space_group_name_H-M	'P1'
_symmetry_Int_Tables_number	1
_symmetry_cell_setting	triclinic
loop_
_symmetry_equiv_pos_as_xyz
  x,y,z
_cell_length_a	18.215407
_cell_length_b	13.031981
_cell_length_c	18.215399
_cell_angle_alpha	97.211043
_cell_angle_beta	90.019833
_cell_angle_gamma	97.192004
loop_
_atom_site_label
_atom_site_type_symbol
_atom_site_fract_x
_atom_site_fract_y
_atom_site_fract_z
Zn1	Zn	1.087918	-0.416110	0.378877
Zn2	Zn	1.072220	-0.590902	0.240168
Zn3	Zn	0.964848	-0.416144	0.255822
Zn4	Zn	0.949215	-0.590844	0.363199
O5	O	1.018550	-0.503500	0.309516
O6	O	1.188819	-0.439306	0.360488
O7	O	1.057949	-0.567758	0.139257
O8	O	0.994285	-0.269876	0.285258
O9	O	1.177285	-0.567725	0.258579
O10	O	1.084705	-0.269851	0.375666
O11	O	0.979063	-0.439364	0.150757
O12	O	0.859791	-0.439308	0.270055
O13	O	0.967642	-0.567626	0.468266
O14	O	0.848305	-0.567659	0.348944
O15	O	1.069546	-0.439250	0.479785
O16	O	1.042790	-0.737158	0.243376
O17	O	0.952419	-0.737115	0.333766
C18	C	0.827345	-0.503482	0.309497
C19	C	0.745545	-0.503499	0.309504
C20	C	0.551380	-0.570437	0.350513
C21	C	0.474521	-0.570440	0.350522
C22	C	0.486470	-0.436581	0.268534
C23	C	0.563328	-0.436574	0.268530
C24	C	0.595781	-0.503507	0.309518
C25	C	0.442064	-0.503518	0.309531
C26	C	0.358730	-0.503521	0.309540
C27	C	0.679120	-0.503503	0.309510
C28	C	0.994225	-0.775061	0.285187
C29	C	0.983886	-0.891236	0.274803
C30	C	1.023985	-0.942934	0.314950
C31	C	1.013300	-1.063007	0.304219
C32	C	1.210501	-0.503518	0.309536
C33	C	1.292299	-0.503526	0.309545
C34	C	1.018601	-0.503428	0.501476
C35	C	1.018623	-0.503397	0.583278
C36	C	1.042990	-0.230878	0.333957
C37	C	1.053405	-0.114703	0.344372
C38	C	1.018548	-0.503496	0.118311
C39	C	1.018695	-0.503232	0.036536
C40	C	1.071707	-0.436489	0.777476
C41	C	1.071719	-0.436458	0.854338
C42	C	0.965605	-0.570143	0.842331
C43	C	0.965591	-0.570168	0.765472
C44	C	1.018646	-0.503342	0.733046
C45	C	1.018672	-0.503287	0.886767
C46	C	1.018684	-0.503255	0.970104
C47	C	1.018634	-0.503373	0.649704
H48	H	0.438374	-0.624939	0.383906
H49	H	0.922411	-0.624553	0.868741
H50	H	0.577801	-0.624936	0.383890
H51	H	0.941642	-0.935868	0.232491
C52	C	1.110475	-1.054430	0.401542
H53	H	1.134243	-1.102438	0.425340
H54	H	1.146320	-1.011828	0.377201
H55	H	1.086062	-1.011851	0.437364
H56	H	1.066223	-0.898304	0.357269
H57	H	1.114907	-0.382072	0.751078
H58	H	0.460037	-0.382088	0.235162
C59	C	0.612171	-0.362949	0.223432
H60	H	0.581836	-0.323097	0.199013
H61	H	0.646239	-0.317457	0.255709
H62	H	0.638564	-0.402880	0.187741
C63	C	1.130089	-0.362925	0.903208
H64	H	1.161686	-0.323138	0.872885
H65	H	1.106028	-0.317369	0.937270
H66	H	1.158577	-0.402908	0.929610
H67	H	0.971053	-1.107636	0.261904
H68	H	0.922377	-0.624607	0.729295
