data_functionalizedCrystal
_audit_creation_method	'MofGen! by Chris Wilmer'
_symmetry_space_group_name_H-M	'P1'
_symmetry_Int_Tables_number	1
_symmetry_cell_setting	triclinic
loop_
_symmetry_equiv_pos_as_xyz
  x,y,z
_cell_length_a	14.446369
_cell_length_b	14.809374
_cell_length_c	14.809374
_cell_angle_alpha	60.797835
_cell_angle_beta	90.000875
_cell_angle_gamma	67.424702
loop_
_atom_site_label
_atom_site_type_symbol
_atom_site_fract_x
_atom_site_fract_y
_atom_site_fract_z
Zr1	Zr	1.022484	0.955154	-0.203635
O2	O	0.909089	1.113080	-0.350799
O3	O	1.041192	0.777387	-0.145558
O4	O	1.079057	0.926533	-0.332096
O5	O	0.859616	0.993431	-0.031862
O6	O	1.231393	0.926526	-0.332090
O7	O	0.871223	0.963934	-0.164260
O8	O	1.163658	0.659731	0.001593
O9	O	0.927351	1.260225	-0.365546
O10	O	1.182252	0.857849	-0.136447
O11	O	1.059904	0.879866	-0.037644
O12	O	1.104485	1.055466	-0.257269
O13	O	0.982137	1.077484	-0.158467
Zr14	Zr	1.246929	1.002186	0.007533
Zr15	Zr	1.265442	0.955143	-0.203626
Zr16	Zr	1.003971	1.002197	0.007524
Zr17	Zr	1.051609	1.189834	-0.227155
Zr18	Zr	1.217804	0.767507	0.031053
O19	O	1.228221	1.179954	-0.050545
O20	O	1.254544	1.113064	-0.350786
O21	O	0.882767	1.179970	-0.050558
O22	O	1.360324	0.844260	0.154696
O23	O	1.386646	0.777371	-0.145545
O24	O	1.014869	0.844276	0.154683
O25	O	1.409797	0.963910	-0.164240
O26	O	1.190356	1.030808	0.135994
O27	O	1.038020	1.030815	0.135988
O28	O	1.398190	0.993406	-0.031842
O29	O	1.120470	1.260217	-0.365539
O30	O	1.148943	0.697124	0.169436
O31	O	1.342062	0.697115	0.169443
O32	O	1.356777	0.659722	0.001600
O33	O	0.912636	1.297618	-0.197703
O34	O	1.105755	1.297610	-0.197695
O35	O	1.164927	0.901874	0.061167
O36	O	1.287276	0.879856	-0.037636
O37	O	1.209509	1.077474	-0.158458
O38	O	1.087161	1.099492	-0.059656
C39	C	1.098275	0.685122	-0.068631
C40	C	1.085911	0.585494	-0.058646
C41	C	1.141092	0.530155	-0.103208
C42	C	1.128314	0.427184	-0.092889
C43	C	0.830803	0.978684	-0.098063
C44	C	0.727661	0.978689	-0.098066
C45	C	0.531918	1.103382	-0.173954
C46	C	0.639192	1.103398	-0.174312
C47	C	0.719784	0.899758	-0.136626
C48	C	0.612164	0.900535	-0.137169
C49	C	0.599720	0.931869	0.016567
C50	C	0.706028	0.934442	0.016136
C51	C	1.438610	0.978656	-0.098040
C52	C	1.541752	0.978652	-0.098036
C53	C	1.157863	0.919826	-0.362179
C54	C	1.165722	0.899855	-0.451821
C55	C	1.171138	1.272218	-0.127471
C56	C	1.183502	1.371846	-0.137456
C57	C	1.130648	0.988984	-0.551723
C58	C	1.138770	0.968345	-0.644374
C59	C	1.111550	1.037514	0.166076
C60	C	1.103691	1.057485	0.255719
C61	C	1.402178	0.685108	-0.068620
C62	C	1.492956	0.585476	-0.058631
C63	C	1.075119	0.743966	0.195496
C64	C	1.054895	0.664309	0.295124
C65	C	1.379022	0.743952	0.195508
C66	C	1.461941	0.664291	0.295139
C67	C	0.890391	1.213389	-0.391610
C68	C	0.807472	1.293050	-0.491241
C69	C	0.867235	1.272232	-0.127483
C70	C	0.776457	1.371865	-0.137471
C71	C	1.194294	1.213375	-0.391599
C72	C	1.214518	1.293031	-0.491226
C73	C	1.480765	0.527198	-0.105528
C74	C	1.566055	0.433591	-0.096163
C75	C	1.663532	0.398259	-0.039895
C76	C	1.675721	0.456547	0.007002
C77	C	1.590434	0.550157	-0.002370
C78	C	1.100219	0.638391	0.393497
C79	C	1.081213	0.563561	0.487114
C80	C	1.016890	0.514642	0.482357
C81	C	0.971561	0.540567	0.383973
C82	C	0.990561	0.615403	0.290357
C83	C	1.564755	0.615388	0.290353
C84	C	1.642677	0.540549	0.383958
C85	C	1.617782	0.514608	0.482348
C86	C	1.514958	0.563519	0.487131
C87	C	1.437038	0.638363	0.393527
C88	C	0.704659	1.341964	-0.486456
C89	C	0.626741	1.416832	-0.580064
C90	C	0.651636	1.442778	-0.678455
C91	C	0.754460	1.393860	-0.683238
C92	C	0.832377	1.319000	-0.589632
C93	C	0.788650	1.430151	-0.090585
C94	C	0.703366	1.523778	-0.099975
C95	C	0.605889	1.559112	-0.156246
C96	C	0.593699	1.500821	-0.203139
C97	C	0.678983	1.407201	-0.193754
C98	C	1.278846	1.341927	-0.486434
C99	C	1.297868	1.416762	-0.580035
C100	C	1.252555	1.442706	-0.678428
C101	C	1.188223	1.393802	-0.683218
C102	C	1.169208	1.318962	-0.589617
H103	H	0.482051	1.164516	-0.149067
H104	H	1.585045	0.636496	0.210248
H105	H	1.029211	0.556638	-0.012854
H106	H	1.681239	0.453663	0.558559
O107	O	0.642388	1.183901	-0.141095
H108	H	0.657842	1.252718	-0.206056
O109	O	0.801722	0.777461	-0.066156
H110	H	0.849045	0.771627	-0.002752
H111	H	1.315749	1.320817	-0.406327
H112	H	1.067650	1.149078	-0.761227
H113	H	0.536453	1.635346	-0.163879
H114	H	1.401404	0.555960	-0.151359
H115	H	0.713310	1.571225	-0.061783
O116	O	0.477179	1.151790	-0.285573
H117	H	0.456945	1.087400	-0.287215
O118	O	1.488123	0.535515	0.593262
H119	H	1.450074	0.615989	0.593983
H120	H	0.543023	1.456649	-0.576149
H121	H	0.551869	0.984660	0.050097
H122	H	0.588181	1.503735	-0.754667
H123	H	0.622497	0.808298	-0.084721
H124	H	0.774719	1.414995	-0.763359
H125	H	0.734720	0.930089	-0.219781
H126	H	1.353323	0.678171	0.397439
H127	H	1.094612	1.080569	-0.568660
O128	O	1.755516	0.297285	-0.029781
H129	H	1.730651	0.262695	-0.071838
H130	H	0.916091	1.279172	-0.593540
H131	H	1.197799	0.559003	-0.148993
H132	H	1.071610	0.398333	-0.047093
O133	O	1.258615	0.410050	-0.198123
H134	H	1.256860	0.484938	-0.196719
H135	H	0.574824	0.931806	-0.221185
H136	H	1.726396	0.500730	0.380044
O137	O	1.186512	0.847015	-0.621914
H138	H	1.185391	0.849843	-0.698210
O139	O	1.130115	0.535600	0.593221
H140	H	1.179299	0.441432	0.644420
H141	H	0.650440	1.140043	-0.259065
H142	H	1.201766	0.808270	-0.434885
O143	O	1.780858	0.418426	0.067700
H144	H	1.838103	0.343533	0.066343
O145	O	0.709676	1.010885	0.054485
H146	H	0.726827	1.080105	-0.007525
H147	H	1.116822	1.279158	-0.593534
O148	O	0.996410	0.433923	0.583338
H149	H	0.944063	0.404260	0.563511
O150	O	0.788432	0.815278	0.095932
H151	H	0.864402	0.817150	0.099025
O152	O	1.552895	0.370725	-0.146738
H153	H	1.470780	0.411013	-0.187418
O154	O	0.893784	1.392065	-0.029908
H155	H	0.887921	1.448348	0.001095
O156	O	0.677786	1.313992	-0.380345
H157	H	0.749229	1.253710	-0.316046
O158	O	1.139340	1.421801	-0.789345
H159	H	1.163365	1.482070	-0.853619
H160	H	0.514322	1.529605	-0.248954
O161	O	0.665825	1.344327	-0.244316
H162	H	0.583712	1.384626	-0.285008
H163	H	1.600374	0.597598	0.035827
O164	O	0.902217	0.487767	0.378850
H165	H	0.896647	0.431356	0.460481
H166	H	1.350249	1.456574	-0.576115
O167	O	1.169593	0.691152	0.398641
H168	H	1.197899	0.660557	0.482780
H169	H	1.268046	1.503648	-0.754636
H170	H	0.953654	0.636493	0.210262
O171	O	0.613904	0.810379	0.091637
H172	H	0.579851	0.783399	0.047606
