data_functionalizedCrystal
_audit_creation_method	'MofGen! by Chris Wilmer'
_symmetry_space_group_name_H-M	'P1'
_symmetry_Int_Tables_number	1
_symmetry_cell_setting	triclinic
loop_
_symmetry_equiv_pos_as_xyz
  x,y,z
_cell_length_a	15.944551
_cell_length_b	10.654554
_cell_length_c	9.730223
_cell_angle_alpha	89.999359
_cell_angle_beta	90.004286
_cell_angle_gamma	96.007210
loop_
_atom_site_label
_atom_site_type_symbol
_atom_site_fract_x
_atom_site_fract_y
_atom_site_fract_z
O1	O	-1.115459	0.161960	0.114140
O2	O	-0.871025	0.181929	0.114174
O3	O	-0.998860	-0.010867	0.114154
O4	O	-0.987624	0.354756	0.114160
O5	O	-0.998858	-0.010862	-0.114426
O6	O	-0.871023	0.181934	-0.114406
O7	O	-1.115457	0.161965	-0.114440
Zn8	Zn	-0.993240	0.171950	-0.150715
Zn9	Zn	-0.993242	0.171944	0.150449
O10	O	-0.987622	0.354761	-0.114420
C11	C	-0.839725	0.181103	-0.000112
C12	C	-0.746465	0.178617	-0.000099
C13	C	-1.146757	0.162792	-0.000151
C14	C	-1.240017	0.165277	-0.000155
C15	C	-0.998033	-0.057651	-0.000133
C16	C	-0.995562	-0.197062	-0.000126
C17	C	-0.530881	0.053173	-0.000128
C18	C	-0.470199	0.111423	0.112575
C19	C	-0.575713	0.174121	-0.000115
C20	C	-0.470220	0.111456	-0.112787
C21	C	-0.410775	0.169769	-0.000137
C22	C	-0.516260	0.232404	0.112681
C23	C	-0.516287	0.232421	-0.112782
C24	C	-0.455623	0.290758	-0.000052
C25	C	-0.670730	0.176625	-0.000101
C26	C	-0.315759	0.167275	-0.000141
C27	C	-0.988449	0.401546	-0.000129
C28	C	-0.990920	0.540957	-0.000128
C29	C	-1.070833	0.722485	-0.000141
C30	C	-1.068512	0.591493	-0.000137
C31	C	-0.915643	0.621420	-0.000108
C32	C	-0.917965	0.752409	-0.000103
C33	C	-1.159090	0.705206	-0.000164
C34	C	-1.156769	0.574214	-0.000160
N35	N	-0.993245	0.171954	-0.356251
C36	C	-1.049865	0.086613	-0.428186
C37	C	-1.049862	0.086597	-0.572069
C38	C	-0.936618	0.257276	-0.572070
C39	C	-0.936617	0.257284	-0.428189
C40	C	-1.115248	-0.011924	-0.428187
C41	C	-1.115246	-0.011939	-0.572070
N42	N	-0.993244	0.171931	0.355985
H43	H	-0.563631	-0.047204	0.000010
H44	H	-0.423048	0.391239	0.000013
F45	F	-1.204208	0.742998	0.124857
H46	H	-1.187194	0.740479	-0.098861
F47	F	-0.542770	0.299216	0.237358
F48	F	-1.191632	0.514092	0.128832
F49	F	-1.088565	-0.130821	-0.630391
H50	H	-0.852466	0.580263	-0.000088
H51	H	-1.100906	-0.108270	-0.389132
H52	H	-0.890505	0.326765	-0.369621
F53	F	-1.200234	0.519076	-0.125196
F54	F	-0.542989	0.299234	-0.237327
H55	H	-0.890512	0.326749	-0.630657
F56	F	-0.443578	0.044568	-0.237324
H57	H	-1.176233	0.017876	-0.383569
F58	F	-0.837852	0.838029	-0.000057
F59	F	-1.199614	0.015085	-0.623130
H60	H	-0.449793	0.060265	0.207856
