data_functionalizedCrystal
_audit_creation_method	'MofGen! by Chris Wilmer'
_symmetry_space_group_name_H-M	'P1'
_symmetry_Int_Tables_number	1
_symmetry_cell_setting	triclinic
loop_
_symmetry_equiv_pos_as_xyz
  x,y,z
_cell_length_a	23.532407
_cell_length_b	22.010155
_cell_length_c	17.699092
_cell_angle_alpha	89.994071
_cell_angle_beta	83.067557
_cell_angle_gamma	90.005729
loop_
_atom_site_label
_atom_site_type_symbol
_atom_site_fract_x
_atom_site_fract_y
_atom_site_fract_z
O1	O	0.755530	0.050485	0.091867
O2	O	0.589705	0.050494	0.105161
O3	O	0.677300	0.050488	-0.011699
O4	O	0.667935	0.050491	0.208727
O5	O	0.677284	-0.050563	-0.011681
O6	O	0.589689	-0.050556	0.105178
O7	O	0.755514	-0.050566	0.091885
Cu8	Cu	0.672600	-0.059788	0.098533
Cu9	Cu	0.672619	0.059716	0.098512
O10	O	0.667919	-0.050559	0.208744
C11	C	0.568480	-0.000030	0.104831
C12	C	0.505260	-0.000026	0.103813
N13	N	0.672591	-0.143840	0.098547
C14	C	0.238880	-0.000044	0.030461
C15	C	0.298283	-0.000044	0.031406
O16	O	0.334859	-0.000066	-0.026783
N17	N	0.321110	-0.000039	0.100879
C18	C	0.284531	-0.000040	0.169411
O19	O	0.309402	-0.000036	0.228590
C20	C	0.225129	-0.000044	0.168465
C21	C	0.202306	-0.000043	0.098988
C22	C	0.216056	-0.000044	-0.039011
C23	C	0.156657	-0.000043	-0.039956
C24	C	0.120082	-0.000042	0.028571
C25	C	0.142907	-0.000042	0.098042
C26	C	0.188551	-0.000050	0.236996
C27	C	0.129146	-0.000055	0.236044
C28	C	0.106322	-0.000054	0.166566
C29	C	0.046933	-0.000041	0.165624
N30	N	0.024106	-0.000046	0.096151
C31	C	0.060680	-0.000047	0.027624
C32	C	0.409279	-0.000031	0.171393
C33	C	0.468680	-0.000022	0.172340
C34	C	0.482428	-0.000028	0.034335
C35	C	0.423026	-0.000032	0.033389
C36	C	0.386452	-0.000037	0.101920
C37	C	-0.064062	-0.000044	0.025645
C38	C	-0.123467	-0.000041	0.024706
C39	C	-0.137209	-0.000039	0.162710
C40	C	-0.077810	-0.000039	0.163650
C41	C	-0.041237	-0.000044	0.095111
O42	O	0.010322	-0.000021	0.223783
O43	O	0.035801	-0.000058	-0.031545
C44	C	0.711408	-0.563622	0.046774
C45	C	0.711411	-0.627230	0.046769
O46	O	0.744391	-0.660124	0.002760
N47	N	0.672618	-0.659047	0.098497
C48	C	0.633817	-0.627254	0.150227
O49	O	0.600821	-0.660157	0.194225
C50	C	0.633812	-0.563647	0.150228
C51	C	0.672611	-0.531833	0.098503
C52	C	0.750203	-0.531808	-0.004948
C53	C	0.750201	-0.468205	-0.004941
C54	C	0.711404	-0.436416	0.046787
C55	C	0.672609	-0.468230	0.098509
C56	C	0.595009	-0.531855	0.201955
C57	C	0.595007	-0.468244	0.201951
C58	C	0.633805	-0.436430	0.150226
C59	C	0.633809	-0.372838	0.150244
N60	N	0.672602	-0.341020	0.098516
C61	C	0.711399	-0.372809	0.046788
C62	C	0.633830	-0.760831	0.150220
C63	C	0.633837	-0.824437	0.150224
C64	C	0.711430	-0.824409	0.046764
C65	C	0.711425	-0.760802	0.046765
C66	C	0.672622	-0.729014	0.098493
C67	C	0.711392	-0.239238	0.046806
C68	C	0.711388	-0.175629	0.046819
C69	C	0.633793	-0.175663	0.150275
C70	C	0.633799	-0.239266	0.150265
C71	C	0.672600	-0.271052	0.098524
O72	O	0.600844	-0.339903	0.194229
O73	O	0.744384	-0.339898	0.002792
C74	C	0.776739	-0.000040	0.092214
C75	C	0.839959	-0.000040	0.093232
C76	C	0.676955	-0.000036	-0.039885
C77	C	0.675946	-0.000034	-0.123898
N78	N	0.672632	0.143769	0.098492
C79	C	0.675482	0.055050	-0.163372
C80	C	0.674530	0.055050	-0.242310
C81	C	0.674047	-0.000033	-0.281773
C82	C	0.674509	-0.055120	-0.242293
C83	C	0.675457	-0.055120	-0.163355
C84	C	0.670686	-0.055121	-0.560638
C85	C	0.669740	-0.055117	-0.639582
C86	C	0.669760	0.055050	-0.639593
C87	C	0.670708	0.055050	-0.560656
C88	C	0.671167	-0.000037	-0.521182
C89	C	0.672198	-0.000038	-0.435588
C90	C	0.673020	-0.000033	-0.367366
C91	C	0.668263	-0.000034	0.236930
C92	C	0.669272	-0.000033	0.320943
H93	H	-0.142046	-0.000038	-0.031873
H94	H	0.675879	0.099905	-0.131248
O95	O	-0.028622	-0.000017	-0.041002
C96	C	-0.061516	-0.000030	-0.102515
H97	H	-0.105873	0.019097	-0.082951
H98	H	-0.039549	0.029312	-0.150506
H99	H	-0.065725	-0.048508	-0.123828
O100	O	0.671064	0.108583	-0.522358
C101	C	0.621533	0.142081	-0.532756
H102	H	0.586819	0.109833	-0.548192
H103	H	0.605598	0.167083	-0.477863
H104	H	0.632132	0.176412	-0.580620
H105	H	0.671072	-0.099976	-0.528510
O106	O	0.596056	-0.270080	0.200539
C107	C	0.561823	-0.228379	0.246210
H108	H	0.561231	-0.183031	0.215191
H109	H	0.516325	-0.246758	0.258051
H110	H	0.580229	-0.221627	0.302317
O111	O	0.674131	0.108613	-0.280548
C112	C	0.674763	0.157230	-0.228791
H113	H	0.693439	0.141067	-0.175778
H114	H	0.702161	0.195737	-0.256610
H115	H	0.629203	0.174199	-0.212132
H116	H	0.138079	-0.000044	-0.096531
O117	O	0.669184	-0.108590	-0.677981
C118	C	0.619323	-0.111878	-0.714682
H119	H	0.602761	-0.064047	-0.723535
H120	H	0.629735	-0.135195	-0.772198
H121	H	0.585154	-0.139052	-0.677993
H122	H	0.674112	-0.099970	-0.274429
H123	H	0.675827	-0.099975	-0.131215
H124	H	0.245829	-0.000046	-0.094817
O125	O	0.557394	-0.562778	0.252271
C126	C	0.587816	-0.599585	0.298758
H127	H	0.632726	-0.580417	0.299744
H128	H	0.564489	-0.600310	0.359070
H129	H	0.590832	-0.647790	0.275052
H130	H	0.404447	-0.000032	-0.023186
O131	O	0.557292	-0.437460	0.252277
C132	C	0.523043	-0.479185	0.297912
H133	H	0.546393	-0.524522	0.298603
H134	H	0.514267	-0.460820	0.358419
H135	H	0.480774	-0.485953	0.273618
H136	H	0.669383	0.099905	-0.671742
H137	H	0.487258	-0.000015	0.228916
O138	O	0.518044	-0.000059	-0.032165
C139	C	0.575365	-0.000041	-0.016423
H140	H	0.577561	-0.019169	0.043012
H141	H	0.602334	-0.029381	-0.060120
H142	H	0.592553	0.048438	-0.019434
H143	H	0.602207	-0.149770	0.192394
O144	O	0.596196	-0.729983	0.200585
C145	C	0.605346	-0.745550	0.275443
H146	H	0.650943	-0.763023	0.275497
H147	H	0.598737	-0.703730	0.313482
H148	H	0.573758	-0.782484	0.297881
O149	O	0.373777	0.000082	0.237990
C150	C	0.384130	0.052413	0.280189
H151	H	0.404481	0.088989	0.240061
H152	H	0.341951	0.069982	0.310869
H153	H	0.414328	0.040586	0.323758
O154	O	0.210639	0.000029	0.304539
C155	C	0.191946	0.052369	0.346265
H156	H	0.150781	0.069817	0.325935
H157	H	0.183604	0.040596	0.409356
H158	H	0.226335	0.089017	0.337247
O159	O	0.093596	-0.000164	0.302598
C160	C	0.058807	-0.052490	0.306184
H161	H	0.080603	-0.089070	0.267316
H162	H	0.052054	-0.070057	0.367204
H163	H	0.015635	-0.040657	0.286933
O164	O	-0.055699	0.000045	0.231184
C165	C	-0.074373	0.052389	0.272917
H166	H	-0.115545	0.069843	0.252611
H167	H	-0.082695	0.040617	0.336010
H168	H	-0.039979	0.089031	0.263877
O169	O	-0.172802	0.000041	0.229224
C170	C	-0.207562	0.052381	0.232806
H171	H	-0.210483	0.069833	0.172753
H172	H	-0.252247	0.040605	0.261335
H173	H	-0.188065	0.089026	0.267226
O174	O	0.749099	-0.144820	-0.003505
C175	C	0.783350	-0.186523	-0.049150
H176	H	0.760002	-0.231866	-0.049849
H177	H	0.792122	-0.168138	-0.109653
H178	H	0.825620	-0.193286	-0.024860
O179	O	0.749109	-0.270175	-0.003350
C180	C	0.784199	-0.306955	0.036940
H181	H	0.761435	-0.316505	0.096315
H182	H	0.793263	-0.351672	0.005276
H183	H	0.826275	-0.282429	0.041809
H184	H	0.781792	-0.442306	-0.047063
H185	H	0.781796	-0.557685	-0.047075
H186	H	0.743018	-0.734903	0.004645
O187	O	0.749092	-0.855228	-0.003594
C188	C	0.739928	-0.839692	-0.078456
H189	H	0.717979	-0.793511	-0.078215
H190	H	0.782785	-0.837512	-0.116022
H191	H	0.711611	-0.875491	-0.101667
H192	H	0.602249	-0.850335	0.192351
