data_functionalizedCrystal
_audit_creation_method	'MofGen! by Chris Wilmer'
_symmetry_space_group_name_H-M	'P1'
_symmetry_Int_Tables_number	1
_symmetry_cell_setting	triclinic
loop_
_symmetry_equiv_pos_as_xyz
  x,y,z
_cell_length_a	11.026607
_cell_length_b	9.482900
_cell_length_c	10.654547
_cell_angle_alpha	80.592810
_cell_angle_beta	83.465066
_cell_angle_gamma	78.618164
loop_
_atom_site_label
_atom_site_type_symbol
_atom_site_fract_x
_atom_site_fract_y
_atom_site_fract_z
O1	O	1.595759	0.120887	-0.542241
O2	O	1.241948	0.120890	-0.482246
O3	O	1.426990	0.120885	-0.331270
O4	O	1.410717	0.120891	-0.693217
O5	O	1.464645	-0.120908	-0.300533
O6	O	1.279603	-0.120904	-0.451509
O7	O	1.633414	-0.120907	-0.511504
Cu8	Cu	1.459946	-0.142983	-0.478700
Cu9	Cu	1.415415	0.142966	-0.515050
O10	O	1.448371	-0.120902	-0.662480
C11	C	1.215471	-0.000006	-0.455810
C12	C	1.080480	-0.000005	-0.422815
N13	N	1.491276	-0.344104	-0.453134
N14	N	1.384095	0.344087	-0.540608
C15	C	1.007440	-0.000003	-0.513919
C16	C	0.867918	-0.000001	-0.479820
C17	C	1.659890	-0.000007	-0.537941
C18	C	1.794880	0.000001	-0.570937
C19	C	1.450715	0.416284	-0.486249
C20	C	1.424647	0.583702	-0.507502
C21	C	1.430738	-0.000005	-0.724906
C22	C	1.434310	-0.000002	-0.865125
C23	C	1.415465	0.131801	-0.947752
C24	C	1.418839	0.131802	-1.079504
C25	C	1.459900	-0.131815	-1.045990
C26	C	1.456535	-0.131814	-0.914241
C27	C	1.444623	-0.000009	-0.268845
C28	C	1.441049	-0.000002	-0.128627
H29	H	1.048200	-0.000009	-0.617159
F30	F	1.284324	0.425292	-0.622013
F31	F	0.814657	-0.000013	-0.344865
F32	F	1.476600	-0.272105	-0.826298
F33	F	1.550498	0.335082	-0.404858
H34	H	1.477992	-0.239132	-1.085996
F35	F	1.398784	0.272084	-1.167437
F36	F	1.324870	0.664902	-0.588911
H37	H	0.835633	-0.000007	-0.674184
H38	H	1.567620	0.593770	-0.390862
H39	H	1.039715	0.000030	-0.319578
F40	F	1.391816	0.272086	-0.895485
