data_functionalizedCrystal
_audit_creation_method	'MofGen! by Chris Wilmer'
_symmetry_space_group_name_H-M	'P1'
_symmetry_Int_Tables_number	1
_symmetry_cell_setting	triclinic
loop_
_symmetry_equiv_pos_as_xyz
  x,y,z
_cell_length_a	15.995292
_cell_length_b	15.072220
_cell_length_c	10.654551
_cell_angle_alpha	89.991637
_cell_angle_beta	83.976989
_cell_angle_gamma	90.004794
loop_
_atom_site_label
_atom_site_type_symbol
_atom_site_fract_x
_atom_site_fract_y
_atom_site_fract_z
O1	O	1.111941	-0.073801	0.161539
O2	O	0.868275	-0.073797	0.181604
O3	O	0.995710	-0.073799	-0.011243
O4	O	0.984506	-0.073798	0.354386
O5	O	0.995726	0.073766	-0.011276
O6	O	0.868291	0.073768	0.181571
O7	O	1.111957	0.073764	0.161505
Zn8	Zn	0.990127	0.097195	0.171532
Zn9	Zn	0.990105	-0.097228	0.171577
O10	O	0.984522	0.073767	0.354352
C11	C	0.837083	-0.000014	0.180771
C12	C	0.744116	-0.000012	0.178322
C13	C	0.406325	-0.000022	0.169322
C14	C	0.430446	-0.000351	0.308513
C15	C	0.527137	-0.000015	0.311159
C16	C	0.573907	-0.000018	0.173788
C17	C	0.544410	0.084246	0.104179
C18	C	0.447610	0.084313	0.102504
C19	C	0.447719	-0.083497	0.099700
C20	C	0.544242	-0.084606	0.104858
C21	C	0.668618	-0.000012	0.176305
C22	C	0.311615	-0.000022	0.166801
N23	N	0.990091	-0.229917	0.171598
C24	C	0.990129	-0.589118	0.171533
C25	C	0.922015	-0.551510	0.274833
C26	C	0.921758	-0.448684	0.274587
C27	C	0.990110	-0.410914	0.171566
C28	C	0.970495	-0.448221	0.040432
C29	C	0.970016	-0.551079	0.041019
C30	C	1.078053	-0.551205	0.198196
C31	C	1.077474	-0.448341	0.201193
C32	C	0.990101	-0.310201	0.171577
C33	C	0.990136	-0.689832	0.171514
C34	C	1.143149	-0.000021	0.162339
C35	C	1.236116	-0.000028	0.164787
C36	C	0.994895	-0.000019	-0.058046
C37	C	0.992433	-0.000025	-0.197457
N38	N	0.990147	0.229884	0.171501
C39	C	0.991270	-0.080461	-0.262935
C40	C	0.988949	-0.080457	-0.393924
C41	C	0.988960	0.080427	-0.393946
C42	C	0.991274	0.080422	-0.262958
C43	C	0.992429	-0.160907	-0.197433
C44	C	0.991266	-0.241350	-0.262912
C45	C	0.988946	-0.241346	-0.393901
C46	C	0.987788	-0.160899	-0.459412
C47	C	0.985337	-0.000016	0.401156
C48	C	0.987799	-0.000016	0.540566
H49	H	0.575691	0.087377	0.003092
F50	F	0.427814	0.089353	-0.030886
H51	H	0.564757	0.146957	0.152490
F52	F	0.837226	-0.585297	0.252850
H53	H	1.017712	-0.575956	-0.038174
H54	H	0.988018	0.145923	-0.447296
H55	H	0.992204	0.145920	-0.209641
F56	F	0.985310	-0.160899	-0.598822
F57	F	0.836485	-0.416521	0.252292
F58	F	1.033580	-0.416242	-0.062468
F59	F	0.552413	-0.078967	0.382408
F60	F	1.146884	-0.414735	0.109270
H61	H	0.987990	-0.306846	-0.447208
H62	H	0.992200	-0.306847	-0.209562
H63	H	0.402755	-0.060781	0.362178
H64	H	0.401744	0.059739	0.361853
F65	F	0.887608	-0.414554	0.009051
H66	H	0.421080	0.147303	0.150684
H67	H	0.933520	-0.423462	0.372053
F68	F	0.411031	-0.166977	0.156604
H69	H	0.545866	0.060492	0.365973
F70	F	0.586569	-0.091261	-0.026201
F71	F	0.568918	-0.166089	0.171071
F72	F	1.144315	-0.582996	0.099742
H73	H	1.096772	-0.577162	0.291781
F74	F	1.096914	-0.416477	0.327286
H75	H	0.433131	-0.084068	-0.002755
H76	H	0.905876	-0.575071	0.017570
F77	F	0.994902	-0.160918	-0.058024
F78	F	0.937148	-0.583865	0.402646
