data_functionalizedCrystal
_audit_creation_method	'MofGen! by Chris Wilmer'
_symmetry_space_group_name_H-M	'P1'
_symmetry_Int_Tables_number	1
_symmetry_cell_setting	triclinic
loop_
_symmetry_equiv_pos_as_xyz
  x,y,z
_cell_length_a	19.188930
_cell_length_b	17.666332
_cell_length_c	19.188930
_cell_angle_alpha	89.988397
_cell_angle_beta	96.855221
_cell_angle_gamma	90.023234
loop_
_atom_site_label
_atom_site_type_symbol
_atom_site_fract_x
_atom_site_fract_y
_atom_site_fract_z
O1	O	0.926150	0.063200	-0.087169
O2	O	1.259483	0.396533	0.246165
O3	O	1.592816	0.729867	0.579498
O4	O	0.722838	0.063149	-0.098903
O5	O	1.056172	0.396483	0.234430
O6	O	1.389505	0.729816	0.567764
O7	O	0.830361	0.063161	0.008620
O8	O	1.163694	0.396495	0.341953
O9	O	1.497028	0.729828	0.675286
O10	O	0.818627	0.063188	-0.194692
O11	O	1.151960	0.396521	0.138642
O12	O	1.485294	0.729855	0.471975
O13	O	0.830342	-0.062735	0.008625
O14	O	1.163676	0.270598	0.341959
O15	O	1.497009	0.603931	0.675292
O16	O	0.722820	-0.062747	-0.098897
O17	O	1.056153	0.270586	0.234436
O18	O	1.389486	0.603919	0.567769
O19	O	0.926131	-0.062697	-0.087163
O20	O	1.259464	0.270637	0.246170
O21	O	1.592797	0.603970	0.579504
Cu22	Cu	0.824473	-0.074217	-0.093030
Cu23	Cu	1.157807	0.259116	0.240304
Cu24	Cu	1.491140	0.592449	0.573637
Cu25	Cu	0.824496	0.074670	-0.093036
Cu26	Cu	1.157829	0.408003	0.240297
Cu27	Cu	1.491162	0.741337	0.573630
O28	O	0.818608	-0.062709	-0.194686
O29	O	1.151941	0.270625	0.138647
O30	O	1.485275	0.603958	0.471981
C31	C	0.696818	0.000194	-0.098520
C32	C	1.030151	0.333528	0.234813
C33	C	1.363485	0.666861	0.568146
C34	C	0.619313	0.000174	-0.097380
C35	C	0.952647	0.333508	0.235954
C36	C	1.285980	0.666841	0.569287
N37	N	0.824463	-0.178937	-0.093025
N38	N	1.157796	0.154397	0.240309
N39	N	1.491130	0.487730	0.573642
C40	C	0.574389	0.000194	-0.160470
C41	C	0.907723	0.333528	0.172863
C42	C	1.241056	0.666861	0.506196
C43	C	0.501566	0.000203	-0.159399
C44	C	0.834899	0.333536	0.173935
C45	C	1.168232	0.666869	0.507268
C46	C	0.473669	0.000206	-0.095233
C47	C	0.807002	0.333539	0.238101
C48	C	1.140336	0.666872	0.571434
C49	C	0.518603	0.000181	-0.032133
C50	C	0.851936	0.333515	0.301200
C51	C	1.185270	0.666848	0.634533
C52	C	0.591425	0.000166	-0.033207
C53	C	0.924758	0.333499	0.300126
C54	C	1.258092	0.666832	0.633460
N55	N	0.365695	0.043078	-0.046188
N56	N	0.699029	0.376411	0.287146
N57	N	1.032362	0.709745	0.620479
N58	N	0.296517	0.043095	-0.045172
N59	N	0.629850	0.376428	0.288161
N60	N	0.963183	0.709761	0.621495
C61	C	0.254260	0.000252	-0.091994
C62	C	0.587594	0.333585	0.241339
C63	C	0.920927	0.666918	0.574672
N64	N	0.283795	-0.042599	-0.139881
N65	N	0.617128	0.290734	0.193452
N66	N	0.950461	0.624068	0.526785
N67	N	0.352979	-0.042612	-0.140899
N68	N	0.686313	0.290721	0.192435
N69	N	1.019646	0.624054	0.525768
C70	C	0.394707	0.000222	-0.094062
C71	C	0.728040	0.333556	0.239272
C72	C	1.061373	0.666889	0.572605
C73	C	0.130372	0.000280	-0.153928
C74	C	0.463705	0.333613	0.179406
C75	C	0.797039	0.666946	0.512739
C76	C	0.057547	0.000283	-0.152853
C77	C	0.390881	0.333616	0.180480
C78	C	0.724214	0.666950	0.513813
C79	C	0.074586	0.000270	-0.025586
C80	C	0.407919	0.333603	0.307747
C81	C	0.741253	0.666936	0.641080
C82	C	0.147409	0.000258	-0.026662
C83	C	0.480743	0.333592	0.306671
C84	C	0.814076	0.666925	0.640004
C85	C	0.175298	0.000267	-0.090835
C86	C	0.508631	0.333600	0.242498
C87	C	0.841964	0.666934	0.575832
C88	C	0.872089	-0.218541	-0.045437
C89	C	1.205423	0.114792	0.287897
C90	C	1.538756	0.448125	0.621230
C91	C	0.872093	-0.297789	-0.045433
C92	C	1.205427	0.035545	0.287900
C93	C	1.538760	0.368878	0.621233
C94	C	0.824478	-0.337429	-0.093030
C95	C	1.157811	-0.004096	0.240303
C96	C	1.491144	0.329238	0.573637
C97	C	0.776842	-0.297815	-0.140621
C98	C	1.110176	0.035518	0.192712
C99	C	1.443509	0.368852	0.526045
C100	C	0.776835	-0.218569	-0.140619
C101	C	1.110168	0.114764	0.192715
C102	C	1.443502	0.448098	0.526048
N103	N	0.815401	-0.461841	-0.154837
N104	N	1.148735	-0.128508	0.178496
N105	N	1.482068	0.204826	0.511829
N106	N	0.815413	-0.537121	-0.154837
N107	N	1.148746	-0.203788	0.178496
N108	N	1.482079	0.129545	0.511829
C109	C	0.824496	-0.576193	-0.093040
C110	C	1.157829	-0.242860	0.240294
C111	C	1.491163	0.090474	0.573627
N112	N	0.833582	-0.537140	-0.031239
N113	N	1.166915	-0.203807	0.302094
N114	N	1.500248	0.129526	0.635427
N115	N	0.833574	-0.461853	-0.031240
N116	N	1.166907	-0.128520	0.302094
N117	N	1.500241	0.204814	0.635427
C118	C	0.824480	-0.423358	-0.093038
C119	C	1.157813	-0.090025	0.240296
C120	C	1.491147	0.243309	0.573629
C121	C	0.872130	-0.701727	-0.045444
C122	C	1.205463	-0.368393	0.287889
C123	C	1.538796	-0.035060	0.621223
C124	C	0.872129	-0.780976	-0.045440
C125	C	1.205462	-0.447642	0.287894
C126	C	1.538795	-0.114309	0.621227
C127	C	0.776881	-0.781000	-0.140634
C128	C	1.110214	-0.447667	0.192699
C129	C	1.443548	-0.114334	0.526033
C130	C	0.776878	-0.701753	-0.140632
C131	C	1.110212	-0.368420	0.192701
C132	C	1.443545	-0.035086	0.526034
C133	C	0.824506	-0.662121	-0.093038
C134	C	1.157840	-0.328787	0.240295
C135	C	1.491173	0.004546	0.573629
C136	C	0.952151	0.000260	-0.087546
C137	C	1.285485	0.333593	0.245787
C138	C	1.618818	0.666927	0.579121
C139	C	1.029656	0.000285	-0.088687
C140	C	1.362989	0.333618	0.244647
C141	C	1.696322	0.666952	0.577980
C142	C	0.829972	0.000211	0.034634
C143	C	1.163305	0.333544	0.367967
C144	C	1.496638	0.666877	0.701300
C145	C	0.828831	0.000204	0.112138
C146	C	1.162164	0.333537	0.445471
C147	C	1.495498	0.666871	0.778805
N148	N	0.824512	0.179390	-0.093036
N149	N	1.157845	0.512723	0.240297
N150	N	1.491178	0.846056	0.573631
C151	C	0.818997	0.000244	-0.220700
C152	C	1.152331	0.333577	0.112634
C153	C	1.485664	0.666910	0.445967
C154	C	0.820138	0.000255	-0.298204
C155	C	1.153471	0.333589	0.035129
C156	C	1.486805	0.666922	0.368462
C157	C	0.891922	0.000216	0.157062
C158	C	1.225255	0.333549	0.490395
C159	C	1.558589	0.666883	0.823729
C160	C	0.890850	0.000228	0.229886
C161	C	1.224184	0.333561	0.563219
C162	C	1.557517	0.666895	0.896552
C163	C	0.826684	0.000212	0.257782
C164	C	1.160017	0.333546	0.591116
C165	C	1.493351	0.666879	0.924449
C166	C	0.763585	0.000205	0.212849
C167	C	1.096918	0.333538	0.546182
C168	C	1.430252	0.666871	0.879515
C169	C	0.764658	0.000200	0.140026
C170	C	1.097992	0.333534	0.473360
C171	C	1.431325	0.666867	0.806693
N172	N	0.777630	-0.042645	0.365789
N173	N	1.110964	0.290689	0.699123
N174	N	1.444297	0.624022	1.032456
N175	N	0.776615	-0.042642	0.434968
N176	N	1.109948	0.290691	0.768301
N177	N	1.443282	0.624024	1.101635
C178	C	0.823446	0.000227	0.477191
C179	C	1.156779	0.333560	0.810524
C180	C	1.490113	0.666894	1.143858
N181	N	0.871341	0.043084	0.447624
N182	N	1.204675	0.376418	0.780957
N183	N	1.538008	0.709751	1.114290
N184	N	0.872359	0.043079	0.378439
N185	N	1.205692	0.376412	0.711772
N186	N	1.539026	0.709745	1.045106
C187	C	0.825513	0.000218	0.336745
C188	C	1.158846	0.333551	0.670078
C189	C	1.492180	0.666884	1.003412
C190	C	0.885379	0.000253	0.601079
C191	C	1.218712	0.333586	0.934413
C192	C	1.552046	0.666920	1.267746
C193	C	0.884305	0.000270	0.673904
C194	C	1.217638	0.333603	1.007238
C195	C	1.550971	0.666936	1.340571
C196	C	0.757038	0.000239	0.656865
C197	C	1.090371	0.333572	0.990199
C198	C	1.423704	0.666905	1.323532
C199	C	0.758114	0.000230	0.584042
C200	C	1.091447	0.333563	0.917376
C201	C	1.424781	0.666896	1.250709
C202	C	0.822287	0.000233	0.556154
C203	C	1.155620	0.333567	0.889487
C204	C	1.488953	0.666900	1.222821
H205	H	0.597091	0.000203	-0.212725
H206	H	0.930424	0.333536	0.120609
H207	H	1.263758	0.666870	0.453942
F208	F	0.922818	-0.823127	0.005216
F209	F	1.256151	-0.489794	0.338549
F210	F	1.589484	-0.156461	0.671882
F211	F	0.697505	0.000188	0.092213
F212	F	1.030839	0.333521	0.425546
F213	F	1.364172	0.666854	0.758880
F214	F	0.695295	0.000193	0.242539
F215	F	1.028628	0.333526	0.575872
F216	F	1.361962	0.666860	0.909206
F217	F	0.922787	-0.339946	0.005219
F218	F	1.256120	-0.006612	0.338552
F219	F	1.589453	0.326721	0.671886
H220	H	0.738072	-0.330094	-0.179374
H221	H	1.071405	0.003239	0.153959
H222	H	1.404738	0.336573	0.487293
H223	H	0.738109	-0.813275	-0.179385
H224	H	1.071442	-0.479942	0.153948
H225	H	1.404775	-0.146608	0.487281
H226	H	0.910869	-0.186275	-0.006681
H227	H	1.244202	0.147058	0.326652
H228	H	1.577536	0.480392	0.659985
F229	F	0.726143	-0.176417	-0.191271
F230	F	1.059476	0.156916	0.142063
F231	F	1.392809	0.490249	0.475396
H232	H	0.937632	0.000259	0.578372
H233	H	1.270966	0.333593	0.911705
H234	H	1.604299	0.666926	1.245038
H235	H	0.020970	0.000295	-0.204232
H236	H	0.354303	0.333628	0.129102
H237	H	0.687637	0.666962	0.462435
F238	F	0.922816	-0.659546	0.005212
F239	F	1.256150	-0.326213	0.338546
F240	F	1.589483	0.007120	0.671879
F241	F	0.726191	-0.659600	-0.191285
F242	F	1.059524	-0.326266	0.142048
F243	F	1.392858	0.007067	0.475382
F244	F	0.639238	0.000144	0.033946
F245	F	0.972572	0.333477	0.367279
F246	F	1.305905	0.666811	0.700613
F247	F	0.951459	0.000287	0.721716
F248	F	1.284792	0.333621	1.055050
F249	F	1.618125	0.666954	1.388383
F250	F	0.960220	0.000236	0.127385
F251	F	1.293554	0.333570	0.460719
F252	F	1.626887	0.666903	0.794052
F253	F	0.688747	0.000226	0.686550
F254	F	1.022080	0.333559	1.019883
F255	F	1.355413	0.666893	1.353217
F256	F	0.488912	0.000181	0.036157
F257	F	0.822246	0.333515	0.369490
F258	F	1.155579	0.666848	0.702823
F259	F	0.958003	0.000242	0.277706
F260	F	1.291336	0.333575	0.611039
F261	F	1.624669	0.666909	0.944373
H262	H	0.464982	0.000217	-0.210776
H263	H	0.798315	0.333550	0.122557
H264	H	1.131648	0.666884	0.455890
F265	F	0.160055	0.000283	-0.222225
F266	F	0.493389	0.333616	0.111109
F267	F	0.826722	0.666950	0.444442
H268	H	0.706738	0.000216	0.547464
H269	H	1.040072	0.333549	0.880797
H270	H	1.373405	0.666882	1.214131
H271	H	0.183988	0.000246	0.024713
H272	H	0.517321	0.333580	0.358046
H273	H	0.850654	0.666913	0.691380
F274	F	0.044901	0.000266	0.042705
F275	F	0.378235	0.333599	0.376038
F276	F	0.711568	0.666932	0.709371
