data_functionalizedCrystal
_audit_creation_method	'MofGen! by Chris Wilmer'
_symmetry_space_group_name_H-M	'P1'
_symmetry_Int_Tables_number	1
_symmetry_cell_setting	triclinic
loop_
_symmetry_equiv_pos_as_xyz
  x,y,z
_cell_length_a	18.050591
_cell_length_b	18.215405
_cell_length_c	18.215399
_cell_angle_alpha	90.030551
_cell_angle_beta	89.974300
_cell_angle_gamma	89.979109
loop_
_atom_site_label
_atom_site_type_symbol
_atom_site_fract_x
_atom_site_fract_y
_atom_site_fract_z
Zn1	Zn	1.135345	0.293070	-0.416218
Zn2	Zn	1.468678	0.626404	-0.082884
Zn3	Zn	1.802011	0.959737	0.250449
Zn4	Zn	1.135252	0.416141	-0.293146
Zn5	Zn	1.468586	0.749475	0.040188
Zn6	Zn	1.801919	1.082808	0.373521
Zn7	Zn	1.011154	0.293085	-0.293152
Zn8	Zn	1.344487	0.626418	0.040181
Zn9	Zn	1.677820	0.959751	0.373514
Zn10	Zn	1.011119	0.416091	-0.416158
Zn11	Zn	1.344453	0.749424	-0.082825
Zn12	Zn	1.677786	1.082758	0.250509
O13	O	1.073217	0.354597	-0.354669
O14	O	1.406551	0.687930	-0.021335
O15	O	1.739884	1.021264	0.311998
O16	O	1.239257	0.309411	-0.399914
O17	O	1.572590	0.642744	-0.066581
O18	O	1.905924	0.976078	0.266753
O19	O	1.118766	0.399845	-0.190162
O20	O	1.452099	0.733178	0.143171
O21	O	1.785433	1.066512	0.476504
O22	O	1.027681	0.190099	-0.309505
O23	O	1.361014	0.523432	0.023828
O24	O	1.694348	0.856765	0.357162
O25	O	1.239189	0.399831	-0.309494
O26	O	1.572523	0.733164	0.023840
O27	O	1.905856	1.066498	0.357173
O28	O	1.118924	0.190088	-0.399921
O29	O	1.452257	0.523421	-0.066587
O30	O	1.785590	0.856755	0.266746
O31	O	1.027591	0.309436	-0.190167
O32	O	1.360925	0.642769	0.143166
O33	O	1.694258	0.976102	0.476499
O34	O	0.907224	0.309387	-0.309447
O35	O	1.240558	0.642720	0.023886
O36	O	1.573891	0.976053	0.357219
O37	O	1.027622	0.399745	-0.519150
O38	O	1.360956	0.733078	-0.185817
O39	O	1.694289	1.066411	0.147516
O40	O	0.907199	0.399759	-0.399819
O41	O	1.240533	0.733092	-0.066486
O42	O	1.573866	1.066426	0.266848
O43	O	1.118890	0.309362	-0.519194
O44	O	1.452224	0.642695	-0.185861
O45	O	1.785557	0.976029	0.147473
O46	O	1.118733	0.519119	-0.309436
O47	O	1.452066	0.852452	0.023897
O48	O	1.785399	1.185786	0.357231
O49	O	1.027533	0.519082	-0.399813
O50	O	1.360866	0.852415	-0.066479
O51	O	1.694199	1.185749	0.266854
C52	C	0.880265	0.354569	-0.354628
C53	C	1.213599	0.687903	-0.021295
C54	C	1.546932	1.021236	0.312039
C55	C	0.797720	0.354575	-0.354628
C56	C	1.131053	0.687909	-0.021295
C57	C	1.464386	1.021242	0.312039
C58	C	1.073139	0.545803	-0.354633
C59	C	1.406472	0.879136	-0.021300
C60	C	1.739806	1.212470	0.312034
C61	C	1.073173	0.627602	-0.354643
C62	C	1.406507	0.960935	-0.021309
C63	C	1.739840	1.294269	0.312024
C64	C	1.073263	0.354546	-0.546622
C65	C	1.406596	0.687879	-0.213288
C66	C	1.739929	1.021213	0.120045
C67	C	1.073282	0.354524	-0.628420
C68	C	1.406615	0.687858	-0.295087
C69	C	1.739949	1.021191	0.038246
C70	C	0.598261	0.305374	-0.305597
C71	C	0.931594	0.638707	0.027736
C72	C	1.264928	0.972041	0.361070
C73	C	0.548844	0.372499	-0.287483
C74	C	0.882177	0.705832	0.045850
C75	C	1.215511	1.039165	0.379183
C76	C	0.646589	0.354598	-0.354661
C77	C	0.979923	0.687931	-0.021328
C78	C	1.313256	1.021264	0.312006
C79	C	0.548925	0.287496	-0.372773
C80	C	0.882258	0.620830	-0.039440
C81	C	1.215591	0.954163	0.293894
C82	C	0.500604	0.354613	-0.354692
C83	C	0.833937	0.687947	-0.021359
C84	C	1.167271	1.021280	0.311975
C85	C	0.598259	0.421758	-0.336512
C86	C	0.931592	0.755091	-0.003179
C87	C	1.264926	1.088424	0.330154
C88	C	0.598344	0.336710	-0.421833
C89	C	0.931678	0.670043	-0.088500
C90	C	1.265011	1.003377	0.244833
C91	C	0.548949	0.403881	-0.403745
C92	C	0.882283	0.737214	-0.070412
C93	C	1.215616	1.070548	0.262922
C94	C	0.730687	0.354588	-0.354642
C95	C	1.064021	0.687921	-0.021308
C96	C	1.397354	1.021254	0.312025
C97	C	0.416508	0.354631	-0.354712
C98	C	0.749841	0.687964	-0.021378
C99	C	1.083174	1.021298	0.311955
C100	C	1.266923	0.354625	-0.354710
C101	C	1.600256	0.687958	-0.021376
C102	C	1.933590	1.021292	0.311957
C103	C	1.349469	0.354637	-0.354727
C104	C	1.682802	0.687970	-0.021394
C105	C	2.016135	1.021304	0.311939
C106	C	1.073316	0.162644	-0.354720
C107	C	1.406650	0.495977	-0.021387
C108	C	1.739983	0.829311	0.311946
C109	C	1.073359	0.080845	-0.354742
C110	C	1.406692	0.414178	-0.021409
C111	C	1.740025	0.747512	0.311924
C112	C	1.120773	0.815791	-0.307670
C113	C	1.454106	1.149124	0.025663
C114	C	1.787439	1.482457	0.358997
C115	C	1.120806	0.892650	-0.307688
C116	C	1.454139	1.225983	0.025645
C117	C	1.787473	1.559316	0.358979
C118	C	1.025757	0.892651	-0.401720
C119	C	1.359090	1.225984	-0.068387
C120	C	1.692424	1.559318	0.264947
C121	C	1.025728	0.815794	-0.401705
C122	C	1.359062	1.149127	-0.068372
C123	C	1.692395	1.482460	0.264961
C124	C	1.073235	0.777365	-0.354676
C125	C	1.406568	1.110699	-0.021343
C126	C	1.739902	1.444032	0.311990
C127	C	1.073297	0.931082	-0.354709
C128	C	1.406630	1.264415	-0.021375
C129	C	1.739964	1.597748	0.311958
C130	C	1.073333	1.014415	-0.354728
C131	C	1.406666	1.347749	-0.021395
C132	C	1.739999	1.681082	0.311938
C133	C	1.073201	0.694027	-0.354657
C134	C	1.406534	1.027360	-0.021324
C135	C	1.739867	1.360693	0.312009
C136	C	1.120822	0.307418	-0.816639
C137	C	1.454156	0.640751	-0.483305
C138	C	1.787489	0.974085	-0.149972
C139	C	1.120831	0.307397	-0.893497
C140	C	1.454165	0.640730	-0.560164
C141	C	1.787498	0.974063	-0.226831
C142	C	1.025794	0.401517	-0.893440
C143	C	1.359128	0.734850	-0.560107
C144	C	1.692461	1.068184	-0.226774
C145	C	1.025782	0.401534	-0.816583
C146	C	1.359115	0.734868	-0.483250
C147	C	1.692449	1.068201	-0.149916
C148	C	1.073300	0.354486	-0.778184
C149	C	1.406634	0.687819	-0.444851
C150	C	1.739967	1.021153	-0.111517
C151	C	1.073321	0.354447	-0.931900
C152	C	1.406655	0.687781	-0.598567
C153	C	1.739988	1.021114	-0.265234
C154	C	1.073331	0.354424	-1.015234
C155	C	1.406664	0.687758	-0.681901
C156	C	1.739997	1.021091	-0.348567
C157	C	1.073290	0.354508	-0.694845
C158	C	1.406624	0.687841	-0.361512
C159	C	1.739957	1.021174	-0.028178
C160	C	1.073215	0.354594	-0.163462
C161	C	1.406548	0.687928	0.169871
C162	C	1.739882	1.021261	0.503204
C163	C	1.073340	0.354409	-0.081664
C164	C	1.406673	0.687742	0.251669
C165	C	1.740006	1.021075	0.585003
H166	H	0.527102	0.387640	-0.230690
H167	H	0.860436	0.720973	0.102643
H168	H	1.193769	1.054307	0.435977
C169	C	1.015404	0.500542	-0.730108
C170	C	1.348737	0.833876	-0.396775
C171	C	1.682070	1.167209	-0.063441
C172	C	0.973544	0.453275	-0.774305
C173	C	1.306877	0.786608	-0.440972
C174	C	1.640210	1.119942	-0.107639
H175	H	0.983153	0.532478	-0.704004
H176	H	1.316486	0.865811	-0.370671
H177	H	1.649819	1.199144	-0.037338
H178	H	1.047742	0.528690	-0.760091
H179	H	1.381076	0.862024	-0.426758
H180	H	1.714409	1.195357	-0.093425
H181	H	1.043696	0.472513	-0.696245
H182	H	1.377029	0.805846	-0.362912
H183	H	1.710363	1.139179	-0.029578
H184	H	0.945255	0.481304	-0.808172
H185	H	1.278589	0.814638	-0.474839
H186	H	1.611922	1.147971	-0.141506
H187	H	0.941192	0.425124	-0.744319
H188	H	1.274525	0.758457	-0.410986
H189	H	1.607859	1.091791	-0.077653
C190	C	0.545725	0.191661	-0.463273
C191	C	0.879058	0.524995	-0.129940
C192	C	1.212392	0.858328	0.203393
C193	C	0.519666	0.210885	-0.393444
C194	C	0.852999	0.544219	-0.060111
C195	C	1.186332	0.877552	0.273223
H196	H	0.527658	0.144366	-0.476030
H197	H	0.860991	0.477700	-0.142697
H198	H	1.194325	0.811033	0.190636
H199	H	0.598340	0.190993	-0.462966
H200	H	0.931673	0.524326	-0.129632
H201	H	1.265007	0.857659	0.203701
H202	H	0.528839	0.226584	-0.498184
H203	H	0.862172	0.559917	-0.164850
H204	H	1.195505	0.893250	0.168483
H205	H	0.536557	0.175966	-0.358533
H206	H	0.869890	0.509299	-0.025199
H207	H	1.203224	0.842632	0.308134
H208	H	0.467040	0.211548	-0.393746
H209	H	0.800373	0.544882	-0.060413
H210	H	1.133707	0.878215	0.272920
C211	C	0.602505	0.268162	-0.179236
C212	C	0.935838	0.601495	0.154097
C213	C	1.269171	0.934829	0.487431
C214	C	0.627498	0.249240	-0.249528
C215	C	0.960831	0.582573	0.083805
C216	C	1.294165	0.915906	0.417138
H217	H	0.620559	0.233511	-0.144622
H218	H	0.953892	0.566844	0.188711
H219	H	1.287225	0.900178	0.522044
H220	H	0.549889	0.268091	-0.178556
H221	H	0.883222	0.601424	0.154777
H222	H	1.216556	0.934758	0.488110
H223	H	0.620128	0.315714	-0.166854
H224	H	0.953461	0.649048	0.166479
H225	H	1.286795	0.982381	0.499812
H226	H	0.609870	0.201689	-0.261912
H227	H	0.943203	0.535023	0.071421
H228	H	1.276536	0.868356	0.404754
H229	H	0.680125	0.249303	-0.250210
H230	H	1.013458	0.582637	0.083123
H231	H	1.346791	0.915970	0.416457
C232	C	1.214731	0.823512	-0.214730
C233	C	1.548064	1.156846	0.118603
C234	C	1.881398	1.490179	0.451937
C235	C	1.172997	0.773550	-0.255982
C236	C	1.506330	1.106883	0.077351
C237	C	1.839663	1.440217	0.410685
H238	H	1.246976	0.797434	-0.182824
H239	H	1.580310	1.130768	0.150510
H240	H	1.913643	1.464101	0.483843
H241	H	1.182404	0.853532	-0.186553
H242	H	1.515737	1.186865	0.146781
H243	H	1.849070	1.520199	0.480114
H244	H	1.243127	0.853446	-0.246840
H245	H	1.576460	1.186780	0.086494
H246	H	1.909794	1.520113	0.419827
H247	H	1.144597	0.743619	-0.223873
H248	H	1.477930	1.076953	0.109461
H249	H	1.811263	1.410286	0.442794
H250	H	1.205328	0.743518	-0.284162
H251	H	1.538662	1.076851	0.049172
H252	H	1.871995	1.410184	0.382505
C253	C	1.220794	0.978948	-0.297646
C254	C	1.554127	1.312281	0.035687
C255	C	1.887461	1.645615	0.369020
C256	C	1.173110	0.934859	-0.256043
C257	C	1.506444	1.268192	0.077290
C258	C	1.839777	1.601525	0.410624
H259	H	1.253103	1.004993	-0.265769
H260	H	1.586437	1.338327	0.067565
H261	H	1.919770	1.671660	0.400898
H262	H	1.192508	1.012855	-0.325621
H263	H	1.525841	1.346188	0.007712
H264	H	1.859175	1.679521	0.341045
H265	H	1.249118	0.948892	-0.329755
H266	H	1.582451	1.282226	0.003578
H267	H	1.915785	1.615559	0.336911
H268	H	1.144782	0.964915	-0.223938
H269	H	1.478115	1.298248	0.109396
H270	H	1.811449	1.631582	0.442729
H271	H	1.201399	0.900948	-0.228056
H272	H	1.534733	1.234281	0.105278
H273	H	1.868066	1.567615	0.438611
H274	H	0.987108	0.439824	-0.924714
H275	H	1.320441	0.773157	-0.591381
H276	H	1.653775	1.106490	-0.258048
C277	C	0.704955	0.497683	-0.315896
C278	C	1.038288	0.831016	0.017437
C279	C	1.371622	1.164350	0.350771
C280	C	0.627385	0.498395	-0.315755
C281	C	0.960718	0.831728	0.017578
C282	C	1.294052	1.165062	0.350911
H283	H	0.722935	0.544994	-0.303076
H284	H	1.056268	0.878327	0.030257
H285	H	1.389602	1.211660	0.363591
H286	H	0.722310	0.484896	-0.363449
H287	H	1.055643	0.818229	-0.030115
H288	H	1.388977	1.151563	0.303218
H289	H	0.722226	0.462684	-0.281249
H290	H	1.055559	0.796017	0.052085
H291	H	1.388892	1.129350	0.385418
H292	H	0.610114	0.533391	-0.350407
H293	H	0.943448	0.866724	-0.017073
H294	H	1.276781	1.200058	0.316260
H295	H	0.610023	0.511191	-0.268196
H296	H	0.943356	0.844525	0.065138
H297	H	1.276690	1.177858	0.398471
C298	C	0.983590	1.010469	-0.443488
C299	C	1.316924	1.343802	-0.110155
C300	C	1.650257	1.677136	0.223178
C301	C	0.973532	0.934894	-0.453405
C302	C	1.306865	1.268227	-0.120071
C303	C	1.640198	1.601560	0.213262
H304	H	0.951342	1.036545	-0.475393
H305	H	1.284676	1.369879	-0.142060
H306	H	1.618009	1.703212	0.191274
H307	H	1.033480	1.023018	-0.454318
H308	H	1.366813	1.356352	-0.120984
H309	H	1.700146	1.689685	0.212349
H310	H	0.972758	1.023099	-0.394029
H311	H	1.306091	1.356432	-0.060696
H312	H	1.639425	1.689765	0.272638
H313	H	0.984369	0.922263	-0.502863
H314	H	1.317703	1.255597	-0.169529
H315	H	1.651036	1.588930	0.163804
H316	H	0.923631	0.922339	-0.442580
H317	H	1.256964	1.255673	-0.109247
H318	H	1.590298	1.589006	0.224086
H319	H	0.527434	0.445563	-0.445250
H320	H	0.860767	0.778896	-0.111917
H321	H	1.194101	1.112229	0.221416
H322	H	0.987017	0.784506	-0.439987
H323	H	1.320350	1.117839	-0.106653
H324	H	1.653684	1.451172	0.226680
H325	H	1.159513	0.269106	-0.785376
H326	H	1.492846	0.602440	-0.452043
H327	H	1.826179	0.935773	-0.118710
C328	C	0.705293	0.317115	-0.497782
C329	C	1.038626	0.650449	-0.164448
C330	C	1.371960	0.983782	0.168885
C331	C	0.627729	0.316243	-0.498477
C332	C	0.961062	0.649576	-0.165143
C333	C	1.294396	0.982910	0.168190
H334	H	0.723434	0.304477	-0.545099
H335	H	1.056767	0.637810	-0.211766
H336	H	1.390101	0.971144	0.121567
H337	H	0.722903	0.282632	-0.462796
H338	H	1.056236	0.615966	-0.129463
H339	H	1.389569	0.949299	0.203871
H340	H	0.722145	0.364834	-0.484990
H341	H	1.055478	0.698167	-0.151656
H342	H	1.388811	1.031501	0.181677
H343	H	0.610877	0.268523	-0.511264
H344	H	0.944211	0.601856	-0.177930
H345	H	1.277544	0.935189	0.155403
H346	H	0.610112	0.350727	-0.533474
H347	H	0.943446	0.684061	-0.200140
H348	H	1.276779	1.017394	0.133193
H349	H	1.159527	0.269068	-0.924803
H350	H	1.492860	0.602402	-0.591470
H351	H	1.826194	0.935735	-0.258137
