data_functionalizedCrystal
_audit_creation_method	'MofGen! by Chris Wilmer'
_symmetry_space_group_name_H-M	'P1'
_symmetry_Int_Tables_number	1
_symmetry_cell_setting	triclinic
loop_
_symmetry_equiv_pos_as_xyz
  x,y,z
_cell_length_a	6.817900
_cell_length_b	14.858565
_cell_length_c	14.858572
_cell_angle_alpha	94.729590
_cell_angle_beta	104.524003
_cell_angle_gamma	104.523916
loop_
_atom_site_label
_atom_site_type_symbol
_atom_site_fract_x
_atom_site_fract_y
_atom_site_fract_z
V1	V	-4.043562	-0.129256	-0.290221
V2	V	-3.710228	0.204078	0.043113
V3	V	-3.376895	0.537411	0.376446
O4	O	-4.025385	0.005609	-0.284429
O5	O	-3.692052	0.338942	0.048904
O6	O	-3.358718	0.672276	0.382237
O7	O	-4.000128	-0.255713	-0.288492
O8	O	-3.666795	0.077620	0.044841
O9	O	-3.333462	0.410953	0.378174
O10	O	-4.000132	-0.127532	-0.416679
O11	O	-3.666798	0.205802	-0.083346
O12	O	-3.333465	0.539135	0.249988
O13	O	-4.025382	-0.123460	-0.155355
O14	O	-3.692048	0.209874	0.177978
O15	O	-3.358715	0.543207	0.511311
V16	V	-4.525902	-0.113093	-0.274059
V17	V	-4.192569	0.220240	0.059275
V18	V	-3.859235	0.553574	0.392608
O19	O	-4.307414	-0.164710	-0.325674
O20	O	-3.974081	0.168624	0.007660
O21	O	-3.640748	0.501957	0.340993
O22	O	-4.712247	-0.077639	-0.238606
O23	O	-4.378913	0.255694	0.094728
O24	O	-4.045580	0.589028	0.428061
O25	O	-4.346128	0.013364	-0.275787
O26	O	-4.012795	0.346698	0.057547
O27	O	-3.679462	0.680031	0.390880
O28	O	-4.661475	-0.247958	-0.279850
O29	O	-4.328142	0.085375	0.053483
O30	O	-3.994809	0.418709	0.386817
O31	O	-4.661479	-0.118889	-0.408924
O32	O	-4.328145	0.214444	-0.075590
O33	O	-3.994812	0.547778	0.257743
O34	O	-4.346125	-0.114817	-0.147600
O35	O	-4.012792	0.218516	0.185733
O36	O	-3.679459	0.551850	0.519066
C37	C	-3.846177	-0.286533	-0.283980
C38	C	-3.512843	0.046801	0.049353
C39	C	-3.179510	0.380134	0.382686
C40	C	-3.891985	-0.389915	-0.283410
C41	C	-3.558652	-0.056582	0.049923
C42	C	-3.225318	0.276752	0.383257
C43	C	-4.059649	-0.768482	-0.281335
C44	C	-3.726316	-0.435148	0.051998
C45	C	-3.392982	-0.101815	0.385331
C46	C	-4.012991	-0.663153	-0.281912
C47	C	-3.679658	-0.329819	0.051421
C48	C	-3.346324	0.003514	0.384754
C49	C	-3.975818	-0.579202	-0.282372
C50	C	-3.642484	-0.245868	0.050961
C51	C	-3.309151	0.087465	0.384295
C52	C	-3.929158	-0.473866	-0.282950
C53	C	-3.595825	-0.140533	0.050383
C54	C	-3.262492	0.192801	0.383716
C55	C	-3.846180	-0.123023	-0.447494
C56	C	-3.512846	0.210310	-0.114160
C57	C	-3.179513	0.543643	0.219173
C58	C	-3.891987	-0.122450	-0.550876
C59	C	-3.558654	0.210883	-0.217542
C60	C	-3.225321	0.544216	0.115791
C61	C	-4.059645	-0.120357	-0.929439
C62	C	-3.726311	0.212976	-0.596106
C63	C	-3.392978	0.546309	-0.262773
C64	C	-4.012989	-0.120940	-0.824111
C65	C	-3.679655	0.212394	-0.490778
C66	C	-3.346322	0.545727	-0.157445
C67	C	-3.975817	-0.121405	-0.740161
C68	C	-3.642484	0.211929	-0.406828
C69	C	-3.309151	0.545262	-0.073494
C70	C	-3.929159	-0.121985	-0.634826
C71	C	-3.595825	0.211348	-0.301492
C72	C	-3.262492	0.544681	0.031841
C73	C	-4.163422	0.044179	-0.280296
C74	C	-3.830089	0.377512	0.053037
C75	C	-3.496756	0.710845	0.386370
C76	C	-4.096853	0.147560	-0.280873
C77	C	-3.763519	0.480893	0.052461
C78	C	-3.430186	0.814227	0.385794
C79	C	-4.163419	-0.119329	-0.116781
C80	C	-3.830086	0.214005	0.216553
C81	C	-3.496753	0.547338	0.549886
C82	C	-4.096850	-0.119897	-0.013398
C83	C	-3.763517	0.213437	0.319935
C84	C	-3.430183	0.546770	0.653269
