data_functionalizedCrystal
_audit_creation_method	'MofGen! by Chris Wilmer'
_symmetry_space_group_name_H-M	'P1'
_symmetry_Int_Tables_number	1
_symmetry_cell_setting	triclinic
loop_
_symmetry_equiv_pos_as_xyz
  x,y,z
_cell_length_a	10.654549
_cell_length_b	19.188924
_cell_length_c	9.130307
_cell_angle_alpha	89.994651
_cell_angle_beta	89.997449
_cell_angle_gamma	83.814441
loop_
_atom_site_label
_atom_site_type_symbol
_atom_site_fract_x
_atom_site_fract_y
_atom_site_fract_z
O1	O	1.665754	0.098077	-0.121843
O2	O	1.300078	0.107416	-0.121838
O3	O	1.493473	0.001160	-0.121823
O4	O	1.472359	0.204334	-0.121858
O5	O	1.493467	0.001159	0.121776
O6	O	1.300071	0.107415	0.121761
O7	O	1.665747	0.098076	0.121756
Cu8	Cu	1.482909	0.102746	0.144001
Cu9	Cu	1.482916	0.102747	-0.144083
O10	O	1.472352	0.204333	0.121741
C11	C	1.253291	0.106729	-0.000038
C12	C	1.113892	0.104676	-0.000036
C13	C	0.821295	0.227879	-0.000098
C14	C	0.871464	0.292375	-0.000103
C15	C	1.002441	0.294307	-0.000084
C16	C	1.083254	0.231736	-0.000064
C17	C	1.033084	0.167240	-0.000060
C18	C	0.902102	0.165315	-0.000074
C19	C	1.063722	0.040180	-0.000031
C20	C	0.932746	0.038246	-0.000039
C21	C	1.144535	-0.022391	-0.000012
C22	C	1.094366	-0.086889	0.000004
C23	C	0.963380	-0.088818	-0.000014
C24	C	0.882576	-0.026250	-0.000035
C25	C	1.492787	-0.024856	-0.000022
C26	C	1.490739	-0.102374	-0.000019
C27	C	1.489787	-0.138779	-0.132805
C28	C	1.487844	-0.211614	-0.132816
C29	C	1.486880	-0.248044	-0.000033
C30	C	1.487825	-0.211630	0.132770
C31	C	1.489755	-0.138795	0.132778
N32	N	1.555310	-0.367259	0.098793
N33	N	1.553480	-0.436450	0.098777
C34	C	1.481063	-0.467491	-0.000047
N35	N	1.410562	-0.426730	-0.098877
N36	N	1.412398	-0.357534	-0.098865
C37	C	1.484787	-0.327021	-0.000026
C38	C	1.478003	-0.582872	-0.132855
C39	C	1.476052	-0.655708	-0.132860
C40	C	1.476046	-0.655724	0.132730
C41	C	1.477984	-0.582888	0.132732
C42	C	1.478968	-0.546467	-0.000065
C43	C	1.712534	0.098763	-0.000047
C44	C	1.851933	0.100817	-0.000059
C45	C	1.473038	0.230349	-0.000063
C46	C	1.475086	0.307867	-0.000076
N47	N	1.482913	0.102744	0.346624
N48	N	1.482922	0.102743	-0.346706
C49	C	1.654233	0.008682	0.346627
C50	C	1.739902	-0.038347	0.423296
C51	C	1.739914	-0.038348	0.576629
C52	C	1.654247	0.008685	0.653298
C53	C	1.568578	0.055714	0.576629
C54	C	1.568577	0.055711	0.423292
C55	C	1.397254	0.149772	0.576626
C56	C	1.397245	0.149777	0.423292
C57	C	1.311586	0.196804	0.653294
C58	C	1.225921	0.243838	0.576626
C59	C	1.225913	0.243837	0.423283
C60	C	1.311577	0.196806	0.346624
H61	H	0.775926	-0.027815	-0.000036
H62	H	1.475271	-0.685347	-0.240995
O63	O	1.133546	0.294570	0.659313
H64	H	1.035701	0.285168	0.629908
O65	O	1.475015	-0.695004	0.275953
H66	H	1.473523	-0.751769	0.253642
H67	H	1.043288	0.346825	-0.000086
H68	H	1.487061	-0.241260	-0.240950
O69	O	1.832261	-0.089086	0.340585
H70	H	1.893127	-0.059390	0.270697
O71	O	1.486808	-0.250917	0.275991
H72	H	1.485327	-0.307682	0.253679
O73	O	1.832323	-0.089066	0.659327
H74	H	1.816652	-0.143581	0.629913
H75	H	1.156147	0.282131	0.360868
H76	H	0.922542	-0.141339	-0.000018
H77	H	1.160172	-0.137829	0.000010
H78	H	1.478770	-0.553248	0.240861
H79	H	1.251182	-0.020814	-0.000003
O80	O	1.490838	-0.099499	-0.276035
H81	H	1.492350	-0.042736	-0.253727
H82	H	1.654242	0.008683	0.221775
H83	H	1.311595	0.196799	0.778147
H84	H	1.311582	0.196804	0.221772
O85	O	1.490805	-0.099525	0.276002
H86	H	1.489817	-0.137090	0.368337
O87	O	1.479035	-0.543581	-0.276077
H88	H	1.564227	-0.563370	-0.339769
H89	H	0.714645	0.226312	-0.000088
H90	H	1.654252	0.008676	0.778150
H91	H	0.805653	0.343318	-0.000123
O92	O	1.224523	0.233815	-0.000048
H93	H	1.245832	0.289175	-0.000050
