data_functionalizedCrystal
_audit_creation_method	'MofGen! by Chris Wilmer'
_symmetry_space_group_name_H-M	'P1'
_symmetry_Int_Tables_number	1
_symmetry_cell_setting	triclinic
loop_
_symmetry_equiv_pos_as_xyz
  x,y,z
_cell_length_a	22.863218
_cell_length_b	22.862586
_cell_length_c	22.858745
_cell_angle_alpha	60.006856
_cell_angle_beta	60.013818
_cell_angle_gamma	59.991795
loop_
_atom_site_label
_atom_site_type_symbol
_atom_site_fract_x
_atom_site_fract_y
_atom_site_fract_z
O1	O	0.081006	-0.854581	0.714630
O2	O	0.030492	-0.665350	0.575795
O3	O	0.150314	-0.785089	0.575706
O4	O	-0.038816	-0.734841	0.714718
O5	O	0.190066	-0.745348	0.615369
O6	O	0.070244	-0.625609	0.615458
O7	O	0.120758	-0.814840	0.754293
Zn8	Zn	0.101812	-0.713914	0.691173
Zn9	Zn	0.049438	-0.766275	0.638915
O10	O	0.000936	-0.695100	0.754381
N11	N	0.137558	-0.678184	0.726840
N12	N	0.013698	-0.802011	0.603247
C13	C	0.187224	-0.518558	0.776483
C14	C	0.187235	-0.628552	0.776467
C15	C	0.214753	-0.601061	0.803961
C16	C	0.334724	-0.580392	0.740801
C17	C	0.409718	-0.605392	0.715784
C18	C	0.409746	-0.726732	0.762051
C19	C	0.334754	-0.701730	0.787070
C20	C	0.205297	-0.481049	0.702756
C21	C	0.180267	-0.406048	0.677779
C22	C	0.119099	-0.406071	0.800259
C23	C	0.144128	-0.481071	0.825236
C24	C	0.113501	-0.610437	0.794610
C25	C	0.088492	-0.635428	0.769607
C26	C	0.210943	-0.696652	0.708337
C27	C	0.235956	-0.671660	0.733331
C28	C	0.113585	-0.610461	0.923980
C29	C	0.088635	-0.635476	0.998978
C30	C	0.211128	-0.696714	0.998930
C31	C	0.236077	-0.671700	0.923930
C32	C	0.187303	-0.628571	0.886457
C33	C	0.297246	-0.628559	0.776441
C34	C	-0.117796	-0.823430	0.581283
C35	C	-0.007671	-0.823587	0.471446
C36	C	-0.007879	-0.933535	0.581483
C37	C	-0.007861	-0.823583	0.581554
C38	C	-0.035301	-0.851035	0.553942
N39	N	0.446162	-0.678198	0.726752
O40	O	0.691234	-0.690164	0.550341
O41	O	0.691462	-0.829422	0.739388
O42	O	0.691373	-0.829102	0.619485
O43	O	0.691323	-0.690484	0.670244
O44	O	0.572233	-0.789455	0.659278
O45	O	0.572322	-0.789775	0.779181
O46	O	0.572094	-0.650517	0.590134
Zn47	Zn	0.553292	-0.713851	0.690976
Zn48	Zn	0.710264	-0.766088	0.638547
O49	O	0.572183	-0.650837	0.710037
N50	N	0.817394	-0.801741	0.602763
N51	N	0.137538	-0.369628	0.726874
O52	O	-0.038795	-0.124419	0.714761
O53	O	0.150256	-0.124417	0.575522
O54	O	0.030331	-0.124432	0.575860
O55	O	0.081131	-0.124404	0.714423
O56	O	0.070086	-0.243584	0.615573
O57	O	0.190011	-0.243569	0.615236
O58	O	0.000960	-0.243571	0.754474
Zn59	Zn	0.101797	-0.262488	0.691160
Zn60	Zn	0.049419	-0.105500	0.638836
O61	O	0.120885	-0.243556	0.754137
N62	N	0.013669	0.001640	0.603123
N63	N	0.137749	-0.678230	1.035381
O64	O	0.125655	-0.854547	1.280566
O65	O	-0.013567	-0.665426	1.280590
O66	O	-0.013245	-0.785328	1.280537
O67	O	0.125333	-0.734644	1.280618
O68	O	0.026456	-0.745599	1.161392
O69	O	0.026134	-0.625697	1.161444
O70	O	0.165355	-0.814817	1.161420
Zn71	Zn	0.102048	-0.713949	1.142516
Zn72	Zn	0.049740	-0.766294	1.299495
O73	O	0.165033	-0.694915	1.161473
N74	N	0.014038	-0.802020	1.406629
C75	C	0.045634	-0.621635	0.576499
C76	C	0.194019	-0.769918	0.576389
C77	C	0.105616	-0.858555	0.753588
C78	C	-0.042769	-0.710272	0.753698
C79	C	0.631920	-0.828776	0.783102
C80	C	0.631811	-0.828380	0.634616
C81	C	0.631633	-0.651162	0.546422
C82	C	0.631745	-0.651559	0.694907
C83	C	0.193900	-0.183846	0.576155
C84	C	0.045437	-0.184012	0.576622
C85	C	-0.042734	-0.183994	0.753792
C86	C	0.105780	-0.183977	0.753375
C87	C	-0.012889	-0.621735	1.221020
C88	C	-0.012483	-0.770211	1.220931
C89	C	0.164678	-0.858508	1.220991
C90	C	0.164280	-0.710023	1.221052
H91	H	0.073862	-0.575336	0.893474
H92	H	0.631735	-0.608016	0.705768
H93	H	0.207816	-0.699179	1.221068
O94	O	0.258565	-0.183416	0.523938
C95	C	0.376396	-0.182862	0.490440
C96	C	0.303191	-0.183333	0.549632
H97	H	0.412502	-0.182810	0.511196
H98	H	0.368607	-0.132878	0.441737
H99	H	0.402290	-0.232606	0.474577
H100	H	0.277257	-0.133622	0.565556
H101	H	0.311027	-0.233349	0.598296
H102	H	0.631832	-0.871926	0.623751
O103	O	-0.064969	-0.556909	1.221058
C104	C	-0.098259	-0.438877	1.221050
C105	C	-0.039222	-0.512265	1.221024
H106	H	-0.077459	-0.402757	1.221007
H107	H	-0.147116	-0.446352	1.270915
H108	H	-0.113895	-0.413176	1.171190
H109	H	-0.023525	-0.538007	1.270850
H110	H	0.009597	-0.504743	1.171126
H111	H	0.304191	-0.520811	0.732143
O112	O	-0.064312	-0.783225	1.220810
C113	C	-0.097056	-0.868305	1.220713
C114	C	-0.038291	-0.853656	1.220833
H115	H	-0.076045	-0.925252	1.220746
H116	H	-0.112676	-0.828667	1.170817
H117	H	-0.145975	-0.861850	1.270542
H118	H	0.010666	-0.860120	1.171038
H119	H	-0.022731	-0.893291	1.270761
O120	O	0.631576	-0.599087	0.481605
C121	C	0.631410	-0.565756	0.363624
C122	C	0.631493	-0.624799	0.436990
H123	H	0.631327	-0.586516	0.327538
H124	H	0.681252	-0.550099	0.337824
H125	H	0.581533	-0.516915	0.371218
H126	H	0.681336	-0.673678	0.429459
H127	H	0.581617	-0.640394	0.462765
H128	H	0.034558	-0.184014	0.533090
O129	O	-0.107558	-0.183949	0.805852
C130	C	-0.225567	-0.183974	0.839175
C131	C	-0.152190	-0.184016	0.780152
H132	H	-0.261667	-0.184044	0.818424
H133	H	-0.251330	-0.134088	0.854777
H134	H	-0.218004	-0.233817	0.888045
H135	H	-0.159690	-0.134207	0.731244
H136	H	-0.126451	-0.233936	0.764611
O137	O	0.216738	-0.923354	1.221012
C138	C	0.250061	-1.041352	1.220920
C139	C	0.191034	-0.967954	1.220915
H140	H	0.229306	-1.077427	1.220826
H141	H	0.265684	-1.067142	1.270802
H142	H	0.298916	-1.033804	1.171078
H143	H	0.142141	-0.975440	1.270723
H144	H	0.175472	-0.942190	1.171000
O145	O	0.032843	-0.556758	0.524495
C146	C	0.067455	-0.451465	0.446208
C147	C	0.082007	-0.524915	0.505112
H148	H	0.107205	-0.425704	0.430509
H149	H	0.010566	-0.415404	0.467104
H150	H	0.073849	-0.458934	0.397364
H151	H	0.075653	-0.517513	0.553976
H152	H	0.138890	-0.560949	0.484159
O153	O	0.118882	-0.184013	0.805245
C154	C	0.204013	-0.183981	0.837986
C155	C	0.189273	-0.183951	0.779184
H156	H	0.260918	-0.183916	0.816933
H157	H	0.197680	-0.233861	0.886879
H158	H	0.164325	-0.134132	0.853668
H159	H	0.228948	-0.233766	0.763442
H160	H	0.195581	-0.134038	0.730329
H161	H	-0.097093	-0.699562	0.797349
H162	H	0.250621	-0.731757	0.673222
O163	O	0.258872	-0.782799	0.524396
C164	C	0.376824	-0.867709	0.491265
C165	C	0.303417	-0.853211	0.550216
H166	H	0.412854	-0.924640	0.512114
H167	H	0.402648	-0.828027	0.475608
H168	H	0.369292	-0.861204	0.442407
H169	H	0.310886	-0.859726	0.599113
H170	H	0.277618	-0.892890	0.565813
H171	H	0.116407	-0.912913	0.797192
H172	H	0.304240	-0.740958	0.816091
O173	O	0.016996	-0.617777	1.035310
C174	C	-0.101865	-0.554418	1.027436
C175	C	-0.020756	-0.574393	0.986199
H176	H	-0.132411	-0.519351	0.987748
H177	H	-0.116646	-0.523846	1.062532
H178	H	-0.116583	-0.605319	1.062565
H179	H	-0.005980	-0.523528	0.951032
H180	H	-0.006019	-0.604992	0.951148
H181	H	0.296108	-0.686456	0.893383
O182	O	0.258605	-0.738615	1.035214
C183	C	0.382738	-0.796658	1.027240
C184	C	0.329047	-0.749215	0.986059
H185	H	0.439702	-0.805231	0.987516
H186	H	0.374185	-0.850641	1.062326
H187	H	0.374069	-0.769181	1.062373
H188	H	0.337684	-0.776628	0.950886
H189	H	0.337614	-0.695234	0.951018
O190	O	0.066076	-0.568542	0.836475
C191	C	-0.058023	-0.510486	0.894643
C192	C	-0.004392	-0.557922	0.847208
H193	H	-0.115008	-0.501898	0.903348
H194	H	-0.049454	-0.456510	0.867183
H195	H	-0.049304	-0.537979	0.948562
H196	H	-0.013079	-0.530493	0.793282
H197	H	-0.012974	-0.611896	0.874725
H198	H	0.631977	-0.872492	0.837399
H199	H	0.028452	-0.620662	0.784363
H200	H	0.295996	-0.686402	0.718551
H201	H	0.440287	-0.786313	0.770693
H202	H	0.240384	-0.511568	0.663058
O203	O	0.446016	-0.558502	0.681147
C204	C	0.438076	-0.435516	0.637929
C205	C	0.396878	-0.488539	0.677152
H206	H	0.398366	-0.378942	0.634699
H207	H	0.473141	-0.437754	0.581518
H208	H	0.473230	-0.450613	0.668580
H209	H	0.361686	-0.473479	0.646560
H210	H	0.361858	-0.486293	0.733566
H211	H	0.194981	-0.375507	0.617742
H212	H	0.084019	-0.375548	0.839959
H213	H	0.129402	-0.511613	0.885274
