data_functionalizedCrystal
_audit_creation_method	'MofGen! by Chris Wilmer'
_symmetry_space_group_name_H-M	'P1'
_symmetry_Int_Tables_number	1
_symmetry_cell_setting	triclinic
loop_
_symmetry_equiv_pos_as_xyz
  x,y,z
_cell_length_a	12.837943
_cell_length_b	12.837942
_cell_length_c	11.892095
_cell_angle_alpha	85.697431
_cell_angle_beta	85.689237
_cell_angle_gamma	85.171060
loop_
_atom_site_label
_atom_site_type_symbol
_atom_site_fract_x
_atom_site_fract_y
_atom_site_fract_z
O1	O	1.408367	-0.266110	-0.093987
O2	O	1.105234	-0.252666	-0.093993
O3	O	1.250078	-0.107822	-0.093983
O4	O	1.263523	-0.410955	-0.093997
O5	O	1.237999	-0.119878	0.094023
O6	O	1.093155	-0.264723	0.094014
O7	O	1.396288	-0.278166	0.094019
Zn8	Zn	1.242804	-0.273359	0.123867
Zn9	Zn	1.258718	-0.257474	-0.123840
O10	O	1.251444	-0.423011	0.094010
C11	C	1.239498	-0.074781	0.000019
C12	C	1.225953	0.041634	0.000017
C13	C	1.441397	-0.276679	0.000014
C14	C	1.557812	-0.290224	0.000009
C15	C	1.060125	-0.254153	0.000010
C16	C	0.943710	-0.240609	0.000008
N17	N	1.231950	-0.284200	0.292920
C18	C	1.782685	-0.127395	0.000028
C19	C	1.892068	-0.140117	0.000023
C20	C	1.885962	-0.328386	0.000001
C21	C	1.776579	-0.315665	0.000007
C22	C	1.724945	-0.215167	0.000018
C23	C	1.615561	-0.202446	0.000015
C24	C	1.609456	-0.390715	0.000002
C25	C	1.718839	-0.403436	-0.000003
C26	C	1.262025	-0.456052	0.000005
C27	C	1.275569	-0.572466	-0.000001
C28	C	1.388784	0.266510	-0.000003
C29	C	1.376063	0.375892	-0.000006
C30	C	1.187791	0.369785	0.000003
C31	C	1.200512	0.260402	0.000005
C32	C	1.301012	0.208768	0.000003
C33	C	1.313732	0.099383	0.000014
C34	C	1.125461	0.093278	0.000014
C35	C	1.112740	0.202661	0.000012
N36	N	1.269579	-0.246626	-0.292894
C37	C	1.345098	-0.171130	0.529575
C38	C	1.337520	-0.178716	0.647917
C39	C	1.209211	-0.306952	0.647946
C40	C	1.216789	-0.299366	0.529605
C41	C	1.284736	-0.231454	0.470424
C42	C	1.292319	-0.223874	0.352080
C43	C	1.164005	-0.352104	0.352112
C44	C	1.156427	-0.359690	0.470453
H45	H	1.573522	-0.120615	0.000020
N46	N	1.547136	-0.485368	0.000059
H47	H	1.560366	-0.533180	0.069769
H48	H	1.569297	-0.524225	-0.069665
N49	N	1.470736	0.438163	-0.000003
H50	H	1.465179	0.479215	0.069692
H51	H	1.474082	0.488089	-0.069743
H52	H	1.386671	-0.129593	0.696075
N53	N	1.497172	0.210813	0.000014
H54	H	1.511131	0.170025	-0.069674
H55	H	1.502082	0.161161	0.069761
N56	N	1.079404	0.425485	-0.000008
H57	H	1.084669	0.503539	-0.000015
H58	H	1.036042	0.400574	0.069691
H59	H	1.400431	-0.115840	0.481389
N60	N	1.004350	0.258354	0.000009
H61	H	1.009607	0.336409	0.000006
H62	H	0.960996	0.233436	0.069711
H63	H	1.740644	-0.045565	0.000026
H64	H	1.101102	-0.414980	0.518652
N65	N	1.030784	0.031001	0.000027
H66	H	1.054089	-0.046129	0.000031
H67	H	0.991926	0.053249	-0.069668
N68	N	1.365605	-0.150634	0.288244
H69	H	1.402691	-0.113569	0.343678
H70	H	1.324099	-0.097229	0.239152
H71	H	1.153882	-0.362237	0.696147
H72	H	1.939076	-0.068644	0.000031
H73	H	1.114857	-0.401227	0.303937
N74	N	1.422121	0.043688	0.000012
H75	H	1.427123	-0.006019	0.069710
H76	H	1.475728	0.096937	-0.000038
N77	N	1.941660	-0.436775	-0.000004
H78	H	1.982429	-0.450715	0.069691
H79	H	1.991330	-0.441702	-0.069743
N80	N	1.774533	-0.511826	-0.000012
H81	H	1.852588	-0.506569	-0.000013
H82	H	1.758555	-0.546231	-0.069716
