data_functionalizedCrystal
_audit_creation_method	'MofGen! by Chris Wilmer'
_symmetry_space_group_name_H-M	'P1'
_symmetry_Int_Tables_number	1
_symmetry_cell_setting	triclinic
loop_
_symmetry_equiv_pos_as_xyz
  x,y,z
_cell_length_a	23.532355
_cell_length_b	9.616153
_cell_length_c	10.540510
_cell_angle_alpha	90.004047
_cell_angle_beta	83.670404
_cell_angle_gamma	89.996410
loop_
_atom_site_label
_atom_site_type_symbol
_atom_site_fract_x
_atom_site_fract_y
_atom_site_fract_z
O1	O	0.756285	0.115449	0.153773
O2	O	0.590564	0.115493	0.176137
O3	O	0.677214	0.115469	-0.019880
O4	O	0.669635	0.115473	0.349790
O5	O	0.677211	-0.115822	-0.019893
O6	O	0.590561	-0.115799	0.176123
O7	O	0.756282	-0.115842	0.153760
Zn8	Zn	0.673421	-0.152543	0.164939
Zn9	Zn	0.673425	0.152193	0.164957
O10	O	0.669631	-0.115819	0.349776
C11	C	0.569342	-0.000148	0.175571
C12	C	0.506112	-0.000131	0.173890
N13	N	0.673422	-0.360517	0.164926
C14	C	0.719947	-0.580857	0.060422
C15	C	0.719821	-0.419689	0.060033
C16	C	0.613891	-0.419033	0.136774
C17	C	0.614168	-0.580251	0.136043
C18	C	0.685906	-0.580394	0.297962
C19	C	0.687249	-0.419167	0.297045
C20	C	0.114027	-0.126266	0.163323
C21	C	0.054618	-0.126271	0.161724
O22	O	0.023892	-0.233494	0.160848
N23	N	0.024906	-0.000195	0.160939
C24	C	0.054608	0.125895	0.161739
O25	O	0.023880	0.233133	0.160923
C26	C	0.114017	0.125899	0.163329
C27	C	0.143725	-0.000186	0.164127
C28	C	0.143736	-0.252340	0.164120
C29	C	0.203141	-0.252335	0.165721
C30	C	0.232839	-0.126254	0.166526
C31	C	0.203131	-0.000180	0.165729
C32	C	0.143718	0.251988	0.164120
C33	C	0.203132	0.251981	0.165709
C34	C	0.232840	0.125896	0.166508
C35	C	0.292234	0.125907	0.168134
N36	N	0.321946	-0.000170	0.168920
C37	C	0.292248	-0.126250	0.168115
C38	C	-0.070156	0.125877	0.158398
C39	C	-0.129564	0.125875	0.156817
C40	C	-0.129550	-0.126292	0.156800
C41	C	-0.070141	-0.126288	0.158390
C42	C	-0.040444	-0.000199	0.159184
C43	C	0.417004	-0.126228	0.171479
C44	C	0.476415	-0.126211	0.173086
C45	C	0.476396	0.125955	0.173097
C46	C	0.416990	0.125939	0.171497
C47	C	0.387296	-0.000164	0.170684
O48	O	0.322998	0.233074	0.169006
O49	O	0.322984	-0.233470	0.168915
C50	C	0.777504	-0.000199	0.154326
C51	C	0.840733	-0.000206	0.156006
C52	C	0.676648	-0.000173	-0.067171
C53	C	0.674958	-0.000164	-0.208065
N54	N	0.673429	0.360168	0.164960
C55	C	0.735153	-0.000710	-0.427521
C56	C	0.736956	-0.000182	-0.280985
C57	C	0.643223	0.131920	-0.251761
C58	C	0.641859	0.132024	-0.398477
C59	C	0.640564	-0.130998	-0.398258
C60	C	0.643505	-0.132737	-0.252015
C61	C	0.670198	-0.000173	0.397068
C62	C	0.671888	-0.000173	0.537962
H63	H	0.764056	-0.380126	0.076683
H64	H	0.663550	0.230747	-0.439407
O65	O	0.645323	-0.365823	0.404828
H66	H	0.668719	-0.306984	0.473315
O67	O	0.508451	-0.262216	0.173959
H68	H	0.540257	-0.268263	0.088173
O69	O	0.235179	-0.388326	0.166610
H70	H	0.204540	-0.475986	0.165784
O71	O	0.384980	-0.262234	0.170619
H72	H	0.415625	-0.349889	0.171456
O73	O	0.745258	-0.368507	0.325388
H74	H	0.764166	-0.301827	0.245723
H75	H	0.119540	0.354660	0.163469
O76	O	0.580437	0.139997	-0.426894
H77	H	0.570140	0.046899	-0.482266
H78	H	-0.153741	-0.228954	0.156143
O79	O	0.582764	0.138446	-0.186986
H80	H	0.561291	0.232673	-0.219500
H81	H	0.665265	0.230205	-0.221632
O82	O	0.578908	-0.132170	-0.425563
H83	H	0.550559	-0.128758	-0.334193
H84	H	0.759169	0.093467	-0.471819
O85	O	-0.161595	0.261879	0.155961
H86	H	-0.193393	0.267942	0.241760
O87	O	0.566898	-0.368267	0.234973
H88	H	0.545505	-0.458776	0.285139
O89	O	-0.038101	-0.262279	0.159244
H90	H	-0.015769	-0.268311	0.246499
H91	H	-0.045981	0.228561	0.159056
O92	O	0.508433	0.261940	0.173935
H93	H	0.554735	0.240749	0.175158
O94	O	0.640983	-0.630921	0.401003
H95	H	0.661778	-0.691506	0.472723
H96	H	0.227308	0.354660	0.166356
O97	O	0.384942	0.261924	0.170640
H98	H	0.415576	0.349596	0.171463
O99	O	0.709184	-0.368610	-0.070733
H100	H	0.709063	-0.253188	-0.071472
O101	O	0.778741	-0.632202	0.082098
H102	H	0.775438	-0.700313	0.167604
O103	O	0.674087	-0.262178	-0.215132
H104	H	0.644405	-0.326520	-0.150345
O105	O	0.709469	-0.634519	-0.069611
H106	H	0.671272	-0.703008	-0.060108
O107	O	0.769858	-0.125575	-0.243203
H108	H	0.784624	-0.187139	-0.329672
O109	O	0.767148	-0.126204	-0.484124
H110	H	0.738304	-0.189529	-0.537479
H111	H	0.660265	-0.231117	-0.441100
O112	O	0.742217	-0.634237	0.334071
H113	H	0.771241	-0.545342	0.345990
O114	O	0.599730	-0.630094	0.007578
H115	H	0.592618	-0.539049	-0.053440
O116	O	0.111708	-0.388338	0.163266
H117	H	0.142356	-0.475990	0.164099
H118	H	0.578485	-0.619264	0.209328
H119	H	0.761934	0.094652	-0.253404
H120	H	0.598242	-0.140701	-0.201444
H121	H	0.602720	-0.378667	0.040905
