data_functionalizedCrystal
_audit_creation_method	'MofGen! by Chris Wilmer'
_symmetry_space_group_name_H-M	'P1'
_symmetry_Int_Tables_number	1
_symmetry_cell_setting	triclinic
loop_
_symmetry_equiv_pos_as_xyz
  x,y,z
_cell_length_a	15.944499
_cell_length_b	15.944493
_cell_length_c	9.130313
_cell_angle_alpha	90.004626
_cell_angle_beta	89.997175
_cell_angle_gamma	83.476327
loop_
_atom_site_label
_atom_site_type_symbol
_atom_site_fract_x
_atom_site_fract_y
_atom_site_fract_z
O1	O	1.114524	0.108124	-0.121868
O2	O	1.614524	0.608124	0.378132
O3	O	0.869966	0.121526	-0.121849
O4	O	1.369966	0.621526	0.378151
O5	O	0.998948	-0.007454	-0.121871
O6	O	1.498948	0.492546	0.378129
O7	O	0.985541	0.237105	-0.121846
O8	O	1.485541	0.737105	0.378154
O9	O	0.998947	-0.007451	0.121728
O10	O	1.498947	0.492549	0.621728
O11	O	0.869964	0.121530	0.121750
O12	O	1.369964	0.621530	0.621750
O13	O	1.114522	0.108128	0.121731
O14	O	1.614522	0.608128	0.621731
Cu15	Cu	0.992243	0.114829	0.143983
Cu16	Cu	1.492243	0.614829	0.643983
Cu17	Cu	0.992245	0.114825	-0.144101
Cu18	Cu	1.492245	0.614825	0.355899
O19	O	0.985539	0.237108	0.121753
O20	O	1.485539	0.737108	0.621753
C21	C	0.838670	0.120979	-0.000048
C22	C	1.338670	0.620979	0.499952
C23	C	0.745422	0.119334	-0.000041
C24	C	1.245422	0.619334	0.499959
C25	C	0.453871	0.194269	-0.000055
C26	C	0.953871	0.694269	0.499945
C27	C	0.514909	0.155314	-0.120169
C28	C	1.014909	0.655314	0.379831
C29	C	0.409787	0.113358	-0.000076
C30	C	0.909787	0.613358	0.499924
C31	C	0.514893	0.155296	0.120000
C32	C	1.014893	0.655296	0.620000
C33	C	0.574695	0.116299	-0.000057
C34	C	1.074695	0.616299	0.499943
C35	C	0.469597	0.074381	-0.120289
C36	C	0.969597	0.574381	0.379711
C37	C	0.469575	0.074374	0.119989
C38	C	0.969575	0.574374	0.619989
C39	C	0.530595	0.035361	-0.000154
C40	C	1.030595	0.535361	0.499846
C41	C	0.314787	0.111666	-0.000088
C42	C	0.814787	0.611666	0.499912
C43	C	0.669694	0.117984	-0.000055
C44	C	1.169694	0.617984	0.499945
C45	C	0.998400	-0.038747	-0.000078
C46	C	1.498400	0.461253	0.499922
C47	C	0.996757	-0.131995	-0.000096
C48	C	1.496757	0.368005	0.499904
C49	C	1.072679	-0.367769	-0.000074
C50	C	1.572679	0.132231	0.499926
C51	C	1.031738	-0.418331	-0.120177
C52	C	1.531738	0.081669	0.379823
C53	C	0.993713	-0.302716	-0.000078
C54	C	1.493713	0.197284	0.499922
C55	C	1.031718	-0.418304	0.119992
C56	C	1.531718	0.081696	0.619992
C57	C	0.990778	-0.467625	-0.000054
C58	C	1.490778	0.032375	0.499946
C59	C	0.952793	-0.352050	-0.120280
C60	C	1.452793	0.147950	0.379720
C61	C	0.952784	-0.352019	0.119997
C62	C	1.452784	0.147981	0.619997
C63	C	0.911785	-0.402548	-0.000135
C64	C	1.411785	0.097452	0.499865
C65	C	0.995405	-0.207716	-0.000093
C66	C	1.495405	0.292284	0.499907
C67	C	0.989079	-0.562622	-0.000050
C68	C	1.489079	-0.062622	0.499950
C69	C	1.145818	0.108675	-0.000074
C70	C	1.645818	0.608675	0.499926
C71	C	1.239066	0.110320	-0.000089
C72	C	1.739066	0.610320	0.499911
C73	C	0.986088	0.268401	-0.000043
C74	C	1.486088	0.768401	0.499957
C75	C	0.987731	0.361650	-0.000034
C76	C	1.487731	0.861650	0.499966
N77	N	0.992248	0.114832	0.346606
N78	N	1.492248	0.614832	0.846606
N79	N	0.992247	0.114816	-0.346724
N80	N	1.492247	0.614816	0.153276
C81	C	1.049376	0.057738	0.423248
C82	C	1.549376	0.557738	0.923248
C83	C	1.049374	0.057728	0.576585
C84	C	1.549374	0.557728	1.076585
C85	C	0.935113	0.171912	0.576624
C86	C	1.435113	0.671912	1.076624
C87	C	0.935111	0.171917	0.423289
C88	C	1.435111	0.671917	0.923289
C89	C	1.115346	-0.008182	0.423227
C90	C	1.615346	0.491818	0.923227
C91	C	1.115344	-0.008193	0.576563
C92	C	1.615344	0.491807	1.076563
H93	H	0.449626	0.040190	-0.221950
H94	H	0.949626	0.540190	0.278050
C95	C	1.202358	0.010545	0.632788
C96	C	1.702358	0.510545	1.132788
N97	N	1.267887	0.024683	0.675136
N98	N	1.767887	0.524683	1.175136
C99	C	0.872265	0.234702	0.660990
C100	C	1.372265	0.734702	1.160990
N101	N	0.824926	0.281997	0.724534
N102	N	1.324926	0.781997	1.224534
H103	H	0.563787	-0.031847	-0.000225
H104	H	1.063787	0.468153	0.499775
H105	H	1.140699	-0.352153	-0.000200
H106	H	1.640699	0.147847	0.499800
C107	C	0.408817	0.284979	-0.000207
C108	C	0.908817	0.784979	0.499793
N109	N	0.374881	0.353300	-0.000330
N110	N	0.874881	0.853300	0.499670
H111	H	1.065087	-0.447285	-0.221722
H112	H	1.565087	0.052715	0.278278
C113	C	1.197498	0.018724	0.358967
C114	C	1.697498	0.518724	0.858967
N115	N	1.259375	0.038990	0.310566
N116	N	1.759375	0.538990	0.810566
C117	C	0.542001	0.201547	0.257184
C118	C	1.042001	0.701547	0.757184
N119	N	0.562414	0.236388	0.360506
N120	N	1.062414	0.736388	0.860506
C121	C	0.907777	-0.313113	-0.257612
C122	C	1.407777	0.186887	0.242388
N123	N	0.873875	-0.283785	-0.361052
N124	N	1.373875	0.216215	0.138948
H125	H	0.843713	-0.418002	-0.000196
H126	H	1.343713	0.081998	0.499804
C127	C	0.907766	-0.312889	0.257188
C128	C	1.407766	0.187111	0.757188
N129	N	0.873862	-0.283418	0.360533
N130	N	1.373862	0.216582	0.860533
H131	H	0.449464	0.040182	0.221531
H132	H	0.949464	0.540182	0.721531
C133	C	1.076788	-0.457386	0.257166
C134	C	1.576788	0.042614	0.757166
N135	N	1.110740	-0.486819	0.360482
N136	N	1.610740	0.013181	0.860482
H137	H	0.888586	0.218400	0.360889
H138	H	1.388586	0.718400	0.860889
H139	H	1.095475	-0.069029	0.624106
H140	H	1.595475	0.430971	1.124106
C141	C	1.096737	-0.095236	0.366985
C142	C	1.596737	0.404764	0.866985
N143	N	1.082719	-0.160803	0.324625
N144	N	1.582719	0.339197	0.824625
H145	H	0.535000	0.189538	-0.221703
H146	H	1.035000	0.689538	0.278297
