data_functionalizedCrystal
_audit_creation_method	'MofGen! by Chris Wilmer'
_symmetry_space_group_name_H-M	'P1'
_symmetry_Int_Tables_number	1
_symmetry_cell_setting	triclinic
loop_
_symmetry_equiv_pos_as_xyz
  x,y,z
_cell_length_a	19.188925
_cell_length_b	19.188930
_cell_length_c	9.198806
_cell_angle_alpha	89.991701
_cell_angle_beta	89.995113
_cell_angle_gamma	83.143665
loop_
_atom_site_label
_atom_site_type_symbol
_atom_site_fract_x
_atom_site_fract_y
_atom_site_fract_z
O1	O	0.926147	0.087148	-0.120940
O2	O	1.259480	0.420481	0.212393
O3	O	1.592813	0.753815	0.545727
O4	O	0.722835	0.098886	-0.120938
O5	O	1.056168	0.432219	0.212395
O6	O	1.389502	0.765553	0.545728
O7	O	0.830358	-0.008639	-0.120911
O8	O	1.163691	0.324695	0.212423
O9	O	1.497025	0.658028	0.545756
O10	O	0.818624	0.194673	-0.120967
O11	O	1.151957	0.528006	0.212366
O12	O	1.485290	0.861339	0.545699
O13	O	0.830350	-0.008639	0.120874
O14	O	1.163683	0.324694	0.454208
O15	O	1.497016	0.658028	0.787541
O16	O	0.722827	0.098886	0.120847
O17	O	1.056160	0.432219	0.454180
O18	O	1.389493	0.765553	0.787514
O19	O	0.926138	0.087148	0.120845
O20	O	1.259472	0.420481	0.454178
O21	O	1.592805	0.753814	0.787512
Cu22	Cu	0.824482	0.093017	0.142923
Cu23	Cu	1.157815	0.426350	0.476256
Cu24	Cu	1.491148	0.759683	0.809590
Cu25	Cu	0.824492	0.093017	-0.143016
Cu26	Cu	1.157825	0.426350	0.190317
Cu27	Cu	1.491158	0.759684	0.523651
O28	O	0.818615	0.194673	0.120818
O29	O	1.151949	0.528006	0.454151
O30	O	1.485282	0.861339	0.787484
C31	C	0.696820	0.098507	-0.000045
C32	C	1.030153	0.431840	0.333288
C33	C	1.363486	0.765173	0.666622
C34	C	0.619315	0.097367	-0.000043
C35	C	0.952648	0.430701	0.333290
C36	C	1.285982	0.764034	0.666624
C37	C	0.057545	0.152831	-0.000062
C38	C	0.390878	0.486165	0.333271
C39	C	0.724211	0.819498	0.666605
C40	C	0.130368	0.153908	-0.000070
C41	C	0.463701	0.487241	0.333263
C42	C	0.797035	0.820575	0.666597
C43	C	0.175302	0.090816	-0.000050
C44	C	0.508636	0.424149	0.333283
C45	C	0.841969	0.757482	0.666617
C46	C	0.147408	0.026642	-0.000059
C47	C	0.480742	0.359976	0.333274
C48	C	0.814075	0.693309	0.666608
C49	C	0.074586	0.025568	-0.000065
C50	C	0.407920	0.358901	0.333268
C51	C	0.741253	0.692234	0.666601
N52	N	0.295977	0.045139	0.082268
N53	N	0.629310	0.378473	0.415601
N54	N	0.962643	0.711806	0.748935
N55	N	0.365154	0.046165	0.082277
N56	N	0.698487	0.379498	0.415611
N57	N	1.031821	0.712831	0.748944
C58	C	0.394712	0.094050	-0.000034
C59	C	0.728045	0.427383	0.333300
C60	C	1.061378	0.760716	0.666633
N61	N	0.352477	0.140882	-0.082336
N62	N	0.685810	0.474215	0.250997
N63	N	1.019144	0.807548	0.584331
N64	N	0.283293	0.139858	-0.082339
N65	N	0.616627	0.473192	0.250995
N66	N	0.949960	0.806525	0.584328
C67	C	0.254267	0.091974	-0.000044
C68	C	0.587600	0.425307	0.333289
C69	C	0.920933	0.758641	0.666623
C70	C	0.501561	0.159386	-0.000044
C71	C	0.834894	0.492720	0.333290
C72	C	1.168227	0.826053	0.666623
C73	C	0.574385	0.160460	-0.000061
C74	C	0.907719	0.493794	0.333272
C75	C	1.241052	0.827127	0.666606
C76	C	0.591425	0.033193	-0.000035
C77	C	0.924758	0.366526	0.333298
C78	C	1.258091	0.699859	0.666632
C79	C	0.518601	0.032121	-0.000033
C80	C	0.851934	0.365454	0.333301
C81	C	1.185268	0.698787	0.666634
C82	C	0.473673	0.095220	-0.000030
C83	C	0.807006	0.428553	0.333303
C84	C	1.140340	0.761886	0.666637
C85	C	0.829974	-0.034650	-0.000014
C86	C	1.163307	0.298683	0.333319
C87	C	1.496640	0.632017	0.666653
C88	C	0.828833	-0.112154	-0.000002
C89	C	1.162166	0.221179	0.333332
C90	C	1.495500	0.554512	0.666665
C91	C	0.891924	-0.157079	0.000005
C92	C	1.225257	0.176254	0.333338
C93	C	1.558591	0.509587	0.666672
C94	C	0.890852	-0.229903	-0.000018
C95	C	1.224186	0.103430	0.333315
C96	C	1.557519	0.436763	0.666648
C97	C	0.826686	-0.257799	-0.000019
C98	C	1.160020	0.075535	0.333314
C99	C	1.493353	0.408868	0.666648
C100	C	0.763587	-0.212864	-0.000033
C101	C	1.096920	0.120470	0.333300
C102	C	1.430254	0.453803	0.666633
C103	C	0.764660	-0.140041	-0.000025
C104	C	1.097994	0.193292	0.333309
C105	C	1.431327	0.526625	0.666642
N106	N	0.777636	-0.365803	0.082266
N107	N	1.110969	-0.032469	0.415599
N108	N	1.444302	0.300864	0.748932
N109	N	0.776620	-0.434981	0.082260
N110	N	1.109954	-0.101648	0.415594
N111	N	1.443287	0.231685	0.748927
C112	C	0.823448	-0.477207	-0.000048
C113	C	1.156781	-0.143874	0.333285
C114	C	1.490115	0.189459	0.666618
N115	N	0.871340	-0.447643	-0.082333
N116	N	1.204673	-0.114309	0.251000
N117	N	1.538007	0.219024	0.584333
N118	N	0.872358	-0.378458	-0.082322
N119	N	1.205691	-0.045125	0.251012
N120	N	1.539024	0.288209	0.584345
C121	C	0.825515	-0.336761	-0.000029
C122	C	1.158848	-0.003428	0.333304
C123	C	1.492182	0.329906	0.666637
C124	C	0.885381	-0.601097	-0.000069
C125	C	1.218715	-0.267763	0.333264
C126	C	1.552048	0.065570	0.666597
C127	C	0.884307	-0.673922	-0.000101
C128	C	1.217640	-0.340588	0.333232
C129	C	1.550974	-0.007255	0.666565
C130	C	0.757040	-0.656880	-0.000102
C131	C	1.090373	-0.323547	0.333231
C132	C	1.423706	0.009786	0.666565
C133	C	0.758116	-0.584057	-0.000084
C134	C	1.091449	-0.250724	0.333249
C135	C	1.424782	0.082610	0.666582
C136	C	0.822289	-0.556170	-0.000061
C137	C	1.155622	-0.222837	0.333272
C138	C	1.488955	0.110497	0.666606
C139	C	0.952154	0.087527	-0.000051
C140	C	1.285487	0.420861	0.333282
C141	C	1.618820	0.754194	0.666615
C142	C	1.029658	0.088666	-0.000063
C143	C	1.362992	0.422000	0.333271
C144	C	1.696325	0.755333	0.666604
C145	C	0.819000	0.220684	-0.000082
C146	C	1.152333	0.554017	0.333251
C147	C	1.485666	0.887350	0.666584
C148	C	0.820140	0.298188	-0.000104
C149	C	1.153474	0.631522	0.333229
C150	C	1.486807	0.964855	0.666562
N151	N	0.824480	0.093016	0.344037
N152	N	1.157813	0.426350	0.677370
N153	N	1.491146	0.759683	1.010703
N154	N	0.824499	0.093012	-0.344130
N155	N	1.157833	0.426345	-0.010797
N156	N	1.491166	0.759679	0.322537
C157	C	0.869628	0.047673	0.416245
C158	C	1.202961	0.381006	0.749579
C159	C	1.536294	0.714339	1.082912
C160	C	0.869639	0.047670	0.583658
C161	C	1.202972	0.381004	0.916991
C162	C	1.536305	0.714337	1.250324
H163	H	0.020968	0.204211	-0.000067
H164	H	0.354302	0.537545	0.333266
H165	H	0.687635	0.870878	0.666600
Cl166	Cl	0.764808	0.152948	0.439932
Cl167	Cl	1.098141	0.486281	0.773266
Cl168	Cl	1.431475	0.819615	1.106599
H169	H	0.942230	-0.266488	-0.000019
H170	H	1.275564	0.066845	0.333314
H171	H	1.608897	0.400178	0.666648
Cl172	Cl	0.963629	-0.730401	-0.000103
Cl173	Cl	1.296963	-0.397067	0.333230
Cl174	Cl	1.630296	-0.063734	0.666564
H175	H	0.944179	-0.134379	0.000019
H176	H	1.277512	0.198954	0.333352
H177	H	1.610845	0.532288	0.666686
Cl178	Cl	0.039528	-0.055104	-0.000070
Cl179	Cl	0.372861	0.278230	0.333263
Cl180	Cl	0.706194	0.611563	0.666597
Cl181	Cl	0.445077	0.238709	-0.000046
Cl182	Cl	0.778410	0.572042	0.333287
Cl183	Cl	1.111743	0.905375	0.666620
H184	H	0.704794	-0.679592	-0.000110
H185	H	1.038128	-0.346258	0.333224
H186	H	1.371461	-0.012925	0.666557
H187	H	0.153078	0.206160	-0.000056
H188	H	0.486411	0.539494	0.333277
H189	H	0.819744	0.872827	0.666611
Cl190	Cl	0.203896	-0.052674	-0.000040
Cl191	Cl	0.537230	0.280660	0.333294
Cl192	Cl	0.870563	0.613993	0.666627
H193	H	0.711342	-0.235581	-0.000037
H194	H	1.044676	0.097753	0.333296
H195	H	1.378009	0.431086	0.666630
H196	H	0.706740	-0.547478	-0.000081
H197	H	1.040073	-0.214144	0.333252
H198	H	1.373407	0.119189	0.666585
Cl199	Cl	0.647907	-0.046124	-0.000032
Cl200	Cl	0.981240	0.287209	0.333301
Cl201	Cl	1.314574	0.620542	0.666634
H202	H	0.908271	0.008851	0.354129
H203	H	1.241604	0.342185	0.687462
H204	H	1.574937	0.675518	1.020796
H205	H	0.937635	-0.578390	-0.000057
H206	H	1.270968	-0.245057	0.333276
H207	H	1.604301	0.088277	0.666610
Cl208	Cl	0.929323	-0.012265	0.679523
Cl209	Cl	1.262656	0.321069	1.012857
Cl210	Cl	1.595989	0.654402	1.346190
H211	H	0.785846	0.131837	0.593783
H212	H	1.119180	0.465170	0.927117
H213	H	1.452513	0.798504	1.260450
H214	H	0.597088	0.212713	-0.000072
H215	H	0.930421	0.546046	0.333261
H216	H	1.263755	0.879380	0.666594
H217	H	0.495896	-0.020129	-0.000024
H218	H	0.829230	0.313204	0.333309
H219	H	1.162563	0.646537	0.666642
H220	H	0.713282	-0.103462	-0.000030
H221	H	1.046616	0.229871	0.333304
H222	H	1.379949	0.563204	0.666637
