data_functionalizedCrystal
_audit_creation_method	'MofGen! by Chris Wilmer'
_symmetry_space_group_name_H-M	'P1'
_symmetry_Int_Tables_number	1
_symmetry_cell_setting	triclinic
loop_
_symmetry_equiv_pos_as_xyz
  x,y,z
_cell_length_a	27.731993
_cell_length_b	27.732048
_cell_length_c	22.610064
_cell_angle_alpha	89.999096
_cell_angle_beta	90.003380
_cell_angle_gamma	82.631525
loop_
_atom_site_label
_atom_site_type_symbol
_atom_site_fract_x
_atom_site_fract_y
_atom_site_fract_z
O1	O	0.640948	0.057385	-0.049032
O2	O	0.500151	0.066158	-0.049069
O3	O	0.574922	-0.008626	-0.049038
O4	O	0.566176	0.132169	-0.049063
O5	O	0.574909	-0.008615	0.049331
O6	O	0.500137	0.066169	0.049300
O7	O	0.640935	0.057396	0.049337
Zn8	Zn	0.570534	0.061784	0.064937
Zn9	Zn	0.570551	0.061770	-0.064668
O10	O	0.566163	0.132180	0.049307
C11	C	0.482137	0.065983	0.000111
C12	C	0.428480	0.065441	0.000098
C13	C	0.045327	0.061504	-0.053494
C14	C	0.246985	0.063571	-0.053510
O15	O	0.273064	0.063814	-0.099114
N16	N	0.272198	0.063836	0.000109
C17	C	0.246994	0.063581	0.053737
O18	O	0.273067	0.063848	0.099344
C19	C	0.045338	0.061510	0.053753
C20	C	0.020127	0.061251	0.000130
C21	C	0.020116	0.061244	-0.107113
C22	C	-0.030295	0.060730	-0.107108
C23	C	-0.055496	0.060476	-0.053485
C24	C	-0.030285	0.060736	0.000134
C25	C	0.020135	0.061251	0.107380
C26	C	-0.030282	0.060732	0.107379
C27	C	-0.055493	0.060473	0.053756
C28	C	-0.105897	0.059968	0.053762
N29	N	-0.131110	0.059704	0.000143
C30	C	-0.105910	0.059958	-0.053481
C31	C	0.352866	0.064669	0.053725
C32	C	0.403280	0.065187	0.053721
C33	C	0.403267	0.065177	-0.053526
C34	C	0.352852	0.064662	-0.053522
C35	C	0.327653	0.064404	0.000105
C36	C	-0.211778	0.058879	-0.053467
C37	C	-0.262194	0.058367	-0.053458
C38	C	-0.262177	0.058374	0.053790
C39	C	-0.211765	0.058889	0.053781
C40	C	-0.186567	0.059139	0.000147
O41	O	-0.132007	0.059720	0.099342
O42	O	-0.131990	0.059679	-0.099081
C43	C	0.095739	0.062019	-0.053499
C44	C	0.120950	0.062279	0.000120
C45	C	0.095750	0.062025	0.053744
C46	C	0.171364	0.062797	0.000117
C47	C	0.196564	0.063051	-0.053507
C48	C	0.171351	0.062786	-0.107127
C49	C	0.120940	0.062272	-0.107122
C50	C	0.120963	0.062289	0.107364
C51	C	0.171374	0.062804	0.107355
C52	C	0.196575	0.063058	0.053731
C53	C	0.574732	-0.026628	0.000148
C54	C	0.574179	-0.080282	0.000153
C55	C	0.614884	-0.419105	0.000133
C56	C	0.612833	-0.620765	0.000125
O57	O	0.650055	-0.652028	0.000109
N58	N	0.568497	-0.639880	0.000114
C59	C	0.524670	-0.608576	0.000101
O60	O	0.486912	-0.629462	0.000085
C61	C	0.526721	-0.406918	0.000105
C62	C	0.571061	-0.387806	0.000122
C63	C	0.659220	-0.399993	0.000150
C64	C	0.659732	-0.349581	0.000155
C65	C	0.615909	-0.318282	0.000144
C66	C	0.571573	-0.337394	0.000128
C67	C	0.482895	-0.375616	0.000088
C68	C	0.483412	-0.325199	0.000088
C69	C	0.527751	-0.306087	0.000105
C70	C	0.528262	-0.255683	0.000122
N71	N	0.572598	-0.236568	0.000133
C72	C	0.616422	-0.267867	0.000144
C73	C	0.523596	-0.714450	0.000100
C74	C	0.523083	-0.764865	0.000099
C75	C	0.611246	-0.777049	0.000122
C76	C	0.611759	-0.726634	0.000127
C77	C	0.567932	-0.695335	0.000111
C78	C	0.617494	-0.161998	0.000156
C79	C	0.618003	-0.111582	0.000164
C80	C	0.529839	-0.099401	0.000138
C81	C	0.529331	-0.149814	0.000133
C82	C	0.573162	-0.181112	0.000140
O83	O	0.491060	-0.224392	0.000132
O84	O	0.654174	-0.246972	0.000147
C85	C	0.614372	-0.469517	0.000128
C86	C	0.570036	-0.488630	0.000112
C87	C	0.526213	-0.457331	0.000101
C88	C	0.569523	-0.539044	0.000111
C89	C	0.613346	-0.570343	0.000122
C90	C	0.657683	-0.551228	0.000134
C91	C	0.658195	-0.500817	0.000139
C92	C	0.481876	-0.476446	0.000089
C93	C	0.481368	-0.526858	0.000085
C94	C	0.525191	-0.558157	0.000096
C95	C	0.658949	0.057570	0.000156
C96	C	0.712605	0.058113	0.000166
C97	C	0.566353	0.150181	0.000119
C98	C	0.566906	0.203836	0.000110
N99	N	0.570526	0.061794	0.153390
N100	N	0.570564	0.061756	-0.153121
C101	C	0.603662	0.028660	0.562045
C102	C	0.603664	0.028657	0.623965
O103	O	0.631817	0.000493	0.655995
N104	N	0.570551	0.061760	0.654927
C105	C	0.537430	0.094865	0.623966
O106	O	0.509265	0.123021	0.655987
C107	C	0.537426	0.094866	0.562047
C108	C	0.570544	0.061764	0.531088
C109	C	0.636777	-0.004439	0.531086
C110	C	0.636775	-0.004435	0.469170
C111	C	0.603658	0.028669	0.438213
C112	C	0.570542	0.061768	0.469172
C113	C	0.504303	0.127968	0.531087
C114	C	0.504301	0.127966	0.469164
C115	C	0.537419	0.094864	0.438205
C116	C	0.537423	0.094876	0.376300
N117	N	0.570536	0.061773	0.345338
C118	C	0.603653	0.028670	0.376295
C119	C	0.537441	0.094860	0.753999
C120	C	0.537448	0.094862	0.815917
C121	C	0.603681	0.028653	0.815912
C122	C	0.603677	0.028654	0.753993
C123	C	0.570554	0.061757	0.723037
C124	C	0.603647	0.028681	0.246267
C125	C	0.603643	0.028690	0.184346
C126	C	0.537408	0.094897	0.184357
C127	C	0.537413	0.094890	0.246273
C128	C	0.570534	0.061778	0.277226
O129	O	0.509283	0.123024	0.344230
O130	O	0.631810	0.000514	0.344266
H131	H	0.040629	0.061449	-0.150782
H132	H	-0.050797	0.060527	0.151050
C133	C	0.431008	0.065479	0.112705
H134	H	0.464642	0.065828	0.105028
H135	H	0.426647	0.037197	0.134742
H136	H	0.418844	0.093599	0.134732
C137	C	0.047857	0.061538	0.166367
H138	H	0.025622	0.061308	0.198298
H139	H	0.063623	0.089939	0.168597
H140	H	0.071423	0.033537	0.168602
C141	C	0.640109	-0.007764	0.849969
H142	H	0.659834	-0.027478	0.822666
H143	H	0.622870	-0.027762	0.874124
H144	H	0.660101	0.009486	0.874124
H145	H	0.663742	-0.031391	0.443967
H146	H	0.630614	0.001734	0.159141
H147	H	0.694908	-0.425472	0.000157
H148	H	-0.191267	0.059083	-0.097140
H149	H	0.630644	0.001699	0.728790
C150	C	0.475383	-0.680027	0.000090
H151	H	0.448909	-0.698637	0.000090
H152	H	0.473748	-0.660105	-0.034212
H153	H	0.473747	-0.660110	0.034399
H154	H	-0.191239	0.059110	0.097445
C155	C	0.500980	0.131309	0.150300
H156	H	0.481258	0.151026	0.177603
H157	H	0.480992	0.114059	0.126144
H158	H	0.518219	0.151311	0.126147
C159	C	-0.289898	0.058054	0.112771
H160	H	-0.323531	0.057692	0.105089
H161	H	-0.285550	0.086325	0.134836
H162	H	-0.277719	0.029923	0.134772
H163	H	0.510450	0.121849	0.271480
C164	C	0.199103	0.063090	0.166343
H165	H	0.232738	0.063435	0.158666
H166	H	0.194739	0.034808	0.188377
H167	H	0.186943	0.091210	0.188373
H168	H	0.663745	-0.031398	0.556285
H169	H	0.654110	-0.096024	0.000180
C170	C	-0.289924	0.058080	-0.112446
H171	H	-0.267691	0.058300	-0.144381
H172	H	-0.313490	0.086078	-0.114680
H173	H	-0.305690	0.029676	-0.114670
H174	H	0.510484	0.121821	0.841120
H175	H	0.100450	0.062080	0.151031
H176	H	0.447722	-0.299717	0.000074
H177	H	0.423794	0.065385	-0.097189
H178	H	0.695838	-0.334025	0.000167
H179	H	0.332354	0.064457	0.097397
C180	C	0.706969	-0.479800	0.000152
H181	H	0.732991	-0.505666	0.000152
H182	H	0.709002	-0.460387	0.034455
H183	H	0.709007	-0.460388	-0.034156
C184	C	0.501011	0.131283	0.719953
H185	H	0.481296	0.150998	0.747266
H186	H	0.481015	0.114042	0.695797
H187	H	0.518250	0.151285	0.695802
C188	C	0.432591	-0.547875	0.000064
H189	H	0.406567	-0.522010	0.000052
H190	H	0.430547	-0.567293	0.034362
H191	H	0.430565	-0.567283	-0.034249
C192	C	-0.058020	0.060432	-0.166094
H193	H	-0.035784	0.060650	-0.198027
H194	H	-0.081590	0.088426	-0.168339
H195	H	-0.073780	0.032024	-0.168314
C196	C	0.660531	-0.705615	0.000140
H197	H	0.686555	-0.731480	0.000143
H198	H	0.662562	-0.686200	0.034442
H199	H	0.662570	-0.686205	-0.034169
C200	C	0.480559	-0.170838	0.000113
H201	H	0.454533	-0.144975	0.000104
H202	H	0.478517	-0.190258	0.034410
H203	H	0.478535	-0.190244	-0.034202
H204	H	0.494160	-0.073909	0.000131
C205	C	0.325124	0.064376	-0.112507
H206	H	0.347358	0.064600	-0.144441
H207	H	0.301556	0.092372	-0.114740
H208	H	0.309361	0.035970	-0.114735
H209	H	0.100417	0.062061	-0.150788
C210	C	0.665707	-0.196419	0.000169
H211	H	0.692182	-0.177810	0.000185
H212	H	0.667351	-0.216339	-0.034134
H213	H	0.667335	-0.216338	0.034477
C214	C	0.659451	-0.811485	0.000125
H215	H	0.652791	-0.844245	0.000116
H216	H	0.677651	-0.805733	0.034429
H217	H	0.677645	-0.805725	-0.034183
H218	H	0.446789	-0.391168	0.000071
H219	H	0.191878	0.062996	-0.150789
H220	H	0.486977	-0.780421	0.000096
H221	H	0.477327	0.154922	0.443963
C222	C	0.705887	-0.585664	0.000141
H223	H	0.699227	-0.618425	0.000131
H224	H	0.724084	-0.579912	0.034448
H225	H	0.724085	-0.579905	-0.034164
H226	H	0.477335	0.154922	0.556285
C227	C	0.433668	-0.442023	0.000083
H228	H	0.407193	-0.460632	0.000081
H229	H	0.432032	-0.422098	-0.034216
H230	H	0.432031	-0.422108	0.034395
H231	H	0.630616	0.001718	0.271463
