data_functionalizedCrystal
_audit_creation_method	'MofGen! by Chris Wilmer'
_symmetry_space_group_name_H-M	'P1'
_symmetry_Int_Tables_number	1
_symmetry_cell_setting	triclinic
loop_
_symmetry_equiv_pos_as_xyz
  x,y,z
_cell_length_a	12.759399
_cell_length_b	12.759401
_cell_length_c	12.759393
_cell_angle_alpha	90.022497
_cell_angle_beta	89.969094
_cell_angle_gamma	89.984062
loop_
_atom_site_label
_atom_site_type_symbol
_atom_site_fract_x
_atom_site_fract_y
_atom_site_fract_z
Zn1	Zn	-0.418192	-1.606263	-0.594061
Zn2	Zn	0.081808	-1.106263	-0.094061
Zn3	Zn	-0.593908	-1.606153	-0.418380
Zn4	Zn	-0.093908	-1.106153	0.081620
Zn5	Zn	-0.418246	-1.430562	-0.418391
Zn6	Zn	0.081754	-0.930562	0.081609
Zn7	Zn	-0.593832	-1.430553	-0.594012
Zn8	Zn	-0.093832	-0.930553	-0.094012
O9	O	-0.506045	-1.518383	-0.506211
O10	O	-0.006045	-1.018383	-0.006211
O11	O	-0.441511	-1.753270	-0.570772
O12	O	0.058489	-1.253270	-0.070772
O13	O	-0.570660	-1.582818	-0.271360
O14	O	-0.070660	-1.082818	0.228640
O15	O	-0.271218	-1.453919	-0.441719
O16	O	0.228782	-0.953919	0.058281
O17	O	-0.570608	-1.753189	-0.441700
O18	O	-0.070608	-1.253189	0.058300
O19	O	-0.271178	-1.583006	-0.570783
O20	O	0.228822	-1.083006	-0.070783
O21	O	-0.441602	-1.453812	-0.271369
O22	O	0.058398	-0.953812	0.228631
O23	O	-0.441529	-1.283540	-0.441672
O24	O	0.058471	-0.783540	0.058328
O25	O	-0.570479	-1.453903	-0.741040
O26	O	-0.070479	-0.953903	-0.241040
O27	O	-0.570531	-1.283533	-0.570700
O28	O	-0.070531	-0.783533	-0.070700
O29	O	-0.441437	-1.582997	-0.741075
O30	O	0.058563	-1.082997	-0.241075
O31	O	-0.740919	-1.582809	-0.441652
O32	O	-0.240919	-1.082809	0.058348
O33	O	-0.740863	-1.453796	-0.570689
O34	O	-0.240863	-0.953796	-0.070689
C35	C	-0.506029	-1.245415	-0.506183
C36	C	-0.006029	-0.745415	-0.006183
C37	C	-0.506047	-1.128639	-0.506195
C38	C	-0.006047	-0.628639	-0.006195
C39	C	-0.573320	-1.073801	-0.573273
C40	C	-0.073320	-0.573801	-0.073273
C41	C	-0.573323	-0.964077	-0.573291
C42	C	-0.073323	-0.464077	-0.073291
C43	C	-0.438776	-0.964038	-0.439145
C44	C	0.061224	-0.464038	0.060855
C45	C	-0.438769	-1.073760	-0.439133
C46	C	0.061231	-0.573760	0.060867
C47	C	-0.779012	-1.518318	-0.506187
C48	C	-0.279012	-1.018318	-0.006187
C49	C	-0.895789	-1.518387	-0.506212
C50	C	-0.395789	-1.018387	-0.006212
C51	C	-0.950645	-1.585641	-0.439099
C52	C	-0.450645	-1.085641	0.060901
C53	C	-1.060369	-1.585708	-0.439134
C54	C	-0.560369	-1.085708	0.060866
C55	C	-1.060371	-1.451259	-0.573398
C56	C	-0.560371	-0.951259	-0.073398
C57	C	-0.950649	-1.451198	-0.573368
C58	C	-0.450649	-0.951198	-0.073368
C59	C	-0.232011	-1.518476	-0.506258
C60	C	0.267989	-1.018476	-0.006258
C61	C	-0.115235	-1.518516	-0.506278
C62	C	0.384765	-1.018516	-0.006278
C63	C	-0.505944	-1.518461	-0.780244
C64	C	-0.005944	-1.018461	-0.280244
C65	C	-0.505901	-1.518495	-0.897021
C66	C	-0.005901	-1.018495	-0.397021
C67	C	-0.506059	-0.792416	-0.506233
C68	C	-0.006059	-0.292416	-0.006233
C69	C	-0.506057	-0.909193	-0.506225
C70	C	-0.006057	-0.409193	-0.006225
C71	C	-0.438698	-1.585719	-0.951903
C72	C	0.061302	-1.085719	-0.451903
C73	C	-0.438653	-1.585737	-1.061628
C74	C	0.061347	-1.085737	-0.561628
C75	C	-0.573022	-1.451303	-1.061577
C76	C	-0.073022	-0.951303	-0.561577
C77	C	-0.573061	-1.451281	-0.951855
C78	C	-0.073061	-0.951281	-0.451855
C79	C	-0.506069	-1.518365	-0.233244
C80	C	-0.006069	-1.018365	0.266756
C81	C	-0.505816	-1.518535	-0.116467
C82	C	-0.005816	-1.018535	0.383533
H83	H	-0.384003	-0.919343	-0.384543
H84	H	0.115997	-0.419343	0.115457
Br85	Br	-0.347550	-1.676935	-0.877489
Br86	Br	0.152450	-1.176935	-0.377489
H87	H	-0.383928	-1.640476	-1.106308
H88	H	0.116072	-1.140476	-0.606308
H89	H	-1.105052	-1.396555	-0.628072
H90	H	-0.605052	-0.896555	-0.128072
H91	H	-0.905980	-1.640352	-0.384418
H92	H	-0.405980	-1.140352	0.115582
Br93	Br	-1.134812	-1.676991	-0.348054
Br94	Br	-0.634812	-1.176991	0.151946
Br95	Br	-0.876195	-1.359927	-0.664465
Br96	Br	-0.376195	-0.859927	-0.164465
H97	H	-0.627704	-1.396583	-1.106237
H98	H	-0.127704	-0.896583	-0.606237
Br99	Br	-0.664263	-1.360032	-0.877365
Br100	Br	-0.164263	-0.860032	-0.377365
H101	H	-0.628099	-1.118479	-0.627883
H102	H	-0.128099	-0.618479	-0.127883
Br103	Br	-0.664621	-0.889657	-0.664334
Br104	Br	-0.164621	-0.389657	-0.164334
H105	H	-0.383981	-1.118411	-0.384510
H106	H	0.116019	-0.618411	0.115490
