data_functionalizedCrystal
_audit_creation_method	'MofGen! by Chris Wilmer'
_symmetry_space_group_name_H-M	'P1'
_symmetry_Int_Tables_number	1
_symmetry_cell_setting	triclinic
loop_
_symmetry_equiv_pos_as_xyz
  x,y,z
_cell_length_a	19.077105
_cell_length_b	18.050588
_cell_length_c	19.076919
_cell_angle_alpha	87.727743
_cell_angle_beta	89.923776
_cell_angle_gamma	87.725951
loop_
_atom_site_label
_atom_site_type_symbol
_atom_site_fract_x
_atom_site_fract_y
_atom_site_fract_z
Zn1	Zn	1.058240	-0.359280	0.440421
Zn2	Zn	1.308240	-0.109280	0.690421
Zn3	Zn	1.558240	0.140720	0.940421
Zn4	Zn	1.808240	0.390720	1.190421
Zn5	Zn	1.062870	-0.478688	0.322915
Zn6	Zn	1.312870	-0.228688	0.572915
Zn7	Zn	1.562870	0.021312	0.822915
Zn8	Zn	1.812870	0.271312	1.072915
Zn9	Zn	0.945459	-0.349332	0.318214
Zn10	Zn	1.195459	-0.099332	0.568214
Zn11	Zn	1.445459	0.150668	0.818214
Zn12	Zn	1.695459	0.400668	1.068214
Zn13	Zn	0.940691	-0.478240	0.435667
Zn14	Zn	1.190691	-0.228240	0.685667
Zn15	Zn	1.440691	0.021760	0.935667
Zn16	Zn	1.690691	0.271760	1.185667
O17	O	1.001815	-0.416385	0.379304
O18	O	1.251815	-0.166385	0.629304
O19	O	1.501815	0.083615	0.879304
O20	O	1.751815	0.333615	1.129304
O21	O	1.157185	-0.379471	0.428790
O22	O	1.407185	-0.129471	0.678790
O23	O	1.657185	0.120529	0.928790
O24	O	1.907185	0.370529	1.178790
O25	O	1.051227	-0.457552	0.223960
O26	O	1.301227	-0.207552	0.473960
O27	O	1.551227	0.042448	0.723960
O28	O	1.801227	0.292448	0.973960
O29	O	0.960477	-0.246730	0.334447
O30	O	1.210477	0.003270	0.584447
O31	O	1.460477	0.253270	0.834447
O32	O	1.710477	0.503270	1.084447
O33	O	1.160587	-0.467199	0.342459
O34	O	1.410587	-0.217199	0.592459
O35	O	1.660587	0.032801	0.842459
O36	O	1.910587	0.282801	1.092459
O37	O	1.043337	-0.254039	0.424232
O38	O	1.293337	-0.004039	0.674232
O39	O	1.543337	0.245961	0.924232
O40	O	1.793337	0.495961	1.174232
O41	O	0.964966	-0.362515	0.220506
O42	O	1.214966	-0.112515	0.470506
O43	O	1.464966	0.137485	0.720506
O44	O	1.714966	0.387485	0.970506
O45	O	0.846495	-0.362081	0.329838
O46	O	1.096495	-0.112081	0.579838
O47	O	1.346495	0.137919	0.829838
O48	O	1.596495	0.387919	1.079838
O49	O	0.952352	-0.466436	0.534629
O50	O	1.202352	-0.216436	0.784629
O51	O	1.452352	0.033564	1.034629
O52	O	1.702352	0.283564	1.284629
O53	O	0.842992	-0.456789	0.416130
O54	O	1.092992	-0.206789	0.666130
O55	O	1.342992	0.043211	0.916130
O56	O	1.592992	0.293211	1.166130
O57	O	1.038714	-0.379036	0.538121
O58	O	1.288714	-0.129036	0.788121
O59	O	1.538714	0.120964	1.038121
O60	O	1.788714	0.370964	1.288121
O61	O	1.046605	-0.582550	0.337850
O62	O	1.296605	-0.332550	0.587850
O63	O	1.546605	-0.082550	0.837850
O64	O	1.796605	0.167450	1.087850
O65	O	0.956841	-0.582221	0.420689
O66	O	1.206841	-0.332221	0.670689
O67	O	1.456841	-0.082221	0.920689
O68	O	1.706841	0.167779	1.170689
C69	C	0.819247	-0.408307	0.371959
C70	C	1.069247	-0.158307	0.621959
C71	C	1.319247	0.091693	0.871959
C72	C	1.569247	0.341693	1.121959
C73	C	0.741143	-0.404870	0.368833
C74	C	0.991143	-0.154870	0.618833
C75	C	1.241143	0.095130	0.868833
C76	C	1.491143	0.345130	1.118833
C77	C	0.702648	-0.452634	0.412222
C78	C	0.952648	-0.202634	0.662222
C79	C	1.202648	0.047366	0.912222
C80	C	1.452648	0.297366	1.162222
C81	C	0.629261	-0.449395	0.409288
C82	C	0.879261	-0.199395	0.659288
C83	C	1.129261	0.050605	0.909288
C84	C	1.379261	0.300605	1.159288
C85	C	0.594371	-0.398395	0.362961
C86	C	0.844371	-0.148395	0.612961
C87	C	1.094371	0.101605	0.862961
C88	C	1.344371	0.351605	1.112961
C89	C	0.632872	-0.350626	0.319571
C90	C	0.882872	-0.100626	0.569571
C91	C	1.132872	0.149374	0.819571
C92	C	1.382872	0.399374	1.069571
C93	C	0.706257	-0.353862	0.322509
C94	C	0.956257	-0.103862	0.572509
C95	C	1.206257	0.146138	0.822509
C96	C	1.456257	0.396138	1.072509
C97	C	0.375085	-0.383418	0.349369
C98	C	0.625085	-0.133418	0.599369
C99	C	0.875085	0.116582	0.849369
C100	C	1.125085	0.366582	1.099369
C101	C	0.301694	-0.380187	0.346433
C102	C	0.551694	-0.130187	0.596433
C103	C	0.801694	0.119813	0.846433
C104	C	1.051694	0.369813	1.096433
C105	C	0.298088	-0.478955	0.436151
C106	C	0.548088	-0.228955	0.686151
C107	C	0.798088	0.021045	0.936151
C108	C	1.048088	0.271045	1.186151
C109	C	0.371475	-0.482189	0.439082
C110	C	0.621475	-0.232189	0.689082
C111	C	0.871475	0.017811	0.939082
C112	C	1.121475	0.267811	1.189082
C113	C	0.409970	-0.434418	0.395694
C114	C	0.659970	-0.184418	0.645694
C115	C	0.909970	0.065582	0.895694
C116	C	1.159970	0.315582	1.145694
N117	N	0.519358	-0.395084	0.359960
N118	N	0.769358	-0.145084	0.609960
N119	N	1.019358	0.104916	0.859960
N120	N	1.269358	0.354916	1.109960
N121	N	0.484981	-0.437726	0.398699
N122	N	0.734981	-0.187726	0.648699
N123	N	0.984981	0.062274	0.898699
N124	N	1.234981	0.312274	1.148699
C125	C	1.001727	-0.609332	0.379280
C126	C	1.251727	-0.359332	0.629280
C127	C	1.501727	-0.109332	0.879280
C128	C	1.751727	0.140668	1.129280
C129	C	1.001752	-0.691880	0.379295
C130	C	1.251752	-0.441880	0.629295
C131	C	1.501752	-0.191880	0.879295
C132	C	1.751752	0.058120	1.129295
C133	C	0.953013	-0.940557	0.424346
C134	C	1.203013	-0.690557	0.674346
C135	C	1.453013	-0.440557	0.924346
C136	C	1.703013	-0.190557	1.174346
C137	C	1.016392	-0.894618	0.444160
C138	C	1.266392	-0.644618	0.694160
C139	C	1.516392	-0.394618	0.944160
C140	C	1.766392	-0.144618	1.194160
C141	C	1.001897	-0.989008	0.379340
C142	C	1.251897	-0.739008	0.629340
C143	C	1.501897	-0.489008	0.879340
C144	C	1.751897	-0.239008	1.129340
C145	C	0.938448	-0.887863	0.359537
C146	C	1.188448	-0.637863	0.609537
C147	C	1.438448	-0.387863	0.859537
C148	C	1.688448	-0.137863	1.109537
C149	C	1.001822	-0.843019	0.379320
C150	C	1.251822	-0.593019	0.629320
C151	C	1.501822	-0.343019	0.879320
C152	C	1.751822	-0.093019	1.129320
C153	C	1.065310	-0.944159	0.399189
C154	C	1.315310	-0.694159	0.649189
C155	C	1.565310	-0.444159	0.899189
C156	C	1.815310	-0.194159	1.149189
C157	C	0.987323	-0.937406	0.314534
C158	C	1.237323	-0.687406	0.564534
C159	C	1.487323	-0.437406	0.814534
C160	C	1.737323	-0.187406	1.064534
C161	C	1.050748	-0.891490	0.334326
C162	C	1.300748	-0.641490	0.584326
C163	C	1.550748	-0.391490	0.834326
C164	C	1.800748	-0.141490	1.084326
C165	C	1.001938	-1.073109	0.379354
C166	C	1.251938	-0.823109	0.629354
C167	C	1.501938	-0.573109	0.879354
C168	C	1.751938	-0.323109	1.129354
C169	C	1.001788	-0.758920	0.379306
C170	C	1.251788	-0.508920	0.629306
C171	C	1.501788	-0.258920	0.879306
C172	C	1.751788	-0.008920	1.129306
C173	C	1.185095	-0.424495	0.386679
C174	C	1.435095	-0.174495	0.636679
C175	C	1.685095	0.075505	0.886679
C176	C	1.935095	0.325505	1.136679
C177	C	1.263199	-0.427951	0.389822
C178	C	1.513199	-0.177951	0.639822
C179	C	1.763199	0.072049	0.889822
C180	C	2.013199	0.322049	1.139822
C181	C	0.994485	-0.423796	0.562584
C182	C	1.244485	-0.173796	0.812584
C183	C	1.494485	0.076204	1.062584
C184	C	1.744485	0.326204	1.312584
C185	C	0.991361	-0.426954	0.640688
C186	C	1.241361	-0.176954	0.890688
C187	C	1.491361	0.073046	1.140688
C188	C	1.741361	0.323046	1.390688
C189	C	1.001922	-0.222686	0.379345
C190	C	1.251922	0.027314	0.629345
C191	C	1.501922	0.277314	0.879345
C192	C	1.751922	0.527314	1.129345
C193	C	1.001968	-0.140142	0.379362
C194	C	1.251968	0.109858	0.629362
C195	C	1.501968	0.359858	0.879362
C196	C	1.751968	0.609858	1.129362
C197	C	1.009157	-0.408951	0.196739
C198	C	1.259157	-0.158951	0.446739
C199	C	1.509157	0.091049	0.696739
C200	C	1.759157	0.341049	0.946739
C201	C	1.012417	-0.405590	0.118641
C202	C	1.262417	-0.155590	0.368641
C203	C	1.512417	0.094410	0.618641
C204	C	1.762417	0.344410	0.868641
C205	C	1.034856	-0.382936	0.679200
C206	C	1.284856	-0.132936	0.929200
C207	C	1.534856	0.117064	1.179200
C208	C	1.784856	0.367064	1.429200
C209	C	1.031912	-0.385900	0.752586
C210	C	1.281912	-0.135900	1.002586
C211	C	1.531912	0.114100	1.252586
C212	C	1.781912	0.364100	1.502586
C213	C	0.985477	-0.432887	0.787458
C214	C	1.235477	-0.182887	1.037458
C215	C	1.485477	0.067113	1.287458
C216	C	1.735477	0.317113	1.537458
C217	C	0.941978	-0.476907	0.748940
C218	C	1.191978	-0.226907	0.998940
C219	C	1.441978	0.023093	1.248940
C220	C	1.691978	0.273093	1.498940
C221	C	0.944918	-0.473938	0.675556
C222	C	1.194918	-0.223938	0.925556
C223	C	1.444918	0.026062	1.175556
C224	C	1.694918	0.276062	1.425556
C225	C	0.971858	-0.446641	1.006739
C226	C	1.221858	-0.196641	1.256739
C227	C	1.471858	0.053359	1.506739
C228	C	1.721858	0.303359	1.756739
C229	C	0.968922	-0.449608	1.080129
C230	C	1.218922	-0.199608	1.330129
C231	C	1.468922	0.050392	1.580129
C232	C	1.718922	0.300392	1.830129
C233	C	1.058856	-0.358599	1.083769
C234	C	1.308856	-0.108599	1.333769
C235	C	1.558856	0.141401	1.583769
C236	C	1.808856	0.391401	1.833769
C237	C	1.061795	-0.355638	1.010383
C238	C	1.311795	-0.105638	1.260383
C239	C	1.561795	0.144362	1.510383
C240	C	1.811795	0.394362	1.760383
C241	C	1.018293	-0.399655	0.971872
C242	C	1.268293	-0.149655	1.221872
C243	C	1.518293	0.100345	1.471872
C244	C	1.768293	0.350345	1.721872
N245	N	0.982469	-0.435920	0.862470
N246	N	1.232469	-0.185920	1.112470
N247	N	1.482469	0.064080	1.362470
N248	N	1.732469	0.314080	1.612470
N249	N	1.021299	-0.396618	0.896861
N250	N	1.271299	-0.146618	1.146861
N251	N	1.521299	0.103382	1.396861
N252	N	1.771299	0.353382	1.646861
H253	H	0.406418	-0.344524	0.314034
H254	H	0.656418	-0.094524	0.564034
H255	H	0.906418	0.155476	0.814034
H256	H	1.156418	0.405476	1.064034
H257	H	0.904167	-0.515162	0.777339
H258	H	1.154167	-0.265162	1.027339
H259	H	1.404167	-0.015162	1.277339
H260	H	1.654167	0.234838	1.527339
Cl261	Cl	0.917170	-0.501978	0.958335
Cl262	Cl	1.167170	-0.251978	1.208335
Cl263	Cl	1.417170	-0.001978	1.458335
Cl264	Cl	1.667170	0.248022	1.708335
Cl265	Cl	0.580869	-0.509443	0.463837
Cl266	Cl	0.830869	-0.259443	0.713837
Cl267	Cl	1.080869	-0.009443	0.963837
Cl268	Cl	1.330869	0.240557	1.213837
H269	H	0.731050	-0.494166	0.449943
H270	H	0.981050	-0.244166	0.699943
H271	H	1.231050	0.005834	0.949943
H272	H	1.481050	0.255834	1.199943
Cl273	Cl	0.589010	-0.286507	0.261336
Cl274	Cl	0.839010	-0.036507	0.511336
Cl275	Cl	1.089010	0.213493	0.761336
Cl276	Cl	1.339010	0.463493	1.011336
Cl277	Cl	1.114592	-0.858428	0.275553
Cl278	Cl	1.364592	-0.608428	0.525553
Cl279	Cl	1.614592	-0.358428	0.775553
Cl280	Cl	1.864592	-0.108428	1.025553
Cl281	Cl	1.120173	-0.296567	0.966549
Cl282	Cl	1.370173	-0.046567	1.216549
Cl283	Cl	1.620173	0.203433	1.466549
Cl284	Cl	1.870173	0.453433	1.716549
Cl285	Cl	1.035385	-0.865432	0.528761
Cl286	Cl	1.285385	-0.615432	0.778761
Cl287	Cl	1.535385	-0.365432	1.028761
Cl288	Cl	1.785385	-0.115432	1.278761
Cl289	Cl	0.890235	-0.529276	0.627140
Cl290	Cl	1.140235	-0.279276	0.877140
Cl291	Cl	1.390235	-0.029276	1.127140
Cl292	Cl	1.640235	0.220724	1.377140
H293	H	0.737600	-0.314964	0.287180
H294	H	0.987600	-0.064964	0.537180
H295	H	1.237600	0.185036	0.787180
H296	H	1.487600	0.435036	1.037180
Cl297	Cl	1.148126	-0.982021	0.425134
Cl298	Cl	1.398126	-0.732021	0.675134
Cl299	Cl	1.648126	-0.482021	0.925134
Cl300	Cl	1.898126	-0.232021	1.175134
Cl301	Cl	0.415332	-0.546308	0.497321
Cl302	Cl	0.665332	-0.296308	0.747321
Cl303	Cl	0.915332	-0.046308	0.997321
Cl304	Cl	1.165332	0.203692	1.247321
Cl305	Cl	0.249691	-0.539007	0.490691
Cl306	Cl	0.499691	-0.289007	0.740691
Cl307	Cl	0.749691	-0.039007	0.990691
Cl308	Cl	0.999691	0.210993	1.240691
Cl309	Cl	1.086625	-0.330594	0.800999
Cl310	Cl	1.336625	-0.080594	1.050999
Cl311	Cl	1.586625	0.169406	1.300999
Cl312	Cl	1.836625	0.419406	1.550999
Cl313	Cl	0.257834	-0.316073	0.288184
Cl314	Cl	0.507834	-0.066073	0.538184
Cl315	Cl	0.757834	0.183927	0.788184
Cl316	Cl	1.007834	0.433927	1.038184
H317	H	0.911752	-0.962108	0.462447
H318	H	1.161752	-0.712108	0.712447
H319	H	1.411752	-0.462108	0.962447
H320	H	1.661752	-0.212108	1.212447
Cl321	Cl	0.910539	-0.508678	1.123968
Cl322	Cl	1.160539	-0.258678	1.373968
Cl323	Cl	1.410539	-0.008678	1.623968
Cl324	Cl	1.660539	0.241322	1.873968
Cl325	Cl	0.968302	-0.966620	0.229954
Cl326	Cl	1.218302	-0.716620	0.479954
Cl327	Cl	1.468302	-0.466620	0.729954
Cl328	Cl	1.718302	-0.216620	0.979954
Cl329	Cl	0.855653	-0.849859	0.333689
Cl330	Cl	1.105653	-0.599859	0.583689
Cl331	Cl	1.355653	-0.349859	0.833689
Cl332	Cl	1.605653	-0.099859	1.083689
Cl333	Cl	1.093238	-0.323867	0.635368
Cl334	Cl	1.343238	-0.073867	0.885368
Cl335	Cl	1.593238	0.176133	1.135368
Cl336	Cl	1.843238	0.426133	1.385368
Cl337	Cl	1.113537	-0.303264	1.132187
Cl338	Cl	1.363537	-0.053264	1.382187
Cl339	Cl	1.613537	0.196736	1.632187
Cl340	Cl	1.863537	0.446736	1.882187
