data_functionalizedCrystal
_audit_creation_method	'MofGen! by Chris Wilmer'
_symmetry_space_group_name_H-M	'P1'
_symmetry_Int_Tables_number	1
_symmetry_cell_setting	triclinic
loop_
_symmetry_equiv_pos_as_xyz
  x,y,z
_cell_length_a	25.639239
_cell_length_b	19.077142
_cell_length_c	19.076919
_cell_angle_alpha	89.925643
_cell_angle_beta	92.268407
_cell_angle_gamma	92.265911
loop_
_atom_site_label
_atom_site_type_symbol
_atom_site_fract_x
_atom_site_fract_y
_atom_site_fract_z
Zn1	Zn	-0.252951	-1.058185	-0.440433
Zn2	Zn	0.080382	-0.724852	-0.107100
Zn3	Zn	0.413715	-0.391518	0.226234
Zn4	Zn	-0.337016	-1.062797	-0.322920
Zn5	Zn	-0.003683	-0.729464	0.010414
Zn6	Zn	0.329650	-0.396131	0.343747
Zn7	Zn	-0.245946	-0.945405	-0.318223
Zn8	Zn	0.087387	-0.612072	0.015110
Zn9	Zn	0.420721	-0.278739	0.348444
Zn10	Zn	-0.336700	-0.940619	-0.435668
Zn11	Zn	-0.003366	-0.607286	-0.102335
Zn12	Zn	0.329967	-0.273953	0.230998
O13	O	-0.293153	-1.001752	-0.379311
O14	O	0.040180	-0.668418	-0.045978
O15	O	0.373513	-0.335085	0.287356
O16	O	-0.267167	-1.157128	-0.428804
O17	O	0.066166	-0.823794	-0.095471
O18	O	0.399500	-0.490461	0.237863
O19	O	-0.322137	-1.051158	-0.223966
O20	O	0.011197	-0.717825	0.109368
O21	O	0.344530	-0.384492	0.442701
O22	O	-0.173713	-0.960439	-0.334463
O23	O	0.159620	-0.627105	-0.001130
O24	O	0.492953	-0.293772	0.332204
O25	O	-0.328929	-1.160516	-0.342468
O26	O	0.004404	-0.827183	-0.009134
O27	O	0.337737	-0.493849	0.324199
O28	O	-0.178860	-1.043298	-0.424250
O29	O	0.154473	-0.709964	-0.090917
O30	O	0.487807	-0.376631	0.242417
O31	O	-0.255228	-0.964911	-0.220515
O32	O	0.078106	-0.631578	0.112818
O33	O	0.411439	-0.298244	0.446152
O34	O	-0.254920	-0.846440	-0.329843
O35	O	0.078413	-0.513107	0.003490
O36	O	0.411746	-0.179773	0.336824
O37	O	-0.328390	-0.952281	-0.534631
O38	O	0.004944	-0.618948	-0.201298
O39	O	0.338277	-0.285615	0.132036
O40	O	-0.321597	-0.842923	-0.416129
O41	O	0.011737	-0.509590	-0.082796
O42	O	0.345070	-0.176257	0.250537
O43	O	-0.266860	-1.038657	-0.538132
O44	O	0.066473	-0.705323	-0.204798
O45	O	0.399807	-0.371990	0.128535
O46	O	-0.410137	-1.046517	-0.337847
O47	O	-0.076803	-0.713184	-0.004514
O48	O	0.256530	-0.379850	0.328819
O49	O	-0.409904	-0.956753	-0.420683
O50	O	-0.076571	-0.623420	-0.087350
O51	O	0.256763	-0.290087	0.245983
C52	C	-0.287464	-0.819186	-0.371960
C53	C	0.045869	-0.485852	-0.038626
C54	C	0.379202	-0.152519	0.294707
C55	C	-0.285044	-0.741082	-0.368832
C56	C	0.048290	-0.407749	-0.035498
C57	C	0.381623	-0.074416	0.297835
C58	C	-0.318670	-0.702580	-0.412216
C59	C	0.014664	-0.369246	-0.078883
C60	C	0.347997	-0.035913	0.254451
C61	C	-0.316388	-0.629193	-0.409280
C62	C	0.016945	-0.295860	-0.075947
C63	C	0.350278	0.037473	0.257387
C64	C	-0.280483	-0.594311	-0.362956
C65	C	0.052850	-0.260978	-0.029622
C66	C	0.386183	0.072356	0.303711
C67	C	-0.246854	-0.632819	-0.319570
C68	C	0.086479	-0.299486	0.013764
C69	C	0.419813	0.033848	0.347097
C70	C	-0.249133	-0.706204	-0.322510
C71	C	0.084200	-0.372870	0.010824
C72	C	0.417534	-0.039537	0.344157
C73	C	-0.269937	-0.375027	-0.349357
C74	C	0.063397	-0.041694	-0.016023
C75	C	0.396730	0.291639	0.317310
C76	C	-0.267661	-0.301637	-0.346419
C77	C	0.065672	0.031696	-0.013085
C78	C	0.399005	0.365029	0.320248
C79	C	-0.337195	-0.298017	-0.436130
C80	C	-0.003862	0.035317	-0.102797
C81	C	0.329471	0.368650	0.230536
C82	C	-0.339473	-0.371403	-0.439063
C83	C	-0.006140	-0.038070	-0.105730
C84	C	0.327193	0.295263	0.227603
C85	C	-0.305842	-0.409905	-0.395680
C86	C	0.027491	-0.076571	-0.062346
C87	C	0.360825	0.256762	0.270987
N88	N	-0.278152	-0.519298	-0.359952
N89	N	0.055182	-0.185965	-0.026619
N90	N	0.388515	0.147368	0.306714
N91	N	-0.308172	-0.484916	-0.398687
N92	N	0.025162	-0.151583	-0.065354
N93	N	0.358495	0.181751	0.267979
C94	C	-0.428991	-1.001635	-0.379274
C95	C	-0.095658	-0.668302	-0.045941
C96	C	0.237675	-0.334968	0.287393
C97	C	-0.487106	-1.001648	-0.379284
C98	C	-0.153773	-0.668315	-0.045951
C99	C	0.179560	-0.334982	0.287382
C100	C	-0.847588	-1.048606	-0.336260
C101	C	-0.514254	-0.715273	-0.002926
C102	C	-0.180921	-0.381939	0.330407
C103	C	-0.902193	-1.048633	-0.336270
C104	C	-0.568860	-0.715299	-0.002937
C105	C	-0.235526	-0.381966	0.330397
O106	O	-0.930525	-1.088437	-0.299649
O107	O	-0.597192	-0.755103	0.033685
O108	O	-0.263859	-0.421770	0.367018
N109	N	-0.929398	-1.001873	-0.379362
N110	N	-0.596064	-0.668540	-0.046029
N111	N	-0.262731	-0.335207	0.287304
C112	C	-0.901994	-0.955089	-0.422452
C113	C	-0.568661	-0.621756	-0.089119
C114	C	-0.235328	-0.288422	0.244214
O115	O	-0.930148	-0.915319	-0.459107
O116	O	-0.596815	-0.581986	-0.125774
O117	O	-0.263482	-0.248653	0.207559
C118	C	-0.847390	-0.955066	-0.422445
C119	C	-0.514057	-0.621733	-0.089112
C120	C	-0.180724	-0.288399	0.244222
C121	C	-0.820188	-1.001824	-0.379345
C122	C	-0.486855	-0.668490	-0.046011
C123	C	-0.153521	-0.335157	0.287322
C124	C	-0.820385	-1.095360	-0.293163
C125	C	-0.487052	-0.762027	0.040170
C126	C	-0.153719	-0.428693	0.373503
C127	C	-0.765784	-1.095332	-0.293152
C128	C	-0.432450	-0.761999	0.040181
C129	C	-0.099117	-0.428666	0.373515
C130	C	-0.738384	-1.048550	-0.336237
C131	C	-0.405051	-0.715217	-0.002904
C132	C	-0.071717	-0.381883	0.330430
C133	C	-0.765586	-1.001796	-0.379333
C134	C	-0.432253	-0.668462	-0.046000
C135	C	-0.098920	-0.335129	0.287333
C136	C	-0.819988	-0.908286	-0.465538
C137	C	-0.486655	-0.574952	-0.132205
C138	C	-0.153321	-0.241619	0.201128
C139	C	-0.765380	-0.908267	-0.465528
C140	C	-0.432047	-0.574934	-0.132194
C141	C	-0.098714	-0.241600	0.201139
C142	C	-0.738178	-0.955025	-0.422427
C143	C	-0.404845	-0.621691	-0.089094
C144	C	-0.071511	-0.288358	0.244239
C145	C	-0.683585	-0.954986	-0.422407
C146	C	-0.350252	-0.621652	-0.089074
C147	C	-0.016918	-0.288319	0.244259
N148	N	-0.656380	-1.001745	-0.379315
N149	N	-0.323047	-0.668412	-0.045981
N150	N	0.010286	-0.335078	0.287352
C151	C	-0.683780	-1.048527	-0.336230
C152	C	-0.350447	-0.715194	-0.002896
C153	C	-0.017113	-0.381860	0.330437
C154	C	-1.016667	-0.955141	-0.422465
C155	C	-0.683334	-0.621808	-0.089132
C156	C	-0.350000	-0.288475	0.244201
C157	C	-1.071270	-0.955160	-0.422470
C158	C	-0.737937	-0.621827	-0.089136
C159	C	-0.404603	-0.288494	0.244197
C160	C	-1.071465	-1.048705	-0.336288
C161	C	-0.738131	-0.715372	-0.002955
C162	C	-0.404798	-0.382039	0.330379
C163	C	-1.016861	-1.048682	-0.336281
C164	C	-0.683527	-0.715349	-0.002947
C165	C	-0.350194	-0.382016	0.330386
C166	C	-0.989462	-1.001901	-0.379373
C167	C	-0.656129	-0.668567	-0.046040
C168	C	-0.322796	-0.335234	0.287294
C169	C	-0.569112	-1.048464	-0.336209
C170	C	-0.235779	-0.715131	-0.002875
C171	C	0.097554	-0.381798	0.330458
C172	C	-0.514506	-1.048430	-0.336199
C173	C	-0.181172	-0.715097	-0.002866
C174	C	0.152161	-0.381764	0.330467
C175	C	-0.514316	-0.954888	-0.422383
C176	C	-0.180982	-0.621555	-0.089050
C177	C	0.152351	-0.288222	0.244283
C178	C	-0.568918	-0.954920	-0.422390
C179	C	-0.235584	-0.621586	-0.089057
C180	C	0.097749	-0.288253	0.244276
C181	C	-0.596315	-1.001713	-0.379301
C182	C	-0.262981	-0.668380	-0.045968
C183	C	0.070352	-0.335047	0.287366
O184	O	-0.655218	-0.915204	-0.459012
O185	O	-0.321885	-0.581871	-0.125679
O186	O	0.011449	-0.248537	0.207655
O187	O	-0.655620	-1.088296	-0.299588
O188	O	-0.322286	-0.754963	0.033746
O189	O	0.011047	-0.421630	0.367079
C190	C	-0.156786	-1.001888	-0.379364
C191	C	0.176547	-0.668554	-0.046031
C192	C	0.509881	-0.335221	0.287303
C193	C	-0.098674	-1.001946	-0.379387
C194	C	0.234659	-0.668612	-0.046053
C195	C	0.567992	-0.335279	0.287280
C196	C	-0.298371	-0.994421	-0.562590
C197	C	0.034962	-0.661087	-0.229257
C198	C	0.368296	-0.327754	0.104076
C199	C	-0.300594	-0.991296	-0.640693
C200	C	0.032739	-0.657963	-0.307360
C201	C	0.366072	-0.324630	0.025973
C202	C	-0.298862	-0.185031	-0.386683
C203	C	0.034471	0.148302	-0.053350
C204	C	0.367805	0.481636	0.279984
C205	C	-0.301287	-0.263135	-0.389803
C206	C	0.032046	0.070199	-0.056470
C207	C	0.365380	0.403532	0.276864
C208	C	-0.269605	-1.034797	-0.679210
C209	C	0.063728	-0.701464	-0.345876
C210	C	0.397062	-0.368131	-0.012543
C211	C	-0.271692	-1.031853	-0.752595
C212	C	0.061641	-0.698520	-0.419262
C213	C	0.394975	-0.365187	-0.085929
C214	C	-0.304771	-0.985412	-0.787463
C215	C	0.028562	-0.652078	-0.454130
C216	C	0.361896	-0.318745	-0.120796
C217	C	-0.335761	-0.941906	-0.748941
C218	C	-0.002428	-0.608573	-0.415608
C219	C	0.330905	-0.275239	-0.082275
C220	C	-0.333671	-0.944847	-0.675557
C221	C	-0.000338	-0.611513	-0.342224
C222	C	0.332995	-0.278180	-0.008890
C223	C	-0.314454	-0.971790	-1.006743
C224	C	0.018879	-0.638457	-0.673410
C225	C	0.352213	-0.305124	-0.340076
C226	C	-0.316543	-0.968854	-1.080133
C227	C	0.016791	-0.635521	-0.746799
C228	C	0.350124	-0.302188	-0.413466
C229	C	-0.252472	-1.058801	-1.083782
C230	C	0.080861	-0.725468	-0.750448
C231	C	0.414194	-0.392135	-0.417115
C232	C	-0.250388	-1.061741	-1.010396
C233	C	0.082946	-0.728408	-0.677062
C234	C	0.416279	-0.395074	-0.343729
C235	C	-0.281376	-1.018233	-0.971880
C236	C	0.051957	-0.684899	-0.638547
C237	C	0.385291	-0.351566	-0.305214
N238	N	-0.306906	-0.982403	-0.862475
N239	N	0.026427	-0.649069	-0.529142
N240	N	0.359761	-0.315736	-0.195808
N241	N	-0.279238	-1.021238	-0.896870
N242	N	0.054096	-0.687905	-0.563536
N243	N	0.387429	-0.354572	-0.230203
C244	C	-0.287920	-1.009095	-0.196746
C245	C	0.045413	-0.675762	0.136587
C246	C	0.378747	-0.342428	0.469921
C247	C	-0.285553	-1.012355	-0.118649
C248	C	0.047780	-0.679022	0.214684
C249	C	0.381113	-0.345688	0.548018
H250	H	-0.343771	-0.597847	-0.444608
H251	H	-0.010437	-0.264514	-0.111274
H252	H	0.322896	0.068819	0.222059
H253	H	-0.358900	-0.909417	-0.644197
H254	H	-0.025567	-0.576083	-0.310864
H255	H	0.307766	-0.242750	0.022469
H256	H	-0.238417	-0.273238	-0.308700
H257	H	0.094916	0.060095	0.024633
H258	H	0.428250	0.393428	0.357967
H259	H	-0.347909	-0.730975	-0.449936
H260	H	-0.014576	-0.397642	-0.116603
H261	H	0.318758	-0.064309	0.216731
H262	H	-0.491998	-0.916797	-0.457460
H263	H	-0.158665	-0.583463	-0.124127
H264	H	0.174668	-0.250130	0.209206
H265	H	-0.343481	-0.931033	-1.108520
H266	H	-0.010147	-0.597700	-0.775186
H267	H	0.323186	-0.264367	-0.441853
H268	H	-0.242556	-0.406367	-0.314025
H269	H	0.090778	-0.073033	0.019308
H270	H	0.424111	0.260300	0.352641
H271	H	-0.339695	-0.936373	-0.975393
H272	H	-0.006361	-0.603040	-0.642059
H273	H	0.326972	-0.269706	-0.308726
H274	H	-0.362693	-0.904089	-0.777336
H275	H	-0.029360	-0.570756	-0.444003
H276	H	0.303974	-0.237423	-0.110670
H277	H	-0.223453	-1.099561	-0.982012
H278	H	0.109881	-0.766227	-0.648678
H279	H	0.443214	-0.432894	-0.315345
H280	H	-0.364575	-0.266661	-0.471452
H281	H	-0.031242	0.066672	-0.138118
H282	H	0.302091	0.400006	0.195215
H283	H	-0.368712	-0.399799	-0.476784
H284	H	-0.035379	-0.066466	-0.143451
H285	H	0.297954	0.266867	0.189883
H286	H	-0.217617	-0.604412	-0.281854
H287	H	0.115716	-0.271078	0.051479
H288	H	0.449050	0.062255	0.384812
H289	H	-0.227243	-1.094222	-1.115149
H290	H	0.106091	-0.760889	-0.781815
H291	H	0.439424	-0.427556	-0.448482
H292	H	-0.221749	-0.737552	-0.287185
H293	H	0.111585	-0.404218	0.046148
H294	H	0.444918	-0.070885	0.379482
H295	H	-0.591413	-1.086570	-0.301123
H296	H	-0.258079	-0.753237	0.032210
H297	H	0.075254	-0.419903	0.365544
H298	H	-0.492359	-1.086506	-0.301099
H299	H	-0.159026	-0.753173	0.032234
H300	H	0.174307	-0.419839	0.365567
H301	H	-1.093413	-0.917079	-0.457559
H302	H	-0.760080	-0.583746	-0.124226
H303	H	-0.426746	-0.250413	0.209107
H304	H	-0.743639	-1.133408	-0.258058
H305	H	-0.410306	-0.800075	0.075275
H306	H	-0.076972	-0.466741	0.408609
H307	H	-0.842127	-0.870207	-0.500632
H308	H	-0.508793	-0.536874	-0.167299
H309	H	-0.175460	-0.203541	0.166035
H310	H	-0.842688	-1.133460	-0.258078
H311	H	-0.509355	-0.800126	0.075255
H312	H	-0.176022	-0.466793	0.408589
H313	H	-1.093784	-1.086800	-0.301208
H314	H	-0.760450	-0.753467	0.032125
H315	H	-0.427117	-0.420134	0.365459
H316	H	-0.994362	-0.917041	-0.457554
H317	H	-0.661028	-0.583707	-0.124221
H318	H	-0.327695	-0.250374	0.209113
H319	H	-0.994716	-1.086757	-0.301185
H320	H	-0.661382	-0.753423	0.032148
H321	H	-0.328049	-0.420090	0.365482
H322	H	-0.743075	-0.870173	-0.500621
H323	H	-0.409742	-0.536839	-0.167288
H324	H	-0.076409	-0.203506	0.166046
H325	H	-0.591067	-0.916848	-0.457489
H326	H	-0.257733	-0.583515	-0.124155
H327	H	0.075600	-0.250181	0.209178
H328	H	-0.242670	-1.072618	-0.650826
H329	H	0.090663	-0.739284	-0.317493
H330	H	0.423996	-0.405951	0.015841
H331	H	-0.246459	-1.067278	-0.783952
H332	H	0.086875	-0.733945	-0.450619
H333	H	0.420208	-0.400612	-0.117286
