data_functionalizedCrystal
_audit_creation_method	'MofGen! by Chris Wilmer'
_symmetry_space_group_name_H-M	'P1'
_symmetry_Int_Tables_number	1
_symmetry_cell_setting	triclinic
loop_
_symmetry_equiv_pos_as_xyz
  x,y,z
_cell_length_a	14.044220
_cell_length_b	19.188930
_cell_length_c	12.503572
_cell_angle_alpha	93.506241
_cell_angle_beta	86.164750
_cell_angle_gamma	88.166830
loop_
_atom_site_label
_atom_site_type_symbol
_atom_site_fract_x
_atom_site_fract_y
_atom_site_fract_z
O1	O	1.262485	0.164589	-0.089229
O2	O	1.762485	0.664589	0.410771
O3	O	0.986542	0.158515	-0.089255
O4	O	1.486542	0.658515	0.410745
O5	O	1.132475	0.060411	-0.089220
O6	O	1.632475	0.560411	0.410780
O7	O	1.116552	0.262693	-0.089264
O8	O	1.616552	0.762693	0.410736
O9	O	1.121500	0.067803	0.089419
O10	O	1.621500	0.567803	0.589419
O11	O	0.975567	0.165907	0.089384
O12	O	1.475567	0.665907	0.589384
O13	O	1.251510	0.171980	0.089411
O14	O	1.751510	0.671980	0.589411
Cu15	Cu	1.112536	0.169618	0.105709
Cu16	Cu	1.612536	0.669618	0.605709
Cu17	Cu	1.125516	0.160877	-0.105553
Cu18	Cu	1.625516	0.660877	0.394447
O19	O	1.105577	0.270084	0.089376
O20	O	1.605577	0.770084	0.589376
C21	C	0.945752	0.159553	0.000061
C22	C	1.445752	0.659553	0.500061
C23	C	0.840559	0.151624	0.000052
C24	C	1.340559	0.651624	0.500052
C25	C	1.126472	0.038063	0.000102
C26	C	1.626472	0.538063	0.500102
C27	C	1.124923	-0.039541	0.000112
C28	C	1.624923	0.460459	0.500112
C29	C	0.647956	0.137129	0.000077
C30	C	1.147956	0.637129	0.500077
C31	C	0.590090	0.193363	0.000069
C32	C	1.090090	0.693363	0.500069
C33	C	0.482920	0.185298	0.000083
C34	C	0.982920	0.685298	0.500083
C35	C	0.755137	0.145193	0.000063
C36	C	1.255137	0.645193	0.500063
C37	C	1.210552	-0.078939	0.000125
C38	C	1.710552	0.421061	0.500125
C39	C	1.209099	-0.151857	0.000108
C40	C	1.709099	0.348143	0.500108
C41	C	1.122010	-0.185374	0.000098
C42	C	1.622010	0.314626	0.500098
C43	C	1.036370	-0.145968	0.000079
C44	C	1.536370	0.354032	0.500079
C45	C	1.037826	-0.073051	0.000086
C46	C	1.537826	0.426949	0.500086
N47	N	1.051706	-0.295160	0.060886
N48	N	1.551706	0.204840	0.560886
N49	N	1.050328	-0.364427	0.060882
N50	N	1.550328	0.135573	0.560882
C51	C	1.117616	-0.405067	0.000076
C52	C	1.617616	0.094933	0.500076
N53	N	1.186348	-0.373823	-0.060712
N54	N	1.686348	0.126177	0.439288
N55	N	1.187729	-0.304548	-0.060704
N56	N	1.687729	0.195452	0.439296
C57	C	1.120421	-0.264440	0.000091
C58	C	1.620421	0.235560	0.500091
C59	C	1.201676	-0.523532	0.000069
C60	C	1.701676	-0.023532	0.500069
C61	C	1.200219	-0.596451	0.000045
C62	C	1.700219	-0.096451	0.500045
C63	C	1.027487	-0.590560	0.000028
C64	C	1.527487	-0.090560	0.500028
C65	C	1.028947	-0.517642	0.000041
C66	C	1.528947	-0.017642	0.500041
C67	C	1.116043	-0.484132	0.000067
C68	C	1.616043	0.015868	0.500067
C69	C	1.292301	0.170943	0.000092
C70	C	1.792301	0.670943	0.500092
C71	C	1.397493	0.178872	0.000094
C72	C	1.897493	0.678872	0.500094
C73	C	1.111580	0.292433	0.000051
C74	C	1.611580	0.792433	0.500051
C75	C	1.113129	0.370037	0.000034
C76	C	1.613129	0.870037	0.500034
N77	N	1.103414	0.175766	0.254299
N78	N	1.603414	0.675766	0.754299
N79	N	1.134645	0.154724	-0.254143
N80	N	1.634645	0.654724	0.245857
C81	C	1.089995	0.184816	0.473411
C82	C	1.589995	0.684816	0.973411
C83	C	1.148061	0.145676	0.526752
C84	C	1.648061	0.645676	1.026752
C85	C	1.140595	0.150712	0.648673
C86	C	1.640595	0.650712	1.148673
C87	C	1.097461	0.179782	0.351478
C88	C	1.597461	0.679782	0.851478
H89	H	0.621038	0.247564	0.000052
H90	H	1.121038	0.747564	0.500052
C91	C	1.274994	0.060123	0.537767
C92	C	1.774994	0.560123	1.037767
C93	C	1.222747	0.095338	0.464799
C94	C	1.722747	0.595338	0.964799
H95	H	1.321098	0.029046	0.499514
H96	H	1.821098	0.529046	0.999514
H97	H	1.306380	0.093057	0.581623
H98	H	1.806380	0.593057	1.081623
H99	H	1.232937	0.034373	0.581637
H100	H	1.732937	0.534373	1.081637
H101	H	1.264804	0.121092	0.420934
H102	H	1.764804	0.621092	0.920934
H103	H	1.191360	0.062398	0.420924
H104	H	1.691360	0.562398	0.920924
H105	H	0.617011	0.082933	0.000094
H106	H	1.117011	0.582933	0.500094
C107	C	1.354982	-0.509879	-0.091761
C108	C	1.854982	-0.009879	0.408239
C109	C	1.297407	-0.486689	0.000075
C110	C	1.797407	0.013311	0.500075
H111	H	1.414079	-0.487131	-0.091762
H112	H	1.914079	0.012869	0.408238
H113	H	1.366372	-0.558938	-0.091759
H114	H	1.866372	-0.058938	0.408241
H115	H	1.323545	-0.499285	-0.154047
H116	H	1.823545	0.000715	0.345953
H117	H	1.328842	-0.497287	0.062361
H118	H	1.828842	0.002713	0.562361
H119	H	1.286020	-0.437619	0.000082
H120	H	1.786020	0.062381	0.500082
H121	H	1.034680	0.222105	0.519305
H122	H	1.534680	0.722105	1.019305
C123	C	1.381142	-0.092092	0.000146
C124	C	1.881142	0.407908	0.500146
C125	C	1.306288	-0.042106	0.000142
C126	C	1.806288	0.457894	0.500142
H127	H	1.440245	-0.069351	0.000149
H128	H	1.940245	0.430649	0.500149
H129	H	1.373151	-0.117837	0.062436
H130	H	1.873151	0.382163	0.562436
H131	H	1.380802	-0.122982	-0.062156
H132	H	1.880802	0.377018	0.437844
H133	H	1.306624	-0.011220	0.062448
H134	H	1.806624	0.488780	0.562448
H135	H	1.314281	-0.016350	-0.062154
H136	H	1.814281	0.483650	0.437846
C137	C	1.313315	-0.241070	-0.091704
C138	C	1.813315	0.258930	0.408296
C139	C	1.303228	-0.195175	0.000128
C140	C	1.803228	0.304825	0.500128
H141	H	1.371428	-0.267807	-0.091690
H142	H	1.871428	0.232193	0.408310
H143	H	1.261242	-0.271459	-0.091710
H144	H	1.761242	0.228541	0.408290
H145	H	1.314130	-0.215066	-0.153992
H146	H	1.814130	0.284934	0.346008
H147	H	1.302405	-0.221179	0.062417
H148	H	1.802405	0.278821	0.562417
H149	H	1.355314	-0.164782	0.000144
H150	H	1.855314	0.335218	0.500144
C151	C	0.957442	-0.255128	0.000078
C152	C	1.457442	0.244872	0.500078
C153	C	0.940640	-0.182806	0.000074
C154	C	1.440640	0.317194	0.500074
H155	H	0.898339	-0.277868	0.000078
H156	H	1.398339	0.222132	0.500078
H157	H	0.996509	-0.270855	-0.062210
H158	H	1.496509	0.229145	0.437790
H159	H	0.988862	-0.265708	0.062382
H160	H	1.488862	0.234292	0.562382
H161	H	0.909227	-0.172226	-0.062235
H162	H	1.409227	0.327774	0.437765
H163	H	0.901557	-0.167074	0.062368
H164	H	1.401557	0.332926	0.562368
H165	H	0.968095	-0.040973	0.000075
H166	H	1.468095	0.459027	0.500075
H167	H	1.269952	-0.628529	0.000050
H168	H	1.769952	-0.128529	0.500050
C169	C	0.948558	-0.699716	0.000009
C170	C	1.448558	-0.199716	0.500009
C171	C	0.931756	-0.627393	0.000014
C172	C	1.431756	-0.127393	0.500014
H173	H	0.889454	-0.722455	0.000003
H174	H	1.389454	-0.222455	0.500003
H175	H	0.987626	-0.715439	-0.062280
H176	H	1.487626	-0.215439	0.437720
H177	H	0.979975	-0.710300	0.062312
H178	H	1.479975	-0.210300	0.562312
H179	H	0.900344	-0.616808	-0.062293
H180	H	1.400344	-0.116808	0.437707
H181	H	0.892672	-0.611665	0.062309
H182	H	1.392672	-0.111665	0.562309
H183	H	0.959218	-0.485563	0.000036
H184	H	1.459218	0.014437	0.500036
