data_functionalizedCrystal
_audit_creation_method	'MofGen! by Chris Wilmer'
_symmetry_space_group_name_H-M	'P1'
_symmetry_Int_Tables_number	1
_symmetry_cell_setting	triclinic
loop_
_symmetry_equiv_pos_as_xyz
  x,y,z
_cell_length_a	14.044220
_cell_length_b	16.992694
_cell_length_c	15.455313
_cell_angle_alpha	92.857794
_cell_angle_beta	92.908275
_cell_angle_gamma	88.071450
loop_
_atom_site_label
_atom_site_type_symbol
_atom_site_fract_x
_atom_site_fract_y
_atom_site_fract_z
O1	O	0.198159	-1.057683	-0.072025
O2	O	0.195941	-0.829244	-0.072050
O3	O	0.058806	-0.940034	-0.072029
O4	O	0.335294	-0.946893	-0.072046
O5	O	0.066614	-0.933696	0.072232
O6	O	0.203749	-0.822906	0.072211
O7	O	0.205967	-1.051345	0.072236
Cu8	Cu	0.205571	-0.936547	0.085396
Cu9	Cu	0.196337	-0.944042	-0.085210
O10	O	0.343102	-0.940555	0.072215
C11	C	0.027168	-0.933863	0.000101
C12	C	-0.078736	-0.924909	0.000101
C13	C	0.196993	-0.796663	0.000077
C14	C	0.188484	-0.709024	0.000068
C15	C	0.204915	-1.083926	0.000107
C16	C	0.213424	-1.171565	0.000111
C17	C	-0.272638	-0.908540	0.000087
C18	C	-0.325460	-0.972046	0.000092
C19	C	-0.433354	-0.962938	0.000084
C20	C	-0.164734	-0.917647	0.000095
C21	C	0.374740	-0.946726	0.000083
C22	C	0.480644	-0.955680	0.000077
N23	N	0.212065	-0.931281	0.205390
C24	C	0.270581	-0.664526	0.000063
C25	C	0.262581	-0.582179	0.000076
C26	C	0.172483	-0.544332	0.000086
C27	C	0.090381	-0.588836	0.000093
C28	C	0.098382	-0.671181	0.000087
C29	C	0.139322	-0.298414	0.000112
C30	C	0.131327	-0.216063	0.000115
C31	C	0.303528	-0.209411	0.000100
C32	C	0.311521	-0.291759	0.000088
C33	C	0.229419	-0.336255	0.000099
N34	N	0.164304	-0.460161	0.000096
N35	N	0.237599	-0.420425	0.000096
N36	N	0.189836	-0.949314	-0.205204
C37	C	0.153829	-0.978368	0.250793
C38	C	0.158750	-0.974393	0.341600
C39	C	0.221911	-0.923335	0.387003
C40	C	0.280149	-0.876243	0.341594
C41	C	0.275223	-0.880214	0.250788
C42	C	0.243148	-0.906193	0.658581
C43	C	0.248072	-0.902227	0.749393
C44	C	0.126671	-1.000377	0.749394
C45	C	0.121754	-1.004347	0.658586
C46	C	0.179989	-0.957251	0.613185
N47	N	0.226945	-0.919273	0.479822
N48	N	0.174950	-0.961310	0.520367
H49	H	-0.289655	-1.033258	0.000040
H50	H	0.299509	-0.860647	0.786355
H51	H	-0.308444	-0.847335	0.000078
H52	H	0.343947	-0.695334	0.000054
H53	H	0.329433	-0.545952	0.000072
H54	H	0.070323	-1.045922	0.621622
H55	H	0.017022	-0.558015	0.000114
H56	H	0.290567	-0.867847	0.621622
H57	H	0.384887	-0.322568	0.000070
H58	H	0.102401	-1.019948	0.213833
H59	H	0.031530	-0.707411	0.000090
H60	H	0.370371	-0.173174	0.000092
H61	H	0.072468	-0.334634	0.000121
H62	H	0.057956	-0.185251	0.000123
H63	H	0.111329	-1.012735	0.378567
H64	H	0.079258	-1.038719	0.786368
H65	H	0.331573	-0.834666	0.378565
H66	H	0.322643	-0.841869	0.213822
