data_functionalizedCrystal
_audit_creation_method	'MofGen! by Chris Wilmer'
_symmetry_space_group_name_H-M	'P1'
_symmetry_Int_Tables_number	1
_symmetry_cell_setting	triclinic
loop_
_symmetry_equiv_pos_as_xyz
  x,y,z
_cell_length_a	6.817900
_cell_length_b	19.275350
_cell_length_c	12.200875
_cell_angle_alpha	88.648167
_cell_angle_beta	72.856407
_cell_angle_gamma	109.076023
loop_
_atom_site_label
_atom_site_type_symbol
_atom_site_fract_x
_atom_site_fract_y
_atom_site_fract_z
V1	V	-4.095070	-0.101450	0.354570
O2	O	-4.053799	0.004704	0.350996
O3	O	-4.072553	-0.200993	0.349091
O4	O	-4.064401	-0.099964	0.510604
O5	O	-4.062007	-0.097024	0.188365
V6	V	-4.573047	-0.088744	0.335062
O7	O	-4.368495	-0.129322	0.397364
O8	O	-4.749819	-0.060872	0.292268
O9	O	-4.372357	0.010800	0.340541
O10	O	-4.731714	-0.194897	0.338636
O11	O	-4.723506	-0.093169	0.501267
O12	O	-4.380509	-0.090229	0.179028
C13	C	-3.923277	-0.225257	0.342710
C14	C	-3.986271	-0.306636	0.339270
C15	C	-4.184990	0.035060	0.346920
C16	C	-4.099672	0.117966	0.350448
C17	C	-4.037423	-0.372723	0.336466
C18	C	-4.101614	-0.455634	0.332954
V19	V	-4.219197	0.252836	0.345693
O20	O	-4.145922	0.360850	0.339339
O21	O	-4.229995	0.149155	0.346422
O22	O	-4.221211	0.250153	0.507980
O23	O	-4.154766	0.259152	0.176663
V24	V	-4.649844	0.286319	0.294933
O25	O	-4.487630	0.234670	0.373876
O26	O	-4.794550	0.323312	0.238427
O27	O	-4.434212	0.380667	0.308246
O28	O	-4.830853	0.183215	0.293901
O29	O	-4.822008	0.284913	0.456577
O30	O	-4.442996	0.279668	0.146688
C31	C	-3.912877	-0.096384	0.548734
C32	C	-3.969257	-0.095828	0.676272
C33	C	-4.195375	-0.093812	0.140892
C34	C	-4.118232	-0.094364	0.013353
C35	C	-4.255577	0.397775	0.325387
C36	C	-4.152793	0.478283	0.330156
C37	C	-4.088478	0.246799	0.556539
C38	C	-4.165084	0.247332	0.684098
C39	C	-4.072440	-0.094811	0.909777
C40	C	-4.015013	-0.095377	0.779838
C41	C	-4.266782	0.268942	0.119302
C42	C	-4.171122	0.267544	-0.006952
C43	C	-4.280676	0.180538	0.758324
C44	C	-4.352695	0.181029	0.878180
C45	C	-4.309105	0.248313	0.923809
C46	C	-4.193507	0.315112	0.849573
C47	C	-4.121504	0.314621	0.729719
C48	C	-4.223641	0.200656	-0.053155
C49	C	-4.133754	0.199329	-0.171779
C50	C	-3.991362	0.264893	-0.244199
C51	C	-3.938837	0.331786	-0.197987
C52	C	-4.028711	0.333111	-0.079364
H53	H	-4.316181	0.125745	0.721191
C54	C	-4.146294	0.388081	0.899351
C55	C	-4.234042	0.374202	1.020203
C56	C	-4.190555	0.441401	1.066102
H57	H	-4.211128	0.418041	0.870457
H58	H	-3.992416	0.413116	0.877416
H59	H	-4.387890	0.349178	1.042128
H60	H	-4.169223	0.344253	1.049129
H61	H	-4.036677	0.466436	1.044167
H62	H	-4.255391	0.471356	1.037199
H63	H	-4.250067	0.431993	1.148104
C64	C	-3.894127	0.263302	-0.372972
C65	C	-3.970668	0.190690	-0.397928
C66	C	-3.881184	0.189194	-0.516542
H67	H	-3.738911	0.280354	-0.394033
H68	H	-3.936760	0.294485	-0.415446
H69	H	-3.928021	0.159518	-0.355469
H70	H	-4.125873	0.173624	-0.376894
H71	H	-3.923817	0.220377	-0.559016
H72	H	-3.725971	0.206249	-0.537593
H73	H	-3.933119	0.139929	-0.533492
H74	H	-4.339576	0.147264	0.005795
C75	C	-3.995913	0.387220	0.649332
C76	C	-3.973109	0.446242	0.714960
C77	C	-3.857402	0.513134	0.640954
H78	H	-4.073698	0.392361	0.598435
H79	H	-3.855075	0.387423	0.605521
H80	H	-4.113922	0.446040	0.758751
H81	H	-3.895305	0.441126	0.765854
H82	H	-3.716564	0.513337	0.597143
H83	H	-3.935199	0.518267	0.590061
H84	H	-3.841897	0.553188	0.685472
H85	H	-4.176551	0.144856	-0.209387
H86	H	-3.822892	0.385165	-0.256969
H87	H	-4.446809	0.126631	0.938607
H88	H	-4.367738	0.248702	1.021404
H89	H	-3.985940	0.387581	-0.041757
