data_functionalizedCrystal
_audit_creation_method	'MofGen! by Chris Wilmer'
_symmetry_space_group_name_H-M	'P1'
_symmetry_Int_Tables_number	1
_symmetry_cell_setting	triclinic
loop_
_symmetry_equiv_pos_as_xyz
  x,y,z
_cell_length_a	12.645331
_cell_length_b	25.639239
_cell_length_c	12.645323
_cell_angle_alpha	89.968126
_cell_angle_beta	89.977324
_cell_angle_gamma	90.037665
loop_
_atom_site_label
_atom_site_type_symbol
_atom_site_fract_x
_atom_site_fract_y
_atom_site_fract_z
Zn1	Zn	1.620577	-0.208161	-0.599395
Zn2	Zn	1.620393	-0.295600	-0.422113
Zn3	Zn	1.443291	-0.208179	-0.422139
Zn4	Zn	1.443208	-0.295566	-0.599328
O5	O	1.531867	-0.251876	-0.510744
O6	O	1.768900	-0.219767	-0.575895
O7	O	1.596858	-0.284025	-0.273769
O8	O	1.466920	-0.135011	-0.445691
O9	O	1.768765	-0.284008	-0.445647
O10	O	1.597171	-0.134998	-0.575920
O11	O	1.466742	-0.219797	-0.273788
O12	O	1.294933	-0.219764	-0.445627
O13	O	1.466778	-0.283949	-0.747685
O14	O	1.294872	-0.283967	-0.575807
O15	O	1.597090	-0.219734	-0.747733
O16	O	1.596778	-0.368760	-0.445582
O17	O	1.466600	-0.368735	-0.575782
C18	C	1.256438	-0.251864	-0.510713
C19	C	1.138607	-0.251871	-0.510725
C20	C	0.971047	-0.211295	-0.429281
C21	C	1.093606	-0.211400	-0.428922
C22	C	1.094046	-0.306949	-0.480197
C23	C	0.971448	-0.306727	-0.479641
C24	C	0.971468	-0.237893	-0.623013
C25	C	1.094075	-0.236663	-0.622389
C26	C	1.531689	-0.387719	-0.510695
C27	C	1.531710	-0.445833	-0.510710
C28	C	1.599827	-0.806196	-0.443064
C29	C	1.599869	-0.860801	-0.443079
O30	O	1.657600	-0.889038	-0.385511
N31	N	1.532054	-0.888115	-0.510814
C32	C	1.464201	-0.860823	-0.578547
O33	O	1.406523	-0.889070	-0.636163
C34	C	1.464166	-0.806219	-0.578538
C35	C	1.531978	-0.778908	-0.510790
C36	C	1.667635	-0.778884	-0.375323
C37	C	1.667592	-0.724284	-0.375308
C38	C	1.599742	-0.696995	-0.443034
C39	C	1.531935	-0.724307	-0.510775
C40	C	1.396319	-0.778928	-0.646275
C41	C	1.396290	-0.724321	-0.646260
C42	C	1.464102	-0.697009	-0.578513
C43	C	1.464042	-0.642418	-0.578485
N44	N	1.531857	-0.615103	-0.510750
C45	C	1.599707	-0.642392	-0.443024
C46	C	1.464281	-0.975493	-0.578564
C47	C	1.464309	-1.030096	-0.578569
C48	C	1.599979	-1.030070	-0.443101
C49	C	1.599944	-0.975466	-0.443092
C50	C	1.532096	-0.948179	-0.510828
C51	C	1.599611	-0.527727	-0.442997
C52	C	1.599560	-0.473122	-0.442984
C53	C	1.463894	-0.473152	-0.578455
C54	C	1.463942	-0.527753	-0.578464
C55	C	1.531809	-0.555039	-0.510731
O56	O	1.406343	-0.614146	-0.636027
O57	O	1.657385	-0.614138	-0.385428
C58	C	1.808372	-0.251889	-0.510775
C59	C	1.926203	-0.251895	-0.510788
C60	C	1.531945	-0.251836	-0.787249
C61	C	1.531979	-0.251819	-0.905079
C62	C	1.532075	-0.115503	-0.510816
C63	C	1.532164	-0.057389	-0.510846
C64	C	1.449747	-0.292026	-1.072613
C65	C	1.449962	-0.292225	-0.950053
C66	C	1.643667	-0.266773	-0.949595
C67	C	1.643216	-0.267025	-1.072194
C68	C	1.503578	-0.196432	-1.072291
C69	C	1.501086	-0.196764	-0.949684
C70	C	1.531850	-0.251879	-0.235314
C71	C	1.532023	-0.251749	-0.117485
H72	H	1.123209	-0.196132	-0.645409
H73	H	1.409080	-1.052328	-0.633725
H74	H	1.366679	-0.282758	-1.102089
N75	N	1.346060	-0.280483	-0.912302
N76	N	1.272879	-0.272085	-0.976501
H77	H	1.199492	-0.263794	-0.949845
N78	N	1.132478	-0.322092	-0.378371
N79	N	1.112252	-0.294732	-0.299127
H80	H	1.139392	-0.305423	-0.227209
N81	N	1.326996	-0.696448	-0.715468
N82	N	1.333991	-0.702511	-0.813295
H83	H	1.285052	-0.682827	-0.862172
N84	N	0.935510	-0.321625	-0.376719
N85	N	1.000973	-0.332112	-0.305798
H86	H	0.975598	-0.342633	-0.233105
H87	H	1.468338	-0.332779	-1.103422
H88	H	1.654780	-0.450886	-0.387812
H89	H	1.667331	-0.307463	-1.100794
H90	H	1.563505	-0.166423	-1.101312
H91	H	1.468736	-0.333234	-0.920729
N92	N	1.132440	-0.271083	-0.702630
N93	N	1.193499	-0.307546	-0.678717
H94	H	1.220566	-0.331871	-0.735378
N95	N	1.722723	-0.231819	-1.109425
N96	N	1.778372	-0.207144	-1.044862
H97	H	1.834525	-0.182281	-1.071151
H98	H	1.655230	-1.052298	-0.387959
H99	H	0.941613	-0.170330	-0.448212
N100	N	1.722623	-0.231132	-0.913053
N101	N	1.697397	-0.194225	-0.853650
H102	H	1.753157	-0.169052	-0.827840
N103	N	1.130339	-0.223023	-0.324605
N104	N	1.186755	-0.262281	-0.308878
H105	H	1.212698	-0.270492	-0.235201
N106	N	1.668939	-0.555586	-0.373802
N107	N	1.729468	-0.531185	-0.313325
H108	H	1.778426	-0.550859	-0.264450
N109	N	1.669229	-0.947570	-0.373909
N110	N	1.736750	-0.917059	-0.411260
H111	H	1.785687	-0.897359	-0.362399
N112	N	0.932320	-0.222773	-0.325575
N113	N	0.871838	-0.260724	-0.311434
H114	H	0.844485	-0.268832	-0.238192
N115	N	1.736929	-0.806753	-0.306116
N116	N	1.699683	-0.837255	-0.238524
H117	H	1.748620	-0.856934	-0.189635
H118	H	1.123193	-0.338007	-0.537699
N119	N	1.674433	-0.316969	-0.911076
N120	N	1.614296	-0.341815	-0.850852
H121	H	1.636019	-0.377267	-0.823646
H122	H	1.423555	-0.182801	-1.103198
H123	H	1.418894	-0.185486	-0.920588
N124	N	1.570764	-0.157128	-0.911256
N125	N	1.578289	-0.148999	-0.814093
H126	H	1.627507	-0.121009	-0.786946
H127	H	0.942468	-0.267464	-0.683743
N128	N	1.394960	-0.947630	-0.647763
N129	N	1.334421	-0.972029	-0.708232
H130	H	1.285464	-0.952354	-0.757106
H131	H	0.941780	-0.338001	-0.536418
H132	H	1.123737	-0.170558	-0.448058
N133	N	1.736869	-0.696398	-0.306100
N134	N	1.797441	-0.720778	-0.245643
H135	H	1.846374	-0.701088	-0.196762
H136	H	1.341094	-0.801156	-0.701438
H137	H	1.408727	-0.549991	-0.633633
N138	N	1.394588	-0.445264	-0.647616
N139	N	1.394569	-0.396511	-0.647585
H140	H	1.345624	-0.376813	-0.696433
N141	N	0.932733	-0.188391	-0.657834
N142	N	0.871285	-0.162827	-0.600353
H143	H	0.843925	-0.127865	-0.624935
