data_functionalizedCrystal
_audit_creation_method	'MofGen! by Chris Wilmer'
_symmetry_space_group_name_H-M	'P1'
_symmetry_Int_Tables_number	1
_symmetry_cell_setting	triclinic
loop_
_symmetry_equiv_pos_as_xyz
  x,y,z
_cell_length_a	16.992694
_cell_length_b	15.944551
_cell_length_c	16.053802
_cell_angle_alpha	92.564789
_cell_angle_beta	87.249047
_cell_angle_gamma	87.083481
loop_
_atom_site_label
_atom_site_type_symbol
_atom_site_fract_x
_atom_site_fract_y
_atom_site_fract_z
O1	O	1.043704	0.174798	-0.069327
O2	O	0.815419	0.172843	-0.069352
O3	O	0.935795	0.051964	-0.069332
O4	O	0.923328	0.295677	-0.069348
O5	O	0.929169	0.058588	0.069526
O6	O	0.808793	0.179467	0.069506
O7	O	1.037078	0.181422	0.069530
Zn8	Zn	0.921884	0.181497	0.091565
Zn9	Zn	0.930613	0.172769	-0.091386
O10	O	0.916702	0.302301	0.069510
C11	C	0.782894	0.173641	0.000074
C12	C	0.695850	0.166141	0.000065
C13	C	0.931964	0.023948	0.000097
C14	C	0.930413	-0.069402	0.000098
C15	C	0.645613	0.238506	0.000061
C16	C	0.563826	0.231454	0.000073
C17	C	0.532276	0.152037	0.000083
C18	C	0.582519	0.079667	0.000089
C19	C	0.664305	0.086719	0.000083
C20	C	0.288676	0.122807	0.000107
C21	C	0.206884	0.115759	0.000111
C22	C	0.188196	0.267548	0.000095
C23	C	0.269984	0.274593	0.000084
C24	C	0.320220	0.202223	0.000095
N25	N	0.448677	0.144827	0.000092
N26	N	0.403818	0.209434	0.000092
C27	C	0.852090	-0.289513	0.000078
C28	C	0.885194	-0.344825	0.068547
C29	C	0.927606	-0.240317	0.000091
C30	C	0.891744	-0.351338	-0.068356
C31	C	0.924889	-0.405412	0.000081
C32	C	0.960728	-0.294396	0.068617
C33	C	0.967271	-0.300907	-0.068348
C34	C	1.000429	-0.356196	0.000138
C35	C	0.929169	-0.145209	0.000098
C36	C	0.923332	-0.500518	0.000080
C37	C	1.069603	0.180624	0.000103
C38	C	1.156648	0.188124	0.000106
C39	C	0.920533	0.330318	0.000079
C40	C	0.922085	0.423667	0.000073
N41	N	0.915931	0.187453	0.216424
N42	N	0.936572	0.166806	-0.216246
C43	C	0.967170	0.136040	0.260127
C44	C	0.963014	0.140215	0.347533
C45	C	0.907622	0.195808	0.391235
C46	C	0.856378	0.247223	0.347526
C47	C	0.860531	0.243043	0.260121
C48	C	0.889481	0.214042	0.652641
C49	C	0.885333	0.218220	0.740052
C50	C	0.991968	0.111209	0.740053
C51	C	0.996120	0.107038	0.652646
C52	C	0.944873	0.158450	0.608945
N53	N	0.903374	0.200078	0.480578
N54	N	0.949118	0.154175	0.519604
H55	H	0.671294	0.303176	0.000052
C56	C	0.795439	0.308368	0.395601
N57	N	0.749538	0.354423	0.431810
C58	C	1.028106	0.074882	0.212063
N59	N	1.074002	0.028813	0.175863
C60	C	0.508568	0.311062	0.000083
N61	N	0.466947	0.371028	0.000097
H62	H	0.705207	0.027792	0.000086
H63	H	0.295666	0.339262	0.000066
C64	C	1.014115	-0.274547	-0.146544
N65	N	1.049392	-0.254690	-0.205448
H66	H	1.004736	0.098349	0.383115
C67	C	0.767407	-0.250184	0.000162
N68	N	0.703627	-0.220558	0.000231
C69	C	0.132931	0.347149	0.000093
N70	N	0.091304	0.407109	0.000097
H71	H	1.033690	0.069351	0.775642
C72	C	0.852308	-0.385098	-0.146555
N73	N	0.822600	-0.410523	-0.205451
C74	C	1.057051	0.045877	0.604581
N75	N	1.102946	-0.000190	0.568378
H76	H	0.840224	0.263494	0.775630
H77	H	0.181201	0.051085	0.000118
H78	H	0.847755	0.255905	0.617067
H79	H	0.556825	0.015004	0.000110
C80	C	0.343925	0.043196	0.000114
N81	N	0.385542	-0.016770	0.000118
C82	C	0.838312	-0.371159	0.146736
N83	N	0.802996	-0.390991	0.205625
C84	C	1.000103	-0.260766	0.146906
N85	N	1.029757	-0.235434	0.205874
C86	C	1.085178	-0.395314	0.000202
N87	N	1.149009	-0.424780	0.000254
C88	C	0.804170	0.299609	0.212049
N89	N	0.761718	0.342217	0.175842
