data_functionalizedCrystal
_audit_creation_method	'MofGen! by Chris Wilmer'
_symmetry_space_group_name_H-M	'P1'
_symmetry_Int_Tables_number	1
_symmetry_cell_setting	triclinic
loop_
_symmetry_equiv_pos_as_xyz
  x,y,z
_cell_length_a	16.109318
_cell_length_b	17.699104
_cell_length_c	14.586319
_cell_angle_alpha	89.995275
_cell_angle_beta	90.000075
_cell_angle_gamma	83.380040
loop_
_atom_site_label
_atom_site_type_symbol
_atom_site_fract_x
_atom_site_fract_y
_atom_site_fract_z
O1	O	1.102962	0.097346	-0.076166
O2	O	0.860882	0.109439	-0.076185
O3	O	0.988753	-0.006785	-0.076167
O4	O	0.975092	0.213571	-0.076184
O5	O	0.988744	-0.006787	0.076314
O6	O	0.860873	0.109437	0.076296
O7	O	1.102953	0.097344	0.076315
Cu8	Cu	0.981913	0.103391	0.090228
Cu9	Cu	0.981923	0.103393	-0.090098
O10	O	0.975083	0.213569	0.076297
C11	C	0.829904	0.108946	0.000053
C12	C	0.737612	0.107471	0.000046
C13	C	0.438551	0.102706	-0.083054
C14	C	0.525270	0.104087	-0.083060
C15	C	0.525279	0.104075	0.083183
C16	C	0.438562	0.102688	0.083188
C17	C	0.395200	0.102008	0.000066
C18	C	0.568636	0.104776	0.000056
C19	C	0.662660	0.106274	0.000050
C20	C	0.301170	0.100508	0.000071
C21	C	0.988256	-0.034984	0.000074
C22	C	0.986778	-0.119003	0.000074
C23	C	1.053504	-0.643775	0.000053
C24	C	1.054887	-0.564829	0.000062
C25	C	0.979823	-0.516323	0.000058
C26	C	0.903370	-0.546766	0.000055
C27	C	0.901987	-0.625711	0.000053
C28	C	0.908942	-0.228392	0.000063
C29	C	0.910331	-0.149443	0.000062
C30	C	1.061842	-0.167511	0.000071
C31	C	1.060460	-0.246455	0.000070
C32	C	0.984008	-0.276891	0.000072
C33	C	0.982509	-0.362493	0.000065
C34	C	0.981320	-0.430722	0.000058
C35	C	1.133932	0.097837	0.000075
C36	C	1.226224	0.099313	0.000076
C37	C	0.975580	0.241767	0.000054
C38	C	0.977057	0.325787	0.000048
N39	N	0.981911	0.103389	0.217060
N40	N	0.981931	0.103389	-0.216930
C41	C	1.038551	0.051942	0.452074
C42	C	1.038553	0.051940	0.548056
C43	C	0.925285	0.154838	0.548049
C44	C	0.925280	0.154836	0.452069
C45	C	0.981917	0.103388	0.404085
C46	C	0.981925	0.103389	0.596045
C47	C	0.981927	0.103387	0.700113
C48	C	0.981914	0.103389	0.300011
H49	H	1.117138	-0.540051	0.000067
H50	H	0.403265	0.102119	0.150879
H51	H	0.403248	0.102151	-0.150737
O52	O	1.144303	-0.134678	0.000072
H53	H	1.196266	-0.181671	0.000060
H54	H	0.879157	0.196730	0.412994
O55	O	0.826484	-0.261210	0.000063
H56	H	0.822230	-0.296747	-0.062080
O57	O	0.572030	0.104845	-0.172711
H58	H	0.527305	0.104145	-0.230505
H59	H	0.560595	0.104631	0.150857
O60	O	0.829364	-0.097122	0.000064
H61	H	0.826381	-0.060723	0.062209
O62	O	0.864214	0.210338	0.599807
H63	H	0.799420	0.200676	0.581402
H64	H	1.114631	-0.683264	0.000049
O65	O	1.141421	-0.298774	0.000084
H66	H	1.194814	-0.264345	0.000100
O67	O	0.822403	-0.494454	0.000053
H68	H	0.836206	-0.434445	0.000046
H69	H	0.839737	-0.650492	0.000056
O70	O	1.099646	-0.003548	0.599808
H71	H	1.064731	-0.040354	0.643536
H72	H	1.084667	0.010049	0.413007
