data_functionalizedCrystal
_audit_creation_method	'MofGen! by Chris Wilmer'
_symmetry_space_group_name_H-M	'P1'
_symmetry_Int_Tables_number	1
_symmetry_cell_setting	triclinic
loop_
_symmetry_equiv_pos_as_xyz
  x,y,z
_cell_length_a	8.634740
_cell_length_b	11.792254
_cell_length_c	7.088929
_cell_angle_alpha	83.733108
_cell_angle_beta	97.174675
_cell_angle_gamma	92.384452
loop_
_atom_site_label
_atom_site_type_symbol
_atom_site_fract_x
_atom_site_fract_y
_atom_site_fract_z
O1	O	2.033433	0.380328	-0.159001
O2	O	1.584219	0.349270	-0.159003
O3	O	1.819718	0.200770	-0.158988
O4	O	1.797934	0.528828	-0.159016
O5	O	1.851190	0.180872	0.158989
O6	O	1.615691	0.329372	0.158974
O7	O	2.064905	0.360430	0.158976
Cu8	Cu	1.843171	0.343084	0.188009
Cu9	Cu	1.805953	0.366616	-0.188036
O10	O	1.829405	0.508929	0.158961
C11	C	1.542446	0.332285	-0.000014
C12	C	1.371086	0.311307	-0.000014
C13	C	1.834082	0.148386	-0.000000
C14	C	1.829975	0.021943	-0.000002
C15	C	1.826637	-0.080743	-0.000009
C16	C	1.822463	-0.209566	-0.000027
C17	C	2.106678	0.377415	-0.000017
C18	C	2.278037	0.398394	-0.000029
C19	C	1.815041	0.561313	-0.000031
C20	C	1.819147	0.687757	-0.000041
N21	N	1.869360	0.326533	0.452498
N22	N	1.779776	0.383159	-0.452525
H23	H	1.329471	0.489000	-0.000019
H24	H	1.319641	0.220697	-0.000062
H25	H	1.686932	0.441838	0.465823
C26	C	1.994806	0.247260	0.562801
C27	C	2.098584	0.181661	0.452945
C28	C	2.224027	0.102389	0.563247
C29	C	2.245692	0.088718	0.783406
C30	C	2.141911	0.154319	0.893275
C31	C	2.016468	0.233591	0.782972
H32	H	2.082549	0.191779	0.289959
H33	H	2.300853	0.053827	0.481914
H34	H	2.338553	0.030036	0.865058
H35	H	2.157946	0.144201	1.056260
H36	H	1.939642	0.282153	0.864306
