data_functionalizedCrystal
_audit_creation_method	'MofGen! by Chris Wilmer'
_symmetry_space_group_name_H-M	'P1'
_symmetry_Int_Tables_number	1
_symmetry_cell_setting	triclinic
loop_
_symmetry_equiv_pos_as_xyz
  x,y,z
_cell_length_a	14.853566
_cell_length_b	11.792254
_cell_length_c	13.330367
_cell_angle_alpha	89.995204
_cell_angle_beta	89.995295
_cell_angle_gamma	83.916506
loop_
_atom_site_label
_atom_site_type_symbol
_atom_site_fract_x
_atom_site_fract_y
_atom_site_fract_z
O1	O	1.196952	0.148174	-0.083358
O2	O	1.696952	0.648174	0.416642
O3	O	0.934561	0.165827	-0.083374
O4	O	1.434561	0.665827	0.416626
O5	O	1.072118	-0.008209	-0.083358
O6	O	1.572118	0.491791	0.416642
O7	O	1.059395	0.322209	-0.083373
O8	O	1.559395	0.822209	0.416627
O9	O	1.072098	-0.008213	0.083489
O10	O	1.572098	0.491787	0.583489
O11	O	0.934541	0.165823	0.083473
O12	O	1.434541	0.665823	0.583473
O13	O	1.196932	0.148170	0.083490
O14	O	1.696932	0.648170	0.583490
Cu15	Cu	1.065735	0.156996	0.098716
Cu16	Cu	1.565735	0.656996	0.598716
Cu17	Cu	1.065758	0.157001	-0.098600
Cu18	Cu	1.565758	0.657001	0.401400
O19	O	1.059375	0.322205	0.083474
O20	O	1.559375	0.822205	0.583474
C21	C	0.900960	0.165025	0.000047
C22	C	1.400960	0.665025	0.500047
C23	C	0.800866	0.162629	0.000041
C24	C	1.300866	0.662629	0.500041
C25	C	0.377653	0.152496	-0.090889
C26	C	0.877653	0.652496	0.409111
C27	C	0.377652	0.152493	0.091014
C28	C	0.877652	0.652493	0.591014
C29	C	0.471695	0.154743	0.091011
C30	C	0.971695	0.654743	0.591011
C31	C	0.518721	0.155871	0.000056
C32	C	1.018721	0.655871	0.500056
C33	C	0.471704	0.154750	-0.090895
C34	C	0.971704	0.654750	0.409105
C35	C	0.518718	0.155876	0.181961
C36	C	1.018718	0.655876	0.681961
C37	C	0.612766	0.158128	0.181961
C38	C	1.112766	0.658128	0.681961
C39	C	0.659795	0.159248	0.091005
C40	C	1.159795	0.659248	0.591005
C41	C	0.612772	0.158125	0.000050
C42	C	1.112772	0.658125	0.500050
C43	C	0.659798	0.159254	-0.090904
C44	C	1.159798	0.659254	0.409096
C45	C	0.612778	0.158123	-0.181861
C46	C	1.112778	0.658123	0.318139
C47	C	0.518732	0.155870	-0.181851
C48	C	1.018732	0.655870	0.318149
C49	C	0.753840	0.161501	0.090996
C50	C	1.253840	0.661501	0.590996
C51	C	0.753849	0.161508	-0.090910
C52	C	1.253849	0.661508	0.409090
C53	C	1.071307	-0.050496	0.000065
C54	C	1.571307	0.449504	0.500065
C55	C	1.068908	-0.176495	0.000064
C56	C	1.568908	0.323505	0.500064
C57	C	1.066959	-0.278819	0.000060
C58	C	1.566959	0.221181	0.500060
C59	C	1.064521	-0.407191	0.000051
C60	C	1.564521	0.092809	0.500051
C61	C	1.230534	0.148971	0.000066
C62	C	1.730534	0.648971	0.500066
C63	C	1.330627	0.151367	0.000065
C64	C	1.830627	0.651367	0.500065
C65	C	1.060186	0.364493	0.000048
C66	C	1.560186	0.864493	0.500048
C67	C	1.062585	0.490491	0.000043
C68	C	1.562585	0.990491	0.500043
N69	N	1.065725	0.156992	0.237497
N70	N	1.565725	0.656992	0.737497
N71	N	1.065776	0.156996	-0.237382
N72	N	1.565776	0.656996	0.262618
C73	C	1.004846	0.234033	0.710113
C74	C	1.504846	0.734033	1.210113
C75	C	1.126696	0.079959	0.710095
C76	C	1.626696	0.579959	1.210095
C77	C	1.126685	0.079956	0.605077
C78	C	1.626685	0.579956	1.105077
C79	C	1.065755	0.156993	0.552572
C80	C	1.565755	0.656993	1.052572
C81	C	1.004835	0.234034	0.605085
C82	C	1.504835	0.734034	1.105085
C83	C	1.187610	0.002924	0.552556
C84	C	1.687610	0.502924	1.052556
C85	C	1.187603	0.002918	0.447531
C86	C	1.687603	0.502918	0.947531
C87	C	1.126668	0.079951	0.395024
C88	C	1.626668	0.579951	0.895024
C89	C	1.065745	0.156994	0.447544
C90	C	1.565745	0.656994	0.947544
C91	C	1.004815	0.234032	0.395039
C92	C	1.504815	0.734032	0.895039
C93	C	0.943887	0.311071	0.447556
C94	C	1.443887	0.811071	0.947556
C95	C	0.943900	0.311068	0.552578
C96	C	1.443900	0.811068	1.052578
C97	C	1.126655	0.079954	0.290002
C98	C	1.626655	0.579954	0.790002
C99	C	1.004805	0.234033	0.290010
C100	C	1.504805	0.734033	0.790010
H101	H	0.480422	0.154965	0.256011
H102	H	0.980422	0.654965	0.756011
H103	H	0.651043	0.159046	0.256023
H104	H	1.151043	0.659046	0.756023
H105	H	0.480440	0.154948	-0.255902
H106	H	0.980440	0.654948	0.244098
H107	H	0.792119	0.162433	0.165051
H108	H	1.292119	0.662433	0.665051
O109	O	0.878169	0.394166	0.390929
O110	O	1.378169	0.894166	0.890929
H111	H	0.807824	0.379541	0.411105
H112	H	1.307824	0.879541	0.911105
H113	H	0.955184	0.296763	0.247267
H114	H	1.455184	0.796763	0.747267
H115	H	0.894295	0.373791	0.595345
H116	H	1.394295	0.873791	1.095345
H117	H	1.237222	-0.059793	0.595308
H118	H	1.737222	0.440207	1.095308
O119	O	0.663507	0.159346	-0.279957
O120	O	1.163507	0.659346	0.220043
H121	H	0.615017	0.158189	-0.343205
H122	H	1.115017	0.658189	0.156795
H123	H	0.955236	0.296754	0.752876
H124	H	1.455236	0.796754	1.252876
H125	H	0.339365	0.151571	-0.164943
H126	H	0.839365	0.651571	0.335057
O127	O	1.192412	-0.003128	0.766717
O128	O	1.692412	0.496872	1.266717
H129	H	1.182182	0.009811	0.848569
H130	H	1.682182	0.509811	1.348569
O131	O	1.253304	-0.080180	0.390887
O132	O	1.753304	0.419820	0.890887
H133	H	1.295668	-0.133755	0.445043
H134	H	1.795668	0.366245	0.945043
O135	O	1.192358	-0.003128	0.233354
O136	O	1.692358	0.496872	0.733354
H137	H	1.234726	-0.056699	0.287508
H138	H	1.734726	0.443301	0.787508
H139	H	0.792132	0.162423	-0.164978
H140	H	1.292132	0.662423	0.335022
H141	H	0.339357	0.151581	0.165065
H142	H	0.839357	0.651581	0.665065
