data_functionalizedCrystal
_audit_creation_method	'MofGen! by Chris Wilmer'
_symmetry_space_group_name_H-M	'P1'
_symmetry_Int_Tables_number	1
_symmetry_cell_setting	triclinic
loop_
_symmetry_equiv_pos_as_xyz
  x,y,z
_cell_length_a	23.532357
_cell_length_b	15.995300
_cell_length_c	22.010155
_cell_angle_alpha	89.982707
_cell_angle_beta	89.989917
_cell_angle_gamma	83.150049
loop_
_atom_site_label
_atom_site_type_symbol
_atom_site_fract_x
_atom_site_fract_y
_atom_site_fract_z
O1	O	0.073272	1.110397	-0.050555
O2	O	0.406605	1.443730	0.282778
O3	O	0.739938	1.777064	0.616112
O4	O	0.082367	0.866538	-0.050552
O5	O	0.415700	1.199871	0.282781
O6	O	0.749033	1.533204	0.616114
O7	O	-0.005087	0.995843	-0.050541
O8	O	0.328246	1.329176	0.282792
O9	O	0.661580	1.662509	0.616126
O10	O	0.160725	0.981092	-0.050566
O11	O	0.494059	1.314425	0.282767
O12	O	0.827392	1.647759	0.616101
O13	O	-0.005087	0.995804	0.050509
O14	O	0.328246	1.329137	0.383843
O15	O	0.661579	1.662471	0.717176
O16	O	0.082367	0.866499	0.050498
O17	O	0.415700	1.199832	0.383831
O18	O	0.749033	1.533166	0.717165
O19	O	0.073271	1.110358	0.050495
O20	O	0.406605	1.443691	0.383829
O21	O	0.739938	1.777025	0.717162
Cu22	Cu	0.077819	0.988425	0.059723
Cu23	Cu	0.411152	1.321758	0.393057
Cu24	Cu	0.744486	1.655092	0.726390
Cu25	Cu	0.077819	0.988471	-0.059780
Cu26	Cu	0.411152	1.321804	0.273553
Cu27	Cu	0.744486	1.655138	0.606886
O28	O	0.160725	0.981053	0.050484
O29	O	0.494059	1.314387	0.383818
O30	O	0.827392	1.647720	0.717151
C31	C	-0.026305	0.995454	-0.000014
C32	C	0.307028	1.328788	0.333319
C33	C	0.640362	1.662121	0.666653
C34	C	-0.089528	0.994345	-0.000008
C35	C	0.243806	1.327678	0.333325
C36	C	0.577139	1.661012	0.666658
C37	C	0.081996	0.835326	-0.000026
C38	C	0.415329	1.168659	0.333307
C39	C	0.748662	1.501993	0.666640
C40	C	0.080884	0.742383	-0.000025
C41	C	0.414217	1.075716	0.333308
C42	C	0.747550	1.409050	0.666642
C43	C	-0.481565	0.987402	-0.055124
C44	C	-0.148232	1.320735	0.278210
C45	C	0.185102	1.654069	0.611543
C46	C	-0.540968	0.986348	-0.055127
C47	C	-0.207635	1.319681	0.278206
C48	C	0.125698	1.653014	0.611540
O49	O	-0.571687	0.985792	-0.101973
O50	O	-0.238353	1.319125	0.231361
O51	O	0.094980	1.652458	0.564694
N52	N	-0.570682	0.985804	-0.000045
N53	N	-0.237348	1.319137	0.333288
N54	N	0.095985	1.652470	0.666621
C55	C	-0.540988	0.986306	0.055044
C56	C	-0.207654	1.319639	0.388377
C57	C	0.125679	1.652972	0.721710
O58	O	-0.571716	0.985745	0.101895
O59	O	-0.238382	1.319079	0.435228
O60	O	0.094951	1.652412	0.768561
C61	C	-0.481585	0.987354	0.055046
C62	C	-0.148251	1.320687	0.388380
C63	C	0.185082	1.654021	0.721713
C64	C	-0.451875	0.987907	-0.000039
C65	C	-0.118542	1.321240	0.333294
C66	C	0.214791	1.654573	0.666628
C67	C	-0.451855	0.987954	-0.110205
C68	C	-0.118522	1.321287	0.223129
C69	C	0.214811	1.654620	0.556462
C70	C	-0.392456	0.989010	-0.110201
C71	C	-0.059123	1.322343	0.223132
C72	C	0.274210	1.655676	0.556466
C73	C	-0.362767	0.989514	-0.055116
C74	C	-0.029433	1.322847	0.278217
C75	C	0.303900	1.656181	0.611550
C76	C	-0.392476	0.988963	-0.000035
C77	C	-0.059143	1.322296	0.333298
C78	C	0.274190	1.655629	0.666631
C79	C	-0.451891	0.987850	0.110135
C80	C	-0.118558	1.321183	0.443468
C81	C	0.214775	1.654517	0.776801
C82	C	-0.392484	0.988898	0.110133
C83	C	-0.059151	1.322231	0.443466
C84	C	0.274182	1.655565	0.776799
C85	C	-0.362775	0.989450	0.055047
C86	C	-0.029442	1.322784	0.388381
C87	C	0.303892	1.656117	0.721714
C88	C	-0.303388	0.990523	0.055053
C89	C	0.029946	1.323856	0.388386
C90	C	0.363279	1.657190	0.721720
N91	N	-0.273674	0.991067	-0.000029
N92	N	0.059659	1.324400	0.333304
N93	N	0.392992	1.657734	0.666638
C94	C	-0.303364	0.990563	-0.055113
C95	C	0.029969	1.323896	0.278220
C96	C	0.363303	1.657229	0.611553
C97	C	-0.665737	0.984102	0.055033
C98	C	-0.332404	1.317436	0.388367
C99	C	0.000929	1.650769	0.721700
C100	C	-0.725140	0.983060	0.055031
C101	C	-0.391806	1.316393	0.388365
C102	C	-0.058473	1.649726	0.721698
C103	C	-0.725116	0.983100	-0.055140
C104	C	-0.391783	1.316434	0.278194
C105	C	-0.058450	1.649767	0.611527
C106	C	-0.665713	0.984149	-0.055137
C107	C	-0.332380	1.317482	0.278197
C108	C	0.000953	1.650815	0.611530
C109	C	-0.636024	0.984646	-0.000048
C110	C	-0.302691	1.317980	0.333285
C111	C	0.030643	1.651313	0.666618
C112	C	-0.178621	0.992781	-0.055102
C113	C	0.154712	1.326114	0.278232
C114	C	0.488045	1.659448	0.611565
C115	C	-0.119217	0.993841	-0.055093
C116	C	0.214116	1.327174	0.278240
C117	C	0.547449	1.660507	0.611574
C118	C	-0.119246	0.993796	0.055078
C119	C	0.214088	1.327129	0.388411
C120	C	0.547421	1.660462	0.721744
C121	C	-0.178645	0.992741	0.055069
C122	C	0.154688	1.326074	0.388403
C123	C	0.488022	1.659407	0.721736
C124	C	-0.208331	0.992230	-0.000025
C125	C	0.125002	1.325564	0.333308
C126	C	0.458336	1.658897	0.666642
O127	O	-0.272631	0.991076	0.101875
O128	O	0.060702	1.324409	0.435208
O129	O	0.394036	1.657743	0.768541
O130	O	-0.272628	0.991112	-0.101957
O131	O	0.060706	1.324445	0.231377
O132	O	0.394039	1.657779	0.564710
C133	C	0.078830	0.572218	-0.000029
C134	C	0.412163	0.905551	0.333304
C135	C	0.745496	1.238884	0.666637
C136	C	0.141099	0.524217	-0.000037
C137	C	0.474432	0.857551	0.333296
C138	C	0.807765	1.190884	0.666630
C139	C	0.139963	0.427539	-0.000268
C140	C	0.473296	0.760873	0.333065
C141	C	0.806629	1.094206	0.666399
C142	C	0.076808	0.404678	-0.000033
C143	C	0.410142	0.738012	0.333300
C144	C	0.743475	1.071345	0.666634
C145	C	0.045915	0.446098	-0.057619
C146	C	0.379248	0.779432	0.275714
C147	C	0.712581	1.112765	0.609048
C148	C	0.047490	0.542718	-0.057666
C149	C	0.380824	0.876051	0.275667
C150	C	0.714157	1.209385	0.609001
C151	C	0.046568	0.542961	0.057251
C152	C	0.379902	0.876294	0.390584
C153	C	0.713235	1.209628	0.723918
C154	C	0.046574	0.446016	0.058007
C155	C	0.379907	0.779350	0.391340
C156	C	0.713241	1.112683	0.724673
C157	C	0.075663	0.309993	-0.000037
C158	C	0.408996	0.643326	0.333296
C159	C	0.742329	0.976659	0.666630
C160	C	0.079974	0.666903	-0.000029
C161	C	0.413307	1.000237	0.333304
C162	C	0.746640	1.333570	0.666637
C163	C	0.181943	0.981442	-0.000044
C164	C	0.515277	1.314775	0.333289
C165	C	0.848610	1.648108	0.666623
C166	C	0.245166	0.982551	-0.000054
C167	C	0.578499	1.315884	0.333280
C168	C	0.911833	1.649218	0.666613
C169	C	0.073642	1.141570	-0.000032
C170	C	0.406976	1.474903	0.333302
C171	C	0.740309	1.808236	0.666635
C172	C	0.074755	1.234513	-0.000037
C173	C	0.408088	1.567846	0.333296
C174	C	0.741421	1.901180	0.666629
N175	N	0.077819	0.988399	0.143776
N176	N	0.411152	1.321732	0.477109
N177	N	0.744485	1.655066	0.810443
N178	N	0.077815	0.988504	-0.143833
N179	N	0.411148	1.321837	0.189501
N180	N	0.744482	1.655170	0.522834
C181	C	0.112369	1.038957	0.563549
C182	C	0.445702	1.372291	0.896883
C183	C	0.779035	1.705624	1.230216
C184	C	0.112367	1.038967	0.627157
C185	C	0.445700	1.372301	0.960490
C186	C	0.779034	1.705634	1.293824
O187	O	0.141739	1.081924	0.660043
O188	O	0.475072	1.415257	0.993377
O189	O	0.808406	1.748591	1.326710
N190	N	0.077813	0.988487	0.658983
N191	N	0.411146	1.321821	0.992316
N192	N	0.744479	1.655154	1.325650
C193	C	0.043253	0.938000	0.627198
C194	C	0.376586	1.271334	0.960532
C195	C	0.709920	1.604667	1.293865
O196	O	0.013861	0.895065	0.660110
O197	O	0.347195	1.228398	0.993443
O198	O	0.680528	1.561731	1.326776
C199	C	0.043252	0.937996	0.563592
C200	C	0.376585	1.271329	0.896925
C201	C	0.709918	1.604662	1.230258
C202	C	0.077813	0.988473	0.531769
C203	C	0.411146	1.321806	0.865102
C204	C	0.744479	1.655139	1.198436
C205	C	0.146926	1.089431	0.531727
C206	C	0.480260	1.422764	0.865060
C207	C	0.813593	1.756098	1.198393
C208	C	0.146928	1.089420	0.468123
C209	C	0.480262	1.422753	0.801457
C210	C	0.813595	1.756086	1.134790
C211	C	0.112373	1.038935	0.436343
C212	C	0.445706	1.372268	0.769676
C213	C	0.779039	1.705602	1.103010
C214	C	0.077815	0.988461	0.468166
C215	C	0.411148	1.321795	0.801499
C216	C	0.744482	1.655128	1.134832
C217	C	0.008689	0.887514	0.531808
C218	C	0.342023	1.220847	0.865142
C219	C	0.675356	1.554181	1.198475
C220	C	0.008691	0.887514	0.468197
C221	C	0.342024	1.220847	0.801531
C222	C	0.675357	1.554181	1.134864
C223	C	0.043252	0.937991	0.436375
C224	C	0.376585	1.271324	0.769708
C225	C	0.709919	1.604658	1.103041
C226	C	0.043261	0.937965	0.372782
C227	C	0.376595	1.271299	0.706116
C228	C	0.709928	1.604632	1.039449
N229	N	0.077816	0.988445	0.340956
N230	N	0.411149	1.321779	0.674289
N231	N	0.744482	1.655112	1.007623
C232	C	0.112371	1.038930	0.372737
C233	C	0.445705	1.372263	0.706070
C234	C	0.779038	1.705597	1.039403
C235	C	0.043257	0.938015	0.760776
C236	C	0.376591	1.271349	1.094109
C237	C	0.709924	1.604682	1.427443
C238	C	0.043261	0.938015	0.824381
C239	C	0.376595	1.271348	1.157715
C240	C	0.709928	1.604682	1.491048
C241	C	0.112375	1.038983	0.824336
C242	C	0.445708	1.372317	1.157669
C243	C	0.779042	1.705650	1.491002
C244	C	0.112374	1.038979	0.760729
C245	C	0.445707	1.372312	1.094063
C246	C	0.779040	1.705645	1.427396
C247	C	0.077812	0.988496	0.728950
C248	C	0.411145	1.321829	1.062283
C249	C	0.744479	1.655162	1.395617
C250	C	0.112373	1.038902	0.239165
C251	C	0.445707	1.372235	0.572499
C252	C	0.779040	1.705569	0.905832
C253	C	0.112374	1.038884	0.175556
C254	C	0.445708	1.372217	0.508890
C255	C	0.779041	1.705550	0.842223
C256	C	0.043259	0.937919	0.175608
C257	C	0.376592	1.271253	0.508941
C258	C	0.709925	1.604586	0.842274
C259	C	0.043260	0.937934	0.239211
C260	C	0.376593	1.271267	0.572544
C261	C	0.709927	1.604601	0.905878
C262	C	0.077819	0.988432	0.270988
C263	C	0.411152	1.321765	0.604321
C264	C	0.744486	1.655099	0.937655
O265	O	0.013903	0.895033	0.339855
O266	O	0.347236	1.228367	0.673189
O267	O	0.680569	1.561700	1.006522
O268	O	0.141753	1.081867	0.339818
O269	O	0.475086	1.415200	0.673151
O270	O	0.808419	1.748534	1.006484
H271	H	-0.202785	0.992362	-0.099965
H272	H	0.130549	1.325695	0.233369
H273	H	0.463882	1.659028	0.566702
O274	O	0.174251	0.548413	0.054649
O275	O	0.507585	0.881747	0.387983
O276	O	0.840918	1.215080	0.721316
H277	H	0.152040	0.532050	0.096732
H278	H	0.485373	0.865383	0.430066
H279	H	0.818707	1.198716	0.763399
H280	H	-0.095062	0.994210	0.099926
H281	H	0.238271	1.327543	0.433259
H282	H	0.571605	1.660877	0.766593
O283	O	-0.014417	0.426220	0.062851
O284	O	0.318916	0.759554	0.396184
O285	O	0.652250	1.092887	0.729518
H286	H	-0.034478	0.456324	0.104277
H287	H	0.298855	0.789657	0.437610
H288	H	0.632188	1.122990	0.770944
O289	O	-0.028615	0.833100	0.433925
O290	O	0.304718	1.166433	0.767258
O291	O	0.638051	1.499767	1.100592
H292	H	-0.022825	0.841588	0.384348
H293	H	0.310508	1.174921	0.717681
H294	H	0.643842	1.508255	1.051015
H295	H	0.140521	1.079988	0.149649
H296	H	0.473854	1.413321	0.482982
H297	H	0.807187	1.746655	0.816316
O298	O	0.173749	0.549925	-0.054670
O299	O	0.507082	0.883259	0.278664
O300	O	0.840415	1.216592	0.611997
H301	H	0.212095	0.578238	-0.039269
H302	H	0.545428	0.911572	0.294065
H303	H	0.878762	1.244905	0.627398
H304	H	0.164238	0.398852	0.041003
H305	H	0.497571	0.732185	0.374336
H306	H	0.830904	1.065519	0.707669
H307	H	0.140514	1.080023	0.265031
H308	H	0.473848	1.413356	0.598364
H309	H	0.807181	1.746690	0.931697
H310	H	0.015115	0.896898	0.734905
H311	H	0.348449	1.230231	1.068239
H312	H	0.681782	1.563565	1.401572
O313	O	0.005974	0.883471	0.141342
O314	O	0.339308	1.216804	0.474676
O315	O	0.672641	1.550138	0.808009
H316	H	-0.039534	0.902105	0.153573
H317	H	0.293800	1.235438	0.486907
H318	H	0.627133	1.568771	0.820240
O319	O	-0.633674	0.984731	-0.114552
O320	O	-0.300341	1.318065	0.218781
O321	O	0.032993	1.651398	0.552115
H322	H	-0.611697	1.042288	-0.117195
H323	H	-0.278363	1.375622	0.216138
H324	H	0.054970	1.708955	0.549471
H325	H	0.015125	0.896821	0.265122
H326	H	0.348458	1.230154	0.598456
H327	H	0.681791	1.563487	0.931789
H328	H	-0.095031	0.994292	-0.099952
H329	H	0.238302	1.327626	0.233381
H330	H	0.571636	1.660959	0.566715
O331	O	0.171998	0.390425	-0.055274
O332	O	0.505332	0.723758	0.278059
O333	O	0.838665	1.057091	0.611393
H334	H	0.142699	0.357943	-0.084040
H335	H	0.476032	0.691277	0.249294
H336	H	0.809366	1.024610	0.582627
O337	O	-0.483869	0.987410	-0.169625
O338	O	-0.150536	1.320743	0.163709
O339	O	0.182798	1.654077	0.497042
H340	H	-0.530168	0.986583	-0.160385
H341	H	-0.196835	1.319916	0.172948
H342	H	0.136498	1.653250	0.506281
H343	H	-0.749300	0.982687	-0.099993
H344	H	-0.415967	1.316020	0.233341
H345	H	-0.082633	1.649353	0.566674
O346	O	-0.210687	0.992162	0.114486
O347	O	0.122647	1.325495	0.447819
O348	O	0.455980	1.658828	0.781153
H349	H	-0.242835	1.048762	0.117121
H350	H	0.090498	1.382095	0.450455
H351	H	0.423831	1.715428	0.783788
O352	O	0.005981	0.883565	0.858690
O353	O	0.339314	1.216898	1.192023
O354	O	0.672648	1.550232	1.525356
H355	H	0.033262	0.838318	0.887675
H356	H	0.366596	1.171652	1.221008
H357	H	0.699929	1.504985	1.554342
O358	O	0.184202	1.143866	0.433803
O359	O	0.517536	1.477200	0.767136
O360	O	0.850869	1.810533	1.100470
H361	H	0.208224	1.178974	0.466596
H362	H	0.541557	1.512307	0.799930
H363	H	0.874891	1.845640	1.133263
O364	O	-0.757182	0.982471	0.114444
O365	O	-0.423849	1.315805	0.447777
O366	O	-0.090516	1.649138	0.781111
H367	H	-0.726551	0.982994	0.152745
H368	H	-0.393218	1.316327	0.486078
H369	H	-0.059884	1.649660	0.819412
H370	H	0.069756	0.560863	-0.100883
H371	H	0.403089	0.894196	0.232451
H372	H	0.736422	1.227529	0.565784
O373	O	-0.013073	0.585999	-0.060920
O374	O	0.320260	0.919332	0.272413
O375	O	0.653593	1.252666	0.605746
H376	H	-0.043356	0.537890	-0.062458
H377	H	0.289977	0.871223	0.270875
H378	H	0.623311	1.204556	0.604208
O379	O	-0.633718	0.984661	0.114454
O380	O	-0.300384	1.317995	0.447787
O381	O	0.032949	1.651328	0.781120
H382	H	-0.664364	0.984118	0.152750
H383	H	-0.331031	1.317451	0.486084
H384	H	0.002302	1.650784	0.819417
O385	O	0.073982	0.408315	-0.114614
O386	O	0.407315	0.741648	0.218720
O387	O	0.740648	1.074981	0.552053
H388	H	0.090526	0.458611	-0.141829
H389	H	0.423860	0.791945	0.191504
H390	H	0.757193	1.125278	0.524837
O391	O	0.184203	1.143882	0.566000
O392	O	0.517536	1.477216	0.899333
O393	O	0.850870	1.810549	1.232666
H394	H	0.208232	1.178968	0.533175
H395	H	0.541566	1.512302	0.866508
H396	H	0.874899	1.845635	1.199842
O397	O	0.073723	0.569847	0.115090
O398	O	0.407056	0.903181	0.448423
O399	O	0.740390	1.236514	0.781757
H400	H	0.110521	0.604367	0.103653
H401	H	0.443854	0.937700	0.436986
H402	H	0.777188	1.271033	0.770320
O403	O	0.149646	1.093425	0.726407
O404	O	0.482979	1.426759	1.059740
O405	O	0.816313	1.760092	1.393073
H406	H	0.173671	1.128531	0.759198
H407	H	0.507004	1.461864	1.092531
H408	H	0.840338	1.795197	1.425865
O409	O	-0.028616	0.833097	0.566108
O410	O	0.304717	1.166430	0.899441
O411	O	0.638051	1.499763	1.232774
H412	H	-0.016266	0.766064	0.553911
H413	H	0.317067	1.099397	0.887245
H414	H	0.650401	1.432730	1.220578
O415	O	-0.360413	0.989583	-0.169614
O416	O	-0.027080	1.322917	0.163719
O417	O	0.306253	1.656250	0.497052
H418	H	-0.391045	0.989042	-0.207913
H419	H	-0.057712	1.322376	0.125420
H420	H	0.275622	1.655709	0.458753
H421	H	-0.476071	0.987401	0.154991
H422	H	-0.142737	1.320735	0.488324
H423	H	0.190596	1.654068	0.821658
H424	H	0.140513	1.080090	0.850223
H425	H	0.473846	1.413423	1.183556
H426	H	0.807179	1.746757	1.516889
H427	H	-0.000490	0.432398	-0.059592
H428	H	0.332844	0.765731	0.273741
H429	H	0.666177	1.099064	0.607075
O430	O	-0.360462	0.989445	0.169551
O431	O	-0.027129	1.322778	0.502884
O432	O	0.306205	1.656111	0.836217
H433	H	-0.391105	0.988893	0.207850
H434	H	-0.057772	1.322226	0.541183
H435	H	0.275561	1.655559	0.874516
H436	H	0.069134	0.418467	0.100610
H437	H	0.402468	0.751800	0.433943
H438	H	0.735801	1.085133	0.767276
O439	O	-0.014242	0.585589	0.058008
O440	O	0.319092	0.918923	0.391341
O441	O	0.652425	1.252256	0.724674
H442	H	-0.021480	0.627415	0.017808
H443	H	0.311853	0.960749	0.351142
H444	H	0.645186	1.294082	0.684475
