data_functionalizedCrystal
_audit_creation_method	'MofGen! by Chris Wilmer'
_symmetry_space_group_name_H-M	'P1'
_symmetry_Int_Tables_number	1
_symmetry_cell_setting	triclinic
loop_
_symmetry_equiv_pos_as_xyz
  x,y,z
_cell_length_a	19.805407
_cell_length_b	13.032721
_cell_length_c	19.805399
_cell_angle_alpha	97.155902
_cell_angle_beta	89.980427
_cell_angle_gamma	97.204665
loop_
_atom_site_label
_atom_site_type_symbol
_atom_site_fract_x
_atom_site_fract_y
_atom_site_fract_z
Zn1	Zn	1.000535	-0.416068	-0.416943
Zn2	Zn	0.986084	-0.590828	-0.318130
Zn3	Zn	0.887347	-0.416097	-0.303770
Zn4	Zn	0.872952	-0.590772	-0.431272
O5	O	0.936729	-0.503441	-0.367529
O6	O	1.093333	-0.439261	-0.403849
O7	O	0.972963	-0.567684	-0.221512
O8	O	0.914433	-0.269853	-0.306777
O9	O	1.082717	-0.567656	-0.331251
O10	O	0.997592	-0.269832	-0.389925
O11	O	0.900421	-0.439310	-0.210962
O12	O	0.790722	-0.439257	-0.320671
O13	O	0.889899	-0.567562	-0.524085
O14	O	0.780146	-0.567590	-0.414346
O15	O	0.983634	-0.439207	-0.513558
O16	O	0.959005	-0.737060	-0.345145
O17	O	0.875887	-0.737019	-0.428270
C18	C	0.760875	-0.503421	-0.367506
C19	C	0.685642	-0.503438	-0.367514
C20	C	0.644800	-0.570361	-0.416228
C21	C	0.574112	-0.570363	-0.416238
C22	C	0.544265	-0.503446	-0.367529
C23	C	0.585113	-0.436515	-0.318812
C24	C	0.655800	-0.436508	-0.318806
C25	C	0.300037	-0.436538	-0.318836
C26	C	0.229344	-0.436551	-0.318845
C27	C	0.218349	-0.570393	-0.416269
C28	C	0.289036	-0.570386	-0.416262
C29	C	0.329878	-0.503452	-0.367548
C30	C	0.406526	-0.503449	-0.367538
C31	C	0.467618	-0.503453	-0.367535
C32	C	0.914334	-0.774958	-0.389835
C33	C	0.904816	-0.891114	-0.399401
C34	C	0.941733	-0.942886	-0.362567
C35	C	0.931896	-1.062939	-0.372453
C36	C	1.113270	-0.503462	-0.367553
C37	C	1.188502	-0.503471	-0.367563
C38	C	0.936773	-0.503375	-0.544066
C39	C	0.936791	-0.503347	-0.619296
C40	C	0.959230	-0.230864	-0.345151
C41	C	0.968819	-0.114708	-0.335614
C42	C	0.985600	-0.436510	-0.649160
C43	C	0.985609	-0.436479	-0.719846
C44	C	0.936813	-0.503293	-0.760667
C45	C	0.887999	-0.570133	-0.730799
C46	C	0.887987	-0.570157	-0.660114
C47	C	0.888045	-0.570036	-1.015865
C48	C	0.888062	-0.570008	-1.086555
C49	C	0.985668	-0.436358	-1.075596
C50	C	0.985656	-0.436382	-1.004911
C51	C	0.936840	-0.503218	-0.975049
C52	C	0.936830	-0.503249	-0.898403
C53	C	0.936825	-0.503268	-0.837312
C54	C	0.936731	-0.503431	-0.191672
C55	C	0.936868	-0.503165	-0.116419
H56	H	0.540861	-0.624860	-0.455906
O57	O	1.038256	-0.364391	-0.752054
H58	H	1.068829	-0.411160	-0.788111
O59	O	0.699856	-0.364327	-0.266264
H60	H	0.728201	-0.411029	-0.235618
H61	H	0.865929	-0.935669	-0.438256
O62	O	0.676986	-0.642522	-0.468777
H63	H	0.733002	-0.631277	-0.460591
H64	H	1.007714	-1.070157	-0.296761
H65	H	1.025393	-0.381979	-0.971677
H66	H	0.848236	-0.624573	-0.635800
H67	H	1.025338	-0.382106	-0.615927
O68	O	1.038305	-0.364235	-1.107800
H69	H	1.030110	-0.375422	-1.163809
H70	H	0.313333	-0.624881	-0.455924
O71	O	0.835422	-0.642062	-1.130588
H72	H	0.801470	-0.688533	-1.097947
H73	H	0.185087	-0.624890	-0.455937
O74	O	0.993261	-0.883871	-0.311115
H75	H	0.967038	-0.834207	-0.272585
H76	H	0.893007	-1.107490	-0.411311
O77	O	0.197149	-0.364364	-0.266313
H78	H	0.237425	-0.317810	-0.232441
O79	O	0.835367	-0.642066	-0.983655
H80	H	0.801432	-0.688505	-1.023917
H81	H	0.848265	-0.624530	-0.764042
H82	H	0.333282	-0.382044	-0.279165
H83	H	0.560807	-0.382025	-0.279155
