data_functionalizedCrystal
_audit_creation_method	'MofGen! by Chris Wilmer'
_symmetry_space_group_name_H-M	'P1'
_symmetry_Int_Tables_number	1
_symmetry_cell_setting	triclinic
loop_
_symmetry_equiv_pos_as_xyz
  x,y,z
_cell_length_a	14.044191
_cell_length_b	8.597340
_cell_length_c	7.681481
_cell_angle_alpha	103.474906
_cell_angle_beta	96.262690
_cell_angle_gamma	90.775970
loop_
_atom_site_label
_atom_site_type_symbol
_atom_site_fract_x
_atom_site_fract_y
_atom_site_fract_z
O1	O	-0.131084	2.118491	0.174998
O2	O	-0.146187	1.656578	0.104916
O3	O	-0.000651	1.880595	0.138901
O4	O	-0.276620	1.894474	0.141013
O5	O	0.017303	1.908162	0.435941
O6	O	-0.128233	1.684145	0.401956
O7	O	-0.113130	2.146058	0.472038
Zn8	Zn	-0.117831	1.919478	0.484158
Zn9	Zn	-0.141486	1.883158	0.092796
O10	O	-0.258666	1.922041	0.438053
C11	C	-0.136588	1.610890	0.244412
C12	C	-0.134724	1.433680	0.217525
C13	C	-0.302957	1.914329	0.290455
C14	C	-0.408182	1.932439	0.293205
C15	C	-0.658473	1.837106	0.278726
C16	C	-0.600839	1.965521	0.298212
C17	C	-0.493635	1.947110	0.295425
C18	C	-0.765687	1.855515	0.281512
C19	C	0.043640	1.888307	0.286495
C20	C	0.148864	1.870196	0.283733
C21	C	-0.122729	2.191746	0.332538
C22	C	-0.124594	2.368954	0.359413
N23	N	-0.101687	1.944278	0.751255
N24	N	-0.157622	1.858370	-0.174299
H25	H	-0.141971	1.353515	0.075463
O26	O	-0.225808	1.753718	0.720399
C27	C	-0.275383	1.677526	0.829559
H28	H	-0.268428	1.755321	0.972815
H29	H	-0.243480	1.556498	0.830759
C30	C	-0.390567	1.557151	0.577714
C31	C	-0.382032	1.652707	0.753660
H32	H	-0.456352	1.541834	0.530894
H33	H	-0.357166	1.608477	0.504169
H34	H	-0.363976	1.456305	0.578738
H35	H	-0.408611	1.753556	0.752631
H36	H	-0.415440	1.601396	0.827204
O37	O	-0.033453	2.048807	0.856628
C38	C	0.057622	2.005108	0.805115
H39	H	0.049332	1.931165	0.660008
H40	H	0.093192	1.931227	0.897642
C41	C	0.130439	2.247880	0.998098
C42	C	0.120258	2.157073	0.819868
H43	H	0.169078	2.341617	1.007205
H44	H	0.069081	2.277319	1.032809
H45	H	0.160078	2.186294	1.075183
H46	H	0.090609	2.218652	0.742790
H47	H	0.181613	2.127648	0.785145
O48	O	-0.115825	1.464744	0.528802
C49	C	-0.034203	1.568301	0.553955
H50	H	-0.015610	1.582168	0.417418
H51	H	0.028753	1.516106	0.624902
C52	C	-0.078037	1.716169	0.837729
C53	C	-0.055206	1.733210	0.670032
H54	H	-0.090990	1.817890	0.909337
H55	H	-0.133026	1.646397	0.820788
H56	H	-0.025570	1.672667	0.896828
H57	H	-0.107677	1.776691	0.610927
H58	H	-0.000226	1.802993	0.686967
H59	H	-0.632019	2.089276	0.316861
O60	O	-0.621194	1.689524	0.256117
C61	C	-0.573971	1.656942	0.099488
H62	H	-0.552571	1.774367	0.066722
H63	H	-0.624094	1.582503	-0.018010
C64	C	-0.509872	1.419061	0.171620
C65	C	-0.483581	1.563285	0.131385
H66	H	-0.454117	1.361283	0.191289
H67	H	-0.541690	1.441007	0.277140
H68	H	-0.551643	1.357048	0.073697
H69	H	-0.441821	1.625304	0.229315
H70	H	-0.451754	1.541347	0.025880
