data_functionalizedCrystal
_audit_creation_method	'MofGen! by Chris Wilmer'
_symmetry_space_group_name_H-M	'P1'
_symmetry_Int_Tables_number	1
_symmetry_cell_setting	triclinic
loop_
_symmetry_equiv_pos_as_xyz
  x,y,z
_cell_length_a	21.395364
_cell_length_b	21.395362
_cell_length_c	21.395356
_cell_angle_alpha	89.970281
_cell_angle_beta	89.976411
_cell_angle_gamma	90.044742
loop_
_atom_site_label
_atom_site_type_symbol
_atom_site_fract_x
_atom_site_fract_y
_atom_site_fract_z
Zn1	Zn	0.957857	-0.249204	-0.354253
Zn2	Zn	0.957763	-0.353981	-0.249471
Zn3	Zn	0.853074	-0.249249	-0.249489
Zn4	Zn	0.853043	-0.353975	-0.354212
O5	O	0.905434	-0.301602	-0.301856
O6	O	1.045523	-0.263087	-0.340363
O7	O	0.943850	-0.340109	-0.161796
O8	O	0.867026	-0.161565	-0.263411
O9	O	1.045454	-0.340066	-0.263381
O10	O	0.944010	-0.161532	-0.340380
O11	O	0.866935	-0.263163	-0.161809
O12	O	0.765392	-0.263157	-0.263371
O13	O	0.866973	-0.340057	-0.441895
O14	O	0.765369	-0.340099	-0.340310
O15	O	0.943980	-0.263082	-0.441925
O16	O	0.943820	-0.441658	-0.263341
O17	O	0.866882	-0.441654	-0.340293
C18	C	0.742647	-0.301633	-0.301839
C19	C	0.673006	-0.301661	-0.301846
C20	C	0.905354	-0.464390	-0.301824
C21	C	0.905377	-0.534031	-0.301831
C22	C	0.640351	-0.261644	-0.341993
C23	C	0.574915	-0.261627	-0.341995
C24	C	0.542137	-0.301639	-0.301857
C25	C	0.574800	-0.341659	-0.261703
C26	C	0.640234	-0.341670	-0.261697
C27	C	0.438414	-0.358064	-0.296818
C28	C	0.372981	-0.358054	-0.296828
C29	C	0.340316	-0.301604	-0.301871
C30	C	0.373093	-0.245163	-0.306918
C31	C	0.438527	-0.245174	-0.306912
C32	C	0.471185	-0.301631	-0.301859
C33	C	0.236709	-0.261566	-0.342023
C34	C	0.171273	-0.261548	-0.342021
C35	C	0.171158	-0.341585	-0.261732
C36	C	0.236594	-0.341598	-0.261731
C37	C	0.269365	-0.301589	-0.301879
C38	C	0.945440	-0.566671	-0.341938
C39	C	0.945462	-0.632106	-0.341953
C40	C	0.905428	-0.664900	-0.301851
C41	C	0.865358	-0.632252	-0.261742
C42	C	0.865332	-0.566818	-0.261732
C43	C	0.900552	-0.768610	-0.245412
C44	C	0.900582	-0.834043	-0.245421
C45	C	0.905502	-0.866720	-0.301881
C46	C	0.910407	-0.833956	-0.358334
C47	C	0.910381	-0.768522	-0.358325
C48	C	0.905451	-0.735852	-0.301857
C49	C	0.945591	-0.970312	-0.342007
C50	C	0.945608	-1.035749	-0.342024
C51	C	0.865508	-1.035894	-0.261807
C52	C	0.865487	-0.970459	-0.261796
C53	C	0.905532	-0.937672	-0.301895
C54	C	1.068858	-0.301572	-0.301874
C55	C	1.138499	-0.301559	-0.301882
C56	C	0.905484	-0.301564	-0.465280
C57	C	0.905505	-0.301547	-0.534921
C58	C	0.905532	-0.138179	-0.301902
C59	C	0.905573	-0.068538	-0.301922
C60	C	0.865466	-0.261477	-0.567631
C61	C	0.865464	-0.261465	-0.633066
C62	C	0.905512	-0.301517	-0.665789
C63	C	0.945553	-0.341596	-0.633071
C64	C	0.945550	-0.341610	-0.567637
C65	C	0.961964	-0.306428	-0.769475
C66	C	0.961968	-0.306409	-0.834908
C67	C	0.905522	-0.301475	-0.867610
C68	C	0.849069	-0.296547	-0.834871
C69	C	0.849066	-0.296562	-0.769437
C70	C	0.905520	-0.301506	-0.736742
C71	C	0.865477	-0.261390	-0.971273
C72	C	0.865474	-0.261382	-1.036709
C73	C	0.945569	-0.341510	-1.036713
C74	C	0.945567	-0.341520	-0.971278
C75	C	0.905522	-0.301457	-0.938561
C76	C	0.905421	-0.301596	-0.139069
C77	C	0.905522	-0.301436	-0.069428
H78	H	0.667029	-0.229065	-0.374684
H79	H	0.666821	-0.374258	-0.229004
H80	H	0.465211	-0.199217	-0.311019
H81	H	0.978232	-1.062323	-0.374686
O82	O	0.895682	-0.736937	-0.190532
C83	C	0.839057	-0.753000	-0.160841
H84	H	0.822592	-0.800519	-0.178445
H85	H	0.846626	-0.755260	-0.108149
H86	H	0.802164	-0.716211	-0.171918
O87	O	0.984545	-0.380325	-1.068517
C88	C	1.025025	-0.344635	-1.106401
H89	H	1.028915	-0.295290	-1.086699
H90	H	1.073232	-0.367281	-1.107148
H91	H	1.005661	-0.342474	-1.155988
O92	O	0.794207	-0.291891	-0.737662
C93	C	0.755137	-0.342516	-0.753633
H94	H	0.784865	-0.382881	-0.771624
H95	H	0.727948	-0.358296	-0.710585
H96	H	0.721006	-0.327308	-0.791604
H97	H	0.144686	-0.228957	-0.374712
H98	H	0.346499	-0.199196	-0.311025
O99	O	0.341242	-0.412932	-0.291892
C100	C	0.384101	-0.462759	-0.287444
H101	H	0.430753	-0.444475	-0.269318
H102	H	0.365143	-0.499557	-0.253852
H103	H	0.391064	-0.484536	-0.335564
O104	O	0.826556	-0.938846	-0.222771
C105	C	0.791213	-0.981819	-0.187389
H106	H	0.816895	-1.028435	-0.185251
H107	H	0.784550	-0.962954	-0.138014
H108	H	0.743618	-0.988817	-0.210288
O109	O	0.984544	-0.380470	-0.664786
C110	C	1.046998	-0.366760	-0.648832
H111	H	1.048307	-0.342686	-0.601329
H112	H	1.075065	-0.411975	-0.646590
H113	H	1.068124	-0.334535	-0.685675
O114	O	0.268451	-0.222642	-0.381039
C115	C	0.225594	-0.187324	-0.416483
H116	H	0.178941	-0.185108	-0.390825
H117	H	0.244553	-0.137973	-0.423260
H118	H	0.218631	-0.210332	-0.464025
O119	O	0.139299	-0.380522	-0.222831
C120	C	0.101416	-0.421019	-0.258431
H121	H	0.121154	-0.424956	-0.307770
H122	H	0.100618	-0.469208	-0.235682
H123	H	0.051844	-0.401642	-0.260626
O124	O	0.268221	-0.380535	-0.222717
C125	C	0.225262	-0.415837	-0.187278
H126	H	0.178628	-0.418032	-0.212941
H127	H	0.244118	-0.465196	-0.180502
H128	H	0.218301	-0.392829	-0.139735
H129	H	0.896592	-0.860714	-0.199453
H130	H	0.978157	-0.374240	-0.541005
O131	O	0.826583	-1.067808	-0.222940
C132	C	0.786101	-1.105665	-0.258585
H133	H	0.808181	-1.115412	-0.306087
H134	H	0.777728	-1.151705	-0.233064
H135	H	0.739659	-1.080492	-0.265426
H136	H	0.978172	-0.374149	-0.944645
H137	H	0.465004	-0.404036	-0.292710
O138	O	0.826500	-0.664036	-0.222699
C139	C	0.840227	-0.648083	-0.160262
H140	H	0.864293	-0.600546	-0.158978
H141	H	0.795020	-0.645917	-0.132127
H142	H	0.872464	-0.684886	-0.139192
H143	H	0.832865	-0.228754	-1.063341
H144	H	0.832708	-0.540243	-0.229072
O145	O	0.915103	-0.865623	-0.413231
C146	C	0.864440	-0.849674	-0.452210
H147	H	0.845149	-0.802194	-0.437698
H148	H	0.880993	-0.847385	-0.502813
H149	H	0.826212	-0.886545	-0.447639
H150	H	0.548108	-0.374236	-0.229022
O151	O	1.016856	-0.311228	-0.866611
C152	C	1.066677	-0.315581	-0.823719
H153	H	1.048396	-0.333752	-0.777064
H154	H	1.103505	-0.349094	-0.842629
H155	H	1.088416	-0.267418	-0.816780
O156	O	0.984500	-0.938555	-0.381026
C157	C	1.019870	-0.981399	-0.416425
H158	H	0.994224	-1.028071	-0.418574
H159	H	1.026514	-0.962452	-0.465795
H160	H	1.067474	-0.988317	-0.393533
O161	O	0.826530	-0.222652	-0.535784
C162	C	0.786026	-0.258341	-0.497925
H163	H	0.808095	-0.305820	-0.488113
H164	H	0.777637	-0.232831	-0.451917
H165	H	0.739594	-0.265229	-0.523128
H166	H	0.548323	-0.229037	-0.374686
O167	O	0.826551	-0.222477	-0.664753
C168	C	0.791193	-0.187133	-0.621846
H169	H	0.816852	-0.184972	-0.575210
H170	H	0.784548	-0.137764	-0.640765
H171	H	0.743590	-0.210082	-0.614866
H172	H	1.007933	-0.310441	-0.742855
H173	H	0.978045	-0.539977	-0.374591
O174	O	0.794228	-0.291647	-0.866605
C175	C	0.764599	-0.235024	-0.850620
H176	H	0.800925	-0.200420	-0.832656
H177	H	0.740585	-0.214783	-0.893654
H178	H	0.728328	-0.244083	-0.812625
O179	O	0.826513	-0.222462	-0.939585
C180	C	0.791177	-0.187086	-0.982491
H181	H	0.788997	-0.212739	-1.029126
H182	H	0.741814	-0.180421	-0.963569
H183	H	0.814145	-0.139492	-0.989473
H184	H	0.914373	-0.741848	-0.404290
O185	O	0.984433	-0.663724	-0.380940
C186	C	1.019755	-0.620754	-0.416347
H187	H	1.021928	-0.574125	-0.390678
H188	H	1.069121	-0.639604	-0.423086
H189	H	0.996778	-0.613786	-0.463907
