data_functionalizedCrystal
_audit_creation_method	'MofGen! by Chris Wilmer'
_symmetry_space_group_name_H-M	'P1'
_symmetry_Int_Tables_number	1
_symmetry_cell_setting	triclinic
loop_
_symmetry_equiv_pos_as_xyz
  x,y,z
_cell_length_a	18.050589
_cell_length_b	18.050591
_cell_length_c	18.050582
_cell_angle_alpha	90.022741
_cell_angle_beta	89.981795
_cell_angle_gamma	89.978346
loop_
_atom_site_label
_atom_site_type_symbol
_atom_site_fract_x
_atom_site_fract_y
_atom_site_fract_z
Zn1	Zn	-0.295837	-1.135293	-0.420090
Zn2	Zn	0.037497	-0.801959	-0.086757
Zn3	Zn	0.370830	-0.468626	0.246577
Zn4	Zn	-0.420020	-1.135203	-0.295909
Zn5	Zn	-0.086687	-0.801870	0.037424
Zn6	Zn	0.246647	-0.468537	0.370757
Zn7	Zn	-0.295834	-1.011112	-0.295897
Zn8	Zn	0.037499	-0.677778	0.037436
Zn9	Zn	0.370833	-0.344445	0.370770
Zn10	Zn	-0.419975	-1.011060	-0.420041
Zn11	Zn	-0.086642	-0.677726	-0.086708
Zn12	Zn	0.246692	-0.344393	0.246626
O13	O	-0.357916	-1.073167	-0.357984
O14	O	-0.024583	-0.739833	-0.024651
O15	O	0.308750	-0.406500	0.308682
O16	O	-0.312330	-1.239205	-0.403643
O17	O	0.021004	-0.905872	-0.070309
O18	O	0.354337	-0.572539	0.263024
O19	O	-0.403564	-1.118727	-0.191983
O20	O	-0.070231	-0.785393	0.141350
O21	O	0.263103	-0.452060	0.474684
O22	O	-0.191910	-1.027644	-0.312387
O23	O	0.141423	-0.694310	0.020946
O24	O	0.474757	-0.360977	0.354280
O25	O	-0.403567	-1.239140	-0.312408
O26	O	-0.070233	-0.905806	0.020925
O27	O	0.263100	-0.572473	0.354259
O28	O	-0.191912	-1.118879	-0.403631
O29	O	0.141422	-0.785545	-0.070298
O30	O	0.474755	-0.452212	0.263036
O31	O	-0.312325	-1.027557	-0.191974
O32	O	0.021008	-0.694224	0.141359
O33	O	0.354341	-0.360890	0.474693
O34	O	-0.312282	-0.907180	-0.312339
O35	O	0.021052	-0.573847	0.020994
O36	O	0.354385	-0.240514	0.354327
O37	O	-0.403490	-1.027555	-0.523972
O38	O	-0.070157	-0.694222	-0.190639
O39	O	0.263176	-0.360888	0.142695
O40	O	-0.403488	-0.907142	-0.403547
O41	O	-0.070154	-0.573809	-0.070214
O42	O	0.263179	-0.240475	0.263119
O43	O	-0.312286	-1.118828	-0.524008
O44	O	0.021047	-0.785495	-0.190675
O45	O	0.354380	-0.452162	0.142659
O46	O	-0.523939	-1.118676	-0.312360
O47	O	-0.190605	-0.785343	0.020973
O48	O	0.142728	-0.452010	0.354306
O49	O	-0.523906	-1.027468	-0.403559
O50	O	-0.190572	-0.694135	-0.070226
O51	O	0.142761	-0.360802	0.263107
C52	C	-0.357880	-0.880215	-0.357937
C53	C	-0.024547	-0.546881	-0.024604
C54	C	0.308786	-0.213548	0.308729
C55	C	-0.357883	-0.797669	-0.357935
C56	C	-0.024549	-0.464336	-0.024601
C57	C	0.308784	-0.131002	0.308732
C58	C	-0.308220	-0.548843	-0.308440
C59	C	0.025113	-0.215509	0.024893
C60	C	0.358446	0.117824	0.358227
C61	C	-0.290142	-0.598275	-0.376217
C62	C	0.043191	-0.264941	-0.042884
C63	C	0.376525	0.068392	0.290449
C64	C	-0.357905	-0.500548	-0.357980
C65	C	-0.024572	-0.167215	-0.024647
C66	C	0.308762	0.166118	0.308687
C67	C	-0.375937	-0.598198	-0.290184
C68	C	-0.042604	-0.264865	0.043149
C69	C	0.290729	0.068468	0.376482
C70	C	-0.357892	-0.646534	-0.357954
C71	C	-0.024559	-0.313200	-0.024621
C72	C	0.308775	0.020133	0.308713
C73	C	-0.339791	-0.548893	-0.425793
C74	C	-0.006458	-0.215560	-0.092460
C75	C	0.326875	0.117773	0.240873
C76	C	-0.425618	-0.548813	-0.339714
C77	C	-0.092285	-0.215479	-0.006381
C78	C	0.241048	0.117854	0.326952
C79	C	-0.407566	-0.598222	-0.407538
C80	C	-0.074232	-0.264889	-0.074205
C81	C	0.259101	0.068444	0.259128
C82	C	-0.357910	-0.416450	-0.357994
C83	C	-0.024577	-0.083117	-0.024661
C84	C	0.308756	0.250216	0.308673
C85	C	-0.357887	-0.730630	-0.357948
C86	C	-0.024553	-0.397297	-0.024615
C87	C	0.308780	-0.063963	0.308719
C88	C	-0.550869	-1.073077	-0.357972
C89	C	-0.217535	-0.739744	-0.024639
C90	C	0.115798	-0.406410	0.308695
C91	C	-0.633414	-1.073107	-0.357992
C92	C	-0.300081	-0.739773	-0.024658
C93	C	0.033252	-0.406440	0.308675
C94	C	-0.832874	-1.023557	-0.407568
C95	C	-0.499541	-0.690223	-0.074235
C96	C	-0.166207	-0.356890	0.259098
C97	C	-0.882306	-1.005459	-0.339798
C98	C	-0.548973	-0.672126	-0.006465
C99	C	-0.215639	-0.338792	0.326868
C100	C	-0.784545	-1.073180	-0.358001
C101	C	-0.451211	-0.739846	-0.024668
C102	C	-0.117878	-0.406513	0.308665
C103	C	-0.882195	-1.091314	-0.425779
C104	C	-0.548861	-0.757981	-0.092446
C105	C	-0.215528	-0.424647	0.240888
C106	C	-0.930530	-1.073249	-0.358017
C107	C	-0.597196	-0.739915	-0.024683
C108	C	-0.263863	-0.406582	0.308650
C109	C	-0.832889	-1.055046	-0.290196
C110	C	-0.499556	-0.721713	0.043138
C111	C	-0.166223	-0.388380	0.376471
C112	C	-0.832774	-1.140933	-0.376222
C113	C	-0.499440	-0.807600	-0.042888
C114	C	-0.166107	-0.474266	0.290445
C115	C	-0.882183	-1.122861	-0.308405
C116	C	-0.548850	-0.789527	0.024928
C117	C	-0.215517	-0.456194	0.358261
C118	C	-0.700446	-1.073138	-0.357993
C119	C	-0.367113	-0.739805	-0.024660
C120	C	-0.033780	-0.406471	0.308673
C121	C	-1.014626	-1.073291	-0.358017
C122	C	-0.681293	-0.739957	-0.024684
C123	C	-0.347960	-0.406624	0.308650
C124	C	-0.164211	-1.073277	-0.358013
C125	C	0.169122	-0.739944	-0.024680
C126	C	0.502456	-0.406610	0.308654
C127	C	-0.081665	-1.073324	-0.358025
C128	C	0.251668	-0.739991	-0.024692
C129	C	0.585002	-0.406657	0.308641
C130	C	-0.357884	-1.073196	-0.551690
C131	C	-0.024550	-0.739863	-0.218357
C132	C	0.308783	-0.406529	0.114977
C133	C	-0.357870	-1.073208	-0.634236
C134	C	-0.024536	-0.739875	-0.300903
C135	C	0.308797	-0.406542	0.032431
C136	C	-0.357940	-0.266872	-0.358019
C137	C	-0.024607	0.066461	-0.024686
C138	C	0.308726	0.399794	0.308648
C139	C	-0.357917	-0.349418	-0.358001
C140	C	-0.024583	-0.016085	-0.024667
C141	C	0.308750	0.317249	0.308666
C142	C	-0.407399	-1.023612	-0.833667
C143	C	-0.074065	-0.690278	-0.500334
C144	C	0.259268	-0.356945	-0.167000
C145	C	-0.425560	-1.091367	-0.883069
C146	C	-0.092226	-0.758034	-0.549736
C147	C	0.241107	-0.424700	-0.216402
C148	C	-0.357813	-1.073245	-0.785366
C149	C	-0.024480	-0.739912	-0.452033
C150	C	0.308854	-0.406578	-0.118700
C151	C	-0.339631	-1.005527	-0.883046
C152	C	-0.006298	-0.672194	-0.549713
C153	C	0.327036	-0.338860	-0.216379
C154	C	-0.357760	-1.073274	-0.931352
C155	C	-0.024426	-0.739941	-0.598018
C156	C	0.308907	-0.406608	-0.264685
C157	C	-0.376010	-1.141036	-0.833681
C158	C	-0.042676	-0.807702	-0.500348
C159	C	0.290657	-0.474369	-0.167014
C160	C	-0.290049	-1.055150	-0.833654
C161	C	0.043284	-0.721816	-0.500320
C162	C	0.376617	-0.388483	-0.166987
C163	C	-0.308185	-1.122952	-0.883034
C164	C	0.025148	-0.789619	-0.549700
C165	C	0.358482	-0.456285	-0.216367
C166	C	-0.357845	-1.073227	-0.701268
C167	C	-0.024512	-0.739894	-0.367935
C168	C	0.308821	-0.406560	-0.034601
C169	C	-0.357727	-1.073300	-1.015448
C170	C	-0.024393	-0.739967	-0.682115
C171	C	0.308940	-0.406633	-0.348781
C172	C	-0.357896	-1.073181	-0.165032
C173	C	-0.024562	-0.739847	0.168301
C174	C	0.308771	-0.406514	0.501634
C175	C	-0.357701	-1.073312	-0.082487
C176	C	-0.024367	-0.739979	0.250846
C177	C	0.308966	-0.406645	0.584180
H178	H	-0.324467	-0.527325	-0.483133
H179	H	0.008866	-0.193992	-0.149799
H180	H	0.342199	0.139341	0.183534
H181	H	-0.482871	-0.527071	-0.324251
H182	H	-0.149538	-0.193738	0.009082
H183	H	0.183795	0.139596	0.342415
H184	H	-0.391431	-1.198333	-0.812088
H185	H	-0.058097	-0.865000	-0.478754
H186	H	0.275236	-0.531666	-0.145421
H187	H	-0.449386	-0.981678	-0.811992
H188	H	-0.116053	-0.648345	-0.478659
H189	H	0.217280	-0.315012	-0.145325
H190	H	-0.903852	-1.106625	-0.483091
H191	H	-0.570519	-0.773291	-0.149758
H192	H	-0.237186	-0.439958	0.183575
H193	H	-0.482843	-1.106690	-0.904775
H194	H	-0.149510	-0.773357	-0.571441
H195	H	0.183823	-0.440023	-0.238108
H196	H	-0.266229	-1.164986	-0.904572
H197	H	0.067104	-0.831653	-0.571239
H198	H	0.400438	-0.498319	-0.237906
H199	H	-0.391194	-0.619858	-0.232861
H200	H	-0.057861	-0.286525	0.100472
H201	H	0.275472	0.046809	0.433806
Cl202	Cl	-0.201633	-1.031462	-0.800113
Cl203	Cl	0.131700	-0.698129	-0.466780
Cl204	Cl	0.465034	-0.364795	-0.133447
H205	H	-0.324275	-0.948246	-0.904731
H206	H	0.009058	-0.614913	-0.571398
H207	H	0.342392	-0.281580	-0.238064
H208	H	-0.232870	-0.619987	-0.391669
H209	H	0.100463	-0.286654	-0.058336
H210	H	0.433797	0.046680	0.274997
Cl211	Cl	-0.243313	-0.515364	-0.243857
Cl212	Cl	0.090020	-0.182031	0.089477
Cl213	Cl	0.423354	0.151302	0.422810
H214	H	-0.811222	-0.981531	-0.449426
H215	H	-0.477889	-0.648197	-0.116093
H216	H	-0.144556	-0.314864	0.217241
Cl217	Cl	-0.472430	-0.631487	-0.472274
Cl218	Cl	-0.139096	-0.298154	-0.138941
Cl219	Cl	0.194237	0.035179	0.194393
Cl220	Cl	-0.799156	-1.229325	-0.400044
Cl221	Cl	-0.465823	-0.895992	-0.066710
Cl222	Cl	-0.132489	-0.562658	0.266623
Cl223	Cl	-0.915896	-0.917043	-0.316006
Cl224	Cl	-0.582563	-0.583710	0.017327
Cl225	Cl	-0.249229	-0.250377	0.350661
H226	H	-0.811321	-1.039669	-0.232867
H227	H	-0.477988	-0.706336	0.100466
H228	H	-0.144655	-0.373003	0.433799
H229	H	-0.903698	-1.164855	-0.266446
H230	H	-0.570364	-0.831522	0.066887
H231	H	-0.237031	-0.498188	0.400220
