data_functionalizedCrystal
_audit_creation_method	'MofGen! by Chris Wilmer'
_symmetry_space_group_name_H-M	'P1'
_symmetry_Int_Tables_number	1
_symmetry_cell_setting	triclinic
loop_
_symmetry_equiv_pos_as_xyz
  x,y,z
_cell_length_a	16.109301
_cell_length_b	15.186229
_cell_length_c	16.109301
_cell_angle_alpha	90.005167
_cell_angle_beta	96.538519
_cell_angle_gamma	89.999362
loop_
_atom_site_label
_atom_site_type_symbol
_atom_site_fract_x
_atom_site_fract_y
_atom_site_fract_z
O1	O	1.103131	-0.073176	-0.106866
O2	O	1.603131	0.426824	0.393134
O3	O	0.861069	-0.073190	-0.120165
O4	O	1.361069	0.426810	0.379835
O5	O	0.988749	-0.073174	0.007515
O6	O	1.488749	0.426826	0.507515
O7	O	0.975450	-0.073192	-0.234547
O8	O	1.475450	0.426808	0.265453
O9	O	0.988741	0.073284	0.007517
O10	O	1.488741	0.573284	0.507517
O11	O	0.861060	0.073267	-0.120164
O12	O	1.361060	0.573267	0.379836
O13	O	1.103122	0.073282	-0.106864
O14	O	1.603122	0.573282	0.393136
Zn15	Zn	0.982090	0.096528	-0.113514
Zn16	Zn	1.482090	0.596528	0.386486
Zn17	Zn	0.982101	-0.096436	-0.113516
Zn18	Zn	1.482101	0.403564	0.386484
O19	O	0.975441	0.073265	-0.234545
O20	O	1.475441	0.573265	0.265455
C21	C	0.830090	0.000037	-0.119626
C22	C	1.330090	0.500037	0.380374
C23	C	0.737794	0.000032	-0.118011
C24	C	1.237794	0.500032	0.381989
C25	C	0.988206	0.000056	0.038491
C26	C	1.488206	0.500056	0.538491
C27	C	0.986591	0.000057	0.130786
C28	C	1.486591	0.500057	0.630786
C29	C	0.515522	0.000036	-0.190018
C30	C	1.015522	0.500036	0.309982
C31	C	0.428801	0.000042	-0.188494
C32	C	0.928801	0.500042	0.311506
C33	C	0.448676	0.000050	-0.037006
C34	C	0.948676	0.500050	0.462994
C35	C	0.535394	0.000051	-0.038530
C36	C	1.035394	0.500051	0.461470
C37	C	0.568815	0.000039	-0.115039
C38	C	1.068815	0.500039	0.384961
C39	C	0.395376	0.000045	-0.111990
C40	C	0.895376	0.500045	0.388010
C41	C	0.301350	0.000051	-0.110337
C42	C	0.801350	0.500051	0.389663
C43	C	0.662847	0.000035	-0.116693
C44	C	1.162847	0.500035	0.383307
C45	C	1.134101	0.000053	-0.107404
C46	C	1.634101	0.500053	0.392596
C47	C	1.226397	0.000052	-0.109019
C48	C	1.726397	0.500052	0.390981
N49	N	0.982088	0.228220	-0.113511
N50	N	1.482088	0.728220	0.386489
N51	N	0.982109	-0.228129	-0.113512
N52	N	1.482109	0.271871	0.386488
C53	C	1.038644	0.453950	-0.056994
C54	C	1.538644	0.953950	0.443006
C55	C	1.038647	0.546140	-0.056992
C56	C	1.538647	1.046140	0.443008
C57	C	0.925547	0.546135	-0.170032
C58	C	1.425547	1.046135	0.329968
C59	C	0.925541	0.453947	-0.170030
C60	C	1.425541	0.953947	0.329970
C61	C	0.982094	0.407857	-0.113511
C62	C	1.482094	0.907857	0.386489
C63	C	0.982103	0.592235	-0.113512
C64	C	1.482103	1.092235	0.386488
C65	C	0.982105	0.692191	-0.113510
C66	C	1.482105	1.192191	0.386490
C67	C	0.982091	0.307894	-0.113512
C68	C	1.482091	0.807894	0.386488
C69	C	0.975984	0.000034	-0.265521
C70	C	1.475984	0.500034	0.234479
C71	C	0.977600	0.000027	-0.357816
C72	C	1.477600	0.500027	0.142184
C73	C	1.058599	0.000047	0.353059
C74	C	1.558599	0.500047	0.853059
C75	C	1.057075	0.000040	0.439779
C76	C	1.557075	0.500040	0.939779
C77	C	0.905586	0.000034	0.419905
C78	C	1.405586	0.500034	0.919905
C79	C	0.907111	0.000035	0.333186
C80	C	1.407111	0.500035	0.833186
C81	C	0.983620	0.000046	0.299766
C82	C	1.483620	0.500046	0.799766
C83	C	0.980571	0.000038	0.473205
C84	C	1.480571	0.500038	0.973205
C85	C	0.978918	0.000030	0.567231
C86	C	1.478918	0.500030	1.067231
C87	C	0.985273	0.000052	0.205734
C88	C	1.485273	0.500052	0.705734
H89	H	0.542730	0.000034	-0.252317
H90	H	1.042730	0.500034	0.247683
Br91	Br	0.848800	0.608688	-0.246735
Br92	Br	1.348800	1.108688	0.253265
H93	H	0.421454	0.000065	0.025285
H94	H	0.921454	0.500065	0.525285
Br95	Br	0.848783	0.391384	-0.246731
Br96	Br	1.348783	0.891384	0.253269
H97	H	1.120897	0.000054	0.325851
H98	H	1.620897	0.500054	0.825851
H99	H	1.118130	0.000039	0.483168
H100	H	1.618130	0.500039	0.983168
H101	H	0.843295	0.000027	0.447127
H102	H	1.343295	0.500027	0.947127
H103	H	1.084694	0.583667	-0.010969
H104	H	1.584694	1.083667	0.489031
Br105	Br	0.805346	0.000022	0.260853
Br106	Br	1.305346	0.500022	0.760853
H107	H	0.578788	0.000056	0.022530
H108	H	1.078788	0.500056	0.522530
Br109	Br	1.115394	0.391403	0.019711
Br110	Br	1.615394	0.891403	0.519711
H111	H	0.385413	0.000041	-0.249550
H112	H	0.885413	0.500041	0.250450
