data_functionalizedCrystal
_audit_creation_method	'MofGen! by Chris Wilmer'
_symmetry_space_group_name_H-M	'P1'
_symmetry_Int_Tables_number	1
_symmetry_cell_setting	triclinic
loop_
_symmetry_equiv_pos_as_xyz
  x,y,z
_cell_length_a	18.101398
_cell_length_b	19.121063
_cell_length_c	18.101389
_cell_angle_alpha	92.419391
_cell_angle_beta	89.975673
_cell_angle_gamma	92.464489
loop_
_atom_site_label
_atom_site_type_symbol
_atom_site_fract_x
_atom_site_fract_y
_atom_site_fract_z
Zn1	Zn	1.119554	-0.279777	-0.431404
Zn2	Zn	1.114175	-0.397213	-0.312837
Zn3	Zn	0.995713	-0.279770	-0.307565
Zn4	Zn	0.990390	-0.397183	-0.436624
O5	O	1.054958	-0.338486	-0.372107
O6	O	1.222473	-0.295371	-0.415698
O7	O	1.098437	-0.381644	-0.208505
O8	O	1.016620	-0.181486	-0.319601
O9	O	1.218521	-0.381651	-0.328587
O10	O	1.107605	-0.181491	-0.410586
O11	O	1.011404	-0.295359	-0.204632
O12	O	0.891375	-0.295330	-0.324663
O13	O	1.007547	-0.381599	-0.539564
O14	O	0.887464	-0.381592	-0.419482
O15	O	1.102443	-0.295342	-0.535729
O16	O	1.093276	-0.495494	-0.333648
O17	O	1.002331	-0.495472	-0.424594
C18	C	0.862549	-0.338457	-0.372067
C19	C	0.780234	-0.338462	-0.372069
C20	C	0.481141	-0.338506	-0.372133
C21	C	0.514915	-0.283961	-0.312742
C22	C	0.600526	-0.284107	-0.312506
C23	C	0.629525	-0.338484	-0.372101
C24	C	0.595084	-0.412466	-0.354099
C25	C	0.509452	-0.412163	-0.353690
C26	C	0.513600	-0.319712	-0.449688
C27	C	0.599325	-0.318065	-0.449186
C28	C	0.713385	-0.338476	-0.372084
C29	C	0.397281	-0.338519	-0.372148
C30	C	1.046662	-0.520967	-0.380276
C31	C	1.043181	-0.599034	-0.383795
C32	C	1.088932	-0.635698	-0.338137
C33	C	1.085662	-0.709049	-0.341451
C34	C	1.036637	-0.745735	-0.390420
C35	C	0.990884	-0.709066	-0.436083
C36	C	0.994158	-0.635716	-0.432772
C37	C	1.024385	-0.967206	-0.402788
C38	C	1.021113	-1.040562	-0.406094
C39	C	1.115892	-1.040539	-0.311462
C40	C	1.119159	-0.967188	-0.308152
C41	C	1.073408	-0.930525	-0.353818
C42	C	1.033292	-0.820713	-0.393807
C43	C	1.076758	-0.855549	-0.350434
C44	C	1.248119	-0.338515	-0.372148
C45	C	1.330432	-0.338528	-0.372165
C46	C	1.055002	-0.338468	-0.565269
C47	C	1.055020	-0.338461	-0.647582
C48	C	1.063306	-0.155292	-0.363923
C49	C	1.066864	-0.077226	-0.360436
C50	C	1.055069	-0.338329	-0.946668
C51	C	0.995174	-0.392427	-0.917747
C52	C	0.995318	-0.392678	-0.832140
C53	C	1.055044	-0.338394	-0.798288
C54	C	1.132167	-0.358491	-0.830296
C55	C	1.131831	-0.358846	-0.915957
C56	C	1.038526	-0.264013	-0.911754
C57	C	1.036771	-0.264443	-0.826122
C58	C	1.055035	-0.338430	-0.714430
C59	C	1.055084	-0.338295	-1.030526
C60	C	1.054959	-0.338453	-0.179695
C61	C	1.055093	-0.338263	-0.097373
H62	H	0.613574	-0.454195	-0.396148
H63	H	0.619076	-0.354899	-0.495539
N64	N	0.488205	-0.249495	-0.472238
H65	H	0.432444	-0.250957	-0.475263
H66	H	0.505528	-0.212034	-0.434398
N67	N	0.490935	-0.211067	-0.326964
H68	H	0.457945	-0.212690	-0.372043
H69	H	0.462898	-0.192314	-0.282670
H70	H	0.937700	-0.379979	-0.937774
H71	H	0.950970	-0.738942	-0.475958
N72	N	1.009140	-0.464955	-0.949489
H73	H	1.054094	-0.462921	-0.982525
H74	H	1.017915	-0.497182	-0.907878
H75	H	0.622115	-0.263622	-0.462821
N76	N	0.944816	-0.596168	-0.482020
H77	H	0.913260	-0.630537	-0.513544
H78	H	0.911918	-0.565772	-0.450470
N79	N	0.484410	-0.372335	-0.508254
H80	H	0.450328	-0.408177	-0.484706
H81	H	0.456287	-0.347388	-0.546692
N82	N	0.631665	-0.211436	-0.326939
H83	H	0.663355	-0.193558	-0.283677
H84	H	0.662691	-0.213096	-0.373315
H85	H	0.980032	-0.249287	-0.805110
H86	H	1.005969	-0.447763	-0.814132
N87	N	0.481992	-0.433263	-0.278717
H88	H	0.426204	-0.433275	-0.277699
H89	H	0.498638	-0.481749	-0.268882
H90	H	0.987132	-0.937361	-0.439969
H91	H	1.128850	-0.605832	-0.298258
N92	N	0.485382	-0.300031	-0.237015
H93	H	0.450251	-0.342512	-0.241007
H94	H	0.527792	-0.309688	-0.203209
N95	N	1.135008	-0.748595	-0.292206
H96	H	1.166558	-0.714224	-0.260678
H97	H	1.103521	-0.779068	-0.259282
N98	N	0.626880	-0.300561	-0.236293
H99	H	0.605857	-0.348137	-0.222882
H100	H	0.682667	-0.300684	-0.235869
H101	H	1.077478	-0.221996	-0.802832
H102	H	0.993375	-0.850591	-0.433677
H103	H	1.177791	-0.321154	-0.935005
N104	N	1.192680	-0.307936	-0.801091
H105	H	1.170630	-0.271433	-0.766745
H106	H	1.230141	-0.334348	-0.773254
H107	H	0.486843	-0.454179	-0.395241
H108	H	1.159079	-0.937319	-0.268278
H109	H	0.615770	-0.428682	-0.298133
N110	N	1.151688	-0.429685	-0.805095
H111	H	1.110690	-0.449022	-0.772957
H112	H	1.158196	-0.462415	-0.849664
H113	H	1.116677	-0.825677	-0.310566
H114	H	0.938024	-0.380101	-0.810543
N115	N	1.165231	-1.080082	-0.262208
H116	H	1.155720	-1.132116	-0.271732
H117	H	1.218690	-1.067219	-0.273204
H118	H	1.082192	-0.223708	-0.930220
H119	H	0.983441	-0.245705	-0.932518
N120	N	1.150917	-0.430804	-0.945672
H121	H	1.201553	-0.442162	-0.927403
H122	H	1.113054	-0.466663	-0.928010
H123	H	0.981200	-1.070430	-0.445983
