data_functionalizedCrystal
_audit_creation_method	'MofGen! by Chris Wilmer'
_symmetry_space_group_name_H-M	'P1'
_symmetry_Int_Tables_number	1
_symmetry_cell_setting	triclinic
loop_
_symmetry_equiv_pos_as_xyz
  x,y,z
_cell_length_a	25.639243
_cell_length_b	25.639240
_cell_length_c	13.897441
_cell_angle_alpha	90.041488
_cell_angle_beta	90.024451
_cell_angle_gamma	90.035481
loop_
_atom_site_label
_atom_site_type_symbol
_atom_site_fract_x
_atom_site_fract_y
_atom_site_fract_z
Zn1	Zn	0.799290	-0.208096	0.545404
Zn2	Zn	0.799210	-0.295539	0.384075
Zn3	Zn	0.711854	-0.208123	0.384112
Zn4	Zn	0.711821	-0.295506	0.545317
O5	O	0.755544	-0.251816	0.464727
O6	O	0.872445	-0.219698	0.524024
O7	O	0.787602	-0.283968	0.249098
O8	O	0.723500	-0.134954	0.405560
O9	O	0.872386	-0.283941	0.405496
O10	O	0.787739	-0.134934	0.524060
O11	O	0.723422	-0.219744	0.249125
O12	O	0.638684	-0.219713	0.405475
O13	O	0.723444	-0.283887	0.680310
O14	O	0.638660	-0.283913	0.523912
O15	O	0.787707	-0.219666	0.680374
O16	O	0.787570	-0.368700	0.405412
O17	O	0.723366	-0.368676	0.523876
C18	C	0.619701	-0.251813	0.464689
C19	C	0.561587	-0.251824	0.464695
C20	C	0.201249	-0.218417	0.526547
C21	C	0.146645	-0.218417	0.526553
O22	O	0.118430	-0.190003	0.579094
N23	N	0.119305	-0.251815	0.464753
C24	C	0.146572	-0.285212	0.402936
O25	O	0.118303	-0.313619	0.350371
C26	C	0.201175	-0.285209	0.402926
C27	C	0.228512	-0.251812	0.464737
C28	C	0.228587	-0.185023	0.588352
C29	C	0.283187	-0.185024	0.588347
C30	C	0.310450	-0.218420	0.526537
C31	C	0.283113	-0.251814	0.464732
C32	C	0.228441	-0.318603	0.341105
C33	C	0.283048	-0.318597	0.341100
C34	C	0.310385	-0.285201	0.402911
C35	C	0.364976	-0.285210	0.402917
N36	N	0.392317	-0.251812	0.464717
C37	C	0.365054	-0.218417	0.526527
C38	C	0.031901	-0.285214	0.402961
C39	C	-0.022701	-0.285219	0.402976
C40	C	-0.022624	-0.218424	0.526591
C41	C	0.031979	-0.218421	0.526581
C42	C	0.059241	-0.251816	0.464761
C43	C	0.479719	-0.218422	0.526513
C44	C	0.534324	-0.218428	0.526505
C45	C	0.534242	-0.285222	0.402886
C46	C	0.479642	-0.285218	0.402897
C47	C	0.452381	-0.251814	0.464713
O48	O	0.393226	-0.313608	0.350400
O49	O	0.393329	-0.190010	0.579075
C50	C	0.755470	-0.387659	0.464651
C51	C	0.755486	-0.445773	0.464651
C52	C	0.789010	-0.806087	0.526541
C53	C	0.789025	-0.860691	0.526561
O54	O	0.817440	-0.888886	0.579105
N55	N	0.755616	-0.888055	0.464820
C56	C	0.722186	-0.860812	0.403062
O57	O	0.693770	-0.889101	0.350549
C58	C	0.722168	-0.806209	0.403048
C59	C	0.755583	-0.778848	0.464786
C60	C	0.822422	-0.778726	0.588275
C61	C	0.822407	-0.724125	0.588254
C62	C	0.788980	-0.696886	0.526499
C63	C	0.755568	-0.724247	0.464765
C64	C	0.688736	-0.778966	0.341296
C65	C	0.688721	-0.724359	0.341288
C66	C	0.722136	-0.696998	0.403026
C67	C	0.722127	-0.642407	0.402989
N68	N	0.755536	-0.615043	0.464730
C69	C	0.788962	-0.642283	0.526485
C70	C	0.722225	-0.975483	0.403098
C71	C	0.722245	-1.030085	0.403106
C72	C	0.789084	-1.029960	0.526606
C73	C	0.789066	-0.975357	0.526592
C74	C	0.755634	-0.948119	0.464839
C75	C	0.788929	-0.527617	0.526435
C76	C	0.788913	-0.473012	0.526406
C77	C	0.722072	-0.473141	0.402910
C78	C	0.722090	-0.527742	0.402935
C79	C	0.755520	-0.554979	0.464706
O80	O	0.693725	-0.614177	0.350475
O81	O	0.817369	-0.613987	0.578998
C82	C	0.891917	-0.251820	0.464766
C83	C	0.950031	-0.251822	0.464782
C84	C	0.755581	-0.251770	0.716320
C85	C	0.755597	-0.251750	0.823534
C86	C	0.755632	-0.115443	0.464824
C87	C	0.755670	-0.057329	0.464865
C88	C	0.755537	-0.251824	0.214112
C89	C	0.755622	-0.251697	0.106899
C90	C	0.755611	-0.251715	1.019829
C91	C	0.755601	-0.251736	0.910597
H92	H	0.556580	-0.191232	0.576842
F93	F	0.824659	-1.058960	0.592333
F94	F	0.450714	-0.182870	0.592304
H95	H	0.305441	-0.157828	0.638678
H96	H	0.849614	-0.701851	0.638529
F97	F	0.858000	-0.807708	0.654013
H98	H	0.054094	-0.312412	0.352623
H99	H	-0.044955	-0.312420	0.352654
F100	F	0.199358	-0.354141	0.275302
H101	H	0.206395	-0.157825	0.638685
H102	H	0.054234	-0.191225	0.576911
H103	H	-0.044832	-0.191230	0.576918
H104	H	0.457382	-0.312418	0.352577
H105	H	0.695041	-1.052358	0.352822
F106	F	0.312059	-0.354142	0.275302
H107	H	0.556450	-0.312413	0.352564
F108	F	0.824480	-0.443895	0.592117
H109	H	0.816147	-0.549787	0.576742
F110	F	0.653169	-0.808074	0.275587
H111	H	0.816275	-0.953083	0.576865
F112	F	0.686643	-0.946498	0.337361
F113	F	0.653137	-0.695373	0.275560
F114	F	0.686533	-0.556863	0.337215
H115	H	0.694858	-0.450955	0.352627
