data_functionalizedCrystal
_audit_creation_method	'MofGen! by Chris Wilmer'
_symmetry_space_group_name_H-M	'P1'
_symmetry_Int_Tables_number	1
_symmetry_cell_setting	triclinic
loop_
_symmetry_equiv_pos_as_xyz
  x,y,z
_cell_length_a	27.732048
_cell_length_b	27.732048
_cell_length_c	15.186229
_cell_angle_alpha	89.991324
_cell_angle_beta	90.002148
_cell_angle_gamma	82.642655
loop_
_atom_site_label
_atom_site_type_symbol
_atom_site_fract_x
_atom_site_fract_y
_atom_site_fract_z
O1	O	0.640926	0.057516	-0.073124
O2	O	0.500133	0.066262	-0.073152
O3	O	0.574902	-0.008508	-0.073121
O4	O	0.566157	0.132286	-0.073156
O5	O	0.574897	-0.008509	0.073336
O6	O	0.500128	0.066261	0.073305
O7	O	0.640921	0.057515	0.073333
Zn8	Zn	0.570524	0.061888	0.096572
Zn9	Zn	0.570530	0.061889	-0.096392
O10	O	0.566152	0.132285	0.073301
C11	C	0.482124	0.066078	0.000073
C12	C	0.428469	0.065525	0.000063
C13	C	0.089654	0.106229	0.000091
C14	C	-0.112006	0.104178	0.000099
O15	O	-0.143262	0.141398	0.000128
N16	N	-0.131130	0.059843	0.000109
C17	C	-0.099835	0.016017	0.000122
O18	O	-0.120728	-0.021740	0.000139
C19	C	0.101824	0.018068	0.000120
C20	C	0.120944	0.062407	0.000101
C21	C	0.108775	0.150563	0.000073
C22	C	0.159187	0.151075	0.000066
C23	C	0.190477	0.107253	0.000077
C24	C	0.171356	0.062919	0.000095
C25	C	0.133117	-0.025757	0.000139
C26	C	0.183535	-0.025240	0.000141
C27	C	0.202655	0.019098	0.000123
C28	C	0.253059	0.019609	0.000098
N29	N	0.272183	0.063944	0.000089
C30	C	0.240892	0.107766	0.000078
C31	C	-0.205709	0.014943	0.000121
C32	C	-0.256124	0.014430	0.000120
C33	C	-0.268291	0.102591	0.000099
C34	C	-0.217876	0.103104	0.000094
C35	C	-0.186585	0.059278	0.000112
C36	C	0.346761	0.108839	0.000063
C37	C	0.397178	0.109347	0.000052
C38	C	0.409341	0.021186	0.000078
C39	C	0.358929	0.020678	0.000084
C40	C	0.327639	0.064508	0.000079
O41	O	0.284343	-0.017592	0.000079
O42	O	0.261794	0.145518	0.000080
C43	C	0.039242	0.105716	0.000098
C44	C	0.020120	0.061382	0.000115
C45	C	0.051411	0.017560	0.000126
C46	C	-0.030294	0.060869	0.000114
C47	C	-0.061585	0.104691	0.000104
C48	C	-0.042461	0.149026	0.000094
C49	C	0.007951	0.149539	0.000087
C50	C	0.032287	-0.026775	0.000135
C51	C	-0.018125	-0.027284	0.000141
C52	C	-0.049416	0.016538	0.000131
C53	C	0.574716	-0.026515	0.000110
C54	C	0.574164	-0.080170	0.000117
C55	C	0.614867	-0.418985	0.000080
C56	C	0.612816	-0.620645	0.000068
O57	O	0.650037	-0.651900	0.000036
N58	N	0.568481	-0.639768	0.000060
C59	C	0.524656	-0.608474	0.000049
O60	O	0.486899	-0.629367	0.000033
C61	C	0.526707	-0.406815	0.000055
C62	C	0.571045	-0.387694	0.000072
C63	C	0.659202	-0.399864	0.000096
C64	C	0.659714	-0.349452	0.000104
C65	C	0.615892	-0.318161	0.000096
C66	C	0.571557	-0.337282	0.000080
C67	C	0.482882	-0.375521	0.000038
C68	C	0.483399	-0.325104	0.000038
C69	C	0.527737	-0.305983	0.000055
C70	C	0.528247	-0.255580	0.000080
N71	N	0.572583	-0.236456	0.000088
C72	C	0.616405	-0.267747	0.000096
C73	C	0.523582	-0.714348	0.000047
C74	C	0.523069	-0.764762	0.000047
C75	C	0.611230	-0.776930	0.000064
C76	C	0.611742	-0.726514	0.000071
C77	C	0.567917	-0.695224	0.000055
C78	C	0.617477	-0.161878	0.000114
C79	C	0.617986	-0.111461	0.000125
C80	C	0.529825	-0.099298	0.000104
C81	C	0.529316	-0.149710	0.000097
C82	C	0.573147	-0.180999	0.000099
O83	O	0.491047	-0.224296	0.000101
O84	O	0.654156	-0.246844	0.000093
C85	C	0.614355	-0.469397	0.000072
C86	C	0.570021	-0.488518	0.000056
C87	C	0.526198	-0.457228	0.000048
C88	C	0.569508	-0.538933	0.000056
C89	C	0.613330	-0.570223	0.000064
C90	C	0.657665	-0.551100	0.000072
C91	C	0.658177	-0.500688	0.000080
C92	C	0.481863	-0.476351	0.000040
C93	C	0.481355	-0.526764	0.000033
C94	C	0.525177	-0.558054	0.000041
C95	C	0.658931	0.057699	0.000106
C96	C	0.712586	0.058252	0.000110
C97	C	0.566338	0.150292	0.000068
C98	C	0.566891	0.203947	0.000055
N99	N	0.570523	0.061887	0.228265
N100	N	0.570535	0.061887	-0.228084
C101	C	0.603642	0.028790	0.454002
C102	C	0.603644	0.028789	0.546191
C103	C	0.537413	0.094985	0.546172
C104	C	0.537409	0.094984	0.453984
C105	C	0.570527	0.061886	0.407901
C106	C	0.570532	0.061887	0.592279
C107	C	0.570533	0.061886	0.692235
C108	C	0.570525	0.061887	0.307939
H109	H	0.057760	-0.062462	0.000146
O110	O	0.501684	0.130679	0.404259
H111	H	0.507240	0.125111	0.332413
H112	H	0.630609	0.001838	0.583724
O113	O	0.501699	0.130688	0.595875
H114	H	0.507269	0.125133	0.667724
H115	H	0.693347	-0.576585	0.000083
O116	O	0.436127	-0.291358	0.000026
H117	H	0.443928	-0.253088	0.000027
O118	O	0.475245	-0.785380	0.000046
H119	H	0.482245	-0.825693	0.000056
O120	O	0.443095	-0.026078	0.000090
H121	H	0.436336	-0.047312	0.059790
H122	H	-0.067947	0.184708	0.000082
H123	H	0.412743	0.145454	0.000037
O124	O	0.313021	0.156114	0.000054
H125	H	0.289767	0.157997	0.059753
O126	O	0.665809	-0.090836	0.000130
H127	H	0.696194	-0.121068	0.000121
O128	O	0.028572	0.197360	0.000085
H129	H	-0.001662	0.227742	0.000091
H130	H	0.174750	0.187180	0.000051
O131	O	-0.038742	-0.075111	0.000160
H132	H	-0.079056	-0.068111	0.000159
O133	O	0.664751	-0.195621	0.000132
H134	H	0.685993	-0.188851	-0.059548
O135	O	0.075029	0.197832	0.000058
H136	H	0.096803	0.228742	0.000041
H137	H	0.695819	-0.333889	0.000114
O138	O	0.433530	-0.547385	0.000017
H139	H	0.403146	-0.517152	0.000005
H140	H	0.487892	-0.688875	0.000035
H141	H	-0.202311	0.139207	0.000084
H142	H	-0.293777	0.138273	0.000091
O143	O	-0.276742	-0.033393	0.000140
H144	H	-0.264145	-0.054434	-0.059542
O145	O	0.706471	-0.433610	0.000117
H146	H	0.737381	-0.411835	0.000137
H147	H	0.446177	-0.450879	0.000032
O148	O	-0.171962	-0.032328	0.000137
H149	H	-0.193735	-0.063239	0.000136
H150	H	0.117558	-0.061861	0.000155
H151	H	0.630608	0.001839	0.416483
H152	H	0.209009	-0.060929	0.000156
H153	H	0.647846	-0.710950	0.000084
O154	O	0.338300	-0.027142	0.000101
H155	H	0.368531	-0.057528	0.000111
H156	H	0.446777	-0.391080	0.000019
O157	O	0.658497	-0.810683	0.000066
H158	H	0.650687	-0.848950	0.000056
H159	H	0.493213	-0.165279	0.000107
H160	H	0.494146	-0.073812	0.000100
H161	H	0.694282	-0.485125	0.000094
