data_functionalizedCrystal
_audit_creation_method	'MofGen! by Chris Wilmer'
_symmetry_space_group_name_H-M	'P1'
_symmetry_Int_Tables_number	1
_symmetry_cell_setting	triclinic
loop_
_symmetry_equiv_pos_as_xyz
  x,y,z
_cell_length_a	10.654554
_cell_length_b	10.654551
_cell_length_c	14.048226
_cell_angle_alpha	89.996418
_cell_angle_beta	89.992813
_cell_angle_gamma	84.486102
loop_
_atom_site_label
_atom_site_type_symbol
_atom_site_fract_x
_atom_site_fract_y
_atom_site_fract_z
O1	O	1.667842	0.176430	-0.079171
O2	O	1.302364	0.193230	-0.079169
O3	O	1.493505	0.002091	-0.079170
O4	O	1.476701	0.367569	-0.079169
O5	O	1.493482	0.002079	0.079151
O6	O	1.302341	0.193218	0.079153
O7	O	1.667818	0.176418	0.079150
Zn8	Zn	1.485076	0.184816	0.104288
Zn9	Zn	1.485107	0.184831	-0.104307
O10	O	1.476677	0.367557	0.079152
C11	C	1.255555	0.191989	-0.000008
C12	C	1.116112	0.188295	-0.000007
C13	C	1.492259	-0.044713	-0.000012
C14	C	1.488567	-0.184156	-0.000018
C15	C	0.933549	0.068808	-0.000020
C16	C	1.064571	0.072279	-0.000010
C17	C	1.036623	0.300848	-0.000004
C18	C	0.905604	0.297376	-0.000007
C19	C	0.949686	-0.063154	-0.000027
C20	C	1.080707	-0.059684	-0.000018
C21	C	1.486847	-0.249662	-0.086318
C22	C	1.483367	-0.380683	-0.086313
C23	C	1.483332	-0.380681	0.086297
C24	C	1.486803	-0.249661	0.086292
C25	C	1.486874	-0.249665	-0.185973
C26	C	1.483393	-0.380685	-0.185969
C27	C	1.714628	0.177659	-0.000013
C28	C	1.854071	0.181353	-0.000020
C29	C	1.477923	0.414361	-0.000009
C30	C	1.481616	0.553804	-0.000008
N31	N	1.485064	0.184805	0.246649
N32	N	1.485128	0.184833	-0.246667
C33	C	1.569729	0.100204	0.296466
C34	C	1.569737	0.100204	0.396124
C35	C	1.485086	0.184811	0.445963
C36	C	1.400413	0.269416	0.396138
C37	C	1.400399	0.269409	0.296482
C38	C	1.400449	0.269425	0.603853
C39	C	1.400464	0.269434	0.703515
C40	C	1.569787	0.100219	0.703494
C41	C	1.569773	0.100213	0.603838
C42	C	1.485101	0.184820	0.554021
H43	H	0.840896	0.389021	0.000004
Cl44	Cl	1.151164	-0.121251	0.105525
H45	H	1.078598	0.395310	0.000007
H46	H	1.481893	-0.434031	0.156568
H47	H	0.920313	-0.114771	0.066225
H48	H	0.914067	-0.105170	-0.068388
H49	H	1.578477	-0.220095	-0.216894
H50	H	1.122474	-0.109395	-0.066276
Cl51	Cl	1.352891	-0.178199	-0.245052
H52	H	1.638676	0.031314	0.436685
Cl53	Cl	1.488923	-0.167310	0.194787
H54	H	1.391802	-0.410252	-0.216899
Cl55	Cl	1.617401	-0.452159	-0.245034
Cl56	Cl	1.676160	-0.006160	0.233823
H57	H	1.638708	0.031326	0.563260
Cl58	Cl	1.676232	-0.006139	0.766125
H59	H	1.331531	0.338328	0.744089
Cl60	Cl	1.293998	0.375788	0.541229
Cl61	Cl	1.293986	0.375775	0.458790
Cl62	Cl	1.293954	0.375766	0.233856
