data_functionalizedCrystal
_audit_creation_method	'MofGen! by Chris Wilmer'
_symmetry_space_group_name_H-M	'P1'
_symmetry_Int_Tables_number	1
_symmetry_cell_setting	triclinic
loop_
_symmetry_equiv_pos_as_xyz
  x,y,z
_cell_length_a	16.959455
_cell_length_b	12.759393
_cell_length_c	12.759387
_cell_angle_alpha	89.972059
_cell_angle_beta	90.021772
_cell_angle_gamma	89.988226
loop_
_atom_site_label
_atom_site_type_symbol
_atom_site_fract_x
_atom_site_fract_y
_atom_site_fract_z
Zn1	Zn	1.208471	0.418297	0.594061
Zn2	Zn	1.208388	0.594014	0.418391
Zn3	Zn	1.076282	0.418340	0.418394
Zn4	Zn	1.076276	0.593925	0.594026
O5	O	1.142354	0.506144	0.506218
O6	O	1.319071	0.441625	0.570772
O7	O	1.190832	0.570765	0.271370
O8	O	1.093854	0.271313	0.441713
O9	O	1.319010	0.570723	0.441707
O10	O	1.190973	0.271281	0.570775
O11	O	1.093774	0.441699	0.271373
O12	O	0.965670	0.441613	0.441679
O13	O	1.093844	0.570572	0.741052
O14	O	0.965666	0.570614	0.570715
O15	O	1.190967	0.441539	0.741078
O16	O	1.190826	0.741023	0.441672
O17	O	1.093764	0.740958	0.570711
C18	C	1.142307	0.779111	0.506210
C19	C	1.142359	0.895888	0.506242
C20	C	0.936988	0.506109	0.506194
C21	C	0.849131	0.506120	0.506208
C22	C	1.142414	0.506041	0.780252
C23	C	1.142439	0.505997	0.897028
C24	C	0.477634	0.438918	0.439169
C25	C	0.477678	0.573456	0.573327
C26	C	0.560224	0.573441	0.573320
C27	C	0.601478	0.506164	0.506236
C28	C	0.560187	0.438903	0.439159
C29	C	0.601521	0.640709	0.640389
C30	C	0.684072	0.640698	0.640384
C31	C	0.725328	0.573415	0.573305
C32	C	0.684032	0.506150	0.506226
C33	C	0.725287	0.438873	0.439142
C34	C	0.683992	0.371601	0.372067
C35	C	0.601443	0.371620	0.372079
C36	C	0.807877	0.573396	0.573292
C37	C	0.807840	0.438858	0.439131
C38	C	1.348522	0.506179	0.506243
C39	C	1.436379	0.506194	0.506253
C40	C	1.243506	0.895903	0.371975
C41	C	1.294100	0.950771	0.304857
C42	C	1.294146	1.060492	0.304893
C43	C	1.243595	1.115348	0.372056
C44	C	1.193001	1.060480	0.439173
C45	C	1.192958	0.950756	0.439128
C46	C	1.091859	1.060466	0.573444
C47	C	1.091807	0.950744	0.573405
C48	C	1.041308	1.115322	0.640607
C49	C	0.990708	1.060453	0.707721
C50	C	0.990663	0.950725	0.707682
C51	C	1.041213	0.895876	0.640522
C52	C	1.142423	1.232110	0.506265
C53	C	1.142453	1.115334	0.506327
C54	C	1.142340	0.506171	0.233250
C55	C	1.142468	0.505918	0.116474
C56	C	1.243580	0.371643	0.897075
C57	C	1.294162	0.304451	0.951960
C58	C	1.294181	0.304413	1.061681
C59	C	1.243612	0.371572	1.116521
C60	C	1.193030	0.438764	1.061637
C61	C	1.193018	0.438798	0.951913
C62	C	1.091886	0.573111	1.061590
C63	C	1.091870	0.573156	0.951868
C64	C	1.041317	0.640270	1.116430
C65	C	0.990738	0.707470	1.061545
C66	C	0.990722	0.707506	0.951817
C67	C	1.041288	0.640349	0.896984
H68	H	0.717592	0.316829	0.317442
C69	C	0.979741	1.183735	0.849074
C70	C	0.935149	1.120754	0.781539
H71	H	0.945438	1.220969	0.894641
H72	H	1.014136	1.140856	0.889282
H73	H	1.009881	1.232106	0.809098
H74	H	0.905013	1.072378	0.821515
H75	H	0.900740	1.163637	0.741327
H76	H	0.949467	0.906057	0.762341
C77	C	1.263668	0.471653	0.739890
C78	C	1.243561	0.371689	0.776468
H79	H	1.263659	0.471676	0.665431
H80	H	1.226313	0.521251	0.764695
H81	H	1.314675	0.489819	0.764726
H82	H	1.192551	0.353527	0.751638
H83	H	1.280917	0.322076	0.751652
H84	H	1.335348	1.105166	0.250245
C85	C	0.979730	0.848738	1.184916
C86	C	0.935158	0.781286	1.121823
H87	H	0.945415	0.894315	1.222126
H88	H	1.009845	0.808709	1.233299
H89	H	1.014148	0.888949	1.142108
H90	H	0.900743	0.741070	1.164633
H91	H	0.905029	0.821320	1.073435
C92	C	1.339064	0.244865	0.783781
C93	C	1.349753	0.230641	0.891678
H94	H	1.373388	0.199302	0.746571
H95	H	1.285966	0.229469	0.765791
H96	H	1.350602	0.315471	0.765806
H97	H	1.338210	0.160036	0.909655
H98	H	1.402863	0.246030	0.909676
H99	H	1.243625	0.371526	1.205862
H100	H	0.567926	0.695490	0.694998
H101	H	0.717687	0.695474	0.695002
H102	H	0.567814	0.316852	0.317469
C103	C	0.966159	0.613411	1.273595
C104	C	1.041336	0.640230	1.237038
H105	H	0.966174	0.613385	1.348054
H106	H	0.928806	0.663037	1.248758
H107	H	0.952520	0.545613	1.248778
H108	H	1.054972	0.708032	1.261848
H109	H	1.078700	0.590602	1.261886
C110	C	0.945777	0.767222	0.783602
C111	C	0.935119	0.781365	0.891491
H112	H	0.911445	0.812816	0.746364
H113	H	0.998871	0.782627	0.765636
H114	H	0.934231	0.696630	0.765636
H115	H	0.946671	0.851955	0.909458
H116	H	0.882013	0.765967	0.909464
H117	H	0.841424	0.384066	0.384509
H118	H	0.444008	0.384144	0.384562
C119	C	0.351157	0.633214	0.632906
C120	C	0.432333	0.647404	0.647063
H121	H	0.323162	0.678864	0.678436
H122	H	0.337610	0.648515	0.562300
H123	H	0.337645	0.562640	0.648399
H124	H	0.445846	0.717976	0.631562
H125	H	0.445885	0.632110	0.717685
C126	C	0.799625	0.706386	0.705897
C127	C	0.853268	0.647330	0.647017
H128	H	0.827648	0.752025	0.751420
H129	H	0.767414	0.746525	0.660057
H130	H	0.767439	0.660656	0.746162
H131	H	0.885449	0.693060	0.606746
H132	H	0.885491	0.607188	0.692863
C133	C	1.394163	0.171616	1.050719
C134	C	1.349781	0.230556	1.122017
H135	H	1.428490	0.126026	1.087970
H136	H	1.359733	0.131430	1.007926
H137	H	1.424376	0.217422	1.007919
H138	H	1.319563	0.184750	1.164812
H139	H	1.384216	0.270745	1.164828
H140	H	1.243463	0.806561	0.371926
C141	C	1.116461	0.667193	0.739832
C142	C	1.041279	0.640381	0.776376
H143	H	1.116457	0.667201	0.665373
H144	H	1.130098	0.734985	0.764637
H145	H	1.153814	0.617562	0.764689
H146	H	1.003927	0.690017	0.751525
H147	H	1.027633	0.572579	0.751560
H148	H	1.335260	0.906097	0.250176
C149	C	1.298734	1.272531	0.299011
C150	C	1.243649	1.235956	0.372101
H151	H	1.298762	1.346989	0.299037
H152	H	1.349717	1.247643	0.317232
H153	H	1.285072	1.247777	0.231192
H154	H	1.257315	1.260703	0.439922
H155	H	1.192655	1.260855	0.353886
H156	H	1.041177	0.806535	0.640477
C157	C	0.966185	1.272594	0.613821
C158	C	1.041356	1.235929	0.640659
H159	H	0.966213	1.347052	0.613863
H160	H	0.952535	1.247853	0.546003
H161	H	0.928827	1.247754	0.663411
H162	H	1.078713	1.260763	0.591065
H163	H	1.055015	1.260681	0.708487
