data_functionalizedCrystal
_audit_creation_method	'MofGen! by Chris Wilmer'
_symmetry_space_group_name_H-M	'P1'
_symmetry_Int_Tables_number	1
_symmetry_cell_setting	triclinic
loop_
_symmetry_equiv_pos_as_xyz
  x,y,z
_cell_length_a	17.077404
_cell_length_b	17.640280
_cell_length_c	17.077396
_cell_angle_alpha	101.225604
_cell_angle_beta	90.019501
_cell_angle_gamma	78.800538
loop_
_atom_site_label
_atom_site_type_symbol
_atom_site_fract_x
_atom_site_fract_y
_atom_site_fract_z
Zn1	Zn	1.263288	-0.314659	0.380745
Zn2	Zn	1.289758	-0.446839	0.222973
Zn3	Zn	1.132026	-0.314687	0.249487
Zn4	Zn	1.158541	-0.446792	0.354206
O5	O	1.210903	-0.380744	0.301853
O6	O	1.376648	-0.332201	0.359827
O7	O	1.268815	-0.429340	0.116637
O8	O	1.127263	-0.204078	0.289102
O9	O	1.396095	-0.429313	0.243912
O10	O	1.223701	-0.204058	0.385536
O11	O	1.152930	-0.332248	0.136117
O12	O	1.025694	-0.332203	0.263368
O13	O	1.172456	-0.429233	0.467580
O14	O	1.045176	-0.429260	0.340305
O15	O	1.249413	-0.332155	0.487078
O16	O	1.294527	-0.557437	0.218179
O17	O	1.198122	-0.557403	0.314595
C18	C	1.006953	-0.380730	0.301834
C19	C	0.919705	-0.380743	0.301841
C20	C	0.888895	-0.431357	0.341806
C21	C	0.806915	-0.431359	0.341818
C22	C	0.755747	-0.380750	0.301860
C23	C	0.786562	-0.330130	0.261894
C24	C	0.868540	-0.330125	0.261887
C25	C	0.615696	-0.330146	0.261910
C26	C	0.533712	-0.330151	0.261915
C27	C	0.554070	-0.431379	0.341841
C28	C	0.636048	-0.431374	0.341834
C29	C	0.666858	-0.380755	0.301866
C30	C	1.252095	-0.586099	0.260647
C31	C	1.269789	-0.673950	0.243045
C32	C	1.076806	-0.962931	0.435857
C33	C	1.093434	-1.045481	0.419293
C34	C	1.193882	-1.045451	0.318996
C35	C	1.177265	-0.962900	0.335555
C36	C	1.118726	-0.921646	0.393986
C37	C	1.219185	-0.921615	0.293683
C38	C	1.202567	-0.839070	0.310238
C39	C	1.144029	-0.797811	0.368665
C40	C	1.102108	-0.839101	0.410541
C41	C	1.277721	-0.962870	0.235249
C42	C	1.319640	-0.921585	0.193377
C43	C	1.303026	-0.839039	0.209936
C44	C	1.244488	-0.797780	0.268362
C45	C	1.344947	-0.797748	0.168060
C46	C	1.328329	-0.715204	0.184615
C47	C	1.227870	-0.715235	0.284917
C48	C	1.415651	-0.380759	0.301872
C49	C	1.502902	-0.380765	0.301880
C50	C	1.210939	-0.380686	0.506609
C51	C	1.210954	-0.380661	0.593864
C52	C	1.169572	-0.174588	0.343237
C53	C	1.151959	-0.086736	0.360872
C54	C	1.210901	-0.380745	0.097905
C55	C	1.210993	-0.380547	0.010695
C56	C	1.251027	-0.330109	0.645009
C57	C	1.251031	-0.330082	0.726995
C58	C	1.210967	-0.380613	0.757833
C59	C	1.170889	-0.431168	0.706682
C60	C	1.170881	-0.431190	0.624699
C61	C	1.170911	-0.431120	0.877562
C62	C	1.170921	-0.431100	0.959550
C63	C	1.251062	-0.330013	0.979858
C64	C	1.251053	-0.330035	0.897874
C65	C	1.210977	-0.380591	0.846729
H66	H	1.180207	-0.681645	0.332503
C67	C	0.520191	-0.487081	0.385781
H68	H	0.562408	-0.517234	0.409561
H69	H	0.482163	-0.456917	0.426099
H70	H	0.495110	-0.521475	0.348772
C71	C	1.295094	-0.274520	0.611094
H72	H	1.318952	-0.244403	0.653301
H73	H	1.335355	-0.304760	0.573047
H74	H	1.258149	-0.240086	0.586025
C75	C	1.374442	-0.669787	0.138561
H76	H	1.411691	-0.706178	0.101397
H77	H	1.337960	-0.637625	0.110781
H78	H	1.402136	-0.637547	0.175094
C79	C	1.125744	-0.707014	0.386880
H80	H	1.084873	-0.688359	0.427671
H81	H	1.172621	-0.688292	0.404256
H82	H	1.108441	-0.688375	0.339947
H83	H	1.029143	-0.929340	0.483444
H84	H	1.059303	-1.079092	0.453404
C85	C	1.296002	-1.053667	0.217034
H86	H	1.336861	-1.072323	0.176230
H87	H	1.313303	-1.072310	0.263960
H88	H	1.249118	-1.072384	0.199656
H89	H	1.241543	-1.079051	0.271419
C90	C	1.126803	-0.486796	0.568436
H91	H	1.132529	-0.479567	0.515194
H92	H	1.148936	-0.539900	0.571210
H93	H	1.071739	-0.475213	0.584189
H94	H	0.781834	-0.472574	0.374361
H95	H	1.367301	-0.955185	0.145800
C96	C	1.295123	-0.274453	0.863952
H97	H	1.318986	-0.244335	0.906154
H98	H	1.335381	-0.304699	0.825905
H99	H	1.258179	-0.240019	0.838882
H100	H	0.640776	-0.288919	0.229372
C101	C	1.295156	-0.274411	1.036112
H102	H	1.289421	-0.281631	1.089356
H103	H	1.350214	-0.286000	1.020355
H104	H	1.273027	-0.221301	1.033340
H105	H	1.392604	-0.831350	0.120480
C106	C	1.126846	-0.486678	0.993473
H107	H	1.102968	-0.516782	0.951274
H108	H	1.163780	-0.521112	1.018545
H109	H	1.086586	-0.456421	1.031521
H110	H	0.744895	-0.288920	0.229364
H111	H	1.138262	-0.472276	0.835923
C112	C	0.692331	-0.487042	0.385787
H113	H	0.662241	-0.517184	0.409598
H114	H	0.731200	-0.521437	0.348799
H115	H	0.718264	-0.456840	0.426097
H116	H	0.930551	-0.472571	0.374341
C117	C	0.477428	-0.274475	0.217972
H118	H	0.507515	-0.244319	0.194179
H119	H	0.451487	-0.304663	0.177664
H120	H	0.438563	-0.240082	0.254974
C121	C	1.126819	-0.486752	0.740598
H122	H	1.102946	-0.516858	0.698395
H123	H	1.163754	-0.521185	0.765671
H124	H	1.086554	-0.456502	0.778645
H125	H	0.893623	-0.288906	0.229348
H126	H	1.054445	-0.805511	0.458127
H127	H	1.283664	-0.288919	0.768634
