data_functionalizedCrystal
_audit_creation_method	'MofGen! by Chris Wilmer'
_symmetry_space_group_name_H-M	'P1'
_symmetry_Int_Tables_number	1
_symmetry_cell_setting	triclinic
loop_
_symmetry_equiv_pos_as_xyz
  x,y,z
_cell_length_a	12.827893
_cell_length_b	16.625546
_cell_length_c	16.625539
_cell_angle_alpha	90.030397
_cell_angle_beta	90.018604
_cell_angle_gamma	90.022629
loop_
_atom_site_label
_atom_site_type_symbol
_atom_site_fract_x
_atom_site_fract_y
_atom_site_fract_z
Zn1	Zn	1.597611	-0.320997	0.455855
Zn2	Zn	1.930945	0.012337	0.789189
Zn3	Zn	2.264278	0.345670	1.122522
Zn4	Zn	1.597486	-0.455840	0.321018
Zn5	Zn	1.930819	-0.122507	0.654351
Zn6	Zn	2.264153	0.210827	0.987684
Zn7	Zn	1.422855	-0.321025	0.321041
Zn8	Zn	1.756188	0.012308	0.654374
Zn9	Zn	2.089521	0.345641	0.987707
Zn10	Zn	1.422816	-0.455791	0.455812
Zn11	Zn	1.756150	-0.122458	0.789145
Zn12	Zn	2.089483	0.210875	1.122479
O13	O	1.510192	-0.388413	0.388431
O14	O	1.843525	-0.055080	0.721765
O15	O	2.176859	0.278253	1.055098
O16	O	1.743831	-0.338892	0.437977
O17	O	2.077164	-0.005559	0.771311
O18	O	2.410497	0.327774	1.104644
O19	O	1.574284	-0.437989	0.208188
O20	O	1.907618	-0.104655	0.541522
O21	O	2.240951	0.228678	0.874855
O22	O	1.446105	-0.208189	0.338952
O23	O	1.779438	0.125144	0.672285
O24	O	2.112772	0.458478	1.005618
O25	O	1.743739	-0.437961	0.338913
O26	O	2.077072	-0.104628	0.672246
O27	O	2.410405	0.228706	1.005579
O28	O	1.574498	-0.208168	0.438000
O29	O	1.907831	0.125165	0.771333
O30	O	2.241165	0.458499	1.104666
O31	O	1.445983	-0.338941	0.208205
O32	O	1.779317	-0.005608	0.541538
O33	O	2.112650	0.327726	0.874872
O34	O	1.276614	-0.338894	0.338910
O35	O	1.609947	-0.005561	0.672243
O36	O	1.943280	0.327773	1.005576
O37	O	1.446040	-0.437878	0.568650
O38	O	1.779373	-0.104545	0.901984
O39	O	2.112706	0.228788	1.235317
O40	O	1.276585	-0.437906	0.437926
O41	O	1.609919	-0.104573	0.771259
O42	O	1.943252	0.228761	1.104593
O43	O	1.574461	-0.338845	0.568682
O44	O	1.907794	-0.005512	0.902015
O45	O	2.241128	0.327821	1.235349
O46	O	1.574247	-0.568666	0.338871
O47	O	1.907580	-0.235333	0.672204
O48	O	2.240914	0.098001	1.005537
O49	O	1.445918	-0.568630	0.437904
O50	O	1.779251	-0.235297	0.771237
O51	O	2.112585	0.098036	1.104570
C52	C	1.238682	-0.388398	0.388416
C53	C	1.572016	-0.055065	0.721749
C54	C	1.905349	0.278268	1.055083
C55	C	1.122529	-0.388412	0.388429
C56	C	1.455862	-0.055078	0.721762
C57	C	1.789196	0.278255	1.055095
C58	C	1.070790	-0.339476	0.437525
C59	C	1.404123	-0.006143	0.770859
C60	C	1.737456	0.327190	1.104192
C61	C	0.950739	-0.339489	0.437539
C62	C	1.284073	-0.006155	0.770873
C63	C	1.617406	0.327178	1.104206
C64	C	1.510093	-0.597904	0.388398
C65	C	1.843427	-0.264571	0.721731
C66	C	2.176760	0.068762	1.055064
C67	C	1.510146	-0.687525	0.388410
C68	C	1.843480	-0.354192	0.721744
C69	C	2.176813	-0.020859	1.055077
C70	C	1.510329	-1.015701	0.388494
C71	C	1.843662	-0.682368	0.721827
C72	C	2.176995	-0.349034	1.055161
C73	C	1.510275	-0.924392	0.388473
C74	C	1.843608	-0.591059	0.721806
C75	C	2.176941	-0.257726	1.055140
C76	C	1.510237	-0.851616	0.388452
C77	C	1.843570	-0.518283	0.721785
C78	C	2.176903	-0.184949	1.055118
C79	C	1.510184	-0.760302	0.388431
C80	C	1.843518	-0.426968	0.721765
C81	C	2.176851	-0.093635	1.055098
C82	C	1.782762	-0.388429	0.388447
C83	C	2.116095	-0.055095	0.721781
C84	C	2.449429	0.278238	1.055114
C85	C	1.898915	-0.388435	0.388454
C86	C	2.232249	-0.055102	0.721787
C87	C	2.565582	0.278231	1.055121
C88	C	1.510320	-0.178104	0.388483
C89	C	1.843653	0.155229	0.721816
C90	C	2.176986	0.488562	1.055150
C91	C	1.510374	-0.088483	0.388505
C92	C	1.843708	0.244850	0.721838
C93	C	2.177041	0.578183	1.055172
C94	C	1.510260	-0.388353	0.598740
C95	C	1.843593	-0.055020	0.932074
C96	C	2.176927	0.278313	1.265407
C97	C	1.510289	-0.388328	0.688362
C98	C	1.843622	-0.054994	1.021695
C99	C	2.176956	0.278339	1.355028
C100	C	1.510185	-0.388415	0.178941
C101	C	1.843518	-0.055082	0.512274
C102	C	2.176851	0.278252	0.845607
C103	C	1.510358	-0.388213	0.089320
C104	C	1.843691	-0.054880	0.422653
C105	C	2.177025	0.278453	0.755987
C106	C	1.510337	-0.388237	1.016537
C107	C	1.843670	-0.054904	1.349871
C108	C	2.177004	0.278429	1.683204
C109	C	1.510321	-0.388265	0.925229
C110	C	1.843654	-0.054932	1.258562
C111	C	2.176988	0.278402	1.591896
C112	C	1.510314	-0.388283	0.852452
C113	C	1.843647	-0.054950	1.185786
C114	C	2.176980	0.278383	1.519119
C115	C	1.510296	-0.388310	0.761138
C116	C	1.843630	-0.054976	1.094471
C117	C	2.176963	0.278357	1.427805
H118	H	1.077948	-0.430314	0.346404
H119	H	1.411282	-0.096981	0.679737
H120	H	1.744615	0.236352	1.013071
H121	H	1.115371	-0.297569	0.479545
H122	H	1.448704	0.035765	0.812879
H123	H	1.782037	0.369098	1.146212
H124	H	0.943403	-0.430337	0.346423
H125	H	1.276737	-0.097004	0.679756
H126	H	1.610070	0.236329	1.013090
H127	H	0.906245	-0.297596	0.479576
H128	H	1.239578	0.035737	0.812909
H129	H	1.572911	0.369071	1.146242
