data_functionalizedCrystal
_audit_creation_method	'MofGen! by Chris Wilmer'
_symmetry_space_group_name_H-M	'P1'
_symmetry_Int_Tables_number	1
_symmetry_cell_setting	triclinic
loop_
_symmetry_equiv_pos_as_xyz
  x,y,z
_cell_length_a	20.453700
_cell_length_b	19.453103
_cell_length_c	11.102315
_cell_angle_alpha	85.492648
_cell_angle_beta	108.606275
_cell_angle_gamma	78.290822
loop_
_atom_site_label
_atom_site_type_symbol
_atom_site_fract_x
_atom_site_fract_y
_atom_site_fract_z
V1	V	1.358920	-0.097185	0.396849
O2	O	1.357414	0.004666	0.388686
O3	O	1.339786	-0.192698	0.394719
O4	O	1.351360	-0.095692	0.569661
O5	O	1.345760	-0.093011	0.212533
V6	V	1.519408	-0.085002	0.374732
O7	O	1.447513	-0.123909	0.445363
O8	O	1.580880	-0.058278	0.326217
O9	O	1.464140	0.010511	0.376862
O10	O	1.560046	-0.186853	0.382894
O11	O	1.571701	-0.089176	0.559047
O12	O	1.452566	-0.086495	0.201919
V13	V	1.692254	-0.097185	0.396849
O14	O	1.690747	0.004666	0.388686
O15	O	1.673119	-0.192698	0.394719
O16	O	1.684693	-0.095692	0.569661
O17	O	1.679093	-0.093011	0.212533
V18	V	1.852741	-0.085002	0.374732
O19	O	1.780847	-0.123909	0.445363
O20	O	1.914213	-0.058278	0.326217
O21	O	1.797473	0.010511	0.376862
O22	O	1.893380	-0.186853	0.382894
O23	O	1.905034	-0.089176	0.559047
O24	O	1.785899	-0.086495	0.201919
V25	V	2.025587	-0.097185	0.396849
O26	O	2.024081	0.004666	0.388686
O27	O	2.006453	-0.192698	0.394719
O28	O	2.018027	-0.095692	0.569661
O29	O	2.012426	-0.093011	0.212533
V30	V	2.186074	-0.085002	0.374732
O31	O	2.114180	-0.123909	0.445363
O32	O	2.247547	-0.058278	0.326217
O33	O	2.130806	0.010511	0.376862
O34	O	2.226713	-0.186853	0.382894
O35	O	2.238367	-0.089176	0.559047
O36	O	2.119232	-0.086495	0.201919
C37	C	1.287112	-0.215982	0.388609
C38	C	1.298620	-0.294065	0.388020
C39	C	1.364933	-0.334320	0.394099
C40	C	1.375749	-0.407689	0.393558
C41	C	1.320243	-0.440796	0.386913
C42	C	1.253921	-0.400532	0.380841
C43	C	1.243110	-0.327166	0.381395
N44	N	1.280101	-0.547060	0.308592
N45	N	1.290375	-0.616755	0.308064
C46	C	1.352813	-0.661843	0.385247
N47	N	1.404597	-0.634604	0.462963
N48	N	1.394323	-0.564903	0.463486
C49	C	1.331959	-0.520349	0.386312
C50	C	1.430858	-0.781654	0.390741
C51	C	1.441673	-0.855024	0.390208
C52	C	1.319841	-0.847865	0.377478
C53	C	1.309031	-0.774497	0.378024
C54	C	1.364541	-0.741396	0.384650
C55	C	1.301876	-0.092240	0.611764
C56	C	1.322769	-0.091651	0.753043
C57	C	1.404594	0.033791	0.382968
C58	C	1.386166	0.111873	0.383565
C59	C	1.389830	-0.089949	0.159810
C60	C	1.362017	-0.090535	0.018530
C61	C	1.620445	-0.215982	0.388609
C62	C	1.631953	-0.294065	0.388020
C63	C	1.444617	-0.098670	0.766056
C64	C	1.515353	-0.101906	0.838934
C65	C	1.534980	-0.101351	0.971677
C66	C	1.483864	-0.097559	1.031543
C67	C	1.413127	-0.094324	0.958665
C68	C	1.393506	-0.094881	0.825920
C69	C	1.291280	-0.087300	0.945651
C70	C	1.271652	-0.087859	0.812909
C71	C	1.240163	-0.083508	1.005518
C72	C	1.169426	-0.080278	0.932641
C73	C	1.149800	-0.080833	0.799890
C74	C	1.200915	-0.084624	0.740031
C75	C	1.635209	-0.092240	0.611764
C76	C	1.656102	-0.091651	0.753043
C77	C	1.737927	0.033791	0.382968
C78	C	1.719499	0.111873	0.383565
C79	C	1.723164	-0.089949	0.159810
C80	C	1.695350	-0.090535	0.018530
C81	C	1.953779	-0.215982	0.388609
C82	C	1.965287	-0.294065	0.388020
C83	C	1.968542	-0.092240	0.611764
C84	C	1.989436	-0.091651	0.753043
C85	C	2.071261	0.033791	0.382968
C86	C	2.052832	0.111873	0.383565
C87	C	2.056497	-0.089949	0.159810
C88	C	2.028683	-0.090535	0.018530
C89	C	1.698276	-0.334315	0.394115
C90	C	1.709101	-0.407684	0.393581
C91	C	1.653602	-0.440801	0.386943
C92	C	1.587275	-0.400546	0.380851
C93	C	1.576452	-0.327179	0.381395
C94	C	1.768173	0.152123	0.377474
C95	C	1.750862	0.225492	0.378014
C96	C	1.684879	0.258609	0.384655
C97	C	1.636201	0.218354	0.390743
C98	C	1.653510	0.144987	0.390194
C99	C	2.031609	-0.334315	0.394115
C100	C	2.042435	-0.407684	0.393581
C101	C	1.986936	-0.440801	0.386943
C102	C	1.920609	-0.400546	0.380851
C103	C	1.909786	-0.327179	0.381395
C104	C	2.101506	0.152123	0.377474
C105	C	2.084196	0.225492	0.378014
C106	C	2.018212	0.258609	0.384655
C107	C	1.969534	0.218354	0.390743
C108	C	1.986844	0.144987	0.390194
C109	C	1.680867	-0.220301	0.790152
C110	C	1.703062	-0.284346	0.875078
C111	C	1.722693	-0.283789	1.007820
C112	C	1.720130	-0.219179	1.055639
C113	C	1.697935	-0.155134	0.970713
C114	C	1.678303	-0.155698	0.837969
C115	C	1.673176	-0.026486	0.933605
C116	C	1.653540	-0.027041	0.800862
C117	C	1.670613	0.038124	0.981424
C118	C	1.648413	0.102171	0.896497
C119	C	1.628780	0.101611	0.763747
C120	C	1.631344	0.037004	0.715936
C121	C	2.014200	-0.220301	0.790152
C122	C	2.036395	-0.284346	0.875078
C123	C	2.056026	-0.283789	1.007820
C124	C	2.053464	-0.219179	1.055639
C125	C	2.031268	-0.155134	0.970713
C126	C	2.011636	-0.155698	0.837969
C127	C	2.006509	-0.026486	0.933605
C128	C	1.986873	-0.027041	0.800862
C129	C	2.003947	0.038124	0.981424
C130	C	1.981746	0.102171	0.896497
C131	C	1.962113	0.101611	0.763747
C132	C	1.964678	0.037004	0.715936
H133	H	1.410136	-0.307374	0.399502
N134	N	1.898371	0.254074	0.397919
H135	H	1.871396	0.291180	0.319247
H136	H	1.905942	0.277486	0.477676
N137	N	1.999556	0.337739	0.385271
H138	H	1.950371	0.352616	0.390406
H139	H	2.000702	0.363582	0.303711
H140	H	1.740767	-0.335940	1.076968
N141	N	1.665274	-0.519932	0.386347
H142	H	1.704624	-0.545828	0.467902
H143	H	1.678940	-0.532118	0.309467
H144	H	1.429750	-0.440471	0.398507
N145	N	1.666223	0.337739	0.385271
H146	H	1.617038	0.352616	0.390406
H147	H	1.667369	0.363582	0.303711
H148	H	1.947206	0.112220	0.395165
N149	N	1.860749	-0.436267	0.373667
H150	H	1.819416	-0.415115	0.291781
H151	H	1.845111	-0.428757	0.450219
N152	N	1.527414	-0.436267	0.373657
H153	H	1.544339	-0.488850	0.374220
H154	H	1.486109	-0.415059	0.291764
H155	H	2.096445	-0.440450	0.398538
H156	H	1.092197	-0.078182	0.740555
N157	N	1.171585	-0.283743	0.374845
H158	H	1.138062	-0.315847	0.370560
H159	H	1.151616	-0.246326	0.295603
N160	N	1.838249	-0.283770	0.374820
H161	H	1.804738	-0.315887	0.370531
H162	H	1.818276	-0.246355	0.295572
H163	H	2.074100	-0.335940	1.076968
N164	N	1.803374	0.268898	0.371468
H165	H	1.847802	0.236780	0.367198
H166	H	1.815921	0.292669	0.450618
H167	H	1.995758	-0.500542	0.386501
H168	H	1.944045	0.153764	0.694607
H169	H	1.582477	0.245329	0.396149
N170	N	1.504916	-0.283770	0.374820
H171	H	1.471405	-0.315887	0.370531
H172	H	1.484943	-0.246355	0.295572
H173	H	2.123840	0.258257	0.373058
H174	H	1.686604	0.038572	1.089512
N175	N	2.074637	-0.218574	1.198809
H176	H	2.115934	-0.195570	1.227911
H177	H	2.089053	-0.268966	1.245254
H178	H	1.208729	-0.427493	0.375433
H179	H	2.038481	-0.336950	0.836129
H180	H	1.476058	-0.754701	0.396134
H181	H	1.998206	-0.220760	0.682067
H182	H	2.155237	0.125169	0.372067
H183	H	1.664873	-0.220760	0.682067
N184	N	1.179744	-0.085222	0.596859
H185	H	1.207354	-0.130478	0.580046
H186	H	1.190517	-0.042961	0.554923
N187	N	2.025121	0.038729	1.124594
H188	H	2.039568	-0.011646	1.171140
H189	H	1.983535	0.066542	1.144750
H190	H	1.705148	-0.336950	0.836129
H191	H	1.613873	0.112220	0.395165
H192	H	2.076806	-0.307360	0.399513
H193	H	1.736125	-0.218732	1.163727
N194	N	1.259968	-0.883559	0.370304
H195	H	1.244282	-0.876047	0.446808
H196	H	1.276922	-0.936132	0.370834
N197	N	1.839343	0.116413	0.370313
H198	H	1.867543	0.153053	0.366531
H199	H	1.831785	0.092951	0.290612
N200	N	1.645655	0.171849	0.948071
H201	H	1.661464	0.162484	1.045049
H202	H	1.595387	0.202230	0.912362
H203	H	1.610712	0.153764	0.694607
N204	N	1.610083	0.036405	0.572756
H205	H	1.615047	-0.014239	0.555352
H206	H	1.641888	0.059169	0.537873
H207	H	1.127812	-0.077186	0.981393
N208	N	1.978989	0.171849	0.948071
H209	H	1.994798	0.162484	1.045049
H210	H	1.928720	0.202230	0.912362
H211	H	1.255031	-0.741720	0.373066
N212	N	1.513202	-0.898448	0.396777
H213	H	1.546723	-0.866342	0.401057
H214	H	1.507512	-0.922225	0.317635
N215	N	1.423450	-0.099281	0.622887
H216	H	1.466563	-0.102177	0.596022
H217	H	1.386369	-0.054290	0.575835
N218	N	1.570483	-0.105986	0.774364
H219	H	1.547319	-0.105846	0.679213
H220	H	1.608938	-0.151166	0.813016
N221	N	1.943416	0.036405	0.572756
H222	H	1.948380	-0.014239	0.555352
H223	H	1.975221	0.059169	0.537873
H224	H	1.592579	-0.103984	1.031015
H225	H	1.499848	-0.097099	1.139628
H226	H	1.256148	-0.083052	1.113603
N227	N	1.758148	-0.298613	0.401290
H228	H	1.769198	-0.275153	0.480994
H229	H	1.743518	-0.261546	0.322556
H230	H	1.763111	-0.440450	0.398538
