data_functionalizedCrystal
_audit_creation_method	'MofGen! by Chris Wilmer'
_symmetry_space_group_name_H-M	'P1'
_symmetry_Int_Tables_number	1
_symmetry_cell_setting	triclinic
loop_
_symmetry_equiv_pos_as_xyz
  x,y,z
_cell_length_a	14.519709
_cell_length_b	14.971506
_cell_length_c	13.448316
_cell_angle_alpha	89.992937
_cell_angle_beta	89.992453
_cell_angle_gamma	83.651266
loop_
_atom_site_label
_atom_site_type_symbol
_atom_site_fract_x
_atom_site_fract_y
_atom_site_fract_z
O1	O	0.120273	1.187004	-0.082701
O2	O	0.134645	0.926614	-0.082702
O3	O	-0.006783	1.063713	-0.082692
O4	O	0.261701	1.049905	-0.082710
O5	O	-0.006792	1.063696	0.082691
O6	O	0.134637	0.926597	0.082682
O7	O	0.120264	1.186987	0.082683
Cu8	Cu	0.127450	1.056790	0.097783
Cu9	Cu	0.127460	1.056811	-0.097802
O10	O	0.261692	1.049888	0.082673
C11	C	0.133995	0.893281	-0.000010
C12	C	0.132059	0.793984	-0.000010
C13	C	0.207756	0.355744	-0.000025
C14	C	0.209568	0.449045	-0.000029
C15	C	0.126474	0.506218	-0.000020
C16	C	0.041562	0.470086	-0.000015
C17	C	0.039750	0.376786	-0.000018
C18	C	0.045342	0.664551	-0.000007
C19	C	0.047153	0.757857	-0.000003
C20	C	0.215160	0.736810	-0.000019
C21	C	0.213349	0.643510	-0.000021
C22	C	0.128437	0.607384	-0.000015
C23	C	-0.041147	1.063061	-0.000000
C24	C	-0.143527	1.061132	0.000000
C25	C	-0.518419	1.054033	-0.000026
C26	C	-0.414112	1.056005	-0.000018
C27	C	-0.330976	1.057583	-0.000012
C28	C	-0.226663	1.059555	-0.000006
C29	C	0.296056	1.050540	-0.000021
C30	C	0.398436	1.052468	-0.000028
C31	C	0.120914	1.220320	-0.000011
C32	C	0.122851	1.319617	-0.000018
N33	N	0.127442	1.056782	0.235348
N34	N	0.127460	1.056825	-0.235367
C35	C	0.064843	1.117509	0.287392
C36	C	0.064842	1.117514	0.391495
C37	C	0.127445	1.056797	0.443552
C38	C	0.190047	0.996064	0.391500
C39	C	0.190043	0.996055	0.287399
C40	C	0.190053	0.996089	0.608480
C41	C	0.190059	0.996099	0.712589
C42	C	0.064853	1.117548	0.712577
C43	C	0.064848	1.117539	0.608475
C44	C	0.127452	1.056807	0.556431
H45	H	-0.026095	0.516644	-0.000013
F46	F	0.301788	0.582663	-0.000027
H47	H	0.013869	1.166961	0.433869
H48	H	0.241029	0.946632	0.566109
F49	F	-0.041285	0.818704	0.000002
F50	F	0.256667	0.931419	0.232011
H51	H	-0.029388	0.347374	-0.000014
F52	F	-0.001774	1.182165	0.553072
F53	F	0.256689	0.931474	0.767984
H54	H	0.278707	0.478454	-0.000045
H55	H	0.013879	1.166998	0.754958
H56	H	-0.023802	0.635141	-0.000007
F57	F	-0.001785	1.182138	0.231999
H58	H	0.241017	0.946623	0.433891
H59	H	0.284299	0.766227	-0.000023
F60	F	0.296199	0.294903	-0.000028
