data_functionalizedCrystal
_audit_creation_method	'MofGen! by Chris Wilmer'
_symmetry_space_group_name_H-M	'P1'
_symmetry_Int_Tables_number	1
_symmetry_cell_setting	triclinic
loop_
_symmetry_equiv_pos_as_xyz
  x,y,z
_cell_length_a	18.050591
_cell_length_b	12.759394
_cell_length_c	12.759387
_cell_angle_alpha	90.031660
_cell_angle_beta	89.971092
_cell_angle_gamma	89.989157
loop_
_atom_site_label
_atom_site_type_symbol
_atom_site_fract_x
_atom_site_fract_y
_atom_site_fract_z
Zn1	Zn	1.135420	0.418323	-0.594234
Zn2	Zn	1.135343	0.594040	-0.418552
Zn3	Zn	1.011222	0.418363	-0.418545
Zn4	Zn	1.011216	0.593948	-0.594165
O5	O	1.073300	0.506169	-0.506374
O6	O	1.239334	0.441654	-0.570961
O7	O	1.118848	0.570791	-0.271530
O8	O	1.027732	0.271337	-0.441877
O9	O	1.239277	0.570752	-0.441888
O10	O	1.118980	0.271307	-0.570955
O11	O	1.027657	0.441722	-0.271525
O12	O	0.907297	0.441634	-0.441810
O13	O	1.027722	0.570596	-0.741196
O14	O	0.907293	0.570635	-0.570837
O15	O	1.118974	0.441565	-0.741246
O16	O	1.118842	0.741049	-0.441821
O17	O	1.027647	0.740982	-0.570844
C18	C	0.880348	0.506129	-0.506316
C19	C	0.797802	0.506138	-0.506316
C20	C	1.073256	0.779136	-0.506349
C21	C	1.073305	0.895913	-0.506373
C22	C	1.073356	0.506066	-0.780408
C23	C	1.073380	0.506022	-0.897185
C24	C	0.598332	0.435906	-0.436313
C25	C	0.548926	0.531736	-0.410462
C26	C	0.646672	0.506170	-0.506364
C27	C	0.548997	0.410373	-0.532211
C28	C	0.500687	0.506192	-0.506408
C29	C	0.598353	0.602051	-0.480463
C30	C	0.598428	0.480623	-0.602257
C31	C	0.549044	0.576519	-0.576443
C32	C	0.730770	0.506156	-0.506336
C33	C	0.416590	0.506217	-0.506436
C34	C	1.267006	0.506209	-0.506433
C35	C	1.349552	0.506226	-0.506458
C36	C	1.073365	0.232135	-0.506423
C37	C	1.073393	0.115358	-0.506443
C38	C	1.168337	0.895930	-0.372123
C39	C	1.215873	0.950799	-0.305010
C40	C	1.215916	1.060520	-0.305039
C41	C	1.168421	1.115375	-0.372189
C42	C	1.120885	1.060506	-0.439302
C43	C	1.120845	0.950782	-0.439264
C44	C	1.025857	1.060489	-0.573556
C45	C	1.025809	0.950768	-0.573524
C46	C	0.978362	1.115344	-0.640707
C47	C	0.930821	1.060475	-0.707816
C48	C	0.930779	0.950747	-0.707784
C49	C	0.978273	0.895899	-0.640637
C50	C	1.168407	0.371670	-0.897257
C51	C	1.215931	0.304479	-0.952154
C52	C	1.215949	0.304441	-1.061876
C53	C	1.168437	0.371599	-1.116703
C54	C	1.120913	0.438790	-1.061806
C55	C	1.120902	0.438823	-0.952082
C56	C	1.025883	0.573135	-1.061734
C57	C	1.025868	0.573180	-0.952012
C58	C	0.978371	0.640293	-1.116561
C59	C	0.930849	0.707491	-1.061664
C60	C	0.930834	0.707527	-0.951935
C61	C	0.978344	0.640371	-0.897115
C62	C	1.073287	0.506195	-0.233407
C63	C	1.073407	0.505943	-0.116631
H64	H	0.619975	0.376549	-0.377009
H65	H	1.254643	0.249721	-1.106573
H66	H	1.168467	1.204716	-0.372216
Cl67	Cl	0.515836	0.668375	-0.667935
H68	H	1.168297	0.806588	-0.372079
H69	H	0.527278	0.329359	-0.554019
Cl70	Cl	0.631681	0.727182	-0.446591
Cl71	Cl	1.168454	0.371539	-1.254640
H72	H	0.620188	0.458968	-0.683309
Cl73	Cl	1.275640	0.220031	-0.883224
H74	H	1.254545	0.906126	-0.250338
H75	H	1.254628	1.105195	-0.250395
H76	H	0.978404	1.204685	-0.640730
H77	H	0.527184	0.553361	-0.329386
Cl78	Cl	0.978393	0.640245	-1.254497
H79	H	0.892165	0.762160	-1.106312
Cl80	Cl	0.871124	1.129440	-0.792231
H81	H	0.892073	0.906078	-0.762439
H82	H	0.892126	0.762232	-0.907245
H83	H	0.978239	0.806557	-0.640597
Cl84	Cl	1.168399	0.371728	-0.759320
Cl85	Cl	0.978331	0.640416	-0.759178
