data_functionalizedCrystal
_audit_creation_method	'MofGen! by Chris Wilmer'
_symmetry_space_group_name_H-M	'P1'
_symmetry_Int_Tables_number	1
_symmetry_cell_setting	triclinic
loop_
_symmetry_equiv_pos_as_xyz
  x,y,z
_cell_length_a	18.050591
_cell_length_b	12.759399
_cell_length_c	12.759393
_cell_angle_alpha	90.032031
_cell_angle_beta	89.972345
_cell_angle_gamma	89.988878
loop_
_atom_site_label
_atom_site_type_symbol
_atom_site_fract_x
_atom_site_fract_y
_atom_site_fract_z
Zn1	Zn	1.135410	0.418316	-0.594236
Zn2	Zn	1.135334	0.594035	-0.418555
Zn3	Zn	1.011214	0.418358	-0.418547
Zn4	Zn	1.011205	0.593941	-0.594168
O5	O	1.073291	0.506162	-0.506377
O6	O	1.239324	0.441647	-0.570963
O7	O	1.118841	0.570788	-0.271533
O8	O	1.027724	0.271331	-0.441878
O9	O	1.239269	0.570747	-0.441891
O10	O	1.118970	0.271300	-0.570956
O11	O	1.027651	0.441719	-0.271527
O12	O	0.907288	0.441628	-0.441812
O13	O	1.027709	0.570587	-0.741198
O14	O	0.907282	0.570628	-0.570840
O15	O	1.118961	0.441556	-0.741248
O16	O	1.118833	0.741043	-0.441825
O17	O	1.027636	0.740974	-0.570848
C18	C	1.073245	0.779130	-0.506353
C19	C	1.073294	0.895906	-0.506378
C20	C	0.880339	0.506123	-0.506319
C21	C	0.797793	0.506132	-0.506319
C22	C	1.073343	0.506056	-0.780410
C23	C	1.073365	0.506011	-0.897187
C24	C	0.598324	0.435900	-0.436315
C25	C	0.548918	0.531731	-0.410465
C26	C	0.646662	0.506164	-0.506366
C27	C	0.548987	0.410366	-0.532213
C28	C	0.500677	0.506186	-0.506410
C29	C	0.598343	0.602045	-0.480466
C30	C	0.598417	0.480615	-0.602259
C31	C	0.549033	0.576512	-0.576446
C32	C	0.730761	0.506149	-0.506338
C33	C	0.416581	0.506211	-0.506438
C34	C	1.266996	0.506202	-0.506436
C35	C	1.349542	0.506219	-0.506461
C36	C	1.073357	0.232129	-0.506424
C37	C	1.073385	0.115352	-0.506444
C38	C	1.120834	0.950769	-0.439272
C39	C	1.120882	1.060493	-0.439307
C40	C	1.025842	1.060482	-0.573557
C41	C	1.025799	0.950760	-0.573526
C42	C	1.208540	1.210381	-0.401937
C43	C	1.256074	1.265248	-0.334815
C44	C	1.267500	1.229711	-0.232307
C45	C	1.231382	1.139309	-0.196900
C46	C	1.183842	1.084448	-0.264016
C47	C	1.172430	1.119984	-0.366539
C48	C	0.938140	0.800870	-0.610886
C49	C	0.890596	0.746007	-0.677998
C50	C	0.879162	0.781542	-0.780507
C51	C	0.915267	0.871947	-0.815910
C52	C	0.962811	0.926810	-0.748799
C53	C	0.974246	0.891267	-0.646290
C54	C	1.025899	0.438792	-0.952046
C55	C	1.025916	0.438760	-1.061770
C56	C	1.120871	0.573167	-1.061767
C57	C	1.120850	0.573204	-0.952045
C58	C	0.938370	0.401151	-1.211703
C59	C	0.890911	0.333916	-1.266565
C60	C	0.879528	0.231411	-1.230974
C61	C	0.915615	0.196120	-1.140522
C62	C	0.963080	0.263350	-1.085666
C63	C	0.974449	0.365869	-1.121255
C64	C	1.208397	0.610802	-0.802110
C65	C	1.255866	0.678027	-0.747251
C66	C	1.267256	0.780534	-0.782840
C67	C	1.231182	0.815821	-0.873295
C68	C	1.183713	0.748596	-0.928154
C69	C	1.172322	0.646091	-0.892557
C70	C	1.073282	0.506192	-0.233409
C71	C	1.073404	0.505942	-0.116633
H72	H	0.619967	0.376545	-0.377011
H73	H	0.527177	0.553357	-0.329389
Cl74	Cl	0.952515	0.756187	-0.482012
H75	H	0.527268	0.329352	-0.554021
Cl76	Cl	0.952664	0.530028	-1.256441
H77	H	0.527526	0.636010	-0.635704
H78	H	0.620176	0.458960	-0.683311
H79	H	1.159508	0.906110	-0.384598
Cl80	Cl	0.631671	0.727177	-0.446595
H81	H	0.905958	0.900880	-0.899383
H82	H	1.199105	0.527344	-0.773103
H83	H	1.154437	1.010843	-0.235189
H84	H	0.861201	0.672389	-0.649166
Cl85	Cl	1.245741	1.094647	-0.068020
H86	H	1.306205	1.274391	-0.177656
H87	H	0.906350	0.112646	-1.111558
H88	H	1.285482	1.338853	-0.363653
Cl89	Cl	0.966200	0.354325	-0.883085
H90	H	0.840885	0.176668	-1.275651
Cl91	Cl	1.138362	0.792959	-1.041871
Cl92	Cl	1.194189	1.255054	-0.530815
Cl93	Cl	1.180566	0.657632	-1.130739
H94	H	0.987172	1.105157	-0.628225
H95	H	1.285247	0.649282	-0.673605
H96	H	0.992213	1.000420	-0.777634
H97	H	0.840445	0.736863	-0.835148
H98	H	1.240460	0.899289	-0.902276
Cl99	Cl	1.008444	0.218994	-0.971962
Cl100	Cl	1.326940	0.865041	-0.713878
H101	H	0.861529	0.362660	-1.340212
