data_functionalizedCrystal
_audit_creation_method	'MofGen! by Chris Wilmer'
_symmetry_space_group_name_H-M	'P1'
_symmetry_Int_Tables_number	1
_symmetry_cell_setting	triclinic
loop_
_symmetry_equiv_pos_as_xyz
  x,y,z
_cell_length_a	17.699083
_cell_length_b	17.699092
_cell_length_c	15.021413
_cell_angle_alpha	89.993746
_cell_angle_beta	90.000631
_cell_angle_gamma	83.284691
loop_
_atom_site_label
_atom_site_type_symbol
_atom_site_fract_x
_atom_site_fract_y
_atom_site_fract_z
O1	O	-1.004080	-0.095714	0.073895
O2	O	-0.783702	-0.108167	0.073926
O3	O	-0.900114	0.008248	0.073908
O4	O	-0.887668	-0.212129	0.073913
O5	O	-0.900101	0.008259	-0.074157
O6	O	-0.783690	-0.108156	-0.074138
O7	O	-1.004068	-0.095704	-0.074169
Zn8	Zn	-0.893877	-0.101928	-0.097662
Zn9	Zn	-0.893893	-0.101942	0.097419
O10	O	-0.887656	-0.212119	-0.074151
C11	C	-0.755499	-0.107715	-0.000102
C12	C	-0.671480	-0.106377	-0.000091
C13	C	-0.622862	-0.174710	-0.000089
C14	C	-0.543918	-0.173448	-0.000100
C15	C	-0.513595	-0.103851	-0.000106
C16	C	-0.562220	-0.035513	-0.000111
C17	C	-0.641162	-0.036776	-0.000106
C18	C	-0.243857	-0.030418	-0.000130
C19	C	-0.164909	-0.029160	-0.000132
C20	C	-0.146613	-0.167089	-0.000123
C21	C	-0.225555	-0.168352	-0.000119
C22	C	-0.274173	-0.100014	-0.000128
C23	C	-0.359772	-0.101384	-0.000118
C24	C	-0.427998	-0.102481	-0.000110
N25	N	-0.893871	-0.101919	-0.230800
C26	C	-0.899661	0.036450	-0.000123
C27	C	-0.898319	0.120468	-0.000119
C28	C	-0.032271	-0.096155	-0.000137
C29	C	-0.116289	-0.097494	-0.000136
C30	C	-0.888109	-0.240321	-0.000118
C31	C	-0.889450	-0.324339	-0.000117
C32	C	-0.897698	0.159930	0.080592
C33	C	-0.896433	0.238873	0.080593
C34	C	-0.895795	0.278353	-0.000117
C35	C	-0.896415	0.238886	-0.080835
C36	C	-0.897674	0.159943	-0.080835
C37	C	-0.891334	0.557251	-0.080835
C38	C	-0.890077	0.636199	-0.080829
C39	C	-0.890093	0.636180	0.080593
C40	C	-0.891352	0.557238	0.080593
C41	C	-0.891968	0.517777	-0.000124
C42	C	-0.893338	0.432178	-0.000124
C43	C	-0.894430	0.363952	-0.000118
N44	N	-0.893904	-0.101946	0.230556
C45	C	-0.947837	-0.048191	0.529539
C46	C	-0.879526	-0.033490	0.470181
C47	C	-0.893881	-0.101928	0.587593
C48	C	-0.962201	-0.116602	0.470209
C49	C	-0.893896	-0.101934	0.412169
C50	C	-0.825535	-0.087192	0.529542
C51	C	-0.908255	-0.170334	0.529575
C52	C	-0.839895	-0.155662	0.470244
C53	C	-0.893873	-0.101922	0.688651
C54	C	-0.893896	-0.101941	0.311114
H55	H	-0.504335	-0.229091	-0.000097
F56	F	-0.863630	0.042119	0.436088
H57	H	-0.895930	0.271000	0.146316
H58	H	-0.767750	-0.074718	0.555495
H59	H	-0.891875	0.525097	0.146316
H60	H	-0.107018	-0.222733	-0.000121
H61	H	-0.993408	-0.002716	0.555575
H62	H	-0.889555	0.668341	-0.146557
F63	F	-0.780200	-0.215068	0.436427
H64	H	-0.647544	-0.231383	-0.000083
F65	F	-0.924174	-0.245920	0.563705
F66	F	-0.257822	-0.242426	-0.000107
F67	F	-1.037712	-0.132821	0.436139
F68	F	-0.898382	0.117920	0.166497
H69	H	-0.283433	0.025227	-0.000138
F70	F	-0.132640	0.044918	-0.000139
F71	F	-0.895727	0.280905	-0.166733
F72	F	-0.529947	0.038557	-0.000123
F73	F	-0.889436	0.678184	0.166500
F74	F	-0.898335	0.117946	-0.166738
F75	F	-0.692906	0.035954	-0.000111
F76	F	-0.891979	0.515262	-0.166741
