data_functionalizedCrystal
_audit_creation_method	'MofGen! by Chris Wilmer'
_symmetry_space_group_name_H-M	'P1'
_symmetry_Int_Tables_number	1
_symmetry_cell_setting	triclinic
loop_
_symmetry_equiv_pos_as_xyz
  x,y,z
_cell_length_a	12.645330
_cell_length_b	18.215407
_cell_length_c	12.645318
_cell_angle_alpha	90.040845
_cell_angle_beta	89.942319
_cell_angle_gamma	89.986688
loop_
_atom_site_label
_atom_site_type_symbol
_atom_site_fract_x
_atom_site_fract_y
_atom_site_fract_z
Zn1	Zn	-0.421812	-1.125276	-0.599387
Zn2	Zn	0.078188	-0.625276	-0.099387
Zn3	Zn	-0.599201	-1.125151	-0.422127
Zn4	Zn	-0.099201	-0.625151	0.077873
Zn5	Zn	-0.421939	-1.002159	-0.422138
Zn6	Zn	0.078061	-0.502159	0.077862
Zn7	Zn	-0.599020	-1.002190	-0.599349
Zn8	Zn	-0.099020	-0.502190	-0.099349
O9	O	-0.510493	-1.063694	-0.510750
O10	O	-0.010493	-0.563694	-0.010750
O11	O	-0.445365	-1.228244	-0.575885
O12	O	0.054635	-0.728244	-0.075885
O13	O	-0.575816	-1.108770	-0.273781
O14	O	-0.075816	-0.608770	0.226219
O15	O	-0.273574	-1.018531	-0.445671
O16	O	0.226426	-0.518531	0.054329
O17	O	-0.575693	-1.228152	-0.445653
O18	O	-0.075693	-0.728152	0.054347
O19	O	-0.273481	-1.108984	-0.575895
O20	O	0.226519	-0.608984	-0.075895
O21	O	-0.445582	-1.018409	-0.273789
O22	O	0.054418	-0.518409	0.226211
O23	O	-0.445406	-0.899179	-0.445634
O24	O	0.054594	-0.399179	0.054366
O25	O	-0.575384	-1.018583	-0.747702
O26	O	-0.075384	-0.518583	-0.247702
O27	O	-0.575507	-0.899202	-0.575830
O28	O	-0.075507	-0.399202	-0.075830
O29	O	-0.445190	-1.109014	-0.747730
O30	O	0.054810	-0.609014	-0.247730
O31	O	-0.747524	-1.108800	-0.445616
O32	O	-0.247524	-0.608800	0.054384
O33	O	-0.747391	-1.018461	-0.575820
O34	O	-0.247391	-0.518461	-0.075820
C35	C	-0.510451	-0.872488	-0.510730
C36	C	-0.010451	-0.372488	-0.010730
C37	C	-0.510459	-0.790689	-0.510746
C38	C	-0.010459	-0.290689	-0.010746
C39	C	-0.785923	-1.063640	-0.510736
C40	C	-0.285923	-0.563640	-0.010736
C41	C	-0.903753	-1.063685	-0.510765
C42	C	-0.403753	-0.563685	-0.010765
C43	C	-0.442729	-0.602542	-0.578663
C44	C	0.057271	-0.102542	-0.078663
C45	C	-0.442734	-0.525683	-0.578666
C46	C	0.057266	-0.025683	-0.078666
C47	C	-0.578241	-0.525598	-0.442846
C48	C	-0.078241	-0.025598	0.057154
C49	C	-0.578229	-0.602455	-0.442839
C50	C	-0.078229	-0.102455	0.057161
C51	C	-0.510475	-0.640925	-0.510753
C52	C	-0.010475	-0.140925	-0.010753
C53	C	-0.510492	-0.487209	-0.510763
C54	C	-0.010492	0.012791	-0.010763
C55	C	-0.510498	-0.403876	-0.510766
C56	C	-0.010498	0.096124	-0.010766
C57	C	-0.510466	-0.724264	-0.510750
C58	C	-0.010466	-0.224264	-0.010750
C59	C	-1.071277	-1.007087	-0.592929
C60	C	-0.571277	-0.507087	-0.092929
C61	C	-0.948717	-1.006798	-0.592665
C62	C	-0.448717	-0.506798	-0.092665
C63	C	-0.948408	-1.042661	-0.399044
C64	C	-0.448408	-0.542661	0.100956
C65	C	-1.071006	-1.042315	-0.399542
C66	C	-0.571006	-0.542315	0.100458
C67	C	-1.070834	-1.141652	-0.539416
C68	C	-0.570834	-0.641652	-0.039416
C69	C	-0.948226	-1.141175	-0.541859
C70	C	-0.448226	-0.641175	-0.041859
C71	C	-0.233987	-1.063768	-0.510789
C72	C	0.266013	-0.563768	-0.010789
C73	C	-0.116157	-1.063800	-0.510805
C74	C	0.383843	-0.563800	-0.010805
C75	C	-0.510252	-1.063816	-0.787256
C76	C	-0.010252	-0.563816	-0.287256
C77	C	-0.510150	-1.063868	-0.905086
C78	C	-0.010150	-0.563868	-0.405086
C79	C	-0.510524	-0.255647	-0.510769
C80	C	-0.010524	0.244353	-0.010769
C81	C	-0.510507	-0.337446	-0.510771
C82	C	-0.010507	0.162554	-0.010771
C83	C	-0.510656	-1.063615	-0.235320
C84	C	-0.010656	-0.563615	0.264680
C85	C	-0.510459	-1.063705	-0.117491
C86	C	-0.010459	-0.563705	0.382509
C87	C	-0.429053	-1.006477	-0.072676
C88	C	0.070947	-0.506477	0.427324
C89	C	-0.429119	-1.006349	0.049884
C90	C	0.070881	-0.506349	0.549884
C91	C	-0.622230	-1.043572	0.050751
C92	C	-0.122230	-0.543572	0.550751
C93	C	-0.621939	-1.043063	-0.071847
C94	C	-0.121939	-0.543063	0.428153
C95	C	-0.480694	-1.141413	-0.072592
C96	C	0.019306	-0.641413	0.427408
C97	C	-0.478056	-1.141079	0.050009
C98	C	0.021944	-0.641079	0.550009
H99	H	-0.387555	-0.633862	-0.633961
H100	H	0.112445	-0.133862	-0.133961
H101	H	-1.102182	-0.949732	-0.574216
H102	H	-0.602182	-0.449732	-0.074216
H103	H	-0.387567	-0.494435	-0.633964
H104	H	0.112433	0.005565	-0.133964
H105	H	-0.345813	-1.018891	-0.102398
H106	H	0.154187	-0.518891	0.397602
Br107	Br	-0.670190	-0.473384	-0.350682
Br108	Br	-0.170190	0.026616	0.149318
Br109	Br	-1.120512	-1.108163	-0.294074
Br110	Br	-0.620512	-0.608163	0.205926
Br111	Br	-0.670162	-0.654552	-0.350653
Br112	Br	-0.170162	-0.154552	0.149347
H113	H	-0.918517	-1.019955	-0.675505
H114	H	-0.418517	-0.519955	-0.175505
Br115	Br	-1.120223	-1.028810	-0.731461
Br116	Br	-0.620223	-0.528810	-0.231461
H117	H	-0.400402	-1.159981	-0.103761
H118	H	0.099598	-0.659981	0.396239
Br119	Br	-1.118846	-0.947460	-0.359144
Br120	Br	-0.618846	-0.447460	0.140856
H121	H	-0.919487	-0.949082	-0.573710
H122	H	-0.419487	-0.449082	-0.073710
H123	H	-0.919290	-1.082656	-0.336183
H124	H	-0.419290	-0.582656	0.163817
Br125	Br	-0.899569	-1.167604	-0.678901
Br126	Br	-0.399569	-0.667604	-0.178901
Br127	Br	-0.461963	-0.910442	0.099124
Br128	Br	0.038037	-0.410442	0.599124
H129	H	-0.917805	-0.986342	-0.374368
H130	H	-0.417805	-0.486342	0.125632
H131	H	-1.101634	-1.160825	-0.619498
H132	H	-0.601634	-0.660825	-0.119498
Br133	Br	-0.897192	-1.215319	-0.449433
Br134	Br	-0.397192	-0.715319	0.050567
H135	H	-1.099861	-1.183905	-0.479601
H136	H	-0.599861	-0.683905	0.020399
H137	H	-0.346051	-1.018964	0.079729
H138	H	0.153949	-0.518964	0.579729
Br139	Br	-0.461644	-0.911036	-0.123679
Br140	Br	0.038356	-0.411036	0.376321
Br141	Br	-0.663739	-0.948435	-0.119150
Br142	Br	-0.163739	-0.448435	0.380850
Br143	Br	-0.726554	-1.109596	-0.121239
Br144	Br	-0.226554	-0.609596	0.378761
Br145	Br	-0.725996	-1.111030	0.099381
Br146	Br	-0.225996	-0.611030	0.599381
Br147	Br	-0.664579	-0.950062	0.102285
Br148	Br	-0.164579	-0.450062	0.602285
Br149	Br	-0.340573	-1.166605	0.098056
Br150	Br	0.159427	-0.666605	0.598056
H151	H	-0.532841	-1.185988	0.080645
H152	H	-0.032841	-0.685988	0.580645
Br153	Br	-0.579485	-1.212470	-0.120893
Br154	Br	-0.079485	-0.712470	0.379107
