data_functionalizedCrystal
_audit_creation_method	'MofGen! by Chris Wilmer'
_symmetry_space_group_name_H-M	'P1'
_symmetry_Int_Tables_number	1
_symmetry_cell_setting	triclinic
loop_
_symmetry_equiv_pos_as_xyz
  x,y,z
_cell_length_a	29.839134
_cell_length_b	29.839131
_cell_length_c	29.839126
_cell_angle_alpha	90.021998
_cell_angle_beta	90.035740
_cell_angle_gamma	90.036281
loop_
_atom_site_label
_atom_site_type_symbol
_atom_site_fract_x
_atom_site_fract_y
_atom_site_fract_z
Zn1	Zn	0.686781	-0.178959	0.254125
Zn2	Zn	1.186781	0.321041	0.754125
Zn3	Zn	0.686695	-0.254076	0.178995
Zn4	Zn	1.186695	0.245924	0.678995
Zn5	Zn	0.611645	-0.178955	0.178995
Zn6	Zn	1.111645	0.321045	0.678995
Zn7	Zn	0.611611	-0.254056	0.254083
Zn8	Zn	1.111611	0.245944	0.754083
O9	O	0.649183	-0.216511	0.216550
O10	O	1.149183	0.283489	0.716550
O11	O	0.749636	-0.188934	0.244176
O12	O	1.249636	0.311066	0.744176
O13	O	0.676718	-0.244118	0.116128
O14	O	1.176718	0.255882	0.616128
O15	O	0.621662	-0.116088	0.188978
O16	O	1.121662	0.383912	0.688978
O17	O	0.749573	-0.244122	0.188979
O18	O	1.249573	0.255878	0.688979
O19	O	0.676864	-0.116091	0.244176
O20	O	1.176864	0.383909	0.744176
O21	O	0.621579	-0.188927	0.116128
O22	O	1.121579	0.311073	0.616128
O23	O	0.548774	-0.188906	0.188938
O24	O	1.048774	0.311094	0.688938
O25	O	0.621604	-0.244087	0.316956
O26	O	1.121604	0.255913	0.816956
O27	O	0.548749	-0.244083	0.244105
O28	O	1.048749	0.255917	0.744105
O29	O	0.676831	-0.188914	0.316987
O30	O	1.176831	0.311086	0.816987
O31	O	0.676684	-0.316941	0.188938
O32	O	1.176684	0.183059	0.688938
O33	O	0.621521	-0.316926	0.244105
O34	O	1.121521	0.183074	0.744105
C35	C	0.532460	-0.216492	0.216517
C36	C	1.032460	0.283508	0.716517
C37	C	0.482526	-0.216495	0.216514
C38	C	0.982526	0.283505	0.716514
C39	C	0.172879	-0.245284	0.245240
C40	C	0.672879	0.254716	0.745240
C41	C	-0.014794	-0.245297	0.245260
C42	C	0.485206	0.254703	0.745260
O43	O	-0.039062	-0.269754	0.269665
O44	O	0.460938	0.230246	0.769665
N45	N	-0.038259	-0.216528	0.216583
N46	N	0.461741	0.283472	0.716583
C47	C	-0.014803	-0.187752	0.187902
C48	C	0.485197	0.312248	0.687902
O49	O	-0.039068	-0.163279	0.163514
O50	O	0.460932	0.336721	0.663514
C51	C	0.172869	-0.187737	0.187884
C52	C	0.672869	0.312263	0.687884
C53	C	0.196332	-0.216511	0.216560
C54	C	0.696332	0.283489	0.716560
C55	C	0.196342	-0.274056	0.273913
C56	C	0.696342	0.225944	0.773913
C57	C	0.243257	-0.274054	0.273906
C58	C	0.743257	0.225946	0.773906
C59	C	0.266710	-0.245281	0.245226
C60	C	0.766710	0.254719	0.745226
C61	C	0.243247	-0.216509	0.216553
C62	C	0.743247	0.283491	0.716553
C63	C	0.196325	-0.158959	0.159205
C64	C	0.696325	0.341041	0.659205
C65	C	0.243246	-0.158957	0.159204
C66	C	0.743246	0.341043	0.659204
C67	C	0.266708	-0.187731	0.187880
C68	C	0.766708	0.312269	0.687880
C69	C	0.313616	-0.187734	0.187865
C70	C	0.813616	0.312266	0.687865
N71	N	0.337081	-0.216504	0.216542
N72	N	0.837081	0.283496	0.716542
C73	C	0.313628	-0.245277	0.245222
C74	C	0.813628	0.254723	0.745222
C75	C	-0.113334	-0.187762	0.187912
C76	C	0.386666	0.312238	0.687912
C77	C	-0.160251	-0.187766	0.187916
C78	C	0.339749	0.312234	0.687916
C79	C	-0.160239	-0.245311	0.245275
C80	C	0.339761	0.254689	0.745275
C81	C	-0.113321	-0.245309	0.245269
C82	C	0.386679	0.254691	0.745269
C83	C	-0.089869	-0.216531	0.216589
C84	C	0.410131	0.283469	0.716589
C85	C	0.412154	-0.245271	0.245205
C86	C	0.912154	0.254729	0.745205
C87	C	0.459073	-0.245268	0.245194
C88	C	0.959073	0.254732	0.745194
C89	C	0.459057	-0.187722	0.187837
C90	C	0.959057	0.312278	0.687837
C91	C	0.412141	-0.187726	0.187846
C92	C	0.912141	0.312274	0.687846
C93	C	0.388691	-0.216502	0.216534
C94	C	0.888691	0.283498	0.716534
O95	O	0.337912	-0.163287	0.163477
O96	O	0.837912	0.336713	0.663477
O97	O	0.337900	-0.269739	0.269613
O98	O	0.837900	0.230261	0.769613
C99	C	0.125964	-0.245286	0.245247
C100	C	0.625964	0.254714	0.745247
C101	C	0.102501	-0.216515	0.216574
C102	C	0.602501	0.283485	0.716574
C103	C	0.125954	-0.187741	0.187893
C104	C	0.625954	0.312259	0.687893
C105	C	0.055583	-0.216519	0.216577
C106	C	0.555583	0.283481	0.716577
C107	C	0.032130	-0.245292	0.245258
C108	C	0.532130	0.254708	0.745258
C109	C	0.055595	-0.274061	0.273934
C110	C	0.555595	0.225939	0.773934
C111	C	0.102511	-0.274059	0.273927
C112	C	0.602511	0.225941	0.773927
C113	C	0.102489	-0.158972	0.159217
C114	C	0.602489	0.341028	0.659217
C115	C	0.055573	-0.158977	0.159226
C116	C	0.555573	0.341023	0.659226
C117	C	0.032120	-0.187750	0.187906
C118	C	0.532120	0.312250	0.687906
C119	C	0.649102	-0.333234	0.216527
C120	C	1.149102	0.166766	0.716527
C121	C	0.649108	-0.383168	0.216533
C122	C	1.149108	0.116832	0.716533
C123	C	0.677959	-0.692807	0.187866
C124	C	1.177959	-0.192807	0.687866
C125	C	0.678014	-0.880480	0.187883
C126	C	1.178014	-0.380480	0.687883
O127	O	0.702480	-0.904741	0.163493
O128	O	1.202480	-0.404741	0.663493
N129	N	0.649276	-0.903953	0.216583
N130	N	1.149276	-0.403953	0.716583
C131	C	0.620524	-0.880506	0.245283
C132	C	1.120524	-0.380506	0.745283
O133	O	0.596085	-0.904777	0.269698
O134	O	1.096085	-0.404777	0.769698
C135	C	0.620471	-0.692833	0.245268
C136	C	1.120471	-0.192833	0.745268
C137	C	0.649208	-0.669363	0.216563
C138	C	1.149208	-0.169363	0.716563
C139	C	0.706694	-0.669336	0.159164
C140	C	1.206694	-0.169336	0.659164
C141	C	0.706678	-0.622421	0.159158
C142	C	1.206678	-0.122421	0.659158
C143	C	0.677927	-0.598976	0.187854
C144	C	1.177927	-0.098976	0.687854
C145	C	0.649192	-0.622447	0.216557
C146	C	1.149192	-0.122447	0.716557
C147	C	0.591722	-0.669387	0.273969
C148	C	1.091722	-0.169387	0.773969
C149	C	0.591712	-0.622466	0.273964
C150	C	1.091712	-0.122466	0.773964
C151	C	0.620449	-0.598995	0.245259
C152	C	1.120449	-0.098995	0.745259
C153	C	0.620426	-0.552087	0.245248
C154	C	1.120426	-0.052087	0.745248
N155	N	0.649164	-0.528614	0.216548
N156	N	1.149164	-0.028614	0.716548
C157	C	0.677915	-0.552058	0.187851
C158	C	1.177915	-0.052058	0.687851
C159	C	0.620553	-0.979036	0.245289
C160	C	1.120553	-0.479036	0.745289
C161	C	0.620566	-1.025954	0.245292
C162	C	1.120566	-0.525954	0.745292
C163	C	0.678057	-1.025925	0.187893
C164	C	1.178057	-0.525925	0.687893
C165	C	0.678042	-0.979007	0.187887
C166	C	1.178042	-0.479007	0.687887
C167	C	0.649291	-0.955563	0.216589
C168	C	1.149291	-0.455563	0.716589
C169	C	0.677879	-0.453533	0.187841
C170	C	1.177879	0.046467	0.687841
C171	C	0.677859	-0.406613	0.187836
C172	C	1.177859	0.093387	0.687836
C173	C	0.620370	-0.406646	0.245237
C174	C	1.120370	0.093354	0.745237
C175	C	0.620388	-0.453561	0.245240
C176	C	1.120388	0.046439	0.745240
C177	C	0.649146	-0.477004	0.216540
C178	C	1.149146	0.022996	0.716540
O179	O	0.595976	-0.527797	0.269629
O180	O	1.095976	-0.027797	0.769629
O181	O	0.702357	-0.527778	0.163447
O182	O	1.202357	-0.027778	0.663447
C183	C	0.677975	-0.739723	0.187872
C184	C	1.177975	-0.239723	0.687872
C185	C	0.649240	-0.763193	0.216574
C186	C	1.149240	-0.263193	0.716574
C187	C	0.620489	-0.739749	0.245271
C188	C	1.120489	-0.239749	0.745271
C189	C	0.649252	-0.810111	0.216578
C190	C	1.149252	-0.310111	0.716578
C191	C	0.678003	-0.833556	0.187881
C192	C	1.178003	-0.333556	0.687881
C193	C	0.706741	-0.810082	0.159181
C194	C	1.206741	-0.310082	0.659181
C195	C	0.706726	-0.763167	0.159175
C196	C	1.206726	-0.263167	0.659175
C197	C	0.591751	-0.763222	0.273971
C198	C	1.091751	-0.263222	0.773971
C199	C	0.591769	-0.810138	0.273974
C200	C	1.091769	-0.310138	0.773974
C201	C	0.620520	-0.833582	0.245277
C202	C	1.120520	-0.333582	0.745277
C203	C	0.766361	-0.216531	0.216582
C204	C	1.266361	0.283469	0.716582
C205	C	0.816296	-0.216539	0.216596
C206	C	1.316296	0.283461	0.716596
C207	C	0.649223	-0.216499	0.333728
C208	C	1.149223	0.283501	0.833728
C209	C	0.649240	-0.216493	0.383662
C210	C	1.149240	0.283507	0.883662
C211	C	0.649277	-0.099333	0.216582
C212	C	1.149277	0.400667	0.716582
C213	C	0.649317	-0.049399	0.216595
C214	C	1.149317	0.450601	0.716595
C215	C	0.649169	-0.216492	0.099827
C216	C	1.149169	0.283508	0.599827
C217	C	0.649239	-0.216371	0.049893
C218	C	1.149239	0.283629	0.549893
C219	C	0.677945	-0.245172	0.740253
C220	C	1.177945	0.254828	1.240253
C221	C	0.677946	-0.245203	0.552580
C222	C	1.177946	0.254797	1.052580
O223	O	0.702347	-0.269657	0.528318
O224	O	1.202347	0.230343	1.028318
N225	N	0.649238	-0.216471	0.529108
N226	N	1.149238	0.283529	1.029108
C227	C	0.620527	-0.187732	0.552557
C228	C	1.120527	0.312268	1.052557
O229	O	0.596106	-0.163298	0.528286
O230	O	1.096106	0.336702	1.028286
C231	C	0.620524	-0.187704	0.740229
C232	C	1.120524	0.312296	1.240229
C233	C	0.649237	-0.216434	0.763699
C234	C	1.149237	0.283566	1.263699
C235	C	0.706655	-0.273900	0.763723
C236	C	1.206655	0.226100	1.263723
C237	C	0.706656	-0.273890	0.810638
C238	C	1.206656	0.226110	1.310638
C239	C	0.677947	-0.245152	0.834084
C240	C	1.177947	0.254848	1.334084
C241	C	0.649238	-0.216424	0.810614
C242	C	1.149238	0.283576	1.310614
C243	C	0.591811	-0.158967	0.763677
C244	C	1.091811	0.341033	1.263677
C245	C	0.591812	-0.158963	0.810598
C246	C	1.091812	0.341037	1.310598
C247	C	0.620524	-0.187693	0.834068
C248	C	1.120524	0.312307	1.334068
C249	C	0.620531	-0.187676	0.880975
C250	C	1.120531	0.312324	1.380975
N251	N	0.649238	-0.216407	0.904447
N252	N	1.149238	0.283593	1.404447
C253	C	0.677946	-0.245145	0.881002
C254	C	1.177946	0.254855	1.381002
C255	C	0.620531	-0.187749	0.454026
C256	C	1.120531	0.312251	0.954026
C257	C	0.620532	-0.187755	0.407108
C258	C	1.120532	0.312245	0.907108
C259	C	0.677950	-0.245227	0.407134
C260	C	1.177950	0.254773	0.907134
C261	C	0.677951	-0.245217	0.454053
C262	C	1.177951	0.254783	0.954053
C263	C	0.649238	-0.216480	0.477498
C264	C	1.149238	0.283520	0.977498
C265	C	0.677947	-0.245122	0.979527
C266	C	1.177947	0.254878	1.479527
C267	C	0.677947	-0.245109	1.026447
C268	C	1.177947	0.254891	1.526447
C269	C	0.620527	-0.187639	1.026417
C270	C	1.120527	0.312361	1.526417
C271	C	0.620529	-0.187651	0.979501
C272	C	1.120529	0.312349	1.479501
C273	C	0.649240	-0.216396	0.956058
C274	C	1.149240	0.283604	1.456058
O275	O	0.596139	-0.163238	0.905266
O276	O	1.096139	0.336762	1.405266
O277	O	0.702356	-0.269583	0.905280
O278	O	1.202356	0.230417	1.405280
C279	C	0.677944	-0.245181	0.693337
C280	C	1.177944	0.254819	1.193337
C281	C	0.649234	-0.216453	0.669868
C282	C	1.149234	0.283547	1.169868
C283	C	0.620526	-0.187715	0.693313
C284	C	1.120526	0.312285	1.193313
C285	C	0.649235	-0.216460	0.622950
C286	C	1.149235	0.283540	1.122950
C287	C	0.677944	-0.245198	0.599504
C288	C	1.177944	0.254802	1.099504
C289	C	0.706651	-0.273929	0.622976
C290	C	1.206651	0.226071	1.122976
C291	C	0.706652	-0.273919	0.669892
C292	C	1.206652	0.226081	1.169892
C293	C	0.591818	-0.158984	0.669841
C294	C	1.091818	0.341016	1.169841
C295	C	0.591820	-0.158996	0.622926
C296	C	1.091820	0.341004	1.122926
C297	C	0.620528	-0.187734	0.599480
C298	C	1.120528	0.312266	1.099480
H299	H	0.177251	-0.297487	0.297271
H300	H	0.677251	0.202513	0.797271
H301	H	0.568364	-0.829244	0.297349
H302	H	1.068364	-0.329244	0.797349
Br303	Br	0.581568	-0.148654	0.947648
Br304	Br	1.081568	0.351346	1.447648
H305	H	0.730035	-0.297286	0.829743
H306	H	1.230035	0.202714	1.329743
H307	H	0.478174	-0.268701	0.268545
H308	H	0.978174	0.231299	0.768545
Br309	Br	0.716919	-0.284209	0.485900
Br310	Br	1.216919	0.215791	0.985900
Br311	Br	0.490895	-0.148675	0.148915
Br312	Br	0.990895	0.351325	0.648915
Br313	Br	0.716918	-0.284101	1.058296
Br314	Br	1.216918	0.215899	1.558296
Br315	Br	0.380335	-0.284325	0.284139
Br316	Br	0.880335	0.215675	0.784139
H317	H	0.730028	-0.297327	0.603878
H318	H	1.230028	0.202673	1.103878
H319	H	0.597161	-1.045060	0.268662
H320	H	1.097161	-0.545060	0.768662
Br321	Br	0.745621	-0.312907	0.731912
Br322	Br	1.245621	0.187093	1.231912
H323	H	-0.094220	-0.268739	0.268619
H324	H	0.405780	0.231261	0.768619
H325	H	0.701260	-0.387504	0.164459
H326	H	1.201260	0.112496	0.664459
Br327	Br	0.581355	-0.374819	0.284182
Br328	Br	1.081355	0.125181	0.784182
Br329	Br	0.552844	-0.119958	0.842413
Br330	Br	1.052844	0.380042	1.342413
H331	H	0.262356	-0.297484	0.297258
H332	H	0.762356	0.202516	0.797258
H333	H	0.568339	-0.744137	0.297340
H334	H	1.068339	-0.244137	0.797340
Br335	Br	0.275071	-0.119897	0.120281
Br336	Br	0.775071	0.380103	0.620281
H337	H	0.393037	-0.164297	0.164496
H338	H	0.893037	0.335703	0.664496
Br339	Br	0.745758	-0.841909	0.120234
Br340	Br	1.245758	-0.341909	0.620234
Br341	Br	0.716911	-0.284229	0.375306
Br342	Br	1.216911	0.215771	0.875306
H343	H	-0.179343	-0.268739	0.268628
H344	H	0.320657	0.231261	0.768628
H345	H	0.701297	-0.472614	0.164472
H346	H	1.201297	0.027386	0.664472
Br347	Br	0.717074	-1.057752	0.148946
Br348	Br	1.217074	-0.557752	0.648946
H349	H	0.730079	-0.603313	0.135785
H350	H	1.230079	-0.103313	0.635785
Br351	Br	0.745729	-0.731321	0.120217
Br352	Br	1.245729	-0.231321	0.620217
H353	H	0.596989	-0.472672	0.268615
H354	H	1.096989	0.027328	0.768615
H355	H	0.036474	-0.135546	0.135871
H356	H	0.536474	0.364454	0.635871
Br357	Br	0.134345	-0.313113	0.312845
Br358	Br	0.634345	0.186887	0.812845
Br359	Br	0.717043	-0.947158	0.148929
Br360	Br	1.217043	-0.447158	0.648929
H361	H	0.568429	-0.135573	0.744576
H362	H	1.068429	0.364427	1.244576
Br363	Br	-0.192088	-0.148721	0.148991
Br364	Br	0.307912	0.351279	0.648991
H365	H	-0.094243	-0.164327	0.164556
H366	H	0.405757	0.335673	0.664556
H367	H	0.730109	-0.688420	0.135795
H368	H	1.230109	-0.188420	0.635795
Br369	Br	0.164494	-0.119903	0.120289
Br370	Br	0.664494	0.380097	0.620289
H371	H	0.597157	-0.164355	0.388003
H372	H	1.097157	0.335645	0.888003
Br373	Br	0.552693	-0.590652	0.312919
Br374	Br	1.052693	-0.090652	0.812919
Br375	Br	0.716912	-0.284134	0.947719
Br376	Br	1.216912	0.215866	1.447719
H377	H	0.036492	-0.297491	0.297286
H378	H	0.536492	0.202509	0.797286
H379	H	0.121579	-0.135541	0.135861
H380	H	0.621579	0.364459	0.635861
H381	H	0.597148	-0.164346	0.473111
H382	H	1.097148	0.335654	0.973111
Br383	Br	0.581569	-0.148638	1.058245
Br384	Br	1.081569	0.351362	1.558245
Br385	Br	0.581531	-0.947227	0.284244
Br386	Br	1.081531	-0.447227	0.784244
Br387	Br	0.552852	-0.119998	0.591080
Br388	Br	1.052852	0.380002	1.091080
Br389	Br	0.552842	-0.119989	0.701653
Br390	Br	1.052842	0.380011	1.201653
H391	H	0.568319	-0.688489	0.297342
H392	H	1.068319	-0.188489	0.797342
H393	H	0.730033	-0.297314	0.688996
H394	H	1.230033	0.202686	1.188996
