data_functionalizedCrystal
_audit_creation_method	'MofGen! by Chris Wilmer'
_symmetry_space_group_name_H-M	'P1'
_symmetry_Int_Tables_number	1
_symmetry_cell_setting	triclinic
loop_
_symmetry_equiv_pos_as_xyz
  x,y,z
_cell_length_a	12.759401
_cell_length_b	17.640280
_cell_length_c	12.759393
_cell_angle_alpha	78.768122
_cell_angle_beta	89.981433
_cell_angle_gamma	78.799979
loop_
_atom_site_label
_atom_site_type_symbol
_atom_site_fract_x
_atom_site_fract_y
_atom_site_fract_z
Zn1	Zn	1.690822	-0.314645	-0.509510
Zn2	Zn	1.726246	-0.446842	-0.298339
Zn3	Zn	1.515134	-0.314684	-0.333839
Zn4	Zn	1.550626	-0.446779	-0.473998
O5	O	1.620707	-0.380738	-0.403922
O6	O	1.842545	-0.332192	-0.481504
O7	O	1.698214	-0.429354	-0.156016
O8	O	1.508761	-0.204071	-0.386861
O9	O	1.868571	-0.429317	-0.326357
O10	O	1.637838	-0.204043	-0.515926
O11	O	1.543111	-0.332258	-0.182097
O12	O	1.372818	-0.332196	-0.352426
O13	O	1.569251	-0.429208	-0.625741
O14	O	1.398894	-0.429246	-0.455400
O15	O	1.672252	-0.332130	-0.651832
O16	O	1.732629	-0.557441	-0.291922
O17	O	1.603601	-0.557395	-0.420977
C18	C	1.347735	-0.380719	-0.403912
C19	C	1.230961	-0.380730	-0.403928
C20	C	1.162566	-0.330253	-0.484791
C21	C	1.052846	-0.330268	-0.484794
C22	C	1.079928	-0.431245	-0.323065
C23	C	1.189645	-0.431225	-0.323059
C24	C	1.146930	-0.271957	-0.578166
C25	C	1.037210	-0.271972	-0.578169
C26	C	1.675839	-0.586097	-0.348767
C27	C	1.699520	-0.673951	-0.325206
C28	C	1.441231	-0.962907	-0.583289
C29	C	1.463486	-1.045459	-0.561117
C30	C	1.597926	-1.045442	-0.426868
C31	C	1.575686	-0.962889	-0.449032
C32	C	1.497337	-0.921628	-0.527243
C33	C	1.631792	-0.921609	-0.392986
C34	C	1.609550	-0.839063	-0.415145
C35	C	1.531202	-0.797796	-0.493350
C36	C	1.475095	-0.839081	-0.549402
C37	C	1.710135	-0.962872	-0.314770
C38	C	1.766241	-0.921592	-0.258724
C39	C	1.744005	-0.839044	-0.280888
C40	C	1.665657	-0.797777	-0.359093
C41	C	1.800112	-0.797759	-0.224836
C42	C	1.777870	-0.715212	-0.246995
C43	C	1.643415	-0.715231	-0.381252
C44	C	1.894745	-0.380757	-0.403932
C45	C	2.011524	-0.380765	-0.403936
C46	C	1.620759	-0.380658	-0.677977
C47	C	1.620781	-0.380624	-0.794762
C48	C	1.565389	-0.174576	-0.459315
C49	C	1.541815	-0.086722	-0.482920
C50	C	1.674422	-0.330070	-0.863213
C51	C	1.674439	-0.330042	-0.972945
C52	C	1.567174	-0.431127	-0.945764
C53	C	1.567151	-0.431151	-0.836035
C54	C	1.736355	-0.271712	-0.878906
C55	C	1.736372	-0.271683	-0.988638
C56	C	1.620700	-0.380760	-0.130948
C57	C	1.620822	-0.380571	-0.014223
H58	H	1.186906	-0.293949	-0.649500
O59	O	0.971400	-0.194915	-0.560444
H60	H	0.925381	-0.205888	-0.487068
O61	O	1.850741	-0.966102	-0.174371
H62	H	1.886014	-0.923527	-0.139118
H63	H	1.513086	-0.730581	-0.511383
O64	O	1.685732	-0.190634	-0.861242
H65	H	1.660954	-0.150922	-0.939616
H66	H	1.160237	-0.210715	-0.572954
O67	O	1.035358	-0.485706	-0.235850
H68	H	1.052714	-0.472064	-0.157087
O69	O	1.682449	-1.089959	-0.342542
H70	H	1.645625	-1.127630	-0.278936
H71	H	1.822150	-0.288080	-1.014014
H72	H	1.691627	-0.213522	-1.038300
O73	O	1.263416	-0.485656	-0.235831
H74	H	1.216251	-0.520772	-0.179605
O75	O	1.003660	-0.293800	-0.680037
H76	H	1.074251	-0.304483	-0.729901
O77	O	1.390589	-0.794567	-0.633759
H78	H	1.355305	-0.837137	-0.669010
H79	H	1.728245	-1.030086	-0.296734
O80	O	1.509331	-0.485624	-0.990278
H81	H	1.518360	-0.477116	-1.078079
O82	O	1.558907	-0.670720	-0.465608
H83	H	1.581132	-0.686519	-0.543841
H84	H	1.377439	-0.929311	-0.646985
O85	O	1.846523	-0.300765	-0.826012
H86	H	1.877557	-0.362020	-0.836454
H87	H	1.863896	-0.831366	-0.161150
O88	O	1.402972	-1.089992	-0.621565
H89	H	1.416667	-1.074113	-0.708304
O90	O	1.838385	-0.670680	-0.186557
H91	H	1.896612	-0.713238	-0.128459
H92	H	1.523467	-0.472314	-0.780306
