data_functionalizedCrystal
_audit_creation_method	'MofGen! by Chris Wilmer'
_symmetry_space_group_name_H-M	'P1'
_symmetry_Int_Tables_number	1
_symmetry_cell_setting	triclinic
loop_
_symmetry_equiv_pos_as_xyz
  x,y,z
_cell_length_a	10.967819
_cell_length_b	11.792254
_cell_length_c	10.065875
_cell_angle_alpha	98.849918
_cell_angle_beta	69.228723
_cell_angle_gamma	84.460315
loop_
_atom_site_label
_atom_site_type_symbol
_atom_site_fract_x
_atom_site_fract_y
_atom_site_fract_z
O1	O	1.740395	0.083024	-0.522824
O2	O	1.363006	0.111191	-0.434067
O3	O	1.560849	-0.068355	-0.480587
O4	O	1.542553	0.262570	-0.476303
O5	O	1.523124	-0.033984	-0.244728
O6	O	1.325281	0.145562	-0.198208
O7	O	1.702670	0.117394	-0.286964
Zn8	Zn	1.507986	0.136935	-0.205138
Zn9	Zn	1.557690	0.091651	-0.515893
O10	O	1.504828	0.296940	-0.240444
C11	C	1.295829	0.128923	-0.304774
C12	C	1.151868	0.130537	-0.270916
C13	C	0.958446	0.115129	-0.343037
C14	C	1.107238	0.113453	-0.378022
C15	C	1.540833	-0.093423	-0.362387
C16	C	1.537383	-0.219325	-0.361577
C17	C	1.534581	-0.321573	-0.360922
C18	C	1.531077	-0.449848	-0.360111
C19	C	1.769848	0.099662	-0.416260
C20	C	1.913810	0.098047	-0.450127
C21	C	1.524843	0.322008	-0.358648
C22	C	1.528295	0.447909	-0.359467
N23	N	1.474074	0.167839	0.006941
N24	N	1.591613	0.060737	-0.727975
C25	C	1.545883	0.102396	0.057835
C26	C	1.519793	0.126190	0.221137
H27	H	0.886505	0.131000	-0.225452
F28	F	1.368462	0.264093	0.108006
F29	F	1.651256	0.005943	-0.043173
F30	F	1.414176	0.222448	0.322198
F31	F	1.201258	0.092723	-0.531726
H32	H	1.079932	0.146410	-0.153323
F33	F	1.007835	0.077318	-0.603823
H34	H	1.672407	-0.012915	0.194706
