data_functionalizedCrystal
_audit_creation_method	'MofGen! by Chris Wilmer'
_symmetry_space_group_name_H-M	'P1'
_symmetry_Int_Tables_number	1
_symmetry_cell_setting	triclinic
loop_
_symmetry_equiv_pos_as_xyz
  x,y,z
_cell_length_a	19.121241
_cell_length_b	19.120786
_cell_length_c	19.120904
_cell_angle_alpha	89.866497
_cell_angle_beta	89.875472
_cell_angle_gamma	94.790376
loop_
_atom_site_label
_atom_site_type_symbol
_atom_site_fract_x
_atom_site_fract_y
_atom_site_fract_z
Zn1	Zn	1.044531	-0.253560	-0.430924
Zn2	Zn	1.044875	-0.365791	-0.308698
Zn3	Zn	0.932315	-0.253144	-0.308712
Zn4	Zn	0.922279	-0.375740	-0.420443
O5	O	0.986000	-0.312059	-0.367194
O6	O	1.142847	-0.264459	-0.419091
O7	O	1.034288	-0.346510	-0.210788
O8	O	0.951257	-0.154923	-0.329315
O9	O	1.143100	-0.346914	-0.329292
O10	O	1.033702	-0.155230	-0.419104
O11	O	0.951590	-0.263748	-0.210798
O12	O	0.832713	-0.273396	-0.319152
O13	O	0.934152	-0.363870	-0.519745
O14	O	0.825340	-0.363466	-0.401241
O15	O	1.023970	-0.274106	-0.527445
O16	O	1.024557	-0.465386	-0.319129
O17	O	0.934485	-0.472695	-0.401228
C18	C	0.803546	-0.319466	-0.359061
C19	C	0.725490	-0.322652	-0.355598
C20	C	0.688682	-0.281294	-0.400789
C21	C	0.615341	-0.284284	-0.397529
C22	C	0.578808	-0.328637	-0.349080
C23	C	0.615621	-0.369997	-0.303884
C24	C	0.688962	-0.367003	-0.307141
C25	C	0.357374	-0.339820	-0.336900
C26	C	0.284029	-0.342813	-0.333647
C27	C	0.283753	-0.257098	-0.427291
C28	C	0.357095	-0.254111	-0.430547
C29	C	0.393902	-0.295468	-0.385349
C30	C	0.503841	-0.331697	-0.345748
C31	C	0.468868	-0.292404	-0.388678
C32	C	0.978488	-0.494522	-0.359056
C33	C	0.975337	-0.572579	-0.355600
C34	C	1.016747	-0.609353	-0.400760
C35	C	1.013783	-0.682696	-0.397514
C36	C	0.969414	-0.719264	-0.349105
C37	C	0.928000	-0.682486	-0.303944
C38	C	0.930960	-0.609144	-0.307193
C39	C	0.958328	-0.940703	-0.336957
C40	C	0.955372	-1.014050	-0.333709
C41	C	1.041155	-1.014255	-0.427281
C42	C	1.044114	-0.940912	-0.430523
C43	C	1.002698	-0.904140	-0.385364
C44	C	0.966386	-0.794233	-0.345785
C45	C	1.005723	-0.829174	-0.388688
C46	C	1.169166	-0.304623	-0.375359
C47	C	1.247221	-0.301454	-0.378839
C48	C	0.977903	-0.320145	-0.549692
C49	C	0.974452	-0.323590	-0.627462
C50	C	0.993560	-0.128882	-0.375380
C51	C	0.996782	-0.050823	-0.378869
C52	C	1.019593	-0.278476	-0.668008
C53	C	1.016342	-0.281711	-0.741081
C54	C	0.967954	-0.330065	-0.773605
C55	C	0.922809	-0.375181	-0.733054
C56	C	0.926057	-0.371942	-0.659982
C57	C	0.955806	-0.342180	-0.994033
C58	C	0.952563	-0.345417	-1.067109
C59	C	1.046095	-0.251946	-1.075131
C60	C	1.049341	-0.248714	-1.002058
C61	C	1.004194	-0.293828	-0.961513
C62	C	0.964632	-0.333374	-0.848297
C63	C	1.007513	-0.290514	-0.886822
C64	C	0.994108	-0.303952	-0.185410
C65	C	0.997703	-0.300303	-0.107656
H66	H	0.718930	-0.400681	-0.270341
F67	F	0.913137	-0.384837	-0.882919
H68	H	1.047509	-0.712633	-0.434283
F69	F	1.064410	-0.233717	-0.784230
F70	F	0.245148	-0.390035	-0.282092
F71	F	1.100843	-0.197249	-0.967449
F72	F	0.244576	-0.213085	-0.475391
H73	H	1.074874	-1.044203	-0.464048
H74	H	0.718422	-0.245179	-0.440243
F75	F	0.871308	-0.426641	-0.767671
F76	F	0.576170	-0.240266	-0.445629
F77	F	1.094139	-0.203934	-1.118288
F78	F	0.901057	-0.396882	-1.101723
H79	H	0.919238	-1.043822	-0.294288
H80	H	0.386835	-0.217996	-0.470002
H81	H	0.919053	-0.378925	-0.961029
F82	F	0.919162	-0.833158	-0.294269
H83	H	0.897239	-0.579204	-0.270420
H84	H	0.889292	-0.408673	-0.626970
F85	F	1.059003	-0.239048	-0.852206
H86	H	1.058997	-0.239103	-0.641532
H87	H	0.924606	-0.910769	-0.300185
F88	F	0.576739	-0.417198	-0.252318
F89	F	0.396539	-0.383824	-0.288784
H90	H	0.474088	-0.367809	-0.306301
F91	F	0.507750	-0.245200	-0.440237
H92	H	1.052880	-0.579584	-0.440177
H93	H	1.080243	-0.911140	-0.469942
H94	H	0.891870	-0.712266	-0.264531
H95	H	1.041846	-0.799398	-0.428106
