data_functionalizedCrystal
_audit_creation_method	'MofGen! by Chris Wilmer'
_symmetry_space_group_name_H-M	'P1'
_symmetry_Int_Tables_number	1
_symmetry_cell_setting	triclinic
loop_
_symmetry_equiv_pos_as_xyz
  x,y,z
_cell_length_a	14.853569
_cell_length_b	16.109301
_cell_length_c	14.586319
_cell_angle_alpha	90.005214
_cell_angle_beta	89.998466
_cell_angle_gamma	96.451477
loop_
_atom_site_label
_atom_site_type_symbol
_atom_site_fract_x
_atom_site_fract_y
_atom_site_fract_z
O1	O	1.196183	-0.108553	-0.076201
O2	O	1.696183	0.391447	0.423799
O3	O	0.933703	-0.121482	-0.076213
O4	O	1.433703	0.378518	0.423787
O5	O	1.072154	0.006004	-0.076197
O6	O	1.572154	0.506004	0.423803
O7	O	1.057732	-0.236038	-0.076217
O8	O	1.557732	0.263962	0.423783
O9	O	1.072144	0.006005	0.076283
O10	O	1.572144	0.506005	0.576283
O11	O	0.933693	-0.121480	0.076268
O12	O	1.433693	0.378520	0.576268
O13	O	1.196174	-0.108551	0.076279
O14	O	1.696174	0.391449	0.576279
Cu15	Cu	1.064933	-0.115015	0.090196
Cu16	Cu	1.564933	0.384985	0.590196
Cu17	Cu	1.064944	-0.115017	-0.090130
Cu18	Cu	1.564944	0.384983	0.409870
O19	O	1.057723	-0.236036	0.076264
O20	O	1.557723	0.263964	0.576264
C21	C	0.900110	-0.120895	0.000026
C22	C	1.400110	0.379105	0.500026
C23	C	0.800030	-0.119139	0.000022
C24	C	1.300030	0.380861	0.500022
C25	C	0.763779	-0.042586	0.000025
C26	C	1.263779	0.457414	0.500025
C27	C	0.742240	-0.194042	0.000023
C28	C	1.242240	0.305958	0.500023
C29	C	0.648208	-0.192394	0.000024
C30	C	1.148208	0.307606	0.500024
C31	C	0.611958	-0.115841	0.000027
C32	C	1.111958	0.384159	0.500027
C33	C	0.669740	-0.040936	0.000029
C34	C	1.169740	0.459064	0.500029
C35	C	0.590420	-0.267298	0.000032
C36	C	1.090420	0.232702	0.500032
C37	C	0.496382	-0.265654	0.000034
C38	C	0.996382	0.234346	0.500034
C39	C	0.460131	-0.189100	0.000031
C40	C	0.960131	0.310900	0.500031
C41	C	0.517918	-0.114191	0.000031
C42	C	1.017918	0.385809	0.500031
C43	C	0.481668	-0.037638	0.000034
C44	C	0.981668	0.462362	0.500034
C45	C	0.539454	0.037271	0.000028
C46	C	1.039454	0.537271	0.500028
C47	C	0.633488	0.035618	0.000025
C48	C	1.133488	0.535618	0.500025
C49	C	0.366097	-0.187447	0.000034
C50	C	0.866097	0.312553	0.500034
C51	C	0.387628	-0.035988	0.000038
C52	C	0.887628	0.464012	0.500038
C53	C	1.071565	0.036980	0.000043
C54	C	1.571565	0.536980	0.500043
C55	C	1.069813	0.129278	0.000045
C56	C	1.569813	0.629278	0.500045
C57	C	1.229766	-0.109138	0.000038
C58	C	1.729766	0.390862	0.500038
C59	C	1.329847	-0.110894	0.000036
C60	C	1.829847	0.389106	0.500036
C61	C	1.058312	-0.267013	0.000021
C62	C	1.558312	0.232987	0.500021
C63	C	1.060063	-0.359311	0.000014
C64	C	1.560063	0.140689	0.500014
N65	N	1.064931	-0.115013	0.217028
N66	N	1.564931	0.384987	0.717028
C67	C	1.147895	0.351440	0.000034
C68	C	1.647895	0.851440	0.500034
C69	C	1.146243	0.438163	0.000026
C70	C	1.646243	0.938163	0.500026
C71	C	0.981975	0.418520	0.000022
C72	C	1.481975	0.918520	0.500022
C73	C	0.983629	0.331799	0.000023
C74	C	1.483629	0.831799	0.500023
C75	C	1.066591	0.298262	0.000034
C76	C	1.566591	0.798262	0.500034
C77	C	1.063285	0.471706	0.000025
C78	C	1.563285	0.971706	0.500025
C79	C	1.061493	0.565734	0.000017
C80	C	1.561493	1.065734	0.500017
C81	C	1.068384	0.204227	0.000040
C82	C	1.568384	0.704227	0.500040
N83	N	1.064953	-0.115013	-0.216962
N84	N	1.564953	0.384987	0.283038
C85	C	1.126258	-0.058581	0.452041
C86	C	1.626258	0.441419	0.952041
C87	C	1.126260	-0.058579	0.548023
C88	C	1.626260	0.441421	1.048023
C89	C	1.003620	-0.171447	0.548019
C90	C	1.503620	0.328553	1.048019
C91	C	1.003613	-0.171445	0.452039
C92	C	1.503613	0.328555	0.952039
C93	C	1.064937	-0.115013	0.404053
C94	C	1.564937	0.384987	0.904053
C95	C	1.064946	-0.115013	0.596014
C96	C	1.564946	0.384987	1.096014
C97	C	1.064949	-0.115012	0.700081
C98	C	1.564949	0.384988	1.200081
C99	C	1.064934	-0.115013	0.299979
C100	C	1.564934	0.384987	0.799979
H101	H	0.810833	0.018404	0.000017
H102	H	1.310833	0.518404	0.500017
H103	H	0.358122	0.026351	0.000035
H104	H	0.858122	0.526351	0.500035
H105	H	1.215449	0.324137	0.000040
H106	H	1.715449	0.824137	0.500040
H107	H	1.176191	-0.012627	0.587092
H108	H	1.676191	0.487373	1.087092
Cl109	Cl	0.926515	-0.242388	0.391705
Cl110	Cl	1.426515	0.257612	0.891705
Cl111	Cl	0.926534	-0.242390	0.608348
Cl112	Cl	1.426534	0.257610	1.108348
H113	H	0.917417	0.288499	0.000021
H114	H	1.417417	0.788499	0.500021
Cl115	Cl	0.493871	0.133506	0.000040
Cl116	Cl	0.993871	0.633506	0.500040
Cl117	Cl	1.203347	0.012365	0.391720
Cl118	Cl	1.703347	0.512365	0.891720
Cl119	Cl	0.787813	-0.290274	0.000021
Cl120	Cl	1.287813	0.209726	0.500021
H121	H	0.680545	0.096606	0.000022
H122	H	1.180545	0.596606	0.500022
H123	H	1.212448	0.481458	0.000024
H124	H	1.712448	0.981458	0.500024
H125	H	0.449340	-0.326650	0.000038
H126	H	0.949340	0.173350	0.500038
Cl127	Cl	0.635996	-0.363530	0.000025
Cl128	Cl	1.135996	0.136470	0.500025
Cl129	Cl	0.877685	0.460688	0.000010
Cl130	Cl	1.377685	0.960688	0.500010
H131	H	0.319052	-0.248437	0.000046
H132	H	0.819052	0.251563	0.500046
