data_functionalizedCrystal
_audit_creation_method	'MofGen! by Chris Wilmer'
_symmetry_space_group_name_H-M	'P1'
_symmetry_Int_Tables_number	1
_symmetry_cell_setting	triclinic
loop_
_symmetry_equiv_pos_as_xyz
  x,y,z
_cell_length_a	12.827893
_cell_length_b	12.827892
_cell_length_c	21.395355
_cell_angle_alpha	90.013138
_cell_angle_beta	90.022562
_cell_angle_gamma	90.015553
loop_
_atom_site_label
_atom_site_type_symbol
_atom_site_fract_x
_atom_site_fract_y
_atom_site_fract_z
Zn1	Zn	1.597703	-0.416150	0.354252
Zn2	Zn	1.597588	-0.590876	0.249484
Zn3	Zn	1.422935	-0.416150	0.249492
Zn4	Zn	1.422930	-0.590850	0.354228
O5	O	1.510289	-0.503506	0.301864
O6	O	1.743924	-0.439338	0.340361
O7	O	1.574373	-0.567710	0.161807
O8	O	1.446169	-0.269914	0.263402
O9	O	1.743839	-0.567709	0.263388
O10	O	1.574571	-0.269914	0.340368
O11	O	1.446056	-0.439339	0.161813
O12	O	1.276698	-0.439314	0.263379
O13	O	1.446161	-0.567664	0.441909
O14	O	1.276695	-0.567665	0.340328
O15	O	1.574566	-0.439313	0.441926
O16	O	1.574368	-0.737109	0.263365
O17	O	1.446048	-0.737089	0.340320
C18	C	1.238779	-0.503487	0.301852
C19	C	1.122626	-0.503504	0.301862
C20	C	1.070883	-0.440095	0.340009
C21	C	0.950833	-0.440111	0.340020
C22	C	1.510224	-0.775016	0.301853
C23	C	1.510291	-0.891170	0.301869
C24	C	1.573864	-0.942929	0.263832
C25	C	1.573935	-1.062980	0.263847
C26	C	1.782859	-0.503527	0.301876
C27	C	1.899012	-0.503535	0.301881
C28	C	1.510376	-0.503485	0.465287
C29	C	1.510413	-0.503476	0.534928
C30	C	1.510383	-0.230936	0.301889
C31	C	1.510423	-0.114783	0.301899
C32	C	1.510263	-0.503452	0.139076
C33	C	1.510428	-0.503167	0.069435
C34	C	1.577270	-0.436641	0.567652
C35	C	1.577269	-0.436596	0.633087
C36	C	1.510421	-0.503405	0.665797
C37	C	1.443550	-0.570245	0.633066
C38	C	1.443546	-0.570281	0.567631
C39	C	1.502147	-0.597499	0.769468
C40	C	1.502158	-0.597465	0.834901
C41	C	1.510427	-0.503295	0.867618
C42	C	1.518707	-0.409155	0.834893
C43	C	1.518703	-0.409191	0.769459
C44	C	1.510417	-0.503373	0.736749
C45	C	1.577287	-0.436405	0.971293
C46	C	1.577278	-0.436358	1.036730
C47	C	1.443565	-0.570017	1.036707
C48	C	1.443568	-0.570054	0.971272
C49	C	1.510435	-0.503250	0.938569
H50	H	0.906335	-0.385827	0.372682
F51	F	1.648453	-0.365231	1.071557
H52	H	1.389098	-0.624705	0.540989
H53	H	1.455922	-0.935733	0.334448
H54	H	1.115461	-0.385792	0.372659
H55	H	1.631717	-0.382242	0.541029
H56	H	1.631710	-0.382165	0.659736
H57	H	0.943503	-0.557831	0.269224
H58	H	1.628359	-1.107492	0.231281
H59	H	1.078048	-0.557801	0.269209
H60	H	1.628242	-0.898368	0.231256
F61	F	1.439273	-1.056613	0.344464
F62	F	1.527509	-0.309004	0.734634
H63	H	1.525442	-0.332473	0.861530
F64	F	1.648447	-0.365303	0.936486
H65	H	1.389125	-0.624404	1.063339
H66	H	1.389132	-0.624485	0.944628
F67	F	1.493355	-0.697656	0.869722
F68	F	1.493369	-0.697737	0.734654
F69	F	1.372402	-0.641345	0.667878
