data_functionalizedCrystal
_audit_creation_method	'MofGen! by Chris Wilmer'
_symmetry_space_group_name_H-M	'P1'
_symmetry_Int_Tables_number	1
_symmetry_cell_setting	triclinic
loop_
_symmetry_equiv_pos_as_xyz
  x,y,z
_cell_length_a	14.044220
_cell_length_b	23.532407
_cell_length_c	13.101039
_cell_angle_alpha	93.336507
_cell_angle_beta	86.340132
_cell_angle_gamma	88.018778
loop_
_atom_site_label
_atom_site_type_symbol
_atom_site_fract_x
_atom_site_fract_y
_atom_site_fract_z
O1	O	1.261651	0.134360	-0.085125
O2	O	1.761651	0.634360	0.414875
O3	O	0.985730	0.129407	-0.085150
O4	O	1.485730	0.629407	0.414850
O5	O	1.132009	0.049404	-0.085118
O6	O	1.632009	0.549404	0.414882
O7	O	1.115371	0.214364	-0.085157
O8	O	1.615371	0.714364	0.414843
O9	O	1.121514	0.055154	0.085309
O10	O	1.621514	0.555154	0.585309
O11	O	0.975234	0.135158	0.085277
O12	O	1.475234	0.635158	0.585277
O13	O	1.251155	0.140111	0.085302
O14	O	1.751155	0.640111	0.585302
Zn15	Zn	1.111528	0.138547	0.112349
Zn16	Zn	1.611528	0.638547	0.612349
Zn17	Zn	1.125356	0.130971	-0.112197
Zn18	Zn	1.625356	0.630971	0.387803
O19	O	1.104875	0.220114	0.085270
O20	O	1.604875	0.720114	0.585270
C21	C	0.945188	0.130115	0.000061
C22	C	1.445188	0.630115	0.500061
C23	C	0.840024	0.123648	0.000052
C24	C	1.340024	0.623648	0.500052
C25	C	0.647472	0.111828	0.000075
C26	C	1.147472	0.611828	0.500075
C27	C	0.589407	0.157687	0.000068
C28	C	1.089407	0.657687	0.500068
C29	C	0.482265	0.151110	0.000081
C30	C	0.982265	0.651110	0.500081
C31	C	0.754624	0.118404	0.000062
C32	C	1.254624	0.618404	0.500062
C33	C	1.126338	0.031040	0.000098
C34	C	1.626338	0.531040	0.500098
C35	C	1.125063	-0.032246	0.000106
C36	C	1.625063	0.467754	0.500106
C37	C	1.203641	-0.427092	0.000057
C38	C	1.703641	0.072908	0.500057
C39	C	1.202458	-0.486556	0.000049
C40	C	1.702458	0.013444	0.500049
O41	O	1.275300	-0.519354	0.000018
O42	O	1.775300	-0.019354	0.500018
N43	N	1.115494	-0.513896	0.000042
N44	N	1.615494	-0.013896	0.500042
C45	C	1.029708	-0.481769	0.000032
C46	C	1.529708	0.018231	0.500032
O47	O	0.955630	-0.510484	0.000024
O48	O	1.455630	-0.010484	0.500024
C49	C	1.030893	-0.422306	0.000033
C50	C	1.530893	0.077694	0.500033
C51	C	1.117862	-0.394968	0.000050
C52	C	1.617862	0.105032	0.500050
C53	C	1.290603	-0.399754	0.000073
C54	C	1.790603	0.100246	0.500073
C55	C	1.291786	-0.340294	0.000083
C56	C	1.791786	0.159706	0.500083
C57	C	1.206007	-0.308170	0.000077
C58	C	1.706007	0.191830	0.500077
C59	C	1.119045	-0.335508	0.000060
C60	C	1.619045	0.164492	0.500060
C61	C	0.945109	-0.390179	0.000016
C62	C	1.445109	0.109821	0.500016
C63	C	0.946301	-0.330712	0.000015
C64	C	1.446301	0.169288	0.500015
C65	C	1.033270	-0.303375	0.000033
C66	C	1.533270	0.196625	0.500033
C67	C	1.034448	-0.243924	0.000063
C68	C	1.534448	0.256076	0.500063
N69	N	1.121412	-0.216584	0.000070
N70	N	1.621412	0.283416	0.500070
C71	C	1.207191	-0.248707	0.000077
C72	C	1.707191	0.251293	0.500077
C73	C	1.027228	-0.606646	0.000029
C74	C	1.527228	-0.106646	0.500029
C75	C	1.026042	-0.666108	0.000036
C76	C	1.526042	-0.166108	0.500036
C77	C	1.198792	-0.670891	0.000051
C78	C	1.698792	-0.170891	0.500051
C79	C	1.199977	-0.611428	0.000052
C80	C	1.699977	-0.111428	0.500052
C81	C	1.114192	-0.579306	0.000036
C82	C	1.614192	-0.079306	0.500036
C83	C	1.209668	-0.123835	0.000099
C84	C	1.709668	0.376165	0.500099
C85	C	1.210843	-0.064369	0.000113
C86	C	1.710843	0.435631	0.500113
C87	C	1.038093	-0.059591	0.000092
C88	C	1.538093	0.440409	0.500092
C89	C	1.036917	-0.119052	0.000084
C90	C	1.536917	0.380948	0.500084
C91	C	1.122713	-0.151173	0.000083
C92	C	1.622713	0.348827	0.500083
O93	O	0.961644	-0.211090	0.000090
O94	O	1.461644	0.288910	0.500090
O95	O	1.281258	-0.219985	0.000071
O96	O	1.781258	0.280015	0.500071
C97	C	1.291697	0.139403	0.000089
C98	C	1.791697	0.639403	0.500089
C99	C	1.396862	0.145869	0.000091
C100	C	1.896862	0.645869	0.500091
C101	C	1.110547	0.238478	0.000052
C102	C	1.610547	0.738478	0.500052
C103	C	1.111822	0.301763	0.000037
C104	C	1.611822	0.801763	0.500037
N105	N	1.102098	0.143718	0.265595
N106	N	1.602098	0.643718	0.765595
N107	N	1.134794	0.125796	-0.265443
N108	N	1.634794	0.625796	0.234557
C109	C	1.089267	0.150758	0.474635
C110	C	1.589267	0.650758	0.974635
C111	C	1.147622	0.118757	0.525524
C112	C	1.647622	0.618757	1.025524
C113	C	1.140483	0.122674	0.641841
C114	C	1.640483	0.622674	1.141841
C115	C	1.096405	0.146842	0.358308
C116	C	1.596405	0.646842	0.858308
H117	H	0.620163	0.201887	0.000053
H118	H	1.120163	0.701887	0.500053
H119	H	1.033950	0.181096	0.518420
H120	H	1.533950	0.681096	1.018420
C121	C	0.605931	0.052121	0.000083
C122	C	1.105931	0.552121	0.500083
H123	H	0.538324	0.055478	0.000078
H124	H	1.038324	0.555478	0.500078
H125	H	0.623259	0.034025	0.059512
H126	H	1.123259	0.534025	0.559512
H127	H	0.630563	0.030026	-0.059359
H128	H	1.130563	0.530026	0.440641
C129	C	1.306509	-0.034299	0.000133
C130	C	1.806509	0.465701	0.500133
H131	H	1.294934	0.005717	0.000148
H132	H	1.794934	0.505717	0.500148
H133	H	1.345467	-0.047026	-0.059295
H134	H	1.845467	0.452974	0.440705
H135	H	1.338138	-0.043031	0.059576
H136	H	1.838138	0.456969	0.559576
C137	C	1.304040	-0.159160	0.000107
C138	C	1.804040	0.340840	0.500107
H139	H	1.355993	-0.134355	0.000128
H140	H	1.855993	0.365645	0.500128
H141	H	1.310842	-0.184457	-0.059325
H142	H	1.810842	0.315543	0.440675
H143	H	1.303509	-0.180454	0.059546
H144	H	1.803509	0.319546	0.559546
C145	C	1.387454	-0.310231	0.000083
C146	C	1.887454	0.189769	0.500083
H147	H	1.438365	-0.337886	0.000074
H148	H	1.938365	0.162114	0.500074
H149	H	1.387863	-0.285132	0.059512
H150	H	1.887863	0.214868	0.559512
H151	H	1.395165	-0.289138	-0.059359
H152	H	1.895165	0.210862	0.440641
H153	H	1.360460	-0.425903	0.000075
H154	H	1.860460	0.074097	0.500075
H155	H	1.268639	-0.697057	0.000052
H156	H	1.768639	-0.197057	0.500052
C157	C	1.295642	-0.581363	0.000061
C158	C	1.795642	-0.081363	0.500061
H159	H	1.346555	-0.609016	0.000060
H160	H	1.846555	-0.109016	0.500060
H161	H	1.296040	-0.556263	0.059491
H162	H	1.796040	-0.056263	0.559491
H163	H	1.303358	-0.560270	-0.059380
H164	H	1.803358	-0.060270	0.440620
C165	C	0.930376	-0.696172	0.000025
C166	C	1.430376	-0.196172	0.500025
H167	H	0.879463	-0.668519	0.000015
H168	H	1.379463	-0.168519	0.500015
H169	H	0.922656	-0.717272	0.059451
H170	H	1.422656	-0.217272	0.559451
H171	H	0.929982	-0.721266	-0.059420
H172	H	1.429982	-0.221266	0.440580
C173	C	0.932857	-0.571316	0.000032
C174	C	1.432857	-0.071316	0.500032
H175	H	0.880900	-0.596119	0.000037
H176	H	1.380900	-0.096119	0.500037
H177	H	0.933376	-0.550018	-0.059397
H178	H	1.433376	-0.050018	0.440603
H179	H	0.926067	-0.546021	0.059474
H180	H	1.426067	-0.046021	0.559474
H181	H	0.874290	-0.412427	-0.000005
H182	H	1.374290	0.087573	0.499995
C183	C	0.851934	-0.295381	0.000003
C184	C	1.351934	0.204619	0.500003
H185	H	0.799975	-0.320182	-0.000001
H186	H	1.299975	0.179818	0.499999
H187	H	0.852464	-0.274083	-0.059425
H188	H	1.352464	0.225917	0.440575
H189	H	0.845140	-0.270087	0.059446
H190	H	1.345140	0.229913	0.559446
H191	H	0.968254	-0.033425	0.000090
H192	H	1.468254	0.466575	0.500090
H193	H	0.966099	-0.141310	0.000098
H194	H	1.466099	0.358690	0.500098
H195	H	1.202943	0.088418	0.481734
H196	H	1.702943	0.588418	0.981734
