data_functionalizedCrystal
_audit_creation_method	'MofGen! by Chris Wilmer'
_symmetry_space_group_name_H-M	'P1'
_symmetry_Int_Tables_number	1
_symmetry_cell_setting	triclinic
loop_
_symmetry_equiv_pos_as_xyz
  x,y,z
_cell_length_a	12.811457
_cell_length_b	11.295501
_cell_length_c	17.699083
_cell_angle_alpha	85.392983
_cell_angle_beta	96.334880
_cell_angle_gamma	89.163056
loop_
_atom_site_label
_atom_site_type_symbol
_atom_site_fract_x
_atom_site_fract_y
_atom_site_fract_z
O1	O	1.389157	-0.050992	-0.099582
O2	O	1.889157	0.449008	0.400418
O3	O	1.085632	-0.018210	-0.112181
O4	O	1.585632	0.481790	0.387819
O5	O	1.245969	-0.035538	0.004312
O6	O	1.745969	0.464462	0.504312
O7	O	1.228820	-0.033664	-0.216076
O8	O	1.728820	0.466336	0.283924
O9	O	1.233451	-0.232237	0.013388
O10	O	1.733451	0.267763	0.513388
O11	O	1.073114	-0.214910	-0.103105
O12	O	1.573114	0.285090	0.396895
O13	O	1.376639	-0.247691	-0.090507
O14	O	1.876639	0.252309	0.409493
Cu15	Cu	1.223733	-0.249261	-0.095978
Cu16	Cu	1.723733	0.250739	0.404022
Cu17	Cu	1.238537	-0.016641	-0.106710
Cu18	Cu	1.738537	0.483359	0.393290
O19	O	1.216301	-0.230364	-0.207000
O20	O	1.716301	0.269636	0.293000
C21	C	1.040537	-0.112366	-0.107216
C22	C	1.540537	0.387634	0.392784
C23	C	0.924820	-0.099868	-0.105933
C24	C	1.424820	0.400132	0.394067
N25	N	1.213328	-0.412874	-0.088428
N26	N	1.713328	0.087126	0.411572
C27	C	0.693727	-0.290850	-0.093612
C28	C	1.193727	0.209150	0.406388
C29	C	0.585000	-0.279114	-0.092406
C30	C	1.085000	0.220886	0.407594
C31	C	0.598638	-0.064660	-0.102309
C32	C	1.098638	0.435340	0.397691
C33	C	0.707365	-0.076397	-0.103515
C34	C	1.207365	0.423603	0.396485
C35	C	0.754905	-0.189496	-0.099168
C36	C	1.254905	0.310504	0.400832
C37	C	0.863633	-0.201231	-0.100379
C38	C	1.363633	0.298769	0.399621
C39	C	0.877270	0.013222	-0.110277
C40	C	1.377270	0.513222	0.389723
C41	C	0.768543	0.024958	-0.109071
C42	C	1.268543	0.524958	0.390929
C43	C	1.323840	-0.674092	-0.168635
C44	C	1.823840	-0.174092	0.331365
C45	C	1.315985	-0.797908	-0.162924
C46	C	1.815985	-0.297908	0.337076
C47	C	1.189769	-0.784324	-0.071290
C48	C	1.689769	-0.284324	0.428710
C49	C	1.197624	-0.660509	-0.077002
C50	C	1.697624	-0.160509	0.422998
C51	C	1.264660	-0.605397	-0.125677
C52	C	1.764660	-0.105397	0.374323
C53	C	1.272509	-0.481578	-0.131392
C54	C	1.772509	0.018422	0.368608
C55	C	1.146300	-0.467998	-0.039755
C56	C	1.646300	0.032002	0.460245
C57	C	1.138445	-0.591813	-0.034043
C58	C	1.638445	-0.091813	0.465957
C59	C	1.421733	-0.153533	-0.095472
C60	C	1.921733	0.346467	0.404528
C61	C	1.537451	-0.166023	-0.096756
C62	C	2.037451	0.333977	0.403244
C63	C	1.239095	-0.133821	0.037047
C64	C	1.739095	0.366179	0.537047
C65	C	1.237252	-0.133622	0.121064
C66	C	1.737252	0.366378	0.621064
N67	N	1.248950	0.146972	-0.114254
N68	N	1.748950	0.646972	0.385746
C69	C	1.223175	-0.132078	-0.239735
C70	C	1.723175	0.367922	0.260265
C71	C	1.225019	-0.132269	-0.323752
C72	C	1.725019	0.367731	0.176248
C73	C	1.331366	-0.143789	0.169730
C74	C	1.831366	0.356211	0.669730
C75	C	1.329629	-0.143591	0.248672
C76	C	1.829629	0.356409	0.748672
C77	C	1.233774	-0.133234	0.278947
C78	C	1.733774	0.366766	0.778947
C79	C	1.139652	-0.123064	0.230274
C80	C	1.639652	0.376936	0.730274
C81	C	1.141392	-0.123254	0.151333
C82	C	1.641392	0.376746	0.651333
C83	C	1.132635	-0.122296	0.548633
C84	C	1.632635	0.377704	1.048633
C85	C	1.130903	-0.122111	0.627580
C86	C	1.630903	0.377889	1.127580
C87	C	1.320872	-0.142633	0.645972
C88	C	1.820872	0.357367	1.145972
C89	C	1.322612	-0.142823	0.567031
C90	C	1.822612	0.357177	1.067031
C91	C	1.228491	-0.132646	0.518365
C92	C	1.728491	0.367354	1.018365
C93	C	1.230376	-0.132859	0.432767
C94	C	1.730376	0.367141	0.932767
C95	C	1.231887	-0.133030	0.364543
C96	C	1.731887	0.366970	0.864543
H97	H	0.902338	-0.293322	-0.096844
H98	H	1.402338	0.206678	0.403156
Br99	Br	1.065970	-0.374761	0.018543
Br100	Br	1.565970	0.125239	0.518543
Br101	Br	1.461461	-0.157861	0.128652
Br102	Br	1.961461	0.342139	0.628652
H103	H	0.729821	0.117040	-0.112607
H104	H	1.229821	0.617040	0.387393
H105	H	1.135203	-0.829219	-0.031653
H106	H	1.635203	-0.329219	0.468347
H107	H	1.083870	-0.636703	0.005589
H108	H	1.583870	-0.136703	0.505589
Br109	Br	1.396308	-0.891136	-0.221223
Br110	Br	1.896308	-0.391136	0.278777
Br111	Br	1.457362	-0.157388	0.314717
Br112	Br	1.957362	0.342612	0.814717
Br113	Br	0.758249	-0.444336	-0.087727
Br114	Br	1.258249	0.055664	0.412273
H115	H	1.400665	-0.151262	0.542387
H116	H	1.900665	0.348738	1.042387
Br117	Br	1.013660	-0.109446	0.085284
Br118	Br	1.513660	0.390554	0.585284
Br119	Br	0.960300	0.150784	-0.117834
Br120	Br	1.460300	0.650784	0.382166
Br121	Br	1.448611	-0.156444	0.712023
Br122	Br	1.948611	0.343556	1.212023
H123	H	1.052842	-0.113679	0.652226
H124	H	1.552842	0.386321	1.152226
Br125	Br	1.004900	-0.108477	0.482596
Br126	Br	1.504900	0.391523	0.982596
Br127	Br	0.534115	0.088817	-0.108126
Br128	Br	1.034115	0.588817	0.391874
Br129	Br	1.363484	-0.406783	-0.197450
Br130	Br	1.863484	0.093217	0.302550
H131	H	1.061607	-0.114624	0.254929
H132	H	1.561607	0.385376	0.754929
H133	H	0.535191	-0.361648	-0.087887
H134	H	1.035191	0.138352	0.412113
H135	H	1.378413	-0.629218	-0.208275
H136	H	1.878413	-0.129218	0.291725
