data_functionalizedCrystal
_audit_creation_method	'MofGen! by Chris Wilmer'
_symmetry_space_group_name_H-M	'P1'
_symmetry_Int_Tables_number	1
_symmetry_cell_setting	triclinic
loop_
_symmetry_equiv_pos_as_xyz
  x,y,z
_cell_length_a	14.044220
_cell_length_b	16.098538
_cell_length_c	17.019370
_cell_angle_alpha	83.407930
_cell_angle_beta	88.280241
_cell_angle_gamma	92.982557
loop_
_atom_site_label
_atom_site_type_symbol
_atom_site_fract_x
_atom_site_fract_y
_atom_site_fract_z
O1	O	1.260867	0.055722	0.187562
O2	O	0.984939	0.056236	0.180676
O3	O	1.131106	0.064193	0.069447
O4	O	1.114700	0.047764	0.298791
O5	O	1.122567	-0.074782	0.075917
O6	O	0.976400	-0.082740	0.187146
O7	O	1.252329	-0.083254	0.194032
Zn8	Zn	1.113009	-0.105062	0.191616
Zn9	Zn	1.124258	0.078044	0.183092
O10	O	1.106162	-0.091211	0.305261
C11	C	0.945373	-0.013033	0.180897
C12	C	0.840199	-0.012381	0.171907
N13	N	1.105338	-0.230028	0.197434
C14	C	0.647631	-0.011220	0.155474
C15	C	0.589631	-0.015791	0.219231
C16	C	0.482480	-0.015145	0.210087
C17	C	0.754792	-0.011866	0.164616
C18	C	1.167400	-0.270237	0.150243
C19	C	1.162043	-0.357717	0.154321
C20	C	1.094628	-0.404988	0.205594
C21	C	1.032560	-0.364773	0.252786
C22	C	1.037913	-0.277293	0.248703
C23	C	1.075222	-0.669295	0.220379
C24	C	1.069875	-0.756781	0.224459
C25	C	1.199357	-0.749719	0.125993
C26	C	1.204709	-0.662239	0.121919
C27	C	1.142637	-0.622031	0.169108
C28	C	1.089153	-0.494407	0.209765
C29	C	1.148109	-0.532613	0.164932
C30	C	1.291895	-0.013983	0.193811
C31	C	1.397069	-0.014630	0.202801
C32	C	1.126383	-0.003177	0.043154
C33	C	1.125019	0.003132	-0.044832
N34	N	1.131937	0.203010	0.177269
C35	C	1.119722	-0.069656	-0.082649
C36	C	1.118447	-0.063721	-0.165322
C37	C	1.122462	0.015003	-0.210176
C38	C	1.127762	0.087796	-0.172354
C39	C	1.129044	0.081860	-0.089683
C40	C	1.118831	0.036715	-0.459966
C41	C	1.117546	0.042646	-0.542643
C42	C	1.108232	-0.108872	-0.535605
C43	C	1.109509	-0.114801	-0.452932
C44	C	1.114814	-0.042008	-0.415118
C45	C	1.121156	0.021071	-0.294681
C46	C	1.116127	-0.048077	-0.330614
C47	C	1.110885	-0.023839	0.331554
C48	C	1.112249	-0.030142	0.419540
H49	H	0.620449	-0.020189	0.280683
H50	H	1.120807	0.106755	-0.579161
H51	H	1.202995	-0.494123	0.123183
H52	H	1.123149	0.095989	-0.429187
Cl53	Cl	0.600053	-0.004425	0.060602
Cl54	Cl	1.252159	-0.210820	0.085787
H55	H	1.212578	-0.390455	0.115895
H56	H	1.259603	-0.623753	0.080169
Cl57	Cl	1.132823	0.186764	-0.228743
H58	H	1.034263	-0.532902	0.251513
H59	H	1.116436	-0.133762	-0.046134
H60	H	0.987375	-0.244556	0.287129
Cl61	Cl	0.947804	-0.424196	0.317240
H62	H	1.249892	-0.782465	0.087573
H63	H	1.014975	-0.795265	0.266214
Cl64	Cl	0.997195	-0.618755	0.279704
H65	H	1.103914	-0.168137	-0.566403
H66	H	1.114138	-0.122993	-0.196109
Cl67	Cl	1.104436	-0.213773	-0.396549
H68	H	1.133358	0.141132	-0.058894
H69	H	1.112863	-0.112174	-0.294091
H70	H	1.124423	0.085169	-0.331211
