data_functionalizedCrystal
_audit_creation_method	'MofGen! by Chris Wilmer'
_symmetry_space_group_name_H-M	'P1'
_symmetry_Int_Tables_number	1
_symmetry_cell_setting	triclinic
loop_
_symmetry_equiv_pos_as_xyz
  x,y,z
_cell_length_a	31.640172
_cell_length_b	12.478028
_cell_length_c	31.640172
_cell_angle_alpha	57.052737
_cell_angle_beta	90.011976
_cell_angle_gamma	57.040213
loop_
_atom_site_label
_atom_site_type_symbol
_atom_site_fract_x
_atom_site_fract_y
_atom_site_fract_z
Zr1	Zr	0.359897	1.298314	-0.102684
O2	O	0.283392	1.545786	-0.179184
O3	O	0.389600	1.050832	-0.072983
O4	O	0.380585	1.298269	-0.170158
O5	O	0.292408	1.298389	-0.012464
O6	O	0.450143	1.298245	-0.170148
O7	O	0.292407	1.298350	-0.082009
O8	O	0.466269	0.855625	0.003680
O9	O	0.276283	1.741008	-0.186293
O10	O	0.446627	1.152610	-0.067859
O11	O	0.394718	1.152658	-0.015967
O12	O	0.384104	1.443983	-0.130378
O13	O	0.332195	1.444030	-0.078485
Zr14	Zr	0.470836	1.298337	0.008247
Zr15	Zr	0.470834	1.298275	-0.102668
Zr16	Zr	0.359899	1.298376	0.008231
Zr17	Zr	0.348558	1.609670	-0.114023
Zr18	Zr	0.482175	0.986982	0.019586
O19	O	0.441133	1.545819	-0.021454
O20	O	0.441130	1.545731	-0.179161
O21	O	0.283395	1.545875	-0.021477
O22	O	0.547341	1.050865	0.084747
O23	O	0.547338	1.050777	-0.072960
O24	O	0.389603	1.050921	0.084724
O25	O	0.538325	1.298263	-0.081973
O26	O	0.450148	1.298382	0.075722
O27	O	0.380590	1.298407	0.075711
O28	O	0.538326	1.298302	-0.012428
O29	O	0.364463	1.740976	-0.186280
O30	O	0.466271	0.855675	0.091843
O31	O	0.554451	0.855644	0.091856
O32	O	0.554449	0.855594	0.003693
O33	O	0.276284	1.741057	-0.098130
O34	O	0.364464	1.741026	-0.098117
O35	O	0.446629	1.152669	0.035941
O36	O	0.498539	1.152621	-0.015952
O37	O	0.436016	1.443993	-0.078470
O38	O	0.384106	1.444041	-0.026578
C39	C	0.429550	0.908867	-0.033036
C40	C	0.434364	0.776689	-0.028222
C41	C	0.276602	1.298375	-0.047239
C42	C	0.229506	1.298391	-0.047246
C43	C	-0.029861	1.146217	-0.014573
C44	C	-0.206845	1.146187	-0.014562
O45	O	-0.201974	1.016837	0.013211
N46	N	-0.261611	1.298280	-0.047197
C47	C	-0.272130	1.450390	-0.079834
O48	O	-0.322773	1.579753	-0.107587
C49	C	-0.095147	1.450417	-0.079842
C50	C	-0.040381	1.298315	-0.047209
C51	C	0.024903	0.994127	0.018057
C52	C	0.069146	0.994136	0.018052
C53	C	0.058625	1.146234	-0.014584
C54	C	0.003862	1.298324	-0.047215
C55	C	-0.105667	1.602526	-0.112476
C56	C	-0.061415	1.602519	-0.112474
C57	C	-0.006649	1.450417	-0.079841
C58	C	0.037585	1.450431	-0.079856
N59	N	0.092351	1.298339	-0.047221
C60	C	0.102871	1.146241	-0.014585
C61	C	-0.365047	1.450365	-0.079828
C62	C	-0.409293	1.450358	-0.079827
C63	C	-0.344004	1.146155	-0.014554
C64	C	-0.299758	1.146163	-0.014559
C65	C	-0.310281	1.298273	-0.047194
C66	C	0.195782	1.146270	-0.014600
C67	C	0.240026	1.146293	-0.014610
C68	C	0.174734	1.450495	-0.079880
C69	C	0.130493	1.450474	-0.079873
C70	C	0.141022	1.298348	-0.047228
O71	O	0.032757	1.579714	-0.107610
O72	O	0.153518	1.016897	0.013173
C73	C	-0.074104	1.146208	-0.014568
C74	C	-0.128867	1.298297	-0.047198
C75	C	-0.139387	1.450396	-0.079834
C76	C	-0.173113	1.298291	-0.047197
C77	C	-0.162593	1.146193	-0.014561
C78	C	-0.107826	0.994100	0.018074
C79	C	-0.063583	0.994109	0.018068
C80	C	-0.194153	1.602488	-0.112469
C81	C	-0.238394	1.602467	-0.112461
C82	C	-0.227873	1.450368	-0.079825
C83	C	0.554132	1.298277	-0.047198
C84	C	0.601227	1.298260	-0.047191
C85	C	0.415364	1.298248	-0.185956
C86	C	0.415363	1.298222	-0.233043
C87	C	0.401183	1.687784	-0.061401
C88	C	0.396370	1.819962	-0.066215
C89	C	0.448015	1.146219	-0.536717
C90	C	0.448009	1.146169	-0.359716
O91	O	0.475780	1.016815	-0.309078
N92	N	0.415371	1.298258	-0.370217
C93	C	0.382735	1.450371	-0.424972
O94	O	0.354979	1.579731	-0.429842
C95	C	0.382745	1.450420	-0.601972
C96	C	0.415380	1.298320	-0.591467
C97	C	0.480648	0.994132	-0.526216
C98	C	0.480647	0.994146	-0.570463
C99	C	0.448013	1.146248	-0.625213
C100	C	0.415379	1.298335	-0.635715
C101	C	0.350112	1.602531	-0.656727
C102	C	0.350119	1.602530	-0.700976
C103	C	0.382754	1.450430	-0.690472
C104	C	0.382744	1.450450	-0.734713
N105	N	0.415381	1.298361	-0.724213
C106	C	0.448016	1.146259	-0.669463
C107	C	0.382732	1.450335	-0.332042
C108	C	0.382729	1.450323	-0.287793
C109	C	0.448003	1.146120	-0.222540
C110	C	0.448003	1.146133	-0.266791
C111	C	0.415370	1.298245	-0.321542
C112	C	0.448011	1.146301	-0.762389
C113	C	0.448005	1.146328	-0.806644
C114	C	0.382733	1.450530	-0.871893
C115	C	0.382736	1.450504	-0.827642
C116	C	0.415379	1.298375	-0.772889
O117	O	0.354991	1.579736	-0.785364
O118	O	0.475777	1.016918	-0.664605
C119	C	0.448016	1.146205	-0.492470
C120	C	0.415383	1.298292	-0.502972
C121	C	0.382748	1.450393	-0.557721
C122	C	0.415379	1.298280	-0.458722
C123	C	0.448014	1.146179	-0.403972
C124	C	0.480652	0.994090	-0.393472
C125	C	0.480651	0.994104	-0.437720
C126	C	0.350110	1.602483	-0.568222
C127	C	0.350114	1.602456	-0.523971
C128	C	0.382748	1.450355	-0.469221
C129	C	0.415369	1.298403	0.091519
C130	C	0.415370	1.298430	0.138606
C131	C	0.568315	0.908818	-0.033016
C132	C	0.620225	0.776623	-0.028195
C133	C	0.429553	0.908945	0.105702
C134	C	0.434367	0.776793	0.157602
C135	C	0.568318	0.908896	0.105722
C136	C	0.620228	0.776727	0.157629
C137	C	0.262416	1.687755	-0.200159
C138	C	0.210505	1.819924	-0.252066
C139	C	0.262418	1.687833	-0.061421
C140	C	0.210509	1.820028	-0.066242
C141	C	0.401181	1.687706	-0.200139
C142	C	0.396366	1.819858	-0.252039
C143	C	0.617505	0.714537	-0.053032
C144	C	0.666274	0.590343	-0.048513
C145	C	0.717763	0.528229	-0.019155
C146	C	0.720482	0.590327	0.005681
C147	C	0.671713	0.714527	0.001160
C148	C	0.463726	0.714738	0.209075
C149	C	0.468247	0.590585	0.257844
C150	C	0.443413	0.528479	0.255139
C151	C	0.414051	0.590546	0.203661
C152	C	0.409527	0.714706	0.154893
C153	C	0.671707	0.714635	0.154918
C154	C	0.720485	0.590465	0.203685
C155	C	0.717785	0.528382	0.255163
C156	C	0.666301	0.590487	0.257873
C157	C	0.617523	0.714663	0.209106
C158	C	0.159026	1.882032	-0.249355
C159	C	0.110246	2.006240	-0.298124
C160	C	0.112947	2.068329	-0.349602
C161	C	0.164431	2.006216	-0.352312
C162	C	0.213210	1.882019	-0.303544
C163	C	0.213228	1.882127	-0.041411
C164	C	0.164458	2.006355	-0.045942
C165	C	0.112968	2.068474	-0.075302
C166	C	0.110250	2.006370	-0.100136
C167	C	0.159020	1.882153	-0.095608
C168	C	0.421207	1.881924	-0.249316
C169	C	0.416694	2.006079	-0.298077
C170	C	0.387336	2.068174	-0.349560
C171	C	0.362495	2.006095	-0.352281
C172	C	0.367012	1.881935	-0.303521
H173	H	0.284620	1.022428	0.011966
H174	H	-0.150253	1.726384	-0.139048
C175	C	0.453507	1.813634	-0.192690
N176	N	0.477840	1.762198	-0.150039
H177	H	0.470580	0.638505	0.007989
C178	C	0.674690	0.782912	0.098296
N179	N	0.676942	0.834339	0.055650
C180	C	0.346823	1.617644	-0.299355
N181	N	0.319780	1.743677	-0.308067
H182	H	0.338593	2.056672	-0.394205
H183	H	0.492158	0.540065	0.299754
H184	H	0.757507	0.427270	0.294868
C185	C	-0.239517	0.978841	0.021343
N186	N	-0.194145	0.852806	0.048388
H187	H	0.346781	1.831414	-0.305745
H188	H	0.757470	0.427095	-0.015477
C189	C	0.269862	1.813827	-0.009114
N190	N	0.312516	1.762400	0.015209
H191	H	0.393832	0.539961	0.201467
H192	H	0.156818	1.831485	-0.207443
C193	C	0.663340	0.522164	0.314505
N194	N	0.661112	0.470689	0.357162
H195	H	0.575584	0.765110	-0.076944
H196	H	0.356161	1.574367	-0.916478
C197	C	0.053619	2.074538	-0.295130
N198	N	0.010970	2.125977	-0.292874
C199	C	0.059284	2.204937	-0.403242
N200	N	0.018863	2.307823	-0.443643
C201	C	0.777126	0.521970	0.037979
N202	N	0.819792	0.470470	0.062309
H203	H	0.483949	0.765291	0.211287
C204	C	0.516554	0.826781	-0.426156
N205	N	0.543600	0.700744	-0.417441
C206	C	0.129385	0.826810	0.053956
N207	N	0.174757	0.700771	0.081002
C208	C	0.444020	2.074350	-0.295071
N209	N	0.464601	2.125769	-0.292806
H210	H	0.447101	0.427381	0.294853
C211	C	-0.376633	1.617708	-0.115739
N212	N	-0.385362	1.743753	-0.142790
H213	H	0.360158	0.958135	-0.102426
H214	H	0.204363	1.022395	0.011983
H215	H	0.073261	2.169620	-0.078985
H216	H	0.323532	1.726323	-0.532534
H217	H	0.033478	0.870263	0.044636
C218	C	-0.072997	1.769856	-0.148378
N219	N	-0.081722	1.895894	-0.175422
C220	C	0.070249	1.617792	-0.115772
N221	N	0.024875	1.743821	-0.142808
C222	C	0.167392	2.074518	-0.408943
N223	N	0.169622	2.125955	-0.451599
C224	C	0.560898	0.782947	0.212098
N225	N	0.518249	0.834376	0.214356
C226	C	0.053607	2.074696	-0.132422
N227	N	0.010942	2.126150	-0.156733
C228	C	0.377236	0.782934	0.098275
N229	N	0.352915	0.834315	0.055631
H230	H	0.255125	1.831452	-0.305758
C231	C	0.156020	1.813838	-0.122919
N232	N	0.153756	1.762387	-0.143491
C233	C	-0.003344	0.826783	0.053970
N234	N	0.042028	0.700744	0.081014
C235	C	-0.096263	0.826791	0.053974
N236	N	-0.087557	0.700782	0.081016
H237	H	-0.335445	1.022311	0.012016
C238	C	0.777112	0.522157	0.200692
N239	N	0.819763	0.470707	0.198436
H240	H	-0.453883	1.574215	-0.106407
C241	C	-0.298636	1.769803	-0.148363
N242	N	-0.344009	1.895838	-0.175401
C243	C	0.382372	2.204758	-0.403193
N244	N	0.378633	2.307636	-0.443588
H245	H	0.166177	1.574330	-0.106453
H246	H	-0.202728	1.726348	-0.139047
C247	C	0.516552	0.826823	-0.558900
N248	N	0.543598	0.700787	-0.550185
C249	C	0.483916	0.978952	-0.702165
N250	N	0.510957	0.852904	-0.656805
H251	H	0.664050	0.539798	-0.068739
C252	C	0.483908	0.978814	-0.255229
N253	N	0.510954	0.852781	-0.246517
C254	C	0.314215	1.769870	-0.761204
N255	N	0.287171	1.895910	-0.806566
C256	C	0.483908	0.978807	-0.162306
N257	N	0.510954	0.852794	-0.116938
C258	C	0.346814	1.617681	-0.392268
N259	N	0.319753	1.743728	-0.437629
H260	H	0.474581	1.022465	-0.798084
H261	H	0.507226	0.870266	-0.481637
H262	H	0.323538	1.726387	-0.665291
H263	H	0.166682	2.056899	-0.025716
H264	H	0.507221	0.870243	-0.348885
C265	C	0.346832	1.617820	-0.839198
N266	N	0.319792	1.743845	-0.847906
C267	C	0.314193	1.769816	-0.628445
N268	N	0.287130	1.895862	-0.673806
H269	H	0.673935	0.765061	0.021388
