data_functionalizedCrystal
_audit_creation_method	'MofGen! by Chris Wilmer'
_symmetry_space_group_name_H-M	'P1'
_symmetry_Int_Tables_number	1
_symmetry_cell_setting	triclinic
loop_
_symmetry_equiv_pos_as_xyz
  x,y,z
_cell_length_a	8.597213
_cell_length_b	10.723024
_cell_length_c	7.681481
_cell_angle_alpha	84.204337
_cell_angle_beta	88.167023
_cell_angle_gamma	84.901223
loop_
_atom_site_label
_atom_site_type_symbol
_atom_site_fract_x
_atom_site_fract_y
_atom_site_fract_z
O1	O	2.038684	0.222481	-0.455710
O2	O	1.588756	0.231347	-0.387455
O3	O	1.824099	0.045519	-0.423151
O4	O	1.803341	0.408308	-0.420015
O5	O	1.853065	0.022593	-0.134686
O6	O	1.617722	0.208421	-0.098991
O7	O	2.067651	0.199555	-0.167246
Zn8	Zn	1.847285	0.200348	-0.087318
Zn9	Zn	1.809121	0.230554	-0.467383
O10	O	1.832307	0.385383	-0.131550
C11	C	1.545628	0.217655	-0.234483
C12	C	1.373966	0.210998	-0.208442
C13	C	1.837071	-0.012470	-0.278691
C14	C	1.832551	-0.151103	-0.278012
C15	C	1.964236	-0.223777	-0.297991
C16	C	1.959568	-0.367062	-0.297289
C17	C	2.110778	0.213247	-0.320221
C18	C	2.282439	0.219905	-0.346274
C19	C	1.819334	0.443372	-0.276013
C20	C	1.823853	0.582006	-0.276704
N21	N	1.873343	0.179733	0.172064
N22	N	1.783076	0.251159	-0.726766
H23	H	1.320991	0.198282	-0.070512
C24	C	2.121219	-0.164538	-0.321802
C25	C	2.177727	-0.089991	-0.178297
C26	C	2.334714	-0.030755	-0.202108
C27	C	2.435193	-0.046066	-0.369425
C28	C	2.378686	-0.120616	-0.512941
C29	C	2.221699	-0.179852	-0.489130
H30	H	2.103346	-0.078654	-0.054429
H31	H	2.376544	0.024432	-0.095866
H32	H	2.551404	-0.002216	-0.387051
H33	H	2.453068	-0.131953	-0.636810
H34	H	2.179870	-0.235039	-0.595372
C35	C	2.111874	-0.451425	-0.320397
C36	C	2.243593	-0.454980	-0.188305
C37	C	2.395904	-0.539347	-0.211414
C38	C	2.416497	-0.620158	-0.366615
C39	C	2.284773	-0.616606	-0.498718
C40	C	2.132462	-0.532239	-0.475609
H41	H	2.228353	-0.395156	-0.073406
H42	H	2.493415	-0.541976	-0.113621
H43	H	2.529247	-0.682612	-0.383721
H44	H	2.300013	-0.676430	-0.613617
H45	H	2.034952	-0.529610	-0.573402
H46	H	1.965504	0.106833	0.233291
H47	H	1.711115	-0.355547	-0.259588
H48	H	1.335405	0.232634	-0.484194
H49	H	1.716354	-0.194961	-0.260396
H50	H	1.690931	0.324063	0.212013
