data_functionalizedCrystal
_audit_creation_method	'MofGen! by Chris Wilmer'
_symmetry_space_group_name_H-M	'P1'
_symmetry_Int_Tables_number	1
_symmetry_cell_setting	triclinic
loop_
_symmetry_equiv_pos_as_xyz
  x,y,z
_cell_length_a	16.625546
_cell_length_b	19.077236
_cell_length_c	19.076919
_cell_angle_alpha	90.112677
_cell_angle_beta	87.730083
_cell_angle_gamma	92.315185
loop_
_atom_site_label
_atom_site_type_symbol
_atom_site_fract_x
_atom_site_fract_y
_atom_site_fract_z
Zn1	Zn	-0.292690	1.058301	0.440534
Zn2	Zn	0.040643	1.391634	0.773868
Zn3	Zn	0.373976	1.724967	1.107201
Zn4	Zn	-0.421906	1.062945	0.323024
Zn5	Zn	-0.088573	1.396278	0.656358
Zn6	Zn	0.244761	1.729611	0.989691
Zn7	Zn	-0.292268	0.945516	0.318314
Zn8	Zn	0.041066	1.278849	0.651648
Zn9	Zn	0.374399	1.612183	0.984981
Zn10	Zn	-0.432663	0.940764	0.435762
Zn11	Zn	-0.099330	1.274098	0.769096
Zn12	Zn	0.234004	1.607431	1.102429
O13	O	-0.359882	1.001881	0.379409
O14	O	-0.026548	1.335215	0.712742
O15	O	0.306785	1.668548	1.046076
O16	O	-0.305506	1.157250	0.428915
O17	O	0.027827	1.490583	0.762248
O18	O	0.361161	1.823917	1.095581
O19	O	-0.400030	1.051300	0.224069
O20	O	-0.066697	1.384633	0.557402
O21	O	0.266636	1.717966	0.890736
O22	O	-0.179490	0.960522	0.334553
O23	O	0.153843	1.293856	0.667886
O24	O	0.487176	1.627189	1.001220
O25	O	-0.400440	1.160662	0.342581
O26	O	-0.067107	1.493995	0.675914
O27	O	0.266226	1.827329	1.009247
O28	O	-0.179801	1.043385	0.424348
O29	O	0.153532	1.376718	0.757681
O30	O	0.486866	1.710051	1.091014
O31	O	-0.304786	0.965025	0.220609
O32	O	0.028548	1.298359	0.553942
O33	O	0.361881	1.631692	0.887275
O34	O	-0.315216	0.846552	0.329926
O35	O	0.018117	1.179885	0.663259
O36	O	0.351450	1.513219	0.996593
O37	O	-0.418774	0.952423	0.534726
O38	O	-0.085441	1.285757	0.868059
O39	O	0.247893	1.619090	1.201393
O40	O	-0.418364	0.843061	0.416214
O41	O	-0.085031	1.176394	0.749548
O42	O	0.248302	1.509728	1.082881
O43	O	-0.315937	1.038777	0.538232
O44	O	0.017397	1.372110	0.871565
O45	O	0.350730	1.705444	1.204899
O46	O	-0.536166	1.046692	0.337953
O47	O	-0.202833	1.380025	0.671287
O48	O	0.130500	1.713359	1.004620
O49	O	-0.544069	0.956927	0.420781
O50	O	-0.210736	1.290260	0.754115
O51	O	0.122597	1.623593	1.087448
C52	C	-0.367912	0.819310	0.372042
C53	C	-0.034579	1.152643	0.705375
C54	C	0.298754	1.485976	1.038708
C55	C	-0.371368	0.741204	0.368907
C56	C	-0.038035	1.074537	0.702240
C57	C	0.295299	1.407871	1.035573
C58	C	-0.323649	0.702731	0.412452
C59	C	0.009684	1.036065	0.745785
C60	C	0.343017	1.369398	1.079118
C61	C	-0.326892	0.629343	0.409500
C62	C	0.006441	0.962676	0.742833
C63	C	0.339775	1.296010	1.076167
C64	C	-0.377858	0.594429	0.363006
C65	C	-0.044525	0.927762	0.696339
C66	C	0.288808	1.261095	1.029673
C67	C	-0.425579	0.632907	0.319456
C68	C	-0.092245	0.966240	0.652789
C69	C	0.241088	1.299573	0.986123
C70	C	-0.422331	0.706294	0.322405
C71	C	-0.088998	1.039627	0.655738
C72	C	0.244336	1.372961	0.989071
C73	C	-0.392858	0.375136	0.349356
C74	C	-0.059525	0.708469	0.682689
C75	C	0.273809	1.041803	1.016023
C76	C	-0.396104	0.301744	0.346412
C77	C	-0.062771	0.635077	0.679745
C78	C	0.270563	0.968410	1.013079
C79	C	-0.297416	0.298185	0.436456
C80	C	0.035918	0.631518	0.769789
C81	C	0.369251	0.964852	1.103122
C82	C	-0.294176	0.371573	0.439403
C83	C	0.039157	0.704907	0.772736
C84	C	0.372490	1.038240	1.106070
C85	C	-0.341894	0.410045	0.395851
C86	C	-0.008560	0.743378	0.729184
C87	C	0.324773	1.076712	1.062517
N88	N	-0.381176	0.519414	0.359989
N89	N	-0.047843	0.852747	0.693322
N90	N	0.285491	1.186081	1.026656
N91	N	-0.338571	0.485059	0.398864
N92	N	-0.005238	0.818392	0.732198
N93	N	0.328096	1.151725	1.065531
C94	C	-0.569374	1.001816	0.379377
C95	C	-0.236041	1.335149	0.712710
C96	C	0.097293	1.668483	1.046043
C97	C	-0.658994	1.001851	0.379389
C98	C	-0.325661	1.335185	0.712723
C99	C	0.007672	1.668518	1.046056
C100	C	-0.987168	1.001971	0.379467
C101	C	-0.653835	1.335304	0.712801
C102	C	-0.320501	1.668638	1.046134
C103	C	-0.895860	1.001935	0.379447
C104	C	-0.562527	1.335269	0.712781
C105	C	-0.229193	1.668602	1.046114
C106	C	-0.823084	1.001911	0.379428
C107	C	-0.489751	1.335244	0.712761
C108	C	-0.156417	1.668577	1.046095
C109	C	-0.731770	1.001876	0.379409
C110	C	-0.398437	1.335210	0.712742
C111	C	-0.065104	1.668543	1.046075
C112	C	-0.149571	1.001965	0.379457
C113	C	0.183762	1.335299	0.712791
C114	C	0.517095	1.668632	1.046124
C115	C	-0.059949	1.002001	0.379478
C116	C	0.273384	1.335335	0.712811
C117	C	0.606717	1.668668	1.046145
C118	C	-0.368603	0.994552	0.562688
C119	C	-0.035269	1.327885	0.896021
C120	C	0.298064	1.661219	1.229355
C121	C	-0.372319	0.991429	0.640791
C122	C	-0.038985	1.324762	0.974124
C123	C	0.294348	1.658095	1.307457
C124	C	-0.351821	1.185166	0.386805
C125	C	-0.018487	1.518499	0.720139
C126	C	0.314846	1.851833	1.053472
C127	C	-0.348385	1.263271	0.389957
C128	C	-0.015052	1.596604	0.723291
C129	C	0.318281	1.929937	1.056624
C130	C	-0.351135	1.009223	0.196844
C131	C	-0.017802	1.342556	0.530178
C132	C	0.315532	1.675889	0.863511
C133	C	-0.347186	1.012482	0.118748
C134	C	-0.013852	1.345815	0.452081
C135	C	0.319481	1.679149	0.785414
C136	C	-0.320525	1.034919	0.679310
C137	C	0.012808	1.368252	1.012643
C138	C	0.346141	1.701585	1.345976
C139	C	-0.324014	1.031975	0.752695
C140	C	0.009319	1.365309	1.086028
C141	C	0.342652	1.698642	1.419362
C142	C	-0.379302	0.985545	0.787560
C143	C	-0.045968	1.318879	1.120893
C144	C	0.287365	1.652212	1.454227
C145	C	-0.431097	0.942051	0.749036
C146	C	-0.097764	1.275384	1.082369
C147	C	0.235569	1.608717	1.415702
C148	C	-0.427604	0.944991	0.675651
C149	C	-0.094270	1.278324	1.008985
C150	C	0.239063	1.611657	1.342318
C151	C	-0.395488	0.971928	1.006839
C152	C	-0.062154	1.305261	1.340172
C153	C	0.271179	1.638594	1.673506
C154	C	-0.398979	0.968992	1.080229
C155	C	-0.065646	1.302325	1.413562
C156	C	0.267688	1.635659	1.746895
C157	C	-0.291895	1.058916	1.083883
C158	C	0.041439	1.392250	1.417216
C159	C	0.374772	1.725583	1.750550
C160	C	-0.288409	1.061855	1.010497
C161	C	0.044924	1.395189	1.343831
C162	C	0.378257	1.728522	1.677164
C163	C	-0.340202	1.018358	0.971979
C164	C	-0.006869	1.351692	1.305313
C165	C	0.326465	1.685025	1.638646
N166	N	-0.382871	0.982537	0.862572
N167	N	-0.049538	1.315871	1.195905
N168	N	0.283796	1.649204	1.529238
N169	N	-0.336628	1.021363	0.896969
N170	N	-0.003295	1.354696	1.230302
N171	N	0.330039	1.688030	1.563635
H172	H	-0.258566	0.266853	0.471913
H173	H	0.074767	0.600187	0.805246
H174	H	0.408101	0.933520	1.138579
F175	F	-0.269407	0.739883	0.461941
F176	F	0.063926	1.073216	0.795274
F177	F	0.397259	1.406550	1.128607
H178	H	-0.437673	0.936519	0.975487
H179	H	-0.104339	1.269853	1.308820
H180	H	0.228994	1.603186	1.642153
H181	H	-0.431714	0.406451	0.313893
H182	H	-0.098380	0.739784	0.647227
H183	H	0.234953	1.073118	0.980560
F184	F	-0.276105	0.588401	0.455848
F185	F	0.057229	0.921734	0.789182
F186	F	0.390562	1.255067	1.122515
H187	H	-0.275507	1.072729	0.650928
H188	H	0.057827	1.406063	0.984262
H189	H	0.391160	1.739396	1.317595
F190	F	-0.450367	0.264586	0.296938
F191	F	-0.117034	0.597920	0.630271
F192	F	0.216299	0.931253	0.963604
H193	H	-0.252677	0.399995	0.477266
H194	H	0.080656	0.733329	0.810599
H195	H	0.413989	1.066662	1.143933
F196	F	-0.479817	0.595747	0.269969
F197	F	-0.146483	0.929080	0.603303
F198	F	0.186850	1.262413	0.936636
H199	H	-0.444003	0.931181	1.108613
H200	H	-0.110669	1.264514	1.441947
H201	H	0.222664	1.597848	1.775280
H202	H	-0.281840	1.067391	0.784054
H203	H	0.051493	1.400725	1.117388
H204	H	0.384826	1.734058	1.450721
F205	F	-0.489935	0.892633	0.786143
F206	F	-0.156602	1.225966	1.119477
F207	F	0.176731	1.559300	1.452810
F208	F	-0.473120	0.747239	0.276058
F209	F	-0.139787	1.080572	0.609392
F210	F	0.193546	1.413906	0.942725
F211	F	-0.229565	1.111273	0.973397
F212	F	0.103768	1.444606	1.306730
F213	F	0.437101	1.777940	1.640064
F214	F	-0.236775	1.105204	1.124882
F215	F	0.096558	1.438538	1.458215
F216	F	0.429891	1.771871	1.791549
H217	H	-0.469772	0.909569	0.644290
H218	H	-0.136438	1.242903	0.977623
H219	H	0.196895	1.576236	1.310956
