data_functionalizedCrystal
_audit_creation_method	'MofGen! by Chris Wilmer'
_symmetry_space_group_name_H-M	'P1'
_symmetry_Int_Tables_number	1
_symmetry_cell_setting	triclinic
loop_
_symmetry_equiv_pos_as_xyz
  x,y,z
_cell_length_a	19.851628
_cell_length_b	14.628931
_cell_length_c	14.628931
_cell_angle_alpha	59.999972
_cell_angle_beta	90.003717
_cell_angle_gamma	59.998289
loop_
_atom_site_label
_atom_site_type_symbol
_atom_site_fract_x
_atom_site_fract_y
_atom_site_fract_z
Zr1	Zr	0.648978	1.000475	-0.119855
O2	O	0.541411	1.191198	-0.265834
O3	O	0.681953	0.809764	-0.075105
O4	O	0.681953	1.000470	-0.265811
O5	O	0.541412	1.000492	0.075304
O6	O	0.792815	1.000452	-0.265792
O7	O	0.541411	1.000492	-0.075128
O8	O	0.792815	0.659315	0.075346
O9	O	0.541411	1.341630	-0.265834
O10	O	0.778751	0.888189	-0.056006
O11	O	0.696017	0.888202	0.056246
O12	O	0.696016	1.112733	-0.168285
O13	O	0.613282	1.112746	-0.056033
Zr14	Zr	0.825790	1.000447	0.120096
Zr15	Zr	0.825790	1.000447	-0.119826
Zr16	Zr	0.648978	1.000475	0.120066
Zr17	Zr	0.648978	1.240397	-0.119856
Zr18	Zr	0.825790	0.760525	0.120096
O19	O	0.792815	1.191158	0.075345
O20	O	0.792815	1.191158	-0.265793
O21	O	0.541412	1.191198	0.075304
O22	O	0.933357	0.809724	0.266074
O23	O	0.933356	0.809724	-0.075063
O24	O	0.681953	0.809764	0.266033
O25	O	0.933357	1.000430	-0.075063
O26	O	0.792815	1.000452	0.266051
O27	O	0.681954	1.000470	0.266033
O28	O	0.933357	1.000430	0.075368
O29	O	0.681953	1.341607	-0.265811
O30	O	0.792815	0.659315	0.266051
O31	O	0.933357	0.659292	0.266075
O32	O	0.933356	0.659292	0.075369
O33	O	0.541412	1.341630	-0.075129
O34	O	0.681953	1.341607	-0.075105
O35	O	0.778752	0.888189	0.168526
O36	O	0.861486	0.888176	0.056274
O37	O	0.778752	1.112720	-0.056006
O38	O	0.696017	1.112733	0.056246
C39	C	0.737384	0.700356	0.000121
C40	C	0.737384	0.598503	0.000121
C41	C	0.778426	0.553087	-0.055564
C42	C	0.778426	0.447817	-0.055565
C43	C	0.516220	1.000496	0.000084
C44	C	0.441158	1.000508	0.000071
C45	C	0.214703	1.122911	-0.061111
C46	C	0.192341	1.061711	-0.105469
C47	C	0.303752	1.000475	0.000103
C48	C	0.192372	1.061682	0.044441
C49	C	0.171020	1.000451	0.000134
C50	C	0.282379	0.939274	-0.044317
C51	C	0.282407	0.939263	0.105652
C52	C	0.260099	0.877974	0.061320
C53	C	0.380214	1.000492	0.000083
C54	C	0.094562	1.000425	0.000152
C55	C	0.958549	1.000426	0.000157
C56	C	1.033610	1.000414	0.000169
C57	C	0.737384	1.000461	-0.299985
C58	C	0.737383	1.000461	-0.401838
C59	C	0.737384	1.300566	0.000120
C60	C	0.737384	1.402419	0.000120
C61	C	0.795426	1.000452	-0.447238
C62	C	0.795427	1.000452	-0.552508
C63	C	0.737385	1.000461	0.300225
C64	C	0.737385	1.000461	0.402078
C65	C	0.958548	0.700320	0.000157
C66	C	1.033609	0.598456	0.000170
C67	C	0.737384	0.700356	0.300226
C68	C	0.737384	0.598503	0.402079
C69	C	0.958549	0.700320	0.300262
C70	C	1.033610	0.598456	0.402128
C71	C	0.516219	1.300601	-0.300022
C72	C	0.441158	1.402466	-0.401887
C73	C	0.516220	1.300601	0.000083
C74	C	0.441159	1.402466	0.000071
C75	C	0.737384	1.300566	-0.299986
C76	C	0.737384	1.402419	-0.401839
C77	C	1.025672	0.550626	-0.058443
C78	C	1.096193	0.454926	-0.058454
C79	C	1.174651	0.407051	0.000156
C80	C	1.182587	0.454891	0.058770
C81	C	1.112066	0.550595	0.058774
C82	C	1.112054	0.550612	0.391371
C83	C	1.182588	0.454912	0.487075
C84	C	1.174678	0.407052	0.593535
C85	C	1.096226	0.454905	0.604290
C86	C	1.025693	0.550609	0.508587
C87	C	0.362714	1.450322	-0.391130
C88	C	0.292180	1.546051	-0.486834
C89	C	0.300090	1.593917	-0.593295
C90	C	0.378542	1.546057	-0.604050
C91	C	0.449075	1.450336	-0.508347
C92	C	0.449096	1.450306	0.058674
C93	C	0.378575	1.546032	0.058658
C94	C	0.300117	1.593910	0.000045
C95	C	0.292181	1.546066	-0.058565
C96	C	0.362702	1.450349	-0.058555
C97	C	0.778426	0.553087	0.503186
C98	C	0.778427	0.447817	0.608458
H99	H	0.702249	0.559447	0.047796
H100	H	0.687694	1.000462	-0.440900
C101	C	0.939378	0.603277	-0.122925
H102	H	0.944763	0.561085	-0.157841
H103	H	0.910065	0.587596	-0.072356
H104	H	0.910074	0.693639	-0.178387
H105	H	0.845117	1.000451	-0.591553
C106	C	1.087530	0.402253	0.721397
H107	H	1.030711	0.444455	0.714109
H108	H	1.113258	0.311896	0.761166
H109	H	1.113250	0.417947	0.761160
H110	H	1.089716	0.415987	-0.106185
H111	H	0.384973	1.585042	-0.690742
H112	H	0.196252	1.226436	-0.112951
C113	C	1.252216	0.301768	0.000154
H114	H	1.236245	0.280135	-0.043140
H115	H	1.284129	0.333114	-0.031215
H116	H	1.284118	0.227082	0.074826
H117	H	1.246476	0.415897	0.106487
H118	H	0.512946	1.411373	-0.517119
C119	C	0.222502	1.699202	-0.698562
H120	H	0.238442	1.720867	-0.763512
H121	H	0.190597	1.667834	-0.698561
H122	H	0.190603	1.773872	-0.698560
H123	H	1.246461	0.415960	0.478298
H124	H	0.702241	0.441475	0.047790
C125	C	0.689894	0.455189	0.481002
H126	H	0.664143	0.413053	0.488201
H127	H	0.649054	0.545550	0.441274
H128	H	0.727187	0.439507	0.441250
H129	H	0.228308	1.585002	-0.478056
C130	C	0.535390	1.397657	0.123154
H131	H	0.530006	1.439878	0.158040
H132	H	0.564698	1.307302	0.178619
H133	H	0.564699	1.413340	0.072571
H134	H	0.813567	0.592132	-0.103232
H135	H	0.153531	1.113457	-0.194719
H136	H	0.321074	0.887565	-0.081905
C137	C	0.205878	1.598727	-0.123026
H138	H	0.211242	1.556538	-0.157936
H139	H	0.176579	1.583047	-0.072435
H140	H	0.176572	1.689090	-0.178489
C141	C	0.825895	0.395065	0.725627
H142	H	0.819663	0.331240	0.781010
H143	H	0.882723	0.357681	0.734092
H144	H	0.804569	0.463738	0.734071
C145	C	0.222552	1.699194	0.000047
H146	H	0.238524	1.720813	0.043354
H147	H	0.190642	1.773875	-0.074617
H148	H	0.190646	1.667829	0.031430
C149	C	1.120772	0.603245	0.274277
H150	H	1.177596	0.561044	0.281593
H151	H	1.095060	0.587561	0.234499
H152	H	1.095052	0.693607	0.234507
C153	C	0.285223	0.738016	0.131250
H154	H	0.316630	0.694732	0.099595
H155	H	0.317433	0.694213	0.205897
H156	H	0.237095	0.738763	0.131377
C157	C	0.334843	0.869431	0.226185
H158	H	0.303419	0.913070	0.257579
H159	H	0.350706	0.782900	0.270000
H160	H	0.382751	0.869276	0.225332
C161	C	0.353961	1.397719	-0.123006
H162	H	0.297133	1.439938	-0.157901
H163	H	0.379674	1.413384	-0.178463
H164	H	0.379669	1.307361	-0.072406
H165	H	0.702244	0.559455	0.393453
H166	H	1.232117	0.329123	0.671454
H167	H	0.385053	1.584971	0.106389
H168	H	0.153571	1.113452	0.081927
H169	H	0.813561	0.408766	-0.103244
H170	H	0.813560	0.592144	0.511812
H171	H	1.118541	0.589526	0.106510
C172	C	0.862558	1.000438	-0.394470
H173	H	0.853748	1.000447	-0.330642
H174	H	0.915297	0.925452	-0.372613
H175	H	0.860035	1.075429	-0.447603
H176	H	0.356258	1.411355	-0.304453
H177	H	0.687687	1.000476	-0.558889
H178	H	0.961823	0.589551	0.517362
