data_functionalizedCrystal
_audit_creation_method	'MofGen! by Chris Wilmer'
_symmetry_space_group_name_H-M	'P1'
_symmetry_Int_Tables_number	1
_symmetry_cell_setting	triclinic
loop_
_symmetry_equiv_pos_as_xyz
  x,y,z
_cell_length_a	19.077105
_cell_length_b	16.120484
_cell_length_c	16.120297
_cell_angle_alpha	95.614431
_cell_angle_beta	90.698250
_cell_angle_gamma	90.738523
loop_
_atom_site_label
_atom_site_type_symbol
_atom_site_fract_x
_atom_site_fract_y
_atom_site_fract_z
Zn1	Zn	1.035311	-0.408728	-0.541298
Zn2	Zn	1.535311	0.091272	-0.041298
Zn3	Zn	1.035223	-0.541413	-0.408604
Zn4	Zn	1.535223	-0.041413	0.091396
Zn5	Zn	0.924375	-0.396094	-0.395989
Zn6	Zn	1.424375	0.103906	0.104011
Zn7	Zn	0.911827	-0.542259	-0.542147
Zn8	Zn	1.411827	-0.042259	-0.042147
O9	O	0.976684	-0.472123	-0.472009
O10	O	1.476684	0.027877	0.027991
O11	O	1.133368	-0.431262	-0.528620
O12	O	1.633368	0.068738	-0.028620
O13	O	1.025733	-0.516495	-0.290230
O14	O	1.525733	-0.016495	0.209770
O15	O	0.944379	-0.281070	-0.409629
O16	O	1.444379	0.218930	0.090371
O17	O	1.133303	-0.528745	-0.431130
O18	O	1.633303	-0.028745	0.068870
O19	O	1.025883	-0.290352	-0.516387
O20	O	1.525883	0.209648	-0.016387
O21	O	0.944293	-0.409729	-0.280961
O22	O	1.444293	0.090271	0.219039
O23	O	0.824641	-0.410550	-0.410453
O24	O	1.324641	0.089450	0.089547
O25	O	0.922993	-0.530187	-0.658735
O26	O	1.422993	-0.030187	-0.158735
O27	O	0.815423	-0.517936	-0.517835
O28	O	1.315423	-0.017936	-0.017835
O29	O	1.013716	-0.432082	-0.658111
O30	O	1.513716	0.067918	-0.158111
O31	O	1.013566	-0.658225	-0.431954
O32	O	1.513566	-0.158225	0.068046
O33	O	0.922907	-0.658846	-0.530067
O34	O	1.422907	-0.158846	-0.030067
C35	C	0.794604	-0.462964	-0.462868
C36	C	1.294604	0.037036	0.037132
C37	C	0.716707	-0.459067	-0.458977
C38	C	1.216707	0.040933	0.041023
C39	C	0.675330	-0.513223	-0.512978
C40	C	1.175330	-0.013223	-0.012978
C41	C	0.602138	-0.509551	-0.509326
C42	C	1.102138	-0.009551	-0.009326
C43	C	0.570325	-0.451726	-0.451670
C44	C	1.070325	0.048274	0.048330
C45	C	0.611708	-0.397564	-0.397667
C46	C	1.111708	0.102436	0.102333
C47	C	0.684898	-0.401233	-0.401323
C48	C	1.184898	0.098767	0.098677
C49	C	0.351943	-0.434744	-0.434752
C50	C	0.851943	0.065256	0.065248
C51	C	0.278747	-0.431081	-0.431098
C52	C	0.778747	0.068919	0.068902
C53	C	0.269182	-0.543067	-0.542759
C54	C	0.769182	-0.043067	-0.042759
C55	C	0.342375	-0.546735	-0.546407
C56	C	0.842375	-0.046735	-0.046407
C57	C	0.383751	-0.492570	-0.492407
C58	C	0.883751	0.007430	0.007593
N59	N	0.495512	-0.447972	-0.447934
N60	N	0.995512	0.052028	0.052066
N61	N	0.458563	-0.496320	-0.496147
N62	N	0.958563	0.003680	0.003853
C63	C	0.966884	-0.688796	-0.482491
C64	C	1.466884	-0.188796	0.017509
C65	C	0.962754	-0.781495	-0.487006
C66	C	1.462754	-0.281495	0.012994
C67	C	0.955218	-0.951216	-0.495266
C68	C	1.455218	-0.451216	0.004734
C69	C	0.998275	-0.992197	-0.448772
C70	C	1.498275	-0.492197	0.051228
C71	C	0.994082	-1.086636	-0.453368
C72	C	1.494082	-0.586636	0.046632
C73	C	0.959410	-0.856769	-0.490671
C74	C	1.459410	-0.356769	0.009329
C75	C	1.159475	-0.481318	-0.481187
C76	C	1.659475	0.018682	0.018813
C77	C	1.237370	-0.485237	-0.485098
C78	C	1.737370	0.014763	0.014902
C79	C	0.966965	-0.482638	-0.689528
C80	C	1.466965	0.017362	-0.189528
C81	C	0.962823	-0.487119	-0.782222
C82	C	1.462823	0.012881	-0.282222
C83	C	0.986541	-0.254606	-0.461506
C84	C	1.486541	0.245394	0.038494
C85	C	0.990741	-0.161913	-0.457030
C86	C	1.490741	0.338087	0.042970
C87	C	0.955237	-0.495280	-0.951932
C88	C	1.455237	0.004720	-0.451932
C89	C	0.998280	-0.448724	-0.992933
C90	C	1.498280	0.051276	-0.492933
C91	C	0.994059	-0.453265	-1.087365
C92	C	1.494059	0.046735	-0.587365
C93	C	0.959457	-0.490740	-0.857491
C94	C	1.459457	0.009260	-0.357491
C95	C	0.986408	-0.461591	-0.255335
C96	C	1.486408	0.038409	0.244665
C97	C	0.990696	-0.456882	-0.162638
C98	C	1.490696	0.043118	0.337362
H99	H	0.368271	-0.593824	-0.593355
H100	H	0.868271	-0.093824	-0.093355
H101	H	1.038300	-0.405455	-0.957113
H102	H	1.538300	0.094545	-0.457113
H103	H	0.701227	-0.560313	-0.559926
H104	H	1.201227	-0.060313	-0.059926
O105	O	0.562049	-0.562253	-0.561809
O106	O	1.062049	-0.062253	-0.061809
C107	C	0.605822	-0.614071	-0.613488
C108	C	1.105822	-0.114071	-0.113488
H109	H	0.659389	-0.617857	-0.582068
H110	H	1.159389	-0.117857	-0.082068
H111	H	0.581317	-0.679158	-0.624383
H112	H	1.081317	-0.179158	-0.124383
H113	H	0.612157	-0.587099	-0.675800
H114	H	1.112157	-0.087099	-0.175800
O115	O	0.228886	-0.595589	-0.595180
O116	O	0.728886	-0.095589	-0.095180
C117	C	0.157464	-0.579969	-0.579579
C118	C	0.657464	-0.079969	-0.079579
H119	H	0.151588	-0.513752	-0.548755
H120	H	0.651588	-0.013752	-0.048755
H121	H	0.126610	-0.587346	-0.640927
H122	H	0.626610	-0.087346	-0.140927
H123	H	0.136441	-0.626176	-0.536443
H124	H	0.636441	-0.126176	-0.036443
H125	H	0.915208	-0.987055	-0.538519
H126	H	1.415208	-0.487055	-0.038519
O127	O	0.907593	-0.546996	-0.994704
O128	O	1.407593	-0.046996	-0.494704
C129	C	0.942852	-0.605221	-1.049721
C130	C	1.442852	-0.105221	-0.549721
H131	H	0.998965	-0.611903	-1.026431
H132	H	1.498965	-0.111903	-0.526431
H133	H	0.914554	-0.668180	-1.052651
H134	H	1.414554	-0.168180	-0.552651
H135	H	0.943547	-0.582663	-1.114566
H136	H	1.443547	-0.082663	-0.614566
O137	O	0.247955	-0.374830	-0.375064
O138	O	0.747955	0.125170	0.124936
C139	C	0.300169	-0.327822	-0.328171
C140	C	0.800169	0.172178	0.171829
H141	H	0.350949	-0.329250	-0.364803
H142	H	0.850949	0.170750	0.135197
H143	H	0.282377	-0.260619	-0.315151
H144	H	0.782377	0.239381	0.184849
H145	H	0.309400	-0.355584	-0.266643
H146	H	0.809400	0.144416	0.233357
H147	H	0.385623	-0.390646	-0.390775
H148	H	0.885623	0.109354	0.109225
H149	H	0.585800	-0.350478	-0.350724
H150	H	1.085800	0.149522	0.149276
H151	H	0.718587	-0.357129	-0.357354
H152	H	1.218587	0.142871	0.142646
H153	H	1.038287	-0.956355	-0.405515
H154	H	1.538287	-0.456355	0.094485
