data_functionalizedCrystal
_audit_creation_method	'MofGen! by Chris Wilmer'
_symmetry_space_group_name_H-M	'P1'
_symmetry_Int_Tables_number	1
_symmetry_cell_setting	triclinic
loop_
_symmetry_equiv_pos_as_xyz
  x,y,z
_cell_length_a	17.640112
_cell_length_b	29.839131
_cell_length_c	17.639306
_cell_angle_alpha	101.185564
_cell_angle_beta	87.804122
_cell_angle_gamma	101.266684
loop_
_atom_site_label
_atom_site_type_symbol
_atom_site_fract_x
_atom_site_fract_y
_atom_site_fract_z
Zn1	Zn	1.247707	-0.057749	-0.195067
Zn2	Zn	1.221926	-0.121255	-0.068093
Zn3	Zn	1.095056	-0.063678	-0.093720
Zn4	Zn	1.120620	-0.150413	-0.220665
O5	O	1.171327	-0.098274	-0.144387
O6	O	1.350569	-0.051489	-0.156786
O7	O	1.183607	-0.103896	0.034774
O8	O	1.115396	-0.000015	-0.107176
O9	O	1.331627	-0.098147	-0.063499
O10	O	1.227549	0.004341	-0.181636
O11	O	1.090396	-0.061594	0.015946
O12	O	0.992165	-0.089867	-0.131997
O13	O	1.158967	-0.147842	-0.323536
O14	O	1.010947	-0.153591	-0.225264
O15	O	1.252338	-0.079762	-0.304729
O16	O	1.208396	-0.187999	-0.088320
O17	O	1.133968	-0.209421	-0.200414
C18	C	0.973998	-0.125537	-0.184189
C19	C	0.889584	-0.137212	-0.201235
C20	C	1.171182	-0.215012	-0.144377
C21	C	1.171195	-0.264945	-0.144384
C22	C	0.563031	-0.009567	-0.014897
C23	C	0.483712	-0.020548	-0.030925
C24	C	0.503291	-0.086967	-0.127875
C25	C	0.582613	-0.075990	-0.111858
C26	C	0.612476	-0.037290	-0.055368
C27	C	0.632058	-0.103713	-0.152329
C28	C	0.711373	-0.092739	-0.136311
C29	C	0.741242	-0.054041	-0.079821
C30	C	0.691790	-0.026315	-0.039350
C31	C	0.602193	-0.142415	-0.208816
C32	C	0.651638	-0.170138	-0.249287
C33	C	0.730955	-0.159162	-0.233272
C34	C	0.760824	-0.120464	-0.176783
C35	C	0.780406	-0.186888	-0.273744
C36	C	0.859721	-0.175913	-0.257726
C37	C	0.840139	-0.109489	-0.160764
C38	C	1.210185	-0.563401	-0.086072
C39	C	1.210284	-0.751064	-0.086083
O40	O	1.243320	-0.765829	-0.036497
N41	N	1.171496	-0.785699	-0.144412
C42	C	1.132685	-0.773416	-0.202746
O43	O	1.099702	-0.807181	-0.252363
C44	C	1.132590	-0.585754	-0.202737
C45	C	1.171374	-0.551121	-0.144400
C46	C	1.248967	-0.528769	-0.027740
C47	C	1.248938	-0.481856	-0.027736
C48	C	1.210127	-0.469576	-0.086064
C49	C	1.171345	-0.504208	-0.144396
C50	C	1.093783	-0.573472	-0.261073
C51	C	1.093765	-0.526552	-0.261067
C52	C	1.132549	-0.491919	-0.202730
C53	C	1.132506	-0.445015	-0.202719
N54	N	1.171294	-0.410380	-0.144390
C55	C	1.210105	-0.422660	-0.086062
C56	C	1.132736	-0.871941	-0.202745
C57	C	1.132758	-0.918856	-0.202746
C58	C	1.210359	-0.896501	-0.086084
C59	C	1.210332	-0.849585	-0.086080
C60	C	1.171524	-0.837306	-0.144416
C61	C	1.210041	-0.324141	-0.086057
C62	C	1.210006	-0.277226	-0.086056
C63	C	1.132408	-0.299585	-0.202720
C64	C	1.132439	-0.346497	-0.202719
C65	C	1.171261	-0.358773	-0.144384
O66	O	1.099495	-0.430216	-0.252283
O67	O	1.243097	-0.388888	-0.036462
C68	C	1.210214	-0.610314	-0.086077
C69	C	1.171432	-0.644946	-0.144409
C70	C	1.132621	-0.632666	-0.202736
C71	C	1.171454	-0.691862	-0.144410
C72	C	1.210265	-0.704142	-0.086082
C73	C	1.249053	-0.669507	-0.027753
C74	C	1.249024	-0.622594	-0.027749
C75	C	1.093833	-0.667301	-0.261066
C76	C	1.093864	-0.714213	-0.261065
C77	C	1.132675	-0.726493	-0.202737
C78	C	1.369427	-0.070904	-0.104429
C79	C	1.453845	-0.059241	-0.087401
C80	C	1.211380	-0.116393	-0.342457
C81	C	1.228448	-0.124115	-0.426862
C82	C	1.171497	0.018922	-0.144409
C83	C	1.171569	0.068863	-0.144419
C84	C	1.041958	-0.039406	-0.753494
C85	C	1.058013	-0.046668	-0.832803
C86	C	1.155063	-0.090712	-0.813179
C87	C	1.139019	-0.083451	-0.733867
C88	C	1.082465	-0.057798	-0.704031
C89	C	1.179526	-0.101844	-0.684404
C90	C	1.163480	-0.094586	-0.605099
C91	C	1.106926	-0.068935	-0.575257
C92	C	1.066418	-0.050540	-0.624726
C93	C	1.236076	-0.127500	-0.714242
C94	C	1.276583	-0.145893	-0.664779
C95	C	1.260541	-0.138632	-0.585472
C96	C	1.203987	-0.112981	-0.555630
C97	C	1.301049	-0.157026	-0.536003
C98	C	1.285002	-0.149768	-0.456698
C99	C	1.187941	-0.105722	-0.476325
C100	C	1.131474	-0.080186	0.052922
C101	C	1.114553	-0.072317	0.137357
H102	H	0.864457	-0.077970	-0.114776
Cl103	Cl	0.995328	-0.018283	-0.587211
Cl104	Cl	1.347674	-0.178143	-0.702296
Cl105	Cl	1.297764	-0.544196	0.045596
Cl106	Cl	1.045101	-0.757747	-0.334411
H107	H	1.241914	-0.821388	-0.038577
Cl108	Cl	1.372133	-0.189281	-0.573523
H109	H	0.756078	-0.218400	-0.319733
H110	H	0.899981	-0.198487	-0.290682
Cl111	Cl	0.970868	-0.007149	-0.715979
H112	H	1.025026	-0.031687	-0.873074
H113	H	0.805825	-0.045107	-0.066779
H114	H	1.062230	-0.657307	-0.308564
H115	H	0.716109	0.005204	0.006639
H116	H	1.100861	-0.374697	-0.250224
Cl117	Cl	1.226154	-0.122963	-0.850696
Cl118	Cl	1.256250	-0.136623	-0.813941
H119	H	1.101132	-0.861948	-0.250250
Cl120	Cl	0.502480	-0.156217	-0.228944
Cl121	Cl	1.335922	-0.172893	-0.394513
H122	H	1.241961	-0.906507	-0.038592
H123	H	1.241588	-0.249027	-0.038548
H124	H	1.241655	-0.334130	-0.038556
Cl125	Cl	1.116851	-0.073466	-0.438810
H126	H	1.280652	-0.679513	0.019741
H127	H	0.587349	0.021952	0.031092
Cl128	Cl	0.421552	0.014306	0.019965
Cl129	Cl	0.614086	-0.218793	-0.320292
Cl130	Cl	0.465739	-0.135622	-0.198880
H131	H	1.100806	-0.289579	-0.250208
Cl132	Cl	1.297712	-0.438323	0.045597
H133	H	1.101168	-0.947052	-0.250245
Cl134	Cl	1.044975	-0.511120	-0.334409
Cl135	Cl	1.297788	-0.579061	0.045591
Cl136	Cl	1.045033	-0.617000	-0.334424
Cl137	Cl	1.086746	-0.059814	-0.475560
