data_functionalizedCrystal
_audit_creation_method	'MofGen! by Chris Wilmer'
_symmetry_space_group_name_H-M	'P1'
_symmetry_Int_Tables_number	1
_symmetry_cell_setting	triclinic
loop_
_symmetry_equiv_pos_as_xyz
  x,y,z
_cell_length_a	14.853567
_cell_length_b	15.625429
_cell_length_c	13.330367
_cell_angle_alpha	71.918212
_cell_angle_beta	89.995418
_cell_angle_gamma	83.949492
loop_
_atom_site_label
_atom_site_type_symbol
_atom_site_fract_x
_atom_site_fract_y
_atom_site_fract_z
O1	O	1.196370	0.117702	-0.126165
O2	O	0.933910	0.131723	-0.131282
O3	O	1.072150	-0.006515	-0.080986
O4	O	1.058130	0.255941	-0.176461
O5	O	1.072130	-0.006518	0.085862
O6	O	0.933890	0.131720	0.035566
O7	O	1.196350	0.117699	0.040683
Cu8	Cu	1.065118	0.124709	0.053359
Cu9	Cu	1.065142	0.124713	-0.143958
O10	O	1.058110	0.255937	-0.009613
C11	C	0.900312	0.131086	-0.047629
C12	C	0.800228	0.129183	-0.046943
C13	C	1.071504	-0.040105	0.014654
C14	C	1.069599	-0.140187	0.051055
C15	C	0.387693	0.039018	-0.014121
C16	C	0.366414	0.203249	-0.073865
C17	C	0.460447	0.205039	-0.074519
C18	C	0.518109	0.123817	-0.044975
C19	C	0.481736	0.040806	-0.014777
C20	C	0.496827	0.288049	-0.104727
C21	C	0.590866	0.289842	-0.105384
C22	C	0.648529	0.208620	-0.075832
C23	C	0.612151	0.125605	-0.045632
C24	C	0.669813	0.044383	-0.016088
C25	C	0.633437	-0.038633	0.014120
C26	C	0.539399	-0.040417	0.014774
C27	C	0.742567	0.210404	-0.076487
C28	C	0.763855	0.046171	-0.016745
C29	C	1.063364	-0.469338	-0.283936
C30	C	1.061571	-0.563380	-0.249701
C31	C	1.061549	-0.563370	-0.067815
C32	C	1.063347	-0.469327	-0.102035
C33	C	1.064254	-0.422318	-0.210096
C34	C	1.064237	-0.422306	-0.028195
C35	C	1.066030	-0.328271	-0.062412
C36	C	1.066934	-0.281255	-0.170469
C37	C	1.066047	-0.328282	-0.244314
C38	C	1.063324	-0.469316	0.079866
C39	C	1.064213	-0.422296	0.153706
C40	C	1.066013	-0.328259	0.119490
C41	C	1.066917	-0.281243	0.011432
C42	C	1.066900	-0.281232	0.193334
C43	C	1.068693	-0.187196	0.159117
C44	C	1.068710	-0.187208	-0.022785
C45	C	1.229948	0.118336	-0.042972
C46	C	1.330032	0.120240	-0.043665
C47	C	1.058756	0.289527	-0.105255
C48	C	1.060661	0.389610	-0.141662
N49	N	1.065108	0.124706	0.192142
N50	N	1.065159	0.124709	-0.282738
C51	C	1.003927	0.185901	0.642500
C52	C	1.126381	0.063518	0.686995
C53	C	1.126371	0.063515	0.581978
C54	C	1.065139	0.124707	0.507216
C55	C	1.003917	0.185902	0.537472
C56	C	1.187598	0.002328	0.551712
C57	C	1.187591	0.002323	0.446689
C58	C	1.126354	0.063511	0.371926
C59	C	1.065128	0.124708	0.402188
C60	C	1.003896	0.185900	0.327426
C61	C	0.942666	0.247093	0.357687
C62	C	0.942679	0.247090	0.462709
C63	C	1.126340	0.063514	0.266904
C64	C	1.003886	0.185901	0.222398
H65	H	0.810798	-0.019971	0.007318
O66	O	0.440947	0.367025	-0.133505
C67	C	0.493215	0.440678	-0.160287
H68	H	0.563369	0.417881	-0.183585
H69	H	0.499941	0.466123	-0.089502
C70	C	0.360291	0.545552	-0.225075
C71	C	0.446454	0.517555	-0.253698
H72	H	0.331445	0.592976	-0.282692
H73	H	0.325076	0.495932	-0.207028
H74	H	0.365908	0.566751	-0.166086
H75	H	0.440835	0.496347	-0.312677
H76	H	0.481667	0.567174	-0.271757
H77	H	0.892814	0.296920	0.296802
H78	H	1.069456	-0.148932	-0.110779
O79	O	1.068553	-0.189892	-0.203594
C80	C	0.991117	-0.148354	-0.168848
H81	H	0.964069	-0.199165	-0.097246
H82	H	0.936811	-0.124597	-0.234990
C83	C	1.049649	-0.004027	-0.226208
C84	C	1.016432	-0.066432	-0.138261
H85	H	1.065262	0.046509	-0.207345
H86	H	1.101818	-0.032010	-0.249622
H87	H	1.004388	0.015761	-0.281319
H88	H	1.061697	-0.086227	-0.083157
H89	H	0.964272	-0.038449	-0.114837
H90	H	1.066793	-0.290006	-0.332308
O91	O	1.185813	0.003953	0.759555
C92	C	1.171021	-0.085317	0.766396
H93	H	1.136272	-0.085268	0.690128
H94	H	1.126107	-0.113267	0.835678
C95	C	1.305152	-0.145200	0.876979
C96	C	1.262480	-0.145142	0.783302
H97	H	1.361567	-0.182105	0.887412
H98	H	1.315117	-0.085058	0.872374
H99	H	1.267715	-0.168490	0.934704
H100	H	1.299912	-0.121842	0.725578
H101	H	1.252524	-0.205282	0.787898
H102	H	0.680397	-0.104763	0.038167
H103	H	1.060807	-0.601657	0.020169
H104	H	0.954071	0.235721	0.667142
H105	H	0.509773	-0.108004	0.039391
O106	O	1.061694	-0.560677	0.113224
C107	C	1.139110	-0.602228	0.178212
H108	H	1.166152	-0.551422	0.212851
H109	H	1.193430	-0.625995	0.129369
C110	C	1.080553	-0.746543	0.225847
C111	C	1.113762	-0.684144	0.268398
H112	H	1.064920	-0.797075	0.281476
H113	H	1.028398	-0.718550	0.182061
H114	H	1.125825	-0.766338	0.185145
H115	H	1.068486	-0.664341	0.309088
H116	H	1.165909	-0.712135	0.312194
O117	O	1.063176	-0.467904	0.258676
C118	C	0.985608	-0.434793	0.301976
H119	H	0.931572	-0.401874	0.236786
H120	H	1.004287	-0.382495	0.339658
C121	C	1.015005	-0.554172	0.466502
C122	C	0.948635	-0.513746	0.386436
H123	H	0.992200	-0.602872	0.518604
H124	H	1.067266	-0.576478	0.437332
H125	H	1.030565	-0.510581	0.497891
H126	H	0.933084	-0.557334	0.355040
H127	H	0.896370	-0.491449	0.415603
H128	H	1.064111	-0.431062	-0.371931
O129	O	1.247025	-0.057239	0.624277
C130	C	1.232235	-0.146507	0.631109
H131	H	1.197498	-0.146456	0.554833
H132	H	1.187312	-0.174458	0.700382
C133	C	1.366352	-0.206395	0.741716
C134	C	1.323695	-0.206333	0.648029
H135	H	1.422768	-0.243300	0.752158
H136	H	1.376315	-0.146254	0.737117
H137	H	1.328907	-0.229685	0.799433
H138	H	1.361135	-0.183032	0.590314
H139	H	1.313740	-0.266472	0.652619
O140	O	0.352214	-0.041542	0.015148
C141	C	0.256849	-0.025710	0.009426
H142	H	0.234855	0.044616	-0.047744
H143	H	0.230671	-0.030112	0.091076
C144	C	0.244765	-0.183847	0.040325
C145	C	0.217752	-0.097474	-0.029900
H146	H	0.220646	-0.228115	0.016072
H147	H	0.309014	-0.194514	0.044184
H148	H	0.222948	-0.187501	0.108361
H149	H	0.239578	-0.093817	-0.097930
H150	H	0.153505	-0.086808	-0.033771
H151	H	0.319461	0.269375	-0.097926
O152	O	0.626235	0.370460	-0.134901
C153	C	0.680011	0.376397	-0.223465
H154	H	0.657719	0.329251	-0.266702
H155	H	0.754141	0.355703	-0.196404
C156	C	0.696108	0.532432	-0.245255
C157	C	0.668723	0.474531	-0.298364
H158	H	0.689150	0.592965	-0.291454
H159	H	0.659881	0.528431	-0.185585
H160	H	0.757881	0.515176	-0.222706
H161	H	0.606949	0.491780	-0.320900
H162	H	0.704940	0.478536	-0.358039
H163	H	0.772180	0.277994	-0.101080
O164	O	1.060817	-0.609151	-0.321350
C165	C	1.137802	-0.673650	-0.303373
H166	H	1.163549	-0.691137	-0.218054
H167	H	1.193124	-0.644485	-0.358865
C168	C	1.080764	-0.738406	-0.428817
C169	C	1.112382	-0.759889	-0.324025
H170	H	1.065086	-0.791601	-0.441561
H171	H	1.028899	-0.694950	-0.440932
H172	H	1.126871	-0.714100	-0.475048
H173	H	1.066272	-0.784183	-0.277797
H174	H	1.164239	-0.803351	-0.311903
O175	O	1.065855	-0.326841	0.298303
C176	C	0.988283	-0.293724	0.341593
H177	H	0.934255	-0.260800	0.276395
H178	H	1.006961	-0.241428	0.379278
C179	C	1.017659	-0.413104	0.506120
C180	C	0.951298	-0.372674	0.426045
H181	H	0.994846	-0.461802	0.558218
H182	H	1.069922	-0.435414	0.476958
H183	H	1.033218	-0.369516	0.537513
H184	H	0.935748	-0.416259	0.394645
H185	H	0.899031	-0.350373	0.455204
O186	O	1.069396	-0.141446	0.230785
C187	C	0.992424	-0.076924	0.212719
H188	H	0.937363	-0.098209	0.168854
H189	H	1.011422	-0.007948	0.163169
C190	C	1.024688	-0.044723	0.373048
C191	C	0.957058	-0.070870	0.319180
H192	H	1.002874	-0.040984	0.438717
H193	H	1.076547	-0.088190	0.385218
H194	H	1.040513	0.012755	0.331745
H195	H	0.941242	-0.128351	0.360477
H196	H	0.905194	-0.027412	0.307020
O197	O	1.246984	-0.057083	0.417136
C198	C	1.302656	-0.008860	0.338655
H199	H	1.304543	0.062207	0.344441
H200	H	1.274264	-0.004090	0.257409
C201	C	1.396954	-0.145915	0.347753
C202	C	1.399278	-0.058631	0.354866
H203	H	1.456554	-0.176617	0.357749
H204	H	1.359445	-0.178404	0.400625
H205	H	1.373290	-0.141927	0.280048
H206	H	1.422931	-0.062620	0.422575
H207	H	1.436793	-0.026144	0.302006
O208	O	0.944528	0.245384	0.149653
C209	C	0.992868	0.301112	0.068645
H210	H	1.063367	0.265337	0.065912
H211	H	0.999075	0.367751	0.084880
C212	C	0.855470	0.364232	-0.034728
C213	C	0.942055	0.320290	-0.038090
H214	H	0.824125	0.376067	-0.100567
H215	H	0.822901	0.326690	0.019850
H216	H	0.860655	0.419760	-0.021194
H217	H	0.936869	0.264759	-0.051610
H218	H	0.974622	0.357823	-0.092674
H219	H	0.892829	0.296912	0.487355
H220	H	1.176197	0.013696	0.242268
