data_functionalizedCrystal
_audit_creation_method	'MofGen! by Chris Wilmer'
_symmetry_space_group_name_H-M	'P1'
_symmetry_Int_Tables_number	1
_symmetry_cell_setting	triclinic
loop_
_symmetry_equiv_pos_as_xyz
  x,y,z
_cell_length_a	18.215407
_cell_length_b	18.215405
_cell_length_c	17.077396
_cell_angle_alpha	90.031591
_cell_angle_beta	90.016808
_cell_angle_gamma	90.022344
loop_
_atom_site_label
_atom_site_type_symbol
_atom_site_fract_x
_atom_site_fract_y
_atom_site_fract_z
Zn1	Zn	1.125071	-0.293034	0.443769
Zn2	Zn	1.625071	0.206966	0.943769
Zn3	Zn	1.124980	-0.416108	0.312496
Zn4	Zn	1.624980	0.083892	0.812496
Zn5	Zn	1.002004	-0.293054	0.312523
Zn6	Zn	1.502004	0.206946	0.812523
Zn7	Zn	1.001970	-0.416058	0.443726
Zn8	Zn	1.501970	0.083942	0.943726
O9	O	1.063506	-0.354564	0.378129
O10	O	1.563506	0.145436	0.878129
O11	O	1.228043	-0.309373	0.426362
O12	O	1.728043	0.190627	0.926362
O13	O	1.108643	-0.399813	0.202653
O14	O	1.608643	0.100187	0.702653
O15	O	1.018382	-0.190067	0.329963
O16	O	1.518382	0.309933	0.829963
O17	O	1.227976	-0.399794	0.329917
O18	O	1.727976	0.100206	0.829917
O19	O	1.108799	-0.190053	0.426389
O20	O	1.608799	0.309947	0.926389
O21	O	1.018293	-0.309407	0.202673
O22	O	1.518293	0.190593	0.702673
O23	O	0.899015	-0.309358	0.329921
O24	O	1.399015	0.190642	0.829921
O25	O	1.018323	-0.399710	0.553579
O26	O	1.518323	0.100290	1.053579
O27	O	0.898990	-0.399729	0.426315
O28	O	1.398990	0.100271	0.926315
O29	O	1.108765	-0.309324	0.553611
O30	O	1.608765	0.190676	1.053611
O31	O	1.108610	-0.519085	0.329875
O32	O	1.608610	-0.019085	0.829875
O33	O	1.018235	-0.519049	0.426288
O34	O	1.518235	-0.019049	0.926288
C35	C	0.872300	-0.354541	0.378117
C36	C	1.372300	0.145459	0.878117
C37	C	0.790501	-0.354549	0.378130
C38	C	1.290501	0.145451	0.878130
C39	C	0.525450	-0.401697	0.428252
C40	C	1.025450	0.098303	0.928252
C41	C	0.602308	-0.401690	0.428248
C42	C	1.102308	0.098310	0.928248
C43	C	0.602304	-0.307447	0.328019
C44	C	1.102304	0.192553	0.828019
C45	C	0.525447	-0.307457	0.328020
C46	C	1.025447	0.192543	0.828020
C47	C	0.487021	-0.354581	0.378140
C48	C	0.987021	0.145419	0.878140
C49	C	0.640738	-0.354564	0.378136
C50	C	1.140738	0.145436	0.878136
C51	C	0.724071	-0.354557	0.378132
C52	C	1.224071	0.145443	0.878132
C53	C	0.403682	-0.354590	0.378144
C54	C	0.903682	0.145410	0.878144
C55	C	1.063428	-0.545770	0.378091
C56	C	1.563428	-0.045770	0.878091
C57	C	1.063463	-0.627569	0.378101
C58	C	1.563463	-0.127569	0.878101
C59	C	1.110631	-0.815757	0.327991
C60	C	1.610631	-0.315757	0.827991
C61	C	1.110664	-0.892616	0.328010
C62	C	1.610664	-0.392616	0.828010
C63	C	1.016475	-0.892618	0.428323
C64	C	1.516475	-0.392618	0.928323
C65	C	1.016447	-0.815761	0.428308
C66	C	1.516447	-0.315761	0.928308
C67	C	1.063524	-0.777332	0.378137
C68	C	1.563524	-0.277332	0.878137
C69	C	1.063585	-0.931048	0.378171
C70	C	1.563585	-0.431048	0.878171
C71	C	1.063620	-1.014382	0.378192
C72	C	1.563620	-0.514382	0.878192
C73	C	1.063489	-0.693993	0.378117
C74	C	1.563489	-0.193993	0.878117
C75	C	1.255459	-0.354587	0.378141
C76	C	1.755459	0.145413	0.878141
C77	C	1.337258	-0.354597	0.378147
C78	C	1.837258	0.145403	0.878147
C79	C	1.063551	-0.354509	0.582873
C80	C	1.563551	0.145491	1.082873
C81	C	1.063570	-0.354486	0.670123
C82	C	1.563570	0.145514	1.170123
C83	C	1.063604	-0.162611	0.378184
C84	C	1.563604	0.337389	0.878184
C85	C	1.063646	-0.080812	0.378207
C86	C	1.563646	0.419188	0.878207
C87	C	1.063504	-0.354564	0.174181
C88	C	1.563504	0.145436	0.674181
C89	C	1.063628	-0.354380	0.086932
C90	C	1.563628	0.145620	0.586932
C91	C	1.110665	-0.307419	0.711131
C92	C	1.610665	0.192581	1.211131
C93	C	1.110674	-0.307394	0.793111
C94	C	1.610674	0.192606	1.293111
C95	C	1.063591	-0.354441	0.834082
C96	C	1.563591	0.145559	1.334082
C97	C	1.016490	-0.401511	0.793069
C98	C	1.516490	0.098489	1.293069
C99	C	1.016478	-0.401531	0.711090
C100	C	1.516478	0.098469	1.211090
C101	C	1.016520	-0.401467	0.963939
C102	C	1.516520	0.098533	1.463939
C103	C	1.016533	-0.401448	1.045923
C104	C	1.516533	0.098552	1.545923
C105	C	1.110715	-0.307330	1.045961
C106	C	1.610715	0.192670	1.545961
C107	C	1.110703	-0.307350	0.963982
C108	C	1.610703	0.192650	1.463982
C109	C	1.063604	-0.354421	0.922974
C110	C	1.563604	0.145579	1.422974
H111	H	0.494158	-0.269089	0.287209
H112	H	0.994158	0.230911	0.787209
H113	H	0.978146	-0.923916	0.469169
H114	H	1.478146	-0.423916	0.969169
O115	O	0.970788	-0.778397	0.477106
O116	O	1.470788	-0.278397	0.977106
C117	C	1.012644	-0.733860	0.527822
C118	C	1.512644	-0.233860	1.027822
H119	H	1.070610	-0.756977	0.532732
H120	H	1.570610	-0.256977	1.032732
H121	H	0.985992	-0.732963	0.588207
H122	H	1.485992	-0.232963	1.088207
H123	H	1.015174	-0.675627	0.503541
H124	H	1.515174	-0.175627	1.003541
H125	H	0.633593	-0.440057	0.469053
H126	H	1.133593	0.059943	0.969053
O127	O	0.970838	-0.447291	0.671161
O128	O	1.470838	0.052709	1.171161
C129	C	1.012711	-0.494848	0.623747
C130	C	1.512711	0.005152	1.123747
H131	H	1.068494	-0.468900	0.611489
H132	H	1.568494	0.031100	1.111489
H133	H	0.982726	-0.504717	0.566088
H134	H	1.482726	-0.004717	1.066088
H135	H	1.020772	-0.549381	0.655322
H136	H	1.520772	-0.049381	1.155322
H137	H	1.149046	-0.269044	0.930625
H138	H	1.649046	0.230956	1.430625
O139	O	1.156327	-0.778508	0.279152
O140	O	1.656327	-0.278508	0.779152
C141	C	1.140286	-0.797342	0.200904
C142	C	1.640286	-0.297342	0.700904
H143	H	1.112018	-0.853169	0.199261
H144	H	1.612018	-0.353169	0.699261
H145	H	1.193421	-0.799956	0.165759
H146	H	1.693421	-0.299956	0.665759
H147	H	1.102449	-0.754134	0.174418
H148	H	1.602449	-0.254134	0.674418
H149	H	1.149007	-0.269110	0.677778
H150	H	1.649007	0.230890	1.177778
O151	O	1.156494	-0.261652	0.832825
O152	O	1.656494	0.238348	1.332825
C153	C	1.198039	-0.220123	0.779084
C154	C	1.698039	0.279877	1.279084
H155	H	1.200560	-0.250284	0.720639
H156	H	1.700560	0.249716	1.220639
H157	H	1.256030	-0.212279	0.802781
H158	H	1.756030	0.287721	1.302781
H159	H	1.171121	-0.164227	0.770376
H160	H	1.671121	0.335773	1.270376
H161	H	1.149064	-0.269002	1.079353
H162	H	1.649064	0.230998	1.579353
H163	H	0.978152	-0.439815	0.826434
H164	H	1.478152	0.060185	1.326434
O165	O	1.156441	-0.930055	0.279414
O166	O	1.656441	-0.430055	0.779414
C167	C	1.146386	-1.006132	0.290195
C168	C	1.646386	-0.506132	0.790195
H169	H	1.122198	-1.016592	0.350731
H170	H	1.622198	-0.516592	0.850731
H171	H	1.201544	-1.035279	0.285006
H172	H	1.701544	-0.535279	0.785006
H173	H	1.107288	-1.028044	0.243567
H174	H	1.607288	-0.528044	0.743567
O175	O	0.970725	-0.447169	1.085603
O176	O	1.470725	0.052831	1.585603
C177	C	0.929159	-0.488727	1.031831
C178	C	1.429159	0.011273	1.531831
H179	H	0.926616	-0.458600	0.973402
H180	H	1.426616	0.041400	1.473402
H181	H	0.871177	-0.496558	1.055513
H182	H	1.371177	0.003442	1.555513
H183	H	0.956073	-0.544629	1.023099
H184	H	1.456073	-0.044629	1.523099
O185	O	0.970877	-0.447228	0.924010
O186	O	1.470877	0.052772	1.424010
C187	C	1.012758	-0.494782	0.876599
C188	C	1.512758	0.005218	1.376599
H189	H	1.068539	-0.468828	0.864345
H190	H	1.568539	0.031172	1.364345
H191	H	0.982777	-0.504654	0.818938
H192	H	1.482777	-0.004654	1.318938
H193	H	1.020822	-0.549313	0.908175
H194	H	1.520822	-0.049313	1.408175
H195	H	0.494166	-0.440068	0.469064
H196	H	0.994166	0.059932	0.969064
O197	O	0.639746	-0.261692	0.279413
O198	O	1.139746	0.238308	0.779413
C199	C	0.715823	-0.271796	0.290145
C200	C	1.215823	0.228204	0.790145
H201	H	0.726330	-0.295966	0.350678
H202	H	1.226330	0.204034	0.850678
H203	H	0.745044	-0.216660	0.284926
H204	H	1.245044	0.283340	0.784926
H205	H	0.737612	-0.310929	0.243510
H206	H	1.237612	0.189071	0.743510
