data_functionalizedCrystal
_audit_creation_method	'MofGen! by Chris Wilmer'
_symmetry_space_group_name_H-M	'P1'
_symmetry_Int_Tables_number	1
_symmetry_cell_setting	triclinic
loop_
_symmetry_equiv_pos_as_xyz
  x,y,z
_cell_length_a	14.044191
_cell_length_b	15.944493
_cell_length_c	15.021413
_cell_angle_alpha	89.990110
_cell_angle_beta	90.005604
_cell_angle_gamma	88.333410
loop_
_atom_site_label
_atom_site_type_symbol
_atom_site_fract_x
_atom_site_fract_y
_atom_site_fract_z
O1	O	1.257679	0.202525	0.073967
O2	O	0.981711	0.195211	0.073979
O3	O	1.127260	0.077157	0.073980
O4	O	1.112130	0.320580	0.073966
O5	O	1.127236	0.077173	-0.074084
O6	O	0.981687	0.195228	-0.074085
O7	O	1.257656	0.202542	-0.074097
Zn8	Zn	1.119668	0.198888	-0.097600
Zn9	Zn	1.119699	0.198866	0.097481
O10	O	1.112107	0.320597	-0.074098
C11	C	0.946385	0.192020	-0.000051
C12	C	0.841161	0.182477	-0.000046
C13	C	0.590866	0.232715	-0.000058
C14	C	0.648506	0.165042	-0.000053
C15	C	0.755709	0.174745	-0.000049
C16	C	0.483653	0.223013	-0.000062
C17	C	1.126630	0.045824	-0.000048
C18	C	1.124776	-0.047563	-0.000037
C19	C	1.210449	-0.276906	-0.000058
C20	C	1.164260	-0.330943	0.072947
C21	C	1.121341	-0.218542	-0.000048
C22	C	1.164216	-0.330904	-0.073032
C23	C	1.118029	-0.383699	-0.000062
C24	C	1.075176	-0.271348	0.073018
C25	C	1.075145	-0.271305	-0.073028
C26	C	1.028891	-0.325314	-0.000005
C27	C	1.123251	-0.123399	-0.000039
C28	C	1.116112	-0.478840	-0.000065
C29	C	1.292981	0.205733	-0.000065
C30	C	1.398206	0.215277	-0.000064
C31	C	1.112737	0.351929	-0.000068
C32	C	1.114591	0.445317	-0.000074
N33	N	1.119654	0.198903	-0.230737
C34	C	1.052342	0.253462	-0.470421
C35	C	1.137989	0.276185	-0.529761
C36	C	1.119678	0.198883	-0.412344
C37	C	1.034055	0.176181	-0.529746
C38	C	1.119694	0.198866	-0.587768
C39	C	1.205368	0.221647	-0.470377
C40	C	1.101378	0.121606	-0.470358
C41	C	1.187087	0.144301	-0.529671
C42	C	1.119668	0.198895	-0.311287
C43	C	1.119714	0.198854	-0.688824
N44	N	1.119720	0.198845	0.230619
H45	H	0.622028	0.297934	-0.000059
N46	N	1.211486	-0.363719	0.150372
N47	N	1.297396	-0.349349	0.163379
H48	H	1.330755	-0.372493	0.218059
N49	N	0.609416	0.083218	-0.000024
N50	N	0.627944	0.033528	0.062401
H51	H	0.600332	-0.024258	0.062427
H52	H	1.287205	-0.255529	0.000013
N53	N	1.296234	0.245815	-0.437794
N54	N	1.310881	0.249750	-0.355841
H55	H	1.375053	0.266820	-0.332826
N56	N	1.028011	-0.238731	0.150526
N57	N	1.021875	-0.161263	0.163056
H58	H	0.988568	-0.138225	0.217797
H59	H	0.952075	-0.346534	0.000038
H60	H	0.995455	0.299663	-0.444406
H61	H	1.037536	-0.245154	-0.134748
H62	H	1.201857	-0.357008	-0.134748
N63	N	1.157420	0.358162	-0.562484
N64	N	1.102817	0.418843	-0.543506
H65	H	1.116534	0.476742	-0.566612
H66	H	1.244100	0.098140	-0.555523
N67	N	1.081902	0.039654	-0.437607
N68	N	1.005003	0.006382	-0.456593
H69	H	0.991238	-0.051498	-0.433463
N70	N	0.943206	0.152115	-0.562467
N71	N	0.870090	0.194993	-0.543486
H72	H	0.805926	0.178005	-0.566594
