data_functionalizedCrystal
_audit_creation_method	'MofGen! by Chris Wilmer'
_symmetry_space_group_name_H-M	'P1'
_symmetry_Int_Tables_number	1
_symmetry_cell_setting	triclinic
loop_
_symmetry_equiv_pos_as_xyz
  x,y,z
_cell_length_a	21.395362
_cell_length_b	25.639240
_cell_length_c	21.395355
_cell_angle_alpha	90.026516
_cell_angle_beta	90.043940
_cell_angle_gamma	90.048633
loop_
_atom_site_label
_atom_site_type_symbol
_atom_site_fract_x
_atom_site_fract_y
_atom_site_fract_z
Zn1	Zn	0.957851	-0.207990	0.354551
Zn2	Zn	1.291184	0.125344	0.687884
Zn3	Zn	1.624517	0.458677	1.021217
Zn4	Zn	0.957749	-0.295409	0.249759
Zn5	Zn	1.291083	0.037924	0.583092
Zn6	Zn	1.624416	0.371257	0.916425
Zn7	Zn	0.853066	-0.208014	0.249752
Zn8	Zn	1.186399	0.125319	0.583085
Zn9	Zn	1.519732	0.458653	0.916419
Zn10	Zn	0.853031	-0.295420	0.354463
Zn11	Zn	1.186364	0.037913	0.687797
Zn12	Zn	1.519698	0.371246	1.021130
O13	O	0.905424	-0.251708	0.302131
O14	O	1.238757	0.081625	0.635465
O15	O	1.572091	0.414958	0.968798
O16	O	1.045515	-0.219571	0.340689
O17	O	1.378848	0.113762	0.674023
O18	O	1.712182	0.447095	1.007356
O19	O	0.943835	-0.283822	0.162080
O20	O	1.277168	0.049511	0.495413
O21	O	1.610502	0.382845	0.828747
O22	O	0.867022	-0.134846	0.263688
O23	O	1.200356	0.198488	0.597021
O24	O	1.533689	0.531821	0.930354
O25	O	1.045441	-0.283798	0.263699
O26	O	1.378774	0.049535	0.597032
O27	O	1.712107	0.382868	0.930366
O28	O	0.944007	-0.134828	0.340683
O29	O	1.277341	0.198506	0.674016
O30	O	1.610674	0.531839	1.007349
O31	O	0.866924	-0.219613	0.162075
O32	O	1.200257	0.113720	0.495408
O33	O	1.533591	0.447054	0.828742
O34	O	0.765383	-0.219623	0.263603
O35	O	1.098716	0.113710	0.596936
O36	O	1.432050	0.447043	0.930270
O37	O	0.866963	-0.283817	0.442153
O38	O	1.200297	0.049517	0.775486
O39	O	1.533630	0.382850	1.108820
O40	O	0.765358	-0.283840	0.340534
O41	O	1.098691	0.049493	0.673867
O42	O	1.432024	0.382826	1.007201
O43	O	0.943974	-0.219582	0.442217
O44	O	1.277307	0.113751	0.775550
O45	O	1.610641	0.447085	1.108884
O46	O	0.943801	-0.368576	0.263614
O47	O	1.277135	-0.035243	0.596947
O48	O	1.610468	0.298091	0.930281
O49	O	0.866865	-0.368584	0.340540
O50	O	1.200199	-0.035251	0.673874
O51	O	1.533532	0.298083	1.007207
C52	C	0.742636	-0.251736	0.302059
C53	C	1.075970	0.081597	0.635392
C54	C	1.409303	0.414931	0.968725
C55	C	0.672995	-0.251760	0.302042
C56	C	1.006328	0.081573	0.635376
C57	C	1.339662	0.414906	0.968709
C58	C	0.640285	-0.285243	0.342040
C59	C	0.973618	0.048091	0.675374
C60	C	1.306952	0.381424	1.008707
C61	C	0.574850	-0.285230	0.342068
C62	C	0.908183	0.048104	0.675401
C63	C	1.241516	0.381437	1.008735
C64	C	0.542127	-0.251740	0.302087
C65	C	0.875460	0.081593	0.635420
C66	C	1.208794	0.414926	0.968754
C67	C	0.574845	-0.218252	0.262086
C68	C	0.908178	0.115082	0.595420
C69	C	1.241511	0.448415	0.928753
C70	C	0.640279	-0.218262	0.262064
C71	C	0.973612	0.115071	0.595397
C72	C	1.306945	0.448405	0.928731
C73	C	0.438402	-0.247528	0.245682
C74	C	0.771736	0.085805	0.579016
C75	C	1.105069	0.419138	0.912349
C76	C	0.372969	-0.247522	0.245704
C77	C	0.706303	0.085811	0.579037
C78	C	1.039636	0.419145	0.912370
C79	C	0.340306	-0.251706	0.302156
C80	C	0.673639	0.081627	0.635489
C81	C	1.006973	0.414960	0.968823
C82	C	0.373084	-0.255908	0.358589
C83	C	0.706417	0.077425	0.691922
C84	C	1.039751	0.410759	1.025256
C85	C	0.438518	-0.255918	0.358567
C86	C	0.771851	0.077415	0.691900
C87	C	1.105185	0.410749	1.025233
C88	C	0.471174	-0.251725	0.302107
C89	C	0.804508	0.081608	0.635440
C90	C	1.137841	0.414941	0.968774
C91	C	0.236644	-0.285176	0.342188
C92	C	0.569977	0.048157	0.675521
C93	C	0.903310	0.381491	1.008854
C94	C	0.171207	-0.285160	0.342217
C95	C	0.504540	0.048174	0.675550
C96	C	0.837874	0.381507	1.008883
C97	C	0.171203	-0.218184	0.262229
C98	C	0.504537	0.115149	0.595562
C99	C	0.837870	0.448482	0.928896
C100	C	0.236639	-0.218198	0.262206
C101	C	0.569972	0.115135	0.595539
C102	C	0.903305	0.448468	0.928872
C103	C	0.269355	-0.251697	0.302184
C104	C	0.602688	0.081636	0.635518
C105	C	0.936022	0.414970	0.968851
C106	C	0.905336	-0.387551	0.302082
C107	C	1.238669	-0.054218	0.635415
C108	C	1.572002	0.279116	0.968749
C109	C	0.905355	-0.445665	0.302082
C110	C	1.238688	-0.112332	0.635415
C111	C	1.572022	0.221002	0.968749
C112	C	0.945530	-0.805980	0.342295
C113	C	1.278863	-0.472647	0.675628
C114	C	1.612197	-0.139314	1.008962
C115	C	0.945549	-0.860585	0.342308
C116	C	1.278882	-0.527251	0.675641
C117	C	1.612215	-0.193918	1.008974
O118	O	0.979602	-0.888781	0.376448
O119	O	1.312935	-0.555447	0.709781
O120	O	1.646268	-0.222114	1.043114
N121	N	0.905511	-0.887947	0.302192
N122	N	1.238844	-0.554614	0.635525
N123	N	1.572178	-0.221281	0.968858
C124	C	0.865448	-0.860703	0.262065
C125	C	1.198781	-0.527370	0.595398
C126	C	1.532114	-0.194036	0.928732
O127	O	0.831394	-0.888991	0.227945
O128	O	1.164727	-0.555658	0.561278
O129	O	1.498061	-0.222325	0.894612
C130	C	0.865427	-0.806100	0.262056
C131	C	1.198760	-0.472767	0.595389
C132	C	1.532093	-0.139433	0.928723
C133	C	0.905471	-0.778740	0.302170
C134	C	1.238805	-0.445406	0.635503
C135	C	1.572138	-0.112073	0.968837
C136	C	0.985571	-0.778620	0.382406
C137	C	1.318904	-0.445287	0.715739
C138	C	1.652238	-0.111954	1.049073
C139	C	0.985553	-0.724020	0.382392
C140	C	1.318887	-0.390686	0.715726
C141	C	1.652220	-0.057353	1.049059
C142	C	0.945495	-0.696779	0.342267
C143	C	1.278828	-0.363446	0.675601
C144	C	1.612161	-0.030113	1.008934
C145	C	0.905454	-0.724139	0.302156
C146	C	1.238787	-0.390806	0.635490
C147	C	1.572120	-0.057473	0.968823
C148	C	0.825361	-0.778857	0.221933
C149	C	1.158694	-0.445523	0.555266
C150	C	1.492027	-0.112190	0.888600
C151	C	0.825343	-0.724250	0.221928
C152	C	1.158676	-0.390916	0.555261
C153	C	1.492009	-0.057583	0.888594
C154	C	0.865387	-0.696890	0.262042
C155	C	1.198721	-0.363556	0.595375
C156	C	1.532054	-0.030223	0.928708
C157	C	0.865377	-0.642298	0.262018
C158	C	1.198710	-0.308965	0.595351
C159	C	1.532044	0.024368	0.928684
N160	N	0.905415	-0.614935	0.302133
N161	N	1.238748	-0.281602	0.635467
N162	N	1.572081	0.051731	0.968800
C163	C	0.945473	-0.642176	0.342258
C164	C	1.278807	-0.308843	0.675592
C165	C	1.612140	0.024491	1.008925
C166	C	0.865495	-0.975374	0.262088
C167	C	1.198828	-0.642040	0.595421
C168	C	1.532161	-0.308707	0.928755
C169	C	0.865518	-1.029976	0.262094
C170	C	1.198852	-0.696643	0.595427
C171	C	1.532185	-0.363309	0.928760
C172	C	0.945619	-1.029854	0.342337
C173	C	1.278952	-0.696520	0.675670
C174	C	1.612285	-0.363187	1.009004
C175	C	0.945597	-0.975250	0.342328
C176	C	1.278931	-0.641917	0.675661
C177	C	1.612264	-0.308584	1.008995
C178	C	0.905532	-0.948011	0.302204
C179	C	1.238866	-0.614678	0.635537
C180	C	1.572199	-0.281344	0.968871
C181	C	0.945433	-0.527511	0.342226
C182	C	1.278767	-0.194178	0.675559
C183	C	1.612100	0.139156	1.008893
C184	C	0.945414	-0.472905	0.342207
C185	C	1.278747	-0.139572	0.675540
C186	C	1.612080	0.193761	1.008874
C187	C	0.865312	-0.473033	0.261966
C188	C	1.198645	-0.139699	0.595299
C189	C	1.531978	0.193634	0.928633
C190	C	0.865333	-0.527633	0.261983
C191	C	1.198666	-0.194300	0.595316
C192	C	1.532000	0.139033	0.928649
C193	C	0.905396	-0.554871	0.302118
C194	C	1.238729	-0.221538	0.635451
C195	C	1.572063	0.111796	0.968784
O196	O	0.831340	-0.614067	0.227897
O197	O	1.164673	-0.280734	0.561230
O198	O	1.498006	0.052599	0.894564
O199	O	0.979516	-0.613881	0.376378
O200	O	1.312849	-0.280548	0.709712
O201	O	1.646182	0.052786	1.043045
C202	C	1.068847	-0.251681	0.302205
C203	C	1.402181	0.081652	0.635538
C204	C	1.735514	0.414986	0.968871
C205	C	1.138489	-0.251669	0.302236
C206	C	1.471822	0.081664	0.635569
C207	C	1.805155	0.414997	0.968902
C208	C	0.905476	-0.251698	0.465555
C209	C	1.238809	0.081636	0.798888
C210	C	1.572143	0.414969	1.132221
C211	C	0.905498	-0.251693	0.535196
C212	C	1.238832	0.081640	0.868529
C213	C	1.572165	0.414973	1.201863
C214	C	0.905530	-0.115335	0.302194
C215	C	1.238863	0.217998	0.635528
C216	C	1.572197	0.551331	0.968861
C217	C	0.905575	-0.057221	0.302221
C218	C	1.238909	0.276112	0.635554
C219	C	1.572242	0.609445	0.968888
C220	C	0.905408	-0.251681	0.139344
C221	C	1.238742	0.081652	0.472677
C222	C	1.572075	0.414985	0.806010
C223	C	0.905508	-0.251538	0.069703
C224	C	1.238841	0.081795	0.403036
C225	C	1.572174	0.415128	0.736369
C226	C	0.945596	-0.218245	0.567943
C227	C	1.278929	0.115089	0.901277
C228	C	1.612263	0.448422	1.234610
C229	C	0.945595	-0.218222	0.633379
C230	C	1.278928	0.115111	0.966712
C231	C	1.612262	0.448444	1.300046
C232	C	0.905503	-0.251658	0.666064
C233	C	1.238836	0.081676	0.999398
C234	C	1.572170	0.415009	1.332731
C235	C	0.865398	-0.285108	0.633309
C236	C	1.198731	0.048225	0.966642
C237	C	1.532064	0.381558	1.299975
C238	C	0.865395	-0.285126	0.567875
C239	C	1.198729	0.048207	0.901208
C240	C	1.532062	0.381540	1.234541
C241	C	0.900525	-0.298736	0.769720
C242	C	1.233859	0.034597	1.103054
C243	C	1.567192	0.367931	1.436387
C244	C	0.900532	-0.298719	0.835153
C245	C	1.233865	0.034614	1.168487
C246	C	1.567199	0.367947	1.501820
C247	C	0.905507	-0.251602	0.867885
C248	C	1.238840	0.081731	1.201218
C249	C	1.572174	0.415064	1.534552
C250	C	0.910488	-0.204501	0.835176
C251	C	1.243822	0.128832	1.168509
C252	C	1.577155	0.462166	1.501843
C253	C	0.910486	-0.204519	0.769742
C254	C	1.243819	0.128814	1.103075
C255	C	1.577153	0.462148	1.436408
C256	C	0.905501	-0.251642	0.737017
C257	C	1.238834	0.081692	1.070350
C258	C	1.572168	0.415025	1.403683
C259	C	0.945606	-0.218127	0.971585
C260	C	1.278939	0.115207	1.304919
C261	C	1.612273	0.448540	1.638252
C262	C	0.945601	-0.218103	1.037022
C263	C	1.278934	0.115230	1.370355
C264	C	1.612267	0.448563	1.703689
C265	C	0.865407	-0.284994	1.036951
C266	C	1.198740	0.048339	1.370284
C267	C	1.532073	0.381672	1.703617
C268	C	0.865409	-0.285013	0.971515
C269	C	1.198742	0.048320	1.304849
C270	C	1.532075	0.381654	1.638182
C271	C	0.905512	-0.251580	0.938836
C272	C	1.238845	0.081753	1.272170
C273	C	1.572178	0.415087	1.605503
H274	H	0.666911	-0.190995	0.229493
H275	H	1.000244	0.142338	0.562826
H276	H	1.333578	0.475672	0.896159
C277	C	0.336920	-0.242899	0.183631
C278	C	0.670253	0.090434	0.516965
C279	C	1.003586	0.423767	0.850298
H280	H	0.365743	-0.240399	0.150008
H281	H	0.699076	0.092935	0.483342
H282	H	1.032410	0.426268	0.816675
H283	H	0.311351	-0.272852	0.178058
H284	H	0.644684	0.060481	0.511391
H285	H	0.978017	0.393815	0.844724
H286	H	0.311433	-0.212586	0.184530
H287	H	0.644766	0.120747	0.517864
H288	H	0.978100	0.454081	0.851197
H289	H	0.978052	-0.549681	0.374912
H290	H	1.311385	-0.216348	0.708246
H291	H	1.644719	0.116985	1.041579
C292	C	0.474326	-0.242897	0.183584
C293	C	0.807659	0.090437	0.516917
C294	C	1.140992	0.423770	0.850250
H295	H	0.445435	-0.240392	0.149980
H296	H	0.778768	0.092941	0.483313
H297	H	1.112101	0.426275	0.816646
H298	H	0.499878	-0.212588	0.184481
H299	H	0.833211	0.120745	0.517814
H300	H	1.166545	0.454079	0.851147
H301	H	0.499820	-0.272852	0.177979
H302	H	0.833153	0.060481	0.511312
H303	H	1.166486	0.393815	0.844645
C304	C	1.029596	-0.693928	0.426523
C305	C	1.362929	-0.360595	0.759856
C306	C	1.696262	-0.027261	1.093190
H307	H	1.023855	-0.657505	0.420773
H308	H	1.357189	-0.324172	0.754106
H309	H	1.690522	0.009161	1.087440
H310	H	1.020405	-0.702868	0.468608
H311	H	1.353738	-0.369535	0.801942
H312	H	1.687072	-0.036201	1.135275
H313	H	1.071703	-0.702843	0.417406
H314	H	1.405036	-0.369510	0.750739
H315	H	1.738370	-0.036177	1.084072
C316	C	0.895051	-0.350527	0.871127
C317	C	1.228384	-0.017194	1.204461
C318	C	1.561717	0.316140	1.537794
H319	H	0.892075	-0.378590	0.842263
H320	H	1.225408	-0.045256	1.175597
H321	H	1.558742	0.288077	1.508930
H322	H	0.930954	-0.355115	0.896679
H323	H	1.264288	-0.021782	1.230013
H324	H	1.597621	0.311551	1.563346
H325	H	0.858729	-0.349842	0.896626
H326	H	1.192062	-0.016508	1.229959
H327	H	1.525396	0.316825	1.563292
H328	H	0.978252	-0.190863	1.063684
H329	H	1.311585	0.142471	1.397017
H330	H	1.644919	0.475804	1.730351
C331	C	0.989635	-0.945159	0.386464
C332	C	1.322968	-0.611826	0.719797
C333	C	1.656302	-0.278492	1.053130
H334	H	1.013489	-0.969208	0.410364
H335	H	1.346822	-0.635874	0.743697
H336	H	1.680156	-0.302541	1.077031
H337	H	1.016942	-0.923839	0.362538
H338	H	1.350275	-0.590506	0.695871
H339	H	1.683608	-0.257172	1.029204
H340	H	0.965636	-0.923874	0.413733
H341	H	1.298969	-0.590541	0.747066
H342	H	1.632303	-0.257207	1.080399
H343	H	1.018192	-0.800794	0.415084
H344	H	1.351525	-0.467460	0.748418
H345	H	1.684858	-0.134127	1.081751
C346	C	0.821290	-0.321922	0.531848
C347	C	1.154623	0.011411	0.865181
C348	C	1.487956	0.344744	1.198515
H349	H	0.827029	-0.317143	0.488197
H350	H	1.160363	0.016191	0.821530
H351	H	1.493696	0.349524	1.154864
H352	H	0.830429	-0.357047	0.542574
H353	H	1.163763	-0.023714	0.875907
H354	H	1.497096	0.309619	1.209240
H355	H	0.779196	-0.314270	0.542540
H356	H	1.112529	0.019064	0.875873
H357	H	1.445863	0.352397	1.209206
H358	H	0.978257	-0.190901	0.944977
H359	H	1.311590	0.142433	1.278310
H360	H	1.644923	0.475766	1.611644
C361	C	0.272624	-0.181372	0.218204
C362	C	0.605958	0.151961	0.551538
C363	C	0.939291	0.485294	0.884871
H364	H	0.316281	-0.186172	0.223920
H365	H	0.649614	0.147162	0.557254
H366	H	0.982947	0.480495	0.890587
H367	H	0.261845	-0.188969	0.176092
H368	H	0.595178	0.144365	0.509426
H369	H	0.928512	0.477698	0.842759
H370	H	0.261954	-0.146251	0.227464
H371	H	0.595288	0.187083	0.560798
H372	H	0.928621	0.520416	0.894131
C373	C	0.989704	-0.181429	0.669412
C374	C	1.323037	0.151904	1.002745
C375	C	1.656370	0.485237	1.336078
H376	H	0.983958	-0.186206	0.713062
H377	H	1.317291	0.147128	1.046396
H378	H	1.650624	0.480461	1.379729
H379	H	1.031795	-0.189078	0.658719
H380	H	1.365128	0.144255	0.992052
H381	H	1.698461	0.477588	1.325385
H382	H	0.980560	-0.146301	0.658689
H383	H	1.313894	0.187032	0.992023
H384	H	1.647227	0.520365	1.325356
H385	H	0.978236	-1.052043	0.375010
H386	H	1.311569	-0.718709	0.708344
H387	H	1.644902	-0.385376	1.041677
H388	H	0.914540	-0.166167	0.743113
H389	H	1.247874	0.167166	1.076446
H390	H	1.581207	0.500499	1.409779
C391	C	0.821473	-1.060066	0.217964
C392	C	1.154807	-0.726733	0.551298
C393	C	1.488140	-0.393400	0.884631
H394	H	0.797612	-1.036018	0.194071
H395	H	1.130946	-0.702684	0.527404
H396	H	1.464279	-0.369351	0.860738
H397	H	0.845457	-1.081361	0.190698
H398	H	1.178791	-0.748027	0.524031
H399	H	1.512124	-0.414694	0.857365
H400	H	0.794164	-1.081377	0.241906
H401	H	1.127497	-0.748044	0.575239
H402	H	1.460831	-0.414711	0.908572
C403	C	0.538861	-0.322031	0.386104
C404	C	0.872195	0.011302	0.719437
C405	C	1.205528	0.344636	1.052771
H406	H	0.567718	-0.341975	0.409919
H407	H	0.901051	-0.008641	0.743253
H408	H	1.234384	0.324692	1.076586
H409	H	0.513409	-0.302032	0.413446
H410	H	0.846742	0.031301	0.746779
H411	H	1.180075	0.364634	1.080113
H412	H	0.513263	-0.344789	0.362120
H413	H	0.846596	-0.011455	0.695453
H414	H	1.179929	0.321878	1.028786
H415	H	0.792752	-0.801124	0.189267
H416	H	1.126086	-0.467790	0.522601
H417	H	1.459419	-0.134457	0.855934
H418	H	0.465203	-0.259338	0.404516
H419	H	0.798536	0.073996	0.737850
H420	H	1.131870	0.407329	1.071183
H421	H	0.832760	-0.312253	0.944852
H422	H	1.166094	0.021080	1.278185
H423	H	1.499427	0.354413	1.611518
H424	H	0.978025	-0.450631	0.374873
H425	H	1.311358	-0.117297	0.708206
H426	H	1.644692	0.216036	1.041539
H427	H	0.666919	-0.312519	0.374595
H428	H	1.000252	0.020814	0.707928
H429	H	1.333585	0.354148	1.041261
C430	C	0.337164	-0.260509	0.420690
C431	C	0.670497	0.072824	0.754024
C432	C	1.003830	0.406158	1.087357
H433	H	0.293499	-0.259895	0.412624
H434	H	0.626833	0.073438	0.745958
H435	H	0.960166	0.406772	1.079291
H436	H	0.347868	-0.292365	0.440648
H437	H	0.681201	0.040969	0.773982
H438	H	1.014534	0.374302	1.107315
H439	H	0.347955	-0.232097	0.447106
H440	H	0.681289	0.101236	0.780439
H441	H	1.014622	0.434569	1.113773
C442	C	0.989702	-0.181466	0.532000
C443	C	1.323036	0.151867	0.865334
C444	C	1.656369	0.485201	1.198667
H445	H	1.013579	-0.161539	0.560879
H446	H	1.346913	0.171795	0.894213
H447	H	1.680246	0.505128	1.227546
H448	H	1.016985	-0.201467	0.506489
H449	H	1.350318	0.131866	0.839823
H450	H	1.683651	0.465199	1.173156
H451	H	0.965748	-0.158692	0.506463
H452	H	1.299081	0.174641	0.839796
H453	H	1.632415	0.507974	1.173130
C454	C	0.821428	-0.945415	0.217941
C455	C	1.154762	-0.612081	0.551274
C456	C	1.488095	-0.278748	0.884607
H457	H	0.797593	-0.969535	0.194049
H458	H	1.130927	-0.636202	0.527383
H459	H	1.464260	-0.302868	0.860716
H460	H	0.794105	-0.924127	0.241863
H461	H	1.127438	-0.590794	0.575197
H462	H	1.460772	-0.257460	0.908530
H463	H	0.845406	-0.924107	0.190663
H464	H	1.178739	-0.590774	0.523997
H465	H	1.512072	-0.257440	0.857330
C466	C	0.781271	-0.694289	0.177789
C467	C	1.114605	-0.360956	0.511122
C468	C	1.447938	-0.027623	0.844455
H469	H	0.757431	-0.718408	0.153899
H470	H	1.090764	-0.385074	0.487233
H471	H	1.424098	-0.051741	0.820566
H472	H	0.753953	-0.673000	0.201716
H473	H	1.087286	-0.339667	0.535049
H474	H	1.420620	-0.006334	0.868382
H475	H	0.805246	-0.672982	0.150509
H476	H	1.138580	-0.339649	0.483842
H477	H	1.471913	-0.006315	0.817176
C478	C	0.821310	-0.321776	1.072897
C479	C	1.154644	0.011557	1.406230
C480	C	1.487977	0.344891	1.739563
H481	H	0.827057	-0.316978	1.116558
H482	H	1.160391	0.016355	1.449891
H483	H	1.493724	0.349688	1.783224
H484	H	0.779217	-0.314139	1.062145
H485	H	1.112550	0.019195	1.395478
H486	H	1.445884	0.352528	1.728811
H487	H	0.830461	-0.356908	1.062172
H488	H	1.163795	-0.023574	1.395506
H489	H	1.497128	0.309759	1.728839
C490	C	0.135216	-0.181340	0.218258
C491	C	0.468549	0.151993	0.551592
C492	C	0.801883	0.485326	0.884925
H493	H	0.091560	-0.186129	0.224000
H494	H	0.424894	0.147204	0.557333
H495	H	0.758227	0.480538	0.890666
H496	H	0.145999	-0.146226	0.227511
H497	H	0.479332	0.187107	0.560845
H498	H	0.812665	0.520441	0.894178
H499	H	0.145879	-0.188940	0.176134
H500	H	0.479212	0.144393	0.509468
H501	H	0.812546	0.477727	0.842801
H502	H	0.832730	-0.549911	0.229314
H503	H	1.166064	-0.216578	0.562647
H504	H	1.499397	0.116756	0.895980
C505	C	0.894916	-0.350558	0.733721
C506	C	1.228249	-0.017224	1.067055
C507	C	1.561583	0.316109	1.400388
H508	H	0.891917	-0.378603	0.762572
H509	H	1.225251	-0.045270	1.095905
H510	H	1.558584	0.288064	1.429238
H511	H	0.858564	-0.349817	0.708219
H512	H	1.191897	-0.016483	1.041553
H513	H	1.525230	0.316850	1.374886
H514	H	0.930775	-0.355224	0.708171
H515	H	1.264108	-0.021890	1.041504
H516	H	1.597442	0.311443	1.374838
H517	H	0.144576	-0.312424	0.374792
H518	H	0.477909	0.020910	0.708125
H519	H	0.811242	0.354243	1.041458
H520	H	0.832698	-0.450845	0.229295
H521	H	1.166031	-0.117512	0.562628
H522	H	1.499365	0.215822	0.895961
H523	H	0.914540	-0.166134	0.861825
H524	H	1.247874	0.167199	1.195158
H525	H	1.581207	0.500533	1.528492
C526	C	0.821301	-0.321889	0.669260
C527	C	1.154634	0.011445	1.002593
C528	C	1.487967	0.344778	1.335926
H529	H	0.827050	-0.317092	0.712921
H530	H	1.160383	0.016241	1.046254
H531	H	1.493717	0.349575	1.379587
H532	H	0.779208	-0.314249	0.658509
H533	H	1.112541	0.019085	0.991843
H534	H	1.445875	0.352418	1.325176
H535	H	0.830448	-0.357021	0.658535
H536	H	1.163781	-0.023688	0.991868
H537	H	1.497115	0.309646	1.325201
C538	C	0.272637	-0.322015	0.386168
C539	C	0.605970	0.011319	0.719501
C540	C	0.939304	0.344652	1.052834
H541	H	0.316293	-0.317230	0.380421
H542	H	0.649626	0.016103	0.713754
H543	H	0.982959	0.349437	1.047088
H544	H	0.261971	-0.314411	0.428286
H545	H	0.595304	0.018923	0.761619
H546	H	0.928637	0.352256	1.094953
H547	H	0.261859	-0.357134	0.376920
H548	H	0.595192	-0.023800	0.710253
H549	H	0.928525	0.309533	1.043586
C550	C	0.538852	-0.181415	0.218108
C551	C	0.872186	0.151919	0.551441
C552	C	1.205519	0.485252	0.884775
H553	H	0.495197	-0.186207	0.223845
H554	H	0.828530	0.147126	0.557179
H555	H	1.161864	0.480460	0.890512
H556	H	0.549629	-0.146298	0.227356
H557	H	0.882962	0.187035	0.560689
H558	H	1.216295	0.520369	0.894023
H559	H	0.549521	-0.189018	0.175987
H560	H	0.882854	0.144315	0.509320
H561	H	1.216188	0.477648	0.842653
