data_functionalizedCrystal
_audit_creation_method	'MofGen! by Chris Wilmer'
_symmetry_space_group_name_H-M	'P1'
_symmetry_Int_Tables_number	1
_symmetry_cell_setting	triclinic
loop_
_symmetry_equiv_pos_as_xyz
  x,y,z
_cell_length_a	17.638516
_cell_length_b	11.169417
_cell_length_c	11.169409
_cell_angle_alpha	89.978351
_cell_angle_beta	78.832453
_cell_angle_gamma	78.758652
loop_
_atom_site_label
_atom_site_type_symbol
_atom_site_fract_x
_atom_site_fract_y
_atom_site_fract_z
Zn1	Zn	-0.314650	-1.738206	0.775071
Zn2	Zn	-0.446854	-1.697441	0.614921
Zn3	Zn	-0.314692	-1.537479	0.574412
Zn4	Zn	-0.446784	-1.496867	0.815538
O5	O	-0.380745	-1.617498	0.694986
O6	O	-0.332199	-1.900744	0.753844
O7	O	-0.429370	-1.676158	0.441612
O8	O	-0.204077	-1.598162	0.567141
O9	O	-0.429329	-1.870795	0.636183
O10	O	-0.204046	-1.745635	0.714564
O11	O	-0.332271	-1.558634	0.411850
O12	O	-0.332202	-1.364145	0.606380
O13	O	-0.429209	-1.528945	0.978105
O14	O	-0.429250	-1.334308	0.783534
O15	O	-0.332131	-1.706255	0.948374
O16	O	-0.557454	-1.636779	0.675422
O17	O	-0.557402	-1.489417	0.822815
C18	C	-0.380724	-1.305680	0.694954
C19	C	-0.380733	-1.172277	0.694974
C20	C	-0.586108	-1.554300	0.757932
C21	C	-0.673963	-1.527374	0.784900
C22	C	-0.962905	-1.822777	0.490198
C23	C	-1.045458	-1.797455	0.515559
C24	C	-1.045448	-1.643879	0.668917
C25	C	-0.962894	-1.669184	0.643565
C26	C	-0.921628	-1.758636	0.554205
C27	C	-0.921617	-1.605042	0.707572
C28	C	-0.839069	-1.630351	0.682226
C29	C	-0.797798	-1.719800	0.592872
C30	C	-0.839080	-1.783944	0.528859
C31	C	-0.962884	-1.515597	0.796937
C32	C	-0.921608	-1.451456	0.860944
C33	C	-0.839058	-1.476757	0.835592
C34	C	-0.797787	-1.566207	0.746239
C35	C	-0.797776	-1.412614	0.899606
C36	C	-0.715228	-1.437922	0.874260
C37	C	-0.715239	-1.591515	0.720893
C38	C	-0.174580	-1.680975	0.631820
C39	C	-0.086725	-1.708026	0.604903
C40	C	-0.380657	-1.617617	1.008001
C41	C	-0.380620	-1.617668	1.141390
C42	C	-0.380759	-0.930536	0.695008
C43	C	-0.380746	-1.063940	0.694991
C44	C	-0.380775	-1.617466	0.383170
C45	C	-0.380590	-1.617716	0.249714
H46	H	-0.681640	-1.664347	0.648118
Cl47	Cl	-1.066659	-1.483282	0.828299
Cl48	Cl	-0.849662	-1.300179	1.011953
Cl49	Cl	-0.911022	-1.935210	0.377835
H50	H	-0.955217	-1.378627	0.933704
H51	H	-0.681621	-1.385692	0.926383
Cl52	Cl	-1.097346	-1.878102	0.435083
H53	H	-0.730582	-1.740408	0.572241
H54	H	-0.805480	-1.856776	0.456084
H55	H	-1.079058	-1.571050	0.741677
