data_functionalizedCrystal
_audit_creation_method	'MofGen! by Chris Wilmer'
_symmetry_space_group_name_H-M	'P1'
_symmetry_Int_Tables_number	1
_symmetry_cell_setting	triclinic
loop_
_symmetry_equiv_pos_as_xyz
  x,y,z
_cell_length_a	16.704493
_cell_length_b	20.875492
_cell_length_c	20.875625
_cell_angle_alpha	60.168684
_cell_angle_beta	88.808115
_cell_angle_gamma	55.807691
loop_
_atom_site_label
_atom_site_type_symbol
_atom_site_fract_x
_atom_site_fract_y
_atom_site_fract_z
Zr1	Zr	0.714451	0.740634	-0.164309
O2	O	0.570528	0.881799	-0.265713
O3	O	0.765237	0.599470	-0.128513
O4	O	0.746963	0.740635	-0.268624
O5	O	0.595634	0.740632	-0.020439
O6	O	0.878556	0.740634	-0.276278
O7	O	0.588802	0.740634	-0.125603
O8	O	0.911244	0.488116	-0.025646
O9	O	0.562945	0.993151	-0.271071
O10	O	0.877049	0.657531	-0.124650
O11	O	0.783942	0.657530	-0.040455
O12	O	0.762427	0.823734	-0.205417
O13	O	0.669319	0.823733	-0.121223
Zr14	Zr	0.935222	0.740628	-0.008794
Zr15	Zr	0.924326	0.740632	-0.176517
Zr16	Zr	0.725347	0.740630	0.003414
Zr17	Zr	0.702358	0.918226	-0.172855
Zr18	Zr	0.947316	0.563036	-0.000248
O19	O	0.884436	0.881792	-0.044590
O20	O	0.868943	0.881796	-0.283071
O21	O	0.586021	0.881795	-0.027232
O22	O	1.079146	0.599463	0.092610
O23	O	1.063653	0.599467	-0.145871
O24	O	0.780730	0.599466	0.109968
O25	O	1.054040	0.740630	-0.152664
O26	O	0.902710	0.740627	0.095520
O27	O	0.771117	0.740628	0.103175
O28	O	1.060872	0.740628	-0.047501
O29	O	0.729768	0.993149	-0.280775
O30	O	0.919905	0.488113	0.107672
O31	O	1.086728	0.488111	0.097968
O32	O	1.078067	0.488114	-0.035349
O33	O	0.571606	0.993148	-0.137754
O34	O	0.738429	0.993146	-0.147457
O35	O	0.887247	0.657528	0.032314
O36	O	0.980354	0.657529	-0.051880
O37	O	0.865732	0.823732	-0.132648
O38	O	0.772624	0.823731	-0.048453
C39	C	0.839964	0.518490	-0.075862
C40	C	0.845098	0.443097	-0.072234
C41	C	0.767068	0.469045	-0.127213
C42	C	0.771892	0.398219	-0.123832
C43	C	0.854743	0.301445	-0.065469
C44	C	0.932781	0.275497	-0.010487
C45	C	0.927959	0.346323	-0.013871
C46	C	0.877792	0.083043	-0.049272
C47	C	0.882606	0.012217	-0.045890
C48	C	0.721718	0.134944	-0.159237
C49	C	0.716900	0.205765	-0.162614
C50	C	0.794940	0.179811	-0.107635
N51	N	0.859675	0.229048	-0.062010
N52	N	0.790012	0.252208	-0.111097
C53	C	0.562315	0.740633	-0.071282
C54	C	0.473217	0.740634	-0.066099
C55	C	0.298276	0.740621	-0.172237
C56	C	0.214561	0.740622	-0.167371
C57	C	0.222075	0.740630	-0.051498
C58	C	0.305790	0.740629	-0.056364
C59	C	0.343887	0.740626	-0.116736
C60	C	0.427599	0.740632	-0.121605
C61	C	0.435116	0.740633	-0.005730
C62	C	0.351401	0.740634	-0.000863
C63	C	1.087359	0.740628	-0.101821
C64	C	1.176456	0.740628	-0.107004
C65	C	0.811207	0.740635	-0.296348
C66	C	0.806582	0.740637	-0.367550
C67	C	0.809710	0.962772	-0.097241
C68	C	0.804576	1.038165	-0.100869
C69	C	0.876903	0.740637	-0.405218
C70	C	0.872560	0.740630	-0.472117
C71	C	0.797890	0.740629	-0.501349
C72	C	0.727565	0.740625	-0.463675
C73	C	0.731914	0.740626	-0.396774
C74	C	0.777115	0.740622	-0.700978
C75	C	0.772770	0.740625	-0.767885
C76	C	0.917767	0.740628	-0.776321
C77	C	0.922105	0.740634	-0.709422
C78	C	0.851784	0.740625	-0.671751
N79	N	0.793447	0.740625	-0.569732
N80	N	0.856232	0.740622	-0.603366
C81	C	0.838466	0.740627	0.123244
C82	C	0.843092	0.740625	0.194447
C83	C	1.102486	0.518487	-0.091132
C84	C	1.196717	0.443094	-0.092686
C85	C	0.853593	0.518486	0.133934
C86	C	0.863353	0.443092	0.208765
C87	C	1.116115	0.518483	0.118664
C88	C	1.214972	0.443088	0.188313
C89	C	0.533558	0.962779	-0.291767
C90	C	0.434701	1.038174	-0.361416
C91	C	0.547188	0.962775	-0.081971
C92	C	0.452956	1.038168	-0.080417
C93	C	0.796080	0.962776	-0.307037
C94	C	0.786321	1.038170	-0.381868
C95	C	1.187045	0.407689	-0.131408
C96	C	1.275576	0.336859	-0.132885
C97	C	1.373778	0.301429	-0.095633
C98	C	1.383448	0.336841	-0.056910
C99	C	1.294918	0.407675	-0.055439
C100	C	0.921861	0.407684	0.281899
C101	C	0.931027	0.336854	0.352216
C102	C	0.881691	0.301426	0.349399
C103	C	0.823176	0.336840	0.276257
C104	C	0.814004	0.407675	0.205941
C105	C	1.310007	0.407682	0.177071
C106	C	1.402900	0.336851	0.242506
C107	C	1.400758	0.301421	0.319182
C108	C	1.305713	0.336834	0.330422
C109	C	1.212821	0.407669	0.264988
C110	C	0.339666	1.073588	-0.350175
C111	C	0.246771	1.144442	-0.415611
C112	C	0.248913	1.179875	-0.492286
C113	C	0.343958	1.144458	-0.503526
C114	C	0.436851	1.073610	-0.438092
C115	C	0.462628	1.073580	-0.041702
C116	C	0.374095	1.144430	-0.040245
C117	C	0.275891	1.179862	-0.077499
C118	C	0.266222	1.144447	-0.116219
C119	C	0.354753	1.073604	-0.117680
C120	C	0.835670	1.073575	-0.379025
C121	C	0.826520	1.144407	-0.449331
C122	C	0.768014	1.179837	-0.522479
C123	C	0.718664	1.144425	-0.525320
C124	C	0.727820	1.073590	-0.455015
H125	H	0.950075	-0.066585	0.001641
C126	C	0.346298	1.183436	-0.587877
N127	N	0.348057	1.212790	-0.651411
H128	H	1.463417	0.307983	-0.026582
C129	C	0.675925	0.575496	-0.191419
N130	N	0.607276	0.655675	-0.239783
H131	H	0.937704	0.740644	-0.381425
C132	C	0.995124	0.740626	-0.817759
N133	N	1.053395	0.740619	-0.848967
C134	C	1.507439	0.297901	0.230125
N135	N	1.586175	0.268563	0.220797
H136	H	0.687628	1.044771	-0.457341
C137	C	0.963635	0.054482	0.011211
N138	N	1.028296	0.032970	0.056770
C139	C	0.699634	0.740794	-0.659637
N140	N	0.641226	0.740988	-0.628527
H141	H	0.978679	0.308028	0.411763
H142	H	1.303984	0.307977	0.392860
H143	H	1.107090	0.436536	-0.161753
C144	C	0.686037	0.426770	-0.184300
N145	N	0.621362	0.448279	-0.229843
H146	H	0.649447	0.284560	-0.210152
C147	C	1.108287	0.446606	0.277367
N148	N	1.029553	0.475931	0.286697
H149	H	0.381988	1.173253	-0.008712
C150	C	0.541387	1.034650	-0.450470
N151	N	0.620123	1.005308	-0.459799
C152	C	0.142233	1.183386	-0.403229
N153	N	0.063498	1.212717	-0.393901
C154	C	0.891801	0.223497	0.426756
N155	N	0.899425	0.164796	0.485024
H156	H	0.346865	1.044773	-0.149203
H157	H	0.883311	1.044739	-0.319471
H158	H	0.991499	0.325189	0.030899
H159	H	0.760566	1.237515	-0.579720
C160	C	1.305576	0.446602	-0.012830
N161	N	1.313612	0.475918	0.019266
H162	H	0.542582	1.044736	-0.011360
H163	H	0.337903	1.044743	-0.287747
C164	C	0.309511	0.740600	0.065561
N165	N	0.277967	0.740564	0.115598
H166	H	1.476404	0.243743	0.372456
H167	H	0.203812	1.237548	-0.076303
H168	H	0.186253	1.173307	-0.146549
H169	H	0.929822	0.740630	-0.502786
H170	H	0.671028	1.173283	-0.584887
C171	C	0.635885	0.163483	-0.219715
N172	N	0.571235	0.184981	-0.265272
C173	C	1.023918	0.169043	0.053714
N174	N	1.092563	0.088860	0.102074
H175	H	0.472259	0.740642	0.039461
H176	H	0.674651	0.740623	-0.366105
C177	C	0.469506	0.740625	-0.188014
N178	N	0.501072	0.740615	-0.238033
C179	C	0.340180	0.740623	-0.238649
N180	N	0.371741	0.740624	-0.288672
C181	C	1.471156	0.223503	-0.097252
N182	N	1.544498	0.164805	-0.098471
C183	C	0.146719	1.257802	-0.564259
N184	N	0.069744	1.316493	-0.618465
C185	C	1.004253	0.740628	-0.677268
N186	N	1.066128	0.740624	-0.653050
C187	C	0.690626	0.740619	-0.800037
N188	N	0.628758	0.740615	-0.824254
C189	C	0.768917	0.297855	0.273171
N190	N	0.728056	0.268484	0.270849
C191	C	0.645436	0.740611	-0.495827
N192	N	0.583575	0.740599	-0.520042
C193	C	1.264916	0.297911	-0.175476
N194	N	1.256885	0.268575	-0.207553
H195	H	0.191052	0.740623	-0.002340
H196	H	0.177428	0.740616	-0.212564
C197	C	0.749652	0.446605	0.125496
N198	N	0.701180	0.475922	0.064906
H199	H	0.962038	0.436521	0.284208
H200	H	1.311771	0.436518	0.114644
C201	C	0.880808	1.183351	-0.446187
N202	N	0.921696	1.212682	-0.443817
