data_functionalizedCrystal
_audit_creation_method	'MofGen! by Chris Wilmer'
_symmetry_space_group_name_H-M	'P1'
_symmetry_Int_Tables_number	1
_symmetry_cell_setting	triclinic
loop_
_symmetry_equiv_pos_as_xyz
  x,y,z
_cell_length_a	13.033293
_cell_length_b	13.897447
_cell_length_c	13.033429
_cell_angle_alpha	82.783407
_cell_angle_beta	90.866667
_cell_angle_gamma	97.189355
loop_
_atom_site_label
_atom_site_type_symbol
_atom_site_fract_x
_atom_site_fract_y
_atom_site_fract_z
Zn1	Zn	1.498530	-0.116815	-0.781533
Zn2	Zn	1.998530	0.383185	-0.281533
Zn3	Zn	1.520250	-0.295766	-0.609551
Zn4	Zn	2.020250	0.204234	-0.109551
Zn5	Zn	1.348371	-0.157180	-0.587697
Zn6	Zn	1.848371	0.342820	-0.087697
Zn7	Zn	1.326515	-0.300788	-0.759600
Zn8	Zn	1.826515	0.199212	-0.259600
O9	O	1.423417	-0.217637	-0.684595
O10	O	1.923417	0.282363	-0.184595
O11	O	1.645333	-0.121559	-0.777044
O12	O	2.145333	0.378441	-0.277044
O13	O	1.515687	-0.292174	-0.462735
O14	O	2.015687	0.207826	0.037265
O15	O	1.368347	-0.016833	-0.613442
O16	O	1.868347	0.483167	-0.113442
O17	O	1.661290	-0.253034	-0.650689
O18	O	2.161290	0.246966	-0.150689
O19	O	1.478668	0.012823	-0.755852
O20	O	1.978668	0.512823	-0.255852
O21	O	1.389408	-0.190355	-0.446678
O22	O	1.889408	0.309645	0.053322
O23	O	1.201551	-0.195224	-0.592175
O24	O	1.701551	0.304776	-0.092175
O25	O	1.331096	-0.261592	-0.906427
O26	O	1.831096	0.238408	-0.406427
O27	O	1.185493	-0.300732	-0.718472
O28	O	1.685493	0.199268	-0.218472
O29	O	1.457475	-0.126428	-0.922540
O30	O	1.957475	0.373572	-0.422540
O31	O	1.494494	-0.431424	-0.629423
O32	O	1.994494	0.068576	-0.129423
O33	O	1.352157	-0.435114	-0.739663
O34	O	1.852157	0.064886	-0.239663
C35	C	1.156205	-0.252903	-0.650573
C36	C	1.656205	0.247097	-0.150573
C37	C	1.041887	-0.268011	-0.636042
C38	C	1.541887	0.231989	-0.136042
C39	C	0.983013	-0.209777	-0.692179
C40	C	1.483013	0.290223	-0.192179
C41	C	0.864859	-0.225390	-0.677162
C42	C	1.364859	0.274610	-0.177162
C43	C	1.423336	-0.468265	-0.684561
C44	C	1.923336	0.031735	-0.184561
C45	C	1.423391	-0.575469	-0.684592
C46	C	1.923391	-0.075469	-0.184592
C47	C	1.423438	-0.662529	-0.684622
C48	C	1.923438	-0.162529	-0.184622
C49	C	1.423507	-0.771750	-0.684658
C50	C	1.923507	-0.271750	-0.184658
C51	C	1.691672	-0.182234	-0.718751
C52	C	2.191672	0.317766	-0.218751
C53	C	1.805987	-0.167147	-0.733306
C54	C	2.305987	0.332853	-0.233306
C55	C	1.389425	-0.190068	-0.952843
C56	C	1.889425	0.309932	-0.452843
C57	C	1.374940	-0.178319	-1.067155
C58	C	1.874940	0.321681	-0.567155
C59	C	1.423523	0.033975	-0.684656
C60	C	1.923523	0.533975	-0.184656
C61	C	1.423568	0.141198	-0.684682
C62	C	1.923568	0.641198	-0.184682
C63	C	1.415998	-0.211330	-1.244206
C64	C	1.915998	0.288670	-0.744206
C65	C	1.430969	-0.223468	-1.126059
C66	C	1.930969	0.276532	-0.626059
C67	C	1.457335	-0.245022	-0.417398
C68	C	1.957335	0.254978	0.082602
C69	C	1.472020	-0.256472	-0.303113
C70	C	1.972020	0.243528	0.196887
H71	H	1.004820	-0.329425	-0.576863
H72	H	1.504820	0.170575	-0.076863
C73	C	1.287348	-0.107602	-1.217133
C74	C	1.787348	0.392398	-0.717133
C75	C	1.336285	-0.147022	-1.294190
C76	C	1.836285	0.352978	-0.794190
H77	H	1.238141	-0.067896	-1.247991
H78	H	1.738141	0.432104	-0.747991
H79	H	1.253263	-0.159097	-1.170214
H80	H	1.753263	0.340903	-0.670214
H81	H	1.337455	-0.069063	-1.180945
H82	H	1.837455	0.430937	-0.680945
H83	H	1.286179	-0.185567	-1.330373
H84	H	1.786179	0.314433	-0.830373
H85	H	1.370371	-0.095519	-1.341127
H86	H	1.870371	0.404481	-0.841127
C87	C	1.140405	-0.127448	-0.771484
C88	C	1.640405	0.372552	-0.271484
C89	C	1.033041	-0.126866	-0.772071
C90	C	1.533041	0.373134	-0.272071
H91	H	1.171286	-0.076264	-0.820813
H92	H	1.671286	0.423736	-0.320813
H93	H	1.166693	-0.118025	-0.704631
H94	H	1.666693	0.381975	-0.204631
H95	H	1.156048	-0.188448	-0.788629
H96	H	1.656048	0.311552	-0.288629
H97	H	1.017398	-0.065868	-0.754919
H98	H	1.517398	0.434132	-0.254919
H99	H	1.006744	-0.136282	-0.838939
H100	H	1.506744	0.363718	-0.338939
C101	C	0.745729	-0.372488	-0.647371
C102	C	1.245729	0.127512	-0.147371
C103	C	0.814837	-0.308310	-0.597269
C104	C	1.314837	0.191690	-0.097269
H105	H	0.714853	-0.423681	-0.598049
H106	H	1.214853	0.076319	-0.098049
H107	H	0.693488	-0.337975	-0.680632
H108	H	1.193488	0.162025	-0.180632
H109	H	0.781985	-0.399347	-0.697400
H110	H	1.281985	0.100653	-0.197400
H111	H	0.778580	-0.281446	-0.547245
H112	H	1.278580	0.218554	-0.047245
H113	H	0.867087	-0.342828	-0.563991
H114	H	1.367087	0.157172	-0.063991
H115	H	1.490024	-0.271100	-1.089029
H116	H	1.990024	0.228900	-0.589029
H117	H	0.843049	-0.105723	-0.792483
H118	H	1.343049	0.394277	-0.292483
H119	H	1.315894	-0.130677	-1.104185
H120	H	1.815894	0.369323	-0.604185
H121	H	1.531070	-0.304101	-1.266078
H122	H	2.031070	0.195899	-0.766078
