data_functionalizedCrystal
_audit_creation_method	'MofGen! by Chris Wilmer'
_symmetry_space_group_name_H-M	'P1'
_symmetry_Int_Tables_number	1
_symmetry_cell_setting	triclinic
loop_
_symmetry_equiv_pos_as_xyz
  x,y,z
_cell_length_a	18.215407
_cell_length_b	16.959454
_cell_length_c	18.215398
_cell_angle_alpha	89.978830
_cell_angle_beta	89.980536
_cell_angle_gamma	90.020523
loop_
_atom_site_label
_atom_site_type_symbol
_atom_site_fract_x
_atom_site_fract_y
_atom_site_fract_z
Zn1	Zn	1.125094	-0.314700	-0.416138
Zn2	Zn	1.625094	0.185300	0.083862
Zn3	Zn	1.125013	-0.446879	-0.293080
Zn4	Zn	1.625013	0.053121	0.206920
Zn5	Zn	1.002027	-0.314720	-0.293085
Zn6	Zn	1.502027	0.185280	0.206915
Zn7	Zn	1.002003	-0.446841	-0.416105
Zn8	Zn	1.502003	0.053159	0.083895
O9	O	1.063534	-0.380785	-0.354602
O10	O	1.563534	0.119215	0.145398
O11	O	1.228067	-0.332241	-0.399825
O12	O	1.728067	0.167759	0.100175
O13	O	1.108676	-0.429373	-0.190097
O14	O	1.608676	0.070627	0.309903
O15	O	1.018396	-0.204106	-0.309424
O16	O	1.518396	0.295894	0.190576
O17	O	1.228008	-0.429353	-0.309416
O18	O	1.728008	0.070647	0.190584
O19	O	1.108813	-0.204092	-0.399830
O20	O	1.608813	0.295908	0.100170
O21	O	1.018318	-0.332276	-0.190100
O22	O	1.518318	0.167724	0.309900
O23	O	0.899040	-0.332239	-0.309392
O24	O	1.399040	0.167761	0.190608
O25	O	1.018354	-0.429288	-0.519094
O26	O	1.518354	0.070712	-0.019094
O27	O	0.899022	-0.429308	-0.399775
O28	O	1.399022	0.070692	0.100225
O29	O	1.108789	-0.332204	-0.519118
O30	O	1.608789	0.167796	-0.019118
O31	O	1.108652	-0.557485	-0.309385
O32	O	1.608652	-0.057485	0.190615
O33	O	1.018276	-0.557457	-0.399770
O34	O	1.518276	-0.057457	0.100230
C35	C	0.872328	-0.380772	-0.354581
C36	C	1.372328	0.119228	0.145419
C37	C	0.790529	-0.380785	-0.354589
C38	C	1.290529	0.119215	0.145411
C39	C	0.602345	-0.431408	-0.401593
C40	C	1.102345	0.068592	0.098407
C41	C	0.525486	-0.431411	-0.401602
C42	C	1.025486	0.068589	0.098398
C43	C	0.525476	-0.330176	-0.307628
C44	C	1.025476	0.169824	0.192372
C45	C	0.602333	-0.330171	-0.307623
C46	C	1.102333	0.169829	0.192377
C47	C	0.640766	-0.380791	-0.354604
C48	C	1.140766	0.119209	0.145396
C49	C	0.487050	-0.380799	-0.354618
C50	C	0.987050	0.119201	0.145382
C51	C	0.403716	-0.380802	-0.354628
C52	C	0.903716	0.119198	0.145372
C53	C	0.724105	-0.380788	-0.354596
C54	C	1.224105	0.119212	0.145404
C55	C	1.063473	-0.586151	-0.354590
C56	C	1.563473	-0.086151	0.145410
C57	C	1.063514	-0.674008	-0.354609
C58	C	1.563514	-0.174008	0.145391
C59	C	1.016544	-1.045499	-0.401661
C60	C	1.516544	-0.545499	0.098339
C61	C	1.110729	-1.045468	-0.307618
C62	C	1.610729	-0.545468	0.192382
C63	C	1.110704	-0.962922	-0.307611
C64	C	1.610704	-0.462922	0.192389
C65	C	1.063597	-0.921661	-0.354629
C66	C	1.563597	-0.421661	0.145371
C67	C	1.016515	-0.962945	-0.401654
C68	C	1.516515	-0.462945	0.098346
C69	C	1.157779	-0.921632	-0.260582
C70	C	1.657779	-0.421632	0.239418
C71	C	1.157755	-0.839081	-0.260573
C72	C	1.657755	-0.339081	0.239427
C73	C	1.110651	-0.797818	-0.307595
C74	C	1.610651	-0.297818	0.192405
C75	C	1.063568	-0.839107	-0.354622
C76	C	1.563568	-0.339107	0.145378
C77	C	1.016461	-0.797846	-0.401640
C78	C	1.516461	-0.297846	0.098360
C79	C	0.969381	-0.839134	-0.448672
C80	C	1.469381	-0.339134	0.051328
C81	C	0.969411	-0.921683	-0.448676
C82	C	1.469411	-0.421683	0.051324
C83	C	1.110621	-0.715269	-0.307591
C84	C	1.610621	-0.215269	0.192409
C85	C	1.016432	-0.715292	-0.401634
C86	C	1.516432	-0.215292	0.098366
C87	C	1.255487	-0.380799	-0.354624
C88	C	1.755487	0.119201	0.145376
C89	C	1.337286	-0.380805	-0.354633
C90	C	1.837286	0.119195	0.145367
C91	C	1.063578	-0.380740	-0.546555
C92	C	1.563578	0.119260	-0.046555
C93	C	1.063596	-0.380720	-0.628354
C94	C	1.563596	0.119280	-0.128354
C95	C	1.063616	-0.174617	-0.354631
C96	C	1.563616	0.325383	0.145369
C97	C	1.063651	-0.086760	-0.354643
C98	C	1.563651	0.413240	0.145357
C99	C	1.110679	-0.431181	-0.893414
C100	C	1.610679	0.068819	-0.393414
C101	C	1.110668	-0.431209	-0.816556
C102	C	1.610668	0.068791	-0.316556
C103	C	1.016569	-0.330107	-0.816542
C104	C	1.516569	0.169893	-0.316542
C105	C	1.016577	-0.330084	-0.893400
C106	C	1.516577	0.169916	-0.393400
C107	C	1.063636	-0.380620	-0.931834
C108	C	1.563636	0.119380	-0.431834
C109	C	1.063617	-0.380670	-0.778118
C110	C	1.563617	0.119330	-0.278118
C111	C	1.063605	-0.380700	-0.694784
C112	C	1.563605	0.119300	-0.194784
C113	C	1.063648	-0.380592	-1.015173
C114	C	1.563648	0.119408	-0.515173
C115	C	1.063533	-0.380773	-0.163396
C116	C	1.563533	0.119227	0.336604
C117	C	1.063657	-0.380570	-0.081597
C118	C	1.563657	0.119430	0.418403
H119	H	0.931023	-0.805530	-0.486951
H120	H	1.431023	-0.305530	0.013049
H121	H	0.494174	-0.288964	-0.269376
H122	H	0.994174	0.211036	0.230624
C123	C	0.980755	-0.196271	-0.792889
C124	C	1.480755	0.303729	-0.292889
C125	C	0.964845	-0.274554	-0.774297
C126	C	1.464845	0.225446	-0.274297
H127	H	0.948819	-0.161975	-0.766813
H128	H	1.448819	0.338025	-0.266813
H129	H	1.030197	-0.184710	-0.780300
H130	H	1.530197	0.315290	-0.280300
H131	H	0.974028	-0.189034	-0.844163
H132	H	1.474028	0.310966	-0.344163
H133	H	0.971578	-0.281793	-0.723023
H134	H	1.471578	0.218207	-0.223023
H135	H	0.915391	-0.286119	-0.786881
H136	H	1.415391	0.213881	-0.286881
C137	C	0.439025	-0.537750	-0.411667
C138	C	0.939025	-0.037750	0.088333
C139	C	0.483252	-0.487051	-0.453251
C140	C	0.983252	0.012949	0.046749
H141	H	0.412949	-0.572097	-0.443556
H142	H	0.912949	-0.072097	0.056444
H143	H	0.468986	-0.567936	-0.379559
H144	H	0.968986	-0.067936	0.120441
H145	H	0.405138	-0.507597	-0.383691
H146	H	0.905138	-0.007597	0.116309
H147	H	0.517143	-0.517204	-0.481222
H148	H	1.017143	-0.017204	0.018778
H149	H	0.453289	-0.456862	-0.485371
H150	H	0.953289	0.043138	0.014629
H151	H	0.978266	-0.288910	-0.924682
H152	H	1.478266	0.211090	-0.424682
H153	H	0.633635	-0.472625	-0.439850
H154	H	1.133635	0.027375	0.060150
C155	C	1.120850	-0.537564	-0.730126
C156	C	1.620850	-0.037564	-0.230126
C157	C	1.162380	-0.486787	-0.774326
C158	C	1.662380	0.013213	-0.274326
H159	H	1.152777	-0.571880	-0.704060
H160	H	1.652777	-0.071880	-0.204060
H161	H	1.092833	-0.507471	-0.696237
H162	H	1.592833	-0.007471	-0.196237
H163	H	1.088782	-0.567786	-0.760109
H164	H	1.588782	-0.067786	-0.260109
H165	H	1.194444	-0.456561	-0.744342
H166	H	1.694444	0.043439	-0.244342
H167	H	1.190409	-0.516883	-0.808219
H168	H	1.690409	-0.016883	-0.308219
H169	H	0.978074	-0.681702	-0.439924
H170	H	1.478074	-0.181702	0.060076
H171	H	0.633616	-0.288947	-0.269359
H172	H	1.133616	0.211053	0.230641
H173	H	1.148997	-0.472332	-0.924705
H174	H	1.648997	0.027668	-0.424705
C175	C	0.980637	-1.070875	-0.526250
C176	C	1.480637	-0.570875	-0.026250
C177	C	0.964798	-1.090880	-0.453357
C178	C	1.464798	-0.590880	0.046643
H179	H	0.948693	-1.098896	-0.558164
H180	H	1.448693	-0.598896	-0.058164
H181	H	0.973874	-1.015813	-0.532966
H182	H	1.473874	-0.515813	-0.032966
H183	H	1.030085	-1.084361	-0.537057
H184	H	1.530085	-0.584361	-0.037057
H185	H	0.915351	-1.077388	-0.442549
H186	H	1.415351	-0.577388	0.057451
H187	H	0.971555	-1.145954	-0.446637
H188	H	1.471555	-0.645954	0.053363
C189	C	0.933499	-0.947079	-0.573263
C190	C	1.433499	-0.447079	-0.073263
C191	C	0.917664	-0.967070	-0.500366
C192	C	1.417664	-0.467070	-0.000366
H193	H	0.901554	-0.975107	-0.605171
H194	H	1.401554	-0.475107	-0.105171
H195	H	0.926736	-0.892019	-0.579988
H196	H	1.426736	-0.392019	-0.079988
H197	H	0.982947	-0.960567	-0.584069
H198	H	1.482947	-0.460567	-0.084069
H199	H	0.868218	-0.953577	-0.489557
H200	H	1.368218	-0.453577	0.010443
H201	H	0.924421	-1.022143	-0.493637
H202	H	1.424421	-0.522143	0.006363
C203	C	1.209726	-1.138267	-0.297455
C204	C	1.709726	-0.638267	0.202545
C205	C	1.162477	-1.090838	-0.255920
C206	C	1.662477	-0.590838	0.244080
H207	H	1.241668	-1.166279	-0.265531
H208	H	1.741668	-0.666279	0.234469
H209	H	1.181689	-1.174652	-0.325468
H210	H	1.681689	-0.674652	0.174532
H211	H	1.237875	-1.106032	-0.329525
H212	H	1.737875	-0.606032	0.170475
H213	H	1.134324	-1.123073	-0.223853
H214	H	1.634324	-0.623073	0.276147
H215	H	1.190517	-1.054449	-0.227894
H216	H	1.690517	-0.554449	0.272106
H217	H	1.196126	-0.955233	-0.222297
H218	H	1.696126	-0.455233	0.277703
H219	H	1.148949	-0.681656	-0.269295
H220	H	1.648949	-0.181656	0.230705
C221	C	1.250864	-0.847351	-0.167620
C222	C	1.750864	-0.347351	0.332380
C223	C	1.209510	-0.793701	-0.208885
C224	C	1.709510	-0.293701	0.291115
H225	H	1.282820	-0.819333	-0.135716
H226	H	1.782820	-0.319333	0.364284
H227	H	1.218827	-0.879581	-0.139440
H228	H	1.718827	-0.379581	0.360560
H229	H	1.279000	-0.879517	-0.199722
H230	H	1.779000	-0.379517	0.300278
H231	H	1.181370	-0.761539	-0.176784
H232	H	1.681370	-0.261539	0.323216
H233	H	1.241551	-0.761458	-0.237068
H234	H	1.741551	-0.261458	0.262932
