data_functionalizedCrystal
_audit_creation_method	'MofGen! by Chris Wilmer'
_symmetry_space_group_name_H-M	'P1'
_symmetry_Int_Tables_number	1
_symmetry_cell_setting	triclinic
loop_
_symmetry_equiv_pos_as_xyz
  x,y,z
_cell_length_a	17.699083
_cell_length_b	10.540539
_cell_length_c	16.776229
_cell_angle_alpha	89.995514
_cell_angle_beta	89.998886
_cell_angle_gamma	83.904253
loop_
_atom_site_label
_atom_site_type_symbol
_atom_site_fract_x
_atom_site_fract_y
_atom_site_fract_z
O1	O	1.005122	0.160520	-0.066173
O2	O	0.784880	0.181404	-0.066198
O3	O	0.900026	-0.013836	-0.066184
O4	O	0.889976	0.355761	-0.066187
O5	O	0.900010	-0.013848	0.066393
O6	O	0.784864	0.181392	0.066378
O7	O	1.005107	0.160508	0.066404
Zn8	Zn	0.894983	0.170948	0.087440
Zn9	Zn	0.895003	0.170964	-0.087235
O10	O	0.889961	0.355749	0.066389
C11	C	0.756670	0.180650	0.000087
C12	C	0.672637	0.178405	0.000077
C13	C	0.624761	0.293007	0.000076
C14	C	0.545804	0.290890	0.000086
C15	C	0.514725	0.174170	0.000092
C16	C	0.562607	0.059559	0.000095
C17	C	0.641562	0.061677	0.000090
C18	C	0.244188	0.051014	0.000115
C19	C	0.165226	0.048904	0.000117
C20	C	0.148430	0.280227	0.000111
C21	C	0.227386	0.282345	0.000106
C22	C	0.275261	0.167735	0.000113
C23	C	0.360875	0.170032	0.000104
C24	C	0.429112	0.171872	0.000096
C25	C	0.899264	-0.061131	0.000103
C26	C	0.897009	-0.202038	0.000098
C27	C	0.810610	-0.383885	-0.000209
C28	C	0.812896	-0.237308	0.000089
C29	C	0.937480	-0.264443	0.075811
C30	C	0.934609	-0.410935	0.075874
C31	C	0.936337	-0.411471	-0.074890
C32	C	0.937112	-0.264503	-0.075891
C33	C	1.033316	0.161263	0.000117
C34	C	1.117349	0.163508	0.000122
C35	C	0.890722	0.403044	0.000101
C36	C	0.892977	0.543951	0.000100
N37	N	0.894974	0.170937	0.206652
N38	N	0.895018	0.170966	-0.206446
C39	C	0.945977	0.084520	0.248375
C40	C	0.945981	0.084519	0.331827
C41	C	0.894986	0.170942	0.373555
C42	C	0.843978	0.257363	0.331825
C43	C	0.843971	0.257357	0.248375
C44	C	0.844005	0.257388	0.668372
C45	C	0.844018	0.257390	0.751829
C46	C	0.946016	0.084550	0.751825
C47	C	0.946009	0.084544	0.668374
C48	C	0.894998	0.170960	0.626652
C49	C	0.894993	0.170958	0.536164
C50	C	0.894994	0.170950	0.464041
H51	H	0.506826	0.384211	0.000085
H52	H	0.252686	0.377390	0.000098
H53	H	0.139925	-0.046149	0.000122
N54	N	0.789001	0.350611	0.623381
H55	H	0.796729	0.337500	0.564183
H56	H	0.735234	0.336069	0.637978
H57	H	0.987536	0.014174	0.634403
H58	H	0.283159	-0.042309	0.000121
N59	N	0.894972	-0.447572	0.150831
H60	H	0.841668	-0.402619	0.152103
H61	H	0.892768	-0.542918	0.151580
N62	N	1.000966	-0.008706	0.203364
H63	H	1.034735	0.039717	0.168727
H64	H	1.033224	-0.063441	0.242505
N65	N	0.096803	0.403858	0.000115
H66	H	0.063664	0.408151	-0.049027
H67	H	0.063724	0.408070	0.049298
H68	H	0.987549	0.014181	0.785804
N69	N	0.529090	-0.066335	0.000113
H70	H	0.471807	-0.050290	0.000116
H71	H	0.546557	-0.116478	-0.049031
H72	H	0.802438	0.327725	0.214404
N73	N	1.014733	-0.475948	0.080462
H74	H	1.013494	-0.571525	0.080543
H75	H	1.044662	-0.450477	0.032880
N76	N	1.019310	-0.236381	0.079540
H77	H	1.030961	-0.182810	0.032076
H78	H	1.027987	-0.188432	0.130275
N79	N	0.789009	0.350600	0.796838
H80	H	0.756690	0.405339	0.757745
H81	H	0.755302	0.302060	0.831470
N82	N	0.693204	-0.061928	0.000097
H83	H	0.661536	-0.136193	0.000101
H84	H	0.726330	-0.066089	-0.049050
H85	H	0.909354	-0.221334	0.132147
N86	N	0.900288	-0.452598	-0.150903
H87	H	0.882434	-0.374895	-0.183793
H88	H	0.938826	-0.509927	-0.182282
N89	N	0.788979	0.350575	0.376834
H90	H	0.798177	0.440647	0.362301
H91	H	0.735209	0.335957	0.362306
N92	N	0.897940	-0.209576	-0.150089
H93	H	0.854399	-0.144497	-0.134554
H94	H	0.935437	-0.167242	-0.183682
H95	H	0.998438	-0.241403	-0.080455
N96	N	0.770714	-0.180094	-0.071801
H97	H	0.795583	-0.217365	-0.121982
H98	H	0.716185	-0.200055	-0.069768
N99	N	0.766597	-0.420953	-0.072125
H100	H	0.799619	-0.484888	-0.105203
H101	H	0.719854	-0.460132	-0.053997
N102	N	0.766762	-0.423089	0.071295
H103	H	0.800020	-0.487393	0.103888
H104	H	0.750673	-0.345559	0.105039
H105	H	0.997092	-0.459808	-0.075392
N106	N	0.658280	0.418900	0.000061
H107	H	0.615967	0.491177	0.000063
H108	H	0.690677	0.424818	0.049205
H109	H	0.780815	-0.194971	0.054446
H110	H	0.987511	0.014151	0.365798
