data_functionalizedCrystal
_audit_creation_method	'MofGen! by Chris Wilmer'
_symmetry_space_group_name_H-M	'P1'
_symmetry_Int_Tables_number	1
_symmetry_cell_setting	triclinic
loop_
_symmetry_equiv_pos_as_xyz
  x,y,z
_cell_length_a	10.685980
_cell_length_b	12.827892
_cell_length_c	12.827885
_cell_angle_alpha	90.030166
_cell_angle_beta	94.395103
_cell_angle_gamma	94.382190
loop_
_atom_site_label
_atom_site_type_symbol
_atom_site_fract_x
_atom_site_fract_y
_atom_site_fract_z
Zn1	Zn	1.929245	-0.293547	0.713534
Zn2	Zn	1.929117	-0.468333	0.538785
Zn3	Zn	1.718217	-0.306991	0.525387
Zn4	Zn	1.718199	-0.481640	0.700072
O5	O	1.823694	-0.387628	0.619445
O6	O	2.105813	-0.305538	0.701593
O7	O	1.901094	-0.446988	0.390769
O8	O	1.746271	-0.158967	0.550372
O9	O	2.105719	-0.433952	0.573207
O10	O	1.901312	-0.149090	0.688602
O11	O	1.746147	-0.328450	0.380926
O12	O	1.541629	-0.341354	0.537319
O13	O	1.746241	-0.456632	0.848097
O14	O	1.541616	-0.469668	0.665659
O15	O	1.901295	-0.318441	0.857987
O16	O	1.901077	-0.616338	0.560154
O17	O	1.746117	-0.626115	0.678651
C18	C	1.495836	-0.408414	0.598575
C19	C	1.355577	-0.417332	0.589672
C20	C	1.823616	-0.659143	0.619420
C21	C	1.823697	-0.775291	0.619452
C22	C	1.900382	-0.822107	0.687908
C23	C	1.900468	-0.942151	0.687942
C24	C	2.152833	-0.366761	0.640396
C25	C	2.293092	-0.357869	0.649324
C26	C	1.823780	-0.387521	0.892020
C27	C	1.823817	-0.387476	1.008176
C28	C	1.823808	-0.115050	0.619494
C29	C	1.823857	0.001106	0.619515
C30	C	1.823682	-0.387654	0.347934
C31	C	1.823889	-0.387390	0.231795
C32	C	1.747208	-0.328760	1.175138
C33	C	1.747169	-0.328805	1.055086
H34	H	1.346898	-0.300131	0.707205
H35	H	1.889469	-0.437674	1.056874
H36	H	1.758102	-0.824083	0.560875
C37	C	1.912544	-0.455250	1.177265
C38	C	2.056022	-0.437635	1.201303
C39	C	2.144680	-0.505498	1.146777
C40	C	2.089860	-0.590976	1.068212
C41	C	1.946374	-0.608595	1.044170
C42	C	1.857716	-0.540732	1.098696
H43	H	2.096610	-0.374355	1.259465
H44	H	2.250898	-0.492455	1.164575
H45	H	2.155490	-0.641213	1.027848
H46	H	1.905786	-0.671875	0.986008
H47	H	1.751498	-0.553776	1.080898
C48	C	1.282893	-0.495334	0.511465
C49	C	1.192216	-0.455657	0.423806
C50	C	1.119532	-0.533657	0.345601
C51	C	1.137524	-0.651334	0.355055
C52	C	1.228205	-0.691017	0.442718
C53	C	1.300889	-0.613017	0.520923
H54	H	1.178893	-0.368540	0.416804
H55	H	1.052404	-0.504280	0.280707
H56	H	1.083719	-0.709074	0.297163
H57	H	1.241527	-0.778134	0.449720
H58	H	1.368017	-0.642393	0.585817
H59	H	1.965968	-0.773318	0.746494
H60	H	1.681593	-0.278527	1.215512
C61	C	1.735154	-0.944496	0.540332
C62	C	1.789916	-0.865983	0.461860
C63	C	1.701214	-0.811576	0.382677
C64	C	1.557749	-0.835682	0.381965
C65	C	1.502980	-0.914199	0.460439
C66	C	1.591682	-0.968606	0.539623
H67	H	1.896124	-0.848134	0.462385
H68	H	1.741759	-0.753452	0.324585
H69	H	1.492087	-0.795406	0.323349
H70	H	1.396772	-0.932047	0.459915
H71	H	1.551137	-1.026730	0.597714
H72	H	1.966126	-0.982431	0.746546
H73	H	1.681515	-0.278614	1.006381
