data_functionalizedCrystal
_audit_creation_method	'MofGen! by Chris Wilmer'
_symmetry_space_group_name_H-M	'P1'
_symmetry_Int_Tables_number	1
_symmetry_cell_setting	triclinic
loop_
_symmetry_equiv_pos_as_xyz
  x,y,z
_cell_length_a	15.944551
_cell_length_b	15.021413
_cell_length_c	15.944551
_cell_angle_alpha	90.000443
_cell_angle_beta	96.501262
_cell_angle_gamma	89.988701
loop_
_atom_site_label
_atom_site_type_symbol
_atom_site_fract_x
_atom_site_fract_y
_atom_site_fract_z
O1	O	1.114511	0.073941	-0.108326
O2	O	1.447844	0.407274	0.225007
O3	O	1.781178	0.740608	0.558341
O4	O	0.869961	0.073964	-0.121682
O5	O	1.203295	0.407297	0.211651
O6	O	1.536628	0.740630	0.544984
O7	O	0.998914	0.073944	0.007271
O8	O	1.332248	0.407277	0.340604
O9	O	1.665581	0.740610	0.673937
O10	O	0.985558	0.073961	-0.237279
O11	O	1.318891	0.407294	0.096054
O12	O	1.652225	0.740628	0.429388
O13	O	0.998929	-0.074121	0.007263
O14	O	1.332263	0.259213	0.340596
O15	O	1.665596	0.592546	0.673929
O16	O	0.869976	-0.074101	-0.121690
O17	O	1.203310	0.259233	0.211643
O18	O	1.536643	0.592566	0.544976
O19	O	1.114526	-0.074123	-0.108334
O20	O	1.447859	0.259210	0.224999
O21	O	1.781193	0.592544	0.558333
Zn22	Zn	0.992254	-0.097620	-0.115013
Zn23	Zn	1.325587	0.235713	0.218320
Zn24	Zn	1.658920	0.569046	0.551653
Zn25	Zn	0.992234	0.097461	-0.115003
Zn26	Zn	1.325567	0.430794	0.218330
Zn27	Zn	1.658901	0.764127	0.551664
O28	O	0.985573	-0.074103	-0.237287
O29	O	1.318907	0.259230	0.096046
O30	O	1.652240	0.592563	0.429380
C31	C	0.838675	-0.000066	-0.121132
C32	C	1.172008	0.333268	0.212202
C33	C	1.505342	0.666601	0.545535
C34	C	0.745429	-0.000057	-0.119470
C35	C	1.078762	0.333276	0.213864
C36	C	1.412096	0.666609	0.547197
N37	N	0.992273	-0.230758	-0.115020
N38	N	1.325607	0.102575	0.218313
N39	N	1.658940	0.435909	0.551647
C40	C	0.530572	-0.000081	-0.035565
C41	C	0.863906	0.333253	0.297768
C42	C	1.197239	0.666586	0.631102
C43	C	0.469545	0.072926	-0.074524
C44	C	0.802878	0.406259	0.258810
C45	C	1.136211	0.739592	0.592143
C46	C	0.574703	-0.000068	-0.116462
C47	C	0.908036	0.333265	0.216871
C48	C	1.241370	0.666598	0.550204
C49	C	0.469582	-0.073054	-0.074551
C50	C	0.802915	0.260279	0.258783
C51	C	1.136248	0.593613	0.592116
C52	C	0.409790	-0.000083	-0.113551
C53	C	0.743124	0.333251	0.219782
C54	C	1.076457	0.666584	0.553115
C55	C	0.514904	0.072998	-0.155443
C56	C	0.848237	0.406332	0.177890
C57	C	1.181570	0.739665	0.511224
C58	C	0.514947	-0.073047	-0.155459
C59	C	0.848281	0.260286	0.177875
C60	C	1.181614	0.593620	0.511208
C61	C	0.453937	-0.000023	-0.194476
C62	C	0.787271	0.333310	0.138857
C63	C	1.120604	0.666644	0.472191
C64	C	0.669705	-0.000059	-0.118137
C65	C	1.003039	0.333274	0.215197
C66	C	1.336372	0.666607	0.548530
C67	C	0.314789	-0.000085	-0.111883
C68	C	0.648123	0.333248	0.221450
C69	C	0.981456	0.666582	0.554783
C70	C	1.051913	-0.470426	-0.055379
C71	C	1.385246	-0.137093	0.277955
C72	C	1.718580	0.196240	0.611288
C73	C	0.976013	-0.529750	-0.039061
C74	C	1.309347	-0.196416	0.294272
C75	C	1.642680	0.136917	0.627605
C76	C	0.992254	-0.412365	-0.115010
C77	C	1.325587	-0.079031	0.218324
C78	C	1.658920	0.254302	0.551657
C79	C	1.068135	-0.529783	-0.131277
C80	C	1.401468	-0.196450	0.202056
C81	C	1.734802	0.136883	0.535389
C82	C	0.992242	-0.587789	-0.114997
C83	C	1.325575	-0.254456	0.218336
C84	C	1.658908	0.078878	0.551669
C85	C	0.916316	-0.470382	-0.098655
C86	C	1.249649	-0.137048	0.234679
C87	C	1.582982	0.196285	0.568012
C88	C	1.008487	-0.470410	-0.190904
C89	C	1.341821	-0.137077	0.142430
C90	C	1.675154	0.196257	0.475763
C91	C	0.932533	-0.529706	-0.174619
C92	C	1.265866	-0.196373	0.158715
C93	C	1.599200	0.136960	0.492048
C94	C	0.992262	-0.311307	-0.115014
C95	C	1.325595	0.022026	0.218319
C96	C	1.658929	0.355359	0.551652
C97	C	0.992225	-0.688844	-0.114993
C98	C	1.325558	-0.355511	0.218340
C99	C	1.658892	-0.022177	0.551673
C100	C	1.145813	-0.000092	-0.108885
C101	C	1.479146	0.333242	0.224449
C102	C	1.812479	0.666575	0.557782
C103	C	1.239059	-0.000094	-0.110547
C104	C	1.572392	0.333239	0.222787
C105	C	1.905725	0.666572	0.556120
C106	C	0.998367	-0.000089	0.038561
C107	C	1.331701	0.333245	0.371894
C108	C	1.665034	0.666578	0.705227
C109	C	0.996705	-0.000089	0.131807
C110	C	1.330038	0.333244	0.465140
C111	C	1.663372	0.666578	0.798473
N112	N	0.992221	0.230598	-0.114990
N113	N	1.325554	0.563932	0.218344
N114	N	1.658888	0.897265	0.551677
C115	C	0.986120	-0.000069	-0.268577
C116	C	1.319453	0.333264	0.064756
C117	C	1.652787	0.666598	0.398090
C118	C	0.987782	-0.000063	-0.361823
C119	C	1.321116	0.333270	-0.028490
C120	C	1.654449	0.666604	0.304844
C121	C	0.912801	-0.000069	0.346663
C122	C	1.246134	0.333264	0.679997
C123	C	1.579467	0.666598	1.013330
C124	C	0.951771	-0.073077	0.407677
C125	C	1.285104	0.260256	0.741010
C126	C	1.618437	0.593590	1.074343
C127	C	0.993698	-0.000082	0.302533
C128	C	1.327031	0.333252	0.635866
C129	C	1.660365	0.666585	0.969199
C130	C	0.951775	0.072903	0.407668
C131	C	1.285108	0.406236	0.741001
C132	C	1.618441	0.739569	1.074335
C133	C	0.990787	-0.000071	0.467445
C134	C	1.324120	0.333262	0.800779
C135	C	1.657454	0.666596	1.134112
C136	C	1.032690	-0.073150	0.362318
C137	C	1.366023	0.260183	0.695651
C138	C	1.699357	0.593516	1.028984
C139	C	1.032683	0.072895	0.362303
C140	C	1.366016	0.406228	0.695636
C141	C	1.699349	0.739562	1.028969
C142	C	1.071711	-0.000131	0.423298
C143	C	1.405045	0.333202	0.756632
C144	C	1.738378	0.666536	1.089965
C145	C	0.995372	-0.000089	0.207530
C146	C	1.328706	0.333245	0.540864
C147	C	1.662039	0.666578	0.874197
C148	C	0.989119	-0.000070	0.562446
C149	C	1.322452	0.333263	0.895780
C150	C	1.655785	0.666596	1.229113
H151	H	0.563905	0.000005	0.031573
H152	H	0.897238	0.333338	0.364906
H153	H	1.230572	0.666672	0.698240
Br154	Br	0.848348	-0.572818	-0.258669
Br155	Br	1.181681	-0.239485	0.074665
Br156	Br	1.515015	0.093848	0.407998
Br157	Br	0.398667	0.000047	-0.306490
Br158	Br	0.732000	0.333381	0.026843
Br159	Br	1.065333	0.666714	0.360176
Br160	Br	0.548200	0.175984	-0.212426
Br161	Br	0.881534	0.509317	0.120908
Br162	Br	1.214867	0.842651	0.454241
H163	H	1.138919	-0.000178	0.456457
H164	H	1.472252	0.333155	0.789790
H165	H	1.805585	0.666488	1.123124
H166	H	1.102312	-0.444397	-0.004923
H167	H	1.435645	-0.111063	0.328411
H168	H	1.768979	0.222270	0.661744
Br169	Br	0.894711	0.175768	0.441163
Br170	Br	1.228045	0.509102	0.774496
Br171	Br	1.561378	0.842435	1.107829
H172	H	1.066863	0.134615	0.342176
H173	H	1.400197	0.467948	0.675509
H174	H	1.733530	0.801281	1.008842
H175	H	1.132311	-0.555876	-0.145043
H176	H	1.465645	-0.222542	0.188291
H177	H	1.798978	0.110791	0.521624
H178	H	1.022253	-0.444325	-0.255071
H179	H	1.355586	-0.110992	0.078263
H180	H	1.688920	0.222342	0.411596
H181	H	0.845652	-0.000136	0.313356
H182	H	1.178986	0.333198	0.646689
H183	H	1.512319	0.666531	0.980022
H184	H	0.449428	0.134642	-0.040304
H185	H	0.782762	0.467976	0.293029
H186	H	1.116095	0.801309	0.626363
Br187	Br	0.548514	-0.175918	-0.212449
Br188	Br	0.881848	0.157415	0.120885
Br189	Br	1.215181	0.490748	0.454218
Br190	Br	0.809325	-0.427083	-0.075589
Br191	Br	1.142658	-0.093750	0.257744
Br192	Br	1.475991	0.239584	0.591077
Br193	Br	0.436113	-0.175924	-0.017505
Br194	Br	0.769447	0.157410	0.315828
Br195	Br	1.102780	0.490743	0.649161
H196	H	0.917561	-0.134794	0.427782
H197	H	1.250894	0.198540	0.761115
H198	H	1.584227	0.531873	1.094448
H199	H	0.962271	-0.555816	0.025126
H200	H	1.295605	-0.222482	0.358459
H201	H	1.628938	0.110851	0.691792
Br202	Br	1.089687	-0.176137	0.329001
Br203	Br	1.423020	0.157196	0.662334
Br204	Br	1.756354	0.490529	0.995668
