data_functionalizedCrystal
_audit_creation_method	'MofGen! by Chris Wilmer'
_symmetry_space_group_name_H-M	'P1'
_symmetry_Int_Tables_number	1
_symmetry_cell_setting	triclinic
loop_
_symmetry_equiv_pos_as_xyz
  x,y,z
_cell_length_a	19.805407
_cell_length_b	14.908178
_cell_length_c	19.805399
_cell_angle_alpha	93.324276
_cell_angle_beta	90.019573
_cell_angle_gamma	93.313831
loop_
_atom_site_label
_atom_site_type_symbol
_atom_site_fract_x
_atom_site_fract_y
_atom_site_fract_z
Zn1	Zn	1.019225	-0.359207	0.367165
Zn2	Zn	1.519225	0.140793	0.867165
Zn3	Zn	1.012625	-0.510084	0.247444
Zn4	Zn	1.512625	-0.010084	0.747444
Zn5	Zn	0.906038	-0.359232	0.253989
Zn6	Zn	1.406038	0.140768	0.753989
Zn7	Zn	0.899490	-0.510036	0.360592
Zn8	Zn	1.399490	-0.010036	0.860592
O9	O	0.959345	-0.434640	0.307297
O10	O	1.459345	0.065360	0.807297
O11	O	1.113065	-0.379231	0.351295
O12	O	1.613065	0.120769	0.851295
O13	O	0.998464	-0.490103	0.153594
O14	O	1.498464	0.009897	0.653594
O15	O	0.926556	-0.232974	0.274492
O16	O	1.426556	0.267026	0.774492
O17	O	1.108216	-0.490079	0.263336
O18	O	1.608216	0.009921	0.763336
O19	O	1.009713	-0.232956	0.357642
O20	O	1.509713	0.267044	0.857642
O21	O	0.920156	-0.379273	0.158402
O22	O	1.420156	0.120727	0.658402
O23	O	0.810454	-0.379227	0.268118
O24	O	1.310454	0.120773	0.768118
O25	O	0.915395	-0.489998	0.456182
O26	O	1.415395	0.010002	0.956182
O27	O	0.805643	-0.490022	0.346440
O28	O	1.305643	0.009978	0.846440
O29	O	1.003363	-0.379184	0.461011
O30	O	1.503363	0.120816	0.961011
O31	O	0.992115	-0.636332	0.256963
O32	O	1.492115	-0.136332	0.756963
O33	O	0.908995	-0.636296	0.340093
O34	O	1.408995	-0.136296	0.840093
C35	C	0.783489	-0.434622	0.307276
C36	C	1.283489	0.065378	0.807276
C37	C	0.708257	-0.434637	0.307282
C38	C	1.208257	0.065363	0.807282
C39	C	0.949146	-0.669050	0.297119
C40	C	1.449146	-0.169050	0.797119
C41	C	0.944845	-0.769332	0.292788
C42	C	1.444845	-0.269332	0.792788
C43	C	0.670421	-0.492414	0.347990
C44	C	1.170421	0.007586	0.847990
C45	C	0.599733	-0.492416	0.348000
C46	C	1.099733	0.007584	0.848000
C47	C	0.566881	-0.434644	0.307297
C48	C	1.066881	0.065356	0.807297
C49	C	0.604721	-0.376860	0.266588
C50	C	1.104721	0.123140	0.766588
C51	C	0.675409	-0.376854	0.266582
C52	C	1.175409	0.123146	0.766582
C53	C	0.319647	-0.376880	0.266609
C54	C	0.819647	0.123120	0.766609
C55	C	0.248955	-0.376891	0.266616
C56	C	0.748955	0.123109	0.766616
C57	C	0.243971	-0.492441	0.348027
C58	C	0.743971	0.007559	0.848027
C59	C	0.314659	-0.492436	0.348021
C60	C	0.814659	0.007564	0.848021
C61	C	0.352493	-0.434649	0.307315
C62	C	0.852493	0.065351	0.807315
C63	C	0.429142	-0.434647	0.307306
C64	C	0.929142	0.065353	0.807306
C65	C	0.490233	-0.434650	0.307302
C66	C	0.990233	0.065350	0.807302
C67	C	1.023290	-0.957604	0.371326
C68	C	1.523290	-0.457604	0.871326
C69	C	1.019251	-1.051827	0.367258
C70	C	1.519251	-0.551827	0.867258
C71	C	0.932726	-1.052005	0.280589
C72	C	1.432726	-0.552005	0.780589
C73	C	0.936765	-0.957782	0.284657
C74	C	1.436765	-0.457782	0.784657
C75	C	0.982049	-0.910584	0.330026
C76	C	1.482049	-0.410584	0.830026
C77	C	0.986091	-0.816359	0.334089
C78	C	1.486091	-0.316359	0.834089
C79	C	0.899563	-0.816538	0.247424
C80	C	1.399563	-0.316538	0.747424
C81	C	0.895524	-0.910762	0.243357
C82	C	1.395524	-0.410762	0.743357
C83	C	1.135886	-0.434658	0.307319
C84	C	1.635886	0.065342	0.807319
C85	C	1.211118	-0.434665	0.307328
C86	C	1.711118	0.065335	0.807328
C87	C	0.959385	-0.434583	0.483843
C88	C	1.459385	0.065417	0.983843
C89	C	0.959402	-0.434559	0.559076
C90	C	1.459402	0.065441	1.059076
C91	C	0.969601	-0.199314	0.317530
C92	C	1.469601	0.300686	0.817530
C93	C	0.973972	-0.099032	0.321891
C94	C	1.473972	0.400968	0.821891
C95	C	0.959346	-0.434631	0.131442
C96	C	1.459346	0.065369	0.631442
C97	C	0.959471	-0.434401	0.056220
C98	C	1.459471	0.065599	0.556220
C99	C	1.005209	-0.376855	0.596936
C100	C	1.505209	0.123145	1.096936
C101	C	1.005217	-0.376829	0.667625
C102	C	1.505217	0.123171	1.167625
C103	C	0.959421	-0.434511	0.700453
C104	C	1.459421	0.065489	1.200453
C105	C	0.913610	-0.492217	0.662589
C106	C	1.413610	0.007783	1.162589
C107	C	0.913599	-0.492238	0.591900
C108	C	1.413599	0.007762	1.091900
C109	C	0.913652	-0.492133	0.947666
C110	C	1.413652	0.007867	1.447666
C111	C	0.913667	-0.492110	1.018359
C112	C	1.413667	0.007890	1.518359
C113	C	1.005269	-0.376724	1.023390
C114	C	1.505269	0.123276	1.523390
C115	C	1.005258	-0.376745	0.952702
C116	C	1.505258	0.123255	1.452702
C117	C	0.959445	-0.434447	0.914844
C118	C	1.459445	0.065553	1.414844
C119	C	0.959436	-0.434474	0.838194
C120	C	1.459436	0.065526	1.338194
C121	C	0.959433	-0.434490	0.777102
C122	C	1.459433	0.065510	1.277102
H123	H	0.568930	-0.539465	0.381148
H124	H	1.068930	-0.039465	0.881148
H125	H	0.341403	-0.539483	0.381163
H126	H	0.841403	-0.039483	0.881163
H127	H	0.876320	-0.539180	0.689323
H128	H	1.376320	-0.039180	1.189323
H129	H	0.697164	-0.539462	0.381133
H130	H	1.197164	-0.039462	0.881133
H131	H	0.876292	-0.539217	0.561076
H132	H	1.376292	-0.039217	1.061076
O133	O	0.356496	-0.320785	0.227124
O134	O	0.856496	0.179215	0.727124
C135	C	0.425932	-0.333177	0.235831
C136	C	0.925932	0.166823	0.735831
H137	H	0.434324	-0.362810	0.286743
H138	H	0.934324	0.137190	0.786743
H139	H	0.443888	-0.381154	0.193541
H140	H	0.943888	0.118846	0.693541
C141	C	0.455879	-0.205479	0.171163
C142	C	0.955879	0.294521	0.671163
C143	C	0.466188	-0.241867	0.233697
C144	C	0.966188	0.258133	0.733697
H145	H	0.480712	-0.149156	0.169844
H146	H	0.980712	0.350844	0.669844
H147	H	0.409100	-0.197131	0.165295
H148	H	0.909100	0.302869	0.665295
H149	H	0.470842	-0.245468	0.135928
H150	H	0.970842	0.254532	0.635928
H151	H	0.451217	-0.201883	0.268929
H152	H	0.951217	0.298117	0.768929
H153	H	0.512966	-0.250205	0.239571
H154	H	1.012966	0.249795	0.739571
O155	O	1.059282	-1.097406	0.407475
O156	O	1.559282	-0.597406	0.907475
C157	C	1.045419	-1.074356	0.475914
C158	C	1.545419	-0.574356	0.975914
H159	H	1.022332	-1.005972	0.480242
H160	H	1.522332	-0.505972	0.980242
H161	H	1.008328	-1.127406	0.496384
H162	H	1.508328	-0.627406	0.996384
C163	C	1.139921	-1.153884	0.511861
C164	C	1.639921	-0.653884	1.011861
C165	C	1.111570	-1.069889	0.517177
C166	C	1.611570	-0.569889	1.017177
H167	H	1.180725	-1.151132	0.537315
H168	H	1.680725	-0.651132	1.037315
H169	H	1.149260	-1.169416	0.465752
H170	H	1.649260	-0.669416	0.965752
H171	H	1.109006	-1.198084	0.528919
H172	H	1.609006	-0.698084	1.028919
H173	H	1.142482	-1.025694	0.500112
H174	H	1.642482	-0.525694	1.000112
H175	H	1.102238	-1.054350	0.563284
H176	H	1.602238	-0.554350	1.063284
O177	O	0.207293	-0.548523	0.387674
O178	O	0.707293	-0.048523	0.887674
C179	C	0.225439	-0.528906	0.456008
C180	C	0.725439	-0.028906	0.956008
H181	H	0.278273	-0.494225	0.458952
H182	H	0.778273	0.005775	0.958952
H183	H	0.187683	-0.482560	0.480879
H184	H	0.687683	0.017440	0.980879
C185	C	0.160003	-0.659528	0.489463
C186	C	0.660003	-0.159528	0.989463
C187	C	0.224897	-0.616939	0.493078
C188	C	0.724897	-0.116939	0.993078
H189	H	0.159666	-0.713829	0.512331
H190	H	0.659666	-0.213829	1.012331
H191	H	0.147775	-0.672743	0.443425
H192	H	0.647775	-0.172743	0.943425
H193	H	0.128547	-0.620898	0.510188
H194	H	0.628547	-0.120898	1.010188
H195	H	0.256350	-0.655564	0.472346
H196	H	0.756350	-0.155564	0.972346
H197	H	0.237130	-0.603732	0.539113
H198	H	0.737130	-0.103732	1.039113
H199	H	1.060167	-0.919175	0.408262
H200	H	1.560167	-0.419175	0.908262
O201	O	0.712060	-0.320705	0.226971
O202	O	1.212060	0.179295	0.726971
C203	C	0.667909	-0.269701	0.191057
C204	C	1.167909	0.230299	0.691057
H205	H	0.615912	-0.306654	0.187069
H206	H	1.115912	0.193346	0.687069
H207	H	0.663381	-0.201221	0.218899
H208	H	1.163381	0.298779	0.718899
C209	C	0.759900	-0.211187	0.124501
C210	C	1.259900	0.288813	0.624501
C211	C	0.696038	-0.256578	0.119598
C212	C	1.196038	0.243422	0.619598
H213	H	0.777252	-0.203088	0.080423
H214	H	1.277252	0.296912	0.580423
H215	H	0.789647	-0.245547	0.148699
H216	H	1.289647	0.254453	0.648699
H217	H	0.756118	-0.154126	0.147706
H218	H	1.256118	0.345874	0.647706
H219	H	0.699823	-0.313642	0.096402
H220	H	1.199823	0.186358	0.596402
H221	H	0.666293	-0.222227	0.095395
H222	H	1.166293	0.277773	0.595395
O223	O	0.851444	-0.956574	0.199361
O224	O	1.351444	-0.456574	0.699361
C225	C	0.784959	-0.933598	0.215061
C226	C	1.284959	-0.433598	0.715061
H227	H	0.782615	-0.907651	0.270249
H228	H	1.282615	-0.407651	0.770249
H229	H	0.769636	-0.878959	0.181111
H230	H	1.269636	-0.378959	0.681111
C231	C	0.739082	-1.049229	0.135739
C232	C	1.239082	-0.549229	0.635739
C233	C	0.736201	-1.017367	0.203523
C234	C	1.236201	-0.517367	0.703523
H235	H	0.709004	-1.100900	0.128619
H236	H	1.209004	-0.600900	0.628619
H237	H	0.783874	-1.064706	0.125159
H238	H	1.283874	-0.564706	0.625159
H239	H	0.726313	-1.003689	0.107455
H240	H	1.226313	-0.503689	0.607455
H241	H	0.748977	-1.062903	0.231805
H242	H	1.248977	-0.562903	0.731805
H243	H	0.691410	-1.001899	0.214108
H244	H	1.191410	-0.501899	0.714108
O245	O	0.859525	-0.770723	0.207373
O246	O	1.359525	-0.270723	0.707373
C247	C	0.872812	-0.677437	0.220675
C248	C	1.372812	-0.177437	0.720675
H249	H	0.895499	-0.664494	0.273491
H250	H	1.395499	-0.164494	0.773491
H251	H	0.910030	-0.650695	0.181718
H252	H	1.410030	-0.150695	0.681718
C253	C	0.778538	-0.645043	0.151617
C254	C	1.278538	-0.145043	0.651617
C255	C	0.806398	-0.629145	0.216488
C256	C	1.306398	-0.129145	0.716488
H257	H	0.737572	-0.615252	0.149031
H258	H	1.237572	-0.115252	0.649031
H259	H	0.769588	-0.707891	0.142652
H260	H	1.269588	-0.207891	0.642652
H261	H	0.809560	-0.622757	0.119160
H262	H	1.309560	-0.122757	0.619160
H263	H	0.775380	-0.651440	0.248943
H264	H	1.275380	-0.151440	0.748943
H265	H	0.815342	-0.566299	0.225458
H266	H	1.315342	-0.066299	0.725458
O267	O	1.049781	-0.320751	0.704298
O268	O	1.549781	0.179249	1.204298
C269	C	1.090190	-0.269833	0.660166
C270	C	1.590190	0.230167	1.160166
H271	H	1.090913	-0.306806	0.608171
H272	H	1.590913	0.193194	1.108171
H273	H	1.068395	-0.201308	0.655622
H274	H	1.568395	0.298692	1.155622
C275	C	1.161911	-0.211426	0.752194
C276	C	1.661911	0.288574	1.252194
C277	C	1.162803	-0.256840	0.688334
C278	C	1.662803	0.243160	1.188334
H279	H	1.206702	-0.203407	0.769571
H280	H	1.706702	0.296593	1.269571
H281	H	1.134685	-0.245727	0.781928
H282	H	1.634685	0.254273	1.281928
H283	H	1.143745	-0.154327	0.748399
H284	H	1.643745	0.345673	1.248399
H285	H	1.180962	-0.313942	0.692132
H286	H	1.680962	0.186058	1.192132
H287	H	1.190034	-0.222548	0.658602
H288	H	1.690034	0.277452	1.158602
H289	H	0.222209	-0.329841	0.233471
H290	H	0.722209	0.170159	0.733471
O291	O	1.049769	-0.320627	0.920922
O292	O	1.549769	0.179373	1.420922
C293	C	1.090213	-0.269704	0.969497
C294	C	1.590213	0.230296	1.469497
H295	H	1.062635	-0.266563	1.020017
H296	H	1.562635	0.233437	1.520017
H297	H	1.140180	-0.302744	0.975586
H298	H	1.640180	0.197256	1.475586
C299	C	1.138017	-0.177548	0.884036
C300	C	1.638017	0.322452	1.384036
C301	C	1.104143	-0.173683	0.946085
C302	C	1.604143	0.326317	1.446085
H303	H	1.146614	-0.118319	0.869594
H304	H	1.646614	0.381681	1.369594
H305	H	1.110772	-0.211857	0.851310
H306	H	1.610772	0.288143	1.351310
H307	H	1.179653	-0.205085	0.889119
H308	H	1.679653	0.294915	1.389119
H309	H	1.062505	-0.146157	0.940999
H310	H	1.562505	0.353843	1.440999
H311	H	1.131382	-0.139367	0.978810
H312	H	1.631382	0.360633	1.478810
O313	O	1.049703	-0.320691	1.060271
O314	O	1.549703	0.179309	1.560271
C315	C	1.039906	-0.333049	1.129702
C316	C	1.539906	0.166951	1.629702
H317	H	0.986384	-0.362586	1.138063
H318	H	1.486384	0.137414	1.638063
H319	H	1.077961	-0.381092	1.147682
H320	H	1.577961	0.118908	1.647682
C321	C	1.115830	-0.205470	1.159691
C322	C	1.615830	0.294530	1.659691
C323	C	1.050092	-0.241741	1.169961
C324	C	1.550092	0.258259	1.669961
H325	H	1.122116	-0.149148	1.184527
H326	H	1.622116	0.350852	1.684527
H327	H	1.122433	-0.197145	1.112915
H328	H	1.622433	0.302855	1.612915
H329	H	1.147536	-0.245514	1.174675
H330	H	1.647536	0.254486	1.674675
H331	H	1.018388	-0.201702	1.154970
H332	H	1.518388	0.298298	1.654970
H333	H	1.043484	-0.250057	1.216737
H334	H	1.543484	0.249943	1.716737
O335	O	0.869118	-0.548257	0.910997
O336	O	1.369118	-0.048257	1.410997
C337	C	0.828687	-0.599140	0.955134
C338	C	1.328687	-0.099140	1.455134
H339	H	0.856291	-0.602271	1.005386
H340	H	1.356291	-0.102271	1.505386
H341	H	0.778733	-0.566072	0.964094
H342	H	1.278733	-0.066072	1.464094
C343	C	0.780809	-0.691317	0.861643
C344	C	1.280809	-0.191317	1.361643
C345	C	0.814716	-0.695169	0.923361
C346	C	1.314716	-0.195169	1.423361
H347	H	0.772188	-0.750551	0.842043
H348	H	1.272188	-0.250551	1.342043
H349	H	0.808046	-0.657034	0.831906
H350	H	1.308046	-0.157034	1.331906
H351	H	0.739185	-0.663756	0.869118
H352	H	1.239185	-0.163756	1.369118
H353	H	0.856342	-0.722718	0.915884
H354	H	1.356342	-0.222718	1.415884
H355	H	0.787485	-0.729458	0.953095
H356	H	1.287485	-0.229458	1.453095
H357	H	0.577968	-0.329817	0.233450
H358	H	1.077968	0.170183	0.733450
H359	H	1.022965	-0.777931	0.371029
H360	H	1.522965	-0.277931	0.871029
H361	H	0.895855	-1.090450	0.243655
H362	H	1.395855	-0.590450	0.743655
H363	H	1.042503	-0.329886	0.570212
H364	H	1.542503	0.170114	1.070212
H365	H	0.876372	-0.539083	1.045085
H366	H	1.376372	-0.039083	1.545085
