data_functionalizedCrystal
_audit_creation_method	'MofGen! by Chris Wilmer'
_symmetry_space_group_name_H-M	'P1'
_symmetry_Int_Tables_number	1
_symmetry_cell_setting	triclinic
loop_
_symmetry_equiv_pos_as_xyz
  x,y,z
_cell_length_a	15.995300
_cell_length_b	15.995350
_cell_length_c	15.072220
_cell_angle_alpha	89.998899
_cell_angle_beta	89.985917
_cell_angle_gamma	96.517909
loop_
_atom_site_label
_atom_site_type_symbol
_atom_site_fract_x
_atom_site_fract_y
_atom_site_fract_z
O1	O	1.111022	-0.107720	-0.073811
O2	O	0.867241	-0.121092	-0.073805
O3	O	0.995796	0.007483	-0.073807
O4	O	0.982468	-0.236295	-0.073808
O5	O	0.995764	0.007476	0.073758
O6	O	0.867209	-0.121099	0.073760
O7	O	1.110990	-0.107727	0.073755
Zn8	Zn	0.989095	-0.114414	0.097187
Zn9	Zn	0.989137	-0.114405	-0.097237
O10	O	0.982436	-0.236302	0.073757
C11	C	0.836030	-0.120550	-0.000021
C12	C	0.743077	-0.118915	-0.000019
C13	C	0.572894	-0.115896	-0.000026
C14	C	0.525428	-0.207443	-0.000025
C15	C	0.428741	-0.205773	-0.000362
C16	C	0.405337	-0.112924	-0.000032
C17	C	0.446488	-0.067500	-0.084132
C18	C	0.543122	-0.069816	-0.084201
C19	C	0.543365	-0.068469	0.083614
C20	C	0.446420	-0.068477	0.084717
C21	C	0.310642	-0.111239	-0.000038
C22	C	0.667590	-0.117577	-0.000026
C23	C	0.995229	0.038674	-0.000026
C24	C	0.993577	0.131624	-0.000031
C25	C	1.142202	-0.108269	-0.000031
C26	C	1.235154	-0.109904	-0.000039
C27	C	0.983003	-0.267493	-0.000026
C28	C	0.984655	-0.360443	-0.000027
N29	N	0.989072	-0.114420	0.229875
C30	C	0.987644	0.469370	-0.000028
C31	C	0.896090	0.421920	-0.000357
C32	C	0.897743	0.325230	-0.000024
C33	C	0.990587	0.301810	-0.000030
C34	C	1.035727	0.342892	0.084234
C35	C	1.033427	0.439527	0.084305
C36	C	1.035354	0.439894	-0.083504
C37	C	1.035333	0.342948	-0.084618
C38	C	0.992255	0.207113	-0.000028
C39	C	0.985979	0.564068	-0.000024
N40	N	0.989166	-0.114392	-0.229926
C41	C	0.989135	-0.114402	0.589077
C42	C	0.920117	-0.182969	0.551471
C43	C	0.920275	-0.183219	0.448645
C44	C	0.989103	-0.114411	0.410873
C45	C	1.076470	-0.133477	0.448162
C46	C	1.076083	-0.133964	0.551020
C47	C	0.971565	-0.026565	0.551178
C48	C	0.969560	-0.027152	0.448315
C49	C	0.989091	-0.114415	0.310160
C50	C	0.989153	-0.114400	0.689790
H51	H	0.575396	-0.002592	-0.087794
O52	O	1.031830	0.043597	0.414264
H53	H	0.997830	0.088970	0.376747
H54	H	0.543906	-0.244237	0.060275
O55	O	0.426069	0.021182	0.091766
H56	H	0.485350	0.064598	0.091098
O57	O	0.847617	0.446472	-0.080384
H58	H	0.888257	0.492761	-0.120781
O59	O	0.585471	0.020934	0.084706
H60	H	0.627232	0.031579	0.026001
H61	H	1.002330	0.315697	-0.146954
O62	O	0.410187	-0.112412	0.167136
H63	H	0.439544	-0.080628	0.226737
O64	O	1.038223	0.041032	0.583394
H65	H	1.083652	0.012264	0.626190
H66	H	0.861994	0.297356	0.060485
O67	O	0.551402	-0.255442	-0.079802
H68	H	0.620260	-0.259024	-0.077453
O69	O	1.122459	0.482262	0.089396
H70	H	1.121484	0.551537	0.089486
H71	H	0.931182	-0.247784	0.577309
H72	H	0.400906	-0.241306	-0.061000
H73	H	0.931495	-0.248401	0.424031
O74	O	1.097466	-0.217366	0.414038
H75	H	1.157011	-0.208076	0.375627
H76	H	0.432389	0.000724	-0.087023
O77	O	0.408952	-0.108768	-0.167356
H78	H	0.360999	-0.161622	-0.149034
H79	H	1.091566	-0.198022	0.575000
H80	H	1.103936	0.328778	0.087364
O81	O	0.567416	-0.113179	-0.167782
H82	H	0.510169	-0.132303	-0.207770
H83	H	1.103040	0.327599	-0.089710
H84	H	1.102857	0.471667	-0.084075
H85	H	0.862259	0.296804	-0.060428
O86	O	0.847811	0.447843	0.079247
H87	H	0.888740	0.494374	0.119046
H88	H	1.000484	0.457820	0.147298
O89	O	0.994173	0.305292	0.167309
H90	H	0.941378	0.257358	0.148795
H91	H	1.005434	0.460431	-0.147372
H92	H	0.400264	-0.241465	0.059911
O93	O	0.834251	-0.168193	0.415241
H94	H	0.792161	-0.160685	0.472554
O95	O	0.570488	-0.108396	0.168083
H96	H	0.605322	-0.162495	0.151389
O97	O	0.833812	-0.168193	0.584282
H98	H	0.839183	-0.111824	0.627747
O99	O	1.146158	-0.070337	0.583980
H100	H	1.180176	-0.039361	0.526451
O101	O	1.146134	-0.069090	0.415754
H102	H	1.119162	-0.022710	0.372619
H103	H	0.909241	-0.008228	0.577170
H104	H	0.905292	-0.012682	0.423944
