data_functionalizedCrystal
_audit_creation_method	'MofGen! by Chris Wilmer'
_symmetry_space_group_name_H-M	'P1'
_symmetry_Int_Tables_number	1
_symmetry_cell_setting	triclinic
loop_
_symmetry_equiv_pos_as_xyz
  x,y,z
_cell_length_a	14.519709
_cell_length_b	19.188930
_cell_length_c	12.996460
_cell_angle_alpha	89.988736
_cell_angle_beta	90.000034
_cell_angle_gamma	83.412464
loop_
_atom_site_label
_atom_site_type_symbol
_atom_site_fract_x
_atom_site_fract_y
_atom_site_fract_z
O1	O	1.223300	0.091525	-0.085445
O2	O	1.473300	0.341525	0.164555
O3	O	1.723300	0.591525	0.414555
O4	O	1.973300	0.841525	0.664555
O5	O	0.954756	0.102303	-0.085478
O6	O	1.204756	0.352303	0.164522
O7	O	1.454756	0.602303	0.414522
O8	O	1.704756	0.852303	0.664522
O9	O	1.096778	-0.004714	-0.085440
O10	O	1.346778	0.245286	0.164560
O11	O	1.596778	0.495286	0.414560
O12	O	1.846778	0.745286	0.664560
O13	O	1.081279	0.198542	-0.085482
O14	O	1.331279	0.448542	0.164518
O15	O	1.581279	0.698542	0.414518
O16	O	1.831279	0.948542	0.664518
O17	O	1.096763	-0.004720	0.085693
O18	O	1.346763	0.245280	0.335693
O19	O	1.596763	0.495280	0.585693
O20	O	1.846763	0.745280	0.835693
O21	O	0.954742	0.102297	0.085656
O22	O	1.204742	0.352297	0.335656
O23	O	1.454742	0.602297	0.585656
O24	O	1.704742	0.852297	0.835656
O25	O	1.223285	0.091519	0.085689
O26	O	1.473285	0.341519	0.335689
O27	O	1.723285	0.591519	0.585689
O28	O	1.973285	0.841519	0.835689
Cu29	Cu	1.089012	0.096907	0.101298
Cu30	Cu	1.339012	0.346907	0.351298
Cu31	Cu	1.589012	0.596907	0.601298
Cu32	Cu	1.839012	0.846907	0.851298
Cu33	Cu	1.089030	0.096914	-0.101087
Cu34	Cu	1.339030	0.346914	0.148913
Cu35	Cu	1.589030	0.596914	0.398913
Cu36	Cu	1.839030	0.846914	0.648913
O37	O	1.081264	0.198536	0.085651
O38	O	1.331264	0.448536	0.335651
O39	O	1.581264	0.698536	0.585651
O40	O	1.831264	0.948536	0.835651
C41	C	0.920392	0.101797	0.000085
C42	C	1.170392	0.351797	0.250085
C43	C	1.420392	0.601797	0.500085
C44	C	1.670392	0.851797	0.750085
C45	C	0.818020	0.100292	0.000073
C46	C	1.068020	0.350292	0.250073
C47	C	1.318020	0.600292	0.500073
C48	C	1.568020	0.850292	0.750073
C49	C	0.443159	0.094751	0.000121
C50	C	0.693159	0.344751	0.250121
C51	C	0.943159	0.594751	0.500121
C52	C	1.193159	0.844751	0.750121
C53	C	0.547457	0.096290	0.000108
C54	C	0.797457	0.346290	0.250108
C55	C	1.047457	0.596290	0.500108
C56	C	1.297457	0.846290	0.750108
C57	C	0.630586	0.097521	0.000097
C58	C	0.880586	0.347521	0.250097
C59	C	1.130586	0.597521	0.500097
C60	C	1.380586	0.847521	0.750097
C61	C	0.734891	0.099060	0.000085
C62	C	0.984891	0.349060	0.250085
C63	C	1.234891	0.599060	0.500085
C64	C	1.484891	0.849060	0.750085
C65	C	1.096269	-0.030730	0.000129
C66	C	1.346269	0.219270	0.250129
C67	C	1.596269	0.469270	0.500129
C68	C	1.846269	0.719270	0.750129
C69	C	1.094762	-0.108240	0.000138
C70	C	1.344762	0.141760	0.250138
C71	C	1.594762	0.391760	0.500138
C72	C	1.844762	0.641760	0.750138
C73	C	1.178095	-0.152867	0.000153
C74	C	1.428095	0.097133	0.250153
C75	C	1.678095	0.347133	0.500153
C76	C	1.928095	0.597133	0.750153
C77	C	1.176680	-0.225696	0.000137
C78	C	1.426680	0.024304	0.250137
C79	C	1.676680	0.274304	0.500137
C80	C	1.926680	0.524304	0.750137
C81	C	1.091926	-0.253895	0.000125
C82	C	1.341926	-0.003895	0.250125
C83	C	1.591926	0.246105	0.500125
C84	C	1.841926	0.496105	0.750125
C85	C	1.008582	-0.209257	0.000105
C86	C	1.258582	0.040743	0.250105
C87	C	1.508582	0.290743	0.500105
C88	C	1.758582	0.540743	0.750105
C89	C	1.009999	-0.136430	0.000111
C90	C	1.259999	0.113570	0.250111
C91	C	1.509999	0.363570	0.500111
C92	C	1.759999	0.613570	0.750111
N93	N	1.027137	-0.362132	0.058358
N94	N	1.277137	-0.112132	0.308358
N95	N	1.527137	0.137868	0.558358
N96	N	1.777137	0.387868	0.808358
N97	N	1.025796	-0.431316	0.058354
N98	N	1.275796	-0.181316	0.308354
N99	N	1.525796	0.068684	0.558354
N100	N	1.775796	0.318684	0.808354
C101	C	1.087649	-0.473318	0.000104
C102	C	1.337649	-0.223318	0.250104
C103	C	1.587649	0.026682	0.500104
C104	C	1.837649	0.276682	0.750104
N105	N	1.150908	-0.443526	-0.058129
N106	N	1.400908	-0.193526	0.191871
N107	N	1.650908	0.056474	0.441871
N108	N	1.900908	0.306474	0.691871
N109	N	1.152252	-0.374336	-0.058120
N110	N	1.402252	-0.124336	0.191880
N111	N	1.652252	0.125664	0.441880
N112	N	1.902252	0.375664	0.691880
C113	C	1.090379	-0.332863	0.000118
C114	C	1.340379	-0.082863	0.250118
C115	C	1.590379	0.167137	0.500118
C116	C	1.840379	0.417137	0.750118
C117	C	1.169454	-0.596916	0.000100
C118	C	1.419454	-0.346916	0.250100
C119	C	1.669454	-0.096916	0.500100
C120	C	1.919454	0.153084	0.750100
C121	C	1.168035	-0.669745	0.000077
C122	C	1.418035	-0.419745	0.250077
C123	C	1.668035	-0.169745	0.500077
C124	C	1.918035	0.080255	0.750077
C125	C	0.999934	-0.653305	0.000055
C126	C	1.249934	-0.403305	0.250055
C127	C	1.499934	-0.153305	0.500055
C128	C	1.749934	0.096695	0.750055
C129	C	1.001355	-0.580477	0.000068
C130	C	1.251355	-0.330477	0.250068
C131	C	1.501355	-0.080477	0.500068
C132	C	1.751355	0.169523	0.750068
C133	C	1.086118	-0.552287	0.000095
C134	C	1.336118	-0.302287	0.250095
C135	C	1.586118	-0.052287	0.500095
C136	C	1.836118	0.197713	0.750095
C137	C	1.257649	0.092024	0.000124
C138	C	1.507649	0.342024	0.250124
C139	C	1.757649	0.592024	0.500124
C140	C	2.007649	0.842024	0.750124
C141	C	1.360021	0.093529	0.000128
C142	C	1.610021	0.343529	0.250128
C143	C	1.860021	0.593529	0.500128
C144	C	2.110021	0.843529	0.750128
C145	C	1.081773	0.224551	0.000079
C146	C	1.331773	0.474551	0.250079
C147	C	1.581773	0.724551	0.500079
C148	C	1.831773	0.974551	0.750079
C149	C	1.083280	0.302061	0.000064
C150	C	1.333280	0.552061	0.250064
C151	C	1.583280	0.802061	0.500064
C152	C	1.833280	1.052061	0.750064
N153	N	1.089007	0.096902	0.243645
N154	N	1.339007	0.346902	0.493645
N155	N	1.589007	0.596902	0.743645
N156	N	1.839007	0.846902	0.993645
N157	N	1.089042	0.096914	-0.243434
N158	N	1.339042	0.346914	0.006566
N159	N	1.589042	0.596914	0.256566
N160	N	1.839042	0.846914	0.506566
C161	C	1.089028	0.096915	0.663460
C162	C	1.339028	0.346915	0.913460
C163	C	1.589028	0.596915	1.163460
C164	C	1.839028	0.846915	1.413460
C165	C	1.089020	0.096914	0.546655
C166	C	1.339020	0.346914	0.796655
C167	C	1.589020	0.596914	1.046655
C168	C	1.839020	0.846914	1.296655
C169	C	1.089018	0.096909	0.453556
C170	C	1.339018	0.346909	0.703556
C171	C	1.589018	0.596909	0.953556
C172	C	1.839018	0.846909	1.203556
C173	C	1.089008	0.096906	0.336744
C174	C	1.339008	0.346906	0.586744
C175	C	1.589008	0.596906	0.836744
C176	C	1.839008	0.846906	1.086744
H177	H	1.247116	-0.129920	0.000172
H178	H	1.497116	0.120080	0.250172
H179	H	1.747116	0.370080	0.500172
H180	H	1.997116	0.620080	0.750172
Cl181	Cl	1.272807	-0.725850	0.000089
Cl182	Cl	1.522807	-0.475850	0.250089
Cl183	Cl	1.772807	-0.225850	0.500089
Cl184	Cl	2.022807	0.024150	0.750089
Cl185	Cl	0.896587	-0.524371	0.000053
Cl186	Cl	1.146587	-0.274371	0.250053
Cl187	Cl	1.396587	-0.024371	0.500053
Cl188	Cl	1.646587	0.225629	0.750053
Cl189	Cl	1.281450	-0.281809	0.000155
Cl190	Cl	1.531450	-0.031809	0.250155
Cl191	Cl	1.781450	0.218191	0.500155
Cl192	Cl	2.031450	0.468191	0.750155
Cl193	Cl	0.902034	-0.244706	0.000082
Cl194	Cl	1.152034	0.005294	0.250082
Cl195	Cl	1.402034	0.255294	0.500082
Cl196	Cl	1.652034	0.505294	0.750082
H197	H	1.238472	-0.573962	0.000117
H198	H	1.488472	-0.323962	0.250117
H199	H	1.738472	-0.073962	0.500117
H200	H	1.988472	0.176038	0.750117
Cl201	Cl	0.893385	-0.688747	0.000035
Cl202	Cl	1.143385	-0.438747	0.250035
Cl203	Cl	1.393385	-0.188747	0.500035
Cl204	Cl	1.643385	0.061253	0.750035
H205	H	0.942137	-0.100094	0.000099
H206	H	1.192137	0.149906	0.250099
H207	H	1.442137	0.399906	0.500099
H208	H	1.692137	0.649906	0.750099
