data_functionalizedCrystal
_audit_creation_method	'MofGen! by Chris Wilmer'
_symmetry_space_group_name_H-M	'P1'
_symmetry_Int_Tables_number	1
_symmetry_cell_setting	triclinic
loop_
_symmetry_equiv_pos_as_xyz
  x,y,z
_cell_length_a	19.077105
_cell_length_b	25.639240
_cell_length_c	25.639234
_cell_angle_alpha	90.031766
_cell_angle_beta	92.315122
_cell_angle_gamma	87.728718
loop_
_atom_site_label
_atom_site_type_symbol
_atom_site_fract_x
_atom_site_fract_y
_atom_site_fract_z
Zn1	Zn	1.075928	-0.240350	0.327661
Zn2	Zn	1.575928	0.259650	0.827661
Zn3	Zn	1.075827	-0.327775	0.240211
Zn4	Zn	1.575827	0.172225	0.740211
Zn5	Zn	0.958234	-0.236840	0.236730
Zn6	Zn	1.458234	0.263160	0.736730
Zn7	Zn	0.958182	-0.324236	0.324108
Zn8	Zn	1.458182	0.175764	0.824108
O9	O	1.017043	-0.282300	0.282177
O10	O	1.517043	0.217700	0.782177
O11	O	1.174405	-0.254897	0.319004
O12	O	1.674405	0.245103	0.819004
O13	O	1.060207	-0.315724	0.166583
O14	O	1.560207	0.184276	0.666583
O15	O	0.973910	-0.164142	0.248822
O16	O	1.473910	0.335858	0.748822
O17	O	1.174331	-0.319128	0.254755
O18	O	1.674331	0.180872	0.754755
O19	O	1.060379	-0.166721	0.315629
O20	O	1.560379	0.333279	0.815629
O21	O	0.973812	-0.248914	0.164026
O22	O	1.473812	0.251086	0.664026
O23	O	0.859737	-0.245483	0.245378
O24	O	1.359737	0.254517	0.745378
O25	O	0.973822	-0.313097	0.397745
O26	O	1.473822	0.186903	0.897745
O27	O	0.859698	-0.309693	0.309574
O28	O	1.359698	0.190307	0.809574
O29	O	1.060329	-0.251466	0.400355
O30	O	1.560329	0.248534	0.900355
O31	O	1.060157	-0.400469	0.251310
O32	O	1.560157	0.099531	0.751310
O33	O	0.973724	-0.397869	0.312949
O34	O	1.473724	0.102131	0.812949
C35	C	0.834180	-0.276823	0.276713
C36	C	1.334180	0.223177	0.776713
C37	C	0.755951	-0.274493	0.274387
C38	C	1.255951	0.225507	0.774387
C39	C	0.719197	-0.306879	0.306666
C40	C	1.219197	0.193121	0.806666
C41	C	0.645692	-0.304683	0.304483
C42	C	1.145692	0.195317	0.804483
C43	C	0.608942	-0.270102	0.270020
C44	C	1.108942	0.229898	0.770020
C45	C	0.645701	-0.237712	0.237740
C46	C	1.145701	0.262288	0.737740
C47	C	0.719205	-0.239907	0.239925
C48	C	1.219205	0.260093	0.739925
C49	C	0.389111	-0.259947	0.259907
C50	C	0.889111	0.240053	0.759907
C51	C	0.315602	-0.257756	0.257723
C52	C	0.815602	0.242244	0.757723
C53	C	0.315598	-0.324726	0.324468
C54	C	0.815598	0.175274	0.824468
C55	C	0.389103	-0.326919	0.326648
C56	C	0.889103	0.173081	0.826648
C57	C	0.425855	-0.294528	0.294370
C58	C	0.925855	0.205472	0.794370
N59	N	0.533809	-0.267857	0.267787
N60	N	1.033809	0.232143	0.767787
N61	N	0.500988	-0.296770	0.296606
N62	N	1.000988	0.203230	0.796606
C63	C	1.016943	-0.418140	0.282133
C64	C	1.516943	0.081860	0.782133
C65	C	1.016965	-0.476255	0.282134
C66	C	1.516965	0.023745	0.782134
C67	C	1.062089	-0.837925	0.317024
C68	C	1.562089	-0.337925	0.817024
C69	C	1.062110	-0.892530	0.317036
C70	C	1.562110	-0.392530	0.817036
O71	O	1.100358	-0.921875	0.346655
O72	O	1.600358	-0.421875	0.846655
N73	N	1.017140	-0.918542	0.282231
N74	N	1.517140	-0.418542	0.782231
C75	C	0.972141	-0.889946	0.247416
C76	C	1.472141	-0.389946	0.747416
O77	O	0.933892	-0.917086	0.217813
O78	O	1.433892	-0.417086	0.717813
C79	C	0.972118	-0.835342	0.247408
C80	C	1.472118	-0.335342	0.747408
C81	C	1.017096	-0.809333	0.282211
C82	C	1.517096	-0.309333	0.782211
C83	C	1.107063	-0.811916	0.351825
C84	C	1.607063	-0.311916	0.851825
C85	C	1.107043	-0.757315	0.351813
C86	C	1.607043	-0.257315	0.851813
C87	C	1.062049	-0.728723	0.317000
C88	C	1.562049	-0.228723	0.817000
C89	C	1.017076	-0.754732	0.282199
C90	C	1.517076	-0.254732	0.782199
C91	C	0.927116	-0.806748	0.212596
C92	C	1.427116	-0.306748	0.712596
C93	C	0.927096	-0.752140	0.212591
C94	C	1.427096	-0.252140	0.712591
C95	C	0.972074	-0.726131	0.247395
C96	C	1.472074	-0.226131	0.747395
C97	C	0.972062	-0.671539	0.247374
C98	C	1.472062	-0.171539	0.747374
N99	N	1.017032	-0.645527	0.282179
N100	N	1.517032	-0.145527	0.782179
C101	C	1.062026	-0.674119	0.316992
C102	C	1.562026	-0.174119	0.816992
C103	C	0.972194	-1.004619	0.247437
C104	C	1.472194	-0.504619	0.747437
C105	C	0.972221	-1.059222	0.247442
C106	C	1.472221	-0.559222	0.747442
C107	C	1.062189	-1.061801	0.317062
C108	C	1.562189	-0.561801	0.817062
C109	C	1.062165	-1.007197	0.317054
C110	C	1.562165	-0.507197	0.817054
C111	C	1.017164	-0.978606	0.282242
C112	C	1.517164	-0.478606	0.782242
C113	C	1.061981	-0.559452	0.316964
C114	C	1.561981	-0.059452	0.816964
C115	C	1.061959	-0.504846	0.316947
C116	C	1.561959	-0.004846	0.816947
C117	C	0.971988	-0.502271	0.247329
C118	C	1.471988	-0.002271	0.747329
C119	C	0.972013	-0.556873	0.247344
C120	C	1.472013	-0.056873	0.747344
C121	C	1.017011	-0.585462	0.282165
C122	C	1.517011	-0.085462	0.782165
O123	O	0.933831	-0.642160	0.217771
O124	O	1.433831	-0.142160	0.717771
O125	O	1.100262	-0.646972	0.346594
O126	O	1.600262	-0.146972	0.846594
C127	C	1.200619	-0.287799	0.287664
C128	C	1.700619	0.212201	0.787664
C129	C	1.278848	-0.290142	0.290002
C130	C	1.778848	0.209858	0.790002
C131	C	1.017081	-0.282278	0.418552
C132	C	1.517081	0.217722	0.918552
C133	C	1.017097	-0.282269	0.476666
C134	C	1.517097	0.217731	0.976666
C135	C	1.017162	-0.145931	0.282234
C136	C	1.517162	0.354069	0.782234
C137	C	1.017212	-0.087818	0.282257
C138	C	1.517212	0.412182	0.782257
C139	C	1.017045	-0.282286	0.146335
C140	C	1.517045	0.217714	0.646335
C141	C	1.017165	-0.282152	0.088225
C142	C	1.517165	0.217848	0.588225
C143	C	1.062101	-0.317014	0.729184
C144	C	1.562101	0.182986	1.229184
C145	C	1.062094	-0.317025	0.674580
C146	C	1.562094	0.182975	1.174580
O147	O	1.100326	-0.346624	0.647468
O148	O	1.600326	0.153376	1.147468
N149	N	1.017112	-0.282244	0.645941
N150	N	1.517112	0.217756	1.145941
C151	C	0.972130	-0.247454	0.671909
C152	C	1.472130	0.252546	1.171909
O153	O	0.933868	-0.217871	0.642535
O154	O	1.433868	0.282129	1.142535
C155	C	0.972134	-0.247446	0.726512
C156	C	1.472134	0.252554	1.226512
C157	C	1.017124	-0.282226	0.755149
C158	C	1.517124	0.217774	1.255149
C159	C	1.107087	-0.351792	0.757821
C160	C	1.607087	0.148208	1.257821
C161	C	1.107095	-0.351780	0.812422
C162	C	1.607095	0.148220	1.312422
C163	C	1.062118	-0.316991	0.838386
C164	C	1.562118	0.183009	1.338386
C165	C	1.017132	-0.282214	0.809749
C166	C	1.517132	0.217786	1.309749
C167	C	0.927149	-0.212659	0.752479
C168	C	1.427149	0.287341	1.252479
C169	C	0.927157	-0.212654	0.807086
C170	C	1.427157	0.287346	1.307086
C171	C	0.972146	-0.247434	0.835723
C172	C	1.472146	0.252566	1.335723
C173	C	0.972163	-0.247414	0.890315
C174	C	1.472163	0.252586	1.390315
N175	N	1.017145	-0.282195	0.918954
N176	N	1.517145	0.217805	1.418954
C177	C	1.062122	-0.316984	0.892989
C178	C	1.562122	0.183016	1.392989
C179	C	0.972123	-0.247473	0.557238
C180	C	1.472123	0.252527	1.057238
C181	C	0.972122	-0.247478	0.502635
C182	C	1.472122	0.252522	1.002635
C183	C	1.062085	-0.317050	0.505310
C184	C	1.562085	0.182950	1.005310
C185	C	1.062090	-0.317043	0.559914
C186	C	1.562090	0.182957	1.059914
C187	C	1.017105	-0.282254	0.585877
C188	C	1.517105	0.217746	1.085877
C189	C	1.062136	-0.316957	1.007655
C190	C	1.562136	0.183043	1.507655
C191	C	1.062143	-0.316940	1.062260
C192	C	1.562143	0.183060	1.562260
C193	C	0.972177	-0.247370	1.059581
C194	C	1.472177	0.252630	1.559581
C195	C	0.972173	-0.247384	1.004980
C196	C	1.472173	0.252616	1.504980
C197	C	1.017155	-0.282182	0.979019
C198	C	1.517155	0.217818	1.479019
O199	O	0.933949	-0.217832	0.917461
O200	O	1.433949	0.282168	1.417461
O201	O	1.100371	-0.346566	0.922369
O202	O	1.600371	0.153434	1.422369
H203	H	0.285683	-0.229590	0.229662
H204	H	0.785683	0.270410	0.729662
C205	C	0.275164	-0.360350	0.359975
C206	C	0.775164	0.139650	0.859975
N207	N	0.244710	-0.387182	0.386722
N208	N	0.744710	0.112818	0.886722
H209	H	1.098724	-0.345363	0.583226
H210	H	1.598724	0.154637	1.083226
C211	C	1.111557	-0.355323	0.476739
C212	C	1.611557	0.144677	0.976739
N213	N	1.148815	-0.384148	0.455217
N214	N	1.648815	0.115852	0.955217
H215	H	0.935548	-0.219057	0.981663
H216	H	1.435548	0.280943	1.481663
H217	H	0.935603	-1.080394	0.219096
H218	H	1.435603	-0.580394	0.719096
C219	C	1.156581	-0.390046	0.843914
C220	C	1.656581	0.109954	1.343914
N221	N	1.193853	-0.418873	0.867632
N222	N	1.693853	0.081127	1.367632
H223	H	1.098789	-0.986024	0.345394
H224	H	1.598789	-0.486024	0.845394
C225	C	1.156587	-0.390054	0.729269
C226	C	1.656587	0.109946	1.229269
N227	N	1.193883	-0.418869	0.707768
N228	N	1.693883	0.081131	1.207768
H229	H	1.098770	-0.345289	0.986524
H230	H	1.598770	0.154711	1.486524
C231	C	0.922703	-0.209105	1.088152
C232	C	1.422703	0.290895	1.588152
N233	N	0.885436	-0.180286	1.109674
N234	N	1.385436	0.319714	1.609674
H235	H	0.935495	-0.219151	0.479324
H236	H	1.435495	0.280849	0.979324
H237	H	0.615774	-0.209554	0.209681
H238	H	1.115774	0.290446	0.709681
C239	C	0.922689	-0.973173	0.209136
C240	C	1.422689	-0.473173	0.709136
N241	N	0.885400	-0.949491	0.180289
N242	N	1.385400	-0.449491	0.680289
C243	C	0.429529	-0.224318	0.224397
C244	C	0.929529	0.275682	0.724397
N245	N	0.459974	-0.197481	0.197648
N246	N	0.959974	0.302519	0.697648
C247	C	1.111678	-1.093263	0.355361
C248	C	1.611678	-0.593263	0.855361
N249	N	1.148950	-1.116961	0.384207
N250	N	1.648950	-0.616961	0.884207
H251	H	0.935494	-0.219139	0.578374
H252	H	1.435494	0.280861	1.078374
C253	C	0.877671	-0.174381	0.835642
C254	C	1.377671	0.325619	1.335642
N255	N	0.840401	-0.145553	0.857150
N256	N	1.340401	0.354447	1.357150
H257	H	0.749113	-0.335040	0.334728
H258	H	1.249113	0.164960	0.834728
C259	C	0.877631	-0.835345	0.174312
C260	C	1.377631	-0.335345	0.674312
N261	N	0.840353	-0.856884	0.145476
N262	N	1.340353	-0.356884	0.645476
H263	H	0.615770	-0.331055	0.330767
H264	H	1.115770	0.168945	0.830767
C265	C	0.922495	-0.470810	0.209039
C266	C	1.422495	0.029190	0.709039
N267	N	0.885211	-0.447111	0.180201
N268	N	1.385211	0.052889	0.680201
H269	H	0.749129	-0.213532	0.213643
H270	H	1.249129	0.286468	0.713643
C271	C	1.111486	-0.590893	0.355266
C272	C	1.611486	-0.090893	0.855266
N273	N	1.148778	-0.614574	0.384112
N274	N	1.648778	-0.114574	0.884112
C275	C	0.429522	-0.364963	0.364558
C276	C	0.929522	0.135037	0.864558
N277	N	0.459966	-0.393620	0.393111
N278	N	0.959966	0.106380	0.893111
C279	C	1.111442	-0.476240	0.355234
C280	C	1.611442	0.023760	0.855234
N281	N	1.148712	-0.454695	0.384071
N282	N	1.648712	0.045305	0.884071
H283	H	1.098782	-0.345263	1.085574
H284	H	1.598782	0.154737	1.585574
H285	H	0.890512	-0.184338	0.729172
H286	H	1.390512	0.315662	1.229172
H287	H	1.143666	-0.736141	0.380155
H288	H	1.643666	-0.236141	0.880155
C289	C	1.156570	-0.843359	0.390122
C290	C	1.656570	-0.343359	0.890122
N291	N	1.193868	-0.867038	0.418965
N292	N	1.693868	-0.367038	0.918965
C293	C	0.877590	-0.720693	0.174293
C294	C	1.377590	-0.220693	0.674293
N295	N	0.840305	-0.697008	0.145446
N296	N	1.340305	-0.197008	0.645446
H297	H	0.935393	-0.578051	0.219000
H298	H	1.435393	-0.078051	0.719000
