data_functionalizedCrystal
_audit_creation_method	'MofGen! by Chris Wilmer'
_symmetry_space_group_name_H-M	'P1'
_symmetry_Int_Tables_number	1
_symmetry_cell_setting	triclinic
loop_
_symmetry_equiv_pos_as_xyz
  x,y,z
_cell_length_a	13.339070
_cell_length_b	11.792241
_cell_length_c	11.804365
_cell_angle_alpha	101.912841
_cell_angle_beta	74.875130
_cell_angle_gamma	99.911355
loop_
_atom_site_label
_atom_site_type_symbol
_atom_site_fract_x
_atom_site_fract_y
_atom_site_fract_z
O1	O	1.365765	0.553461	-0.099072
O2	O	1.070826	0.478649	-0.099065
O3	O	1.225451	0.353090	-0.099061
O4	O	1.211140	0.679019	-0.099077
O5	O	1.184744	0.386099	0.098994
O6	O	1.030119	0.511657	0.098990
O7	O	1.325058	0.586469	0.098982
Cu8	Cu	1.173871	0.552077	0.117070
Cu9	Cu	1.222012	0.513041	-0.117153
O10	O	1.170433	0.712028	0.098978
C11	C	1.012714	0.482516	-0.000037
C12	C	0.900205	0.444847	-0.000034
C13	C	0.537025	0.737736	-0.000067
C14	C	0.642733	0.773130	-0.000074
C15	C	0.707106	0.691063	-0.000063
C16	C	0.665761	0.573594	-0.000047
C17	C	0.560044	0.538195	-0.000050
C18	C	0.730125	0.491522	-0.000046
C19	C	0.688780	0.374054	-0.000030
C20	C	0.583073	0.338660	-0.000032
C21	C	0.518700	0.420728	-0.000042
C22	C	0.835842	0.526921	-0.000043
C23	C	0.858861	0.327380	-0.000026
C24	C	0.753153	0.291986	-0.000019
C25	C	1.204198	0.327026	-0.000034
C26	C	1.201507	0.200184	-0.000035
C27	C	1.196562	-0.032056	-0.000054
C28	C	1.199310	0.097178	-0.000044
C29	C	1.383171	0.582602	-0.000049
C30	C	1.495681	0.620269	-0.000060
C31	C	1.191686	0.738091	-0.000052
C32	C	1.194379	0.864933	-0.000059
N33	N	1.140019	0.579535	0.281810
N34	N	1.255873	0.485577	-0.281892
C35	C	1.337164	0.419619	0.655764
C36	C	1.362772	0.398842	0.531103
C37	C	1.307086	0.444013	0.468774
C38	C	1.225788	0.509965	0.531117
C39	C	1.200182	0.530752	0.655790
C40	C	1.170104	0.555146	0.468800
C41	C	1.088806	0.621099	0.531144
C42	C	1.063204	0.641881	0.655804
C43	C	1.118891	0.596710	0.718134
C44	C	1.195709	0.534359	0.344127
C45	C	1.058727	0.645493	0.344153
C46	C	1.033119	0.666270	0.468814
H47	H	0.793178	0.719887	-0.000072
H48	H	0.432623	0.391915	-0.000036
H49	H	1.327940	0.427093	0.367269
H50	H	1.428965	0.345146	0.480347
C51	C	0.963136	0.723092	0.846921
C52	C	0.973847	0.714384	0.724337
H53	H	0.907974	0.767857	0.889225
H54	H	0.947523	0.647154	0.867353
H55	H	1.026644	0.760188	0.867320
H56	H	0.910340	0.677279	0.703935
H57	H	0.989453	0.790335	0.703896
H58	H	1.098038	0.613622	0.819643
H59	H	0.911275	0.260553	-0.000023
C60	C	0.850163	0.684067	0.507255
C61	C	0.943759	0.738765	0.537355
H62	H	0.794995	0.728818	0.549577
H63	H	0.857441	0.678169	0.424102
H64	H	0.834568	0.608121	0.527693
H65	H	0.959358	0.814707	0.516909
H66	H	0.936481	0.744676	0.620527
H67	H	1.382502	0.382853	0.706521
H68	H	0.869493	0.622565	-0.000052
C69	C	0.456607	0.200063	0.101776
C70	C	0.537621	0.209538	-0.000029
H71	H	0.428545	0.120348	0.101770
H72	H	0.483172	0.229516	0.170832
H73	H	0.403153	0.243883	0.101758
H74	H	0.591079	0.165724	-0.000007
H75	H	0.511058	0.180070	-0.069103
C76	C	1.261962	0.349913	0.305861
C77	C	1.285050	0.461826	0.275654
H78	H	1.317114	0.305119	0.263598
H79	H	1.254658	0.355873	0.389027
H80	H	1.198461	0.312841	0.285425
H81	H	1.348547	0.498900	0.296099
H82	H	1.292366	0.455869	0.192470
H83	H	0.676391	0.868771	-0.000096
H84	H	0.484606	0.804541	-0.000086
C85	C	1.008170	0.817139	0.305769
C86	C	0.997510	0.695153	0.275654
H87	H	0.970387	0.847794	0.263469
H88	H	0.981286	0.838948	0.388927
H89	H	1.080070	0.847402	0.285313
H90	H	0.925610	0.664889	0.296117
H91	H	1.024389	0.673334	0.192477
C92	C	0.668555	0.119455	-0.101829
C93	C	0.707702	0.162864	-0.000015
H94	H	0.640502	0.039739	-0.101827
H95	H	0.615099	0.163267	-0.101824
H96	H	0.723523	0.125902	-0.170886
H97	H	0.652732	0.156424	0.069043
H98	H	0.761164	0.119039	-0.000009
