data_functionalizedCrystal
_audit_creation_method	'MofGen! by Chris Wilmer'
_symmetry_space_group_name_H-M	'P1'
_symmetry_Int_Tables_number	1
_symmetry_cell_setting	triclinic
loop_
_symmetry_equiv_pos_as_xyz
  x,y,z
_cell_length_a	14.853567
_cell_length_b	14.853567
_cell_length_c	13.930277
_cell_angle_alpha	89.999243
_cell_angle_beta	89.995755
_cell_angle_gamma	83.634930
loop_
_atom_site_label
_atom_site_type_symbol
_atom_site_fract_x
_atom_site_fract_y
_atom_site_fract_z
O1	O	1.196368	0.117704	-0.079756
O2	O	0.933909	0.131725	-0.079772
O3	O	1.072149	-0.006516	-0.079767
O4	O	1.058128	0.255944	-0.079762
O5	O	1.072130	-0.006519	0.079895
O6	O	0.933890	0.131722	0.079890
O7	O	1.196349	0.117701	0.079905
Zn8	Zn	1.065116	0.124711	0.105247
Zn9	Zn	1.065142	0.124715	-0.105114
O10	O	1.058109	0.255941	0.079900
C11	C	0.900311	0.131088	0.000057
C12	C	0.800227	0.129184	0.000051
C13	C	0.387693	0.039019	0.000070
C14	C	0.366412	0.203251	0.000073
C15	C	0.460446	0.205042	0.000070
C16	C	0.518108	0.123819	0.000066
C17	C	0.481736	0.040806	0.000065
C18	C	0.496825	0.288053	0.000061
C19	C	0.590864	0.289846	0.000057
C20	C	0.648528	0.208623	0.000060
C21	C	0.612150	0.125607	0.000060
C22	C	0.669812	0.044384	0.000056
C23	C	0.633437	-0.038633	0.000063
C24	C	0.539399	-0.040417	0.000067
C25	C	0.742565	0.210407	0.000055
C26	C	0.763855	0.046172	0.000050
C27	C	1.071504	-0.040106	0.000061
C28	C	1.069601	-0.140189	0.000053
C29	C	0.979435	-0.552723	0.000066
C30	C	1.143668	-0.574004	0.000076
C31	C	1.145458	-0.479971	0.000070
C32	C	1.064235	-0.422309	0.000064
C33	C	0.981223	-0.458680	0.000063
C34	C	1.228469	-0.443591	0.000080
C35	C	1.230262	-0.349552	0.000076
C36	C	1.149039	-0.291889	0.000063
C37	C	1.066023	-0.328266	0.000061
C38	C	0.984800	-0.270604	0.000055
C39	C	0.901783	-0.306979	0.000047
C40	C	0.899999	-0.401017	0.000050
C41	C	1.150823	-0.197851	0.000059
C42	C	0.986588	-0.176561	0.000052
C43	C	1.229947	0.118337	0.000075
C44	C	1.330031	0.120241	0.000075
C45	C	1.058754	0.289531	0.000070
C46	C	1.060657	0.389615	0.000072
N47	N	1.065106	0.124708	0.248814
N48	N	1.065160	0.124711	-0.248680
C49	C	1.003926	0.185904	0.701081
C50	C	1.126382	0.063519	0.701055
C51	C	1.126371	0.063516	0.600559
C52	C	1.065138	0.124709	0.550319
C53	C	1.003916	0.185904	0.600576
C54	C	1.187598	0.002328	0.550295
C55	C	1.187591	0.002323	0.449793
C56	C	1.126353	0.063512	0.399552
C57	C	1.065127	0.124710	0.449814
C58	C	1.003894	0.185902	0.399575
C59	C	0.942664	0.247096	0.449835
C60	C	0.942677	0.247094	0.550334
C61	C	1.126339	0.063515	0.299053
C62	C	1.003883	0.185903	0.299070
H63	H	0.680397	-0.104764	0.000053
O64	O	0.822826	-0.251054	-0.000088
C65	C	0.683046	-0.204028	-0.082847
C66	C	0.772416	-0.267433	-0.082803
H67	H	0.642273	-0.217235	-0.149725
H68	H	0.642123	-0.217275	-0.016079
H69	H	0.698614	-0.130579	-0.082796
H70	H	0.756930	-0.340905	-0.082888
H71	H	0.813312	-0.254108	-0.149564
O72	O	1.185815	0.003953	0.749753
C73	C	1.238389	-0.152718	0.780557
C74	C	1.171049	-0.085352	0.725322
H75	H	1.226461	-0.224935	0.760841
H76	H	1.310630	-0.140927	0.760772
H77	H	1.227886	-0.142155	0.861014
H78	H	1.181469	-0.095874	0.644853
H79	H	1.098831	-0.097160	0.745187
H80	H	0.772178	0.277998	0.000051
H81	H	0.920445	-0.129618	0.000043
O82	O	0.819441	-0.436502	0.000094
C83	C	0.743908	-0.571944	0.000053
C84	C	0.835200	-0.531874	0.000021
H85	H	0.756617	-0.649057	-0.000027
H86	H	0.703746	-0.548268	0.066885
H87	H	0.703770	-0.548161	-0.066752
H88	H	0.875411	-0.555638	0.066780
H89	H	0.875293	-0.555545	-0.066855
H90	H	0.911844	-0.582344	0.000055
H91	H	0.449870	0.354180	0.000054
H92	H	1.237457	-0.047489	0.591203
O93	O	1.307420	-0.499513	-0.000042
C94	C	1.447226	-0.546531	-0.082780
C95	C	1.357855	-0.483126	-0.082746
H96	H	1.488019	-0.533318	-0.149649
H97	H	1.488128	-0.533289	-0.016003
H98	H	1.431658	-0.619980	-0.082738
H99	H	1.373340	-0.409654	-0.082821
H100	H	1.316978	-0.496447	-0.149517
O101	O	0.352514	-0.041699	0.000115
C102	C	0.383560	-0.204408	0.000048
C103	C	0.423521	-0.113059	0.000022
H104	H	0.440950	-0.262127	-0.000048
H105	H	0.340101	-0.209419	0.066886
H106	H	0.340034	-0.209301	-0.066751
H107	H	0.467088	-0.108105	0.066775
H108	H	0.466928	-0.108088	-0.066860
H109	H	0.319459	0.269379	0.000068
O110	O	1.185845	0.003993	0.250379
C111	C	1.307352	-0.117351	0.260965
C112	C	1.239994	-0.050001	0.316206
H113	H	1.351162	-0.161011	0.314161
H114	H	1.268422	-0.162528	0.213951
H115	H	1.352383	-0.078323	0.213875
H116	H	1.194946	-0.088956	0.363348
H117	H	1.278980	-0.004825	0.363159
O118	O	0.944366	0.245435	0.250419
C119	C	0.822866	0.366785	0.261052
C120	C	0.890234	0.299429	0.316267
H121	H	0.779070	0.410444	0.314265
H122	H	0.861789	0.411962	0.214022
H123	H	0.777823	0.327761	0.213980
H124	H	0.935294	0.338379	0.363391
H125	H	0.851254	0.254253	0.363236
H126	H	1.209795	-0.620958	0.000088
O127	O	0.883274	0.306663	0.401071
C128	C	0.830599	0.463327	0.370361
C129	C	0.897918	0.395970	0.425633
H130	H	0.842402	0.535546	0.390214
H131	H	0.841117	0.452893	0.289888
H132	H	0.758388	0.451398	0.390112
H133	H	0.970155	0.407858	0.405962
H134	H	0.887321	0.406420	0.506092
O135	O	0.883296	0.306504	0.599305
C136	C	0.829020	0.360711	0.754144
C137	C	0.896327	0.293393	0.698801
H138	H	0.839520	0.350121	0.834596
H139	H	0.840854	0.432961	0.734450
H140	H	0.756806	0.348843	0.734349
H141	H	0.968568	0.305177	0.718566
H142	H	0.884415	0.221165	0.718500
H143	H	0.810798	-0.019971	0.000050
H144	H	0.509774	-0.108005	0.000096
H145	H	1.237447	-0.047505	0.408877
H146	H	0.954071	0.235724	0.742005
H147	H	0.620472	0.357443	0.000051
H148	H	1.297860	-0.319944	0.000082
H149	H	1.218414	-0.168238	0.000072
