data_functionalizedCrystal
_audit_creation_method	'MofGen! by Chris Wilmer'
_symmetry_space_group_name_H-M	'P1'
_symmetry_Int_Tables_number	1
_symmetry_cell_setting	triclinic
loop_
_symmetry_equiv_pos_as_xyz
  x,y,z
_cell_length_a	14.853567
_cell_length_b	10.654541
_cell_length_c	9.730217
_cell_angle_alpha	90.000068
_cell_angle_beta	90.000542
_cell_angle_gamma	95.940571
loop_
_atom_site_label
_atom_site_type_symbol
_atom_site_fract_x
_atom_site_fract_y
_atom_site_fract_z
O1	O	0.126614	-1.666523	-0.114235
O2	O	0.138681	-1.300919	-0.114246
O3	O	0.001470	-1.493487	-0.114244
O4	O	0.263825	-1.473955	-0.114237
O5	O	0.001469	-1.493481	0.114336
O6	O	0.138679	-1.300913	0.114334
O7	O	0.126613	-1.666517	0.114345
Zn8	Zn	0.132646	-1.483714	0.150632
Zn9	Zn	0.132648	-1.483722	-0.150533
O10	O	0.263824	-1.473949	0.114343
C11	C	-0.032124	-1.492599	0.000042
C12	C	-0.132222	-1.489947	0.000030
C13	C	0.137794	-1.254127	0.000043
C14	C	0.135145	-1.114711	0.000038
C15	C	0.127499	-1.713309	0.000053
C16	C	0.130148	-1.852725	0.000049
C17	C	-0.545428	-1.364347	0.000052
C18	C	-0.565485	-1.593122	0.000059
C19	C	-0.471438	-1.595615	0.000051
C20	C	-0.414381	-1.482473	0.000045
C21	C	-0.451372	-1.366837	0.000048
C22	C	-0.434441	-1.711250	0.000062
C23	C	-0.340388	-1.713748	0.000055
C24	C	-0.283330	-1.600604	0.000040
C25	C	-0.320325	-1.484963	0.000042
C26	C	-0.263268	-1.371821	0.000036
C27	C	-0.300262	-1.256178	0.000028
C28	C	-0.394313	-1.253693	0.000033
C29	C	-0.189279	-1.603089	0.000035
C30	C	-0.169212	-1.374311	0.000032
C31	C	0.297418	-1.474837	0.000054
C32	C	0.397516	-1.477489	0.000057
N33	N	0.132644	-1.483718	0.356168
C34	C	0.299218	-1.085036	0.000026
C35	C	0.380006	-1.004702	0.000014
C36	C	0.377511	-0.873710	0.000012
C37	C	0.294219	-0.823050	0.000027
C38	C	0.213431	-0.903383	0.000039
C39	C	0.215935	-1.034377	0.000036
C40	C	0.049360	-0.933059	0.000061
C41	C	0.051853	-1.064051	0.000052
C42	C	-0.033931	-0.882399	0.000075
C43	C	-0.114721	-0.962733	0.000077
C44	C	-0.112223	-1.093732	0.000077
C45	C	-0.028935	-1.144385	0.000064
N46	N	0.132642	-1.483728	-0.356069
C47	C	0.011180	-1.654306	0.356160
C48	C	-0.049550	-1.739609	0.428096
C49	C	-0.049550	-1.739622	0.571976
C50	C	0.011184	-1.654320	0.643923
C51	C	0.071913	-1.569018	0.571987
C52	C	0.071909	-1.569017	0.428104
C53	C	0.193372	-1.398425	0.571995
C54	C	0.193378	-1.398416	0.428115
C55	C	0.254105	-1.313124	0.643942
C56	C	0.314841	-1.227825	0.572006
C57	C	0.314840	-1.227817	0.428118
C58	C	0.254108	-1.313114	0.356179
H59	H	-0.122762	-1.282175	0.000022
H60	H	0.443295	-0.808301	0.000013
H61	H	0.011182	-1.654315	0.239006
Br62	Br	-0.131977	-1.855380	0.669607
H63	H	-0.178011	-1.159134	0.000092
H64	H	0.254099	-1.313133	0.761097
H65	H	0.364282	-1.158373	0.630595
H66	H	-0.424442	-1.159543	0.000028
H67	H	-0.575552	-1.270193	0.000040
H68	H	0.364289	-1.158348	0.369555
H69	H	0.292195	-0.716388	0.000042
Br70	Br	0.254106	-1.313118	0.160913
Br71	Br	-0.642919	-1.746665	0.000095
Br72	Br	-0.131977	-1.855364	0.330454
H73	H	-0.253794	-1.164058	0.000033
H74	H	-0.035957	-0.775737	0.000082
H75	H	0.011172	-1.654326	0.761077
H76	H	-0.310277	-1.807910	0.000061
Br77	Br	-0.139075	-1.760018	0.000079
H78	H	-0.480903	-1.803364	0.000079
Br79	Br	0.493039	-1.073459	-0.000002
Br80	Br	0.302609	-1.262811	-0.000005
H81	H	-0.182531	-0.921474	0.000088
H82	H	-0.026892	-1.251043	0.000048
