data_functionalizedCrystal
_audit_creation_method	'MofGen! by Chris Wilmer'
_symmetry_space_group_name_H-M	'P1'
_symmetry_Int_Tables_number	1
_symmetry_cell_setting	triclinic
loop_
_symmetry_equiv_pos_as_xyz
  x,y,z
_cell_length_a	34.571875
_cell_length_b	34.571051
_cell_length_c	34.567439
_cell_angle_alpha	60.004367
_cell_angle_beta	60.008842
_cell_angle_gamma	59.994195
loop_
_atom_site_label
_atom_site_type_symbol
_atom_site_fract_x
_atom_site_fract_y
_atom_site_fract_z
O1	O	0.053721	-0.565181	0.472559
O2	O	0.553721	-0.065181	0.972559
O3	O	0.020283	-0.440038	0.380761
O4	O	0.520283	0.059962	0.880761
O5	O	0.099534	-0.519209	0.380676
O6	O	0.599534	-0.019209	0.880676
O7	O	-0.025530	-0.486010	0.472643
O8	O	0.474470	0.013990	0.972643
O9	O	0.125831	-0.492917	0.406885
O10	O	0.625831	0.007083	0.906885
O11	O	0.046580	-0.413746	0.406969
O12	O	0.546580	0.086254	0.906969
O13	O	0.080018	-0.538889	0.498767
O14	O	0.580018	-0.038889	0.998767
Zn15	Zn	0.067475	-0.472143	0.457030
Zn16	Zn	0.567475	0.027857	0.957030
Zn17	Zn	0.032827	-0.506784	0.422498
Zn18	Zn	0.532827	-0.006784	0.922498
O19	O	0.000767	-0.459718	0.498852
O20	O	0.500767	0.040282	0.998852
N21	N	0.091122	-0.448505	0.480598
N22	N	0.591122	0.051495	0.980598
N23	N	0.009184	-0.530426	0.398930
N24	N	0.509184	-0.030426	0.898930
C25	C	0.124402	-0.415465	0.717633
C26	C	0.624402	0.084535	1.217633
C27	C	0.328327	-0.415388	0.513477
C28	C	0.828327	0.084612	1.013477
C29	C	0.124221	-0.415437	0.513630
C30	C	0.624221	0.084563	1.013630
C31	C	0.124201	-0.211364	0.513624
C32	C	0.624201	0.288636	1.013624
C33	C	0.157075	-0.309853	0.546423
C34	C	0.657075	0.190147	1.046423
C35	C	0.157084	-0.382601	0.546423
C36	C	0.657084	0.117399	1.046423
C37	C	0.175289	-0.364414	0.564591
C38	C	0.675289	0.135586	1.064591
C39	C	0.254624	-0.350722	0.522790
C40	C	0.754624	0.149278	1.022790
C41	C	0.304220	-0.367243	0.506229
C42	C	0.804220	0.132757	1.006229
C43	C	0.304249	-0.447494	0.536832
C44	C	0.804249	0.052506	1.036832
C45	C	0.254655	-0.430972	0.553394
C46	C	0.754655	0.069028	1.053394
C47	C	0.169014	-0.285043	0.497667
C48	C	0.669014	0.214957	0.997667
C49	C	0.152454	-0.235444	0.481153
C50	C	0.652454	0.264556	0.981153
C51	C	0.112020	-0.235469	0.562154
C52	C	0.612020	0.264531	1.062154
C53	C	0.128580	-0.285068	0.578668
C54	C	0.628580	0.214932	1.078668
C55	C	0.108321	-0.370634	0.558439
C56	C	0.608321	0.129366	1.058439
C57	C	0.091776	-0.387168	0.541918
C58	C	0.591776	0.112832	1.041918
C59	C	0.172754	-0.427637	0.501375
C60	C	0.672754	0.072363	1.001375
C61	C	0.189301	-0.411103	0.517891
C62	C	0.689301	0.088897	1.017891
C63	C	0.108399	-0.370649	0.643978
C64	C	0.608399	0.129351	1.143978
C65	C	0.091911	-0.387197	0.693575
C66	C	0.591911	0.112803	1.193575
C67	C	0.172928	-0.427676	0.693511
C68	C	0.672928	0.072324	1.193511
C69	C	0.189415	-0.411128	0.643912
C70	C	0.689415	0.088872	1.143912
C71	C	0.157149	-0.382613	0.619147
C72	C	0.657149	0.117387	1.119147
C73	C	0.229844	-0.382585	0.546371
C74	C	0.729844	0.117415	1.046371
C75	C	0.105624	-0.433333	0.772186
C76	C	0.605624	0.066667	1.272186
C77	C	0.382878	-0.432925	0.495007
C78	C	0.882878	0.067075	0.995007
C79	C	0.105380	-0.433313	0.495792
C80	C	0.605380	0.066687	0.995792
C81	C	0.105683	-0.156808	0.496094
C82	C	0.605683	0.343192	0.996094
C83	C	-0.023527	-0.563458	0.161535
C84	C	0.476473	-0.063458	0.661535
C85	C	-0.023851	-0.767445	0.365663
C86	C	0.476149	-0.267445	0.865663
C87	C	-0.023821	-0.563448	0.365756
C88	C	0.476179	-0.063448	0.865756
C89	C	-0.227785	-0.563229	0.365355
C90	C	0.272215	-0.063229	0.865355
C91	C	-0.129302	-0.596153	0.332678
C92	C	0.370698	-0.096153	0.832678
C93	C	-0.056593	-0.596234	0.332823
C94	C	0.443407	-0.096234	0.832823
C95	C	-0.074746	-0.614396	0.314578
C96	C	0.425254	-0.114396	0.814578
C97	C	-0.088477	-0.693710	0.356299
C98	C	0.411523	-0.193710	0.856299
C99	C	-0.071982	-0.743310	0.372851
C100	C	0.428018	-0.243310	0.872851
C101	C	0.008266	-0.743392	0.342376
C102	C	0.508266	-0.243392	0.842376
C103	C	-0.008230	-0.693794	0.325823
C104	C	0.491770	-0.193794	0.825823
C105	C	-0.154162	-0.608103	0.381422
C106	C	0.345838	-0.108103	0.881422
C107	C	-0.203757	-0.591517	0.397874
C108	C	0.296243	-0.091517	0.897874
C109	C	-0.203630	-0.551037	0.316836
C110	C	0.296370	-0.051037	0.816836
C111	C	-0.154034	-0.567623	0.300384
C112	C	0.345966	-0.067623	0.800384
C113	C	-0.068543	-0.547475	0.320829
C114	C	0.431457	-0.047475	0.820829
C115	C	-0.052041	-0.530969	0.337421
C116	C	0.447959	-0.030969	0.837421
C117	C	-0.011639	-0.611977	0.377990
C118	C	0.488361	-0.111977	0.877990
C119	C	-0.028141	-0.628485	0.361404
C120	C	0.471859	-0.128485	0.861404
C121	C	-0.068417	-0.547482	0.235199
C122	C	0.431583	-0.047482	0.735199
C123	C	-0.051814	-0.530977	0.185602
C124	C	0.448186	-0.030977	0.685602
C125	C	-0.011349	-0.611990	0.185649
C126	C	0.488651	-0.111990	0.685649
C127	C	-0.027951	-0.628493	0.235248
C128	C	0.472049	-0.128493	0.735248
C129	C	-0.056486	-0.596238	0.260022
C130	C	0.443514	-0.096238	0.760022
C131	C	-0.056602	-0.668955	0.332787
C132	C	0.443398	-0.168955	0.832787
C133	C	-0.005599	-0.544662	0.106983
C134	C	0.494401	-0.044662	0.606983
C135	C	-0.006342	-0.821999	0.384121
C136	C	0.493658	-0.321999	0.884121
C137	C	-0.005979	-0.544649	0.383673
C138	C	0.494021	-0.044649	0.883673
C139	C	-0.282336	-0.544682	0.382817
C140	C	0.217664	-0.044682	0.882817
N141	N	0.427518	-0.448428	0.480350
N142	N	0.927518	0.051572	0.980350
O143	O	0.589573	-0.456297	0.363634
O144	O	1.089573	0.043703	0.863634
O145	O	0.589761	-0.548399	0.488643
O146	O	1.089761	-0.048399	0.988643
O147	O	0.589681	-0.548188	0.409364
O148	O	1.089681	-0.048188	0.909364
O149	O	0.589654	-0.456508	0.442913
O150	O	1.089654	0.043492	0.942913
O151	O	0.510890	-0.521988	0.435708
O152	O	1.010890	-0.021988	0.935708
O153	O	0.510970	-0.522199	0.514987
O154	O	1.010970	-0.022199	1.014987
O155	O	0.510782	-0.430098	0.389978
O156	O	1.010782	0.069902	0.889978
Zn157	Zn	0.498366	-0.471989	0.456665
Zn158	Zn	0.998366	0.028011	0.956665
Zn159	Zn	0.602177	-0.506508	0.421956
Zn160	Zn	1.102177	-0.006508	0.921956
O161	O	0.510862	-0.430308	0.469257
O162	O	1.010862	0.069692	0.969257
N163	N	0.673025	-0.530068	0.398267
N164	N	1.173025	-0.030068	0.898267
N165	N	0.091092	-0.112167	0.480590
N166	N	0.591092	0.387833	0.980590
O167	O	-0.025539	0.049976	0.472612
O168	O	0.474461	0.549976	0.972612
O169	O	0.099472	0.050011	0.380491
O170	O	0.599472	0.550011	0.880491
O171	O	0.020155	0.049979	0.380751
O172	O	0.520155	0.549979	0.880751
O173	O	0.053778	0.050009	0.472352
O174	O	0.553778	0.550009	0.972352
O175	O	0.046458	-0.028818	0.407008
O176	O	0.546458	0.471182	0.907008
O177	O	0.125775	-0.028785	0.406748
O178	O	0.625775	0.471215	0.906748
O179	O	0.000764	-0.028821	0.498869
O180	O	0.500764	0.471179	0.998869
Zn181	Zn	0.067445	-0.041314	0.456977
Zn182	Zn	0.567445	0.458686	0.956977
Zn183	Zn	0.032791	0.062504	0.422382
Zn184	Zn	0.532791	0.562504	0.922382
O185	O	0.080081	-0.028788	0.498609
O186	O	0.580081	0.471212	0.998609
N187	N	0.009138	0.133358	0.398771
N188	N	0.509138	0.633358	0.898771
N189	N	0.091421	-0.448552	0.816827
N190	N	0.591421	0.051448	1.316827
O191	O	0.083469	-0.565164	0.978960
O192	O	0.583469	-0.065164	1.478960
O193	O	-0.008614	-0.440110	0.979002
O194	O	0.491386	0.059890	1.479002
O195	O	-0.008399	-0.519410	0.978978
O196	O	0.491601	-0.019410	1.478978
O197	O	0.083253	-0.485863	0.978984
O198	O	0.583253	0.014137	1.478984
O199	O	0.017837	-0.493128	0.900185
O200	O	0.517837	0.006872	1.400185
O201	O	0.017621	-0.413827	0.900208
O202	O	0.517621	0.086173	1.400208
O203	O	0.109704	-0.538881	0.900167
O204	O	0.609704	-0.038881	1.400167
Zn205	Zn	0.067828	-0.472181	0.887677
Zn206	Zn	0.567828	0.027819	1.387677
Zn207	Zn	0.033262	-0.506810	0.991491
Zn208	Zn	0.533262	-0.006810	1.491491
O209	O	0.109489	-0.459581	0.900191
O210	O	0.609489	0.040419	1.400191
N211	N	0.009668	-0.530444	1.062341
N212	N	0.509668	-0.030444	1.562341
C213	C	0.030297	-0.411123	0.381218
C214	C	0.530297	0.088877	0.881218
C215	C	0.128439	-0.509167	0.381113
C216	C	0.628439	-0.009167	0.881113
C217	C	0.070004	-0.567805	0.498310
C218	C	0.570004	-0.067805	0.998310
C219	C	-0.028138	-0.469761	0.498415
C220	C	0.471862	0.030239	0.998415
C221	C	0.550388	-0.547982	0.517564
C222	C	1.050388	-0.047982	1.017564
C223	C	0.550290	-0.547721	0.419387
C224	C	1.050290	-0.047721	0.919387
C225	C	0.550153	-0.430514	0.361058
C226	C	1.050153	0.069486	0.861058
C227	C	0.550253	-0.430775	0.459234
C228	C	1.050253	0.069225	0.959234
C229	C	0.128339	0.010714	0.380902
C230	C	0.628339	0.510714	0.880902
C231	C	0.030148	0.010577	0.381256
C232	C	0.530148	0.510577	0.881256
C233	C	-0.028136	0.010574	0.498426
C234	C	0.471864	0.510574	0.998426
C235	C	0.070089	0.010613	0.498104
C236	C	0.570089	0.510613	0.998104
C237	C	-0.008178	-0.411214	0.939610
C238	C	0.491822	0.088786	1.439610
C239	C	-0.007906	-0.509413	0.939566
C240	C	0.492094	-0.009413	1.439566
C241	C	0.109268	-0.567777	0.939558
C242	C	0.609268	-0.067777	1.439558
C243	C	0.109002	-0.469572	0.939586
C244	C	0.609002	0.030428	1.439586
H245	H	0.082121	-0.347425	0.623816
H246	H	0.582121	0.152575	1.123816
C247	C	0.550075	-0.391447	0.312559
C248	C	1.050075	0.108553	0.812559
C249	C	0.550032	-0.342914	0.303095
C250	C	1.050032	0.157086	0.803095
C251	C	0.549955	-0.303847	0.254596
C252	C	1.049955	0.196153	0.754596
C253	C	0.549921	-0.313315	0.215561
C254	C	1.049921	0.186685	0.715561
C255	C	0.549964	-0.361850	0.225024
C256	C	1.049964	0.138150	0.725024
C257	C	0.550041	-0.400917	0.273523
C258	C	1.050041	0.099083	0.773523
H259	H	0.550058	-0.335903	0.331992
H260	H	1.050058	0.164097	0.831992
H261	H	0.549923	-0.267918	0.247591
H262	H	1.049923	0.232082	0.747591
H263	H	0.549863	-0.284395	0.179659
H264	H	1.049863	0.215605	0.679659
H265	H	0.549939	-0.368861	0.196127
H266	H	1.049939	0.131139	0.696127
H267	H	0.550073	-0.436846	0.280528
H268	H	1.050073	0.063154	0.780528
C269	C	0.550240	-0.391865	0.468927
C270	C	1.050240	0.108135	0.968927
C271	C	0.550170	-0.343254	0.430046
C272	C	1.050170	0.156746	0.930046
C273	C	0.550156	-0.304344	0.439740
C274	C	1.050156	0.195656	0.939740
C275	C	0.550213	-0.314045	0.488314
C276	C	1.050213	0.185955	0.988314
C277	C	0.550283	-0.362658	0.527198
C278	C	1.050283	0.137342	1.027198
C279	C	0.550297	-0.401568	0.517505
C280	C	1.050297	0.098432	1.017505
H281	H	0.550127	-0.336071	0.394086
H282	H	1.050127	0.163929	0.894086
H283	H	0.550104	-0.268357	0.410955
H284	H	1.050104	0.231643	0.910955
H285	H	0.550203	-0.285242	0.495489
H286	H	1.050203	0.214758	0.995489
H287	H	0.550325	-0.369842	0.563158
H288	H	1.050325	0.130158	1.063158
H289	H	0.550349	-0.437555	0.546289
H290	H	1.050349	0.062445	1.046289
C291	C	0.550458	-0.587046	0.566066
C292	C	1.050458	-0.087046	1.066066
C293	C	0.509581	-0.607470	0.596599
C294	C	1.009581	-0.107470	1.096599
C295	C	0.509650	-0.646534	0.645101
C296	C	1.009650	-0.146534	1.145101
C297	C	0.550597	-0.665173	0.663068
C298	C	1.050597	-0.165173	1.163068
C299	C	0.591477	-0.644749	0.632534
C300	C	1.091477	-0.144749	1.132534
C301	C	0.591408	-0.605685	0.584033
C302	C	1.091408	-0.105685	1.084033
H303	H	0.479267	-0.593672	0.583299
H304	H	0.979267	-0.093672	1.083299
H305	H	0.479388	-0.661654	0.667704
H306	H	0.979388	-0.161654	1.167704
H307	H	0.550649	-0.694091	0.698972
H308	H	1.050649	-0.194091	1.198972
H309	H	0.621791	-0.658547	0.645834
H310	H	1.121791	-0.158547	1.145834
H311	H	0.621670	-0.590565	0.561429
H312	H	1.121670	-0.090565	1.061429
C313	C	-0.046789	-0.519089	0.939517
C314	C	0.453211	-0.019089	1.439517
C315	C	-0.065305	-0.559453	0.980401
C316	C	0.434695	-0.059453	1.480401
C317	C	-0.104189	-0.569130	0.980353
C318	C	0.395811	-0.069130	1.480353
C319	C	-0.124557	-0.538442	0.939420
C320	C	0.375443	-0.038442	1.439420
C321	C	-0.106042	-0.498076	0.898533
C322	C	0.393958	0.001924	1.398533
C323	C	-0.067158	-0.488399	0.898582
C324	C	0.432842	0.011601	1.398582
H325	H	-0.050227	-0.582172	1.010704
H326	H	0.449773	-0.082172	1.510704
H327	H	-0.117895	-0.599012	1.010620
H328	H	0.382105	-0.099012	1.510620
H329	H	-0.153341	-0.545605	0.939385
H330	H	0.346659	-0.045605	1.439385
H331	H	-0.121120	-0.475357	0.868230
H332	H	0.378880	0.024643	1.368230
H333	H	-0.053452	-0.458517	0.868314
H334	H	0.446548	0.041483	1.368314
H335	H	0.022945	0.010574	0.352477
H336	H	0.522945	0.510574	0.852477
C337	C	-0.076635	0.010562	0.537496
C338	C	0.423365	0.510562	1.037496
C339	C	-0.115695	0.010545	0.528059
C340	C	0.384305	0.510545	1.028059
C341	C	-0.164194	0.010533	0.567129
C342	C	0.335806	0.510533	1.067129
C343	C	-0.173632	0.010538	0.615638
C344	C	0.326368	0.510538	1.115638
C345	C	-0.134571	0.010555	0.625077
C346	C	0.365429	0.510555	1.125077
C347	C	-0.086072	0.010567	0.586007
C348	C	0.413928	0.510567	1.086007
H349	H	-0.108709	0.010541	0.492148
H350	H	0.391291	0.510541	0.992148
H351	H	-0.193110	0.010521	0.560141
H352	H	0.306890	0.510521	1.060141
H353	H	-0.209534	0.010530	0.644560
H354	H	0.290466	0.510530	1.144560
H355	H	-0.141557	0.010559	0.660988
H356	H	0.358443	0.510559	1.160988
H357	H	-0.057156	0.010580	0.592995
H358	H	0.442844	0.510580	1.092995
C359	C	0.176737	0.011027	0.341731
C360	C	0.676737	0.511027	0.841731
C361	C	0.215747	0.011194	0.351119
C362	C	0.715747	0.511194	0.851119
C363	C	0.264145	0.011506	0.311949
C364	C	0.764145	0.511506	0.811949
C365	C	0.273533	0.011651	0.263391
C366	C	0.773533	0.511651	0.763391
C367	C	0.234522	0.011484	0.254001
C368	C	0.734522	0.511484	0.754001
C369	C	0.186124	0.011172	0.293171
C370	C	0.686124	0.511172	0.793171
H371	H	0.208798	0.011087	0.387067
H372	H	0.708798	0.511087	0.887067
H373	H	0.293023	0.011630	0.318900
H374	H	0.793023	0.511630	0.818900
H375	H	0.309359	0.011883	0.234395
H376	H	0.809359	0.511883	0.734395
H377	H	0.241470	0.011592	0.218053
H378	H	0.741470	0.511592	0.718053
H379	H	0.157245	0.011048	0.286220
H380	H	0.657245	0.511048	0.786220
C381	C	-0.076663	-0.460209	0.537430
C382	C	0.423337	0.039791	1.037430
C383	C	-0.079896	-0.463663	0.585070
C384	C	0.420104	0.036337	1.085070
C385	C	-0.128421	-0.454111	0.624086
C386	C	0.371579	0.045889	1.124086
C387	C	-0.173713	-0.441105	0.615462
C388	C	0.326287	0.058895	1.115462
C389	C	-0.170482	-0.437651	0.567820
C390	C	0.329518	0.062349	1.067820
C391	C	-0.121957	-0.447203	0.528804
C392	C	0.378043	0.052797	1.028804
H393	H	-0.046366	-0.473291	0.591456
H394	H	0.453634	0.026709	1.091456
H395	H	-0.130813	-0.456668	0.659353
H396	H	0.369187	0.043332	1.159353
H397	H	-0.209635	-0.434035	0.644343
H398	H	0.290365	0.065965	1.144343
H399	H	-0.204012	-0.428023	0.561434
H400	H	0.295988	0.071977	1.061434
H401	H	-0.119566	-0.444646	0.493537
H402	H	0.380434	0.055354	0.993537
C403	C	0.079813	0.010620	0.536985
C404	C	0.579813	0.510620	1.036985
C405	C	0.128405	0.010637	0.527261
C406	C	0.628405	0.510637	1.027261
C407	C	0.138130	0.010645	0.566142
C408	C	0.638130	0.510645	1.066142
C409	C	0.099262	0.010636	0.614748
C410	C	0.599262	0.510636	1.114748
C411	C	0.050666	0.010619	0.624474
C412	C	0.550666	0.510619	1.124474
C413	C	0.040942	0.010611	0.585593
C414	C	0.540942	0.510611	1.085593
H415	H	0.157181	0.010644	0.491278
H416	H	0.657181	0.510644	0.991278
H417	H	0.174104	0.010657	0.558942
H418	H	0.674104	0.510657	1.058942
H419	H	0.106460	0.010641	0.643530
H420	H	0.606460	0.510641	1.143530
H421	H	0.021891	0.010612	0.660457
H422	H	0.521891	0.510612	1.160457
H423	H	0.004968	0.010599	0.592793
H424	H	0.504968	0.510599	1.092793
H425	H	-0.037087	-0.375298	0.939623
H426	H	0.462913	0.124702	1.439623
C427	C	0.148325	-0.616295	0.939542
C428	C	0.648325	-0.116295	1.439542
C429	C	0.139735	-0.661595	0.980447
C430	C	0.639735	-0.161595	1.480447
C431	C	0.178793	-0.710113	0.980431
C432	C	0.678793	-0.210113	1.480431
C433	C	0.226441	-0.713331	0.939509
C434	C	0.726441	-0.213331	1.439509
C435	C	0.235033	-0.668029	0.898600
C436	C	0.735033	-0.168029	1.398600
C437	C	0.195975	-0.619511	0.898617
C438	C	0.695975	-0.119511	1.398617
H439	H	0.104462	-0.659215	1.010743
H440	H	0.604462	-0.159215	1.510743
H441	H	0.172432	-0.743648	1.010714
H442	H	0.672432	-0.243648	1.510714
H443	H	0.255354	-0.749246	0.939497
H444	H	0.755354	-0.249246	1.439497
H445	H	0.270307	-0.670410	0.868305
H446	H	0.770307	-0.170410	1.368305
H447	H	0.202336	-0.585976	0.868334
H448	H	0.702336	-0.085976	1.368334
C449	C	0.038282	-0.374026	0.720884
C450	C	0.538282	0.125974	1.220884
C451	C	0.002794	-0.342658	0.693640
C452	C	0.502794	0.157342	1.193640
C453	C	-0.050834	-0.329487	0.720951
C454	C	0.449166	0.170513	1.220951
C455	C	-0.068975	-0.347684	0.775505
C456	C	0.431025	0.152316	1.275505
C457	C	-0.033486	-0.379054	0.802752
C458	C	0.466514	0.120946	1.302752
C459	C	0.020142	-0.392225	0.775442
C460	C	0.520142	0.107775	1.275442
H461	H	0.016223	-0.329186	0.653253
H462	H	0.516223	0.170814	1.153253
H463	H	-0.077104	-0.306264	0.700780
H464	H	0.422896	0.193736	1.200780
H465	H	-0.108673	-0.337934	0.795722
H466	H	0.391327	0.162066	1.295722
H467	H	-0.046915	-0.392526	0.843139
H468	H	0.453085	0.107474	1.343139
H469	H	0.046412	-0.415447	0.795612
H470	H	0.546412	0.084553	1.295612
C471	C	0.208421	-0.459035	0.720749
C472	C	0.708421	0.040965	1.220749
C473	C	0.262046	-0.472192	0.693433
C474	C	0.762046	0.027808	1.193433
C475	C	0.297541	-0.503552	0.720672
C476	C	0.797541	-0.003552	1.220672
C477	C	0.279412	-0.521755	0.775226
C478	C	0.779412	-0.021755	1.275226
C479	C	0.225785	-0.508599	0.802545
C480	C	0.725785	-0.008599	1.302545
C481	C	0.190289	-0.477239	0.775307
C482	C	0.690289	0.022761	1.275307
H483	H	0.275468	-0.458716	0.653046
H484	H	0.775468	0.041284	1.153046
H485	H	0.337239	-0.513291	0.700448
H486	H	0.837239	-0.013291	1.200448
H487	H	0.305687	-0.544970	0.795390
H488	H	0.805687	-0.044970	1.295390
H489	H	0.212362	-0.522074	0.842932
H490	H	0.712362	-0.022074	1.342932
H491	H	0.150591	-0.467499	0.795530
H492	H	0.650591	0.032501	1.295530
C493	C	0.243043	-0.424291	0.616599
C494	C	0.743043	0.075709	1.116599
C495	C	0.265516	-0.385072	0.582492
C496	C	0.765516	0.114928	1.082492
C497	C	0.319143	-0.398235	0.555180
C498	C	0.819143	0.101765	1.055180
C499	C	0.350299	-0.450616	0.561974
C500	C	0.850299	0.049384	1.061974
C501	C	0.327827	-0.489838	0.596082
C502	C	0.827827	0.010162	1.096082
C503	C	0.274199	-0.476676	0.623394
C504	C	0.774199	0.023324	1.123394
H505	H	0.242452	-0.346294	0.577461
H506	H	0.742452	0.153706	1.077461
H507	H	0.335779	-0.369200	0.529930
H508	H	0.835779	0.130800	1.029930
H509	H	0.389997	-0.460360	0.541755
H510	H	0.889997	0.039640	1.041755
H511	H	0.350890	-0.528617	0.601113
H512	H	0.850890	-0.028617	1.101113
H513	H	0.257564	-0.505711	0.648643
H514	H	0.757564	-0.005711	1.148643
H515	H	0.137795	-0.462392	0.939581
H516	H	0.637795	0.037608	1.439581
H517	H	0.550303	-0.576522	0.412207
H518	H	1.050303	-0.076522	0.912207
H519	H	0.052069	-0.377412	0.551692
H520	H	0.552069	0.122588	1.051692
C521	C	0.208196	-0.458987	0.469991
C522	C	0.708196	0.041013	0.969991
C523	C	0.243911	-0.506822	0.488934
C524	C	0.743911	-0.006822	0.988934
C525	C	0.279356	-0.538170	0.457546
C526	C	0.779356	-0.038170	0.957546
C527	C	0.279085	-0.521685	0.407215
C528	C	0.779085	-0.021685	0.907215
C529	C	0.243369	-0.473848	0.388269
C530	C	0.743369	0.026152	0.888269
C531	C	0.207925	-0.442499	0.419657
C532	C	0.707925	0.057501	0.919657
H533	H	0.244112	-0.519027	0.526195
H534	H	0.744112	-0.019027	1.026195
H535	H	0.305795	-0.573582	0.471572
H536	H	0.805795	-0.073582	0.971572
H537	H	0.305324	-0.544891	0.383980
H538	H	0.805324	-0.044891	0.883980
H539	H	0.243168	-0.461642	0.351008
H540	H	0.743168	0.038358	0.851008
H541	H	0.181486	-0.407087	0.405631
H542	H	0.681486	0.092913	0.905631
C543	C	0.242935	-0.424234	0.504681
C544	C	0.742935	0.075766	1.004681
C545	C	0.274133	-0.476603	0.519078
C546	C	0.774133	0.023397	1.019078
C547	C	0.327764	-0.489721	0.505871
C548	C	0.827764	0.010279	1.005871
C549	C	0.350196	-0.450470	0.478267
C550	C	0.850196	0.049530	0.978267
C551	C	0.318998	-0.398098	0.463868
C552	C	0.818998	0.101902	0.963868
C553	C	0.265368	-0.384980	0.477075
C554	C	0.765368	0.115020	0.977075
H555	H	0.257527	-0.505662	0.539513
H556	H	0.757527	-0.005662	1.039513
H557	H	0.350858	-0.528490	0.516530
H558	H	0.850858	-0.028490	1.016530
H559	H	0.389897	-0.460180	0.468490
H560	H	0.889897	0.039820	0.968490
H561	H	0.335604	-0.369038	0.443432
H562	H	0.835604	0.130962	0.943432
H563	H	0.242273	-0.346210	0.466416
H564	H	0.742273	0.153790	0.966416
H565	H	0.234479	-0.456922	0.572596
H566	H	0.734479	0.043078	1.072596
C567	C	0.331546	-0.500721	0.544553
C568	C	0.831546	-0.000721	1.044553
C569	C	0.304288	-0.535773	0.570493
C570	C	0.804288	-0.035773	1.070493
C571	C	0.331584	-0.588998	0.578216
C572	C	0.831584	-0.088998	1.078216
C573	C	0.386137	-0.607172	0.559999
C574	C	0.886137	-0.107172	1.059999
C575	C	0.413397	-0.572119	0.534057
C576	C	0.913397	-0.072119	1.034057
C577	C	0.386102	-0.518894	0.526334
C578	C	0.886102	-0.018894	1.026334
H579	H	0.263902	-0.522320	0.583981
H580	H	0.763902	-0.022320	1.083981
H581	H	0.311403	-0.614947	0.597420
H582	H	0.811403	-0.114947	1.097420
H583	H	0.406343	-0.646573	0.565716
H584	H	0.906343	-0.146573	1.065716
H585	H	0.453783	-0.585572	0.520569
H586	H	0.953783	-0.085572	1.020569
H587	H	0.406282	-0.492945	0.507130
H588	H	0.906282	0.007055	1.007130
H589	H	0.164358	-0.516243	0.352233
H590	H	0.664358	-0.016243	0.852233
C591	C	0.331479	-0.332191	0.480286
C592	C	0.831479	0.167809	0.980286
C593	C	0.324678	-0.302049	0.505641
C594	C	0.824678	0.197951	1.005641
C595	C	0.351937	-0.266996	0.479696
C596	C	0.851937	0.233004	0.979696
C597	C	0.385998	-0.262084	0.428397
C598	C	0.885998	0.237916	0.928397
C599	C	0.392801	-0.292227	0.403038
C600	C	0.892801	0.207773	0.903038
C601	C	0.365541	-0.327280	0.428983
C602	C	0.865541	0.172720	0.928983
H603	H	0.299462	-0.305684	0.543619
H604	H	0.799462	0.194316	1.043619
H605	H	0.346901	-0.244682	0.498469
H606	H	0.846901	0.255318	0.998469
H607	H	0.406177	-0.236135	0.409191
H608	H	0.906177	0.263865	0.909191
H609	H	0.418016	-0.288591	0.365060
H610	H	0.918016	0.211409	0.865060
H611	H	0.370577	-0.349593	0.410211
H612	H	0.870577	0.150407	0.910211
C613	C	0.227333	-0.297496	0.515066
C614	C	0.727333	0.202504	1.015066
C615	C	0.234110	-0.261428	0.464459
C616	C	0.734110	0.238572	0.964459
C617	C	0.206818	-0.208201	0.456735
C618	C	0.706818	0.291799	0.956735
C619	C	0.172749	-0.191044	0.499618
C620	C	0.672749	0.308956	0.999618
C621	C	0.165971	-0.227113	0.550229
C622	C	0.665971	0.272887	1.050229
C623	C	0.193263	-0.280339	0.557953
C624	C	0.693263	0.219661	1.057953
H625	H	0.259332	-0.274128	0.432712
H626	H	0.759332	0.225872	0.932712
H627	H	0.211836	-0.181501	0.419269
H628	H	0.711836	0.318499	0.919269
H629	H	0.152546	-0.151642	0.493900
H630	H	0.652546	0.348358	0.993900
H631	H	0.140749	-0.214412	0.581976
H632	H	0.640749	0.285588	1.081976
H633	H	0.188245	-0.307040	0.595418
H634	H	0.688245	0.192960	1.095418
H635	H	0.192214	-0.305222	0.471410
H636	H	0.692214	0.194778	0.971410
C637	C	0.165586	-0.208147	0.427518
C638	C	0.665586	0.291853	0.927518
C639	C	0.217955	-0.214946	0.396353
C640	C	0.717955	0.285054	0.896353
C641	C	0.231088	-0.187650	0.342719
C642	C	0.731088	0.312350	0.842719
C643	C	0.191852	-0.153556	0.320250
C644	C	0.691852	0.346444	0.820250
C645	C	0.139479	-0.146756	0.351415
C646	C	0.639479	0.353244	0.851415
C647	C	0.126346	-0.174052	0.405049
C648	C	0.626346	0.325948	0.905049
H649	H	0.247003	-0.240186	0.412986
H650	H	0.747003	0.259814	0.912986
H651	H	0.269858	-0.192684	0.319648
H652	H	0.769858	0.307316	0.819648
H653	H	0.201574	-0.133350	0.280546
H654	H	0.701574	0.366650	0.780546
H655	H	0.110431	-0.121516	0.334782
H656	H	0.610431	0.378484	0.834782
H657	H	0.087576	-0.169018	0.428119
H658	H	0.587576	0.330982	0.928119
C659	C	0.080683	-0.208199	0.597619
C660	C	0.580683	0.291801	1.097619
C661	C	0.099705	-0.215014	0.633267
C662	C	0.599705	0.284986	1.133267
C663	C	0.068368	-0.187744	0.668731
C664	C	0.568368	0.312256	1.168731
C665	C	0.018009	-0.153658	0.668546
C666	C	0.518009	0.346342	1.168546
C667	C	-0.001016	-0.146842	0.632896
C668	C	0.498984	0.353158	1.132896
C669	C	0.030321	-0.174112	0.597433
C670	C	0.530321	0.325888	1.097433
H671	H	0.136986	-0.240248	0.633405
H672	H	0.636986	0.259752	1.133405
H673	H	0.082452	-0.192790	0.695121
H674	H	0.582452	0.307210	1.195121
H675	H	-0.005188	-0.133471	0.694798
H676	H	0.494812	0.366529	1.194798
H677	H	-0.038297	-0.121608	0.632759
H678	H	0.461703	0.378392	1.132759
H679	H	0.016237	-0.169065	0.571043
H680	H	0.516237	0.330935	1.071043
C681	C	0.115448	-0.312365	0.632303
C682	C	0.615448	0.187635	1.132303
C683	C	0.154685	-0.346459	0.654772
C684	C	0.654685	0.153541	1.154772
C685	C	0.141553	-0.373754	0.708406
C686	C	0.641553	0.126246	1.208406
C687	C	0.089183	-0.366956	0.739571
C688	C	0.589183	0.133044	1.239571
C689	C	0.049943	-0.332860	0.717103
C690	C	0.549943	0.167140	1.217103
C691	C	0.063076	-0.305565	0.663469
C692	C	0.563076	0.194435	1.163469
H693	H	0.193455	-0.351492	0.631701
H694	H	0.693455	0.148508	1.131701
H695	H	0.170601	-0.398994	0.725038
H696	H	0.670601	0.101006	1.225038
H697	H	0.079462	-0.387162	0.779274
H698	H	0.579462	0.112838	1.279274
H699	H	0.011173	-0.327827	0.740174
H700	H	0.511173	0.172173	1.240174
H701	H	0.034027	-0.280325	0.646836
H702	H	0.534027	0.219675	1.146836
C703	C	-0.064947	-0.477341	0.158302
C704	C	0.435053	0.022659	0.658302
C705	C	-0.096338	-0.441865	0.185556
C706	C	0.403662	0.058135	0.685556
C707	C	-0.109471	-0.388230	0.158255
C708	C	0.390529	0.111770	0.658255
C709	C	-0.091214	-0.370071	0.103701
C710	C	0.408786	0.129929	0.603701
C711	C	-0.059822	-0.405548	0.076444
C712	C	0.440178	0.094452	0.576444
C713	C	-0.046689	-0.459183	0.103745
C714	C	0.453311	0.040817	0.603745
H715	H	-0.109854	-0.455306	0.225943
H716	H	0.390146	0.044694	0.725943
H717	H	-0.132710	-0.361967	0.178432
H718	H	0.367290	0.138033	0.678432
H719	H	-0.100936	-0.330367	0.083491
H720	H	0.399064	0.169633	0.583491
H721	H	-0.046306	-0.392106	0.036057
H722	H	0.453694	0.107894	0.536057
H723	H	-0.023450	-0.485445	0.083567
H724	H	0.476550	0.014555	0.583567
H725	H	-0.091654	-0.521212	0.255368
H726	H	0.408346	-0.021212	0.755368
C727	C	0.020030	-0.647473	0.158402
C728	C	0.520030	-0.147473	0.658402
C729	C	0.067827	-0.683201	0.165309
C730	C	0.567827	-0.183201	0.665309
C731	C	0.099207	-0.718686	0.138063
C732	C	0.599207	-0.218686	0.638063
C733	C	0.082789	-0.718444	0.103909
C734	C	0.582789	-0.218444	0.603909
C735	C	0.034988	-0.682715	0.097001
C736	C	0.534988	-0.182715	0.597001
C737	C	0.003609	-0.647230	0.124247
C738	C	0.503609	-0.147230	0.624247
H739	H	0.079983	-0.683381	0.190593
H740	H	0.579983	-0.183381	0.690593
H741	H	0.134592	-0.745135	0.143177
H742	H	0.634592	-0.245135	0.643177
H743	H	0.106018	-0.744712	0.083740
H744	H	0.606018	-0.244712	0.583740
H745	H	0.022832	-0.682535	0.071717
H746	H	0.522832	-0.182535	0.571717
H747	H	-0.031776	-0.620782	0.119133
H748	H	0.468224	-0.120782	0.619133
C749	C	-0.014826	-0.682129	0.262551
C750	C	0.485174	-0.182129	0.762551
C751	C	-0.054065	-0.704581	0.296587
C752	C	0.445935	-0.204581	0.796587
C753	C	-0.040939	-0.758216	0.323889
C754	C	0.459061	-0.258216	0.823889
C755	C	0.011426	-0.789400	0.317153
C756	C	0.511426	-0.289400	0.817153
C757	C	0.050669	-0.766949	0.283115
C758	C	0.550669	-0.266949	0.783115
C759	C	0.037543	-0.713314	0.255813
C760	C	0.537543	-0.213314	0.755813
H761	H	-0.092832	-0.681496	0.301575
H762	H	0.407168	-0.181496	0.801575
H763	H	-0.069990	-0.774835	0.349086
H764	H	0.430010	-0.274835	0.849086
H765	H	0.021143	-0.829103	0.337363
H766	H	0.521143	-0.329103	0.837363
H767	H	0.089436	-0.790033	0.278127
H768	H	0.589436	-0.290033	0.778127
H769	H	0.066593	-0.696694	0.230616
H770	H	0.566593	-0.196694	0.730616
C771	C	-0.065181	-0.477334	0.324231
C772	C	0.434819	0.022666	0.824231
C773	C	-0.050668	-0.446226	0.271849
C774	C	0.449332	0.053774	0.771849
C775	C	-0.063807	-0.392592	0.258660
C776	C	0.436193	0.107408	0.758660
C777	C	-0.091458	-0.370066	0.297854
C778	C	0.408542	0.129934	0.797854
C779	C	-0.105972	-0.401174	0.350240
C780	C	0.394028	0.098826	0.850240
C781	C	-0.092833	-0.454808	0.363429
C782	C	0.407167	0.045192	0.863429
H783	H	-0.030198	-0.462901	0.242832
H784	H	0.469802	0.037099	0.742832
H785	H	-0.053063	-0.369564	0.219880
H786	H	0.446937	0.130436	0.719880
H787	H	-0.101184	-0.330363	0.288091
H788	H	0.398816	0.169637	0.788091
H789	H	-0.126442	-0.384500	0.379256
H790	H	0.373558	0.115500	0.879256
H791	H	-0.103578	-0.477837	0.402208
H792	H	0.396422	0.022163	0.902208
C793	C	0.019664	-0.647462	0.409420
C794	C	0.519664	-0.147462	0.909420
C795	C	0.067498	-0.683183	0.390495
C796	C	0.567498	-0.183183	0.890495
C797	C	0.098803	-0.718672	0.421925
C798	C	0.598803	-0.218672	0.921925
C799	C	0.082274	-0.718440	0.472280
C800	C	0.582274	-0.218440	0.972280
C801	C	0.034437	-0.682718	0.491207
C802	C	0.534437	-0.182718	0.991207
C803	C	0.003133	-0.647229	0.459778
C804	C	0.503133	-0.147229	0.959778
H805	H	0.079736	-0.683355	0.353217
H806	H	0.579736	-0.183355	0.853217
H807	H	0.134215	-0.745116	0.407913
H808	H	0.634215	-0.245116	0.907913
H809	H	0.105447	-0.744712	0.495546
H810	H	0.605447	-0.244712	0.995546
H811	H	0.022199	-0.682545	0.528485
H812	H	0.522199	-0.182545	1.028485
H813	H	-0.032279	-0.620785	0.473790
H814	H	0.467721	-0.120785	0.973790
C815	C	-0.014987	-0.682122	0.374592
C816	C	0.485013	-0.182122	0.874592
C817	C	-0.054207	-0.704586	0.402135
C818	C	0.445793	-0.204586	0.902135
C819	C	-0.041047	-0.758224	0.415322
C820	C	0.458953	-0.258224	0.915322
C821	C	0.011333	-0.789397	0.400965
C822	C	0.511333	-0.289397	0.900965
C823	C	0.050557	-0.766933	0.373421
C824	C	0.550557	-0.266933	0.873421
C825	C	0.037397	-0.713296	0.360234
C826	C	0.537397	-0.213296	0.860234
H827	H	-0.092985	-0.681510	0.412764
H828	H	0.407015	-0.181510	0.912764
H829	H	-0.070084	-0.774852	0.435712
H830	H	0.429916	-0.274852	0.935712
H831	H	0.021075	-0.829102	0.410727
H832	H	0.521075	-0.329102	0.910727
H833	H	0.089335	-0.790010	0.362792
H834	H	0.589335	-0.290010	0.862792
H835	H	0.066433	-0.696667	0.339844
H836	H	0.566433	-0.196667	0.839844
C837	C	0.026835	-0.666560	0.299960
C838	C	0.526835	-0.166560	0.799960
C839	C	0.008692	-0.612004	0.281749
C840	C	0.508692	-0.112004	0.781749
C841	C	0.043757	-0.584771	0.255884
C842	C	0.543757	-0.084771	0.755884
C843	C	0.096964	-0.612095	0.248230
C844	C	0.596964	-0.112095	0.748230
C845	C	0.115109	-0.666655	0.266441
C846	C	0.615109	-0.166655	0.766441
C847	C	0.080044	-0.693888	0.292306
C848	C	0.580044	-0.193888	0.792306
H849	H	-0.030697	-0.591774	0.287414
H850	H	0.469303	-0.091774	0.787414
H851	H	0.030325	-0.544382	0.242403
H852	H	0.530325	-0.044382	0.742403
H853	H	0.122921	-0.591936	0.229084
H854	H	0.622921	-0.091936	0.729084
H855	H	0.154499	-0.686884	0.260776
H856	H	0.654499	-0.186884	0.760776
H857	H	0.093477	-0.734276	0.305787
H858	H	0.593477	-0.234276	0.805787
C859	C	-0.107051	-0.770536	0.398721
C860	C	0.392949	-0.270536	0.898721
C861	C	-0.147698	-0.763668	0.444750
C862	C	0.352302	-0.263668	0.944750
C863	C	-0.182772	-0.790892	0.470623
C864	C	0.317228	-0.290892	0.970623
C865	C	-0.177198	-0.824985	0.450467
C866	C	0.322802	-0.324985	0.950467
C867	C	-0.136550	-0.831854	0.404436
C868	C	0.363450	-0.331854	0.904436
C869	C	-0.101476	-0.804630	0.378563
C870	C	0.398524	-0.304630	0.878563
H871	H	-0.151825	-0.738430	0.459672
H872	H	0.348175	-0.238430	0.959672
H873	H	-0.212862	-0.785807	0.504698
H874	H	0.287138	-0.285807	1.004698
H875	H	-0.203162	-0.845138	0.469620
H876	H	0.296838	-0.345138	0.969620
H877	H	-0.132423	-0.857093	0.389513
H878	H	0.367577	-0.357093	0.889513
H879	H	-0.071386	-0.809715	0.344488
H880	H	0.428614	-0.309715	0.844488
C881	C	-0.126955	-0.639484	0.416944
C882	C	0.373045	-0.139484	0.916944
C883	C	-0.154301	-0.652620	0.470563
C884	C	0.345699	-0.152620	0.970563
C885	C	-0.127095	-0.684001	0.506086
C886	C	0.372905	-0.184001	1.006086
C887	C	-0.072542	-0.702245	0.487990
C888	C	0.427458	-0.202245	0.987990
C889	C	-0.045192	-0.689109	0.434369
C890	C	0.454808	-0.189109	0.934369
C891	C	-0.072399	-0.657728	0.398845
C892	C	0.427601	-0.157728	0.898845
H893	H	-0.194687	-0.639114	0.483961
H894	H	0.305313	-0.139114	0.983961
H895	H	-0.147341	-0.693725	0.545780
H896	H	0.352659	-0.193725	1.045780
H897	H	-0.052402	-0.725475	0.514287
H898	H	0.447598	-0.225475	1.014287
H899	H	-0.004806	-0.702615	0.420971
H900	H	0.495194	-0.202615	0.920971
H901	H	-0.052152	-0.648004	0.359151
H902	H	0.447848	-0.148004	0.859151
C903	C	-0.141686	-0.666388	0.363956
C904	C	0.358314	-0.166388	0.863956
C905	C	-0.158780	-0.632285	0.321033
C906	C	0.341220	-0.132285	0.821033
C907	C	-0.211990	-0.604961	0.328690
C908	C	0.288010	-0.104961	0.828690
C909	C	-0.248106	-0.611740	0.379270
C910	C	0.251894	-0.111740	0.879270
C911	C	-0.231013	-0.645844	0.422197
C912	C	0.268987	-0.145844	0.922197
C913	C	-0.177803	-0.673168	0.414540
C914	C	0.322197	-0.173168	0.914540
H915	H	-0.132044	-0.627266	0.283588
H916	H	0.367956	-0.127266	0.783588
H917	H	-0.224643	-0.579714	0.296913
H918	H	0.275357	-0.079714	0.796913
H919	H	-0.287495	-0.591513	0.384938
H920	H	0.212505	-0.091513	0.884938
H921	H	-0.257749	-0.650864	0.459642
H922	H	0.242251	-0.150864	0.959642
H923	H	-0.165150	-0.698415	0.446317
H924	H	0.334850	-0.198415	0.946317
H925	H	0.082085	-0.347427	0.581670
H926	H	0.582085	0.152573	1.081670
C927	C	0.079652	-0.616369	0.537263
C928	C	0.579652	-0.116369	1.037263
C929	C	0.120003	-0.634335	0.555797
C930	C	0.620003	-0.134335	1.055797
C931	C	0.129651	-0.682899	0.594750
C932	C	0.629651	-0.182899	1.094750
C933	C	0.098947	-0.713497	0.615168
C934	C	0.598947	-0.213497	1.115168
C935	C	0.058593	-0.695531	0.596634
C936	C	0.558593	-0.195531	1.096634
C937	C	0.048945	-0.646967	0.557681
C938	C	0.548945	-0.146967	1.057681
H939	H	0.142735	-0.611684	0.540682
H940	H	0.642735	-0.111684	1.040682
H941	H	0.159524	-0.696198	0.608470
H942	H	0.659524	-0.196198	1.108470
H943	H	0.106089	-0.749446	0.644004
H944	H	0.606089	-0.249446	1.144004
H945	H	0.035862	-0.718182	0.611749
H946	H	0.535862	-0.218182	1.111749
H947	H	0.019072	-0.633668	0.543961
H948	H	0.519072	-0.133668	1.043961
C949	C	-0.230839	-0.519664	0.281315
C950	C	0.269161	-0.019664	0.781315
C951	C	-0.203495	-0.506534	0.227695
C952	C	0.296505	-0.006534	0.727695
C953	C	-0.230703	-0.475164	0.192173
C954	C	0.269297	0.024836	0.692173
C955	C	-0.285256	-0.456924	0.210271
C956	C	0.214744	0.043076	0.710271
C957	C	-0.312604	-0.470054	0.263893
C958	C	0.187396	0.029946	0.763893
C959	C	-0.285395	-0.501424	0.299415
C960	C	0.214605	-0.001424	0.799415
H961	H	-0.163109	-0.520037	0.214296
H962	H	0.336891	-0.020037	0.714296
H963	H	-0.210458	-0.465445	0.152479
H964	H	0.289542	0.034555	0.652479
H965	H	-0.305397	-0.433702	0.183976
H966	H	0.194603	0.066298	0.683976
H967	H	-0.352990	-0.456551	0.277293
H968	H	0.147010	0.043449	0.777293
H969	H	-0.305640	-0.511143	0.339110
H970	H	0.194360	-0.011143	0.839110
C971	C	-0.231109	-0.604657	0.451496
C972	C	0.268891	-0.104657	0.951496
C973	C	-0.265217	-0.565424	0.473965
C974	C	0.234783	-0.065424	0.973965
C975	C	-0.292569	-0.578565	0.527586
C976	C	0.207431	-0.078565	1.027586
C977	C	-0.285813	-0.630938	0.558737
C978	C	0.214187	-0.130938	1.058737
C979	C	-0.251703	-0.670174	0.536269
C980	C	0.248297	-0.170174	1.036269
C981	C	-0.224351	-0.657034	0.482648
C982	C	0.275649	-0.157034	0.982648
H983	H	-0.270220	-0.526652	0.450905
H984	H	0.229780	-0.026652	0.950905
H985	H	-0.317820	-0.549519	0.544219
H986	H	0.182180	-0.049519	1.044219
H987	H	-0.306060	-0.640665	0.598431
H988	H	0.193940	-0.140665	1.098431
H989	H	-0.246700	-0.708947	0.559329
H990	H	0.253300	-0.208947	1.059329
H991	H	-0.199101	-0.686079	0.466015
H992	H	0.300899	-0.186079	0.966015
H993	H	-0.091707	-0.521211	0.297556
H994	H	0.408293	-0.021211	0.797556
H995	H	0.047655	-0.763617	0.336709
H996	H	0.547655	-0.263617	0.836709
H997	H	0.023152	-0.375173	0.352387
H998	H	0.523152	0.124827	0.852387
C999	C	-0.126681	-0.554484	0.246762
C1000	C	0.373319	-0.054484	0.746762
C1001	C	-0.133436	-0.502112	0.215609
C1002	C	0.366564	-0.002112	0.715609
C1003	C	-0.106082	-0.488973	0.161989
C1004	C	0.393918	0.011027	0.661989
C1005	C	-0.071974	-0.528208	0.139522
C1006	C	0.428026	-0.028208	0.639522
C1007	C	-0.065218	-0.580584	0.170675
C1008	C	0.434782	-0.080584	0.670675
C1009	C	-0.092572	-0.593722	0.224296
C1010	C	0.407428	-0.093722	0.724296
H1011	H	-0.158686	-0.473065	0.232240
H1012	H	0.341314	0.026935	0.732240
H1013	H	-0.111083	-0.450201	0.138927
H1014	H	0.388917	0.049799	0.638927
H1015	H	-0.051725	-0.518482	0.099829
H1016	H	0.448275	-0.018482	0.599829
H1017	H	-0.039967	-0.609630	0.154044
H1018	H	0.460033	-0.109630	0.654044
H1019	H	-0.087570	-0.632494	0.247357
H1020	H	0.412430	-0.132494	0.747357
