data_functionalizedCrystal
_audit_creation_method	'MofGen! by Chris Wilmer'
_symmetry_space_group_name_H-M	'P1'
_symmetry_Int_Tables_number	1
_symmetry_cell_setting	triclinic
loop_
_symmetry_equiv_pos_as_xyz
  x,y,z
_cell_length_a	15.944499
_cell_length_b	17.038272
_cell_length_c	15.021413
_cell_angle_alpha	90.004029
_cell_angle_beta	89.990095
_cell_angle_gamma	87.294583
loop_
_atom_site_label
_atom_site_type_symbol
_atom_site_fract_x
_atom_site_fract_y
_atom_site_fract_z
O1	O	1.121741	0.100633	-0.074087
O2	O	0.878076	0.113108	-0.074077
O3	O	0.998461	-0.006945	-0.074075
O4	O	1.001357	0.220686	-0.074089
O5	O	0.998441	-0.006928	0.073989
O6	O	0.878057	0.113125	0.073987
O7	O	1.121722	0.100651	0.073977
Zn8	Zn	0.999886	0.106890	0.097491
Zn9	Zn	0.999912	0.106868	-0.097590
O10	O	1.001338	0.220703	0.073975
C11	C	0.846735	0.112606	-0.000044
C12	C	0.753378	0.111074	-0.000040
C13	C	0.466822	0.180822	-0.000057
C14	C	0.525272	0.144557	-0.073060
C15	C	0.417344	0.105512	-0.000060
C16	C	0.525237	0.144554	0.072920
C17	C	0.582448	0.108249	-0.000048
C18	C	0.474564	0.069226	-0.073123
C19	C	0.474524	0.069233	0.072922
C20	C	0.532953	0.032913	-0.000098
C21	C	0.322232	0.103937	-0.000067
C22	C	0.677559	0.109818	-0.000047
C23	C	0.995817	-0.036065	-0.000043
C24	C	0.987957	-0.122859	-0.000043
C25	C	1.060116	-0.172964	-0.000045
C26	C	1.052726	-0.254516	-0.000053
C27	C	0.973177	-0.285960	-0.000053
C28	C	0.901013	-0.235849	-0.000053
C29	C	0.908404	-0.154299	-0.000051
C30	C	0.947068	-0.531721	-0.000064
C31	C	0.939682	-0.613278	-0.000063
C32	C	1.091396	-0.631939	-0.000064
C33	C	1.098780	-0.550387	-0.000057
C34	C	1.026616	-0.500282	-0.000062
C35	C	0.965622	-0.369319	-0.000058
C36	C	1.034172	-0.416925	-0.000063
C37	C	1.153063	0.101153	-0.000058
C38	C	1.246420	0.102684	-0.000068
C39	C	1.003981	0.249823	-0.000059
C40	C	1.011841	0.336617	-0.000065
N41	N	0.999875	0.106905	0.230628
N42	N	0.999929	0.106847	-0.230728
C43	C	0.944198	0.162392	0.470311
C44	C	1.021183	0.177557	0.529641
C45	C	0.999895	0.106886	0.412235
C46	C	0.922932	0.091738	0.529647
C47	C	0.999908	0.106869	0.587659
C48	C	1.076921	0.122087	0.470259
C49	C	0.978617	0.036236	0.470260
C50	C	1.055655	0.051372	0.529563
C51	C	0.999887	0.106898	0.311178
C52	C	0.999925	0.106856	0.688715
H53	H	0.452127	0.037413	0.134646
H54	H	1.098940	-0.391320	-0.000083
H55	H	0.452321	0.037395	-0.134910
H56	H	1.142032	0.134963	0.444282
H57	H	1.102816	0.004422	0.555416
H58	H	0.897151	0.209369	0.444294
H59	H	0.874901	-0.638876	-0.000048
H60	H	0.888306	-0.490935	-0.000068
H61	H	1.124893	-0.147369	-0.000039
H62	H	0.960587	-0.023484	0.444156
H63	H	0.561664	-0.029643	-0.000133
H64	H	1.039192	0.237296	0.555723
H65	H	0.547580	0.176427	0.134635
H66	H	1.111485	-0.295309	-0.000052
H67	H	0.836243	-0.261457	-0.000059
H68	H	1.163557	-0.524791	-0.000057
H69	H	0.857840	0.078933	0.555735
H70	H	1.150147	-0.672743	-0.000061
H71	H	0.849644	-0.113503	-0.000050
H72	H	0.900852	-0.394930	-0.000056
H73	H	0.547652	0.176406	-0.134778
H74	H	0.437954	0.243322	-0.000132
