data_functionalizedCrystal
_audit_creation_method	'MofGen! by Chris Wilmer'
_symmetry_space_group_name_H-M	'P1'
_symmetry_Int_Tables_number	1
_symmetry_cell_setting	triclinic
loop_
_symmetry_equiv_pos_as_xyz
  x,y,z
_cell_length_a	16.109301
_cell_length_b	16.109295
_cell_length_c	14.586319
_cell_angle_alpha	90.000675
_cell_angle_beta	89.998857
_cell_angle_gamma	96.539615
loop_
_atom_site_label
_atom_site_type_symbol
_atom_site_fract_x
_atom_site_fract_y
_atom_site_fract_z
O1	O	1.103129	-0.106867	-0.076184
O2	O	1.436462	0.226466	0.257150
O3	O	1.769795	0.559799	0.590483
O4	O	0.861066	-0.120167	-0.076196
O5	O	1.194400	0.213167	0.257138
O6	O	1.527733	0.546500	0.590471
O7	O	0.988750	0.007514	-0.076190
O8	O	1.322083	0.340848	0.257143
O9	O	1.655416	0.674181	0.590476
O10	O	0.975445	-0.234548	-0.076189
O11	O	1.308779	0.098785	0.257145
O12	O	1.642112	0.432118	0.590478
O13	O	0.988741	0.007516	0.076290
O14	O	1.322074	0.340850	0.409624
O15	O	1.655407	0.674183	0.742957
O16	O	0.861057	-0.120165	0.076285
O17	O	1.194391	0.213169	0.409618
O18	O	1.527724	0.546502	0.742952
O19	O	1.103120	-0.106865	0.076297
O20	O	1.436453	0.226468	0.409631
O21	O	1.769786	0.559801	0.742964
Cu22	Cu	0.982088	-0.113515	0.090214
Cu23	Cu	1.315421	0.219818	0.423547
Cu24	Cu	1.648754	0.553152	0.756881
Cu25	Cu	0.982098	-0.113517	-0.090112
Cu26	Cu	1.315432	0.219816	0.243221
Cu27	Cu	1.648765	0.553150	0.576554
O28	O	0.975436	-0.234546	0.076292
O29	O	1.308770	0.098787	0.409625
O30	O	1.642103	0.432120	0.742959
C31	C	0.830087	-0.119627	0.000043
C32	C	1.163420	0.213706	0.333376
C33	C	1.496754	0.547040	0.666710
C34	C	0.737792	-0.118012	0.000038
C35	C	1.071125	0.215322	0.333372
C36	C	1.404458	0.548655	0.666705
C37	C	0.988207	0.038490	0.000048
C38	C	1.321540	0.371824	0.333381
C39	C	1.654874	0.705157	0.666714
C40	C	0.986594	0.130786	0.000041
C41	C	1.319927	0.464119	0.333374
C42	C	1.653260	0.797452	0.666707
C43	C	0.428792	-0.188495	0.000055
C44	C	0.762125	0.144838	0.333388
C45	C	1.095459	0.478172	0.666721
C46	C	0.515512	-0.190020	0.000049
C47	C	0.848846	0.143313	0.333383
C48	C	1.182179	0.476646	0.666716
C49	C	0.535389	-0.038531	0.000036
C50	C	0.868722	0.294802	0.333369
C51	C	1.202055	0.628136	0.666703
C52	C	0.448670	-0.037007	0.000035
C53	C	0.782003	0.296327	0.333368
C54	C	1.115337	0.629660	0.666702
C55	C	0.395374	-0.111991	0.000049
C56	C	0.728707	0.221342	0.333382
C57	C	1.062040	0.554676	0.666715
C58	C	0.568812	-0.115041	0.000045
C59	C	0.902146	0.218292	0.333378
C60	C	1.235479	0.551626	0.666711
C61	C	0.662838	-0.116694	0.000039
C62	C	0.996172	0.216639	0.333372
C63	C	1.329505	0.549972	0.666706
C64	C	0.301342	-0.110338	0.000053
C65	C	0.634675	0.222995	0.333386
C66	C	0.968008	0.556329	0.666720
C67	C	1.134099	-0.107405	0.000056
C68	C	1.467432	0.225928	0.333390
C69	C	1.800766	0.559262	0.666723
C70	C	1.226394	-0.109020	0.000055
C71	C	1.559728	0.224313	0.333389
C72	C	1.893061	0.557646	0.666722
N73	N	0.982086	-0.113513	0.217046
N74	N	1.315420	0.219821	0.550379
N75	N	1.648753	0.553154	0.883712
C76	C	1.058606	0.353059	0.000011
C77	C	1.391939	0.686392	0.333344
C78	C	1.725273	1.019725	0.666677
C79	C	1.057084	0.439779	-0.000004
C80	C	1.390417	0.773113	0.333329
C81	C	1.723750	1.106446	0.666662
C82	C	0.905594	0.419905	-0.000007
C83	C	1.238928	0.753238	0.333326
C84	C	1.572261	1.086572	0.666659
C85	C	0.907118	0.333186	0.000001
C86	C	1.240451	0.666519	0.333335
C87	C	1.573784	0.999853	0.666668
C88	C	0.983626	0.299766	0.000015
C89	C	1.316959	0.633099	0.333348
C90	C	1.650292	0.966432	0.666682
C91	C	0.980580	0.473205	-0.000009
C92	C	1.313914	0.806538	0.333324
C93	C	1.647247	1.139872	0.666658
C94	C	0.978929	0.567231	-0.000025
C95	C	1.312263	0.900565	0.333308
C96	C	1.645596	1.233898	0.666641
C97	C	0.985277	0.205733	0.000030
C98	C	1.318611	0.539067	0.333363
C99	C	1.651944	0.872400	0.666696
C100	C	0.975984	0.734478	0.000030
C101	C	1.309317	1.067812	0.333363
C102	C	1.642651	1.401145	0.666697
C103	C	0.977612	0.642185	-0.000035
C104	C	1.310946	0.975518	0.333299
C105	C	1.644279	1.308852	0.666632
N106	N	0.982106	-0.113513	-0.216944
N107	N	1.315439	0.219821	0.116389
N108	N	1.648773	0.553154	0.449723
C109	C	1.038643	-0.056995	0.452054
C110	C	1.371977	0.276339	0.785388
C111	C	1.705310	0.609672	1.118721
C112	C	1.038646	-0.056993	0.548036
C113	C	1.371979	0.276341	0.881369
C114	C	1.705312	0.609674	1.214702
C115	C	0.925543	-0.170033	0.548041
C116	C	1.258877	0.163300	0.881374
C117	C	1.592210	0.496633	1.214707
C118	C	0.925538	-0.170031	0.452061
C119	C	1.258871	0.163302	0.785394
C120	C	1.592204	0.496636	1.118728
C121	C	0.982092	-0.113512	0.404070
C122	C	1.315426	0.219821	0.737404
C123	C	1.648759	0.553154	1.070737
C124	C	0.982100	-0.113513	0.596031
C125	C	1.315434	0.219820	0.929365
C126	C	1.648767	0.553154	1.262698
C127	C	0.982103	-0.113511	0.700098
C128	C	1.315436	0.219822	1.033432
C129	C	1.648769	0.553155	1.366765
C130	C	0.982089	-0.113513	0.299997
C131	C	1.315423	0.219820	0.633330
C132	C	1.648756	0.553154	0.966663
H133	H	0.385400	-0.249552	0.000066
H134	H	0.718733	0.083781	0.333399
H135	H	1.052067	0.417115	0.666732
H136	H	1.120904	0.325851	0.000020
H137	H	1.454237	0.659184	0.333353
H138	H	1.787570	0.992518	0.666687
C139	C	0.757218	0.322244	0.000007
C140	C	1.090551	0.655577	0.333340
C141	C	1.423884	0.988911	0.666674
C142	C	0.824693	0.274599	0.000009
C143	C	1.158026	0.607932	0.333343
C144	C	1.491359	0.941265	0.666676
H145	H	0.706336	0.286073	0.000015
H146	H	1.039669	0.619406	0.333348
H147	H	1.373003	0.952740	0.666682
H148	H	0.759773	0.356474	-0.053166
H149	H	1.093106	0.689808	0.280167
H150	H	1.426440	1.023141	0.613501
H151	H	0.759777	0.356488	0.053181
H152	H	1.093110	0.689821	0.386515
H153	H	1.426444	1.023154	0.719848
H154	H	0.822137	0.240360	-0.053169
H155	H	1.155470	0.573693	0.280164
H156	H	1.488804	0.907026	0.613498
H157	H	0.822136	0.240354	0.053188
H158	H	1.155469	0.573687	0.386521
H159	H	1.488803	0.907021	0.719854
C160	C	1.150432	0.054748	0.461694
C161	C	1.483766	0.388081	0.795027
C162	C	1.817099	0.721414	1.128360
C163	C	1.100799	0.005137	0.399302
C164	C	1.434132	0.338471	0.732636
C165	C	1.767466	0.671804	1.065969
H166	H	1.188800	0.093110	0.429127
H167	H	1.522133	0.426444	0.762460
H168	H	1.855467	0.759777	1.095793
H169	H	1.180329	0.020131	0.499121
H170	H	1.513662	0.353465	0.832455
H171	H	1.846996	0.686798	1.165788
H172	H	1.115826	0.084658	0.499137
H173	H	1.449159	0.417991	0.832470
H174	H	1.782492	0.751324	1.165803
H175	H	1.135405	-0.024778	0.361864
H176	H	1.468739	0.308556	0.695197
H177	H	1.802072	0.641889	1.028530
H178	H	1.070900	0.039758	0.361859
H179	H	1.404233	0.373091	0.695192
H180	H	1.737567	0.706425	1.028526
C181	C	1.056732	0.056157	0.655965
C182	C	1.390066	0.389490	0.989298
C183	C	1.723399	0.722824	1.322632
C184	C	1.100810	0.005133	0.600779
C185	C	1.434143	0.338467	0.934112
C186	C	1.767476	0.671800	1.267445
H187	H	1.095113	0.094516	0.688521
H188	H	1.428446	0.427850	1.021854
H189	H	1.761779	0.761183	1.355187
H190	H	1.023064	0.022499	0.698282
H191	H	1.356398	0.355832	1.031615
H192	H	1.689731	0.689166	1.364948
H193	H	1.022137	0.086071	0.618514
H194	H	1.355471	0.419404	0.951848
H195	H	1.688804	0.752738	1.285181
H196	H	1.135400	-0.024785	0.638230
H197	H	1.468733	0.308548	0.971563
H198	H	1.802067	0.641881	1.304897
H199	H	1.134492	0.038796	0.558457
H200	H	1.467826	0.372129	0.891790
H201	H	1.801159	0.705462	1.225124
H202	H	0.879499	-0.216051	0.587124
H203	H	1.212832	0.117283	0.920457
H204	H	1.546165	0.450616	1.253791
H205	H	0.879483	-0.216055	0.412990
H206	H	1.212816	0.117279	0.746323
H207	H	1.546150	0.450612	1.079656
C208	C	1.206975	0.450708	0.000013
C209	C	1.540308	0.784041	0.333346
C210	C	1.873641	1.117374	0.666680
C211	C	1.139504	0.498359	-0.000003
C212	C	1.472838	0.831693	0.333331
C213	C	1.806171	1.165026	0.666664
H214	H	1.257859	0.486874	0.000019
H215	H	1.591192	0.820208	0.333352
H216	H	1.924526	1.153541	0.666686
H217	H	1.204422	0.416467	-0.053153
H218	H	1.537755	0.749800	0.280181
H219	H	1.871088	1.083134	0.613514
H220	H	1.204406	0.416474	0.053195
H221	H	1.537740	0.749807	0.386528
H222	H	1.871073	1.083141	0.719861
H223	H	1.142069	0.532589	-0.053188
H224	H	1.475403	0.865922	0.280145
H225	H	1.808736	1.199255	0.613479
H226	H	1.142059	0.532614	0.053168
H227	H	1.475392	0.865948	0.386502
H228	H	1.808725	1.199281	0.719835
H229	H	0.542717	-0.252317	0.000054
H230	H	0.876050	0.081016	0.333387
H231	H	1.209383	0.414349	0.666720
C232	C	0.677149	0.026397	0.000044
C233	C	1.010482	0.359730	0.333377
C234	C	1.343815	0.693064	0.666710
C235	C	0.593975	0.043889	0.000034
C236	C	0.927308	0.377222	0.333368
C237	C	1.260641	0.710555	0.666701
H238	H	0.713314	0.077282	0.000051
H239	H	1.046648	0.410615	0.333384
H240	H	1.379981	0.743949	0.666717
H241	H	0.687277	-0.004970	-0.053125
H242	H	1.020610	0.328364	0.280208
H243	H	1.353944	0.661697	0.613542
H244	H	0.687265	-0.004973	0.053222
H245	H	1.020598	0.328360	0.386556
H246	H	1.353931	0.661693	0.719889
H247	H	0.583857	0.075254	-0.053148
H248	H	0.917190	0.408588	0.280185
H249	H	1.250524	0.741921	0.613518
H250	H	0.583843	0.075269	0.053208
H251	H	0.917176	0.408602	0.386541
H252	H	1.250509	0.741935	0.719875
C253	C	0.816003	0.505901	-0.078398
C254	C	1.149337	0.839234	0.254936
C255	C	1.482670	1.172567	0.588269
C256	C	0.821501	0.456648	-0.000012
C257	C	1.154835	0.789981	0.333321
C258	C	1.488168	1.123315	0.666655
H259	H	0.764088	0.528586	-0.078394
H260	H	1.097422	0.861920	0.254940
H261	H	1.430755	1.195253	0.588273
H262	H	0.819741	0.472479	-0.131559
H263	H	1.153074	0.805812	0.201774
H264	H	1.486407	1.139146	0.535108
H265	H	0.860446	0.550049	-0.078391
H266	H	1.193780	0.883382	0.254943
H267	H	1.527113	1.216715	0.588276
H268	H	0.777061	0.412496	-0.000023
H269	H	1.110395	0.745829	0.333311
H270	H	1.443728	1.079163	0.666644
H271	H	0.817755	0.490071	0.053163
H272	H	1.151089	0.823405	0.386496
H273	H	1.484422	1.156738	0.719830
C274	C	0.477021	0.112588	0.000031
C275	C	0.810355	0.445921	0.333365
C276	C	1.143688	0.779254	0.666698
C277	C	0.411930	0.047093	0.000032
C278	C	0.745264	0.380427	0.333365
C279	C	1.078597	0.713760	0.666698
H280	H	0.454337	0.164503	0.000033
H281	H	0.787671	0.497837	0.333366
H282	H	1.121004	0.831170	0.666699
H283	H	0.510431	0.108841	-0.053138
H284	H	0.843765	0.442174	0.280196
H285	H	1.177098	0.775508	0.613529
H286	H	0.510431	0.108842	0.053210
H287	H	0.843764	0.442175	0.386543
H288	H	1.177098	0.775509	0.719876
H289	H	0.378524	0.050835	-0.053150
H290	H	0.711857	0.384169	0.280183
H291	H	1.045191	0.717502	0.613516
H292	H	0.378506	0.050842	0.053206
H293	H	0.711840	0.384175	0.386539
H294	H	1.045173	0.717508	0.719873
