data_functionalizedCrystal
_audit_creation_method	'MofGen! by Chris Wilmer'
_symmetry_space_group_name_H-M	'P1'
_symmetry_Int_Tables_number	1
_symmetry_cell_setting	triclinic
loop_
_symmetry_equiv_pos_as_xyz
  x,y,z
_cell_length_a	19.805407
_cell_length_b	29.839131
_cell_length_c	19.805399
_cell_angle_alpha	89.970435
_cell_angle_beta	89.980427
_cell_angle_gamma	90.041420
loop_
_atom_site_label
_atom_site_type_symbol
_atom_site_fract_x
_atom_site_fract_y
_atom_site_fract_z
Zn1	Zn	1.034665	-0.178864	-0.382710
Zn2	Zn	1.534665	0.321136	0.117290
Zn3	Zn	1.034550	-0.253991	-0.269518
Zn4	Zn	1.534550	0.246009	0.230482
Zn5	Zn	0.921480	-0.178876	-0.269535
Zn6	Zn	1.421480	0.321124	0.230465
Zn7	Zn	0.921414	-0.253967	-0.382665
Zn8	Zn	1.421414	0.246033	0.117335
O9	O	0.978027	-0.216425	-0.326107
O10	O	1.478027	0.283575	0.173893
O11	O	1.129366	-0.188834	-0.367707
O12	O	1.629366	0.311166	0.132293
O13	O	1.019531	-0.244042	-0.174804
O14	O	1.519531	0.255958	0.325196
O15	O	0.936570	-0.116007	-0.284574
O16	O	1.436570	0.383993	0.215426
O17	O	1.129282	-0.244030	-0.284545
O18	O	1.629282	0.255970	0.215455
O19	O	1.019727	-0.115998	-0.367723
O20	O	1.519727	0.384002	0.132277
O21	O	0.936458	-0.188856	-0.174816
O22	O	1.436458	0.311144	0.325184
O23	O	0.826754	-0.188832	-0.284530
O24	O	1.326754	0.311168	0.215470
O25	O	0.936457	-0.243990	-0.477388
O26	O	1.436457	0.256010	0.022612
O27	O	0.826706	-0.244002	-0.367646
O28	O	1.326706	0.255998	0.132354
O29	O	1.019662	-0.188811	-0.477421
O30	O	1.519662	0.311189	0.022579
O31	O	1.019467	-0.316855	-0.284501
O32	O	1.519467	0.183145	0.215499
O33	O	0.936346	-0.316838	-0.367630
O34	O	1.436346	0.183162	0.132370
C35	C	0.802171	-0.216416	-0.326085
C36	C	1.302171	0.283584	0.173915
C37	C	0.726939	-0.216423	-0.326092
C38	C	1.226939	0.283577	0.173908
C39	C	0.691587	-0.245193	-0.369300
C40	C	1.191587	0.254807	0.130700
C41	C	0.620899	-0.245194	-0.369310
C42	C	1.120899	0.254806	0.130690
C43	C	0.585564	-0.216427	-0.326107
C44	C	1.085564	0.283573	0.173893
C45	C	0.620920	-0.187654	-0.282897
C46	C	1.120920	0.312346	0.217103
C47	C	0.691607	-0.187651	-0.282891
C48	C	1.191607	0.312349	0.217109
C49	C	0.335847	-0.187664	-0.282919
C50	C	0.835847	0.312336	0.217081
C51	C	0.265155	-0.187669	-0.282927
C52	C	0.765155	0.312331	0.217073
C53	C	0.265139	-0.245207	-0.369338
C54	C	0.765139	0.254793	0.130662
C55	C	0.335826	-0.245204	-0.369332
C56	C	0.835826	0.254796	0.130668
C57	C	0.371176	-0.216429	-0.326125
C58	C	0.871176	0.283571	0.173875
C59	C	0.447825	-0.216428	-0.326116
C60	C	0.947825	0.283572	0.173884
C61	C	0.508916	-0.216430	-0.326112
C62	C	1.008916	0.283570	0.173888
C63	C	0.977905	-0.333147	-0.326073
C64	C	1.477905	0.166853	0.173927
C65	C	0.977915	-0.383082	-0.326082
C66	C	1.477915	0.116918	0.173918
C67	C	1.021387	-0.692722	-0.282885
C68	C	1.521387	-0.192722	0.217115
C69	C	1.021471	-0.880395	-0.282912
C70	C	1.521471	-0.380395	0.217088
O71	O	1.058335	-0.904656	-0.246159
O72	O	1.558335	-0.404656	0.253841
N73	N	0.978168	-0.903867	-0.326158
N74	N	1.478168	-0.403867	0.173842
C75	C	0.934844	-0.880418	-0.369404
C76	C	1.434844	-0.380418	0.130596
O77	O	0.898019	-0.904688	-0.406194
O78	O	1.398019	-0.404688	0.093806
C79	C	0.934764	-0.692746	-0.369381
C80	C	1.434764	-0.192746	0.130619
C81	C	0.978065	-0.669276	-0.326127
C82	C	1.478065	-0.169276	0.173873
C83	C	1.064685	-0.669252	-0.239635
C84	C	1.564685	-0.169252	0.260365
C85	C	1.064661	-0.622336	-0.239626
C86	C	1.564661	-0.122336	0.260374
C87	C	1.021339	-0.598891	-0.282868
C88	C	1.521339	-0.098891	0.217132
C89	C	0.978041	-0.622360	-0.326118
C90	C	1.478041	-0.122360	0.173882
C91	C	0.891444	-0.669297	-0.412630
C92	C	1.391444	-0.169297	0.087370
C93	C	0.891429	-0.622376	-0.412621
C94	C	1.391429	-0.122376	0.087379
C95	C	0.934730	-0.598907	-0.369367
C96	C	1.434730	-0.098907	0.130633
C97	C	0.934695	-0.551999	-0.369351
C98	C	1.434695	-0.051999	0.130649
N99	N	0.977998	-0.528527	-0.326104
N100	N	1.477998	-0.028527	0.173896
C101	C	1.021320	-0.551973	-0.282863
C102	C	1.521320	-0.051973	0.217137
C103	C	0.934888	-0.978948	-0.369412
C104	C	1.434888	-0.478948	0.130588
C105	C	0.934907	-1.025866	-0.369418
C106	C	1.434907	-0.525866	0.130582
C107	C	1.021534	-1.025840	-0.282926
C108	C	1.521534	-0.525840	0.217074
C109	C	1.021512	-0.978921	-0.282918
C110	C	1.521512	-0.478921	0.217082
C111	C	0.978191	-0.955476	-0.326166
C112	C	1.478191	-0.455476	0.173834
C113	C	1.021266	-0.453447	-0.282847
C114	C	1.521266	0.046553	0.217153
C115	C	1.021237	-0.406527	-0.282840
C116	C	1.521237	0.093473	0.217160
C117	C	0.934611	-0.406558	-0.369334
C118	C	1.434611	0.093442	0.130666
C119	C	0.934638	-0.453473	-0.369339
C120	C	1.434638	0.046527	0.130661
C121	C	0.977971	-0.476917	-0.326093
C122	C	1.477971	0.023083	0.173907
O123	O	0.897855	-0.527708	-0.406090
O124	O	1.397855	-0.027708	0.093910
O125	O	1.058150	-0.527694	-0.246090
O126	O	1.558150	-0.027694	0.253910
C127	C	1.021411	-0.739637	-0.282894
C128	C	1.521411	-0.239637	0.217106
C129	C	0.978113	-0.763107	-0.326144
C130	C	1.478113	-0.263107	0.173856
C131	C	0.934791	-0.739661	-0.369386
C132	C	1.434791	-0.239661	0.130614
C133	C	0.978132	-0.810025	-0.326149
C134	C	1.478132	-0.310025	0.173851
C135	C	1.021454	-0.833470	-0.282908
C136	C	1.521454	-0.333470	0.217092
C137	C	1.064757	-0.809998	-0.239661
C138	C	1.564757	-0.309998	0.260339
C139	C	1.064733	-0.763083	-0.239653
C140	C	1.564733	-0.263083	0.260347
C141	C	0.891488	-0.763133	-0.412632
C142	C	1.391488	-0.263133	0.087368
C143	C	0.891515	-0.810049	-0.412637
C144	C	1.391515	-0.310049	0.087363
C145	C	0.934837	-0.833494	-0.369395
C146	C	1.434837	-0.333494	0.130605
C147	C	1.154570	-0.216434	-0.326129
C148	C	1.654570	0.283566	0.173871
C149	C	1.229802	-0.216437	-0.326139
C150	C	1.729802	0.283563	0.173861
C151	C	0.978065	-0.216396	-0.502650
C152	C	1.478065	0.283604	-0.002650
C153	C	0.978081	-0.216384	-0.577882
C154	C	1.478081	0.283616	-0.077882
C155	C	0.978168	-0.099246	-0.326156
C156	C	1.478168	0.400754	0.173844
C157	C	0.978228	-0.049312	-0.326176
C158	C	1.478228	0.450688	0.173824
C159	C	1.021407	-0.187652	-0.613244
C160	C	1.521407	0.312348	-0.113244
C161	C	1.021414	-0.187638	-0.683933
C162	C	1.521414	0.312362	-0.183933
C163	C	0.978098	-0.216361	-0.719258
C164	C	1.478098	0.283639	-0.219258
C165	C	0.934767	-0.245095	-0.683890
C166	C	1.434767	0.254905	-0.183890
C167	C	0.934757	-0.245105	-0.613203
C168	C	1.434757	0.254895	-0.113203
C169	C	0.934806	-0.245053	-0.968963
C170	C	1.434806	0.254947	-0.468963
C171	C	0.934820	-0.245041	-1.039656
C172	C	1.434820	0.254959	-0.539656
C173	C	1.021462	-0.187586	-1.039694
C174	C	1.521462	0.312414	-0.539694
C175	C	1.021453	-0.187597	-0.969006
C176	C	1.521453	0.312403	-0.469006
C177	C	0.978120	-0.216329	-0.933645
C178	C	1.478120	0.283671	-0.433645
C179	C	0.978112	-0.216342	-0.856997
C180	C	1.478112	0.283658	-0.356997
C181	C	0.978109	-0.216350	-0.795905
C182	C	1.478109	0.283650	-0.295905
C183	C	0.978028	-0.216420	-0.150251
C184	C	1.478028	0.283580	0.349749
C185	C	0.978143	-0.216306	-0.075019
C186	C	1.478143	0.283694	0.424981
H187	H	1.056554	-0.472529	-0.247634
H188	H	1.556554	0.027471	0.252366
C189	C	1.030954	-0.926191	-0.191869
C190	C	1.530954	-0.426191	0.308131
C191	C	1.069112	-0.953126	-0.235375
C192	C	1.569112	-0.453126	0.264625
H193	H	1.060343	-0.910270	-0.162515
H194	H	1.560343	-0.410270	0.337485
H195	H	1.005161	-0.905511	-0.217620
H196	H	1.505161	-0.405511	0.282380
H197	H	1.001486	-0.944528	-0.165957
H198	H	1.501486	-0.444528	0.334043
H199	H	1.098576	-0.934788	-0.261290
H200	H	1.598576	-0.434788	0.238710
H201	H	1.094916	-0.973808	-0.209620
H202	H	1.594916	-0.473808	0.290380
C203	C	0.156802	-0.162137	-0.244551
C204	C	0.656802	0.337863	0.255449
C205	C	0.226312	-0.156051	-0.235427
C206	C	0.726312	0.343949	0.264573
H207	H	0.132823	-0.142623	-0.215222
H208	H	0.632823	0.357377	0.284778
H209	H	0.145243	-0.155599	-0.290040
H210	H	0.645243	0.344401	0.209960
H211	H	0.145200	-0.192318	-0.234567
H212	H	0.645200	0.307682	0.265433
H213	H	0.237915	-0.125871	-0.245416
H214	H	0.737915	0.374129	0.254584
H215	H	0.237876	-0.162587	-0.189929
H216	H	0.737876	0.337413	0.310071
C217	C	1.054536	-0.111509	-1.061486
C218	C	1.554536	0.388491	-0.561486
C219	C	1.069091	-0.155997	-1.078563
C220	C	1.569091	0.344003	-0.578563
H221	H	1.083944	-0.092010	-1.085479
H222	H	1.583944	0.407990	-0.585479
H223	H	1.009076	-0.104932	-1.073069
H224	H	1.509076	0.395068	-0.573069
H225	H	1.060730	-0.107413	-1.014331
H226	H	1.560730	0.392587	-0.514331
H227	H	1.062893	-0.160094	-1.125718
H228	H	1.562893	0.339906	-0.625718
H229	H	1.114563	-0.162577	-1.066985
H230	H	1.614563	0.337423	-0.566985
H231	H	1.099922	-0.603230	-0.204407
H232	H	1.599922	-0.103230	0.295593
H233	H	0.899640	-1.044971	-0.404633
H234	H	1.399640	-0.544971	0.095367
C235	C	1.059866	-0.162153	-0.504905
C236	C	1.559866	0.337847	-0.004905
C237	C	1.069020	-0.156077	-0.574418
C238	C	1.569020	0.343923	-0.074418
H239	H	1.089263	-0.142661	-0.480938
H240	H	1.589263	0.357339	0.019062
H241	H	1.014400	-0.155579	-0.493319
H242	H	1.514400	0.344421	0.006681
H243	H	1.069738	-0.192341	-0.493315
H244	H	1.569738	0.307659	0.006685
H245	H	1.059143	-0.125890	-0.586010
H246	H	1.559143	0.374110	-0.086010
H247	H	1.114497	-0.162649	-0.586009
H248	H	1.614497	0.337351	-0.086009
C249	C	0.684528	-0.130783	-0.197465
C250	C	1.184528	0.369217	0.302535
C251	C	0.730469	-0.156030	-0.235389
C252	C	1.230469	0.343970	0.264611
H253	H	0.708521	-0.111263	-0.168136
H254	H	1.208521	0.388737	0.331864
H255	H	0.656990	-0.113624	-0.227003
H256	H	1.156990	0.386376	0.272997
H257	H	0.656924	-0.150341	-0.171527
H258	H	1.156924	0.349659	0.328473
H259	H	0.758069	-0.136472	-0.261331
H260	H	1.258069	0.363528	0.238669
H261	H	0.758018	-0.173190	-0.205847
H262	H	1.258018	0.326810	0.294153
C263	C	0.843809	-0.926246	-0.378730
C264	C	1.343809	-0.426246	0.121270
C265	C	0.887261	-0.953179	-0.416950
C266	C	1.387261	-0.453179	0.083050
H267	H	0.814409	-0.910337	-0.408077
H268	H	1.314409	-0.410337	0.091923
H269	H	0.817951	-0.944578	-0.349220
H270	H	1.317951	-0.444578	0.150780
H271	H	0.869602	-0.905551	-0.352980
H272	H	1.369602	-0.405551	0.147020
H273	H	0.861469	-0.973876	-0.442696
H274	H	1.361469	-0.473876	0.057304
H275	H	0.913122	-0.934845	-0.446471
H276	H	1.413122	-0.434845	0.053529
C277	C	0.849012	-0.448784	-0.454836
C278	C	1.349012	0.051216	0.045164
C279	C	0.887042	-0.479274	-0.416884
C280	C	1.387042	0.020726	0.083116
H281	H	0.819636	-0.464711	-0.484195
H282	H	1.319636	0.035289	0.015805
H283	H	0.823127	-0.430520	-0.425317
H284	H	1.323127	0.069480	0.074683
H285	H	0.878486	-0.430448	-0.480743
H286	H	1.378486	0.069552	0.019257
H287	H	0.857569	-0.497608	-0.390973
H288	H	1.357569	0.002392	0.109027
H289	H	0.912929	-0.497546	-0.446406
H290	H	1.412929	0.002454	0.053594
C291	C	0.243410	-0.267193	-0.483897
C292	C	0.743410	0.232807	0.016103
C293	C	0.226279	-0.276831	-0.416843
C294	C	0.726279	0.223169	0.083157
H295	H	0.219423	-0.286718	-0.513221
H296	H	0.719423	0.213282	-0.013221
H297	H	0.231858	-0.237020	-0.493881
H298	H	0.731858	0.262980	0.006119
H299	H	0.290566	-0.271310	-0.490064
H300	H	0.790566	0.228690	0.009936
H301	H	0.179123	-0.272711	-0.410674
H302	H	0.679123	0.227289	0.089326
H303	H	0.237826	-0.307011	-0.406854
H304	H	0.737826	0.192989	0.093146
H305	H	0.720352	-0.268620	-0.404479
H306	H	1.220352	0.231380	0.095521
C307	C	0.512533	-0.270745	-0.407694
C308	C	1.012533	0.229255	0.092306
C309	C	0.582039	-0.276819	-0.416805
C310	C	1.082039	0.223181	0.083195
H311	H	0.488545	-0.290267	-0.437021
H312	H	0.988545	0.209733	0.062979
H313	H	0.500924	-0.277280	-0.362206
H314	H	1.000924	0.222720	0.137794
H315	H	0.500992	-0.240567	-0.417688
H316	H	1.000992	0.259433	0.082312
H317	H	0.593582	-0.306995	-0.406807
H318	H	1.093582	0.193005	0.093193
H319	H	0.593653	-0.270287	-0.462304
H320	H	1.093653	0.229713	0.037696
C321	C	1.107068	-0.130853	-0.676871
C322	C	1.607068	0.369147	-0.176871
C323	C	1.069044	-0.156057	-0.722803
C324	C	1.569044	0.343943	-0.222803
H325	H	1.136476	-0.111358	-0.700869
H326	H	1.636476	0.388642	-0.200869
H327	H	1.077598	-0.113670	-0.649303
H328	H	1.577598	0.386330	-0.149303
H329	H	1.132925	-0.150440	-0.649296
H330	H	1.632925	0.349560	-0.149296
H331	H	1.043183	-0.136471	-0.750375
H332	H	1.543183	0.363529	-0.250375
H333	H	1.098518	-0.173242	-0.750383
H334	H	1.598518	0.326758	-0.250383
H335	H	0.899544	-0.268431	-1.068415
H336	H	1.399544	0.231569	-0.568415
C337	C	0.925279	-0.305542	-0.533672
C338	C	1.425279	0.194458	-0.033672
C339	C	0.887138	-0.276690	-0.574323
C340	C	1.387138	0.223310	-0.074323
H341	H	0.895878	-0.325038	-0.509665
H342	H	1.395878	0.174962	-0.009665
H343	H	0.954743	-0.322725	-0.561247
H344	H	1.454743	0.177275	-0.061247
H345	H	0.951074	-0.288430	-0.502526
H346	H	1.451074	0.211570	-0.002526
H347	H	0.861347	-0.293802	-0.605472
H348	H	1.361347	0.206198	-0.105472
H349	H	0.857662	-0.259506	-0.546745
H350	H	1.357662	0.240494	-0.046745
H351	H	0.899531	-0.268455	-0.940181
H352	H	1.399531	0.231545	-0.440181
C353	C	1.150298	-0.664501	-0.154136
C354	C	1.650298	-0.164501	0.345864
C355	C	1.112306	-0.695018	-0.192094
C356	C	1.612306	-0.195018	0.307906
H357	H	1.179693	-0.680406	-0.124779
H358	H	1.679693	-0.180406	0.375221
H359	H	1.176163	-0.646176	-0.183651
H360	H	1.676163	-0.146176	0.316349
H361	H	1.120803	-0.646228	-0.128227
H362	H	1.620803	-0.146228	0.371773
H363	H	1.141802	-0.713288	-0.218008
H364	H	1.641802	-0.213288	0.281992
H365	H	1.086440	-0.713351	-0.162576
H366	H	1.586440	-0.213351	0.337424
C367	C	0.328753	-0.130789	-0.197505
C368	C	0.828753	0.369211	0.302495
C369	C	0.374698	-0.156036	-0.235425
C370	C	0.874698	0.343964	0.264575
H371	H	0.352742	-0.111264	-0.168182
H372	H	0.852742	0.388736	0.331818
H373	H	0.301211	-0.113636	-0.227047
H374	H	0.801211	0.386364	0.272953
H375	H	0.301154	-0.150347	-0.171563
H376	H	0.801154	0.349653	0.328437
H377	H	0.402294	-0.136478	-0.261372
H378	H	0.902294	0.363522	0.238628
H379	H	0.402252	-0.173190	-0.205880
H380	H	0.902252	0.326810	0.294120
H381	H	1.056727	-0.164209	-0.940249
H382	H	1.556727	0.335791	-0.440249
H383	H	1.056497	-0.387420	-0.247615
H384	H	1.556497	0.112580	0.252385
C385	C	0.415354	-0.251518	-0.460350
C386	C	0.915354	0.248482	0.039650
C387	C	0.374667	-0.276824	-0.416824
C388	C	0.874667	0.223176	0.083176
H389	H	0.439334	-0.271039	-0.489669
H390	H	0.939334	0.228961	0.010331
H391	H	0.387806	-0.231972	-0.486293
H392	H	0.887806	0.268028	0.013707
H393	H	0.446522	-0.234385	-0.434606
H394	H	0.946522	0.265615	0.065394
H395	H	0.343494	-0.293953	-0.442568
H396	H	0.843494	0.206047	0.057432
H397	H	0.402216	-0.296377	-0.390879
H398	H	0.902216	0.203623	0.109121
C399	C	0.512571	-0.162108	-0.244536
C400	C	1.012571	0.337892	0.255464
C401	C	0.582081	-0.156030	-0.235409
C402	C	1.082081	0.343970	0.264591
H403	H	0.488596	-0.142586	-0.215215
H404	H	0.988596	0.357414	0.284785
H405	H	0.501016	-0.155575	-0.290027
H406	H	1.001016	0.344425	0.209973
H407	H	0.500958	-0.192286	-0.234543
H408	H	1.000958	0.307714	0.265457
H409	H	0.593694	-0.125853	-0.245407
H410	H	1.093694	0.374147	0.254593
H411	H	0.593640	-0.162561	-0.189907
H412	H	1.093640	0.337439	0.310093
C413	C	1.060096	-1.097754	-0.244612
C414	C	1.560096	-0.597754	0.255388
C415	C	1.069207	-1.051617	-0.235445
C416	C	1.569207	-0.551617	0.264555
H417	H	1.089545	-1.113668	-0.215320
H418	H	1.589545	-0.613668	0.284680
H419	H	1.014650	-1.105489	-0.234612
H420	H	1.514650	-0.605489	0.265388
H421	H	1.069926	-1.105393	-0.290121
H422	H	1.569926	-0.605393	0.209879
H423	H	1.059372	-1.043977	-0.189937
H424	H	1.559372	-0.543977	0.310063
H425	H	1.114663	-1.043879	-0.245440
H426	H	1.614663	-0.543879	0.254560
C427	C	0.800408	-0.710434	-0.421939
C428	C	1.300408	-0.210434	0.078061
C429	C	0.843863	-0.737364	-0.460163
C430	C	1.343863	-0.237364	0.039837
H431	H	0.771006	-0.694525	-0.451284
H432	H	1.271006	-0.194525	0.048716
H433	H	0.774552	-0.728769	-0.392431
H434	H	1.274552	-0.228769	0.107569
H435	H	0.826199	-0.689740	-0.396187
H436	H	1.326199	-0.189740	0.103813
H437	H	0.818072	-0.758060	-0.485911
H438	H	1.318072	-0.258060	0.014089
H439	H	0.869721	-0.719027	-0.489682
H440	H	1.369721	-0.219027	0.010318
C441	C	0.896313	-0.270593	-0.792230
C442	C	1.396313	0.229407	-0.292230
C443	C	0.887153	-0.276668	-0.722717
C444	C	1.387153	0.223332	-0.222717
H445	H	0.866920	-0.290088	-0.816198
H446	H	1.366920	0.209912	-0.316198
H447	H	0.886444	-0.240410	-0.803823
H448	H	1.386444	0.259590	-0.303823
H449	H	0.941785	-0.277170	-0.803813
H450	H	1.441785	0.222830	-0.303813
H451	H	0.841681	-0.270087	-0.711134
H452	H	1.341681	0.229913	-0.211134
H453	H	0.897016	-0.306858	-0.711120
H454	H	1.397016	0.193142	-0.211120
H455	H	0.856248	-0.829154	-0.447859
H456	H	1.356248	-0.329154	0.052141
C457	C	0.805811	-0.627119	-0.498125
C458	C	1.305811	-0.127119	0.001875
C459	C	0.843808	-0.596607	-0.460163
C460	C	1.343808	-0.096607	0.039837
H461	H	0.776410	-0.611209	-0.527472
H462	H	1.276410	-0.111209	-0.027472
H463	H	0.835298	-0.645387	-0.524040
H464	H	1.335298	-0.145387	-0.024040
H465	H	0.779946	-0.645449	-0.468608
H466	H	1.279946	-0.145449	0.031392
H467	H	0.869677	-0.578279	-0.489681
H468	H	1.369677	-0.078279	0.010319
H469	H	0.814318	-0.578331	-0.434247
H470	H	1.314318	-0.078331	0.065753
H471	H	0.856180	-0.688398	-0.447849
H472	H	1.356180	-0.188398	0.052151
H473	H	0.899337	-0.387461	-0.404539
H474	H	1.399337	0.112539	0.095461
H475	H	1.099993	-0.743977	-0.204431
H476	H	1.599993	-0.243977	0.295569
H477	H	1.100029	-0.829096	-0.204451
H478	H	1.600029	-0.329096	0.295549
