data_functionalizedCrystal
_audit_creation_method	'MofGen! by Chris Wilmer'
_symmetry_space_group_name_H-M	'P1'
_symmetry_Int_Tables_number	1
_symmetry_cell_setting	triclinic
loop_
_symmetry_equiv_pos_as_xyz
  x,y,z
_cell_length_a	12.759401
_cell_length_b	25.639239
_cell_length_c	12.759393
_cell_angle_alpha	89.962948
_cell_angle_beta	89.981504
_cell_angle_gamma	90.038847
loop_
_atom_site_label
_atom_site_type_symbol
_atom_site_fract_x
_atom_site_fract_y
_atom_site_fract_z
Zn1	Zn	1.606080	-0.208118	-0.593941
Zn2	Zn	1.605901	-0.295564	-0.418245
Zn3	Zn	1.430382	-0.208145	-0.418281
Zn4	Zn	1.430297	-0.295524	-0.593886
O5	O	1.518165	-0.251838	-0.506088
O6	O	1.753078	-0.219723	-0.570643
O7	O	1.582579	-0.283996	-0.271228
O8	O	1.453799	-0.134976	-0.441621
O9	O	1.752946	-0.283970	-0.441559
O10	O	1.582884	-0.134956	-0.570678
O11	O	1.453626	-0.219770	-0.271255
O12	O	1.283350	-0.219731	-0.441567
O13	O	1.453655	-0.283901	-0.740914
O14	O	1.283288	-0.283928	-0.570584
O15	O	1.582802	-0.219684	-0.740955
O16	O	1.582496	-0.368724	-0.441505
O17	O	1.453481	-0.368695	-0.570549
C18	C	1.245198	-0.251828	-0.506074
C19	C	1.128421	-0.251837	-0.506093
C20	C	1.073554	-0.285318	-0.573160
C21	C	0.963830	-0.285324	-0.573172
C22	C	0.963850	-0.218368	-0.439039
C23	C	1.073572	-0.218359	-0.439033
C24	C	1.073542	-0.323976	-0.650598
C25	C	0.963818	-0.323983	-0.650609
C26	C	1.517989	-0.387680	-0.506040
C27	C	1.518009	-0.445795	-0.506055
C28	C	1.585519	-0.806160	-0.439010
C29	C	1.585560	-0.860765	-0.439024
O30	O	1.642775	-0.889004	-0.381967
N31	N	1.518350	-0.888077	-0.506158
C32	C	1.451103	-0.860782	-0.573289
O33	O	1.393940	-0.889027	-0.630394
C34	C	1.451068	-0.806179	-0.573280
C35	C	1.518275	-0.778869	-0.506134
C36	C	1.652721	-0.778851	-0.371870
C37	C	1.652678	-0.724250	-0.371855
C38	C	1.585434	-0.696959	-0.438980
C39	C	1.518232	-0.724269	-0.506119
C40	C	1.383827	-0.778885	-0.640416
C41	C	1.383799	-0.724278	-0.640401
C42	C	1.451005	-0.696968	-0.573256
C43	C	1.450946	-0.642377	-0.573228
N44	N	1.518155	-0.615065	-0.506094
C45	C	1.585399	-0.642356	-0.438970
C46	C	1.451182	-0.975453	-0.573306
C47	C	1.451210	-1.030055	-0.573311
C48	C	1.585669	-1.030034	-0.439046
C49	C	1.585634	-0.975430	-0.439037
C50	C	1.518391	-0.948140	-0.506172
C51	C	1.585305	-0.527691	-0.438943
C52	C	1.585253	-0.473086	-0.438930
C53	C	1.450799	-0.473111	-0.573198
C54	C	1.450846	-0.527712	-0.573207
C55	C	1.518108	-0.555000	-0.506076
O56	O	1.393762	-0.614103	-0.630258
O57	O	1.642562	-0.614104	-0.381885
C58	C	1.792198	-0.251848	-0.506103
C59	C	1.908975	-0.251852	-0.506109
C60	C	1.518239	-0.251785	-0.780122
C61	C	1.518270	-0.251763	-0.896898
C62	C	1.518371	-0.115465	-0.506159
C63	C	1.518459	-0.057351	-0.506190
C64	C	1.585526	-0.218322	-0.951783
C65	C	1.585551	-0.218303	-1.061507
C66	C	1.451061	-0.285170	-1.061452
C67	C	1.451032	-0.285186	-0.951730
C68	C	1.663176	-0.179718	-0.951816
C69	C	1.663201	-0.179699	-1.061540
C70	C	1.518152	-0.251853	-0.233121
C71	C	1.518325	-0.251728	-0.116345
H72	H	0.919178	-0.191111	-0.384442
C73	C	1.836004	-0.212153	-0.987579
C74	C	1.767476	-0.199305	-0.905854
H75	H	1.900395	-0.224243	-0.959201
H76	H	1.805568	-0.238769	-1.029450
H77	H	1.848537	-0.182158	-1.029501
H78	H	1.754937	-0.229301	-0.863936
H79	H	1.797918	-0.172687	-0.863965
C80	C	1.028480	-0.300556	-0.827147
C81	C	1.113805	-0.309395	-0.760490
H82	H	1.053339	-0.291551	-0.894984
H83	H	0.987097	-0.331287	-0.831461
H84	H	0.987145	-0.272829	-0.800207
H85	H	1.155135	-0.337124	-0.787426
H86	H	1.155205	-0.278660	-0.756179
C87	C	1.830680	-0.795534	-0.320871
C88	C	1.726677	-0.808822	-0.298076
H89	H	1.876344	-0.814025	-0.275301
H90	H	1.846014	-0.804465	-0.391461
H91	H	1.840217	-0.759099	-0.311294
H92	H	1.717137	-0.845256	-0.307661
H93	H	1.711337	-0.799894	-0.227469
C94	C	1.521237	-0.118570	-1.073603
C95	C	1.623955	-0.127760	-1.107515
H96	H	1.497010	-0.086505	-1.101981
H97	H	1.477143	-0.146146	-1.096578
H98	H	1.519900	-0.116820	-0.999250
H99	H	1.625291	-0.129515	-1.181869
H100	H	1.668060	-0.100178	-1.084546
C101	C	1.008854	-0.411767	-0.602997
C102	C	0.923538	-0.378631	-0.620984
H103	H	0.983984	-0.445502	-0.584702
H104	H	1.050231	-0.414004	-0.664723
H105	H	1.050197	-0.398272	-0.547351
H106	H	0.882199	-0.392124	-0.676635
H107	H	0.882144	-0.376396	-0.559249
H108	H	1.118241	-0.191092	-0.384427
H109	H	1.639981	-0.450852	-0.384249
H110	H	1.396046	-0.450883	-0.627847
C111	C	1.718195	-0.522170	-0.306214
C112	C	1.659231	-0.557681	-0.365144
H113	H	1.763824	-0.540686	-0.260647
H114	H	1.758341	-0.500837	-0.352020
H115	H	1.672406	-0.500911	-0.265995
H116	H	1.705020	-0.578938	-0.405369
H117	H	1.619083	-0.579023	-0.319331
C118	C	1.703968	-0.707493	-0.193994
C119	C	1.726569	-0.694239	-0.298057
H120	H	1.749596	-0.688970	-0.148436
H121	H	1.633394	-0.698576	-0.178551
H122	H	1.713602	-0.743921	-0.184418
H123	H	1.716928	-0.657811	-0.307634
H124	H	1.797160	-0.703152	-0.313505
C125	C	1.542796	-0.128323	-0.850664
C126	C	1.633828	-0.125060	-0.911643
H127	H	1.524683	-0.094581	-0.825858
H128	H	1.487107	-0.141764	-0.892014
H129	H	1.554871	-0.150831	-0.792753
H130	H	1.621750	-0.102555	-0.969559
H131	H	1.689529	-0.111612	-0.870291
H132	H	1.396416	-0.953236	-0.627972
C133	C	1.718539	-0.980907	-0.306324
C134	C	1.659516	-0.945415	-0.365235
H135	H	1.764156	-0.962377	-0.260767
H136	H	1.672794	-1.002239	-0.266106
H137	H	1.758708	-1.002169	-0.352151
H138	H	1.619340	-0.924154	-0.319408
H139	H	1.705266	-0.924074	-0.405457
H140	H	1.744563	-0.190544	-1.091316
C141	C	1.318304	-1.024578	-0.706023
C142	C	1.377329	-1.060070	-0.647113
H143	H	1.272700	-1.043107	-0.751594
H144	H	1.278130	-1.003321	-0.660204
H145	H	1.364057	-1.003239	-0.746237
H146	H	1.331576	-1.081406	-0.606893
H147	H	1.417506	-1.081335	-0.692938
C148	C	1.645555	-1.113732	-0.379594
C149	C	1.659681	-1.060039	-0.365354
H150	H	1.691274	-1.132256	-0.334131
H151	H	1.575017	-1.122740	-0.364071
H152	H	1.660813	-1.122615	-0.450235
H153	H	1.644416	-1.051156	-0.294714
H154	H	1.730235	-1.051028	-0.380869
C155	C	1.250945	-0.773398	-0.773147
C156	C	1.309957	-0.808894	-0.714233
H157	H	1.205345	-0.791924	-0.818726
H158	H	1.210768	-0.752142	-0.727330
H159	H	1.296706	-0.752060	-0.813352
H160	H	1.264196	-0.830229	-0.674022
H161	H	1.350138	-0.830159	-0.760056
H162	H	1.329043	-0.702061	-0.695074
H163	H	1.107524	-0.362421	-0.621306
C164	C	1.317942	-0.522245	-0.705926
C165	C	1.376973	-0.557734	-0.647013
H166	H	1.272348	-0.540778	-0.751502
H167	H	1.277758	-0.500993	-0.660109
H168	H	1.363691	-0.500903	-0.746135
H169	H	1.331224	-0.579074	-0.606798
H170	H	1.417161	-0.578995	-0.692836
C171	C	1.318077	-0.351269	-0.962701
C172	C	1.377085	-0.321937	-0.891399
H173	H	1.272425	-0.373958	-0.925453
H174	H	1.277953	-0.328476	-1.005514
H175	H	1.363836	-0.371270	-1.005481
H176	H	1.331326	-0.301933	-0.848624
H177	H	1.417211	-0.344732	-0.848569
H178	H	0.929832	-0.309529	-0.727964
H179	H	1.396316	-0.312382	-1.106109
