data_functionalizedCrystal
_audit_creation_method	'MofGen! by Chris Wilmer'
_symmetry_space_group_name_H-M	'P1'
_symmetry_Int_Tables_number	1
_symmetry_cell_setting	triclinic
loop_
_symmetry_equiv_pos_as_xyz
  x,y,z
_cell_length_a	18.215407
_cell_length_b	18.215405
_cell_length_c	18.215399
_cell_angle_alpha	89.972459
_cell_angle_beta	89.980167
_cell_angle_gamma	90.023180
loop_
_atom_site_label
_atom_site_type_symbol
_atom_site_fract_x
_atom_site_fract_y
_atom_site_fract_z
Zn1	Zn	1.125083	-0.292983	-0.416118
Zn2	Zn	1.375083	-0.042983	-0.166118
Zn3	Zn	1.625083	0.207017	0.083882
Zn4	Zn	1.875083	0.457017	0.333882
Zn5	Zn	1.124996	-0.416054	-0.293053
Zn6	Zn	1.374996	-0.166054	-0.043053
Zn7	Zn	1.624996	0.083946	0.206947
Zn8	Zn	1.874996	0.333946	0.456947
Zn9	Zn	1.002016	-0.293007	-0.293065
Zn10	Zn	1.252016	-0.043007	-0.043065
Zn11	Zn	1.502016	0.206993	0.206935
Zn12	Zn	1.752016	0.456993	0.456935
Zn13	Zn	1.001986	-0.416013	-0.416077
Zn14	Zn	1.251986	-0.166013	-0.166077
Zn15	Zn	1.501986	0.083987	0.083923
Zn16	Zn	1.751986	0.333987	0.333923
O17	O	1.063520	-0.354514	-0.354578
O18	O	1.313520	-0.104514	-0.104578
O19	O	1.563520	0.145486	0.145422
O20	O	1.813520	0.395486	0.395422
O21	O	1.228056	-0.309316	-0.399805
O22	O	1.478056	-0.059316	-0.149805
O23	O	1.728056	0.190684	0.100195
O24	O	1.978056	0.440684	0.350195
O25	O	1.108658	-0.399759	-0.190070
O26	O	1.358658	-0.149759	0.059930
O27	O	1.608658	0.100241	0.309930
O28	O	1.858658	0.350241	0.559930
O29	O	1.018389	-0.190020	-0.309411
O30	O	1.268389	0.059980	-0.059411
O31	O	1.518389	0.309980	0.190589
O32	O	1.768389	0.559980	0.440589
O33	O	1.227992	-0.399736	-0.309389
O34	O	1.477992	-0.149736	-0.059389
O35	O	1.727992	0.100264	0.190611
O36	O	1.977992	0.350264	0.440611
O37	O	1.108807	-0.190002	-0.399817
O38	O	1.358807	0.059998	-0.149817
O39	O	1.608807	0.309998	0.100183
O40	O	1.858807	0.559998	0.350183
O41	O	1.018305	-0.309357	-0.190079
O42	O	1.268305	-0.059357	0.059921
O43	O	1.518305	0.190643	0.309921
O44	O	1.768305	0.440643	0.559921
O45	O	0.899027	-0.309317	-0.309372
O46	O	1.149027	-0.059317	-0.059372
O47	O	1.399027	0.190683	0.190628
O48	O	1.649027	0.440683	0.440628
O49	O	1.018339	-0.399666	-0.519067
O50	O	1.268339	-0.149666	-0.269067
O51	O	1.518339	0.100334	-0.019067
O52	O	1.768339	0.350334	0.230933
O53	O	0.899006	-0.399689	-0.399748
O54	O	1.149006	-0.149689	-0.149748
O55	O	1.399006	0.100311	0.100252
O56	O	1.649006	0.350311	0.350252
O57	O	1.108778	-0.309276	-0.519097
O58	O	1.358778	-0.059276	-0.269097
O59	O	1.608778	0.190724	-0.019097
O60	O	1.858778	0.440724	0.230903
O61	O	1.108630	-0.519033	-0.309350
O62	O	1.358630	-0.269033	-0.059350
O63	O	1.608630	-0.019033	0.190650
O64	O	1.858630	0.230967	0.440650
O65	O	1.018255	-0.519003	-0.399736
O66	O	1.268255	-0.269003	-0.149736
O67	O	1.518255	-0.019003	0.100264
O68	O	1.768255	0.230997	0.350264
C69	C	0.872314	-0.354502	-0.354557
C70	C	1.122314	-0.104502	-0.104557
C71	C	1.372314	0.145498	0.145443
C72	C	1.622314	0.395498	0.395443
C73	C	0.790515	-0.354514	-0.354566
C74	C	1.040515	-0.104514	-0.104566
C75	C	1.290515	0.145486	0.145434
C76	C	1.540515	0.395486	0.395434
C77	C	1.063450	-0.545721	-0.354553
C78	C	1.313450	-0.295721	-0.104553
C79	C	1.563450	-0.045721	0.145447
C80	C	1.813450	0.204279	0.395447
C81	C	1.063487	-0.627520	-0.354567
C82	C	1.313487	-0.377520	-0.104567
C83	C	1.563487	-0.127520	0.145433
C84	C	1.813487	0.122480	0.395433
C85	C	0.602329	-0.401645	-0.401566
C86	C	0.852329	-0.151645	-0.151566
C87	C	1.102329	0.098355	0.098434
C88	C	1.352329	0.348355	0.348434
C89	C	0.525470	-0.401647	-0.401575
C90	C	0.775470	-0.151647	-0.151575
C91	C	1.025470	0.098353	0.098425
C92	C	1.275470	0.348353	0.348425
C93	C	0.525463	-0.307397	-0.307607
C94	C	0.775463	-0.057397	-0.057607
C95	C	1.025463	0.192603	0.192393
C96	C	1.275463	0.442603	0.442393
C97	C	0.602321	-0.307392	-0.307602
C98	C	0.852321	-0.057392	-0.057602
C99	C	1.102321	0.192608	0.192398
C100	C	1.352321	0.442608	0.442398
C101	C	0.640751	-0.354520	-0.354580
C102	C	0.890751	-0.104520	-0.104580
C103	C	1.140751	0.145480	0.145420
C104	C	1.390751	0.395480	0.395420
C105	C	0.487035	-0.354528	-0.354594
C106	C	0.737035	-0.104528	-0.104594
C107	C	0.987035	0.145472	0.145406
C108	C	1.237035	0.395472	0.395406
C109	C	0.403702	-0.354530	-0.354604
C110	C	0.653702	-0.104530	-0.104604
C111	C	0.903702	0.145470	0.145396
C112	C	1.153702	0.395470	0.395396
C113	C	0.724090	-0.354517	-0.354572
C114	C	0.974090	-0.104517	-0.104572
C115	C	1.224090	0.145483	0.145428
C116	C	1.474090	0.395483	0.395428
C117	C	1.110589	-0.815643	-0.401705
C118	C	1.360589	-0.565643	-0.151705
C119	C	1.610589	-0.315643	0.098295
C120	C	1.860589	-0.065643	0.348295
C121	C	1.110616	-0.892502	-0.401719
C122	C	1.360616	-0.642502	-0.151719
C123	C	1.610616	-0.392502	0.098281
C124	C	1.860616	-0.142502	0.348281
C125	C	1.016542	-0.892634	-0.307497
C126	C	1.266542	-0.642634	-0.057497
C127	C	1.516542	-0.392634	0.192503
C128	C	1.766542	-0.142634	0.442503
C129	C	1.016512	-0.815776	-0.307488
C130	C	1.266512	-0.565776	-0.057488
C131	C	1.516512	-0.315776	0.192512
C132	C	1.766512	-0.065776	0.442512
C133	C	1.063540	-0.777283	-0.354590
C134	C	1.313540	-0.527283	-0.104590
C135	C	1.563540	-0.277283	0.145410
C136	C	1.813540	-0.027283	0.395410
C137	C	1.063597	-0.930999	-0.354614
C138	C	1.313597	-0.680999	-0.104614
C139	C	1.563597	-0.430999	0.145386
C140	C	1.813597	-0.180999	0.395386
C141	C	1.063625	-1.014333	-0.354628
C142	C	1.313625	-0.764333	-0.104628
C143	C	1.563625	-0.514333	0.145372
C144	C	1.813625	-0.264333	0.395372
C145	C	1.063511	-0.693944	-0.354577
C146	C	1.313511	-0.443944	-0.104577
C147	C	1.563511	-0.193944	0.145423
C148	C	1.813511	0.056056	0.395423
C149	C	1.255473	-0.354528	-0.354600
C150	C	1.505473	-0.104528	-0.104600
C151	C	1.755473	0.145472	0.145400
C152	C	2.005473	0.395472	0.395400
C153	C	1.337272	-0.354533	-0.354609
C154	C	1.587272	-0.104533	-0.104609
C155	C	1.837272	0.145467	0.145391
C156	C	2.087272	0.395467	0.395391
C157	C	1.063565	-0.354464	-0.546531
C158	C	1.313565	-0.104464	-0.296531
C159	C	1.563565	0.145536	-0.046531
C160	C	1.813565	0.395536	0.203469
C161	C	1.063584	-0.354442	-0.628330
C162	C	1.313584	-0.104442	-0.378330
C163	C	1.563584	0.145558	-0.128330
C164	C	1.813584	0.395558	0.121670
C165	C	1.063611	-0.162561	-0.354620
C166	C	1.313611	0.087439	-0.104620
C167	C	1.563611	0.337439	0.145380
C168	C	1.813611	0.587439	0.395380
C169	C	1.063650	-0.080763	-0.354638
C170	C	1.313650	0.169237	-0.104638
C171	C	1.563650	0.419237	0.145362
C172	C	1.813650	0.669237	0.395362
C173	C	1.110692	-0.307332	-0.816541
C174	C	1.360692	-0.057332	-0.566541
C175	C	1.610692	0.192668	-0.316541
C176	C	1.860692	0.442668	-0.066541
C177	C	1.110701	-0.307311	-0.893400
C178	C	1.360701	-0.057311	-0.643400
C179	C	1.610701	0.192689	-0.393400
C180	C	1.860701	0.442689	-0.143400
C181	C	1.016528	-0.401438	-0.893358
C182	C	1.266528	-0.151438	-0.643358
C183	C	1.516528	0.098562	-0.393358
C184	C	1.766528	0.348562	-0.143358
C185	C	1.016516	-0.401455	-0.816500
C186	C	1.266516	-0.151455	-0.566500
C187	C	1.516516	0.098545	-0.316500
C188	C	1.766516	0.348545	-0.066500
C189	C	1.063602	-0.354403	-0.778094
C190	C	1.313602	-0.104403	-0.528094
C191	C	1.563602	0.145597	-0.278094
C192	C	1.813602	0.395597	-0.028094
C193	C	1.063623	-0.354365	-0.931810
C194	C	1.313623	-0.104365	-0.681810
C195	C	1.563623	0.145635	-0.431810
C196	C	1.813623	0.395635	-0.181810
C197	C	1.063632	-0.354342	-1.015144
C198	C	1.313632	-0.104342	-0.765144
C199	C	1.563632	0.145658	-0.515144
C200	C	1.813632	0.395658	-0.265144
C201	C	1.063592	-0.354425	-0.694755
C202	C	1.313592	-0.104425	-0.444755
C203	C	1.563592	0.145575	-0.194755
C204	C	1.813592	0.395575	0.055245
C205	C	1.063518	-0.354512	-0.163372
C206	C	1.313518	-0.104512	0.086628
C207	C	1.563518	0.145488	0.336628
C208	C	1.813518	0.395488	0.586628
C209	C	1.063641	-0.354326	-0.081574
C210	C	1.313641	-0.104326	0.168426
C211	C	1.563641	0.145674	0.418426
C212	C	1.813641	0.395674	0.668426
H213	H	0.633617	-0.440018	-0.439820
H214	H	0.883617	-0.190018	-0.189820
H215	H	1.133617	0.059982	0.060180
H216	H	1.383617	0.309982	0.310180
O217	O	0.965708	-0.452224	-0.775038
O218	O	1.215708	-0.202224	-0.525038
O219	O	1.465708	0.047776	-0.275038
O220	O	1.715708	0.297776	-0.025038
H221	H	0.998611	-0.489679	-0.740009
H222	H	1.248611	-0.239679	-0.490009
H223	H	1.498611	0.010321	-0.240009
H224	H	1.748611	0.260321	0.009991
O225	O	0.483987	-0.452477	-0.452217
O226	O	0.733987	-0.202477	-0.202217
O227	O	0.983987	0.047523	0.047783
O228	O	1.233987	0.297523	0.297783
H229	H	0.448947	-0.489845	-0.419174
H230	H	0.698947	-0.239845	-0.169174
H231	H	0.948947	0.010155	0.080826
H232	H	1.198947	0.260155	0.330826
H233	H	1.148881	-0.784304	-0.440060
H234	H	1.398881	-0.534304	-0.190060
H235	H	1.648881	-0.284304	0.059940
H236	H	1.898881	-0.034304	0.309940
O237	O	1.161483	-0.256535	-0.934872
O238	O	1.411483	-0.006535	-0.684872
O239	O	1.661483	0.243465	-0.434872
O240	O	1.911483	0.493465	-0.184872
H241	H	1.198911	-0.289462	-0.969898
H242	H	1.448911	-0.039462	-0.719898
H243	H	1.698911	0.210538	-0.469898
H244	H	1.948911	0.460538	-0.219898
O245	O	1.161360	-0.933880	-0.452535
O246	O	1.411360	-0.683880	-0.202535
O247	O	1.661360	-0.433880	0.047465
O248	O	1.911360	-0.183880	0.297465
H249	H	1.219122	-0.919099	-0.439962
H250	H	1.469122	-0.669099	-0.189962
H251	H	1.719122	-0.419099	0.060038
H252	H	1.969122	-0.169099	0.310038
O253	O	0.484014	-0.256592	-0.256914
O254	O	0.734014	-0.006592	-0.006914
O255	O	0.984014	0.243408	0.243086
O256	O	1.234014	0.493408	0.493086
H257	H	0.424115	-0.264524	-0.264798
H258	H	0.674115	-0.014524	-0.014798
H259	H	0.924115	0.235476	0.235202
H260	H	1.174115	0.485476	0.485202
O261	O	0.643771	-0.256573	-0.256912
O262	O	0.893771	-0.006573	-0.006912
O263	O	1.143771	0.243427	0.243088
O264	O	1.393771	0.493427	0.493088
H265	H	0.604137	-0.223814	-0.224234
H266	H	0.854137	0.026186	0.025766
H267	H	1.104137	0.276186	0.275766
H268	H	1.354137	0.526186	0.525766
H269	H	1.149031	-0.269017	-0.785273
H270	H	1.399031	-0.019017	-0.535273
H271	H	1.649031	0.230983	-0.285273
H272	H	1.899031	0.480983	-0.035273
H273	H	0.978255	-0.923984	-0.269147
H274	H	1.228255	-0.673984	-0.019147
H275	H	1.478255	-0.423984	0.230853
H276	H	1.728255	-0.173984	0.480853
O277	O	0.965771	-0.774393	-0.256663
O278	O	1.215771	-0.524393	-0.006663
O279	O	1.465771	-0.274393	0.243337
O280	O	1.715771	-0.024393	0.493337
H281	H	0.933084	-0.814070	-0.223901
H282	H	1.183084	-0.564070	0.026099
H283	H	1.433084	-0.314070	0.276099
H284	H	1.683084	-0.064070	0.526099
H285	H	0.978193	-0.439748	-0.924637
H286	H	1.228193	-0.189748	-0.674637
H287	H	1.478193	0.060252	-0.424637
H288	H	1.728193	0.310252	-0.174637
