data_functionalizedCrystal
_audit_creation_method	'MofGen! by Chris Wilmer'
_symmetry_space_group_name_H-M	'P1'
_symmetry_Int_Tables_number	1
_symmetry_cell_setting	triclinic
loop_
_symmetry_equiv_pos_as_xyz
  x,y,z
_cell_length_a	15.297475
_cell_length_b	15.297510
_cell_length_c	15.297908
_cell_angle_alpha	110.758068
_cell_angle_beta	107.359593
_cell_angle_gamma	88.372274
loop_
_atom_site_label
_atom_site_type_symbol
_atom_site_fract_x
_atom_site_fract_y
_atom_site_fract_z
Zn1	Zn	1.401229	0.754795	0.882721
Zn2	Zn	1.356609	0.874066	0.744790
Zn3	Zn	1.228139	0.691656	0.691057
Zn4	Zn	1.228071	0.873985	0.873378
O5	O	1.303512	0.798626	0.797986
O6	O	1.521543	0.797074	0.890822
O7	O	1.320922	0.823478	0.603636
O8	O	1.269803	0.573811	0.697904
O9	O	1.488761	0.884701	0.789485
O10	O	1.396971	0.620199	0.838719
O11	O	1.226536	0.689463	0.564158
O12	O	1.101898	0.689386	0.688845
O13	O	1.269686	0.884565	1.008644
O14	O	1.101847	0.823342	0.822795
O15	O	1.396905	0.796996	1.015508
O16	O	1.320856	1.000275	0.780425
O17	O	1.226419	1.000217	0.874898
C18	C	1.268815	1.032983	0.832504
C19	C	1.254059	1.133265	0.847320
C20	C	1.069142	0.749504	0.748976
C21	C	0.968877	0.728516	0.728035
C22	C	1.409358	1.416017	0.692544
C23	C	1.423221	1.321796	0.678618
C24	C	1.380932	1.274658	0.720793
C25	C	1.324777	1.321752	0.776895
C26	C	1.310907	1.415981	0.790815
C27	C	1.282481	1.274622	0.819064
C28	C	1.226325	1.321716	0.875166
C29	C	1.212458	1.415935	0.889085
C30	C	1.254747	1.463072	0.846910
C31	C	1.296351	1.180393	0.805144
C32	C	1.197900	1.180357	0.903415
C33	C	1.184036	1.274578	0.917341
C34	C	0.686136	0.948637	0.947659
C35	C	0.780338	0.968363	0.967332
C36	C	0.827478	0.908403	0.907510
C37	C	0.780405	0.828714	0.828010
C38	C	0.686192	0.808991	0.808330
C39	C	0.827534	0.768756	0.768181
C40	C	0.780462	0.689067	0.688681
C41	C	0.686258	0.669347	0.669005
C42	C	0.639119	0.729307	0.728828
C43	C	0.921747	0.788480	0.787861
C44	C	0.921804	0.648833	0.648532
C45	C	0.827601	0.629107	0.628859
C46	C	1.538798	0.847939	0.847189
C47	C	1.639062	0.868954	0.868156
C48	C	1.338265	0.847814	1.047799
C49	C	1.353074	0.868776	1.154254
C50	C	1.338365	1.563363	0.763369
C51	C	1.353199	1.463109	0.748639
C52	C	1.268956	0.749574	0.549147
C53	C	1.254359	0.728395	0.442691
C54	C	1.198261	0.648769	1.372129
C55	C	1.184349	0.629066	1.272108
C56	C	1.226529	0.688992	1.242639
C57	C	1.282623	0.768624	1.313202
C58	C	1.296542	0.788324	1.413233
C59	C	1.324810	0.828547	1.283744
C60	C	1.380905	0.908179	1.354306
C61	C	1.394820	0.927876	1.454327
C62	C	1.352640	0.867951	1.483796
C63	C	1.310892	0.808847	1.183713
C64	C	1.409173	0.948402	1.224817
C65	C	1.423084	0.968105	1.324838
H66	H	1.342073	1.142058	0.759465
H67	H	1.363958	0.883993	1.565239
C68	C	1.151809	1.129184	0.949069
C69	C	1.056274	1.129341	0.912858
C70	C	1.013788	1.082192	0.954876
H71	H	1.171539	1.159964	1.018462
H72	H	1.168054	1.066301	0.932725
H73	H	1.040037	1.192211	0.929209
H74	H	1.036518	1.098554	0.843470
H75	H	1.030032	1.019309	0.938532
H76	H	1.033525	1.112977	1.024267
H77	H	0.948963	1.082284	0.930306
C78	C	1.484279	1.270592	0.617865
C79	C	1.557565	1.239201	0.676215
C80	C	1.613826	1.192016	0.620277
H81	H	1.507580	1.312065	0.594721
H82	H	1.449428	1.218390	0.563486
H83	H	1.592410	1.291396	0.730576
H84	H	1.534291	1.197716	0.699360
H85	H	1.578975	1.139813	0.565898
H86	H	1.637120	1.233495	0.597136
H87	H	1.663552	1.170703	0.659856
C88	C	1.123288	0.542706	1.195539
C89	C	1.034505	0.548440	1.204081
C90	C	0.978224	0.468903	1.133553
H91	H	1.147634	0.488036	1.205709
H92	H	1.120976	0.539544	1.131726
H93	H	1.036820	0.551592	1.267880
H94	H	1.010133	0.603093	1.193902
H95	H	0.975913	0.465741	1.069740
H96	H	1.002578	0.414239	1.143729
H97	H	0.917978	0.472787	1.139333
C98	C	1.455882	1.014206	1.530985
C99	C	1.529271	0.986550	1.592957
C100	C	1.585552	1.066047	1.663573
H101	H	1.421106	1.054022	1.568685
H102	H	1.479068	1.047068	1.499144
H103	H	1.506086	0.953703	1.624797
H104	H	1.564070	0.946745	1.555286
H105	H	1.608739	1.098909	1.631732
H106	H	1.550769	1.105858	1.701265
H107	H	1.635358	1.047293	1.705624
H108	H	0.647745	0.997452	0.996352
H109	H	1.468758	1.032941	1.382304
H110	H	0.960064	0.853363	0.852591
C111	C	1.239627	1.565390	0.862193
C112	C	1.181414	1.596553	0.920368
C113	C	1.167481	1.690809	0.934481
H114	H	1.212295	1.571440	0.800348
H115	H	1.297001	1.602145	0.894168
H116	H	1.124051	1.559810	0.888391
H117	H	1.208729	1.590528	0.982223
H118	H	1.224855	1.727563	0.966456
H119	H	1.140151	1.696849	0.872632
H120	H	1.127990	1.711968	0.973961
C121	C	0.536875	0.707757	0.707547
C122	C	0.521816	0.620244	0.712999
C123	C	0.427641	0.600377	0.693419
H124	H	0.504550	0.706557	0.643547
H125	H	0.515533	0.754842	0.754584
H126	H	0.543147	0.573172	0.665963
H127	H	0.554118	0.621423	0.776992
H128	H	0.406299	0.647462	0.740457
H129	H	0.395325	0.599181	0.629420
H130	H	0.417413	0.541003	0.697125
H131	H	0.647932	0.604467	0.604263
H132	H	0.904181	0.924468	0.923533
C133	C	1.455308	1.467017	0.646635
C134	C	1.507442	1.405607	0.594508
C135	C	1.549776	1.452552	0.552189
H136	H	1.494345	1.519180	0.696852
H137	H	1.409617	1.488342	0.603053
H138	H	1.553127	1.384296	0.638087
H139	H	1.468426	1.353444	0.544277
H140	H	1.504084	1.473877	0.508607
H141	H	1.588808	1.504713	0.602412
H142	H	1.585146	1.410890	0.516809
C143	C	0.831290	1.054895	1.053717
C144	C	0.769853	1.103171	1.101912
C145	C	0.816760	1.182886	1.181507
H146	H	0.857125	1.094709	1.030584
H147	H	0.878944	1.036404	1.098165
H148	H	0.722215	1.121664	1.057473
H149	H	0.744015	1.063385	1.125068
H150	H	0.864414	1.164395	1.225954
H151	H	0.842593	1.222692	1.158365
H152	H	0.775084	1.215647	1.214222
H153	H	0.789262	0.564224	0.564129
C154	C	1.152521	0.583849	1.404320
C155	C	1.176705	0.618157	1.507019
C156	C	1.134577	0.558377	1.536707
H157	H	1.172392	0.522761	1.381868
H158	H	1.087661	0.581127	1.377255
H159	H	1.241552	0.620869	1.534074
H160	H	1.156834	0.679237	1.529496
H161	H	1.069717	0.555656	1.509642
H162	H	1.154451	0.497293	1.514249
H163	H	1.150973	0.581651	1.606390
C164	C	1.249826	0.722490	1.107144
C165	C	1.161046	0.728229	1.115692
C166	C	1.104758	0.648697	1.045164
H167	H	1.274168	0.667817	1.117309
H168	H	1.247511	0.719329	1.043330
H169	H	1.163363	0.731380	1.179491
H170	H	1.136676	0.782885	1.105517
H171	H	1.102444	0.645537	0.981351
H172	H	1.129109	0.594030	1.055336
H173	H	1.044513	0.652585	1.050949
H174	H	1.138314	1.312935	0.963019
H175	H	0.960184	0.600009	0.599819
H176	H	1.215198	0.672945	1.161196
H177	H	1.443521	0.997197	1.200825
H178	H	1.392222	1.197939	0.709450
H179	H	1.166721	1.454272	0.934753
