data_functionalizedCrystal
_audit_creation_method	'MofGen! by Chris Wilmer'
_symmetry_space_group_name_H-M	'P1'
_symmetry_Int_Tables_number	1
_symmetry_cell_setting	triclinic
loop_
_symmetry_equiv_pos_as_xyz
  x,y,z
_cell_length_a	13.339070
_cell_length_b	12.837943
_cell_length_c	11.892095
_cell_angle_alpha	94.310562
_cell_angle_beta	94.950121
_cell_angle_gamma	74.770883
loop_
_atom_site_label
_atom_site_type_symbol
_atom_site_fract_x
_atom_site_fract_y
_atom_site_fract_z
O1	O	0.264493	-1.458153	-0.093975
O2	O	0.251131	-1.152505	-0.093982
O3	O	0.107167	-1.270251	-0.093976
O4	O	0.408457	-1.340408	-0.093981
O5	O	0.119150	-1.260427	0.094031
O6	O	0.263114	-1.142682	0.094025
O7	O	0.276476	-1.448330	0.094032
Zn8	Zn	0.271697	-1.293946	0.123879
Zn9	Zn	0.255909	-1.306889	-0.123828
O10	O	0.420439	-1.330585	0.094026
C11	C	0.252608	-1.107675	0.000021
C12	C	0.239146	-0.988726	0.000018
C13	C	0.074327	-1.253488	0.000026
C14	C	-0.041381	-1.218164	0.000021
C15	C	0.274998	-1.493161	0.000027
C16	C	0.288460	-1.612110	0.000023
C17	C	-0.379696	-1.492830	0.000028
C18	C	-0.270983	-1.526022	0.000039
C19	C	-0.213577	-1.449060	0.000034
C20	C	-0.264895	-1.338901	0.000018
C21	C	-0.373618	-1.305705	0.000016
C22	C	-0.207499	-1.261935	0.000022
C23	C	-0.258817	-1.151776	0.000007
C24	C	-0.367530	-1.118585	0.000003
C25	C	-0.424936	-1.195547	0.000008
C26	C	-0.098776	-1.295131	0.000025
C27	C	-0.092698	-1.108006	0.000013
C28	C	-0.201411	-1.074814	0.000002
C29	C	0.453280	-1.347347	0.000022
C30	C	0.568986	-1.382672	0.000020
N31	N	0.282472	-1.285121	0.292933
C32	C	0.400986	-0.794315	0.000032
C33	C	0.388342	-0.682553	0.000030
C34	C	0.201215	-0.653436	0.000021
C35	C	0.213859	-0.765199	0.000023
C36	C	0.313748	-0.835635	0.000026
C37	C	0.326390	-0.947400	0.000020
C38	C	0.139265	-0.918281	0.000019
C39	C	0.126621	-0.806519	0.000017
N40	N	0.245127	-1.315720	-0.292882
C41	C	0.170089	-1.377114	0.529585
C42	C	0.177629	-1.370955	0.647927
C43	C	0.305086	-1.266638	0.647959
C44	C	0.297546	-1.272797	0.529618
C45	C	0.230047	-1.328038	0.470435
C46	C	0.222513	-1.334203	0.352091
C47	C	0.349963	-1.229880	0.352126
C48	C	0.357503	-1.223721	0.470468
H49	H	-0.057004	-1.384823	0.000038
F50	F	0.150678	-1.392999	0.289107
H51	H	0.115136	-1.422103	0.481398
F52	F	0.432699	-1.022362	0.000020
H53	H	0.482319	-0.851666	0.000033
F54	F	0.113812	-1.423186	0.710875
H55	H	0.119896	-0.596064	0.000111
F56	F	-0.216376	-1.643258	0.000037
H57	H	0.459381	-0.648916	0.000037
H58	H	0.045295	-0.749154	0.000027
H59	H	0.068229	-0.951935	0.000007
F60	F	0.376909	-1.207838	0.710959
H61	H	-0.426445	-1.555480	0.000041
H62	H	-0.513460	-1.168527	-0.000005
H63	H	-0.409309	-1.028886	-0.000001
F64	F	0.429335	-1.164928	0.533464
F65	F	0.413783	-1.177654	0.289163
F66	F	-0.097875	-1.484390	0.000043
H67	H	-0.243210	-0.985120	-0.000010
H68	H	-0.045958	-1.045336	0.000015
