data_functionalizedCrystal
_audit_creation_method	'MofGen! by Chris Wilmer'
_symmetry_space_group_name_H-M	'P1'
_symmetry_Int_Tables_number	1
_symmetry_cell_setting	triclinic
loop_
_symmetry_equiv_pos_as_xyz
  x,y,z
_cell_length_a	17.077404
_cell_length_b	17.077402
_cell_length_c	17.077396
_cell_angle_alpha	89.973827
_cell_angle_beta	90.021457
_cell_angle_gamma	89.976501
loop_
_atom_site_label
_atom_site_type_symbol
_atom_site_fract_x
_atom_site_fract_y
_atom_site_fract_z
Zn1	Zn	-1.200046	-0.312527	-0.443896
Zn2	Zn	-1.199950	-0.443802	-0.312636
Zn3	Zn	-1.068778	-0.312552	-0.312640
Zn4	Zn	-1.068743	-0.443753	-0.443855
O5	O	-1.134379	-0.378158	-0.378257
O6	O	-1.309881	-0.329951	-0.426500
O7	O	-1.182524	-0.426422	-0.202789
O8	O	-1.086246	-0.202702	-0.330070
O9	O	-1.309810	-0.426398	-0.330063
O10	O	-1.182689	-0.202683	-0.426504
O11	O	-1.086153	-0.329993	-0.202792
O12	O	-0.958927	-0.329946	-0.330030
O13	O	-1.086186	-0.426314	-0.553707
O14	O	-0.958901	-0.426338	-0.426433
O15	O	-1.182654	-0.329903	-0.553738
O16	O	-1.182490	-0.553642	-0.330023
O17	O	-1.086092	-0.553606	-0.426429
C18	C	-0.930431	-0.378140	-0.378228
C19	C	-0.843182	-0.378151	-0.378234
C20	C	-1.134298	-0.582106	-0.378238
C21	C	-1.134335	-0.669356	-0.378256
C22	C	-1.184735	-1.045163	-0.328149
C23	C	-1.184695	-0.963183	-0.328135
C24	C	-1.134449	-0.922205	-0.378284
C25	C	-1.084234	-0.963212	-0.428445
C26	C	-1.084271	-1.045191	-0.428454
C27	C	-1.084162	-0.792342	-0.428423
C28	C	-1.084126	-0.710357	-0.428415
C29	C	-1.184586	-0.710334	-0.328104
C30	C	-1.184623	-0.792313	-0.328113
C31	C	-1.134409	-0.833314	-0.378275
C32	C	-0.802199	-0.428418	-0.428349
C33	C	-0.720218	-0.428418	-0.428359
C34	C	-0.679222	-0.378155	-0.378249
C35	C	-0.720211	-0.327883	-0.328132
C36	C	-0.802190	-0.327879	-0.328127
C37	C	-0.549341	-0.327895	-0.328145
C38	C	-0.467357	-0.327899	-0.328149
C39	C	-0.467369	-0.428433	-0.428377
C40	C	-0.549348	-0.428430	-0.428372
C41	C	-0.590331	-0.378159	-0.378254
C42	C	-0.339124	-0.378172	-0.378277
C43	C	-0.426373	-0.378166	-0.378264
C44	C	-1.134482	-0.173414	-0.378292
C45	C	-1.134526	-0.086164	-0.378307
C46	C	-1.134427	-0.378100	-0.583001
C47	C	-1.134447	-0.378076	-0.670251
C48	C	-1.184680	-0.327870	-0.711258
C49	C	-1.184689	-0.327844	-0.793239
C50	C	-1.134469	-0.378028	-0.834210
C51	C	-1.084231	-0.428236	-0.793197
C52	C	-1.084218	-0.428257	-0.711218
C53	C	-1.084263	-0.428188	-0.964067
C54	C	-1.084276	-0.428168	-1.046052
C55	C	-1.184734	-0.327776	-1.046088
C56	C	-1.184721	-0.327797	-0.964109
C57	C	-1.134483	-0.378006	-0.923101
C58	C	-1.134377	-0.378159	-0.174309
C59	C	-1.134509	-0.377963	-0.087059
H60	H	-1.225656	-1.078521	-0.287316
H61	H	-0.686853	-0.469351	-0.469167
H62	H	-0.582725	-0.469363	-0.469172
H63	H	-0.433997	-0.469364	-0.469188
H64	H	-1.225472	-0.676946	-0.287260
H65	H	-1.225577	-0.287007	-0.677905
H66	H	-1.225596	-0.286964	-0.826623
H67	H	-1.043209	-0.676997	-0.469251
H68	H	-1.043389	-1.078573	-0.469302
H69	H	-1.225638	-0.286892	-1.079480
H70	H	-0.433980	-0.286961	-0.287354
H71	H	-1.225619	-0.286937	-0.930752
H72	H	-1.043381	-0.469030	-1.079409
H73	H	-0.835558	-0.286943	-0.287322
H74	H	-1.043342	-0.469062	-0.930682
H75	H	-1.043277	-0.825722	-0.469274
H76	H	-1.043338	-0.469093	-0.826563
H77	H	-1.225579	-0.929800	-0.287292
H78	H	-1.043305	-0.469132	-0.677831
H79	H	-0.582707	-0.286952	-0.287340
H80	H	-1.225542	-0.825674	-0.287281
H81	H	-0.835571	-0.469350	-0.469152
H82	H	-1.043318	-0.929843	-0.469274
H83	H	-0.686826	-0.286954	-0.287335
