data_functionalizedCrystal
_audit_creation_method	'MofGen! by Chris Wilmer'
_symmetry_space_group_name_H-M	'P1'
_symmetry_Int_Tables_number	1
_symmetry_cell_setting	triclinic
loop_
_symmetry_equiv_pos_as_xyz
  x,y,z
_cell_length_a	13.897449
_cell_length_b	13.897447
_cell_length_c	16.959447
_cell_angle_alpha	89.971904
_cell_angle_beta	89.983048
_cell_angle_gamma	90.020357
loop_
_atom_site_label
_atom_site_type_symbol
_atom_site_fract_x
_atom_site_fract_y
_atom_site_fract_z
Zn1	Zn	1.474629	-0.383975	-0.446976
Zn2	Zn	1.474536	-0.545293	-0.314803
Zn3	Zn	1.313336	-0.384016	-0.314808
Zn4	Zn	1.313295	-0.545232	-0.446936
O5	O	1.393949	-0.464629	-0.380881
O6	O	1.609598	-0.405382	-0.429458
O7	O	1.453131	-0.523942	-0.204193
O8	O	1.334788	-0.249029	-0.332359
O9	O	1.609530	-0.523902	-0.332351
O10	O	1.453290	-0.248998	-0.429463
O11	O	1.334698	-0.405452	-0.204196
O12	O	1.178349	-0.405393	-0.332320
O13	O	1.334718	-0.523798	-0.557552
O14	O	1.178319	-0.523838	-0.429393
O15	O	1.453249	-0.405323	-0.557582
O16	O	1.453091	-0.680266	-0.332312
O17	O	1.334627	-0.680221	-0.429389
C18	C	1.143335	-0.464614	-0.380853
C19	C	1.036121	-0.464631	-0.380860
C20	C	0.949051	-0.464634	-0.380873
C21	C	0.839818	-0.464641	-0.380897
C22	C	1.393871	-0.715243	-0.380862
C23	C	1.393925	-0.822457	-0.380881
C24	C	1.393972	-0.909527	-0.380899
C25	C	1.394040	-1.018759	-0.380919
C26	C	1.645542	-0.464644	-0.380909
C27	C	1.752756	-0.464651	-0.380921
C28	C	1.393989	-0.464549	-0.587049
C29	C	1.394006	-0.464515	-0.674906
C30	C	1.394054	-0.213036	-0.380916
C31	C	1.394099	-0.105822	-0.380932
C32	C	1.332407	-0.526097	-1.046368
C33	C	1.455836	-0.402729	-1.046395
C34	C	1.455810	-0.402749	-0.963849
C35	C	1.394083	-0.464446	-0.922559
C36	C	1.332382	-0.526122	-0.963815
C37	C	1.517517	-0.341081	-0.922587
C38	C	1.517494	-0.341100	-0.840036
C39	C	1.455762	-0.402792	-0.798744
C40	C	1.394057	-0.464470	-0.840005
C41	C	1.332331	-0.526167	-0.798715
C42	C	1.270621	-0.587840	-0.839975
C43	C	1.270649	-0.587814	-0.922523
C44	C	1.455733	-0.402818	-0.716196
C45	C	1.332305	-0.526191	-0.716162
C46	C	1.393964	-0.464639	-0.175514
C47	C	1.394134	-0.464401	-0.087658
H48	H	1.282030	-0.576424	-0.682549
H49	H	1.220367	-0.638078	-0.806346
Br50	Br	1.601294	-0.257365	-0.978625
H51	H	1.505979	-0.352607	-0.682606
Br52	Br	1.539613	-0.319012	-1.102431
H53	H	1.567742	-0.290881	-0.806449
Br54	Br	1.248657	-0.609788	-1.102359
Br55	Br	1.186912	-0.671510	-0.978522
