data_functionalizedCrystal
_audit_creation_method	'MofGen! by Chris Wilmer'
_symmetry_space_group_name_H-M	'P1'
_symmetry_Int_Tables_number	1
_symmetry_cell_setting	triclinic
loop_
_symmetry_equiv_pos_as_xyz
  x,y,z
_cell_length_a	17.038272
_cell_length_b	14.048226
_cell_length_c	14.971486
_cell_angle_alpha	89.993360
_cell_angle_beta	87.362843
_cell_angle_gamma	89.999337
loop_
_atom_site_label
_atom_site_type_symbol
_atom_site_fract_x
_atom_site_fract_y
_atom_site_fract_z
O1	O	1.037595	-0.079043	0.194250
O2	O	0.809961	-0.079071	0.191166
O3	O	0.929879	-0.079049	0.062965
O4	O	0.917677	-0.079064	0.322451
O5	O	0.929865	0.079272	0.062956
O6	O	0.809946	0.079251	0.191157
O7	O	1.037581	0.079279	0.194241
Zn8	Zn	0.923761	0.104402	0.192697
Zn9	Zn	0.923780	-0.104194	0.192710
O10	O	0.917662	0.079257	0.322442
C11	C	0.780822	0.000087	0.188356
C12	C	0.694019	0.000076	0.179986
N13	N	0.923754	0.246762	0.192689
N14	N	0.923794	-0.246554	0.192711
C15	C	0.643995	0.000072	0.256830
C16	C	0.562435	0.000086	0.248961
C17	C	0.530901	0.000096	0.164246
C18	C	0.580933	0.000103	0.087397
C19	C	0.662491	0.000096	0.095267
C20	C	0.285111	0.000124	0.136442
C21	C	0.203547	0.000127	0.128577
C22	C	0.185054	0.000112	0.290142
C23	C	0.266615	0.000100	0.298005
C24	C	0.316639	0.000111	0.221155
C25	C	0.447535	0.000107	0.156200
C26	C	0.400004	0.000107	0.229202
C27	C	1.066719	0.000119	0.197051
C28	C	1.153522	0.000124	0.205421
C29	C	0.929326	0.000111	0.029595
C30	C	0.927691	0.000110	-0.069825
C31	C	0.976870	0.296590	0.135948
C32	C	0.976876	0.396248	0.135948
C33	C	0.923768	0.446076	0.192694
C34	C	0.870645	0.396241	0.249438
C35	C	0.870637	0.296585	0.249433
C36	C	0.870668	0.603956	0.249446
C37	C	0.870677	0.703618	0.249452
C38	C	0.976907	0.703618	0.135961
C39	C	0.976898	0.603962	0.135956
C40	C	0.923777	0.554134	0.192701
C41	C	0.998140	0.000120	-0.121776
C42	C	0.996598	0.000110	-0.215190
C43	C	0.924607	0.000097	-0.256653
C44	C	0.854153	0.000085	-0.204695
C45	C	0.855695	0.000088	-0.111282
C46	C	0.850944	0.000081	-0.399398
C47	C	0.849402	0.000080	-0.492817
C48	C	0.991847	0.000103	-0.503306
C49	C	0.993389	0.000106	-0.409893
C50	C	0.922935	0.000096	-0.357942
C51	C	0.918215	0.000095	0.355812
C52	C	0.919850	0.000090	0.455232
H53	H	0.669662	0.000063	0.325813
O54	O	1.065086	-0.000003	-0.265557
C55	C	1.186356	-0.082028	-0.303122
C56	C	1.108827	-0.082006	-0.246016
H57	H	1.221734	-0.148330	-0.287358
H58	H	1.221823	-0.015806	-0.287335
H59	H	1.172876	-0.081990	-0.377004
H60	H	1.122235	-0.082077	-0.172117
H61	H	1.073382	-0.148222	-0.261879
H62	H	0.798329	0.000080	-0.068984
H63	H	1.020127	0.436817	0.089745
O64	O	1.060341	-0.000020	-0.553670
C65	C	1.181608	-0.082049	-0.591236
C66	C	1.104080	-0.082023	-0.534129
H67	H	1.216986	-0.148351	-0.575472
H68	H	1.217077	-0.015828	-0.575452
H69	H	1.168127	-0.082012	-0.665118
H70	H	1.117490	-0.082093	-0.460230
H71	H	1.068634	-0.148238	-0.549989
H72	H	0.177876	0.000135	0.059589
O73	O	0.136541	0.000235	0.364854
C74	C	0.095753	0.082280	0.500503
C75	C	0.150751	0.082245	0.415935
H76	H	0.107211	0.148588	0.541816
H77	H	0.107235	0.016065	0.541952
H78	H	0.032051	0.082241	0.480310
H79	H	0.214473	0.082318	0.436048
H80	H	0.139201	0.148455	0.374507
O81	O	1.063299	0.000286	-0.369572
C82	C	1.147672	0.082289	-0.270152
C83	C	1.068480	0.082219	-0.315775
H84	H	1.151880	0.148514	-0.226633
H85	H	1.197796	0.082355	-0.323288
H86	H	1.151944	0.016003	-0.226712
H87	H	1.064131	0.148494	-0.359212
H88	H	1.018394	0.082104	-0.262595
H89	H	0.555252	0.000125	0.018421
H90	H	0.790780	0.000086	-0.526573
O91	O	0.430502	0.000137	0.311559
C92	C	0.403563	0.000052	0.470980
C93	C	0.368911	0.000046	0.377766
H94	H	0.353784	-0.000043	0.524534
H95	H	0.441259	0.066320	0.478761
H96	H	0.441310	-0.066194	0.478648
H97	H	0.331129	0.066246	0.370035
H98	H	0.331261	-0.066267	0.370027
O99	O	1.028478	0.751907	0.080711
C100	C	1.074145	0.782452	-0.071311
C101	C	1.015706	0.727686	-0.008851
H102	H	1.063828	0.762905	-0.143736
H103	H	1.136790	0.762825	-0.054911
H104	H	1.065042	0.862234	-0.061521
H105	H	1.024737	0.647892	-0.018607
H106	H	0.953082	0.747392	-0.025266
O107	O	1.028298	0.555562	0.080602
C108	C	1.044523	0.443459	-0.040652
C109	C	0.986283	0.498122	0.022120
H110	H	1.010577	0.397021	-0.087962
H111	H	1.083731	0.396615	0.000655
H112	H	1.082387	0.496333	-0.081161
H113	H	0.948368	0.445317	0.062642
H114	H	0.947129	0.544981	-0.019238
O115	O	0.333774	-0.000004	0.061856
C116	C	0.436542	-0.082062	-0.023059
C117	C	0.381487	-0.082022	0.061462
H118	H	0.475121	-0.148377	-0.023414
H119	H	0.475246	-0.015853	-0.023435
H120	H	0.399972	-0.082014	-0.084939
H121	H	0.417996	-0.082104	0.123387
H122	H	0.342781	-0.148225	0.061760
O123	O	0.782433	0.000111	-0.349064
C124	C	0.640984	0.000035	-0.348513
C125	C	0.718511	0.000019	-0.405623
H126	H	0.589283	-0.000060	-0.394217
H127	H	0.638084	0.066308	-0.304546
H128	H	0.638195	-0.066207	-0.304488
H129	H	0.721351	0.066215	-0.449700
H130	H	0.721378	-0.066298	-0.449531
H131	H	0.421851	0.000143	0.087226
H132	H	0.521707	0.000082	0.311535
H133	H	0.827400	0.436817	0.295638
H134	H	0.703221	0.000099	0.032693
H135	H	1.020120	0.256026	0.089743
H136	H	0.795537	0.000069	-0.238461
H137	H	0.292283	0.000080	0.366988
O138	O	0.818974	0.751986	0.304464
C139	C	0.683067	0.782469	0.346438
C140	C	0.741536	0.727647	0.284072
H141	H	0.620446	0.762797	0.329986
H142	H	0.692137	0.862264	0.336682
H143	H	0.693339	0.762883	0.418868
H144	H	0.731299	0.747155	0.211618
H145	H	0.732452	0.647866	0.293905
O146	O	0.819174	0.555446	0.304613
C147	C	0.802636	0.442954	0.425533
C148	C	0.861032	0.497816	0.363098
H149	H	0.836454	0.396362	0.472846
H150	H	0.763549	0.396246	0.383961
H151	H	0.764665	0.495700	0.466054
H152	H	0.899054	0.445138	0.322564
H153	H	0.900064	0.544538	0.404720
O154	O	0.819119	0.248222	0.304683
C155	C	0.773404	0.217749	0.456701
C156	C	0.831808	0.272561	0.394236
H157	H	0.783632	0.237422	0.529117
H158	H	0.782518	0.137953	0.447027
H159	H	0.710780	0.237345	0.440191
H160	H	0.894456	0.253045	0.410708
H161	H	0.822626	0.352344	0.403921
H162	H	1.056763	0.000135	-0.088024
