data_functionalizedCrystal
_audit_creation_method	'MofGen! by Chris Wilmer'
_symmetry_space_group_name_H-M	'P1'
_symmetry_Int_Tables_number	1
_symmetry_cell_setting	triclinic
loop_
_symmetry_equiv_pos_as_xyz
  x,y,z
_cell_length_a	12.759400
_cell_length_b	19.805407
_cell_length_c	19.805399
_cell_angle_alpha	89.980427
_cell_angle_beta	90.023237
_cell_angle_gamma	89.985315
loop_
_atom_site_label
_atom_site_type_symbol
_atom_site_fract_x
_atom_site_fract_y
_atom_site_fract_z
Zn1	Zn	-0.418291	-1.034791	0.382740
Zn2	Zn	-0.593984	-1.034729	0.269560
Zn3	Zn	-0.418320	-0.921605	0.269565
Zn4	Zn	-0.593928	-0.921592	0.382707
O5	O	-0.506131	-0.978179	0.326143
O6	O	-0.441608	-1.129499	0.367739
O7	O	-0.570717	-1.019702	0.174844
O8	O	-0.271295	-0.936651	0.284593
O9	O	-0.570689	-1.129454	0.284586
O10	O	-0.271273	-1.019808	0.367743
O11	O	-0.441657	-0.936591	0.174848
O12	O	-0.441603	-0.826887	0.284561
O13	O	-0.570594	-0.936629	0.477428
O14	O	-0.570622	-0.826877	0.367687
O15	O	-0.441554	-1.019795	0.477452
O16	O	-0.740998	-1.019689	0.284554
O17	O	-0.740957	-0.936568	0.367682
C18	C	-0.506110	-0.802323	0.326121
C19	C	-0.506127	-0.727091	0.326128
C20	C	-0.779098	-0.978139	0.326129
C21	C	-0.895875	-0.978184	0.326146
C22	C	-0.506064	-0.978217	0.502686
C23	C	-0.506036	-0.978233	0.577918
C24	C	-0.950723	-1.021513	0.282908
C25	C	-1.060447	-1.021555	0.282929
C26	C	-1.060464	-0.934932	0.369426
C27	C	-0.950742	-0.934894	0.369408
C28	C	-0.895855	-1.064802	0.239646
C29	C	-0.950704	-1.108135	0.196404
C30	C	-1.060428	-1.108176	0.196425
C31	C	-1.115303	-1.064886	0.239687
C32	C	-0.232097	-0.978238	0.326172
C33	C	-0.115321	-0.978263	0.326184
C34	C	-0.506152	-1.154722	0.326165
C35	C	-0.506160	-1.229954	0.326175
C36	C	-0.573408	-0.691760	0.369341
C37	C	-0.573410	-0.621071	0.369351
C38	C	-0.506135	-0.585716	0.326143
C39	C	-0.438847	-0.621052	0.282928
C40	C	-0.438840	-0.691739	0.282922
C41	C	-0.438870	-0.335979	0.282950
C42	C	-0.438884	-0.265287	0.282958
C43	C	-0.573440	-0.265311	0.369379
C44	C	-0.573433	-0.335998	0.369373
C45	C	-0.506141	-0.371328	0.326161
C46	C	-0.506139	-0.447977	0.326152
C47	C	-0.506142	-0.509069	0.326148
C48	C	-0.506121	-0.978180	0.150287
C49	C	-0.505853	-0.978295	0.075055
C50	C	-0.438842	-1.021539	0.613276
C51	C	-0.438811	-1.021546	0.683964
C52	C	-0.505981	-0.978250	0.719294
C53	C	-0.573179	-0.934940	0.683931
C54	C	-0.573203	-0.934930	0.613244
C55	C	-0.573081	-0.934978	0.969004
C56	C	-0.573054	-0.934992	1.039696
C57	C	-0.438689	-1.021594	1.039725
C58	C	-0.438713	-1.021584	0.969038
C59	C	-0.505906	-0.978272	0.933681
C60	C	-0.505937	-0.978264	0.857033
C61	C	-0.505957	-0.978261	0.795941
H62	H	-0.806512	-1.064772	0.239622
N63	N	-1.233649	-1.064926	0.239704
H64	H	-1.260086	-1.030924	0.273667
H65	H	-1.259929	-1.111381	0.252172
H66	H	-0.384048	-0.720505	0.247737
N67	N	-0.366348	-1.068254	0.722110
H68	H	-0.317648	-1.040759	0.751436
H69	H	-0.323868	-1.095678	0.688968
H70	H	-0.627809	-0.899720	0.940225
N71	N	-0.366272	-1.068285	0.930932
H72	H	-0.323697	-1.095721	0.964058
H73	H	-0.317660	-1.040739	0.901604
N74	N	-0.366400	-1.068242	0.575173
H75	H	-0.323827	-1.095676	0.608301
H76	H	-0.317786	-1.040698	0.545844
H77	H	-1.105083	-1.143464	0.161221
N78	N	-0.645618	-0.888244	0.722044
H79	H	-0.720693	-0.898734	0.709739
H80	H	-0.629208	-0.839903	0.709725
H81	H	-1.105153	-0.899686	0.404648
N82	N	-0.891575	-0.888165	0.416044
H83	H	-0.942981	-0.860744	0.443451
H84	H	-0.846114	-0.856843	0.388458
H85	H	-0.383973	-1.056859	1.068521
N86	N	-0.645977	-0.729891	0.415940
H87	H	-0.688598	-0.696779	0.443317
H88	H	-0.603274	-0.759239	0.447308
N89	N	-0.645504	-0.888293	1.077804
H90	H	-0.688073	-0.860851	1.044680
H91	H	-0.602719	-0.856988	1.107134
H92	H	-0.628198	-0.592308	0.404539
N93	N	-0.646000	-0.374132	0.415971
H94	H	-0.688623	-0.341022	0.443349
H95	H	-0.603295	-0.403480	0.447338
N96	N	-0.645667	-0.888215	0.575104
H97	H	-0.688215	-0.860788	0.608210
H98	H	-0.694303	-0.915746	0.545771
N99	N	-0.646021	-0.227205	0.415989
H100	H	-0.635819	-0.177060	0.409441
H101	H	-0.629772	-0.239585	0.464347
H102	H	-0.384094	-0.236502	0.247773
N103	N	-0.366278	-0.374080	0.236356
H104	H	-0.323660	-0.340954	0.208988
H105	H	-0.408956	-0.403398	0.204978
N106	N	-0.366305	-0.582918	0.236315
H107	H	-0.317677	-0.553598	0.263868
H108	H	-0.409040	-0.553618	0.204919
N109	N	-0.891525	-1.154831	0.149752
H110	H	-0.813693	-1.148231	0.156299
H111	H	-0.910769	-1.144334	0.101406
