data_functionalizedCrystal
_audit_creation_method	'MofGen! by Chris Wilmer'
_symmetry_space_group_name_H-M	'P1'
_symmetry_Int_Tables_number	1
_symmetry_cell_setting	triclinic
loop_
_symmetry_equiv_pos_as_xyz
  x,y,z
_cell_length_a	17.699083
_cell_length_b	12.837942
_cell_length_c	16.776229
_cell_angle_alpha	89.994225
_cell_angle_beta	89.998886
_cell_angle_gamma	89.055978
loop_
_atom_site_label
_atom_site_type_symbol
_atom_site_fract_x
_atom_site_fract_y
_atom_site_fract_z
O1	O	1.013707	0.131067	-0.066175
O2	O	0.794582	0.148119	-0.066201
O3	O	0.899286	-0.011297	-0.066184
O4	O	0.909003	0.290484	-0.066192
O5	O	0.899269	-0.011307	0.066393
O6	O	0.794565	0.148110	0.066376
O7	O	1.013691	0.131057	0.066401
Zn8	Zn	0.904126	0.139582	0.087438
Zn9	Zn	0.904147	0.139595	-0.087237
O10	O	0.908987	0.290474	0.066384
C11	C	0.766332	0.147503	0.000084
C12	C	0.682179	0.145670	0.000074
C13	C	0.640432	0.239245	0.000072
C14	C	0.561362	0.237516	0.000082
C15	C	0.524040	0.142212	0.000089
C16	C	0.565792	0.048631	0.000094
C17	C	0.644861	0.050360	0.000089
C18	C	0.246916	0.041653	0.000114
C19	C	0.167842	0.039931	0.000116
C20	C	0.163418	0.228809	0.000107
C21	C	0.242486	0.230539	0.000102
C22	C	0.284232	0.136958	0.000111
C23	C	0.369969	0.138833	0.000101
C24	C	0.438304	0.140336	0.000093
C25	C	0.895995	-0.049915	0.000104
C26	C	0.886204	-0.164967	0.000101
C27	C	1.003908	-0.406222	0.000099
C28	C	0.994712	-0.514324	0.000096
C29	C	0.858617	-0.489277	0.000088
C30	C	0.867813	-0.381174	0.000091
C31	C	0.940461	-0.339651	0.000097
C32	C	0.949656	-0.231546	0.000105
C33	C	0.813561	-0.206501	0.000092
C34	C	0.804365	-0.314604	0.000089
C35	C	1.041941	0.131673	0.000115
C36	C	1.126094	0.133506	0.000119
C37	C	0.912278	0.329091	0.000095
C38	C	0.922069	0.444144	0.000092
N39	N	0.904117	0.139572	0.206649
N40	N	0.904161	0.139596	-0.206449
C41	C	0.950497	0.069012	0.248374
C42	C	0.950502	0.069011	0.331826
C43	C	0.904128	0.139576	0.373552
C44	C	0.857742	0.210141	0.331821
C45	C	0.857735	0.210136	0.248371
C46	C	0.857771	0.210161	0.668369
C47	C	0.857784	0.210163	0.751825
C48	C	0.950538	0.069036	0.751824
C49	C	0.950530	0.069031	0.668373
C50	C	0.904142	0.139591	0.626650
C51	C	0.904137	0.139590	0.536162
C52	C	0.904137	0.139583	0.464039
H53	H	0.670814	0.316852	0.000065
H54	H	0.988294	0.011574	0.634403
H55	H	0.137457	-0.037681	0.000123
O56	O	1.074488	-0.365926	-0.000035
C57	C	1.113653	-0.399970	-0.068683
H58	H	1.071317	-0.422358	-0.116679
H59	H	1.150746	-0.470526	-0.053155
C60	C	1.215516	-0.284107	-0.040863
C61	C	1.163517	-0.311596	-0.099815
H62	H	1.246277	-0.229597	-0.060066
H63	H	1.189131	-0.261174	0.005388
H64	H	1.246419	-0.342912	-0.027929
H65	H	1.132609	-0.252796	-0.112741
H66	H	1.189898	-0.334518	-0.146069
H67	H	0.272870	0.308145	0.000093
H68	H	0.988268	0.011554	0.365798
O69	O	0.287540	-0.049181	0.000007
C70	C	0.333392	-0.053843	-0.068669
H71	H	0.343323	0.028414	-0.091560
H72	H	0.304006	-0.101101	-0.116748
C73	C	0.397565	-0.207243	-0.019701
C74	C	0.409767	-0.106212	-0.047812
H75	H	0.444675	-0.239551	-0.006838
H76	H	0.366671	-0.204105	0.026566
H77	H	0.373074	-0.246612	-0.059772
H78	H	0.434248	-0.066842	-0.007738
H79	H	0.440666	-0.109345	-0.094072
H80	H	0.535398	-0.028967	0.000111
O81	O	0.995525	0.000523	0.792479
C82	C	0.985604	0.015667	0.875082
H83	H	0.928233	0.054503	0.886485
H84	H	1.032183	0.067580	0.898754
C85	C	1.059807	-0.138077	0.903928
C86	C	0.989340	-0.090386	0.917933
H87	H	1.062115	-0.203494	0.930362
H88	H	1.066494	-0.148279	0.848276
H89	H	1.098615	-0.094806	0.923654
H90	H	0.950534	-0.133651	0.898198
H91	H	0.982647	-0.080194	0.973583
H92	H	0.678850	-0.025837	0.000091
H93	H	0.129419	0.305007	0.000104
O94	O	0.788013	-0.529496	0.000180
C95	C	0.748857	-0.495505	0.068848
H96	H	0.774877	-0.420582	0.091753
H97	H	0.753106	-0.558097	0.116923
C98	C	0.633237	-0.567049	0.019845
C99	C	0.665192	-0.475024	0.047973
H100	H	0.581628	-0.554420	0.006970
H101	H	0.659618	-0.589954	-0.026417
H102	H	0.636786	-0.619201	0.059912
H103	H	0.661652	-0.422878	0.007903
H104	H	0.638809	-0.452110	0.094228
H105	H	0.819966	0.267592	0.214399
O106	O	0.733746	-0.354772	0.000047
C107	C	0.679717	-0.272829	0.000069
H108	H	0.706223	-0.199436	-0.025025
H109	H	0.659769	-0.257496	0.063673
C110	C	0.579288	-0.393319	-0.021106
C111	C	0.611840	-0.303178	-0.051933
H112	H	0.537416	-0.412039	-0.053180
H113	H	0.615687	-0.448526	-0.021117
H114	H	0.562671	-0.380529	0.031897
H115	H	0.628465	-0.315972	-0.104931
H116	H	0.575442	-0.247973	-0.051932
H117	H	1.008809	-0.197740	0.000113
H118	H	1.046378	-0.568524	0.000095
H119	H	0.761898	-0.152287	0.000097
H120	H	0.988263	0.011553	0.214406
O121	O	0.812659	0.278747	0.792236
C122	C	0.771725	0.341039	0.737516
H123	H	0.767802	0.298547	0.678033
H124	H	0.801836	0.417998	0.728629
C125	C	0.696452	0.414716	0.843157
C126	C	0.691628	0.362522	0.770101
H127	H	0.647046	0.427973	0.863258
H128	H	0.724032	0.372752	0.880024
H129	H	0.721548	0.478842	0.835742
H130	H	0.666541	0.298392	0.777520
H131	H	0.664043	0.404477	0.733237
O132	O	0.812827	0.278758	0.627762
C133	C	0.857962	0.342646	0.579498
H134	H	0.914195	0.301255	0.566983
H135	H	0.868639	0.419231	0.611658
C136	C	0.747817	0.415730	0.515607
C137	C	0.816880	0.364889	0.500231
H138	H	0.722476	0.429455	0.466713
H139	H	0.717408	0.372690	0.548126
H140	H	0.756724	0.479545	0.542409
H141	H	0.807972	0.301070	0.473439
H142	H	0.847287	0.407918	0.467706
H143	H	0.527375	0.313714	0.000079
H144	H	0.819981	0.267593	0.365799
