data_functionalizedCrystal
_audit_creation_method	'MofGen! by Chris Wilmer'
_symmetry_space_group_name_H-M	'P1'
_symmetry_Int_Tables_number	1
_symmetry_cell_setting	triclinic
loop_
_symmetry_equiv_pos_as_xyz
  x,y,z
_cell_length_a	25.639239
_cell_length_b	16.959455
_cell_length_c	16.959447
_cell_angle_alpha	89.985678
_cell_angle_beta	89.966924
_cell_angle_gamma	90.035633
loop_
_atom_site_label
_atom_site_type_symbol
_atom_site_fract_x
_atom_site_fract_y
_atom_site_fract_z
Zn1	Zn	-0.208183	1.208282	-0.446894
Zn2	Zn	0.125150	1.541615	-0.113560
Zn3	Zn	0.458484	1.874948	0.219773
Zn4	Zn	-0.295624	1.208161	-0.314709
Zn5	Zn	0.037710	1.541494	0.018625
Zn6	Zn	0.371043	1.874828	0.351958
Zn7	Zn	-0.208199	1.076110	-0.314731
Zn8	Zn	0.125134	1.409443	0.018602
Zn9	Zn	0.458467	1.742777	0.351936
Zn10	Zn	-0.295585	1.076032	-0.446847
Zn11	Zn	0.037749	1.409365	-0.113514
Zn12	Zn	0.371082	1.742698	0.219819
O13	O	-0.251898	1.142146	-0.380795
O14	O	0.081436	1.475479	-0.047462
O15	O	0.414769	1.808813	0.285872
O16	O	-0.219792	1.318876	-0.429369
O17	O	0.113542	1.652210	-0.096036
O18	O	0.446875	1.985543	0.237298
O19	O	-0.284050	1.190627	-0.204101
O20	O	0.049283	1.523960	0.129233
O21	O	0.382617	1.857293	0.462566
O22	O	-0.135032	1.093726	-0.332291
O23	O	0.198301	1.427059	0.001042
O24	O	0.531635	1.760393	0.334375
O25	O	-0.284034	1.318788	-0.332253
O26	O	0.049299	1.652121	0.001080
O27	O	0.382633	1.985455	0.334413
O28	O	-0.135020	1.190832	-0.429391
O29	O	0.198313	1.524165	-0.096057
O30	O	0.531647	1.857499	0.237276
O31	O	-0.219820	1.093609	-0.204117
O32	O	0.113514	1.426943	0.129216
O33	O	0.446847	1.760276	0.462550
O34	O	-0.219782	0.965489	-0.332247
O35	O	0.113552	1.298822	0.001087
O36	O	0.446885	1.632155	0.334420
O37	O	-0.283967	1.093593	-0.557464
O38	O	0.049366	1.426926	-0.224131
O39	O	0.382699	1.760259	0.109202
O40	O	-0.283983	0.965431	-0.429312
O41	O	0.049350	1.298765	-0.095978
O42	O	0.382683	1.632098	0.237355
O43	O	-0.219754	1.190756	-0.557498
O44	O	0.113579	1.524089	-0.224165
O45	O	0.446913	1.857423	0.109168
O46	O	-0.368784	1.190551	-0.332208
O47	O	-0.035450	1.523884	0.001125
O48	O	0.297883	1.857217	0.334458
O49	O	-0.368755	1.093476	-0.429290
O50	O	-0.035422	1.426809	-0.095957
O51	O	0.297912	1.760142	0.237377
C52	C	-0.251880	0.936780	-0.380777
C53	C	0.081453	1.270113	-0.047444
C54	C	0.414786	1.603446	0.285890
C55	C	-0.251886	0.848923	-0.380788
C56	C	0.081448	1.182257	-0.047455
C57	C	0.414781	1.515590	0.285879
C58	C	-0.218441	0.477453	-0.330359
C59	C	0.114893	0.810786	0.002975
C60	C	0.448226	1.144120	0.336308
C61	C	-0.285398	0.477442	-0.431277
C62	C	0.047935	0.810775	-0.097943
C63	C	0.381269	1.144109	0.235390
C64	C	-0.285390	0.559988	-0.431272
C65	C	0.047943	0.893321	-0.097938
C66	C	0.381276	1.226655	0.235395
C67	C	-0.251908	0.601270	-0.380809
C68	C	0.081425	0.934604	-0.047476
C69	C	0.414759	1.267937	0.285858
C70	C	-0.218433	0.560007	-0.330351
C71	C	0.114900	0.893340	0.002983
C72	C	0.448233	1.226673	0.336316
C73	C	-0.318868	0.601258	-0.481723
C74	C	0.014465	0.934591	-0.148390
C75	C	0.347798	1.267924	0.184943
C76	C	-0.318863	0.683809	-0.481720
C77	C	0.014471	1.017142	-0.148387
C78	C	0.347804	1.350475	0.184947
C79	C	-0.285377	0.725092	-0.431260
C80	C	0.047956	1.058426	-0.097927
C81	C	0.381289	1.391759	0.235406
C82	C	-0.251901	0.683824	-0.380801
C83	C	0.081433	1.017157	-0.047467
C84	C	0.414766	1.350490	0.285866
C85	C	-0.218418	0.725106	-0.330338
C86	C	0.114915	1.058439	0.002995
C87	C	0.448248	1.391773	0.336329
C88	C	-0.184939	0.683839	-0.279882
C89	C	0.148395	1.017172	0.053452
C90	C	0.481728	1.350506	0.386785
C91	C	-0.184948	0.601290	-0.279891
C92	C	0.148386	0.934624	0.053442
C93	C	0.481719	1.267957	0.386775
C94	C	-0.285368	0.807641	-0.431251
C95	C	0.047965	1.140974	-0.097918
C96	C	0.381299	1.474308	0.235416
C97	C	-0.218411	0.807660	-0.330330
C98	C	0.114922	1.140993	0.003003
C99	C	0.448256	1.474326	0.336337
C100	C	-0.387740	1.142013	-0.380759
C101	C	-0.054407	1.475346	-0.047426
C102	C	0.278926	1.808680	0.285908
C103	C	-0.445854	1.142029	-0.380770
C104	C	-0.112521	1.475362	-0.047437
C105	C	0.220812	1.808695	0.285897
C106	C	-0.806220	1.192825	-0.330331
C107	C	-0.472886	1.526158	0.003003
C108	C	-0.139553	1.859492	0.336336
C109	C	-0.860824	1.192855	-0.330341
C110	C	-0.527491	1.526189	0.002992
C111	C	-0.194157	1.859522	0.336325
O112	O	-0.889063	1.235906	-0.287417
O113	O	-0.555729	1.569240	0.045917
O114	O	-0.222396	1.902573	0.379250
N115	N	-0.888137	1.142285	-0.380847
N116	N	-0.554803	1.475618	-0.047514
N117	N	-0.221470	1.808952	0.285819
C118	C	-0.860842	1.091686	-0.431352
C119	C	-0.527509	1.425020	-0.098019
C120	C	-0.194176	1.758353	0.235315
O121	O	-0.889088	1.048675	-0.474313
O122	O	-0.555755	1.382009	-0.140979
O123	O	-0.222421	1.715342	0.192354
C124	C	-0.806239	1.091660	-0.431345
C125	C	-0.472906	1.424994	-0.098011
C126	C	-0.139572	1.758327	0.235322
C127	C	-0.778929	1.142228	-0.380830
C128	C	-0.445596	1.475562	-0.047496
C129	C	-0.112262	1.808895	0.285837
C130	C	-0.778910	1.243389	-0.279820
C131	C	-0.445576	1.576723	0.053513
C132	C	-0.112243	1.910056	0.386846
C133	C	-0.724309	1.243358	-0.279809
C134	C	-0.390976	1.576691	0.053524
C135	C	-0.057643	1.910024	0.386858
C136	C	-0.697019	1.192761	-0.330308
C137	C	-0.363685	1.526094	0.003025
C138	C	-0.030352	1.859428	0.336359
C139	C	-0.724329	1.142196	-0.380818
C140	C	-0.390995	1.475530	-0.047485
C141	C	-0.057662	1.808863	0.285848
C142	C	-0.778946	1.041066	-0.481853
C143	C	-0.445612	1.374399	-0.148519
C144	C	-0.112279	1.707733	0.184814
C145	C	-0.724339	1.041045	-0.481842
C146	C	-0.391005	1.374378	-0.148508
C147	C	-0.057672	1.707711	0.184825
C148	C	-0.697029	1.091613	-0.431326
C149	C	-0.363695	1.424946	-0.097993
C150	C	-0.030362	1.758280	0.235340
C151	C	-0.642437	1.091568	-0.431306
C152	C	-0.309104	1.424901	-0.097972
C153	C	0.024229	1.758235	0.235361
N154	N	-0.615125	1.142139	-0.380800
N155	N	-0.281791	1.475472	-0.047466
N156	N	0.051542	1.808805	0.285867
C157	C	-0.642415	1.192735	-0.330301
C158	C	-0.309082	1.526068	0.003033
C159	C	0.024251	1.859402	0.336366
C160	C	-0.975513	1.091746	-0.431364
C161	C	-0.642180	1.425079	-0.098031
C162	C	-0.308846	1.758412	0.235303
C163	C	-1.030115	1.091767	-0.431368
C164	C	-0.696782	1.425101	-0.098035
C165	C	-0.363449	1.758434	0.235299
C166	C	-1.030093	1.192938	-0.330358
C167	C	-0.696760	1.526271	0.002975
C168	C	-0.363427	1.859604	0.336308
C169	C	-0.975490	1.192912	-0.330351
C170	C	-0.642157	1.526245	0.002982
C171	C	-0.308823	1.859578	0.336316
C172	C	-0.948200	1.142316	-0.380858
C173	C	-0.614867	1.475650	-0.047525
C174	C	-0.281534	1.808983	0.285809
C175	C	-0.527750	1.192664	-0.330280
C176	C	-0.194417	1.525997	0.003053
C177	C	0.138916	1.859330	0.336386
C178	C	-0.473145	1.192625	-0.330271
C179	C	-0.139812	1.525958	0.003062
C180	C	0.193522	1.859292	0.336396
C181	C	-0.473172	1.091458	-0.431283
C182	C	-0.139838	1.424791	-0.097950
C183	C	0.193495	1.758125	0.235383
C184	C	-0.527772	1.091493	-0.431290
C185	C	-0.194439	1.424827	-0.097957
C186	C	0.138894	1.758160	0.235377
C187	C	-0.555060	1.142103	-0.380786
C188	C	-0.221727	1.475436	-0.047452
C189	C	0.111606	1.808769	0.285881
O190	O	-0.614164	1.048541	-0.474211
O191	O	-0.280831	1.381875	-0.140878
O192	O	0.052503	1.715208	0.192456
O193	O	-0.614163	1.235746	-0.287355
O194	O	-0.280830	1.569079	0.045979
O195	O	0.052504	1.902413	0.379312
C196	C	-0.115525	1.142301	-0.380849
C197	C	0.217809	1.475634	-0.047515
C198	C	0.551142	1.808968	0.285818
C199	C	-0.057411	1.142367	-0.380872
C200	C	0.275923	1.475700	-0.047538
C201	C	0.609256	1.809034	0.285795
C202	C	-0.251854	1.142179	-0.586963
C203	C	0.081479	1.475512	-0.253630
C204	C	0.414812	1.808846	0.079703
C205	C	-0.251836	1.142193	-0.674820
C206	C	0.081497	1.475526	-0.341487
C207	C	0.414831	1.808860	-0.008153
C208	C	-0.251915	1.348314	-0.380814
C209	C	0.081418	1.681648	-0.047480
C210	C	0.414751	2.014981	0.285853
C211	C	-0.251923	1.436171	-0.380822
C212	C	0.081410	1.769504	-0.047488
C213	C	0.414744	2.102838	0.285845
C214	C	-0.285214	1.091699	-1.046281
C215	C	0.048119	1.425032	-0.712947
C216	C	0.381453	1.758366	-0.379614
C217	C	-0.218348	1.192876	-1.046311
C218	C	0.114985	1.526209	-0.712978
C219	C	0.448319	1.859543	-0.379644
C220	C	-0.218359	1.192855	-0.963765
C221	C	0.114974	1.526188	-0.630432
C222	C	0.448308	1.859522	-0.297099
C223	C	-0.251799	1.142256	-0.922473
C224	C	0.081535	1.475589	-0.589140
C225	C	0.414868	1.808923	-0.255806
C226	C	-0.285227	1.091678	-0.963727
C227	C	0.048106	1.425011	-0.630394
C228	C	0.381440	1.758345	-0.297060
C229	C	-0.184935	1.243438	-0.922505
C230	C	0.148399	1.576771	-0.589172
C231	C	0.481732	1.910104	-0.255838
C232	C	-0.184945	1.243419	-0.839954
C233	C	0.148388	1.576753	-0.506621
C234	C	0.481722	1.910086	-0.173287
C235	C	-0.218382	1.192816	-0.798661
C236	C	0.114951	1.526149	-0.465327
C237	C	0.448284	1.859482	-0.131994
C238	C	-0.251812	1.142235	-0.839920
C239	C	0.081522	1.475568	-0.506586
C240	C	0.414855	1.808902	-0.173253
C241	C	-0.285251	1.091636	-0.798628
C242	C	0.048082	1.424969	-0.465294
C243	C	0.381415	1.758303	-0.131961
C244	C	-0.318679	1.041051	-0.839885
C245	C	0.014655	1.374384	-0.506552
C246	C	0.347988	1.707717	-0.173218
C247	C	-0.318665	1.041074	-0.922433
C248	C	0.014669	1.374408	-0.589100
C249	C	0.348002	1.707741	-0.255767
C250	C	-0.218396	1.192792	-0.716112
C251	C	0.114937	1.526125	-0.382779
C252	C	0.448270	1.859459	-0.049445
C253	C	-0.285265	1.091615	-0.716074
C254	C	0.048069	1.424948	-0.382741
C255	C	0.381402	1.758282	-0.049407
C256	C	-0.251903	1.142159	-0.175429
C257	C	0.081430	1.475492	0.157904
C258	C	0.414764	1.808825	0.491238
C259	C	-0.251774	1.142298	-0.087573
C260	C	0.081559	1.475631	0.245761
C261	C	0.414892	1.808965	0.579094
H262	H	-0.157680	0.717462	-0.238791
H263	H	0.175654	1.050795	0.094542
H264	H	0.508987	1.384128	0.427875
F265	F	-0.321000	0.851557	-0.484941
F266	F	0.012334	1.184890	-0.151608
F267	F	0.345667	1.518223	0.181725
F268	F	-0.695298	0.987194	-0.535601
F269	F	-0.361965	1.320527	-0.202268
F270	F	-0.028631	1.653861	0.131065
H271	H	-0.191181	0.443850	-0.289281
H272	H	0.142152	0.777183	0.044052
H273	H	0.475486	1.110516	0.377386
F274	F	-0.556839	1.037659	-0.485039
F275	F	-0.223505	1.370992	-0.151705
F276	F	0.109828	1.704326	0.181628
H277	H	-0.312428	1.050511	-1.079876
H278	H	0.020905	1.383845	-0.746543
H279	H	0.354239	1.717178	-0.413209
F280	F	-0.354239	0.987246	-0.966348
F281	F	-0.020905	1.320579	-0.633014
F282	F	0.312428	1.653912	-0.299681
H283	H	-0.450911	1.233804	-0.289133
H284	H	-0.117578	1.567137	0.044201
H285	H	0.215756	1.900470	0.377534
F286	F	-0.354269	0.987205	-0.795930
F287	F	-0.020936	1.320539	-0.462596
F288	F	0.312398	1.653872	-0.129263
F289	F	-0.556784	1.246528	-0.276528
F290	F	-0.223451	1.579861	0.056806
F291	F	0.109882	1.913194	0.390139
F292	F	-0.321039	0.433505	-0.484965
F293	F	0.012294	0.766838	-0.151632
F294	F	0.345627	1.100171	0.181701
H295	H	-0.953257	1.234089	-0.289218
H296	H	-0.619924	1.567422	0.044116
H297	H	-0.286591	1.900756	0.377449
F298	F	-0.149320	0.557366	-0.226197
F299	F	0.184014	0.890699	0.107136
F300	F	0.517347	1.224033	0.440470
F301	F	-0.444118	1.037614	-0.485027
F302	F	-0.110784	1.370948	-0.151694
F303	F	0.222549	1.704281	0.181639
F304	F	-0.354514	0.557318	-0.535405
F305	F	-0.021180	0.890652	-0.202072
F306	F	0.312153	1.223985	0.131262
F307	F	-0.807946	1.297247	-0.226069
F308	F	-0.474613	1.630581	0.107264
F309	F	-0.141280	1.963914	0.440598
H310	H	-0.346123	0.717401	-0.522805
H311	H	-0.012790	1.050735	-0.189471
H312	H	0.320543	1.384068	0.143862
H313	H	-0.702077	1.284537	-0.238678
H314	H	-0.368743	1.617870	0.094656
H315	H	-0.035410	1.951203	0.427989
F316	F	-0.320854	1.037755	-0.672134
F317	F	0.012479	1.371089	-0.338801
F318	F	0.345813	1.704422	-0.005468
F319	F	-1.059147	1.246786	-0.276611
F320	F	-0.725814	1.580120	0.056722
F321	F	-0.392481	1.913453	0.390056
H322	H	-0.801172	0.999884	-0.522984
H323	H	-0.467839	1.333218	-0.189650
H324	H	-0.134505	1.666551	0.143683
H325	H	-1.052346	1.050582	-0.472495
H326	H	-0.719013	1.383916	-0.139162
H327	H	-0.385680	1.717249	0.194172
H328	H	-0.191142	0.841266	-0.289241
H329	H	0.142191	1.174599	0.044092
H330	H	0.475525	1.507933	0.377426
H331	H	-0.157726	1.284608	-0.806369
H332	H	0.175607	1.617942	-0.473036
H333	H	0.508941	1.951275	-0.139703
H334	H	-0.191126	1.234076	-1.079936
H335	H	0.142208	1.567409	-0.746603
H336	H	0.475541	1.900742	-0.413269
H337	H	-0.157713	1.284638	-0.956131
H338	H	0.175620	1.617971	-0.622798
H339	H	0.508953	1.951304	-0.289465
H340	H	-0.953296	1.050538	-0.472491
H341	H	-0.619963	1.383872	-0.139157
H342	H	-0.286630	1.717205	0.194176
H343	H	-0.191182	1.233980	-0.682524
H344	H	0.142151	1.567313	-0.349191
H345	H	0.475485	1.900647	-0.015857
