data_functionalizedCrystal
_audit_creation_method	'MofGen! by Chris Wilmer'
_symmetry_space_group_name_H-M	'P1'
_symmetry_Int_Tables_number	1
_symmetry_cell_setting	triclinic
loop_
_symmetry_equiv_pos_as_xyz
  x,y,z
_cell_length_a	18.101395
_cell_length_b	18.101398
_cell_length_c	18.101389
_cell_angle_alpha	89.975673
_cell_angle_beta	89.983159
_cell_angle_gamma	90.026371
loop_
_atom_site_label
_atom_site_type_symbol
_atom_site_fract_x
_atom_site_fract_y
_atom_site_fract_z
Zn1	Zn	-0.295001	1.132121	-0.418847
Zn2	Zn	-0.418826	1.132017	-0.295009
Zn3	Zn	-0.294993	1.008280	-0.295008
Zn4	Zn	-0.418795	1.008231	-0.418797
O5	O	-0.356904	1.070162	-0.356915
O6	O	-0.311443	1.235740	-0.402440
O7	O	-0.402410	1.115580	-0.191376
O8	O	-0.191361	1.024772	-0.311456
O9	O	-0.402417	1.235664	-0.311457
O10	O	-0.191367	1.115757	-0.402440
O11	O	-0.311430	1.024671	-0.191375
O12	O	-0.311399	0.904641	-0.311408
O13	O	-0.402363	1.024688	-0.522437
O14	O	-0.402356	0.904604	-0.402355
O15	O	-0.311412	1.115710	-0.522473
O16	O	-0.522455	1.115532	-0.311409
O17	O	-0.522432	1.024587	-0.402356
C18	C	-0.356874	0.877752	-0.356877
C19	C	-0.356879	0.795437	-0.356878
C20	C	-0.356925	0.496347	-0.356940
C21	C	-0.299412	0.527670	-0.299997
C22	C	-0.299566	0.613288	-0.299754
C23	C	-0.356901	0.644729	-0.356909
C24	C	-0.434909	0.613611	-0.335587
C25	C	-0.434590	0.527966	-0.335191
C26	C	-0.337109	0.527961	-0.435339
C27	C	-0.335371	0.613612	-0.434911
C28	C	-0.356893	0.728589	-0.356893
C29	C	-0.356939	0.412487	-0.356954
C30	C	-0.549314	1.070063	-0.356893
C31	C	-0.631628	1.070088	-0.356909
C32	C	-0.930719	1.070251	-0.356949
C33	C	-0.899410	1.013163	-0.414312
C34	C	-0.813792	1.012892	-0.414133
C35	C	-0.782337	1.070170	-0.356930
C36	C	-0.813472	1.049041	-0.278878
C37	C	-0.899117	1.048673	-0.279221
C38	C	-0.899073	1.148593	-0.376950
C39	C	-0.813422	1.148132	-0.378661
C40	C	-0.698477	1.070126	-0.356914
C41	C	-1.014579	1.070293	-0.356959
C42	C	-0.163742	1.070282	-0.356953
C43	C	-0.081428	1.070333	-0.356970
C44	C	-0.356885	1.070205	-0.550077
C45	C	-0.356877	1.070223	-0.632391
C46	C	-0.356934	1.263324	-0.356954
C47	C	-0.356948	1.345638	-0.356971
C48	C	-0.356738	1.070266	-0.931482
C49	C	-0.413780	1.012801	-0.900134
C50	C	-0.414045	1.012956	-0.814516
C51	C	-0.356807	1.070244	-0.783100
C52	C	-0.377998	1.148270	-0.814206
C53	C	-0.378372	1.147949	-0.899851
C54	C	-0.278379	1.050385	-0.899905
C55	C	-0.278832	1.048649	-0.814254
C56	C	-0.356845	1.070237	-0.699240
C57	C	-0.356702	1.070279	-1.015342
C58	C	-0.356869	1.070162	-0.164505
C59	C	-0.356668	1.070287	-0.082191
H60	H	-0.241719	0.634329	-0.313119
N61	N	-0.222690	1.097326	-0.787421
N62	N	-0.239308	1.148960	-0.744713
H63	H	-0.199660	1.183345	-0.725761
N64	N	-0.266996	0.500907	-0.459678
N65	N	-0.262514	0.464113	-0.517925
H66	H	-0.212995	0.445006	-0.535110
H67	H	-0.259074	0.994478	-0.921490
N68	N	-0.486196	1.029117	-0.927137
N69	N	-0.515267	1.090174	-0.913237
H70	H	-0.566411	1.101702	-0.932309
H71	H	-0.241388	0.507099	-0.313215
N72	N	-0.397416	0.940378	-0.788112
N73	N	-0.394772	0.928075	-0.720210
H74	H	-0.383030	0.876813	-0.701563
H75	H	-0.262852	0.991229	-0.793921
H76	H	-0.337757	1.192236	-0.793859
H77	H	-0.478892	0.507244	-0.374857
N78	N	-0.787381	1.029487	-0.486732
N79	N	-0.803868	1.089520	-0.516615
H80	H	-0.785220	1.101240	-0.567892
N81	N	-0.225071	1.102897	-0.925340
N82	N	-0.244603	1.154758	-0.966544
H83	H	-0.206960	1.191848	-0.984511
H84	H	-0.312363	0.506120	-0.242242
H85	H	-0.312665	0.633741	-0.241661
H86	H	-0.451397	0.507954	-0.277877
H87	H	-0.452008	0.635026	-0.278892
N88	N	-0.263355	0.639132	-0.455072
N89	N	-0.227976	0.680087	-0.412195
H90	H	-0.177114	0.698115	-0.426431
N91	N	-0.490101	0.639158	-0.385992
N92	N	-0.472516	0.680686	-0.438316
H93	H	-0.511494	0.698730	-0.473916
N94	N	-0.486893	1.029531	-0.788849
N95	N	-0.497755	1.085180	-0.749460
H96	H	-0.549206	1.096913	-0.731345
H97	H	-0.374209	0.635017	-0.479611
N98	N	-0.389675	0.502563	-0.488554
N99	N	-0.441527	0.461358	-0.468927
H100	H	-0.478659	0.443422	-0.506503
H101	H	-0.919970	1.026252	-0.472374
H102	H	-0.920990	0.955448	-0.401230
N103	N	-0.788168	0.940043	-0.397514
N104	N	-0.833537	0.889243	-0.386006
H105	H	-0.815441	0.837790	-0.374267
N106	N	-0.924245	0.976832	-0.257962
N107	N	-0.878529	0.927313	-0.242977
H108	H	-0.896271	0.876572	-0.227962
N109	N	-0.925095	1.098556	-0.223760
N110	N	-0.879970	1.133526	-0.184920
H111	H	-0.898313	1.168747	-0.145742
N112	N	-0.787913	1.099567	-0.223804
N113	N	-0.746364	1.151835	-0.241506
H114	H	-0.728311	1.187521	-0.202611
H115	H	-0.792080	0.992380	-0.261633
N116	N	-0.450225	1.169104	-0.924930
N117	N	-0.475967	1.230834	-0.907809
H118	H	-0.526714	1.245776	-0.925519
H119	H	-0.793071	1.164065	-0.436103
H120	H	-0.920633	1.167856	-0.432895
N121	N	-0.397305	0.939999	-0.925956
N122	N	-0.343334	0.929614	-0.967767
H123	H	-0.331698	0.878197	-0.986010
H124	H	-0.338629	1.192217	-0.920590
H125	H	-0.792007	1.192915	-0.339927
H126	H	-0.919319	1.191125	-0.335170
N127	N	-0.449088	1.169790	-0.787305
N128	N	-0.459914	1.175902	-0.719379
H129	H	-0.510122	1.191099	-0.700379
