data_functionalizedCrystal
_audit_creation_method	'MofGen! by Chris Wilmer'
_symmetry_space_group_name_H-M	'P1'
_symmetry_Int_Tables_number	1
_symmetry_cell_setting	triclinic
loop_
_symmetry_equiv_pos_as_xyz
  x,y,z
_cell_length_a	12.827893
_cell_length_b	18.101397
_cell_length_c	12.827885
_cell_angle_alpha	90.036582
_cell_angle_beta	90.019272
_cell_angle_gamma	90.020436
loop_
_atom_site_label
_atom_site_type_symbol
_atom_site_fract_x
_atom_site_fract_y
_atom_site_fract_z
Zn1	Zn	1.597633	-0.294794	0.590799
Zn2	Zn	1.597511	-0.418654	0.416039
Zn3	Zn	1.422874	-0.294830	0.416073
Zn4	Zn	1.422844	-0.418598	0.590739
O5	O	1.510216	-0.356719	0.503412
O6	O	1.743853	-0.311232	0.567628
O7	O	1.574307	-0.402266	0.269807
O8	O	1.446120	-0.191193	0.439290
O9	O	1.743763	-0.402231	0.439232
O10	O	1.574514	-0.191166	0.567661
O11	O	1.446002	-0.311294	0.269832
O12	O	1.276634	-0.311240	0.439232
O13	O	1.446068	-0.402137	0.736983
O14	O	1.276612	-0.402172	0.567558
O15	O	1.574485	-0.311179	0.737027
O16	O	1.574278	-0.522279	0.439174
O17	O	1.445951	-0.522239	0.567525
C18	C	1.238706	-0.356705	0.503393
C19	C	1.122553	-0.356717	0.503409
C20	C	1.510126	-0.549130	0.503362
C21	C	1.510183	-0.631444	0.503375
C22	C	1.070784	-0.401783	0.566811
C23	C	0.950734	-0.401796	0.566829
C24	C	1.510317	-0.930535	0.503470
C25	C	1.590832	-0.899204	0.422499
C26	C	1.591111	-0.813586	0.422709
C27	C	1.510251	-0.782152	0.503422
C28	C	1.540108	-0.813151	0.613572
C29	C	1.540731	-0.898796	0.613131
C30	C	1.399730	-0.899046	0.475245
C31	C	1.400276	-0.813396	0.472786
C32	C	1.510212	-0.698293	0.503402
C33	C	1.510359	-1.014394	0.503498
C34	C	1.782786	-0.356734	0.503433
C35	C	1.898939	-0.356740	0.503442
C36	C	1.510287	-0.356648	0.775983
C37	C	1.510317	-0.356618	0.892136
C38	C	1.510334	-0.163557	0.503486
C39	C	1.510384	-0.081243	0.503518
C40	C	1.510205	-0.356737	0.231903
C41	C	1.510377	-0.356558	0.115750
C42	C	1.573868	-0.311600	0.943943
C43	C	1.573901	-0.311567	1.063993
H44	H	1.115341	-0.440353	0.621082
H45	H	0.906215	-0.440381	0.621107
N46	N	1.365643	-0.926204	0.376223
N47	N	1.279055	-0.907030	0.340661
H48	H	1.254990	-0.926209	0.270723
H49	H	1.628249	-0.273080	0.899420
H50	H	1.628314	-0.273028	1.108546
H51	H	0.943451	-0.318158	0.449155
H52	H	1.484657	-0.919518	0.675540
H53	H	1.455969	-0.395104	1.071204
H54	H	1.672301	-0.920671	0.440959
N55	N	1.372044	-0.787991	0.371092
N56	N	1.432636	-0.747025	0.321306
H57	H	1.412702	-0.729079	0.249482
N58	N	1.320977	-0.786559	0.541356
N59	N	1.344329	-0.743780	0.614250
H60	H	1.288326	-0.724827	0.662688
H61	H	1.077996	-0.318141	0.449146
N62	N	1.567641	-0.787278	0.320266
N63	N	1.563815	-0.719393	0.302900
H64	H	1.547223	-0.700815	0.230549
N65	N	1.567682	-0.925119	0.319736
N66	N	1.491577	-0.966985	0.304971
H67	H	1.475225	-0.985293	0.232392
N68	N	1.693878	-0.787818	0.446134
N69	N	1.765617	-0.833087	0.462386
H70	H	1.838201	-0.814890	0.478933
N71	N	1.642139	-0.923776	0.643127
N72	N	1.711961	-0.877958	0.664239
H73	H	1.783583	-0.895596	0.685423
N74	N	1.468796	-0.787592	0.691286
N75	N	1.458643	-0.719883	0.707544
H76	H	1.408277	-0.701829	0.762427
H77	H	1.620037	-0.791642	0.637886
H78	H	1.339740	-0.919307	0.534220
H79	H	1.455926	-0.395130	0.936659
