data_functionalizedCrystal
_audit_creation_method	'MofGen! by Chris Wilmer'
_symmetry_space_group_name_H-M	'P1'
_symmetry_Int_Tables_number	1
_symmetry_cell_setting	triclinic
loop_
_symmetry_equiv_pos_as_xyz
  x,y,z
_cell_length_a	10.268362
_cell_length_b	16.992694
_cell_length_c	16.974813
_cell_angle_alpha	92.975366
_cell_angle_beta	93.655908
_cell_angle_gamma	90.000861
loop_
_atom_site_label
_atom_site_type_symbol
_atom_site_fract_x
_atom_site_fract_y
_atom_site_fract_z
O1	O	0.125802	-1.040211	0.167645
O2	O	0.125647	-0.811928	0.165806
O3	O	0.113629	-0.932434	0.052024
O4	O	0.137820	-0.919706	0.281426
O5	O	-0.102971	-0.932422	0.052028
O6	O	-0.090953	-0.811917	0.165809
O7	O	-0.090798	-1.040200	0.167648
Cu8	Cu	-0.110653	-0.926057	0.166729
Cu9	Cu	0.145502	-0.926071	0.166725
O10	O	-0.078780	-0.919694	0.281430
C11	C	0.002222	-0.931944	0.022537
C12	C	-0.007035	-0.930491	-0.065331
C13	C	0.017102	-0.782712	0.163441
C14	C	0.016373	-0.695676	0.156382
N15	N	-0.290819	-0.926053	0.166732
C16	C	-0.408661	-0.926059	0.166732
C17	C	-0.556499	-0.926069	0.166726
N18	N	0.325667	-0.926081	0.166716
C19	C	0.017750	-1.069416	0.170013
C20	C	0.018488	-1.156452	0.177072
C21	C	0.023555	-0.645362	0.224497
C22	C	0.022837	-0.563583	0.217859
C23	C	0.014946	-0.532118	0.143105
C24	C	0.007760	-0.582439	0.074985
C25	C	0.008468	-0.664217	0.081623
C26	C	0.012010	-0.288550	0.115590
C27	C	0.011305	-0.206766	0.108957
C28	C	0.026380	-0.187915	0.251832
C29	C	0.027096	-0.269696	0.258464
C30	C	0.019903	-0.320009	0.190344
N31	N	0.014216	-0.448527	0.136318
N32	N	0.020624	-0.403599	0.197131
C33	C	0.106684	-0.929817	-0.106609
C34	C	0.097983	-0.928448	-0.189171
C35	C	-0.024440	-0.927758	-0.230453
C36	C	-0.138167	-0.928430	-0.189169
C37	C	-0.129464	-0.929794	-0.106609
C38	C	-0.063129	-0.923673	-0.477371
C39	C	-0.071824	-0.922311	-0.559937
C40	C	0.164327	-0.922327	-0.559933
C41	C	0.173019	-0.923696	-0.477372
C42	C	0.059292	-0.924364	-0.436095
N43	N	-0.033337	-0.926360	-0.314844
N44	N	0.068191	-0.925755	-0.351705
C45	C	0.032630	-0.920184	0.310917
C46	C	0.041895	-0.921637	0.398785
H47	H	0.028687	-0.522620	0.273326
O48	O	0.003864	-0.176161	0.036355
C49	C	0.106487	-0.094721	-0.054037
C50	C	0.115091	-0.129346	0.028194
H51	H	0.196389	-0.056851	-0.060656
H52	H	0.101544	-0.144694	-0.101623
H53	H	0.015095	-0.056939	-0.060690
H54	H	0.206476	-0.167119	0.034923
H55	H	0.119962	-0.079336	0.075738
H56	H	0.006151	-0.329506	0.060121
H57	H	0.033537	-0.295307	0.319337
O58	O	0.000156	-0.551747	0.002428
C59	C	-0.007689	-0.434121	-0.071120
C60	C	0.000953	-0.468772	0.011099
H61	H	-0.007076	-0.367031	-0.064138
H62	H	0.079399	-0.454790	-0.105061
H63	H	-0.101892	-0.454899	-0.105035
H64	H	0.095101	-0.448009	0.045079
H65	H	-0.086202	-0.448107	0.044980
H66	H	0.002621	-0.705182	0.026156
H67	H	0.206374	-0.930383	-0.073004
O68	O	0.208344	-0.927907	-0.229374
C69	C	0.335042	-0.994311	-0.327238
C70	C	0.209994	-0.995007	-0.281770
H71	H	0.336431	-1.048564	-0.369598
H72	H	0.337295	-0.938869	-0.362180
H73	H	0.424032	-0.995009	-0.283548
H74	H	0.120936	-0.994338	-0.325405
H75	H	0.207856	-1.050446	-0.246816
H76	H	0.029981	-0.670973	0.285370
O77	O	-0.173699	-0.924235	-0.437369
C78	C	-0.372371	-0.856761	-0.407426
C79	C	-0.247207	-0.856024	-0.452784
H80	H	-0.431825	-0.801610	-0.419859
H81	H	-0.432778	-0.911303	-0.427457
H82	H	-0.345119	-0.857896	-0.341332
H83	H	-0.274343	-0.854861	-0.518887
H84	H	-0.186834	-0.801488	-0.432688
O85	O	-0.239844	-0.930555	-0.066433
C86	C	-0.367634	-0.999990	0.022073
C87	C	-0.242557	-0.999225	-0.023365
H88	H	-0.369882	-1.055513	0.056892
H89	H	-0.369069	-0.945821	0.064543
H90	H	-0.456601	-0.999225	-0.021629
H91	H	-0.153522	-1.000018	0.020278
H92	H	-0.241237	-1.053389	-0.065846
H93	H	0.032234	-0.146942	0.307292
O94	O	0.291921	-0.924134	-0.437232
C95	C	0.439290	-0.857473	-0.339566
C96	C	0.304546	-0.856968	-0.384919
H97	H	0.449551	-0.803168	-0.297272
H98	H	0.449173	-0.912865	-0.304562
H99	H	0.518943	-0.856738	-0.383337
H100	H	0.224813	-0.857675	-0.341203
H101	H	0.294775	-0.801581	-0.419935
H102	H	0.256917	-0.921782	-0.593549
O103	O	-0.190672	-0.921544	-0.600127
C104	C	-0.337060	-0.852112	-0.688670
C105	C	-0.202426	-0.852879	-0.643206
H106	H	-0.346617	-0.796594	-0.723498
H107	H	-0.347438	-0.906286	-0.731134
H108	H	-0.416839	-0.852867	-0.644984
H109	H	-0.122566	-0.852098	-0.686834
H110	H	-0.192160	-0.798710	-0.600731
O111	O	-0.257117	-0.927621	-0.229224
C112	C	-0.461144	-0.859329	-0.249790
C113	C	-0.326462	-0.860134	-0.204386
H114	H	-0.517259	-0.804780	-0.229713
H115	H	-0.447907	-0.858191	-0.315894
H116	H	-0.518011	-0.914462	-0.237336
H117	H	-0.269523	-0.805012	-0.216775
H118	H	-0.339792	-0.861313	-0.138295
