data_functionalizedCrystal
_audit_creation_method	'MofGen! by Chris Wilmer'
_symmetry_space_group_name_H-M	'P1'
_symmetry_Int_Tables_number	1
_symmetry_cell_setting	triclinic
loop_
_symmetry_equiv_pos_as_xyz
  x,y,z
_cell_length_a	19.902436
_cell_length_b	14.560432
_cell_length_c	19.902436
_cell_angle_alpha	119.992444
_cell_angle_beta	89.999925
_cell_angle_gamma	60.003081
loop_
_atom_site_label
_atom_site_type_symbol
_atom_site_fract_x
_atom_site_fract_y
_atom_site_fract_z
Zr1	Zr	0.647265	1.005352	0.088237
O2	O	0.539992	1.196910	0.195500
O3	O	0.680148	0.813766	0.055356
O4	O	0.680155	1.005333	0.195518
O5	O	0.539982	1.005368	-0.055225
O6	O	0.790720	1.005351	0.195531
O7	O	0.539985	1.005342	0.055338
O8	O	0.790708	0.662672	-0.055193
O9	O	0.539995	1.348047	0.195499
O10	O	0.776689	0.892592	0.041341
O11	O	0.694173	0.892598	-0.041181
O12	O	0.694181	1.118143	0.123842
O13	O	0.611665	1.118149	0.041320
Zr14	Zr	0.823601	1.005421	-0.088078
Zr15	Zr	0.823605	1.005381	0.088258
Zr16	Zr	0.647261	1.005393	-0.088098
Zr17	Zr	0.647270	1.246398	0.088235
Zr18	Zr	0.823596	0.764375	-0.088076
O19	O	0.790718	1.197008	-0.055197
O20	O	0.790724	1.196950	0.195529
O21	O	0.539986	1.196967	-0.055226
O22	O	0.930874	0.813863	-0.195341
O23	O	0.930880	0.813806	0.055385
O24	O	0.680142	0.813823	-0.195370
O25	O	0.930884	1.005405	0.055384
O26	O	0.790711	1.005440	-0.195359
O27	O	0.680145	1.005422	-0.195371
O28	O	0.930881	1.005431	-0.055179
O29	O	0.680161	1.348069	0.195515
O30	O	0.790705	0.662704	-0.195356
O31	O	0.930871	0.662726	-0.195340
O32	O	0.930874	0.662694	-0.055177
O33	O	0.539991	1.348079	0.055336
O34	O	0.680158	1.348101	0.055352
O35	O	0.776685	0.892630	-0.123683
O36	O	0.859201	0.892624	-0.041161
O37	O	0.776693	1.118176	0.041340
O38	O	0.694177	1.118181	-0.041182
C39	C	0.735427	0.703875	0.000082
C40	C	0.735425	0.601544	0.000082
C41	C	0.613597	0.768012	0.121886
C42	C	0.552684	0.803169	0.182784
C43	C	0.552686	0.707016	0.182782
C44	C	0.613611	0.575695	0.121876
C45	C	0.674524	0.540538	0.060978
C46	C	0.674514	0.636703	0.060985
C47	C	0.796354	0.374072	-0.060821
C48	C	0.796350	0.470224	-0.060824
C49	C	0.857278	0.242752	-0.121727
C50	C	0.918190	0.207593	-0.182631
C51	C	0.918184	0.303756	-0.182626
C52	C	0.857263	0.435067	-0.121722
C53	C	0.514859	1.005351	0.000054
C54	C	0.439998	1.005339	0.000045
C55	C	0.167949	1.005403	0.000091
C56	C	0.248487	0.863121	-0.051704
C57	C	0.326390	0.863031	-0.051996
C58	C	0.302916	1.005370	0.000068
C59	C	0.248797	1.076045	-0.037893
C60	C	0.171235	1.075135	-0.038272
C61	C	0.170099	1.078029	0.089869
C62	C	0.248976	1.075354	0.089727
C63	C	0.379191	1.005360	0.000056
C64	C	0.091673	1.005418	0.000100
C65	C	0.956007	1.005422	0.000105
C66	C	1.030868	1.005434	0.000114
C67	C	0.735438	1.005336	0.220648
C68	C	0.735440	1.005319	0.295507
C69	C	0.735438	1.306898	0.000078
C70	C	0.735440	1.409229	0.000077
C71	C	0.735446	1.005364	0.567549
C72	C	0.787740	0.863084	0.487016
C73	C	0.787512	0.863000	0.409115
C74	C	0.735444	1.005341	0.432585
C75	C	0.645788	1.075989	0.486693
C76	C	0.646076	1.075074	0.564253
C77	C	0.772083	1.078017	0.565407
C78	C	0.773895	1.075348	0.486531
C79	C	0.735437	1.005335	0.356313
C80	C	0.735446	1.005374	0.643823
C81	C	0.735433	1.005420	0.779505
C82	C	0.735449	1.005386	0.704627
C83	C	0.956001	0.703910	0.000107
C84	C	1.030860	0.601592	0.000117
C85	C	0.735422	0.703925	-0.220487
C86	C	0.735418	0.601612	-0.295345
C87	C	0.955996	0.703961	-0.220461
C88	C	1.030853	0.601660	-0.295311
C89	C	0.514870	1.306812	0.220620
C90	C	0.440013	1.409113	0.295470
C91	C	0.514864	1.306863	0.000052
C92	C	0.440006	1.409181	0.000042
C93	C	0.735444	1.306848	0.220646
C94	C	0.735448	1.409161	0.295504
C95	C	1.022944	0.553525	0.043194
C96	C	1.093275	0.457400	0.043219
C97	C	1.171522	0.409336	0.000162
C98	C	1.179436	0.457412	-0.042916
C99	C	1.109106	0.553542	-0.042936
C100	C	0.778487	0.553582	-0.373572
C101	C	0.778480	0.457461	-0.443916
C102	C	0.735409	0.409366	-0.436031
C103	C	0.692335	0.457406	-0.357796
C104	C	0.692338	0.553531	-0.287454
C105	C	1.109087	0.553615	-0.287385
C106	C	1.179429	0.457506	-0.357707
C107	C	1.171537	0.409436	-0.435954
C108	C	1.093295	0.457490	-0.443878
C109	C	1.022954	0.553604	-0.373557
C110	C	0.361779	1.457170	0.287544
C111	C	0.291436	1.553309	0.357867
C112	C	0.299329	1.601384	0.436113
C113	C	0.377570	1.553323	0.444037
C114	C	0.447912	1.457192	0.373716
C115	C	0.447921	1.457258	-0.043028
C116	C	0.377590	1.553410	-0.043034
C117	C	0.299344	1.601477	0.000026
C118	C	0.291430	1.553397	0.043101
C119	C	0.361760	1.457253	0.043111
C120	C	0.778527	1.457226	0.287593
C121	C	0.778546	1.553347	0.357924
C122	C	0.735481	1.601409	0.436165
C123	C	0.692401	1.553335	0.444074
C124	C	0.692386	1.457208	0.373744
H125	H	0.503082	0.910099	0.232374
N126	N	0.721872	1.216857	0.640592
H127	H	0.675622	1.232674	0.675889
H128	H	0.758260	1.233200	0.673192
N129	N	0.824948	0.605436	-0.382095
H130	H	0.802347	0.645337	-0.413165
H131	H	0.818409	0.673569	-0.325643
H132	H	1.228820	0.331174	-0.493208
H133	H	0.735499	1.679681	0.493425
N134	N	0.094904	1.216866	0.141228
H135	H	0.062245	1.233286	0.189573
H136	H	0.112554	1.277540	0.161902
H137	H	0.853532	0.807570	0.369729
H138	H	0.250182	0.807259	-0.026376
H139	H	0.355303	1.418111	0.078182
N140	N	0.824943	0.405654	-0.528291
H141	H	0.852234	0.450703	-0.522605
H142	H	0.868241	0.309149	-0.559349
N143	N	1.117604	0.605466	-0.202993
H144	H	1.090347	0.588718	-0.171892
H145	H	1.177857	0.560422	-0.208719
N146	N	1.084786	0.405627	-0.528274
H147	H	1.053718	0.478963	-0.534884
H148	H	1.141249	0.337427	-0.571562
N149	N	0.613622	0.471978	0.121869
H150	H	0.666830	0.416144	0.127253
H151	H	0.565758	0.514268	0.169689
N152	N	0.938572	0.605413	-0.382104
H153	H	0.931981	0.645307	-0.413179
H154	H	0.932050	0.531986	-0.413158
N155	N	1.263814	0.405659	-0.349158
H156	H	1.294927	0.422406	-0.376403
H157	H	1.258071	0.450704	-0.288903
H158	H	0.657338	1.592481	0.507787
N159	N	1.263830	0.405555	-0.089367
H160	H	1.270438	0.478891	-0.066785
H161	H	1.307127	0.337340	-0.082805
N162	N	0.735420	0.305672	-0.511902
H163	H	0.677090	0.339111	-0.511954
H164	H	0.769282	0.282582	-0.562612
N165	N	0.645907	1.405396	0.382293
H166	H	0.602556	1.422140	0.355033
H167	H	0.685449	1.308907	0.355053
N168	N	0.378571	0.789583	-0.018269
H169	H	0.395365	0.697217	-0.053713
H170	H	0.429355	0.789476	-0.018392
N171	N	1.117648	0.605381	-0.089401
H172	H	1.148722	0.532033	-0.149648
H173	H	1.061196	0.673591	-0.082818
N174	N	0.298423	1.007121	0.127303
H175	H	0.316564	0.913994	0.092839
H176	H	0.348389	1.009181	0.129274
N177	N	0.353255	1.405325	0.203155
H178	H	0.293015	1.450371	0.208818
H179	H	0.380567	1.422060	0.172096
N180	N	0.207054	1.605131	0.349310
H181	H	0.212735	1.560073	0.289069
H182	H	0.175988	1.588397	0.376616
H183	H	1.228782	0.331059	0.000185
N184	N	0.591657	1.213340	0.639798
H185	H	0.567584	1.274615	0.622616
H186	H	0.545704	1.224619	0.672057
H187	H	0.613581	0.846314	0.121887
H188	H	0.242046	1.679659	0.493367
N189	N	0.645833	0.605398	-0.203082
H190	H	0.618535	0.560359	-0.208769
H191	H	0.685340	0.588704	-0.171972
N192	N	0.645888	0.405519	-0.349298
H193	H	0.652432	0.337331	-0.405734
H194	H	0.668512	0.365681	-0.318202
N195	N	0.386077	1.605180	0.528434
H196	H	0.329640	1.673365	0.571773
H197	H	0.417169	1.531759	0.534960
H198	H	0.853932	0.807242	0.485326
H199	H	0.511611	1.418066	0.380178
H200	H	0.171427	1.024932	-0.104337
N201	N	0.532310	1.405427	-0.089473
H202	H	0.526640	1.450490	-0.116751
H203	H	0.563369	1.422154	-0.049919
N204	N	0.861385	1.007115	0.437096
H205	H	0.866810	1.069758	0.433140
H206	H	0.899857	0.974687	0.465054
H207	H	0.967790	0.275115	-0.232215
N208	N	0.386137	1.605254	-0.089496
H209	H	0.446379	1.560199	-0.116777
H210	H	0.358826	1.588535	-0.132799
N211	N	0.223491	1.705175	0.000011
H212	H	0.240387	1.728328	-0.033812
H213	H	0.189665	1.671643	-0.024489
H214	H	0.227712	1.592548	0.078159
N215	N	0.728675	1.212915	0.511080
H216	H	0.754731	1.255389	0.545653
H217	H	0.731867	1.211882	0.460037
H218	H	0.813596	1.418109	0.223892
H219	H	0.813626	1.592479	0.351468
H220	H	0.167109	1.032483	0.121579
N221	N	0.938556	0.605351	0.089636
H222	H	0.944226	0.560307	0.116928
H223	H	0.907499	0.701856	0.132929
H224	H	1.086815	0.418268	0.078299
N225	N	0.486990	0.744934	0.248469
H226	H	0.431069	0.798053	0.245800
H227	H	0.496313	0.664033	0.239186
N228	N	0.857282	0.139048	-0.121723
H229	H	0.804080	0.148559	-0.127113
H230	H	0.905153	0.050576	-0.169542
H231	H	0.967792	0.100671	-0.232212
H232	H	0.857249	0.513371	-0.121716
H233	H	0.229035	1.180703	-0.001985
N234	N	0.249461	0.790383	-0.138990
H235	H	0.199995	0.787001	-0.139040
H236	H	0.247665	0.836679	-0.164157
N237	N	0.378097	0.789137	-0.139723
H238	H	0.345153	0.832305	-0.166152
H239	H	0.428973	0.788775	-0.140218
N240	N	0.095684	1.213406	0.008467
H241	H	0.112865	1.274678	0.029222
H242	H	0.063414	1.224710	-0.029223
N243	N	0.754404	0.789451	0.486017
H244	H	0.705573	0.847857	0.537504
H245	H	0.736749	0.759934	0.436076
H246	H	0.286249	1.026983	-0.103331
H247	H	0.230456	1.179198	0.131566
N248	N	0.753846	0.789094	0.357404
H249	H	0.695843	0.832250	0.390343
H250	H	0.753614	0.788741	0.306531
N251	N	0.607233	1.008541	0.563995
H252	H	0.590085	0.980081	0.513599
H253	H	0.648333	0.930161	0.563188
N254	N	0.591921	1.214627	0.512882
H255	H	0.589521	1.215608	0.462537
H256	H	0.534621	1.258067	0.547610
N257	N	0.606650	1.010989	0.437093
H258	H	0.604446	1.015011	0.387864
H259	H	0.640333	0.917281	0.417792
H260	H	0.837107	1.032487	0.568402
