data_functionalizedCrystal
_audit_creation_method	'MofGen! by Chris Wilmer'
_symmetry_space_group_name_H-M	'P1'
_symmetry_Int_Tables_number	1
_symmetry_cell_setting	triclinic
loop_
_symmetry_equiv_pos_as_xyz
  x,y,z
_cell_length_a	16.974829
_cell_length_b	17.019294
_cell_length_c	16.053802
_cell_angle_alpha	88.688316
_cell_angle_beta	83.771117
_cell_angle_gamma	83.147414
loop_
_atom_site_label
_atom_site_type_symbol
_atom_site_fract_x
_atom_site_fract_y
_atom_site_fract_z
O1	O	1.056127	0.093506	-0.147508
O2	O	0.825203	0.107007	-0.132878
O3	O	0.946711	-0.014208	-0.132368
O4	O	0.934619	0.214721	-0.148018
O5	O	0.940023	-0.007564	0.006465
O6	O	0.818515	0.113651	0.005955
O7	O	1.049439	0.100151	-0.008675
Zn8	Zn	0.932915	0.107956	0.020683
Zn9	Zn	0.941727	0.099202	-0.162236
O10	O	0.927931	0.221366	-0.009185
C11	C	0.792304	0.109938	-0.061436
C12	C	0.704238	0.108764	-0.055402
C13	C	0.208130	0.102568	-0.013315
C14	C	0.290876	0.103671	-0.018986
C15	C	0.335896	0.100595	-0.097501
C16	C	0.298165	0.096423	-0.170349
C17	C	0.215419	0.095325	-0.164677
C18	C	0.583761	0.103494	-0.122579
C19	C	0.666513	0.104590	-0.128245
C20	C	0.659218	0.111839	0.023118
C21	C	0.576472	0.110737	0.028783
C22	C	0.538747	0.106569	-0.044065
N23	N	0.420477	0.101720	-0.103300
N24	N	0.454167	0.105449	-0.038266
C25	C	0.942777	-0.040172	-0.060807
C26	C	0.941008	-0.127435	-0.054416
C27	C	0.943825	-0.172049	-0.127091
C28	C	0.942158	-0.254041	-0.121083
C29	C	0.937680	-0.291418	-0.042400
C30	C	0.934861	-0.246798	0.030281
C31	C	0.936522	-0.164807	0.024272
C32	C	0.932476	-0.538796	-0.020472
C33	C	0.930818	-0.620794	-0.014469
C34	C	0.938113	-0.628031	-0.165834
C35	C	0.939779	-0.546038	-0.171835
C36	C	0.936956	-0.501425	-0.099155
C37	C	0.935978	-0.375227	-0.036257
C38	C	0.938651	-0.417617	-0.105298
C39	C	1.082338	0.097220	-0.080118
C40	C	1.170404	0.098394	-0.086158
C41	C	0.931865	0.247330	-0.080748
C42	C	0.933634	0.334592	-0.087144
N43	N	0.926907	0.113930	0.145519
N44	N	0.947741	0.093221	-0.287072
C45	C	0.978628	0.062371	0.189427
C46	C	0.974432	0.066558	0.276816
C47	C	0.918519	0.122308	0.320295
C48	C	0.866793	0.173869	0.276381
C49	C	0.870985	0.169678	0.188994
C50	C	0.900207	0.140592	0.581627
C51	C	0.896021	0.144780	0.669020
C52	C	1.003659	0.037467	0.669449
C53	C	1.007850	0.033285	0.582060
C54	C	0.956121	0.084843	0.538154
N55	N	0.914231	0.126590	0.409621
N56	N	0.960405	0.080557	0.448831
H57	H	0.689943	0.115234	0.082427
O58	O	1.038928	0.002226	0.142548
H59	H	1.007348	-0.037762	0.107753
O60	O	0.835713	0.204913	0.715921
H61	H	0.795187	0.173867	0.760737
O62	O	0.331566	0.108204	0.059577
H63	H	0.286359	0.110161	0.115125
H64	H	0.539824	0.113225	0.092719
H65	H	0.932335	-0.405669	0.027807
O66	O	1.030230	0.010963	0.324176
H67	H	1.069826	-0.028496	0.279260
O68	O	1.068149	-0.026852	0.535165
H69	H	1.103405	-0.062007	0.580380
H70	H	0.947475	-0.141623	-0.191164
O71	O	0.941139	-0.676151	-0.244217
H72	H	0.944532	-0.636385	-0.299939
O73	O	0.715074	0.101280	-0.212932
H74	H	0.674940	0.098206	-0.262637
O75	O	0.543082	0.098950	-0.201144
H76	H	0.588294	0.096971	-0.256688
H77	H	0.858089	0.182574	0.545885
H78	H	0.944455	-0.290362	-0.180263
H79	H	0.930193	-0.502484	0.038709
O80	O	1.059445	-0.018147	0.716803
H81	H	1.047135	-0.005875	0.784874
O82	O	0.944593	-0.505721	-0.256700
H83	H	0.946260	-0.550518	-0.306227
O84	O	0.806488	0.234005	0.323269
H85	H	0.812267	0.228265	0.391411
O86	O	0.815203	0.225281	0.141622
H87	H	0.824644	0.287335	0.153271
O88	O	0.159572	0.105890	0.071368
H89	H	0.199710	0.108987	0.121066
H90	H	0.184704	0.091929	-0.223994
O91	O	0.346718	0.093091	-0.255035
H92	H	0.410597	0.094541	-0.246742
H93	H	0.927167	-0.651223	0.049607
O94	O	0.930046	-0.287108	0.115149
H95	H	0.929378	-0.351619	0.107118
H96	H	0.934217	-0.128481	0.083453
H97	H	0.942292	-0.387180	-0.169361
