data_functionalizedCrystal
_audit_creation_method	'MofGen! by Chris Wilmer'
_symmetry_space_group_name_H-M	'P1'
_symmetry_Int_Tables_number	1
_symmetry_cell_setting	triclinic
loop_
_symmetry_equiv_pos_as_xyz
  x,y,z
_cell_length_a	6.817900
_cell_length_b	16.015009
_cell_length_c	12.200875
_cell_angle_alpha	77.060380
_cell_angle_beta	107.143593
_cell_angle_gamma	104.487874
loop_
_atom_site_label
_atom_site_type_symbol
_atom_site_fract_x
_atom_site_fract_y
_atom_site_fract_z
V1	V	-4.046948	-0.119720	-0.307674
O2	O	-4.056030	0.005551	-0.353170
O3	O	-3.977214	-0.237190	-0.256180
O4	O	-4.016984	-0.117967	-0.464394
O5	O	-4.015984	-0.114498	-0.143515
V6	V	-4.530952	-0.104726	-0.294039
O7	O	-4.307153	-0.152611	-0.337583
O8	O	-4.720945	-0.071834	-0.264130
O9	O	-4.377480	0.012745	-0.345533
O10	O	-4.639267	-0.229997	-0.248543
O11	O	-4.679313	-0.109948	-0.458198
O12	O	-4.337709	-0.106479	-0.137319
C13	C	-3.816428	-0.265824	-0.238582
C14	C	-3.840822	-0.361859	-0.197524
C15	C	-3.824971	-0.484823	-0.039787
C16	C	-3.802054	-0.394586	-0.078379
C17	C	-3.902536	-0.419364	-0.278125
C18	C	-3.925471	-0.509606	-0.239551
C19	C	-3.886683	-0.542327	-0.120381
C20	C	-3.987183	-0.567110	-0.320144
C21	C	-4.010106	-0.657343	-0.281572
C22	C	-3.971317	-0.690072	-0.162406
C23	C	-3.909605	-0.632561	-0.081808
C24	C	-4.025956	-0.534386	-0.439313
C25	C	-4.087668	-0.591890	-0.519907
C26	C	-4.110606	-0.682126	-0.481335
C27	C	-4.071817	-0.714855	-0.362170
C28	C	-4.172317	-0.739637	-0.561933
C29	C	-4.195240	-0.829871	-0.523361
C30	C	-4.094740	-0.805088	-0.323597
C31	C	-3.867158	-0.113742	-0.504179
C32	C	-3.923802	-0.113086	-0.631974
C33	C	-4.027468	-0.111886	-0.865949
C34	C	-3.969772	-0.112554	-0.735749
C35	C	-4.201606	0.041374	-0.363126
C36	C	-4.156452	0.137408	-0.404191
C37	C	-4.150876	-0.110706	-0.097527
C38	C	-4.073472	-0.111358	0.030268
H39	H	-4.063168	-0.831732	-0.226558
O40	O	-3.742488	-0.338764	-0.000053
C41	C	-3.890421	-0.357475	0.066456
H42	H	-4.046964	-0.392463	0.016039
H43	H	-3.910625	-0.293918	0.085143
H44	H	-3.833300	-0.401172	0.151964
H45	H	-3.793400	-0.511467	0.057252
O46	O	-3.993194	-0.777708	-0.124863
C47	C	-3.800388	-0.796868	-0.053473
H48	H	-3.667213	-0.742164	-0.074892
H49	H	-3.779328	-0.861172	-0.069454
H50	H	-3.798715	-0.802760	0.041650
H51	H	-4.203873	-0.712981	-0.658961
H52	H	-3.934104	-0.392709	-0.375154
O53	O	-4.125020	-0.560135	-0.635668
C54	C	-3.988329	-0.585562	-0.683330
H55	H	-3.844367	-0.600194	-0.611713
H56	H	-3.938016	-0.530440	-0.752769
H57	H	-4.072069	-0.646611	-0.724049
O58	O	-4.255309	-0.885617	-0.601803
C59	C	-4.284590	-0.837387	-0.715254
H60	H	-4.316720	-0.770959	-0.714821
H61	H	-4.423295	-0.874471	-0.776026
H62	H	-4.137439	-0.827731	-0.746657
O63	O	-4.004038	-0.446758	-0.476939
C64	C	-4.196870	-0.427598	-0.548286
H65	H	-4.297053	-0.488232	-0.585601
H66	H	-4.167351	-0.372386	-0.622369
H67	H	-4.282133	-0.406682	-0.494585
H68	H	-3.878034	-0.659204	0.015232
