data_functionalizedCrystal
_audit_creation_method	'MofGen! by Chris Wilmer'
_symmetry_space_group_name_H-M	'P1'
_symmetry_Int_Tables_number	1
_symmetry_cell_setting	triclinic
loop_
_symmetry_equiv_pos_as_xyz
  x,y,z
_cell_length_a	16.992694
_cell_length_b	11.792241
_cell_length_c	16.053802
_cell_angle_alpha	92.583059
_cell_angle_beta	87.249047
_cell_angle_gamma	87.430819
loop_
_atom_site_label
_atom_site_type_symbol
_atom_site_fract_x
_atom_site_fract_y
_atom_site_fract_z
O1	O	1.044699	0.236280	-0.069325
O2	O	1.544699	0.736280	0.430675
O3	O	0.816403	0.233637	-0.069350
O4	O	1.316403	0.733637	0.430650
O5	O	0.936091	0.070242	-0.069331
O6	O	1.436091	0.570242	0.430669
O7	O	0.925011	0.399675	-0.069344
O8	O	1.425011	0.899675	0.430656
O9	O	0.929503	0.079196	0.069527
O10	O	1.429503	0.579196	0.569527
O11	O	0.809815	0.242591	0.069508
O12	O	1.309815	0.742591	0.569508
O13	O	1.038111	0.245234	0.069533
O14	O	1.538111	0.745234	0.569533
Zn15	Zn	0.922917	0.245334	0.091567
Zn16	Zn	1.422917	0.745334	0.591567
Zn17	Zn	0.931597	0.233537	-0.091384
Zn18	Zn	1.431597	0.733537	0.408616
O19	O	0.918423	0.408630	0.069514
O20	O	1.418423	0.908630	0.569514
C21	C	0.783882	0.234716	0.000076
C22	C	1.283882	0.734716	0.500076
C23	C	0.696796	0.224578	0.000067
C24	C	1.196796	0.724578	0.500067
C25	C	0.646971	0.322395	0.000064
C26	C	1.146971	0.822395	0.500064
C27	C	0.565143	0.312864	0.000076
C28	C	1.065143	0.812864	0.500076
C29	C	0.533142	0.205513	0.000085
C30	C	1.033142	0.705513	0.500085
C31	C	0.582973	0.107688	0.000091
C32	C	1.082973	0.607688	0.500091
C33	C	0.664799	0.117221	0.000085
C34	C	1.164799	0.617221	0.500085
C35	C	0.289375	0.166002	0.000109
C36	C	0.789375	0.666002	0.500109
C37	C	0.207543	0.156476	0.000112
C38	C	0.707543	0.656476	0.500112
C39	C	0.189719	0.361652	0.000099
C40	C	0.689719	0.861652	0.500099
C41	C	0.271548	0.371176	0.000088
C42	C	0.771548	0.871176	0.500088
C43	C	0.321371	0.273351	0.000098
C44	C	0.821371	0.773351	0.500098
N45	N	0.449501	0.195767	0.000094
N46	N	0.949501	0.695767	0.500094
N47	N	0.405010	0.283098	0.000095
N48	N	0.905010	0.783098	0.500095
C49	C	0.932101	0.032371	0.000098
C50	C	1.432101	0.532371	0.500098
C51	C	0.930018	-0.093813	0.000097
C52	C	1.430018	0.406187	0.500097
C53	C	0.926188	-0.324840	0.000082
C54	C	1.426188	0.175160	0.500082
C55	C	0.928316	-0.196280	0.000090
C56	C	1.428316	0.303720	0.500090
C57	C	1.070632	0.244155	0.000105
C58	C	1.570632	0.744155	0.500105
C59	C	1.157719	0.254293	0.000109
C60	C	1.657719	0.754293	0.500109
C61	C	0.922413	0.446500	0.000084
C62	C	1.422413	0.946500	0.500084
C63	C	0.924497	0.572684	0.000079
C64	C	1.424497	1.072684	0.500079
N65	N	0.916999	0.253386	0.216427
N66	N	1.416999	0.753386	0.716427
N67	N	0.937521	0.225477	-0.216243
N68	N	1.437521	0.725477	0.283757
C69	C	0.967945	0.183889	0.260129
C70	C	1.467945	0.683889	0.760129
C71	C	0.963812	0.189532	0.347535
C72	C	1.463812	0.689532	0.847535
C73	C	0.908737	0.264679	0.391237
C74	C	1.408737	0.764679	0.891237
C75	C	0.857785	0.334179	0.347529
C76	C	1.357785	0.834179	0.847529
C77	C	0.861915	0.328529	0.260125
C78	C	1.361915	0.828529	0.760125
C79	C	0.890699	0.289327	0.652644
C80	C	1.390699	0.789327	1.152644
C81	C	0.886575	0.294974	0.740055
C82	C	1.386575	0.794974	1.240055
C83	C	0.992602	0.150325	0.740054
C84	C	1.492602	0.650325	1.240054
C85	C	0.996729	0.144687	0.652648
C86	C	1.496729	0.644687	1.152648
C87	C	0.945775	0.214182	0.608948
C88	C	1.445775	0.714182	1.108948
N89	N	0.904513	0.270452	0.480580
N90	N	1.404513	0.770452	0.980580
N91	N	0.949996	0.208403	0.519606
N92	N	1.449996	0.708403	1.019606
H93	H	0.524579	0.392517	0.000072
H94	H	1.024579	0.892517	0.500072
N95	N	1.024202	0.107109	0.215506
N96	N	1.524202	0.607109	0.715506
N97	N	1.075369	0.144383	0.166722
N98	N	1.575369	0.644383	0.666722
H99	H	1.115100	0.090142	0.135219
H100	H	1.615100	0.590142	0.635219
H101	H	0.329932	0.086345	0.000118
H102	H	0.829932	0.586345	0.500118
N103	N	0.830297	0.371722	0.784690
N104	N	1.330297	0.871722	1.284690
N105	N	0.758253	0.362876	0.774943
N106	N	1.258253	0.862876	1.274943
H107	H	0.718507	0.417073	0.806468
H108	H	1.218507	0.917073	1.306468
N109	N	0.174843	0.046820	0.000115
N110	N	0.674843	0.546820	0.500115
N111	N	0.133943	0.014838	-0.058416
N112	N	0.633943	0.514838	0.441584
H113	H	0.110848	-0.062602	-0.058417
H114	H	0.610848	0.437398	0.441583
H115	H	1.005296	0.132942	0.383116
H116	H	1.505296	0.632942	0.883116
H117	H	0.149145	0.441295	0.000092
H118	H	0.649145	0.941295	0.500092
N119	N	0.809866	0.399521	0.215494
N120	N	1.309866	0.899521	0.715494
N121	N	0.760694	0.466612	0.254522
N122	N	1.260694	0.966612	0.754522
H123	H	0.723929	0.516750	0.223003
H124	H	1.223929	1.016750	0.723003
H125	H	1.041576	0.083496	0.617067
H126	H	1.541576	0.583496	1.117067
N127	N	0.550274	-0.001960	0.000109
N128	N	1.050274	0.498040	0.500109
N129	N	0.477215	-0.010460	0.000113
N130	N	0.977215	0.489540	0.500113
H131	H	0.454121	-0.087901	0.000124
H132	H	0.954121	0.412099	0.500124
N133	N	0.715684	0.017292	0.000097
N134	N	1.215684	0.517292	0.500097
N135	N	0.687104	-0.078551	0.000109
N136	N	1.187104	0.421449	0.500109
H137	H	0.723041	-0.149130	0.000123
H138	H	1.223041	0.350870	0.500123
N139	N	1.044630	0.079333	0.784707
N140	N	1.544630	0.579333	1.284707
N141	N	1.017138	0.009731	0.833491
N142	N	1.517138	0.509731	1.333491
H143	H	1.053882	-0.040414	0.865028
H144	H	1.553882	0.459586	1.365028
N145	N	0.838644	0.360316	0.608026
N146	N	1.338644	0.860316	1.108026
N147	N	0.789474	0.427404	0.647059
N148	N	1.289474	0.927404	1.147059
H149	H	0.752706	0.477543	0.615545
H150	H	1.252706	0.977543	1.115545
N151	N	0.801515	0.410920	0.392170
N152	N	1.301515	0.910920	0.892170
N153	N	0.750374	0.373585	0.440953
N154	N	1.250374	0.873585	0.940953
H155	H	0.710631	0.427785	0.472480
H156	H	1.210631	0.927785	0.972480
N157	N	0.679643	0.432061	0.000047
N158	N	1.179643	0.932061	0.500047
N159	N	0.635144	0.519389	0.000046
N160	N	1.135144	1.019389	0.500046
H161	H	0.658215	0.596845	0.000036
H162	H	1.158215	1.096845	0.500036
H163	H	0.297597	0.458591	0.000071
H164	H	0.797597	0.958591	0.500071
