data_functionalizedCrystal
_audit_creation_method	'MofGen! by Chris Wilmer'
_symmetry_space_group_name_H-M	'P1'
_symmetry_Int_Tables_number	1
_symmetry_cell_setting	triclinic
loop_
_symmetry_equiv_pos_as_xyz
  x,y,z
_cell_length_a	18.215407
_cell_length_b	13.897448
_cell_length_c	13.897441
_cell_angle_alpha	89.969401
_cell_angle_beta	89.977966
_cell_angle_gamma	90.018140
loop_
_atom_site_label
_atom_site_type_symbol
_atom_site_fract_x
_atom_site_fract_y
_atom_site_fract_z
Zn1	Zn	1.125125	-0.383973	-0.545415
Zn2	Zn	1.625125	0.116027	-0.045415
Zn3	Zn	1.125044	-0.545294	-0.384116
Zn4	Zn	1.625044	-0.045294	0.115884
Zn5	Zn	1.002053	-0.384016	-0.384129
Zn6	Zn	1.502053	0.115984	0.115871
Zn7	Zn	1.002039	-0.545229	-0.545365
Zn8	Zn	1.502039	-0.045229	-0.045365
O9	O	1.063565	-0.464628	-0.464756
O10	O	1.563565	0.035372	0.035244
O11	O	1.228098	-0.405382	-0.524033
O12	O	1.728098	0.094618	-0.024033
O13	O	1.108701	-0.523946	-0.249136
O14	O	1.608701	-0.023946	0.250864
O15	O	1.018418	-0.249029	-0.405551
O16	O	1.518418	0.250971	0.094449
O17	O	1.228039	-0.523904	-0.405528
O18	O	1.728039	-0.023904	0.094472
O19	O	1.108839	-0.248997	-0.524046
O20	O	1.608839	0.251003	-0.024046
O21	O	1.018340	-0.405456	-0.249146
O22	O	1.518340	0.094544	0.250854
O23	O	0.899066	-0.405392	-0.405502
O24	O	1.399066	0.094608	0.094498
O25	O	1.018394	-0.523792	-0.680353
O26	O	1.518394	-0.023792	-0.180353
O27	O	0.899056	-0.523834	-0.523962
O28	O	1.399056	-0.023834	-0.023962
O29	O	1.108825	-0.405318	-0.680390
O30	O	1.608825	0.094682	-0.180390
O31	O	1.108687	-0.680267	-0.405480
O32	O	1.608687	-0.180267	0.094520
O33	O	1.018316	-0.680219	-0.523949
O34	O	1.518316	-0.180219	-0.023949
C35	C	0.872359	-0.464611	-0.464729
C36	C	1.372359	0.035389	0.035271
C37	C	0.790560	-0.464628	-0.464740
C38	C	1.290560	0.035372	0.035260
C39	C	0.602380	-0.526397	-0.526344
C40	C	1.102380	-0.026397	-0.026344
C41	C	0.525521	-0.526400	-0.526356
C42	C	1.025521	-0.026400	-0.026356
C43	C	0.525502	-0.402876	-0.403190
C44	C	1.025502	0.097124	0.096810
C45	C	0.602359	-0.402869	-0.403183
C46	C	1.102359	0.097131	0.096817
C47	C	0.640796	-0.464635	-0.464759
C48	C	1.140796	0.035365	0.035241
C49	C	0.487080	-0.464645	-0.464777
C50	C	0.987080	0.035355	0.035223
C51	C	0.403747	-0.464648	-0.464790
C52	C	0.903747	0.035352	0.035210
C53	C	0.724135	-0.464631	-0.464748
C54	C	1.224135	0.035369	0.035252
C55	C	1.063511	-0.715242	-0.464728
C56	C	1.563511	-0.215242	0.035272
C57	C	1.063556	-0.822456	-0.464749
C58	C	1.563556	-0.322456	0.035251
C59	C	1.063633	-1.018751	-0.464809
C60	C	1.563633	-0.518751	0.035191
C61	C	1.063588	-0.909519	-0.464778
C62	C	1.563588	-0.409519	0.035222
C63	C	1.255518	-0.464645	-0.464785
C64	C	1.755518	0.035355	0.035215
C65	C	1.337317	-0.464653	-0.464797
C66	C	1.837317	0.035347	0.035203
C67	C	1.063617	-0.464543	-0.716349
C68	C	1.563617	0.035457	-0.216349
C69	C	1.063639	-0.464506	-0.823563
C70	C	1.563639	0.035494	-0.323563
C71	C	1.063639	-0.213035	-0.464805
C72	C	1.563639	0.286965	0.035195
C73	C	1.063670	-0.105821	-0.464826
C74	C	1.563670	0.394179	0.035174
C75	C	1.063659	-0.464441	-1.019859
C76	C	1.563659	0.035559	-0.519859
C77	C	1.063646	-0.464480	-0.910626
C78	C	1.563646	0.035520	-0.410626
C79	C	1.063555	-0.464643	-0.214142
C80	C	1.563555	0.035357	0.285858
C81	C	1.063676	-0.464408	-0.106928
C82	C	1.563676	0.035592	0.393072
H83	H	0.633639	-0.352568	-0.353033
H84	H	1.133639	0.147432	0.146967
N85	N	0.484040	-0.336286	-0.336758
N86	N	0.984040	0.163714	0.163242
H87	H	0.452163	-0.291634	-0.376021
H88	H	0.952163	0.208366	0.123979
H89	H	0.452181	-0.375529	-0.292016
H90	H	0.952181	0.124471	0.207984
H91	H	0.633673	-0.576689	-0.576485
H92	H	1.133673	-0.076689	-0.076485
H93	H	0.494246	-0.576692	-0.576506
H94	H	0.994246	-0.076692	-0.076506
