data_functionalizedCrystal
_audit_creation_method	'MofGen! by Chris Wilmer'
_symmetry_space_group_name_H-M	'P1'
_symmetry_Int_Tables_number	1
_symmetry_cell_setting	triclinic
loop_
_symmetry_equiv_pos_as_xyz
  x,y,z
_cell_length_a	16.109301
_cell_length_b	10.268362
_cell_length_c	16.109301
_cell_angle_alpha	90.002770
_cell_angle_beta	83.461481
_cell_angle_gamma	90.001892
loop_
_atom_site_label
_atom_site_type_symbol
_atom_site_fract_x
_atom_site_fract_y
_atom_site_fract_z
O1	O	1.103132	0.108222	0.106863
O2	O	1.603132	0.608222	0.606863
O3	O	0.861071	0.108243	0.120162
O4	O	1.361071	0.608243	0.620162
O5	O	0.988751	0.108219	-0.007518
O6	O	1.488751	0.608219	0.492482
O7	O	0.975452	0.108247	0.234544
O8	O	1.475452	0.608247	0.734544
O9	O	0.988739	-0.108382	-0.007514
O10	O	1.488739	0.391618	0.492486
O11	O	0.861058	-0.108357	0.120167
O12	O	1.361058	0.391643	0.620167
O13	O	1.103120	-0.108379	0.106867
O14	O	1.603120	0.391621	0.606867
Cu15	Cu	0.982088	-0.128145	0.113517
Cu16	Cu	1.482088	0.371855	0.613517
Cu17	Cu	0.982103	0.128010	0.113512
Cu18	Cu	1.482103	0.628010	0.613512
O19	O	0.975440	-0.108354	0.234548
O20	O	1.475440	0.391646	0.734548
C21	C	0.830090	-0.000054	0.119626
C22	C	1.330090	0.499946	0.619626
C23	C	0.737794	-0.000047	0.118011
C24	C	1.237794	0.499953	0.618011
C25	C	0.515522	-0.000054	0.190018
C26	C	1.015522	0.499946	0.690018
C27	C	0.428801	-0.000062	0.188494
C28	C	0.928801	0.499938	0.688494
C29	C	0.448676	-0.000074	0.037006
C30	C	0.948676	0.499926	0.537006
C31	C	0.535394	-0.000075	0.038530
C32	C	1.035394	0.499925	0.538530
C33	C	0.568815	-0.000058	0.115039
C34	C	1.068815	0.499942	0.615039
C35	C	0.395376	-0.000066	0.111990
C36	C	0.895376	0.499934	0.611990
C37	C	0.301350	-0.000075	0.110337
C38	C	0.801350	0.499925	0.610337
C39	C	0.662847	-0.000051	0.116693
C40	C	1.162847	0.499949	0.616693
N41	N	0.982084	-0.308311	0.113521
N42	N	1.482084	0.191689	0.613521
C43	C	0.982090	-0.426154	0.113521
C44	C	1.482090	0.073846	0.613521
C45	C	0.982101	-0.573991	0.113513
C46	C	1.482101	-0.073991	0.613513
C47	C	1.134101	-0.000078	0.107404
C48	C	1.634101	0.499922	0.607404
C49	C	1.226397	-0.000077	0.109019
C50	C	1.726397	0.499923	0.609019
C51	C	0.988206	-0.000082	-0.038491
C52	C	1.488206	0.499918	0.461509
C53	C	0.986591	-0.000084	-0.130786
C54	C	1.486591	0.499916	0.369214
N55	N	0.982113	0.308176	0.113502
N56	N	1.482113	0.808176	0.613502
C57	C	1.058599	-0.000070	-0.353059
C58	C	1.558599	0.499930	0.146941
C59	C	1.057075	-0.000059	-0.439779
C60	C	1.557075	0.499941	0.060221
C61	C	0.905586	-0.000050	-0.419905
C62	C	1.405586	0.499950	0.080095
C63	C	0.907111	-0.000052	-0.333186
C64	C	1.407111	0.499948	0.166814
C65	C	0.983620	-0.000068	-0.299766
C66	C	1.483620	0.499932	0.200234
C67	C	0.980571	-0.000056	-0.473205
C68	C	1.480571	0.499944	0.026795
C69	C	0.978918	-0.000044	-0.567231
C70	C	1.478918	0.499956	-0.067231
C71	C	0.985273	-0.000077	-0.205734
C72	C	1.485273	0.499923	0.294266
C73	C	0.975984	-0.000050	0.265521
C74	C	1.475984	0.499950	0.765521
C75	C	0.977600	-0.000040	0.357816
C76	C	1.477600	0.499960	0.857816
H77	H	0.385413	-0.000061	0.249550
H78	H	0.885413	0.499939	0.749550
H79	H	0.846050	-0.000047	-0.289792
H80	H	1.346050	0.499953	0.210208
C81	C	0.579048	0.111271	-0.090123
C82	C	1.079048	0.611271	0.409877
C83	C	0.593983	-0.000074	-0.043892
C84	C	1.093983	0.499926	0.456108
H85	H	0.615223	0.111270	-0.141002
H86	H	1.115223	0.611270	0.358998
H87	H	0.522627	0.111262	-0.101982
H88	H	1.022627	0.611262	0.398018
H89	H	0.589181	0.186797	-0.058742
H90	H	1.089181	0.686797	0.441258
H91	H	0.583844	-0.075600	-0.075272
H92	H	1.083844	0.424400	0.424728
H93	H	0.650418	-0.000077	-0.032035
H94	H	1.150418	0.499923	0.467965
C95	C	1.208185	-0.000052	-0.381417
C96	C	1.708185	0.499948	0.118583
C97	C	1.142696	-0.000064	-0.316322
C98	C	1.642696	0.499936	0.183678
H99	H	1.260103	-0.000036	-0.358737
H100	H	1.760103	0.499964	0.141263
H101	H	1.204442	-0.075583	-0.414826
H102	H	1.704442	0.424417	0.085174
H103	H	1.204429	0.075485	-0.414826
H104	H	1.704429	0.575485	0.085174
H105	H	1.146448	-0.075606	-0.282916
H106	H	1.646448	0.424394	0.217084
H107	H	1.146441	0.075475	-0.282899
H108	H	1.646441	0.575475	0.217101
H109	H	1.118130	-0.000057	-0.483168
H110	H	1.618130	0.499943	0.016832
H111	H	0.843295	-0.000040	-0.447127
H112	H	1.343295	0.499960	0.052873
C113	C	0.324566	-0.000065	-0.032597
C114	C	0.824566	0.499935	0.467403
C115	C	0.411936	-0.000075	-0.047090
C116	C	0.911936	0.499925	0.452910
H117	H	0.301888	-0.000055	-0.084517
H118	H	0.801888	0.499945	0.415483
H119	H	0.306273	-0.075592	-0.001733
H120	H	0.806273	0.424408	0.498267
H121	H	0.306283	0.075475	-0.001723
H122	H	0.806283	0.575475	0.498277
H123	H	0.430219	-0.075621	-0.077959
H124	H	0.930219	0.424379	0.422041
H125	H	0.430237	0.075460	-0.077967
H126	H	0.930237	0.575460	0.422033
H127	H	0.542730	-0.000050	0.252317
H128	H	1.042730	0.499950	0.752317
