data_functionalizedCrystal
_audit_creation_method	'MofGen! by Chris Wilmer'
_symmetry_space_group_name_H-M	'P1'
_symmetry_Int_Tables_number	1
_symmetry_cell_setting	triclinic
loop_
_symmetry_equiv_pos_as_xyz
  x,y,z
_cell_length_a	11.792254
_cell_length_b	11.792241
_cell_length_c	16.053802
_cell_angle_alpha	92.583059
_cell_angle_beta	87.401073
_cell_angle_gamma	84.196007
loop_
_atom_site_label
_atom_site_type_symbol
_atom_site_fract_x
_atom_site_fract_y
_atom_site_fract_z
O1	O	1.511659	0.150887	-0.069429
O2	O	1.844992	0.484221	0.263904
O3	O	2.178326	0.817554	0.597238
O4	O	1.181320	0.166905	-0.069431
O5	O	1.514653	0.500238	0.263903
O6	O	1.847987	0.833572	0.597236
O7	O	1.354506	-0.006274	-0.069424
O8	O	1.687839	0.327060	0.263909
O9	O	2.021172	0.660393	0.597243
O10	O	1.338474	0.324066	-0.069436
O11	O	1.671807	0.657399	0.263898
O12	O	2.005140	0.990733	0.597231
O13	O	1.344973	0.003219	0.069435
O14	O	1.678306	0.336552	0.402768
O15	O	2.011639	0.669886	0.736101
O16	O	1.171787	0.176398	0.069428
O17	O	1.505120	0.509731	0.402761
O18	O	1.838454	0.843064	0.736094
O19	O	1.502126	0.160380	0.069430
O20	O	1.835460	0.493713	0.402763
O21	O	2.168793	0.827047	0.736096
Zn22	Zn	1.335443	0.169896	0.091476
Zn23	Zn	1.668776	0.503229	0.424809
Zn24	Zn	2.002110	0.836563	0.758142
Zn25	Zn	1.348003	0.157389	-0.091477
Zn26	Zn	1.681336	0.490722	0.241857
Zn27	Zn	2.014670	0.824056	0.575190
O28	O	1.328941	0.333559	0.069423
O29	O	1.662274	0.666892	0.402756
O30	O	1.995607	1.000225	0.736089
C31	C	1.134263	0.170642	-0.000002
C32	C	1.467596	0.503976	0.333332
C33	C	1.800930	0.837309	0.666665
C34	C	1.008250	0.167622	-0.000002
C35	C	1.341583	0.500955	0.333331
C36	C	1.674917	0.834289	0.666664
C37	C	1.348732	-0.043818	0.000005
C38	C	1.682065	0.289515	0.333338
C39	C	2.015399	0.622848	0.666672
C40	C	1.345718	-0.169832	0.000004
C41	C	1.679051	0.163501	0.333338
C42	C	2.012384	0.496834	0.666671
C43	C	0.905914	0.165168	-0.000006
C44	C	1.239247	0.498501	0.333328
C45	C	1.572580	0.831835	0.666661
C46	C	0.777527	0.162100	-0.000006
C47	C	1.110860	0.495433	0.333327
C48	C	1.444194	0.828766	0.666661
C49	C	1.340176	-0.400546	-0.000010
C50	C	1.673509	-0.067212	0.333324
C51	C	2.006842	0.266121	0.666657
C52	C	1.343255	-0.272160	-0.000002
C53	C	1.676588	0.061174	0.333331
C54	C	2.009922	0.394507	0.666665
C55	C	1.549183	0.156642	-0.000001
C56	C	1.882517	0.489976	0.333332
C57	C	2.215850	0.823309	0.666665
C58	C	1.675197	0.159662	-0.000006
C59	C	2.008530	0.492996	0.333327
C60	C	2.341863	0.826329	0.666661
C61	C	1.334714	0.371103	-0.000008
C62	C	1.668048	0.704436	0.333325
C63	C	2.001381	1.037770	0.666659
C64	C	1.337729	0.497117	-0.000013
C65	C	1.671062	0.830450	0.333321
C66	C	2.004396	1.163783	0.666654
N67	N	1.326880	0.178431	0.216335
N68	N	1.660213	0.511764	0.549669
N69	N	1.993546	0.845098	0.883002
N70	N	1.356576	0.148845	-0.216337
N71	N	1.689909	0.482178	0.116997
N72	N	2.023242	0.815512	0.450330
C73	C	1.400598	0.104770	0.260032
C74	C	1.733931	0.438103	0.593366
C75	C	2.067264	0.771437	0.926699
C76	C	1.394618	0.110751	0.347439
C77	C	1.727951	0.444084	0.680772
C78	C	2.061284	0.777418	1.014106
C79	C	1.314925	0.190400	0.391147
C80	C	1.648258	0.523733	0.724480
C81	C	1.981592	0.857067	1.057814
C82	C	1.241199	0.264064	0.347444
C83	C	1.574532	0.597398	0.680777
C84	C	1.907866	0.930731	1.014111
C85	C	1.247174	0.258077	0.260039
C86	C	1.580508	0.591410	0.593372
C87	C	1.913841	0.924743	0.926706
C88	C	1.288825	0.216522	0.652556
C89	C	1.622158	0.549855	0.985889
C90	C	1.955491	0.883189	1.319222
C91	C	1.282858	0.222506	0.739967
C92	C	1.616191	0.555840	1.073300
C93	C	1.949524	0.889173	1.406633
C94	C	1.436276	0.069191	0.739955
C95	C	1.769609	0.402524	1.073289
C96	C	2.102942	0.735857	1.406622
C97	C	1.442248	0.063215	0.652549
C98	C	1.775581	0.396548	0.985882
C99	C	2.108915	0.729882	1.319215
C100	C	1.368518	0.136875	0.608853
C101	C	1.701852	0.470209	0.942187
C102	C	2.035185	0.803542	1.275520
N103	N	1.308813	0.196518	0.480490
N104	N	1.642147	0.529851	0.813824
N105	N	1.975480	0.863185	1.147157
N106	N	1.374625	0.130751	0.519512
N107	N	1.707959	0.464084	0.852845
N108	N	2.041292	0.797418	1.186178
H109	H	1.465497	0.039916	0.224451
H110	H	1.798830	0.373250	0.557784
H111	H	2.132163	0.706583	0.891118
F112	F	1.198033	0.307287	0.786479
F113	F	1.531367	0.640620	1.119812
F114	F	1.864700	0.973953	1.453145
H115	H	1.454644	0.050770	0.383016
H116	H	1.787977	0.384103	0.716350
H117	H	2.121311	0.717436	1.049683
H118	H	1.507140	-0.001641	0.616963
H119	H	1.840474	0.331692	0.950297
H120	H	2.173807	0.665025	1.283630
H121	H	1.187144	0.318058	0.224462
H122	H	1.520477	0.651391	0.557795
H123	H	1.853811	0.984725	0.891129
F124	F	1.210360	0.294919	0.606058
F125	F	1.543693	0.628252	0.939392
F126	F	1.877027	0.961586	1.272725
F127	F	1.514736	-0.009201	0.786464
F128	F	1.848070	0.324132	1.119798
F129	F	2.181403	0.657465	1.453131
F130	F	1.156377	0.348828	0.393962
F131	F	1.489710	0.682162	0.727295
F132	F	1.823044	1.015495	1.060629
