data_functionalizedCrystal
_audit_creation_method	'MofGen! by Chris Wilmer'
_symmetry_space_group_name_H-M	'P1'
_symmetry_Int_Tables_number	1
_symmetry_cell_setting	triclinic
loop_
_symmetry_equiv_pos_as_xyz
  x,y,z
_cell_length_a	10.654549
_cell_length_b	10.654550
_cell_length_c	9.730223
_cell_angle_alpha	90.004253
_cell_angle_beta	90.002269
_cell_angle_gamma	84.484854
loop_
_atom_site_label
_atom_site_type_symbol
_atom_site_fract_x
_atom_site_fract_y
_atom_site_fract_z
O1	O	1.667839	0.176396	0.114258
O2	O	1.302361	0.193203	0.114268
O3	O	1.493503	0.002060	0.114254
O4	O	1.476697	0.367539	0.114272
O5	O	1.493491	0.002055	-0.114326
O6	O	1.302348	0.193198	-0.114312
O7	O	1.667827	0.176391	-0.114322
Zn8	Zn	1.485086	0.184794	-0.150609
Zn9	Zn	1.485102	0.184801	0.150555
O10	O	1.476685	0.367534	-0.114308
C11	C	1.255557	0.191966	-0.000021
C12	C	1.116113	0.188275	-0.000018
C13	C	0.905599	0.297338	-0.000018
C14	C	1.036619	0.300816	-0.000010
C15	C	1.064581	0.072247	-0.000020
C16	C	0.933563	0.068770	-0.000019
C17	C	1.492263	-0.044740	-0.000035
C18	C	1.488571	-0.184183	-0.000033
C19	C	1.601113	-0.263669	-0.000036
C20	C	1.597636	-0.394690	-0.000019
C21	C	1.369067	-0.366727	-0.000003
C22	C	1.372544	-0.235708	-0.000010
C23	C	1.714631	0.177628	-0.000030
C24	C	1.854074	0.181319	-0.000025
C25	C	1.477925	0.414334	-0.000016
C26	C	1.481617	0.553777	-0.000009
N27	N	1.485084	0.184788	-0.356146
C28	C	1.569751	0.100186	-0.428078
C29	C	1.569763	0.100187	-0.571961
C30	C	1.400438	0.269402	-0.571967
C31	C	1.400420	0.269394	-0.428087
N32	N	1.485114	0.184796	0.356091
H33	H	1.129316	-0.019386	-0.000019
C34	C	1.241448	-0.423409	0.000004
H35	H	1.255493	-0.512823	-0.000008
H36	H	1.195062	-0.396187	0.079713
H37	H	1.195062	-0.396197	-0.079718
H38	H	0.891613	-0.025712	-0.000020
C39	C	1.307285	0.362435	-0.651100
H40	H	1.256839	0.412801	-0.587649
H41	H	1.352882	0.415156	-0.707232
H42	H	1.254635	0.316727	-0.707222
H43	H	1.280894	-0.170987	-0.000004
H44	H	1.331468	0.338288	-0.369516
C45	C	1.721428	-0.482125	-0.000016
H46	H	1.702745	-0.567535	0.000009
H47	H	1.768953	-0.466412	-0.079730
H48	H	1.768955	-0.466380	0.079702
H49	H	1.695589	-0.221722	-0.000052
C50	C	1.662873	0.007126	-0.348940
H51	H	1.650750	0.019246	-0.252947
H52	H	1.648522	-0.076824	-0.372531
H53	H	1.746810	0.021564	-0.372509
C54	C	0.818166	0.421136	-0.000002
H55	H	0.867622	0.490730	0.000019
H56	H	0.766466	0.424540	-0.079708
H57	H	0.766484	0.424524	0.079724
H58	H	1.638705	0.031295	-0.630524
H59	H	1.078563	0.395290	-0.000003
