data_functionalizedCrystal
_audit_creation_method	'MofGen! by Chris Wilmer'
_symmetry_space_group_name_H-M	'P1'
_symmetry_Int_Tables_number	1
_symmetry_cell_setting	triclinic
loop_
_symmetry_equiv_pos_as_xyz
  x,y,z
_cell_length_a	12.645331
_cell_length_b	12.645330
_cell_length_c	12.645323
_cell_angle_alpha	89.975130
_cell_angle_beta	89.977324
_cell_angle_gamma	90.016671
loop_
_atom_site_label
_atom_site_type_symbol
_atom_site_fract_x
_atom_site_fract_y
_atom_site_fract_z
Zn1	Zn	1.620731	-0.422060	-0.599446
Zn2	Zn	2.120731	0.077940	-0.099446
Zn3	Zn	1.620613	-0.599348	-0.422186
Zn4	Zn	2.120613	-0.099348	0.077814
Zn5	Zn	1.443446	-0.422096	-0.422191
Zn6	Zn	1.943446	0.077904	0.077809
Zn7	Zn	1.443428	-0.599279	-0.599402
Zn8	Zn	1.943428	-0.099279	-0.099402
O9	O	1.532054	-0.510695	-0.510806
O10	O	2.032054	-0.010695	-0.010806
O11	O	1.769063	-0.445591	-0.575949
O12	O	2.269063	0.054409	-0.075949
O13	O	1.597069	-0.575879	-0.273840
O14	O	2.097069	-0.075879	0.226160
O15	O	1.467020	-0.273744	-0.445724
O16	O	1.967020	0.226256	0.054276
O17	O	1.768976	-0.575844	-0.445717
O18	O	2.268976	-0.075844	0.054283
O19	O	1.597271	-0.273717	-0.575953
O20	O	2.097271	0.226283	-0.075953
O21	O	1.466906	-0.445653	-0.273843
O22	O	1.966906	0.054347	0.226157
O23	O	1.295096	-0.445585	-0.445681
O24	O	1.795096	0.054415	0.054319
O25	O	1.466989	-0.575726	-0.747755
O26	O	1.966989	-0.075726	-0.247755
O27	O	1.295083	-0.575761	-0.575877
O28	O	1.795083	-0.075761	-0.075877
O29	O	1.597253	-0.445524	-0.747788
O30	O	2.097253	0.054476	-0.247788
O31	O	1.597052	-0.747686	-0.445674
O32	O	2.097052	-0.247686	0.054326
O33	O	1.466874	-0.747635	-0.575873
O34	O	1.966874	-0.247635	-0.075873
C35	C	1.256625	-0.510670	-0.510776
C36	C	1.756625	-0.010670	-0.010776
C37	C	1.138795	-0.510685	-0.510788
C38	C	1.638795	-0.010685	-0.010788
C39	C	0.971204	-0.428415	-0.429333
C40	C	1.471204	0.071585	0.070667
C41	C	1.093763	-0.428628	-0.428974
C42	C	1.593763	0.071372	0.071026
C43	C	1.094274	-0.622359	-0.480273
C44	C	1.594274	-0.122359	0.019727
C45	C	0.971676	-0.621910	-0.479717
C46	C	1.471676	-0.121910	0.020283
C47	C	0.971645	-0.482344	-0.623072
C48	C	1.471645	0.017656	-0.123072
C49	C	1.094251	-0.479849	-0.622448
C50	C	1.594251	0.020151	-0.122448
C51	C	1.531977	-0.786125	-0.510791
C52	C	2.031977	-0.286125	-0.010791
C53	C	1.532041	-0.903955	-0.510821
C54	C	2.032041	-0.403955	-0.010821
C55	C	1.450484	-1.071531	-0.592982
C56	C	1.950484	-0.571531	-0.092982
C57	C	1.450067	-0.948972	-0.592717
C58	C	1.950067	-0.448972	-0.092717
C59	C	1.501796	-0.948549	-0.399099
C60	C	2.001796	-0.448549	0.100901
C61	C	1.501298	-1.071147	-0.399597
C62	C	2.001298	-0.571147	0.100403
C63	C	1.644342	-1.071047	-0.539475
C64	C	2.144342	-0.571047	-0.039475
C65	C	1.643654	-0.948440	-0.541918
C66	C	2.143654	-0.448440	-0.041918
C67	C	1.808560	-0.510722	-0.510838
C68	C	2.308560	-0.010722	-0.010838
C69	C	1.926390	-0.510733	-0.510851
C70	C	2.426390	-0.010733	-0.010851
C71	C	1.532132	-0.510614	-0.787312
C72	C	2.032132	-0.010614	-0.287312
C73	C	1.532166	-0.510579	-0.905142
C74	C	2.032166	-0.010579	-0.405142
C75	C	1.532161	-0.234190	-0.510844
C76	C	2.032161	0.265810	-0.010844
C77	C	1.532206	-0.116360	-0.510861
C78	C	2.032206	0.383640	-0.010861
C79	C	1.449964	-0.592103	-1.072685
C80	C	1.949964	-0.092103	-0.572685
C81	C	1.450179	-0.592506	-0.950125
C82	C	1.950179	-0.092506	-0.450125
C83	C	1.643865	-0.540899	-0.949662
C84	C	2.143865	-0.040899	-0.449662
C85	C	1.643414	-0.541410	-1.072260
C86	C	2.143414	-0.041410	-0.572260
C87	C	1.503724	-0.398278	-1.072340
C88	C	2.003724	0.101722	-0.572340
C89	C	1.501232	-0.398951	-0.949733
C90	C	2.001232	0.101049	-0.449733
C91	C	1.532038	-0.510701	-0.235377
C92	C	2.032038	-0.010701	0.264623
C93	C	1.532210	-0.510437	-0.117547
C94	C	2.032210	-0.010437	0.382453
H95	H	1.123041	-0.447391	-0.345814
H96	H	1.623041	0.052609	0.154186
H97	H	0.940356	-0.446970	-0.346662
H98	H	1.440356	0.053030	0.153338
H99	H	1.124930	-0.646847	-0.399115
H100	H	1.624930	-0.146847	0.100885
F101	F	1.399114	-0.362154	-1.112730
F102	F	1.899114	0.137846	-0.612730
H103	H	0.942666	-0.542301	-0.683810
H104	H	1.442666	-0.042301	-0.183810
H105	H	0.943030	-0.645984	-0.397678
H106	H	1.443030	-0.145984	0.102322
H107	H	0.940749	-0.402333	-0.650823
H108	H	1.440749	0.097667	-0.150823
F109	F	1.723928	-1.108954	-0.461310
F110	F	2.223928	-0.608954	0.038690
H111	H	1.706772	-0.484511	-1.101938
H112	H	2.206772	0.015489	-0.601938
F113	F	1.726113	-0.465613	-0.911583
F114	F	2.226113	0.034387	-0.411583
H115	H	1.468585	-0.674731	-1.103504
H116	H	1.968585	-0.174731	-0.603504
F117	F	1.132305	-0.372442	-0.652535
F118	F	1.632305	0.127558	-0.152535
H119	H	1.468990	-0.918818	-0.675558
H120	H	1.968990	-0.418818	-0.175558
H121	H	1.124909	-0.535432	-0.686433
H122	H	1.624909	-0.035432	-0.186433
H123	H	0.941740	-0.345355	-0.448254
H124	H	1.441740	0.154645	0.051746
F125	F	1.680405	-1.111361	-0.644150
F126	F	2.180405	-0.611361	-0.144150
H127	H	1.558238	-1.100805	-0.336324
H128	H	2.058238	-0.600805	0.163676
H129	H	1.668424	-0.622030	-0.918973
H130	H	2.168424	-0.122030	-0.418973
F131	F	1.393784	-0.369066	-0.911710
F132	F	1.893784	0.130934	-0.411710
H133	H	1.559431	-0.919391	-0.336240
H134	H	2.059431	-0.419391	0.163760
F135	F	0.932925	-0.704793	-0.553933
F136	F	1.432925	-0.204793	-0.053933
H137	H	1.556760	-0.334889	-0.919112
H138	H	2.056760	0.165111	-0.419112
H139	H	1.563628	-0.337434	-1.101353
H140	H	2.063628	0.162566	-0.601353
H141	H	1.420678	-0.917936	-0.374420
H142	H	1.920678	-0.417936	0.125580
F143	F	1.673470	-0.910340	-0.649388
F144	F	2.173470	-0.410340	-0.149388
F145	F	1.674972	-0.648577	-1.109660
F146	F	2.174972	-0.148577	-0.609660
H147	H	1.469234	-1.100944	-0.676094
H148	H	1.969234	-0.600944	-0.176094
F149	F	1.727434	-0.908373	-0.469439
F150	F	2.227434	-0.408373	0.030561
F151	F	1.132389	-0.704669	-0.555448
F152	F	1.632389	-0.204669	-0.055448
F153	F	1.342506	-1.111937	-0.568538
F154	F	1.842506	-0.611937	-0.068538
F155	F	1.341917	-0.567701	-0.910777
F156	F	1.841917	-0.067701	-0.410777
F157	F	1.341374	-0.567537	-1.111199
F158	F	1.841374	-0.067537	-0.611199
H159	H	1.366935	-0.919736	-0.573760
H160	H	1.866935	-0.419736	-0.073760
H161	H	1.123864	-0.345817	-0.448100
H162	H	1.623864	0.154183	0.051900
F163	F	1.394155	-1.108650	-0.367914
F164	F	1.894155	-0.608650	0.132086
F165	F	1.474807	-0.701176	-0.911805
F166	F	1.974807	-0.201176	-0.411805
