data_functionalizedCrystal
_audit_creation_method	'MofGen! by Chris Wilmer'
_symmetry_space_group_name_H-M	'P1'
_symmetry_Int_Tables_number	1
_symmetry_cell_setting	triclinic
loop_
_symmetry_equiv_pos_as_xyz
  x,y,z
_cell_length_a	14.971486
_cell_length_b	10.654551
_cell_length_c	13.448316
_cell_angle_alpha	89.998624
_cell_angle_beta	90.000121
_cell_angle_gamma	95.950305
loop_
_atom_site_label
_atom_site_type_symbol
_atom_site_fract_x
_atom_site_fract_y
_atom_site_fract_z
O1	O	1.187836	-0.163654	0.082572
O2	O	0.927543	-0.183252	0.082599
O3	O	1.063674	0.009350	0.082584
O4	O	1.051706	-0.356257	0.082587
O5	O	1.063660	0.009352	-0.082800
O6	O	0.927529	-0.183251	-0.082785
O7	O	1.187823	-0.163652	-0.082811
Cu8	Cu	1.057675	-0.173451	-0.097899
Cu9	Cu	1.057691	-0.173453	0.097686
O10	O	1.051692	-0.356255	-0.082797
C11	C	0.894207	-0.182375	-0.000090
C12	C	0.794895	-0.179749	-0.000079
C13	C	0.738286	-0.292897	-0.000080
C14	C	0.644973	-0.290422	-0.000095
C15	C	0.608271	-0.174796	-0.000102
C16	C	0.664888	-0.061639	-0.000104
C17	C	0.758199	-0.064116	-0.000097
C18	C	0.470397	-0.056485	-0.000118
C19	C	0.377080	-0.054007	-0.000124
C20	C	0.357171	-0.282791	-0.000116
C21	C	0.450482	-0.285268	-0.000108
C22	C	0.507093	-0.172110	-0.000109
C23	C	1.062788	0.056139	-0.000106
C24	C	1.060159	0.195554	-0.000100
C25	C	1.058932	0.261044	0.090052
C26	C	1.056453	0.392038	0.090054
C27	C	1.056433	0.392042	-0.090256
C28	C	1.058904	0.261049	-0.090257
C29	C	1.000775	0.561512	0.198372
C30	C	0.999564	0.627009	0.288529
C31	C	1.052695	0.594037	0.368119
C32	C	1.107060	0.495575	0.357556
C33	C	1.108279	0.430086	0.267397
C34	C	1.055127	0.463052	0.187811
C35	C	1.114591	0.091574	-0.198568
C36	C	1.115816	0.026084	-0.288728
C37	C	1.062690	0.059054	-0.368327
C38	C	1.008339	0.157523	-0.357773
C39	C	1.007113	0.223013	-0.267613
C40	C	1.060238	0.190034	-0.188015
C41	C	1.221159	-0.164530	-0.000121
C42	C	1.320471	-0.167156	-0.000125
C43	C	1.052578	0.596956	-0.000103
C44	C	1.055208	0.457541	-0.000097
N45	N	1.057670	-0.173449	-0.235463
C46	C	1.112388	-0.249745	-0.287505
C47	C	1.112399	-0.249740	-0.391608
C48	C	1.057687	-0.173444	-0.443668
C49	C	1.002967	-0.097139	-0.391619
C50	C	1.002961	-0.097139	-0.287518
C51	C	1.002981	-0.097148	-0.608600
C52	C	1.002985	-0.097150	-0.712708
C53	C	1.112419	-0.249749	-0.712689
C54	C	1.112413	-0.249748	-0.608588
C55	C	1.057691	-0.173445	-0.556547
N56	N	1.057703	-0.173446	0.235251
H57	H	0.804290	0.028022	-0.000096
H58	H	0.958404	-0.035011	-0.245148
Cl59	Cl	0.573810	-0.432673	-0.000089
H60	H	0.347201	0.040145	-0.000131
Cl61	Cl	0.784415	-0.438264	-0.000064
Cl62	Cl	0.496621	-0.430628	-0.000088
Cl63	Cl	1.181400	0.050139	-0.098507
Cl64	Cl	0.286005	-0.425047	-0.000118
H65	H	0.516488	0.035661	-0.000120
Cl66	Cl	0.934187	-0.001222	-0.457067
Cl67	Cl	0.618748	0.083720	-0.000120
H68	H	1.059950	0.207722	0.163464
Cl69	Cl	1.181215	-0.345667	-0.778112
H70	H	1.152543	0.349922	0.258796
H71	H	1.150331	0.468749	0.422366
H72	H	1.055413	0.445383	-0.163659
Cl73	Cl	1.181171	-0.345667	-0.222068
H74	H	1.156960	-0.311881	-0.566203
Cl75	Cl	1.051182	0.676393	0.481452
H76	H	1.156957	-0.311865	-0.433975
Cl77	Cl	0.931218	0.750781	0.301808
Cl78	Cl	0.938786	0.346808	-0.254347
Cl79	Cl	0.941554	0.198984	-0.457844
H80	H	0.958433	-0.035025	-0.755093
Cl81	Cl	0.933959	0.602951	0.098323
H82	H	1.063700	0.005728	-0.441742
H83	H	1.160079	-0.054091	-0.297318
Cl84	Cl	0.934201	-0.001202	-0.543178
