data_functionalizedCrystal
_audit_creation_method	'MofGen! by Chris Wilmer'
_symmetry_space_group_name_H-M	'P1'
_symmetry_Int_Tables_number	1
_symmetry_cell_setting	triclinic
loop_
_symmetry_equiv_pos_as_xyz
  x,y,z
_cell_length_a	16.109301
_cell_length_b	27.732048
_cell_length_c	15.186229
_cell_angle_alpha	89.991324
_cell_angle_beta	89.999362
_cell_angle_gamma	83.052068
loop_
_atom_site_label
_atom_site_type_symbol
_atom_site_fract_x
_atom_site_fract_y
_atom_site_fract_z
O1	O	1.102361	0.062130	-0.073183
O2	O	0.860204	0.069862	-0.073198
O3	O	0.988803	-0.004369	-0.073173
O4	O	0.973762	0.136361	-0.073208
O5	O	0.988795	-0.004370	0.073284
O6	O	0.860195	0.069861	0.073259
O7	O	1.102353	0.062129	0.073275
Zn8	Zn	0.981273	0.065995	0.096520
Zn9	Zn	0.981284	0.065996	-0.096444
O10	O	0.973753	0.136360	0.073250
C11	C	0.829228	0.069548	0.000029
C12	C	0.736945	0.068609	0.000024
C13	C	0.988483	-0.022378	0.000058
C14	C	0.987533	-0.076037	0.000065
C15	C	0.514154	0.110473	0.000024
C16	C	0.427445	0.109587	0.000030
C17	C	0.448409	0.021514	0.000048
C18	C	0.535117	0.022401	0.000048
C19	C	0.567987	0.066882	0.000032
C20	C	0.394570	0.065109	0.000037
C21	C	0.300556	0.064148	0.000044
C22	C	0.662007	0.067843	0.000027
C23	C	1.057541	-0.414559	0.000024
C24	C	1.054013	-0.616233	0.000012
O25	O	1.118031	-0.647221	-0.000023
N26	N	0.977759	-0.635676	0.000008
C27	C	0.902381	-0.604697	0.000001
O28	O	0.837441	-0.625862	-0.000011
C29	C	0.905910	-0.403024	0.000008
C30	C	0.982169	-0.383584	0.000020
C31	C	1.133794	-0.395119	0.000036
C32	C	1.134675	-0.344703	0.000044
C33	C	1.059303	-0.313728	0.000040
C34	C	0.983050	-0.333168	0.000028
C35	C	0.830533	-0.372045	-0.000005
C36	C	0.831422	-0.321624	-0.000006
C37	C	0.907681	-0.302184	0.000007
C38	C	0.908559	-0.251777	0.000032
N39	N	0.984814	-0.232334	0.000036
C40	C	1.060186	-0.263310	0.000040
C41	C	0.900534	-0.710579	-0.000000
C42	C	0.899652	-0.760997	-0.000000
C43	C	1.051284	-0.772530	0.000009
C44	C	1.052166	-0.722111	0.000015
C45	C	0.976789	-0.691136	0.000004
C46	C	1.062030	-0.157433	0.000058
C47	C	1.062905	-0.107012	0.000069
C48	C	0.911273	-0.095484	0.000056
C49	C	0.910398	-0.145900	0.000049
C50	C	0.985783	-0.176874	0.000047
O51	O	0.844576	-0.220761	0.000057
O52	O	1.125116	-0.242135	0.000033
C53	C	1.056660	-0.464975	0.000016
C54	C	0.980407	-0.484415	0.000005
C55	C	0.905035	-0.453440	0.000001
C56	C	0.979525	-0.534833	0.000005
C57	C	1.054897	-0.565808	0.000009
C58	C	1.131151	-0.546365	0.000013
C59	C	1.132032	-0.495950	0.000020
C60	C	0.828781	-0.472883	-0.000003
C61	C	0.827906	-0.523299	-0.000010
C62	C	0.903278	-0.554274	-0.000006
C63	C	1.133328	0.062443	0.000046
C64	C	1.225612	0.063382	0.000045
C65	C	0.974073	0.154369	0.000017
C66	C	0.975024	0.208028	0.000004
N67	N	0.981271	0.065994	0.228213
N68	N	0.981292	0.065994	-0.228136
C69	C	1.038234	0.033135	0.453947
C70	C	1.038237	0.033134	0.546136
C71	C	0.924323	0.098854	0.546124
C72	C	0.924317	0.098852	0.453936
C73	C	0.981277	0.065993	0.407850
C74	C	0.981286	0.065994	0.592227
C75	C	0.981288	0.065993	0.692183
C76	C	0.981274	0.065994	0.307887
H77	H	0.540913	0.146692	0.000017
H78	H	0.578951	-0.013099	0.000057
H79	H	0.421636	-0.014700	0.000066
O80	O	1.099649	-0.002311	0.404229
H81	H	1.164386	0.003849	0.421911
H82	H	0.770039	-0.296407	-0.000017
O83	O	1.099669	-0.002305	0.595859
H84	H	1.139806	0.018051	0.637858
O85	O	0.862898	0.134299	0.595829
H86	H	0.872477	0.128785	0.667678
O87	O	1.145158	-0.086044	0.000069
H88	H	1.197419	-0.116056	0.000058
O89	O	0.862871	0.134290	0.404213
H90	H	0.872428	0.128763	0.332367
O91	O	0.817402	-0.781963	0.000002
H92	H	0.781224	-0.769517	-0.059697
O93	O	0.819230	-0.677172	0.000007
H94	H	0.766065	-0.699168	0.000017
H95	H	0.383617	0.145084	0.000025
O96	O	0.748281	-0.393006	-0.000022
H97	H	0.696028	-0.362989	-0.000036
O98	O	0.828150	-0.166872	0.000038
H99	H	0.775888	-0.136861	0.000032
O100	O	1.143336	-0.190837	0.000068
H101	H	1.196501	-0.168841	0.000089
H102	H	1.195175	-0.420334	0.000036
O103	O	1.216931	-0.323743	0.000033
H104	H	1.253123	-0.336197	0.059719
O105	O	1.134415	-0.701144	0.000012
H106	H	1.186673	-0.731158	0.000008
O107	O	1.132582	-0.805943	0.000007
H108	H	1.119149	-0.844266	-0.000003
H109	H	0.767402	-0.447667	-0.000009
O110	O	0.829980	-0.062070	0.000055
H111	H	0.826764	-0.038821	-0.059641
O112	O	1.214283	-0.474985	0.000017
H113	H	1.266538	-0.505000	0.000007
H114	H	1.192521	-0.571594	0.000020
H115	H	0.765802	-0.539121	-0.000013
