data_functionalizedCrystal
_audit_creation_method	'MofGen! by Chris Wilmer'
_symmetry_space_group_name_H-M	'P1'
_symmetry_Int_Tables_number	1
_symmetry_cell_setting	triclinic
loop_
_symmetry_equiv_pos_as_xyz
  x,y,z
_cell_length_a	17.699083
_cell_length_b	17.699083
_cell_length_c	16.776229
_cell_angle_alpha	90.007545
_cell_angle_beta	90.001114
_cell_angle_gamma	83.283015
loop_
_atom_site_label
_atom_site_type_symbol
_atom_site_fract_x
_atom_site_fract_y
_atom_site_fract_z
O1	O	-1.004078	-0.095713	-0.066178
O2	O	-0.783700	-0.108165	-0.066204
O3	O	-0.900116	0.008250	-0.066183
O4	O	-0.887663	-0.212128	-0.066199
O5	O	-0.900100	0.008257	0.066393
O6	O	-0.783685	-0.108158	0.066372
O7	O	-1.004063	-0.095706	0.066398
Zn8	Zn	-0.893871	-0.101931	0.087435
Zn9	Zn	-0.893892	-0.101940	-0.087241
O10	O	-0.887648	-0.212121	0.066378
C11	C	-0.755495	-0.107716	0.000081
C12	C	-0.671477	-0.106377	0.000071
C13	C	-0.899662	0.036451	0.000105
C14	C	-0.898323	0.120469	0.000105
C15	C	-1.032268	-0.096156	0.000112
C16	C	-1.116286	-0.097494	0.000116
C17	C	-0.622856	-0.174710	0.000066
C18	C	-0.543913	-0.173448	0.000077
C19	C	-0.513592	-0.103852	0.000086
C20	C	-0.562219	-0.035513	0.000093
C21	C	-0.641161	-0.036776	0.000088
C22	C	-0.243856	-0.030418	0.000113
C23	C	-0.164908	-0.029160	0.000115
C24	C	-0.146608	-0.167090	0.000101
C25	C	-0.225550	-0.168353	0.000097
C26	C	-0.274170	-0.100015	0.000108
C27	C	-0.359769	-0.101384	0.000098
C28	C	-0.427995	-0.102481	0.000090
C29	C	-0.888102	-0.240322	0.000087
C30	C	-0.889440	-0.324340	0.000082
N31	N	-0.893863	-0.101924	0.206646
C32	C	-0.966656	0.169090	0.000114
C33	C	-0.965394	0.248033	0.000107
C34	C	-0.895798	0.278354	0.000096
C35	C	-0.827459	0.229727	0.000085
C36	C	-0.828722	0.150785	0.000086
C37	C	-0.822364	0.548090	0.000078
C38	C	-0.821106	0.627038	0.000078
C39	C	-0.959036	0.645338	0.000099
C40	C	-0.960299	0.566396	0.000100
C41	C	-0.891961	0.517776	0.000084
C42	C	-0.893330	0.432177	0.000090
C43	C	-0.894427	0.363951	0.000096
N44	N	-0.893906	-0.101941	-0.206452
C45	C	-0.945428	-0.050396	0.248372
C46	C	-0.945432	-0.050396	0.331824
C47	C	-0.893875	-0.101927	0.373549
C48	C	-0.842305	-0.153457	0.331817
C49	C	-0.842297	-0.153454	0.248366
C50	C	-0.842332	-0.153472	0.668364
C51	C	-0.842345	-0.153473	0.751820
C52	C	-0.945466	-0.050414	0.751822
C53	C	-0.945459	-0.050411	0.668372
C54	C	-0.893887	-0.101938	0.626647
C55	C	-0.893882	-0.101937	0.536158
C56	C	-0.893882	-0.101932	0.464036
H57	H	-0.647537	-0.231384	0.000058
H58	H	-1.021038	0.287618	0.000116
H59	H	-0.140225	0.027517	0.000124
H60	H	-0.283434	0.025228	0.000123
H61	H	-0.987414	-0.008437	0.214406
C62	C	-0.750902	0.263074	0.000067
H63	H	-0.710386	0.222808	0.000052
H64	H	-0.747532	0.293495	0.046297
H65	H	-0.747553	0.293481	-0.046174
H66	H	-0.987419	-0.008438	0.365798
C67	C	-1.034208	0.698822	0.000103
H68	H	-1.023492	0.750180	0.000091
H69	H	-1.062747	0.689653	0.046339
H70	H	-1.062755	0.689635	-0.046131
H71	H	-0.764429	0.651721	0.000071
H72	H	-1.023330	0.144409	0.000128
C73	C	-1.002188	0.006273	0.797722
H74	H	-0.994805	-0.001100	0.853398
H75	H	-1.052681	-0.001883	0.784039
H76	H	-0.994059	0.056779	0.784052
C77	C	-0.747195	0.494618	0.000074
H78	H	-0.705567	0.523984	0.000079
H79	H	-0.744818	0.463433	-0.046156
H80	H	-0.744818	0.463451	0.046314
C81	C	-0.694644	0.038390	0.000085
H82	H	-0.665282	0.080021	0.000083
H83	H	-0.725824	0.040770	0.046314
H84	H	-0.725815	0.040759	-0.046156
C85	C	-0.785616	-0.210146	0.797716
H86	H	-0.754892	-0.240826	0.760915
H87	H	-0.812772	-0.241626	0.830266
H88	H	-0.754173	-0.182940	0.830274
H89	H	-0.987444	-0.008452	0.634402
C90	C	-0.258899	-0.244909	0.000090
H91	H	-0.218635	-0.285426	0.000097
H92	H	-0.289314	-0.248273	-0.046143
H93	H	-0.289313	-0.248261	0.046328
C94	C	-0.785612	-0.210156	0.622477
H95	H	-0.754915	-0.240851	0.659280
H96	H	-0.754153	-0.182971	0.589932
H97	H	-0.812778	-0.241630	0.589914
H98	H	-0.800308	-0.195412	0.214393
C99	C	-0.490433	-0.248615	0.000069
H100	H	-0.519797	-0.290244	0.000053
H101	H	-0.459260	-0.250991	0.046304
H102	H	-0.459255	-0.250989	-0.046167
C103	C	-1.036852	0.533043	0.000115
H104	H	-1.027817	0.479065	0.000122
H105	H	-1.064991	0.549734	-0.046113
H106	H	-1.064974	0.549747	0.046358
C107	C	-0.753558	0.097298	0.000076
H108	H	-0.764277	0.045941	0.000070
H109	H	-0.725004	0.106478	0.046302
H110	H	-0.725024	0.106472	-0.046168
H111	H	-0.800322	-0.195412	0.365793
H112	H	-0.107012	-0.222734	0.000097
C113	C	-0.528869	0.041041	0.000102
H114	H	-0.474890	0.032008	0.000095
H115	H	-0.545567	0.069176	0.046335
H116	H	-0.545567	0.069166	-0.046136
