data_functionalizedCrystal
_audit_creation_method	'MofGen! by Chris Wilmer'
_symmetry_space_group_name_H-M	'P1'
_symmetry_Int_Tables_number	1
_symmetry_cell_setting	triclinic
loop_
_symmetry_equiv_pos_as_xyz
  x,y,z
_cell_length_a	12.811438
_cell_length_b	17.038272
_cell_length_c	11.295483
_cell_angle_alpha	94.391706
_cell_angle_beta	91.289945
_cell_angle_gamma	87.562882
loop_
_atom_site_label
_atom_site_type_symbol
_atom_site_fract_x
_atom_site_fract_y
_atom_site_fract_z
O1	O	1.398597	0.108109	0.052032
O2	O	1.096216	0.117831	0.019370
O3	O	1.245609	-0.000862	0.035516
O4	O	1.249205	0.226801	0.035886
O5	O	1.232486	0.009547	0.232148
O6	O	1.083094	0.128239	0.216002
O7	O	1.385474	0.118518	0.248664
Cu8	Cu	1.233086	0.124329	0.250287
Cu9	Cu	1.248605	0.112019	0.017747
O10	O	1.236082	0.237210	0.232518
C11	C	1.050774	0.122170	0.113487
C12	C	0.934920	0.119585	0.100973
C13	C	0.778778	0.110267	-0.023836
C14	C	0.887634	0.112695	-0.012088
C15	C	0.873342	0.124043	0.202293
C16	C	0.764486	0.121615	0.190545
C17	C	0.717208	0.114728	0.077477
C18	C	0.608350	0.112305	0.065730
C19	C	0.594060	0.123647	0.280111
C20	C	0.702916	0.126076	0.291858
C21	C	1.235779	-0.024816	0.133479
C22	C	1.226025	-0.111698	0.132425
C23	C	1.315572	-0.160988	0.142099
C24	C	1.306402	-0.242624	0.141097
C25	C	1.207684	-0.274967	0.130430
C26	C	1.118132	-0.225671	0.120752
C27	C	1.127303	-0.144038	0.121746
C28	C	1.175285	-0.521024	0.126914
C29	C	1.166120	-0.602664	0.125925
C30	C	1.354391	-0.619611	0.146268
C31	C	1.363553	-0.537975	0.147267
C32	C	1.274001	-0.488686	0.137583
C33	C	1.198309	-0.358411	0.129410
C34	C	1.283378	-0.405244	0.138595
C35	C	1.430917	0.114178	0.154545
C36	C	1.546772	0.116763	0.167051
C37	C	1.245912	0.261164	0.134552
C38	C	1.255666	0.348046	0.135598
N39	N	1.222178	0.132986	0.413845
N40	N	1.259521	0.103356	-0.145810
C41	C	1.338038	0.040991	0.675656
C42	C	1.329803	0.047539	0.799430
C43	C	1.197467	0.152627	0.785167
C44	C	1.205702	0.146078	0.661394
C45	C	1.275991	0.090260	0.606643
C46	C	1.284231	0.083716	0.482868
C47	C	1.151891	0.188799	0.468607
C48	C	1.143656	0.195347	0.592380
H49	H	0.543917	0.127283	0.362607
H50	H	1.379320	-0.282753	0.148977
O51	O	0.924341	0.131472	0.324238
H52	H	1.010379	0.132415	0.315380
H53	H	1.395957	-0.134661	0.150792
H54	H	1.086425	0.240792	0.636973
O55	O	1.091837	-0.393300	0.117930
H56	H	1.088504	-0.434332	0.036854
H57	H	0.741425	0.131680	0.383915
O58	O	1.450972	-0.672776	0.156707
H59	H	1.521155	-0.636570	0.164301
O60	O	0.954047	0.107890	-0.121359
H61	H	0.902879	0.102699	-0.201951
H62	H	1.443939	-0.511647	0.155954
O63	O	1.084968	0.241944	0.394165
H64	H	1.034718	0.281860	0.453036
O65	O	1.121640	0.212816	0.844221
H66	H	1.141889	0.272688	0.822480
O67	O	1.059642	-0.637554	0.114406
H68	H	0.998911	-0.589568	0.107825
O69	O	1.360032	0.023510	0.423805
H70	H	1.401783	-0.009656	0.492593
O71	O	1.413845	-0.019209	0.616590
H72	H	1.455605	-0.052371	0.685375
H73	H	1.102364	-0.480903	0.119029
H74	H	0.740284	0.104667	-0.115900
H75	H	1.037754	-0.252012	0.112059
H76	H	1.054384	-0.103906	0.113868
H77	H	1.363755	-0.378908	0.147254
O78	O	1.396740	-0.005593	0.873864
H79	H	1.379645	-0.067976	0.848092
O80	O	0.557351	0.104857	-0.056214
H81	H	0.618459	0.102149	-0.124688
