data_functionalizedCrystal
_audit_creation_method	'MofGen! by Chris Wilmer'
_symmetry_space_group_name_H-M	'P1'
_symmetry_Int_Tables_number	1
_symmetry_cell_setting	triclinic
loop_
_symmetry_equiv_pos_as_xyz
  x,y,z
_cell_length_a	11.792241
_cell_length_b	17.699083
_cell_length_c	16.176319
_cell_angle_alpha	90.001389
_cell_angle_beta	89.993071
_cell_angle_gamma	96.261785
loop_
_atom_site_label
_atom_site_type_symbol
_atom_site_fract_x
_atom_site_fract_y
_atom_site_fract_z
O1	O	0.143527	-1.004844	-0.068631
O2	O	0.162200	-0.784565	-0.068658
O3	O	-0.012371	-0.900050	-0.068638
O4	O	0.318098	-0.889359	-0.068651
O5	O	-0.012382	-0.900034	0.068855
O6	O	0.162189	-0.784549	0.068835
O7	O	0.143516	-1.004828	0.068862
Cu8	Cu	0.152851	-0.894687	0.081403
Cu9	Cu	0.152865	-0.894706	-0.081199
O10	O	0.318087	-0.889343	0.068842
C11	C	0.161525	-0.756356	0.000085
C12	C	0.159518	-0.672328	0.000075
C13	C	-0.054660	-0.899370	0.000108
C14	C	-0.180649	-0.897360	0.000107
C15	C	0.144190	-1.033036	0.000117
C16	C	0.146198	-1.117065	0.000122
C17	C	-0.411317	-0.893664	0.000093
C18	C	-0.282956	-0.895718	0.000101
C19	C	0.360375	-0.890022	0.000094
C20	C	0.486365	-0.892032	0.000090
N21	N	0.152841	-0.894679	0.195768
C22	C	0.261988	-0.624253	0.000071
C23	C	0.260095	-0.545299	0.000082
C24	C	0.155731	-0.514422	0.000091
C25	C	0.053254	-0.562503	0.000097
C26	C	0.055148	-0.641455	0.000092
C27	C	0.045613	-0.244099	0.000118
C28	C	0.043727	-0.165141	0.000120
C29	C	0.250560	-0.147944	0.000108
C30	C	0.252454	-0.226896	0.000103
C31	C	0.149977	-0.274970	0.000113
C32	C	0.152031	-0.360580	0.000103
C33	C	0.153676	-0.428814	0.000095
N34	N	0.152865	-0.894720	-0.195564
C35	C	0.075573	-0.945831	0.239041
C36	C	0.075572	-0.945835	0.325588
C37	C	0.152845	-0.894690	0.368861
C38	C	0.230118	-0.843532	0.325582
C39	C	0.230113	-0.843525	0.239036
C40	C	0.230139	-0.843558	0.674610
C41	C	0.230140	-0.843570	0.761161
C42	C	0.075598	-0.945868	0.761162
C43	C	0.075593	-0.945861	0.674617
C44	C	0.152861	-0.894701	0.631345
C45	C	0.152860	-0.894697	0.537501
C46	C	0.152853	-0.894697	0.462703
H47	H	0.346973	-0.649386	0.000064
H48	H	-0.028294	-0.680598	0.000095
H49	H	-0.041263	-0.140005	0.000128
H50	H	0.337438	-0.252031	0.000092
N51	N	0.309061	-0.791283	0.369768
N52	N	0.378043	-0.745613	0.331118
H53	H	0.433800	-0.708711	0.362322
N54	N	-0.003391	-0.998053	0.369803
N55	N	-0.003416	-0.998030	0.447075
H56	H	-0.059206	-1.034897	0.478303
N57	N	-0.053362	-0.530978	0.000115
N58	N	-0.122399	-0.545558	0.058076
H59	H	-0.197700	-0.523295	0.058088
N60	N	0.309086	-0.791319	0.805352
N61	N	0.378068	-0.745644	0.766708
H62	H	0.433822	-0.708743	0.797917
H63	H	0.343536	-0.506159	0.000078
N64	N	0.355231	-0.098825	0.000099
N65	N	0.353534	-0.028333	0.000105
H66	H	0.427455	0.006356	0.000096
N67	N	0.309066	-0.791293	0.630429
N68	N	0.378052	-0.745633	0.669078
H69	H	0.433798	-0.708717	0.637874
H70	H	0.012653	-0.987483	0.203814
N71	N	-0.059062	-0.293196	0.000135
N72	N	-0.128524	-0.290134	0.058095
H73	H	-0.202458	-0.324811	0.058108
N74	N	-0.003333	-0.998120	0.630429
N75	N	-0.072314	-1.043793	0.669076
H76	H	-0.128057	-1.080703	0.637870
N77	N	-0.003329	-0.998120	0.805377
N78	N	-0.003324	-0.998121	0.882649
H79	H	-0.059063	-1.035023	0.913876
N80	N	0.309044	-0.791266	0.194844
N81	N	0.378032	-0.745603	0.233487
H82	H	0.433778	-0.708690	0.202278
