data_functionalizedCrystal
_audit_creation_method	'MofGen! by Chris Wilmer'
_symmetry_space_group_name_H-M	'P1'
_symmetry_Int_Tables_number	1
_symmetry_cell_setting	triclinic
loop_
_symmetry_equiv_pos_as_xyz
  x,y,z
_cell_length_a	12.594516
_cell_length_b	12.594517
_cell_length_c	16.625539
_cell_angle_alpha	89.986122
_cell_angle_beta	89.976673
_cell_angle_gamma	90.016010
loop_
_atom_site_label
_atom_site_type_symbol
_atom_site_fract_x
_atom_site_fract_y
_atom_site_fract_z
Zn1	Zn	-0.423741	1.627262	-0.455793
Zn2	Zn	-0.090408	1.960596	-0.122460
Zn3	Zn	0.242925	2.293929	0.210873
Zn4	Zn	-0.601743	1.627155	-0.320972
Zn5	Zn	-0.268409	1.960488	0.012361
Zn6	Zn	0.064924	2.293821	0.345694
Zn7	Zn	-0.423779	1.449268	-0.320990
Zn8	Zn	-0.090445	1.782601	0.012344
Zn9	Zn	0.242888	2.115934	0.345677
Zn10	Zn	-0.601678	1.449248	-0.455778
Zn11	Zn	-0.268345	1.782582	-0.122445
Zn12	Zn	0.064988	2.115915	0.210889
O13	O	-0.512735	1.538233	-0.388383
O14	O	-0.179402	1.871567	-0.055050
O15	O	0.153931	2.204900	0.278283
O16	O	-0.447365	1.776194	-0.437908
O17	O	-0.114032	2.109527	-0.104575
O18	O	0.219301	2.442861	0.228758
O19	O	-0.578178	1.603520	-0.208142
O20	O	-0.244845	1.936854	0.125191
O21	O	0.088489	2.270187	0.458525
O22	O	-0.274828	1.472932	-0.338885
O23	O	0.058505	1.806265	-0.005552
O24	O	0.391839	2.139599	0.327781
O25	O	-0.578142	1.776115	-0.338856
O26	O	-0.244809	2.109448	-0.005522
O27	O	0.088525	2.442781	0.327811
O28	O	-0.274801	1.603704	-0.437925
O29	O	0.058533	1.937037	-0.104592
O30	O	0.391866	2.270371	0.228742
O31	O	-0.447428	1.472828	-0.208155
O32	O	-0.114095	1.806161	0.125178
O33	O	0.219238	2.139494	0.458512
O34	O	-0.447366	1.300319	-0.338870
O35	O	-0.114033	1.633653	-0.005537
O36	O	0.219301	1.966986	0.327796
O37	O	-0.578032	1.472900	-0.568612
O38	O	-0.244699	1.806233	-0.235279
O39	O	0.088635	2.139566	0.098054
O40	O	-0.578068	1.300305	-0.437899
O41	O	-0.244735	1.633639	-0.104565
O42	O	0.088599	1.966972	0.228768
O43	O	-0.447303	1.603686	-0.568624
O44	O	-0.113969	1.937019	-0.235290
O45	O	0.219364	2.270352	0.098043
O46	O	-0.750680	1.603502	-0.338841
O47	O	-0.417347	1.936835	-0.005507
O48	O	-0.084013	2.270168	0.327826
O49	O	-0.750633	1.472795	-0.437882
O50	O	-0.417299	1.806128	-0.104549
O51	O	-0.083966	2.139462	0.228785
C52	C	-0.512715	1.261692	-0.388385
C53	C	-0.179381	1.595026	-0.055052
C54	C	0.153952	1.928359	0.278281
C55	C	-0.512732	1.143387	-0.388405
C56	C	-0.179398	1.476720	-0.055072
C57	C	0.153935	1.810054	0.278262
C58	C	-0.583949	1.003393	-0.442167
C59	C	-0.250616	1.336727	-0.108833
C60	C	0.082717	1.670060	0.224500
C61	C	-0.609852	1.074165	-0.368579
C62	C	-0.276519	1.407498	-0.035246
C63	C	0.056815	1.740831	0.298088
C64	C	-0.486876	1.074187	-0.461985
C65	C	-0.153543	1.407521	-0.128652
C66	C	0.179791	1.740854	0.204682
C67	C	-0.538719	1.003373	-0.314754
C68	C	-0.205386	1.336706	0.018579
C69	C	0.127948	1.670039	0.351912
C70	C	-0.415698	1.003389	-0.408210
C71	C	-0.082365	1.336722	-0.074876
C72	C	0.250969	1.670056	0.258457
C73	C	-0.441564	1.074128	-0.334571
C74	C	-0.108230	1.407462	-0.001238
C75	C	0.225103	1.740795	0.332095
C76	C	-0.789276	1.538164	-0.388375
C77	C	-0.455943	1.871497	-0.055042
C78	C	-0.122610	2.204830	0.278291
C79	C	-0.907582	1.538231	-0.388399
C80	C	-0.574248	1.871564	-0.055066
C81	C	-0.240915	2.204898	0.278268
C82	C	-0.976848	1.467133	-0.442230
C83	C	-0.643514	1.800466	-0.108896
C84	C	-0.310181	2.133799	0.224437
C85	C	-1.047708	1.441200	-0.368657
C86	C	-0.714375	1.774533	-0.035324
C87	C	-0.381041	2.107867	0.298009
C88	C	-1.047520	1.564261	-0.461984
C89	C	-0.714187	1.897594	-0.128650
C90	C	-0.380854	2.230927	0.204683
C91	C	-0.976884	1.512247	-0.314788
C92	C	-0.643551	1.845580	0.018546
C93	C	-0.310217	2.178914	0.351879
C94	C	-0.976690	1.635353	-0.408164
C95	C	-0.643356	1.968686	-0.074830
C96	C	-0.310023	2.302019	0.258503
C97	C	-1.047518	1.609457	-0.334541
C98	C	-0.714185	1.942790	-0.001208
C99	C	-0.380852	2.276124	0.332126
C100	C	-0.235114	1.538332	-0.388409
C101	C	0.098219	1.871666	-0.055075
C102	C	0.431552	2.204999	0.278258
C103	C	-0.116809	1.538374	-0.388420
C104	C	0.216524	1.871708	-0.055086
C105	C	0.549858	2.205041	0.278247
C106	C	-0.512656	1.538302	-0.598692
C107	C	-0.179323	1.871636	-0.265359
C108	C	0.154011	2.204969	0.067974
C109	C	-0.512622	1.538332	-0.688313
C110	C	-0.179289	1.871665	-0.354980
C111	C	0.154044	2.204999	-0.021647
C112	C	-0.512757	1.815854	-0.388382
C113	C	-0.179423	2.149187	-0.055048
C114	C	0.153910	2.482521	0.278285
C115	C	-0.512766	1.934159	-0.388381
C116	C	-0.179433	2.267493	-0.055048
C117	C	0.153901	2.600826	0.278286
C118	C	-0.512503	1.538381	-1.016489
C119	C	-0.179170	1.871714	-0.683156
C120	C	0.154164	2.205048	-0.349823
C121	C	-0.512540	1.538364	-0.925181
C122	C	-0.179206	1.871698	-0.591847
C123	C	0.154127	2.205031	-0.258514
C124	C	-0.512563	1.538357	-0.852404
C125	C	-0.179230	1.871690	-0.519071
C126	C	0.154103	2.205024	-0.185738
C127	C	-0.512598	1.538339	-0.761090
C128	C	-0.179265	1.871673	-0.427757
C129	C	0.154068	2.205006	-0.094423
C130	C	-0.512737	1.538226	-0.178892
C131	C	-0.179404	1.871559	0.154441
C132	C	0.153929	2.204892	0.487774
C133	C	-0.512471	1.538402	-0.089272
C134	C	-0.179138	1.871736	0.244062
C135	C	0.154195	2.205069	0.577395
H136	H	-0.691926	1.105252	-0.351812
H137	H	-0.358592	1.438586	-0.018478
H138	H	-0.025259	1.771919	0.314855
O139	O	-0.663758	0.962227	-0.502323
O140	O	-0.330425	1.295560	-0.168990
O141	O	0.002908	1.628894	0.164343
H142	H	-0.744259	0.990570	-0.485674
H143	H	-0.410926	1.323903	-0.152341
H144	H	-0.077592	1.657236	0.180992
H145	H	-0.560702	0.972397	-0.252502
H146	H	-0.227368	1.305731	0.080832
H147	H	0.105965	1.639064	0.414165
H148	H	-1.078353	1.669644	-0.288974
H149	H	-0.745020	2.002977	0.044359
H150	H	-0.411686	2.336311	0.377692
O151	O	-0.935575	1.744121	-0.430344
O152	O	-0.602242	2.077455	-0.097010
O153	O	-0.268909	2.410788	0.236323
H154	H	-0.885847	1.738190	-0.485291
H155	H	-0.552514	2.071523	-0.151958
H156	H	-0.219180	2.404856	0.181375
O157	O	-0.361810	1.115033	-0.274272
O158	O	-0.028476	1.448366	0.059061
O159	O	0.304857	1.781700	0.392394
H160	H	-0.383539	1.086521	-0.213270
H161	H	-0.050206	1.419854	0.120063
H162	H	0.283127	1.753187	0.453396
O163	O	-0.935732	1.387356	-0.502443
O164	O	-0.602399	1.720689	-0.169110
O165	O	-0.269065	2.054023	0.164224
H166	H	-0.847611	1.388536	-0.502303
H167	H	-0.514277	1.721869	-0.168969
H168	H	-0.180944	2.055202	0.164364
O169	O	-0.307012	0.962169	-0.430439
O170	O	0.026321	1.295503	-0.097106
O171	O	0.359655	1.628836	0.236228
H172	H	-0.285711	0.990481	-0.491581
H173	H	0.047622	1.323815	-0.158248
H174	H	0.380956	1.657148	0.175086
H175	H	-0.464993	1.105293	-0.524221
H176	H	-0.131659	1.438626	-0.190887
H177	H	0.201674	1.771960	0.142446
H178	H	-1.078926	1.359133	-0.351957
H179	H	-0.745593	1.692466	-0.018624
H180	H	-0.412259	2.025799	0.314710
H181	H	-0.945984	1.490194	-0.252549
H182	H	-0.612651	1.823527	0.080784
H183	H	-0.279318	2.156861	0.414117
H184	H	-1.078548	1.586219	-0.524205
H185	H	-0.745215	1.919552	-0.190872
H186	H	-0.411881	2.252885	0.142461
