data_functionalizedCrystal
_audit_creation_method	'MofGen! by Chris Wilmer'
_symmetry_space_group_name_H-M	'P1'
_symmetry_Int_Tables_number	1
_symmetry_cell_setting	triclinic
loop_
_symmetry_equiv_pos_as_xyz
  x,y,z
_cell_length_a	11.792254
_cell_length_b	23.532357
_cell_length_c	10.868271
_cell_angle_alpha	90.006944
_cell_angle_beta	90.004308
_cell_angle_gamma	83.513444
loop_
_atom_site_label
_atom_site_type_symbol
_atom_site_fract_x
_atom_site_fract_y
_atom_site_fract_z
O1	O	1.505035	0.078088	0.102337
O2	O	2.005035	0.578088	0.602337
O3	O	1.174503	0.086125	0.102342
O4	O	1.674503	0.586125	0.602342
O5	O	1.349766	-0.000768	0.102314
O6	O	1.849766	0.499232	0.602314
O7	O	1.329772	0.164981	0.102365
O8	O	1.829772	0.664981	0.602365
O9	O	1.349750	-0.000765	-0.102330
O10	O	1.849750	0.499235	0.397670
O11	O	1.174488	0.086128	-0.102303
O12	O	1.674488	0.586128	0.397697
O13	O	1.505019	0.078091	-0.102307
O14	O	2.005019	0.578091	0.397693
Zn15	Zn	1.339751	0.082110	-0.134797
Zn16	Zn	1.839751	0.582110	0.365203
Zn17	Zn	1.339771	0.082106	0.134831
Zn18	Zn	1.839771	0.582106	0.634831
O19	O	1.329756	0.164983	-0.102280
O20	O	1.829756	0.664983	0.397720
C21	C	1.132217	0.085620	0.000020
C22	C	1.632217	0.585620	0.500020
C23	C	1.006240	0.084105	0.000020
C24	C	1.506240	0.584105	0.500020
C25	C	0.903933	0.082873	0.000025
C26	C	1.403933	0.582873	0.500025
C27	C	0.775583	0.081334	0.000025
C28	C	1.275583	0.581334	0.500025
C29	C	1.349258	-0.021986	-0.000012
C30	C	1.849258	0.478014	0.499988
C31	C	1.347754	-0.085214	-0.000023
C32	C	1.847754	0.414786	0.499977
C33	C	1.338324	-0.477283	0.111595
C34	C	1.838324	0.022717	0.611595
C35	C	1.336894	-0.536690	0.111602
C36	C	1.836894	-0.036690	0.611602
O37	O	1.336124	-0.567413	0.206472
O38	O	1.836124	-0.067413	0.706472
N39	N	1.336177	-0.566404	0.000052
N40	N	1.836177	-0.066404	0.500052
C41	C	1.336877	-0.536707	-0.111513
C42	C	1.836877	-0.036707	0.388487
O43	O	1.336135	-0.567435	-0.206394
O44	O	1.836135	-0.067435	0.293606
C45	C	1.338298	-0.477299	-0.111519
C46	C	1.838298	0.022701	0.388481
C47	C	1.339027	-0.447589	0.000039
C48	C	1.839027	0.052411	0.500039
C49	C	1.339051	-0.447572	0.223143
C50	C	1.839051	0.052428	0.723143
C51	C	1.340482	-0.388169	0.223136
C52	C	1.840482	0.111831	0.723136
C53	C	1.341186	-0.358475	0.111580
C54	C	1.841186	0.141525	0.611580
C55	C	1.340459	-0.388185	0.000031
C56	C	1.840459	0.111815	0.500031
C57	C	1.338991	-0.447602	-0.223082
C58	C	1.838991	0.052398	0.276918
C59	C	1.340411	-0.388190	-0.223078
C60	C	1.840411	0.111810	0.276922
C61	C	1.341140	-0.358480	-0.111521
C62	C	1.841140	0.141520	0.388479
C63	C	1.342594	-0.299088	-0.111532
C64	C	1.842594	0.200912	0.388468
N65	N	1.343311	-0.269374	0.000018
N66	N	1.843311	0.230626	0.500018
C67	C	1.342607	-0.299068	0.111574
C68	C	1.842607	0.200932	0.611574
C69	C	1.333891	-0.661466	-0.111492
C70	C	1.833891	-0.161466	0.388508
C71	C	1.332478	-0.720873	-0.111488
C72	C	1.832478	-0.220873	0.388512
C73	C	1.332493	-0.720852	0.111627
C74	C	1.832493	-0.220852	0.611627
C75	C	1.333914	-0.661445	0.111622
C76	C	1.833914	-0.161445	0.611622
C77	C	1.334608	-0.631752	0.000058
C78	C	1.834608	-0.131752	0.500058
C79	C	1.345614	-0.174316	0.111550
C80	C	1.845614	0.325684	0.611550
C81	C	1.347050	-0.114907	0.111533
C82	C	1.847050	0.385093	0.611533
C83	C	1.347029	-0.114932	-0.111582
C84	C	1.847029	0.385068	0.388418
C85	C	1.345599	-0.174336	-0.111565
C86	C	1.845599	0.325664	0.388435
C87	C	1.344888	-0.204026	0.000011
C88	C	1.844888	0.295974	0.500011
O89	O	1.343360	-0.268328	-0.206354
O90	O	1.843360	0.231672	0.293646
O91	O	1.343335	-0.268331	0.206440
O92	O	1.843335	0.231669	0.706440
C93	C	1.547305	0.078596	0.000018
C94	C	2.047305	0.578596	0.500018
C95	C	1.673282	0.080111	0.000025
C96	C	2.173282	0.580111	0.500025
C97	C	1.330264	0.186202	0.000049
C98	C	1.830264	0.686202	0.500049
C99	C	1.331768	0.249429	0.000069
C100	C	1.831768	0.749429	0.500069
N101	N	1.339745	0.082112	-0.318811
N102	N	1.839745	0.582112	0.181189
C103	C	1.339754	0.082112	-0.430148
C104	C	1.839754	0.582112	0.069852
C105	C	1.339768	0.082107	-0.569826
C106	C	1.839768	0.582107	-0.069826
N107	N	1.339786	0.082099	0.318845
N108	N	1.839786	0.582099	0.818845
H109	H	1.347647	-0.090720	0.202380
H110	H	1.847647	0.409280	0.702380
H111	H	1.340959	-0.364016	-0.313929
H112	H	1.840959	0.135984	0.186071
O113	O	1.334672	-0.629445	-0.231833
O114	O	1.834672	-0.129445	0.268167
H115	H	1.257041	-0.636019	-0.285335
H116	H	1.757041	-0.136019	0.214665
O117	O	1.338193	-0.479633	-0.343412
O118	O	1.838193	0.020367	0.156588
H119	H	1.414910	-0.511536	-0.348779
H120	H	1.914910	-0.011536	0.151221
H121	H	1.345016	-0.198528	-0.202405
H122	H	1.845016	0.301472	0.297595
H123	H	1.347608	-0.090745	-0.202408
H124	H	1.847608	0.409255	0.297592
H125	H	1.338474	-0.471742	0.313991
H126	H	1.838474	0.028258	0.813991
O127	O	1.341238	-0.356130	0.343464
O128	O	1.841238	0.143870	0.843464
H129	H	1.418321	-0.372372	0.396970
H130	H	1.918321	0.127628	0.896970
H131	H	1.331902	-0.745059	-0.202329
H132	H	1.831902	-0.245059	0.297671
O133	O	1.344837	-0.206334	0.231888
O134	O	1.844837	0.293666	0.731888
H135	H	1.345587	-0.175687	0.309444
H136	H	1.845587	0.324313	0.809444
H137	H	1.334506	-0.637259	0.202462
H138	H	1.834506	-0.137259	0.702462
H139	H	1.331916	-0.745039	0.202463
H140	H	1.831916	-0.245039	0.702463
