data_functionalizedCrystal
_audit_creation_method	'MofGen! by Chris Wilmer'
_symmetry_space_group_name_H-M	'P1'
_symmetry_Int_Tables_number	1
_symmetry_cell_setting	triclinic
loop_
_symmetry_equiv_pos_as_xyz
  x,y,z
_cell_length_a	16.120530
_cell_length_b	18.101395
_cell_length_c	16.120297
_cell_angle_alpha	87.127310
_cell_angle_beta	89.871860
_cell_angle_gamma	87.126665
loop_
_atom_site_label
_atom_site_type_symbol
_atom_site_fract_x
_atom_site_fract_y
_atom_site_fract_z
Zn1	Zn	1.247384	-0.375190	0.534565
Zn2	Zn	1.254317	-0.493082	0.395508
Zn3	Zn	1.115376	-0.362676	0.388483
Zn4	Zn	1.108274	-0.492400	0.527477
O5	O	1.181338	-0.430837	0.461508
O6	O	1.364669	-0.396351	0.522025
O7	O	1.241761	-0.470832	0.278211
O8	O	1.132958	-0.260707	0.407888
O9	O	1.369763	-0.482966	0.419860
O10	O	1.229944	-0.269901	0.515214
O11	O	1.139681	-0.375023	0.273050
O12	O	0.998069	-0.374361	0.401015
O13	O	1.120853	-0.481804	0.644783
O14	O	0.992851	-0.469669	0.503133
O15	O	1.223057	-0.395690	0.649990
O16	O	1.234873	-0.596620	0.412987
O17	O	1.127576	-0.596119	0.509945
C18	C	0.965287	-0.420584	0.450543
C19	C	0.872859	-0.416216	0.445872
C20	C	0.703631	-0.408225	0.437350
C21	C	0.659883	-0.453506	0.485727
C22	C	0.565718	-0.449060	0.480986
C23	C	0.797804	-0.412671	0.442091
C24	C	1.181228	-0.623241	0.461478
C25	C	1.181256	-0.705558	0.461497
C26	C	1.181436	-1.004659	0.461551
C27	C	1.114068	-0.973063	0.522721
C28	C	1.113774	-0.887422	0.522504
C29	C	1.181346	-0.856271	0.461525
C30	C	1.162064	-0.882548	0.372686
C31	C	1.161632	-0.968190	0.373050
C32	C	1.268265	-0.978132	0.488456
C33	C	1.267650	-0.892539	0.490352
C34	C	1.181297	-0.772409	0.461505
C35	C	1.181483	-1.088521	0.461565
C36	C	1.398232	-0.441131	0.472517
C37	C	1.490660	-0.445517	0.477208
C38	C	1.170389	-0.440067	0.678403
C39	C	1.165724	-0.444000	0.770830
C40	C	1.181470	-0.237683	0.461558
C41	C	1.181526	-0.155373	0.461579
C42	C	1.192292	-0.421592	0.245460
C43	C	1.197119	-0.417458	0.153042
C44	C	1.157175	-0.451163	0.940055
C45	C	1.205665	-0.410297	0.983822
C46	C	1.200908	-0.414283	1.077985
C47	C	1.161931	-0.447178	0.845884
H48	H	0.693149	-0.495611	0.530706
H49	H	1.125322	-0.869842	0.588238
H50	H	0.670367	-0.366124	0.392376
H51	H	1.125459	-0.997097	0.588658
H52	H	1.050005	-0.990950	0.504755
H53	H	1.250750	-0.372317	0.950575
H54	H	1.112094	-0.489140	0.973300
H55	H	1.286711	-1.003393	0.552368
H56	H	1.049324	-0.863273	0.504331
H57	H	1.098292	-0.984372	0.350776
O58	O	1.217915	-0.992775	0.316473
C59	C	1.320291	-0.959869	0.213778
C60	C	1.256573	-0.931930	0.277814
H61	H	1.351576	-0.910691	0.182517
H62	H	1.287321	-0.991099	0.164894
H63	H	1.369192	-0.998514	0.246565
H64	H	1.207654	-0.893257	0.245100
H65	H	1.289601	-0.900742	0.326694
H66	H	1.099423	-0.857320	0.350105
O67	O	1.218883	-0.858274	0.316488
C68	C	1.242784	-0.785639	0.190107
C69	C	1.178342	-0.813073	0.253679
H70	H	1.210034	-0.749076	0.139319
H71	H	1.276018	-0.835178	0.161273
H72	H	1.290024	-0.752312	0.222705
H73	H	1.131051	-0.846388	0.221142
H74	H	1.145171	-0.763503	0.282510
O75	O	1.285041	-0.872687	0.568442
C76	C	1.314109	-0.914056	0.710283
C77	C	1.294426	-0.936636	0.621882
H78	H	1.321720	-0.965747	0.753510
H79	H	1.261105	-0.876396	0.733429
H80	H	1.374138	-0.883303	0.709340
H81	H	1.234421	-0.967417	0.622755
H82	H	1.347478	-0.974261	0.598771
O83	O	1.330331	-0.867749	0.441487
C84	C	1.441875	-0.899848	0.348131
C85	C	1.370934	-0.928023	0.403467
H86	H	1.474712	-0.948563	0.317363
H87	H	1.488164	-0.871589	0.387757
H88	H	1.415225	-0.858519	0.298258
H89	H	1.397510	-0.969378	0.453348
H90	H	1.324657	-0.956238	0.363785
O91	O	1.328077	-1.002724	0.435444
C92	C	1.398558	-1.108513	0.376906
C93	C	1.330817	-1.080758	0.436986
H94	H	1.400783	-1.171606	0.378120
H95	H	1.461378	-1.089132	0.396788
H96	H	1.383621	-1.085337	0.311281
H97	H	1.345675	-1.103922	0.502629
H98	H	1.268017	-1.100131	0.417033
