data_functionalizedCrystal
_audit_creation_method	'MofGen! by Chris Wilmer'
_symmetry_space_group_name_H-M	'P1'
_symmetry_Int_Tables_number	1
_symmetry_cell_setting	triclinic
loop_
_symmetry_equiv_pos_as_xyz
  x,y,z
_cell_length_a	14.971486
_cell_length_b	16.109304
_cell_length_c	13.448316
_cell_angle_alpha	89.996206
_cell_angle_beta	89.998199
_cell_angle_gamma	83.538383
loop_
_atom_site_label
_atom_site_type_symbol
_atom_site_fract_x
_atom_site_fract_y
_atom_site_fract_z
O1	O	1.186792	0.108348	-0.082571
O2	O	1.686792	0.608348	0.417429
O3	O	0.926374	0.121323	-0.082597
O4	O	1.426374	0.621323	0.417403
O5	O	1.063736	-0.006187	-0.082584
O6	O	1.563736	0.493813	0.417416
O7	O	1.049430	0.235857	-0.082584
O8	O	1.549430	0.735857	0.417416
O9	O	1.063718	-0.006195	0.082800
O10	O	1.563718	0.493805	0.582800
O11	O	0.926356	0.121315	0.082786
O12	O	1.426356	0.621315	0.582786
O13	O	1.186775	0.108340	0.082813
O14	O	1.686775	0.608340	0.582813
Cu15	Cu	1.056564	0.114827	0.097900
Cu16	Cu	1.556564	0.614827	0.597900
Cu17	Cu	1.056585	0.114836	-0.097685
Cu18	Cu	1.556585	0.614836	0.402315
O19	O	1.049413	0.235849	0.082799
O20	O	1.549413	0.735849	0.582799
C21	C	0.893041	0.120738	0.000091
C22	C	1.393041	0.620738	0.500091
C23	C	0.793746	0.119000	0.000081
C24	C	1.293746	0.619000	0.500081
C25	C	0.736414	0.193908	0.000082
C26	C	1.236414	0.693908	0.500082
C27	C	0.643117	0.192269	0.000097
C28	C	1.143117	0.692269	0.500097
C29	C	0.607154	0.115721	0.000103
C30	C	1.107154	0.615721	0.500103
C31	C	0.664494	0.040807	0.000105
C32	C	1.164494	0.540807	0.500105
C33	C	0.757789	0.042447	0.000097
C34	C	1.257789	0.542447	0.500097
C35	C	0.470036	0.037395	0.000119
C36	C	0.970036	0.537395	0.500119
C37	C	0.376735	0.035755	0.000124
C38	C	0.876735	0.535755	0.500124
C39	C	0.355364	0.187217	0.000118
C40	C	0.855364	0.687217	0.500118
C41	C	0.448659	0.188857	0.000111
C42	C	0.948659	0.688857	0.500111
C43	C	0.505993	0.113942	0.000110
C44	C	1.005993	0.613942	0.500110
C45	C	1.063147	-0.037166	0.000105
C46	C	1.563147	0.462834	0.500105
C47	C	1.061408	-0.129464	0.000099
C48	C	1.561408	0.370536	0.500099
C49	C	1.057401	-0.341802	-0.090049
C50	C	1.557401	0.158198	0.409951
C51	C	1.055759	-0.428524	-0.090048
C52	C	1.555759	0.071476	0.409952
C53	C	1.055745	-0.428529	0.090262
C54	C	1.555745	0.071471	0.590262
C55	C	1.057380	-0.341808	0.090261
C56	C	1.557380	0.158192	0.590261
C57	C	1.058213	-0.298447	0.000102
C58	C	1.558213	0.201553	0.500102
C59	C	1.054936	-0.471891	0.000105
C60	C	1.554936	0.028109	0.500105
C61	C	1.053156	-0.565919	0.000106
C62	C	1.553156	-0.065919	0.500106
C63	C	1.059991	-0.204413	0.000100
C64	C	1.559991	0.295587	0.500100
C65	C	1.220108	0.108924	0.000122
C66	C	1.720108	0.608924	0.500122
C67	C	1.319402	0.110663	0.000126
C68	C	1.819402	0.610663	0.500126
C69	C	1.050002	0.266829	0.000108
C70	C	1.550002	0.766829	0.500108
C71	C	1.051740	0.359126	0.000108
C72	C	1.551740	0.859126	0.500108
N73	N	1.056556	0.114820	0.235465
N74	N	1.556556	0.614820	0.735465
N75	N	1.056599	0.114836	-0.235249
N76	N	1.556599	0.614836	0.264751
C77	C	1.117399	0.058382	0.287511
C78	C	1.617399	0.558382	0.787511
C79	C	1.117405	0.058381	0.391614
C80	C	1.617405	0.558381	0.891614
C81	C	1.056571	0.114823	0.443669
C82	C	1.556571	0.614823	0.943669
C83	C	0.995722	0.171263	0.391616
C84	C	1.495722	0.671263	0.891616
C85	C	0.995713	0.171259	0.287514
C86	C	1.495713	0.671259	0.787514
C87	C	0.995747	0.171269	0.608596
C88	C	1.495747	0.671269	1.108596
C89	C	0.995757	0.171274	0.712704
C90	C	1.495757	0.671274	1.212704
C91	C	1.117439	0.058391	0.712696
C92	C	1.617439	0.558391	1.212696
C93	C	1.117429	0.058387	0.608594
C94	C	1.617429	0.558387	1.108594
C95	C	1.056581	0.114828	0.556548
C96	C	1.556581	0.614828	1.056548
H97	H	0.596440	0.253267	0.000097
H98	H	1.096440	0.753267	0.500097
H99	H	0.477937	0.251189	0.000096
H100	H	0.977937	0.751189	0.500096
H101	H	0.946194	0.217227	0.566223
H102	H	1.446194	0.717227	1.066223
H103	H	1.055096	-0.463819	-0.163458
H104	H	1.555096	0.036181	0.336542
O105	O	0.625706	-0.041756	0.000113
O106	O	1.125706	0.458244	0.500113
H107	H	0.648733	-0.077752	0.067527
H108	H	1.148733	0.422248	0.567527
H109	H	0.804469	-0.018551	0.000096
H110	H	1.304469	0.481449	0.500096
H111	H	1.058036	-0.306507	0.163677
H112	H	1.558036	0.193493	0.663677
O113	O	1.183009	-0.002498	0.231366
O114	O	1.683009	0.497502	0.731366
H115	H	1.225311	-0.041749	0.285052
H116	H	1.725311	0.458251	0.785052
H117	H	1.166969	0.012432	0.566211
H118	H	1.666969	0.512432	1.066211
H119	H	1.055069	-0.463845	0.163666
H120	H	1.555069	0.036155	0.663666
O121	O	1.183043	-0.002476	0.447754
O122	O	1.683043	0.497524	0.947754
H123	H	1.225356	-0.041711	0.394068
H124	H	1.725356	0.458289	0.894068
H125	H	0.308678	0.248215	0.000123
H126	H	0.808678	0.748215	0.500123
O127	O	1.183065	-0.002495	0.768822
O128	O	1.683065	0.497505	1.268822
H129	H	1.172845	0.006980	0.849955
H130	H	1.672845	0.506980	1.349955
O131	O	0.930128	0.232131	0.768856
O132	O	1.430128	0.732131	1.268856
H133	H	0.887800	0.271365	0.715178
H134	H	1.387800	0.771365	1.215178
H135	H	1.058076	-0.306499	-0.163462
H136	H	1.558076	0.193501	0.336538
O137	O	0.930112	0.232149	0.447754
O138	O	1.430112	0.732149	0.947754
H139	H	0.886661	0.197092	0.495205
H140	H	1.386661	0.697092	0.995205
O141	O	0.775202	0.276471	0.000085
O142	O	1.275202	0.776471	0.500085
H143	H	0.719657	0.328283	0.000101
H144	H	1.219657	0.828283	0.500101
O145	O	0.531871	-0.043409	0.000118
O146	O	1.031871	0.456591	0.500118
H147	H	0.574884	-0.046292	0.067528
H148	H	1.074884	0.453708	0.567528
O149	O	0.930095	0.232135	0.231371
O150	O	1.430095	0.732135	0.731371
H151	H	0.887800	0.271390	0.285055
H152	H	1.387800	0.771390	0.785055
H153	H	0.347457	-0.026577	0.000131
H154	H	0.847457	0.473423	0.500131
