data_functionalizedCrystal
_audit_creation_method	'MofGen! by Chris Wilmer'
_symmetry_space_group_name_H-M	'P1'
_symmetry_Int_Tables_number	1
_symmetry_cell_setting	triclinic
loop_
_symmetry_equiv_pos_as_xyz
  x,y,z
_cell_length_a	17.699104
_cell_length_b	12.503572
_cell_length_c	17.699083
_cell_angle_alpha	93.515225
_cell_angle_beta	83.287266
_cell_angle_gamma	86.486892
loop_
_atom_site_label
_atom_site_type_symbol
_atom_site_fract_x
_atom_site_fract_y
_atom_site_fract_z
O1	O	-1.008441	0.089365	-0.091398
O2	O	-0.675107	0.422699	0.241936
O3	O	-0.341774	0.756032	0.575269
O4	O	-0.788064	0.089358	-0.103834
O5	O	-0.454731	0.422692	0.229499
O6	O	-0.121397	0.756025	0.562833
O7	O	-0.904478	0.089353	0.012572
O8	O	-0.571145	0.422686	0.345906
O9	O	-0.237811	0.756019	0.679239
O10	O	-0.892027	0.089371	-0.207804
O11	O	-0.558693	0.422704	0.125529
O12	O	-0.225360	0.756038	0.458862
O13	O	-0.895723	-0.089289	0.003803
O14	O	-0.562390	0.244044	0.337137
O15	O	-0.229056	0.577378	0.670470
O16	O	-0.779309	-0.089283	-0.112603
O17	O	-0.445976	0.244050	0.220730
O18	O	-0.112642	0.577384	0.554064
O19	O	-0.999685	-0.089276	-0.100167
O20	O	-0.666352	0.244057	0.233167
O21	O	-0.333019	0.577390	0.566500
Cu22	Cu	-0.888698	-0.105591	-0.107186
Cu23	Cu	-0.555364	0.227742	0.226148
Cu24	Cu	-0.222031	0.561076	0.559481
Cu25	Cu	-0.899052	0.105673	-0.096815
Cu26	Cu	-0.565718	0.439007	0.236518
Cu27	Cu	-0.232385	0.772340	0.569851
O28	O	-0.883272	-0.089270	-0.216573
O29	O	-0.549938	0.244063	0.116760
O30	O	-0.216605	0.577396	0.450094
C31	C	-0.755490	0.000037	-0.107770
C32	C	-0.422156	0.333370	0.225563
C33	C	-0.088823	0.666703	0.558896
C34	C	-0.671472	0.000034	-0.106426
C35	C	-0.338139	0.333367	0.226908
C36	C	-0.004806	0.666700	0.560241
C37	C	-0.146602	0.000039	-0.167169
C38	C	0.186732	0.333373	0.166164
C39	C	0.520065	0.666706	0.499498
C40	C	-0.225546	0.000044	-0.168428
C41	C	0.107788	0.333378	0.164905
C42	C	0.441121	0.666711	0.498239
C43	C	-0.274163	0.000039	-0.100093
C44	C	0.059170	0.333372	0.233240
C45	C	0.392504	0.666706	0.566574
C46	C	-0.243833	0.000040	-0.030494
C47	C	0.089500	0.333373	0.302839
C48	C	0.422834	0.666707	0.636172
C49	C	-0.164891	0.000043	-0.029236
C50	C	0.168442	0.333376	0.304098
C51	C	0.501776	0.666710	0.637431
C52	C	-0.562199	0.000030	-0.035568
C53	C	-0.228865	0.333363	0.297766
C54	C	0.104468	0.666697	0.631099
C55	C	-0.641146	0.000024	-0.036832
C56	C	-0.307812	0.333357	0.296502
C57	C	0.025521	0.666691	0.629835
C58	C	-0.622853	0.000031	-0.174760
C59	C	-0.289520	0.333365	0.158573
C60	C	0.043813	0.666698	0.491907
C61	C	-0.543911	0.000034	-0.173502
C62	C	-0.210578	0.333367	0.159832
C63	C	0.122756	0.666701	0.493165
C64	C	-0.513589	0.000041	-0.103903
C65	C	-0.180255	0.333374	0.229430
C66	C	0.153078	0.666707	0.562764
C67	C	-0.427989	0.000038	-0.102539
C68	C	-0.094655	0.333371	0.230795
C69	C	0.238678	0.666704	0.564128
C70	C	-0.359761	0.000035	-0.101457
C71	C	-0.026428	0.333368	0.231876
C72	C	0.306906	0.666701	0.565210
N73	N	-0.881421	-0.254183	-0.114479
N74	N	-0.548088	0.079150	0.218854
N75	N	-0.214754	0.412484	0.552188
C76	C	-0.870716	-0.473298	-0.125214
C77	C	-0.537383	-0.139964	0.208119
C78	C	-0.204050	0.193369	0.541452
C79	C	-0.917037	-0.526627	-0.078783
C80	C	-0.583703	-0.193294	0.254550
C81	C	-0.250370	0.140040	0.587884
C82	C	-0.911080	-0.648550	-0.084756
C83	C	-0.577747	-0.315217	0.248577
C84	C	-0.244414	0.018117	0.581910
C85	C	-0.876672	-0.351364	-0.119242
C86	C	-0.543338	-0.018030	0.214091
C87	C	-0.210005	0.315303	0.547425
C88	C	-0.032260	0.000043	-0.096231
C89	C	0.301074	0.333376	0.237103
C90	C	0.634407	0.666709	0.570436
C91	C	-0.116277	0.000037	-0.097576
C92	C	0.217057	0.333370	0.235758
C93	C	0.550390	0.666704	0.569091
C94	C	-0.899654	0.000032	0.036385
C95	C	-0.566321	0.333365	0.369718
C96	C	-0.232988	0.666698	0.703052
C97	C	-0.898316	0.000031	0.120403
C98	C	-0.564982	0.333365	0.453736
C99	C	-0.231649	0.666698	0.787070
N100	N	-0.906335	0.254265	-0.089516
N101	N	-0.573001	0.587598	0.243817
N102	N	-0.239668	0.920932	0.577151
C103	C	-0.888095	0.000053	-0.240386
C104	C	-0.554762	0.333386	0.092948
C105	C	-0.221429	0.666720	0.426281
C106	C	-0.889434	0.000060	-0.324403
C107	C	-0.556101	0.333394	0.008930
C108	C	-0.222768	0.666727	0.342263
C109	C	-0.966648	0.000032	0.169019
C110	C	-0.633315	0.333365	0.502352
C111	C	-0.299982	0.666698	0.835686
C112	C	-0.965387	0.000041	0.247963
C113	C	-0.632053	0.333375	0.581296
C114	C	-0.298720	0.666708	0.914629
C115	C	-0.895791	0.000042	0.278289
C116	C	-0.562458	0.333376	0.611622
C117	C	-0.229124	0.666709	0.944956
C118	C	-0.827453	0.000045	0.229667
C119	C	-0.494120	0.333378	0.563000
C120	C	-0.160786	0.666712	0.896334
C121	C	-0.828716	0.000043	0.150725
C122	C	-0.495383	0.333377	0.484058
C123	C	-0.162049	0.666710	0.817392
C124	C	-0.822358	0.000054	0.548031
C125	C	-0.489025	0.333387	0.881364
C126	C	-0.155692	0.666720	1.214697
C127	C	-0.821100	0.000052	0.626979
C128	C	-0.487767	0.333385	0.960312
C129	C	-0.154434	0.666719	1.293645
C130	C	-0.959029	0.000052	0.645269
C131	C	-0.625696	0.333385	0.978602
C132	C	-0.292362	0.666718	1.311935
C133	C	-0.960292	0.000050	0.566327
C134	C	-0.626958	0.333383	0.899660
C135	C	-0.293625	0.666717	1.232993
C136	C	-0.891955	0.000058	0.517712
C137	C	-0.558621	0.333391	0.851045
C138	C	-0.225288	0.666725	1.184379
C139	C	-0.893324	0.000050	0.432112
C140	C	-0.559990	0.333383	0.765446
C141	C	-0.226657	0.666717	1.098779
C142	C	-0.894421	0.000043	0.363887
C143	C	-0.561087	0.333376	0.697220
C144	C	-0.227754	0.666710	1.030553
H145	H	-0.250232	0.000056	-0.225097
H146	H	0.083101	0.333389	0.108236
H147	H	0.416434	0.666723	0.441569
F148	F	-0.749628	0.000065	0.496301
F149	F	-0.416294	0.333398	0.829635
F150	F	-0.082961	0.666732	1.162968
F151	F	-0.974943	-0.466623	-0.021188
F152	F	-0.641610	-0.133289	0.312145
F153	F	-0.308276	0.200044	0.645478
H154	H	-0.770787	0.000053	0.254365
H155	H	-0.437454	0.333386	0.587698
H156	H	-0.104121	0.666719	0.921032
H157	H	-0.764424	0.000051	0.651666
H158	H	-0.431090	0.333384	0.985000
H159	H	-0.097757	0.666718	1.318333
F160	F	-1.040722	0.000020	0.136751
F161	F	-0.707389	0.333354	0.470084
F162	F	-0.374056	0.666687	0.803418
F163	F	-1.031760	0.000047	0.697015
F164	F	-0.698427	0.333380	1.030348
F165	F	-0.365094	0.666713	1.363681
F166	F	-0.132618	0.000041	0.044835
F167	F	0.200716	0.333374	0.378168
F168	F	0.534049	0.666707	0.711502
H169	H	-0.826591	-0.519203	-0.169449
H170	H	-0.493257	-0.185870	0.163885
H171	H	-0.159924	0.147464	0.497218
H172	H	-0.537520	0.000032	0.021103
H173	H	-0.204187	0.333366	0.354437
H174	H	0.129147	0.666699	0.687770
H175	H	-0.504330	0.000033	-0.229147
H176	H	-0.170996	0.333366	0.104186
H177	H	0.162337	0.666699	0.437519
H178	H	-0.773072	0.000043	0.111142
H179	H	-0.439739	0.333376	0.444475
H180	H	-0.106406	0.666710	0.777809
H181	H	-1.021030	0.000039	0.287543
H182	H	-0.687697	0.333373	0.620876
H183	H	-0.354363	0.666706	0.954210
F184	F	-1.034365	0.000050	0.534056
F185	F	-0.701031	0.333383	0.867390
F186	F	-0.367698	0.666716	1.200723
H187	H	-0.107022	0.000035	-0.222816
H188	H	0.226312	0.333369	0.110517
H189	H	0.559645	0.666702	0.443851
H190	H	-0.647551	0.000030	-0.231431
H191	H	-0.314218	0.333364	0.101903
H192	H	0.019115	0.666697	0.435236
F193	F	-0.295578	0.000038	0.042233
F194	F	0.037756	0.333372	0.375567
F195	F	0.371089	0.666705	0.708900
F196	F	-0.692887	0.000020	0.035903
F197	F	-0.359554	0.333353	0.369237
F198	F	-0.026221	0.666686	0.702570
