data_functionalizedCrystal
_audit_creation_method	'MofGen! by Chris Wilmer'
_symmetry_space_group_name_H-M	'P1'
_symmetry_Int_Tables_number	1
_symmetry_cell_setting	triclinic
loop_
_symmetry_equiv_pos_as_xyz
  x,y,z
_cell_length_a	21.395361
_cell_length_b	21.395364
_cell_length_c	21.395355
_cell_angle_alpha	89.974702
_cell_angle_beta	90.021511
_cell_angle_gamma	89.952591
loop_
_atom_site_label
_atom_site_type_symbol
_atom_site_fract_x
_atom_site_fract_y
_atom_site_fract_z
Zn1	Zn	-0.249232	-0.957859	0.354261
Zn2	Zn	0.250768	-0.457859	0.854261
Zn3	Zn	-0.353992	-0.957762	0.249478
Zn4	Zn	0.146008	-0.457762	0.749478
Zn5	Zn	-0.249263	-0.853074	0.249496
Zn6	Zn	0.250737	-0.353074	0.749496
Zn7	Zn	-0.354006	-0.853043	0.354217
Zn8	Zn	0.145994	-0.353043	0.854217
O9	O	-0.301623	-0.905435	0.301863
O10	O	0.198377	-0.405435	0.801863
O11	O	-0.263110	-1.045524	0.340372
O12	O	0.236890	-0.545524	0.840372
O13	O	-0.340106	-0.943847	0.161802
O14	O	0.159894	-0.443847	0.661802
O15	O	-0.161581	-0.867028	0.263420
O16	O	0.338419	-0.367028	0.763420
O17	O	-0.340076	-1.045453	0.263388
O18	O	0.159924	-0.545453	0.763388
O19	O	-0.161558	-0.944013	0.340390
O20	O	0.338442	-0.444013	0.840390
O21	O	-0.263162	-0.866933	0.161816
O22	O	0.236838	-0.366933	0.661816
O23	O	-0.263176	-0.765392	0.263377
O24	O	0.236824	-0.265392	0.763377
O25	O	-0.340101	-0.866975	0.441901
O26	O	0.159899	-0.366975	0.941901
O27	O	-0.340131	-0.765370	0.340315
O28	O	0.159869	-0.265370	0.840315
O29	O	-0.263124	-0.943983	0.441933
O30	O	0.236876	-0.443983	0.941933
O31	O	-0.441672	-0.943817	0.263346
O32	O	0.058328	-0.443817	0.763346
O33	O	-0.441682	-0.866881	0.340297
O34	O	0.058318	-0.366881	0.840297
C35	C	-0.301659	-0.742647	0.301843
C36	C	0.198341	-0.242647	0.801843
C37	C	-0.301689	-0.673006	0.301850
C38	C	0.198311	-0.173006	0.801850
C39	C	-0.261679	-0.640352	0.341997
C40	C	0.238321	-0.140352	0.841997
C41	C	-0.261664	-0.574917	0.341998
C42	C	0.238336	-0.074917	0.841998
C43	C	-0.301671	-0.542137	0.301859
C44	C	0.198329	-0.042137	0.801859
C45	C	-0.341683	-0.574799	0.261705
C46	C	0.158317	-0.074799	0.761705
C47	C	-0.341692	-0.640233	0.261700
C48	C	0.158308	-0.140233	0.761700
C49	C	-0.358099	-0.438413	0.296818
C50	C	0.141901	0.061587	0.796818
C51	C	-0.358090	-0.372980	0.296827
C52	C	0.141910	0.127020	0.796827
C53	C	-0.301642	-0.340317	0.301871
C54	C	0.198358	0.159683	0.801871
C55	C	-0.245200	-0.373094	0.306919
C56	C	0.254800	0.126906	0.806919
C57	C	-0.245210	-0.438528	0.306914
C58	C	0.254790	0.061472	0.806914
C59	C	-0.301665	-0.471185	0.301860
C60	C	0.198335	0.028815	0.801860
C61	C	-0.261613	-0.236711	0.342021
C62	C	0.238387	0.263289	0.842021
C63	C	-0.261597	-0.171274	0.342019
C64	C	0.238403	0.328726	0.842019
C65	C	-0.341622	-0.171157	0.261728
C66	C	0.158378	0.328843	0.761728
C67	C	-0.341632	-0.236593	0.261728
C68	C	0.158368	0.263407	0.761728
C69	C	-0.301629	-0.269365	0.301878
C70	C	0.198371	0.230635	0.801878
C71	C	-0.464411	-0.905352	0.301828
C72	C	0.035589	-0.405352	0.801828
C73	C	-0.534052	-0.905374	0.301834
C74	C	-0.034052	-0.405374	0.801834
C75	C	-0.566739	-0.945470	0.261807
C76	C	-0.066739	-0.445470	0.761807
C77	C	-0.632174	-0.945499	0.261821
C78	C	-0.132174	-0.445499	0.761821
C79	C	-0.664920	-0.905421	0.301856
C80	C	-0.164920	-0.405421	0.801856
C81	C	-0.632226	-0.865322	0.341891
C82	C	-0.132226	-0.365322	0.841891
C83	C	-0.566791	-0.865298	0.341880
C84	C	-0.066791	-0.365298	0.841880
C85	C	-0.768652	-0.849006	0.306765
C86	C	-0.268652	-0.349006	0.806765
C87	C	-0.834085	-0.849029	0.306771
C88	C	-0.334085	-0.349029	0.806771
C89	C	-0.866741	-0.905494	0.301892
C90	C	-0.366741	-0.405494	0.801892
C91	C	-0.833956	-0.961938	0.296994
C92	C	-0.333956	-0.461938	0.796994
C93	C	-0.768522	-0.961915	0.296983
C94	C	-0.268522	-0.461915	0.796983
C95	C	-0.735873	-0.905442	0.301872
C96	C	-0.235873	-0.405442	0.801872
C97	C	-0.970380	-0.945625	0.261878
C98	C	-0.470380	-0.445625	0.761878
C99	C	-1.035817	-0.945655	0.261896
C100	C	-0.535817	-0.445655	0.761896
C101	C	-1.035867	-0.865473	0.341963
C102	C	-0.535867	-0.365473	0.841963
C103	C	-0.970432	-0.865448	0.341948
C104	C	-0.470432	-0.365448	0.841948
C105	C	-0.937692	-0.905523	0.301902
C106	C	-0.437692	-0.405523	0.801902
C107	C	-0.138200	-0.905535	0.301912
C108	C	0.361800	-0.405535	0.801912
C109	C	-0.068558	-0.905577	0.301932
C110	C	0.431442	-0.405577	0.801932
C111	C	-0.301610	-0.905487	0.465286
C112	C	0.198390	-0.405487	0.965286
C113	C	-0.301605	-0.905509	0.534928
C114	C	0.198395	-0.405509	1.034928
C115	C	-0.301596	-0.068858	0.301880
C116	C	0.198404	0.431142	0.801880
C117	C	-0.301604	-0.138499	0.301879
C118	C	0.198396	0.361501	0.801879
C119	C	-0.301591	-0.905419	0.139075
C120	C	0.198409	-0.405419	0.639075
C121	C	-0.301419	-0.905518	0.069435
C122	C	0.198581	-0.405518	0.569435
C123	C	-0.261521	-0.945605	0.567659
C124	C	0.238479	-0.445605	1.067659
C125	C	-0.261494	-0.945604	0.633094
C126	C	0.238506	-0.445604	1.133094
C127	C	-0.301562	-0.905514	0.665796
C128	C	0.198438	-0.405514	1.165796
C129	C	-0.341649	-0.865410	0.633057
C130	C	0.158351	-0.365410	1.133057
C131	C	-0.341670	-0.865407	0.567623
C132	C	0.158330	-0.365407	1.067623
C133	C	-0.357979	-0.900538	0.769459
C134	C	0.142021	-0.400538	1.269459
C135	C	-0.357959	-0.900545	0.834892
C136	C	0.142041	-0.400545	1.334892
C137	C	-0.301496	-0.905518	0.867617
C138	C	0.198504	-0.405518	1.367617
C139	C	-0.245052	-0.910497	0.834901
C140	C	0.254948	-0.410497	1.334901
C141	C	-0.245073	-0.910494	0.769467
C142	C	0.254927	-0.410494	1.269467
C143	C	-0.301543	-0.905512	0.736748
C144	C	0.198457	-0.405512	1.236748
C145	C	-0.261380	-0.945615	0.971300
C146	C	0.238620	-0.445615	1.471300
C147	C	-0.261352	-0.945610	1.036737
C148	C	0.238648	-0.445610	1.536737
C149	C	-0.341512	-0.865419	1.036699
C150	C	0.158488	-0.365419	1.536699
C151	C	-0.341534	-0.865421	0.971263
C152	C	0.158466	-0.365421	1.471263
C153	C	-0.301469	-0.905522	0.938568
C154	C	0.198531	-0.405522	1.438568
H155	H	-0.404069	-0.465002	0.292710
H156	H	0.095931	0.034998	0.792710
N157	N	-0.384829	-0.539449	0.218407
N158	N	0.115171	-0.039449	0.718407
H159	H	-0.378753	-0.493041	0.224502
H160	H	0.121247	0.006959	0.724502
H161	H	-0.429594	-0.550848	0.228071
H162	H	0.070406	-0.050848	0.728071
N163	N	-1.071077	-0.988901	0.218720
N164	N	-0.571077	-0.488901	0.718720
H165	H	-1.098175	-1.017937	0.244212
H166	H	-0.598175	-0.517937	0.744212
H167	H	-1.040367	-1.014240	0.193358
H168	H	-0.540367	-0.514240	0.693358
H169	H	-0.228850	-0.978254	0.659749
H170	H	0.271150	-0.478254	1.159749
H171	H	-1.062528	-0.832843	0.374563
H172	H	-0.562528	-0.332843	0.874563
N173	N	-0.869169	-1.022845	0.291728
N174	N	-0.369169	-0.522845	0.791728
H175	H	-0.896287	-1.028716	0.329909
H176	H	-0.396287	-0.528716	0.829909
H177	H	-0.838431	-1.058557	0.288603
H178	H	-0.338431	-0.558557	0.788603
H179	H	-0.943723	-0.978259	0.229272
H180	H	-0.443723	-0.478259	0.729272
N181	N	-0.218174	-0.988864	0.936025
N182	N	0.281826	-0.488864	1.436025
H183	H	-0.173401	-0.979166	0.947399
H184	H	0.326599	-0.479166	1.447399
H185	H	-0.224335	-0.982757	0.889618
H186	H	0.275665	-0.482757	1.389618
N187	N	-0.218519	-0.675690	0.385291
N188	N	0.281481	-0.175690	0.885291
H189	H	-0.189449	-0.702850	0.359877
H190	H	0.310551	-0.202850	0.859877
H191	H	-0.244063	-0.702797	0.414274
H192	H	0.255937	-0.202797	0.914274
H193	H	-0.374274	-0.666819	0.229006
H194	H	0.125726	-0.166819	0.729006
N195	N	-0.418833	-0.895174	0.870176
N196	N	0.081167	-0.395174	1.370176
H197	H	-0.424697	-0.933341	0.897337
H198	H	0.075303	-0.433341	1.397337
H199	H	-0.454567	-0.891995	0.839478
H200	H	0.045433	-0.391995	1.339478
H201	H	-0.540084	-0.978103	0.229201
H202	H	-0.040084	-0.478103	0.729201
N203	N	-0.667440	-0.988748	0.218648
N204	N	-0.167440	-0.488748	0.718648
H205	H	-0.636771	-1.014132	0.193279
H206	H	-0.136771	-0.514132	0.693279
H207	H	-0.694634	-0.963263	0.189637
H208	H	-0.194634	-0.463263	0.689637
N209	N	-0.218112	-0.988862	1.072034
N210	N	0.281888	-0.488862	1.572034
H211	H	-0.243557	-1.017881	1.099196
H212	H	0.256443	-0.517881	1.599196
H213	H	-0.189075	-0.963377	1.099134
H214	H	0.310925	-0.463377	1.599134
N215	N	-0.218511	-0.539692	0.385307
N216	N	0.281489	-0.039692	0.885307
H217	H	-0.244019	-0.512535	0.414293
H218	H	0.255981	-0.012535	0.914293
H219	H	-0.189440	-0.512593	0.359860
H220	H	0.310560	-0.012593	0.859860
H221	H	-0.199253	-0.465213	0.311022
H222	H	0.300747	0.034787	0.811022
H223	H	-0.860773	-0.803068	0.310753
H224	H	-0.360773	-0.303068	0.810753
H225	H	-0.741830	-1.007873	0.292997
H226	H	-0.241830	-0.507873	0.792997
H227	H	-0.742070	-0.803022	0.310740
H228	H	-0.242070	-0.303022	0.810740
H229	H	-0.943816	-0.832795	0.374540
H230	H	-0.443816	-0.332795	0.874540
N231	N	-0.667540	-0.822096	0.385074
N232	N	-0.167540	-0.322096	0.885074
H233	H	-0.713953	-0.828193	0.379006
H234	H	-0.213953	-0.328193	0.879006
H235	H	-0.656159	-0.777349	0.375279
H236	H	-0.156159	-0.277349	0.875279
N237	N	-0.531532	-0.822049	0.385053
N238	N	-0.031532	-0.322049	0.885053
H239	H	-0.562203	-0.796664	0.410420
H240	H	-0.062203	-0.296664	0.910420
H241	H	-0.504433	-0.793056	0.359515
H242	H	-0.004433	-0.293056	0.859515
H243	H	-0.228896	-0.978258	0.541042
H244	H	0.271104	-0.478258	1.041042
H245	H	-0.374130	-0.832770	1.063324
H246	H	0.125870	-0.332770	1.563324
H247	H	-0.199115	-0.914547	0.742833
H248	H	0.300885	-0.414547	1.242833
H249	H	-0.199075	-0.914547	0.861545
H250	H	0.300925	-0.414547	1.361545
H251	H	-0.374179	-0.832774	0.944614
H252	H	0.125821	-0.332774	1.444614
N253	N	-0.418883	-0.895182	0.734165
N254	N	0.081117	-0.395182	1.234165
H255	H	-0.454635	-0.892038	0.764817
H256	H	0.045365	-0.392038	1.264817
H257	H	-0.424692	-0.933358	0.707036
H258	H	0.075308	-0.433358	1.207036
H259	H	-0.374270	-0.832766	0.659687
H260	H	0.125730	-0.332766	1.159687
H261	H	-0.374310	-0.832753	0.540974
H262	H	0.125690	-0.332753	1.040974
H263	H	-0.199235	-0.346501	0.311026
H264	H	0.300765	0.153499	0.811026
H265	H	-0.229036	-0.263396	0.374710
H266	H	0.270964	0.236604	0.874710
H267	H	-0.374196	-0.144469	0.229047
H268	H	0.125804	0.355531	0.729047
N269	N	-0.218431	-0.136051	0.385311
N270	N	0.281569	0.363949	0.885311
H271	H	-0.193090	-0.166745	0.410741
H272	H	0.306910	0.333255	0.910741
H273	H	-0.243967	-0.108886	0.414260
H274	H	0.256033	0.391114	0.914260
N275	N	-0.384791	-0.271811	0.218426
N276	N	0.115209	0.228189	0.718426
H277	H	-0.429570	-0.260385	0.228075
H278	H	0.070430	0.239615	0.728075
H279	H	-0.378674	-0.318226	0.224531
H280	H	0.121326	0.181774	0.724531
N281	N	-0.418963	-0.337630	0.291383
N282	N	0.081037	0.162370	0.791383
H283	H	-0.454723	-0.368249	0.288177
H284	H	0.045277	0.131751	0.788177
H285	H	-0.417994	-0.310462	0.252781
H286	H	0.082006	0.189538	0.752781
