data_functionalizedCrystal
_audit_creation_method	'MofGen! by Chris Wilmer'
_symmetry_space_group_name_H-M	'P1'
_symmetry_Int_Tables_number	1
_symmetry_cell_setting	triclinic
loop_
_symmetry_equiv_pos_as_xyz
  x,y,z
_cell_length_a	10.967819
_cell_length_b	11.026607
_cell_length_c	16.053919
_cell_angle_alpha	87.754709
_cell_angle_beta	75.018148
_cell_angle_gamma	96.381100
loop_
_atom_site_label
_atom_site_type_symbol
_atom_site_fract_x
_atom_site_fract_y
_atom_site_fract_z
O1	O	1.720164	0.191500	-0.316919
O2	O	1.356209	0.204354	-0.264555
O3	O	1.508022	0.020738	-0.286394
O4	O	1.568351	0.375115	-0.295080
O5	O	1.496418	0.011444	-0.145867
O6	O	1.344605	0.195060	-0.124029
O7	O	1.708560	0.182206	-0.176392
Zn8	Zn	1.524740	0.187158	-0.127899
Zn9	Zn	1.540029	0.199402	-0.313048
O10	O	1.556747	0.365822	-0.154553
C11	C	1.303088	0.198068	-0.187484
C12	C	1.162091	0.193171	-0.167198
C13	C	0.959523	0.190754	-0.210001
C14	C	1.105250	0.195807	-0.230962
C15	C	1.491090	-0.029317	-0.214530
C16	C	1.457913	-0.164620	-0.209760
C17	C	1.549522	-0.236799	-0.222941
C18	C	1.515234	-0.376642	-0.218011
C19	C	1.761681	0.188492	-0.253465
C20	C	1.902678	0.193389	-0.273756
C21	C	1.573678	0.415877	-0.226419
C22	C	1.606856	0.551180	-0.231195
N23	N	1.514315	0.178800	-0.001540
N24	N	1.550462	0.207750	-0.439408
C25	C	1.460612	0.135393	0.529810
C26	C	1.467907	0.141286	0.441354
C27	C	1.565047	0.219543	0.383684
C28	C	1.654906	0.291903	0.414472
C29	C	1.647615	0.286003	0.502924
C30	C	1.596882	0.245260	0.117700
C31	C	1.604164	0.251157	0.029242
C32	C	1.417166	0.100538	0.056131
C33	C	1.409880	0.094650	0.144585
C34	C	1.499742	0.167005	0.175364
N35	N	1.572504	0.225572	0.293269
N36	N	1.492290	0.160969	0.265777
H37	H	1.102879	0.187182	-0.097092
N38	N	1.377713	-0.431916	-0.198222
H39	H	1.329844	-0.407847	-0.139859
H40	H	1.338547	-0.400933	-0.244093
H41	H	0.961897	0.199393	-0.343857
H42	H	1.330779	0.030923	0.191535
N43	N	1.320265	0.022486	0.022928
H44	H	1.257624	-0.027987	0.072884
H45	H	1.273473	0.076915	-0.006587
H46	H	1.394745	0.082362	0.416296
N47	N	1.744517	0.364056	0.536128
H48	H	1.725161	0.348443	0.600912
H49	H	1.832359	0.342706	0.508197
N50	N	1.744383	-0.393562	-0.250987
H51	H	1.749388	-0.301496	-0.251706
H52	H	1.783570	-0.424622	-0.205150
N53	N	1.355838	0.050987	0.592008
H54	H	1.300031	0.006040	0.559081
H55	H	1.394486	-0.010009	0.622691
N56	N	1.320395	-0.219885	-0.189983
H57	H	1.315394	-0.311950	-0.189266
H58	H	1.272602	-0.195725	-0.131630
N59	N	1.708934	0.335576	-0.032962
H60	H	1.764756	0.380518	-0.000043
H61	H	1.761765	0.286038	-0.076853
N62	N	1.693848	0.323239	0.150885
H63	H	1.756501	0.373692	0.100925
H64	H	1.649223	0.379358	0.193614
H65	H	1.734004	0.355616	0.367508
H66	H	0.900305	0.184764	-0.139900
N67	N	1.687040	-0.181535	-0.242716
H68	H	1.692041	-0.089470	-0.243430
H69	H	1.726208	-0.212601	-0.196871
N70	N	1.183672	0.203758	-0.323827
H71	H	1.276658	0.206243	-0.325639
H72	H	1.156476	0.129868	-0.352988
