data_functionalizedCrystal
_audit_creation_method	'MofGen! by Chris Wilmer'
_symmetry_space_group_name_H-M	'P1'
_symmetry_Int_Tables_number	1
_symmetry_cell_setting	triclinic
loop_
_symmetry_equiv_pos_as_xyz
  x,y,z
_cell_length_a	18.215407
_cell_length_b	15.297327
_cell_length_c	18.215399
_cell_angle_alpha	99.648308
_cell_angle_beta	89.980167
_cell_angle_gamma	99.707397
loop_
_atom_site_label
_atom_site_type_symbol
_atom_site_fract_x
_atom_site_fract_y
_atom_site_fract_z
Zn1	Zn	1.074360	-0.359166	-0.466794
Zn2	Zn	1.407693	-0.025833	-0.133461
Zn3	Zn	1.741026	0.307501	0.199873
Zn4	Zn	1.052966	-0.510038	-0.365016
Zn5	Zn	1.386299	-0.176705	-0.031683
Zn6	Zn	1.719632	0.156629	0.301651
Zn7	Zn	0.951288	-0.359195	-0.343746
Zn8	Zn	1.284621	-0.025862	-0.010412
Zn9	Zn	1.617955	0.307471	0.322921
Zn10	Zn	0.929963	-0.509988	-0.488034
Zn11	Zn	1.263296	-0.176655	-0.154700
Zn12	Zn	1.596629	0.156679	0.178633
O13	O	1.002144	-0.434597	-0.415897
O14	O	1.335477	-0.101263	-0.082564
O15	O	1.668811	0.232070	0.250769
O16	O	1.174505	-0.379188	-0.453306
O17	O	1.507838	-0.045855	-0.119973
O18	O	1.841171	0.287479	0.213361
O19	O	1.039449	-0.490062	-0.259215
O20	O	1.372782	-0.156729	0.074119
O21	O	1.706116	0.176605	0.407452
O22	O	0.985492	-0.232944	-0.342278
O23	O	1.318825	0.100390	-0.008944
O24	O	1.652158	0.433723	0.324389
O25	O	1.158787	-0.490033	-0.378530
O26	O	1.492120	-0.156700	-0.045196
O27	O	1.825453	0.176633	0.288137
O28	O	1.075912	-0.232922	-0.432681
O29	O	1.409245	0.100411	-0.099348
O30	O	1.742579	0.433745	0.233986
O31	O	0.964747	-0.379238	-0.243588
O32	O	1.298080	-0.045905	0.089746
O33	O	1.631414	0.287428	0.423079
O34	O	0.845476	-0.379190	-0.362873
O35	O	1.178809	-0.045856	-0.029540
O36	O	1.512143	0.287477	0.303794
O37	O	0.949146	-0.489948	-0.588196
O38	O	1.282479	-0.156614	-0.254863
O39	O	1.615813	0.176719	0.078471
O40	O	0.829808	-0.489976	-0.468881
O41	O	1.163142	-0.156643	-0.135547
O42	O	1.496475	0.176690	0.197786
O43	O	1.055234	-0.379139	-0.572591
O44	O	1.388567	-0.045806	-0.239258
O45	O	1.721900	0.287527	0.094075
O46	O	1.018771	-0.636279	-0.399125
O47	O	1.352104	-0.302946	-0.065792
O48	O	1.685437	0.030388	0.267542
O49	O	0.928401	-0.636242	-0.489506
O50	O	1.261734	-0.302909	-0.156172
O51	O	1.595068	0.030424	0.177161
C52	C	0.810940	-0.434581	-0.415874
C53	C	1.144273	-0.101248	-0.082541
C54	C	1.477606	0.232085	0.250793
C55	C	0.729139	-0.434597	-0.415885
C56	C	1.062472	-0.101263	-0.082551
C57	C	1.395805	0.232070	0.250782
C58	C	0.968970	-0.668995	-0.448944
C59	C	1.302304	-0.335662	-0.115611
C60	C	1.635637	-0.002329	0.217722
C61	C	0.954846	-0.769272	-0.463106
C62	C	1.288179	-0.435939	-0.129773
C63	C	1.621512	-0.102605	0.203560
C64	C	0.532793	-0.492374	-0.471037
C65	C	0.866127	-0.159040	-0.137703
C66	C	1.199460	0.174293	0.195630
C67	C	0.455934	-0.492377	-0.471046
C68	C	0.789267	-0.159043	-0.137713
C69	C	1.122601	0.174290	0.195620
C70	C	0.472244	-0.376836	-0.360776
C71	C	0.805578	-0.043503	-0.027443
C72	C	1.138911	0.289830	0.305890
C73	C	0.549103	-0.376830	-0.360771
C74	C	0.882436	-0.043496	-0.027437
C75	C	1.215769	0.289837	0.305896
C76	C	0.579374	-0.434603	-0.415900
C77	C	0.912708	-0.101270	-0.082567
C78	C	1.246041	0.232063	0.250766
C79	C	0.425657	-0.434613	-0.415916
C80	C	0.758990	-0.101280	-0.082582
C81	C	1.092324	0.232054	0.250751
C82	C	0.342323	-0.434616	-0.415926
C83	C	0.675656	-0.101282	-0.082592
C84	C	1.008990	0.232051	0.250741
C85	C	0.662714	-0.434600	-0.415891
C86	C	0.996047	-0.101267	-0.082558
C87	C	1.329380	0.232067	0.250775
C88	C	1.103397	-1.051887	-0.314929
C89	C	1.436730	-0.718553	0.018404
C90	C	1.770064	-0.385220	0.351738
C91	C	1.116667	-0.957672	-0.301619
C92	C	1.450001	-0.624338	0.031714
C93	C	1.783334	-0.291005	0.365048
C94	C	1.076213	-0.910567	-0.341990
C95	C	1.409547	-0.577234	-0.008657
C96	C	1.742880	-0.243901	0.324677
C97	C	1.022486	-0.957687	-0.395673
C98	C	1.355820	-0.624353	-0.062339
C99	C	1.689153	-0.291020	0.270994
C100	C	1.009211	-1.051911	-0.408980
C101	C	1.342544	-0.718578	-0.075646
C102	C	1.675877	-0.385244	0.257687
C103	C	0.982027	-0.910591	-0.436041
C104	C	1.315360	-0.577258	-0.102707
C105	C	1.648694	-0.243925	0.230626
C106	C	0.928300	-0.957711	-0.489723
C107	C	1.261633	-0.624378	-0.156390
C108	C	1.594967	-0.291044	0.176943
C109	C	0.915027	-1.051926	-0.503028
C110	C	1.248360	-0.718593	-0.169695
C111	C	1.581694	-0.385259	0.163638
C112	C	0.955481	-1.099031	-0.462658
C113	C	1.288814	-0.765697	-0.129324
C114	C	1.622148	-0.432364	0.204009
C115	C	0.995303	-0.816367	-0.422734
C116	C	1.328636	-0.483034	-0.089400
C117	C	1.661969	-0.149701	0.243933
C118	C	0.901116	-0.816392	-0.516784
C119	C	1.234450	-0.483058	-0.183451
C120	C	1.567783	-0.149725	0.149882
C121	C	0.887846	-0.910606	-0.530094
C122	C	1.221179	-0.577273	-0.196761
C123	C	1.554513	-0.243940	0.136573
C124	C	1.194095	-0.434613	-0.415921
C125	C	1.527428	-0.101280	-0.082588
C126	C	1.860761	0.232054	0.250745
C127	C	1.275892	-0.434620	-0.415931
C128	C	1.609226	-0.101287	-0.082598
C129	C	1.942559	0.232047	0.250735
C130	C	1.002198	-0.434535	-0.607842
C131	C	1.335531	-0.101201	-0.274508
C132	C	1.668864	0.232132	0.058825
C133	C	1.002220	-0.434508	-0.689637
C134	C	1.335554	-0.101175	-0.356303
C135	C	1.668887	0.232159	-0.022970
C136	C	1.035467	-0.199283	-0.382738
C137	C	1.368800	0.134050	-0.049404
C138	C	1.702134	0.467384	0.283929
C139	C	1.049667	-0.099006	-0.368607
C140	C	1.383001	0.234327	-0.035273
C141	C	1.716334	0.567660	0.298060
C142	C	1.057485	-0.376756	-0.869699
C143	C	1.390818	-0.043423	-0.536366
C144	C	1.724151	0.289910	-0.203032
C145	C	1.057497	-0.376730	-0.946554
C146	C	1.390831	-0.043397	-0.613221
C147	C	1.724164	0.289937	-0.279887
C148	C	0.947028	-0.492120	-0.962793
C149	C	1.280361	-0.158787	-0.629459
C150	C	1.613694	0.174546	-0.296126
C151	C	0.947013	-0.492141	-0.885938
C152	C	1.280346	-0.158808	-0.552605
C153	C	1.613679	0.174525	-0.219272
C154	C	1.002245	-0.434461	-0.839394
C155	C	1.335579	-0.101127	-0.506060
C156	C	1.668912	0.232206	-0.172727
C157	C	1.002273	-0.434413	-0.993103
C158	C	1.335606	-0.101080	-0.659770
C159	C	1.668939	0.232253	-0.326436
C160	C	1.002286	-0.434385	-1.076433
C161	C	1.335619	-0.101052	-0.743100
C162	C	1.668953	0.232281	-0.409766
C163	C	1.002232	-0.434487	-0.756058
C164	C	1.335565	-0.101154	-0.422725
C165	C	1.668898	0.232179	-0.089392
C166	C	1.002142	-0.434594	-0.224691
C167	C	1.335475	-0.101260	0.108643
C168	C	1.668809	0.232073	0.441976
C169	C	1.002298	-0.434366	-0.142860
C170	C	1.335631	-0.101033	0.190473
C171	C	1.668964	0.232301	0.523807
H172	H	0.557438	-0.539415	-0.515928
H173	H	0.890771	-0.206081	-0.182595
H174	H	1.224105	0.127252	0.150738
Br175	Br	0.431156	-0.298433	-0.285961
Br176	Br	0.764489	0.034900	0.047372
Br177	Br	1.097823	0.368234	0.380706
H178	H	0.944681	-1.175748	-0.473493
H179	H	1.278014	-0.842415	-0.140160
H180	H	1.611348	-0.509081	0.193173
Br181	Br	1.132473	-0.298420	-0.987681
Br182	Br	1.465806	0.034914	-0.654347
Br183	Br	1.799140	0.368247	-0.321014
H184	H	1.102457	-0.329786	-0.831804
H185	H	1.435790	0.003547	-0.498470
H186	H	1.769124	0.336880	-0.165137
Br187	Br	1.068214	-0.752431	-0.349880
Br188	Br	1.401547	-0.419097	-0.016546
Br189	Br	1.734881	-0.085764	0.316787
H190	H	0.587032	-0.329780	-0.315871
H191	H	0.920365	0.003553	0.017462
H192	H	1.253698	0.336886	0.350796
Br193	Br	1.158289	-1.115817	-0.260143
Br194	Br	1.491622	-0.782484	0.073190
Br195	Br	1.824955	-0.449150	0.406524
Br196	Br	1.189585	-0.893730	-0.228774
Br197	Br	1.522919	-0.560397	0.104560
Br198	Br	1.856252	-0.227063	0.437893
Br199	Br	0.842107	-1.115873	-0.575878
Br200	Br	1.175440	-0.782539	-0.242545
Br201	Br	1.508773	-0.449206	0.090788
H202	H	0.844101	-0.948985	-0.573803
H203	H	1.177434	-0.615651	-0.240470
H204	H	1.510767	-0.282318	0.092864
Br205	Br	0.846204	-0.752472	-0.571570
Br206	Br	1.179537	-0.419139	-0.238236
Br207	Br	1.512870	-0.085805	0.095097
Br208	Br	0.872075	-0.570401	-1.025965
Br209	Br	1.205408	-0.237067	-0.692632
Br210	Br	1.538742	0.096266	-0.359298
Br211	Br	0.392719	-0.570779	-0.545880
Br212	Br	0.726053	-0.237445	-0.212547
Br213	Br	1.059386	0.095888	0.120786
Br214	Br	0.872034	-0.570452	-0.844804
Br215	Br	1.205367	-0.237119	-0.511471
Br216	Br	1.538700	0.096214	-0.178138
H217	H	1.087021	-0.833853	-0.331149
H218	H	1.420354	-0.500520	0.002184
H219	H	1.753687	-0.167187	0.335518
