data_functionalizedCrystal
_audit_creation_method	'MofGen! by Chris Wilmer'
_symmetry_space_group_name_H-M	'P1'
_symmetry_Int_Tables_number	1
_symmetry_cell_setting	triclinic
loop_
_symmetry_equiv_pos_as_xyz
  x,y,z
_cell_length_a	17.699083
_cell_length_b	10.268362
_cell_length_c	17.699083
_cell_angle_alpha	90.006174
_cell_angle_beta	83.283015
_cell_angle_gamma	89.998556
loop_
_atom_site_label
_atom_site_type_symbol
_atom_site_fract_x
_atom_site_fract_y
_atom_site_fract_z
O1	O	1.004076	0.108120	0.095712
O2	O	0.783697	0.108163	0.108164
O3	O	0.900113	0.108129	-0.008251
O4	O	0.887660	0.108154	0.212127
O5	O	0.900103	-0.108472	-0.008256
O6	O	0.783687	-0.108437	0.108160
O7	O	1.004066	-0.108480	0.095707
Cu8	Cu	0.893876	-0.128236	0.101933
Cu9	Cu	0.893888	0.127919	0.101938
O10	O	0.887650	-0.108446	0.212122
C11	C	0.755495	-0.000132	0.107716
C12	C	0.671477	-0.000116	0.106377
N13	N	0.893873	-0.308402	0.101928
C14	C	0.622856	-0.000108	0.174710
C15	C	0.543913	-0.000125	0.173448
C16	C	0.513592	-0.000140	0.103852
C17	C	0.562219	-0.000152	0.035513
C18	C	0.641161	-0.000144	0.036776
C19	C	0.243856	-0.000184	0.030418
C20	C	0.164908	-0.000188	0.029160
C21	C	0.146608	-0.000166	0.167090
C22	C	0.225550	-0.000158	0.168353
C23	C	0.274170	-0.000176	0.100015
C24	C	0.359769	-0.000160	0.101384
C25	C	0.427995	-0.000147	0.102481
C26	C	0.893884	-0.574073	0.101937
C27	C	0.893875	-0.426235	0.101934
C28	C	1.032268	-0.000183	0.096156
C29	C	1.116286	-0.000190	0.097494
C30	C	0.899662	-0.000171	-0.036451
C31	C	0.898323	-0.000172	-0.120469
N32	N	0.893896	0.308085	0.101937
C33	C	0.966656	-0.000187	-0.169090
C34	C	0.965394	-0.000175	-0.248033
C35	C	0.895798	-0.000157	-0.278354
C36	C	0.827459	-0.000138	-0.229727
C37	C	0.828722	-0.000141	-0.150785
C38	C	0.822364	-0.000127	-0.548090
C39	C	0.821106	-0.000128	-0.627038
C40	C	0.959036	-0.000161	-0.645338
C41	C	0.960299	-0.000163	-0.566396
C42	C	0.891961	-0.000138	-0.517776
C43	C	0.893330	-0.000148	-0.432177
C44	C	0.894427	-0.000156	-0.363951
C45	C	0.888102	-0.000143	0.240322
C46	C	0.889440	-0.000134	0.324340
H47	H	0.647537	-0.000095	0.231384
H48	H	0.504328	-0.000118	0.229092
H49	H	0.107012	-0.000158	0.222734
H50	H	0.764429	-0.000116	-0.651721
C51	C	0.747194	-0.000126	-0.494614
C52	C	0.670641	-0.000129	-0.527969
C53	C	0.595467	-0.000138	-0.474489
C54	C	0.596845	-0.000144	-0.387655
C55	C	0.673401	-0.000142	-0.354296
C56	C	0.748575	-0.000133	-0.407775
H57	H	0.669618	-0.000124	-0.592253
H58	H	0.538796	-0.000139	-0.499184
H59	H	0.541197	-0.000151	-0.348066
H60	H	0.674423	-0.000147	-0.290012
H61	H	0.805246	-0.000131	-0.383080
H62	H	0.283434	-0.000200	-0.025228
H63	H	0.537526	-0.000183	-0.021154
C64	C	1.040562	-0.000207	-0.301516
C65	C	1.039180	-0.000203	-0.388350
C66	C	1.114351	-0.000238	-0.441833
C67	C	1.190906	-0.000277	-0.408483
C68	C	1.192292	-0.000282	-0.321645
C69	C	1.117120	-0.000247	-0.268161
H70	H	0.982507	-0.000173	-0.413042
H71	H	1.113325	-0.000234	-0.506117
H72	H	1.246552	-0.000303	-0.448075
H73	H	1.248964	-0.000311	-0.296953
H74	H	1.118146	-0.000251	-0.203878
H75	H	0.250232	-0.000140	0.225025
H76	H	0.680748	-0.000149	-0.018868
H77	H	0.140225	-0.000202	-0.027517
H78	H	1.016971	-0.000184	-0.541714
H79	H	1.023330	-0.000209	-0.144409
H80	H	1.014680	-0.000175	-0.684934
H81	H	0.770792	-0.000116	-0.254420
H82	H	0.773078	-0.000128	-0.111198
