data_functionalizedCrystal
_audit_creation_method	'MofGen! by Chris Wilmer'
_symmetry_space_group_name_H-M	'P1'
_symmetry_Int_Tables_number	1
_symmetry_cell_setting	triclinic
loop_
_symmetry_equiv_pos_as_xyz
  x,y,z
_cell_length_a	13.897449
_cell_length_b	13.897448
_cell_length_c	13.897441
_cell_angle_alpha	89.971988
_cell_angle_beta	89.973931
_cell_angle_gamma	90.019497
loop_
_atom_site_label
_atom_site_type_symbol
_atom_site_fract_x
_atom_site_fract_y
_atom_site_fract_z
Zn1	Zn	-1.474690	0.383986	0.545536
Zn2	Zn	-1.474579	0.545308	0.384244
Zn3	Zn	-1.313379	0.384028	0.384239
Zn4	Zn	-1.313356	0.545240	0.545482
O5	O	-1.394001	0.464641	0.464875
O6	O	-1.609657	0.405396	0.524165
O7	O	-1.453159	0.523959	0.249262
O8	O	-1.334834	0.249041	0.405656
O9	O	-1.609575	0.523918	0.405665
O10	O	-1.453348	0.249010	0.524160
O11	O	-1.334726	0.405468	0.249258
O12	O	-1.178394	0.405403	0.405604
O13	O	-1.334794	0.523804	0.680471
O14	O	-1.178377	0.523845	0.524068
O15	O	-1.453325	0.405331	0.680510
O16	O	-1.453136	0.680280	0.405613
O17	O	-1.334686	0.680231	0.524073
C18	C	-1.143387	0.464622	0.464830
C19	C	-1.036173	0.464637	0.464834
C20	C	-0.949103	0.464639	0.464846
C21	C	-0.839870	0.464644	0.464870
C22	C	-1.393922	0.715255	0.464859
C23	C	-1.393977	0.822469	0.464884
C24	C	-0.645594	0.464656	0.464910
C25	C	-0.752808	0.464653	0.464894
C26	C	-1.394072	1.018764	0.464953
C27	C	-1.394016	0.909531	0.464918
C28	C	-1.394069	0.464555	0.716469
C29	C	-1.394099	0.464519	0.823683
C30	C	-1.394098	1.213048	0.464925
C31	C	-1.394118	1.105834	0.464974
C32	C	-1.393988	0.464656	0.214261
C33	C	-1.394146	0.464420	0.107048
C34	C	-1.394125	0.464454	1.019978
C35	C	-1.394107	0.464493	0.910745
