data_functionalizedCrystal
_audit_creation_method	'MofGen! by Chris Wilmer'
_symmetry_space_group_name_H-M	'P1'
_symmetry_Int_Tables_number	1
_symmetry_cell_setting	triclinic
loop_
_symmetry_equiv_pos_as_xyz
  x,y,z
_cell_length_a	17.699083
_cell_length_b	17.699083
_cell_length_c	16.176319
_cell_angle_alpha	89.992304
_cell_angle_beta	90.006703
_cell_angle_gamma	96.717152
loop_
_atom_site_label
_atom_site_type_symbol
_atom_site_fract_x
_atom_site_fract_y
_atom_site_fract_z
O1	O	-1.004079	0.095710	-0.068734
O2	O	-0.670746	0.429044	0.264599
O3	O	-0.337413	0.762377	0.597932
O4	O	-0.783701	0.108163	-0.068739
O5	O	-0.450367	0.441497	0.264594
O6	O	-0.117034	0.774830	0.597928
O7	O	-0.900116	-0.008252	-0.068729
O8	O	-0.566783	0.325081	0.264604
O9	O	-0.233449	0.658414	0.597937
O10	O	-0.887664	0.212126	-0.068744
O11	O	-0.554330	0.545459	0.264589
O12	O	-0.220997	0.878793	0.597923
O13	O	-0.900100	-0.008260	0.068764
O14	O	-0.566767	0.325073	0.402097
O15	O	-0.233434	0.658407	0.735431
O16	O	-0.783685	0.108156	0.068754
O17	O	-0.450351	0.441489	0.402087
O18	O	-0.117018	0.774823	0.735421
O19	O	-1.004063	0.095703	0.068759
O20	O	-0.670730	0.429036	0.402092
O21	O	-0.337397	0.762369	0.735426
Cu22	Cu	-0.893872	0.101929	0.081311
Cu23	Cu	-0.560539	0.435262	0.414644
Cu24	Cu	-0.227206	0.768595	0.747977
Cu25	Cu	-0.893891	0.101937	-0.081291
Cu26	Cu	-0.560558	0.435271	0.252042
Cu27	Cu	-0.227225	0.768604	0.585376
O28	O	-0.887648	0.212119	0.068749
O29	O	-0.554314	0.545452	0.402082
O30	O	-0.220981	0.878785	0.735416
C31	C	-0.755496	0.107713	0.000007
C32	C	-0.422162	0.441047	0.333340
C33	C	-0.088829	0.774380	0.666674
C34	C	-0.671478	0.106375	0.000005
C35	C	-0.338144	0.439708	0.333339
C36	C	-0.004811	0.773042	0.666672
C37	C	-0.632002	0.105740	0.074954
C38	C	-0.298668	0.439074	0.408287
C39	C	0.034665	0.772407	0.741620
C40	C	-0.553059	0.104471	0.074954
C41	C	-0.219726	0.437804	0.408288
C42	C	0.113607	0.771138	0.741621
C43	C	-0.513594	0.103841	0.000006
C44	C	-0.180260	0.437175	0.333339
C45	C	0.153073	0.770508	0.666673
C46	C	-0.553075	0.104474	-0.074948
C47	C	-0.219742	0.437807	0.258385
C48	C	0.113591	0.771140	0.591718
C49	C	-0.632017	0.105738	-0.074948
C50	C	-0.298684	0.439071	0.258385
C51	C	0.034650	0.772405	0.591719
C52	C	-0.234713	0.099375	-0.074950
C53	C	0.098620	0.432708	0.258383
C54	C	0.431954	0.766041	0.591716
C55	C	-0.155765	0.098113	-0.074945
C56	C	0.177568	0.431446	0.258388
C57	C	0.510901	0.764779	0.591722
C58	C	-0.155755	0.098107	0.074952
C59	C	0.177578	0.431441	0.408285
C60	C	0.510912	0.764774	0.741619
C61	C	-0.234697	0.099372	0.074952
C62	C	0.098637	0.432705	0.408285
C63	C	0.431970	0.766038	0.741619
C64	C	-0.274172	0.100000	-0.000001
C65	C	0.059161	0.433333	0.333332
C66	C	0.392494	0.766667	0.666665
C67	C	-0.359771	0.101375	-0.000001
C68	C	-0.026437	0.434708	0.333332
C69	C	0.306896	0.768042	0.666665
C70	C	-0.427996	0.102472	0.000005
C71	C	-0.094663	0.435805	0.333338
C72	C	0.238671	0.769138	0.666672
C73	C	-0.899662	-0.036453	0.000017
C74	C	-0.566329	0.296880	0.333351
C75	C	-0.232995	0.630213	0.666684
C76	C	-0.898323	-0.120471	0.000018
C77	C	-0.564990	0.212862	0.333351
C78	C	-0.231657	0.546195	0.666684
C79	C	-0.966657	-0.169092	0.000020
C80	C	-0.633323	0.164241	0.333354
C81	C	-0.299990	0.497574	0.666687
C82	C	-0.965395	-0.248036	0.000013
C83	C	-0.632061	0.085298	0.333346
C84	C	-0.298728	0.418631	0.666680
C85	C	-0.895798	-0.278356	0.000009
C86	C	-0.562465	0.054977	0.333342
C87	C	-0.229131	0.388310	0.666676
C88	C	-0.827459	-0.229729	0.000004
C89	C	-0.494126	0.103604	0.333337
C90	C	-0.160793	0.436938	0.666671
C91	C	-0.828722	-0.150787	0.000005
C92	C	-0.495389	0.182546	0.333339
C93	C	-0.162056	0.515879	0.666672
C94	C	-0.822364	-0.548092	-0.000003
C95	C	-0.489031	-0.214759	0.333330
C96	C	-0.155697	0.118575	0.666664
C97	C	-0.821106	-0.627040	-0.000002
C98	C	-0.487773	-0.293707	0.333331
C99	C	-0.154440	0.039627	0.666665
C100	C	-0.959036	-0.645341	0.000005
C101	C	-0.625703	-0.312007	0.333338
C102	C	-0.292370	0.021326	0.666672
C103	C	-0.960299	-0.566399	0.000006
C104	C	-0.626966	-0.233065	0.333340
C105	C	-0.293633	0.100268	0.666673
C106	C	-0.891961	-0.517778	-0.000003
C107	C	-0.558628	-0.184445	0.333330
C108	C	-0.225294	0.148888	0.666663
C109	C	-0.893331	-0.432179	0.000003
C110	C	-0.559997	-0.098846	0.333336
C111	C	-0.226664	0.234488	0.666670
C112	C	-0.894428	-0.363954	0.000009
C113	C	-0.561094	-0.030621	0.333342
C114	C	-0.227761	0.302713	0.666675
C115	C	-0.032269	0.096148	0.000010
C116	C	0.301065	0.429481	0.333344
C117	C	0.634398	0.762815	0.666677
C118	C	-0.116289	0.097472	0.000004
C119	C	0.217045	0.430806	0.333338
C120	C	0.550378	0.764139	0.666671
C121	C	-0.888102	0.240319	0.000001
C122	C	-0.554769	0.573653	0.333334
C123	C	-0.221435	0.906986	0.666667
C124	C	-0.889441	0.324337	-0.000005
C125	C	-0.556107	0.657671	0.333328
C126	C	-0.222774	0.991004	0.666662
N127	N	-0.893865	0.101922	0.195676
N128	N	-0.560531	0.435255	0.529009
N129	N	-0.227198	0.768589	0.862343
N130	N	-0.893905	0.101938	-0.195656
N131	N	-0.560572	0.435271	0.137677
N132	N	-0.227239	0.768605	0.471011
C133	C	-0.945429	0.050394	0.238945
C134	C	-0.612096	0.383727	0.572278
C135	C	-0.278762	0.717061	0.905611
C136	C	-0.945433	0.050393	0.325492
C137	C	-0.612099	0.383727	0.658825
C138	C	-0.278766	0.717060	0.992158
C139	C	-0.893875	0.101925	0.368769
C140	C	-0.560542	0.435258	0.702102
C141	C	-0.227209	0.768591	1.035435
C142	C	-0.842306	0.153455	0.325494
C143	C	-0.508972	0.486788	0.658827
C144	C	-0.175639	0.820122	0.992161
C145	C	-0.842299	0.153452	0.238948
C146	C	-0.508966	0.486785	0.572282
C147	C	-0.175632	0.820118	0.905615
C148	C	-0.842332	0.153469	0.674522
C149	C	-0.508998	0.486803	1.007856
C150	C	-0.175665	0.820136	1.341189
C151	C	-0.842344	0.153470	0.761074
C152	C	-0.509011	0.486803	1.094407
C153	C	-0.175677	0.820137	1.427740
C154	C	-0.945466	0.050411	0.761065
C155	C	-0.612132	0.383744	1.094399
C156	C	-0.278799	0.717078	1.427732
C157	C	-0.945459	0.050408	0.674520
C158	C	-0.612125	0.383741	1.007853
C159	C	-0.278792	0.717074	1.341187
C160	C	-0.893887	0.101935	0.631253
C161	C	-0.560553	0.435268	0.964586
C162	C	-0.227220	0.768602	1.297919
C163	C	-0.893882	0.101934	0.537409
C164	C	-0.560549	0.435267	0.870742
C165	C	-0.227215	0.768601	1.204075
C166	C	-0.893883	0.101930	0.462611
C167	C	-0.560550	0.435263	0.795944
C168	C	-0.227216	0.768596	1.129278
H169	H	-0.123605	0.097592	0.135983
H170	H	0.209728	0.430926	0.469316
H171	H	0.543062	0.764259	0.802650
O172	O	-0.755019	-0.098343	0.000013
O173	O	-0.421686	0.234990	0.333347
O174	O	-0.088352	0.568324	0.666680
H175	H	-0.721708	-0.109102	-0.056023
H176	H	-0.388374	0.224231	0.277310
H177	H	-0.055041	0.557564	0.610644
O178	O	-1.001027	-0.005192	0.192262
O179	O	-0.667694	0.328141	0.525595
O180	O	-0.334360	0.661475	0.858928
H181	H	-1.060013	0.004364	0.208853
H182	H	-0.726680	0.337698	0.542187
H183	H	-0.393347	0.671031	0.875520
O184	O	-0.746037	-0.659745	-0.000005
O185	O	-0.412704	-0.326411	0.333329
O186	O	-0.079370	0.006922	0.666662
H187	H	-0.742177	-0.695276	-0.056039
H188	H	-0.408844	-0.361943	0.277294
H189	H	-0.075511	-0.028609	0.610628
O190	O	-0.113209	0.097422	-0.155793
O191	O	0.220125	0.430755	0.177540
O192	O	0.553458	0.764088	0.510873
H193	H	-0.070404	0.148415	-0.159398
H194	H	0.262930	0.481748	0.173935
H195	H	0.596263	0.815082	0.507268
H196	H	-0.800323	0.195410	0.360735
H197	H	-0.466990	0.528744	0.694068
H198	H	-0.133656	0.862077	1.027402
H199	H	-0.987420	0.008435	0.360721
H200	H	-0.654086	0.341768	0.694054
H201	H	-0.320753	0.675102	1.027387
H202	H	-1.014680	-0.684937	0.000008
H203	H	-0.681347	-0.351604	0.333342
H204	H	-0.348014	-0.018271	0.666675
O205	O	-0.786732	0.209061	0.807743
O206	O	-0.453399	0.542395	1.141077
O207	O	-0.120066	0.875728	1.474410
H208	H	-0.750016	0.177254	0.847200
H209	H	-0.416683	0.510587	1.180533
H210	H	-0.083350	0.843920	1.513866
H211	H	-0.987444	0.008449	0.639286
H212	H	-0.654111	0.341782	0.972620
H213	H	-0.320777	0.675115	1.305953
H214	H	-0.266845	0.099884	-0.135982
H215	H	0.066489	0.433217	0.197351
H216	H	0.399822	0.766550	0.530684
H217	H	-1.016972	-0.541717	0.000014
H218	H	-0.683638	-0.208383	0.333347
H219	H	-0.350305	0.124950	0.666680
O220	O	-0.510514	0.103798	-0.155789
O221	O	-0.177181	0.437131	0.177544
O222	O	0.156152	0.770464	0.510877
H223	H	-0.448987	0.102821	-0.143200
H224	H	-0.115654	0.436155	0.190133
H225	H	0.217679	0.769488	0.523467
O226	O	-0.277266	0.100054	0.155788
O227	O	0.056068	0.433387	0.489121
O228	O	0.389401	0.766720	0.822454
H229	H	-0.306379	0.152200	0.159364
H230	H	0.026954	0.485534	0.492697
H231	H	0.360287	0.818867	0.826031
H232	H	-0.664157	0.106256	-0.135979
H233	H	-0.330824	0.439590	0.197354
H234	H	0.002509	0.772923	0.530688
O235	O	-1.001086	-0.005176	0.807730
O236	O	-0.667753	0.328158	1.141063
O237	O	-0.334420	0.661491	1.474397
H238	H	-0.992427	0.003474	0.875182
H239	H	-0.659094	0.336808	1.208515
H240	H	-0.325760	0.670141	1.541848
O241	O	-0.748660	-0.495655	0.000008
O242	O	-0.415327	-0.162322	0.333341
O243	O	-0.081994	0.171011	0.666675
H244	H	-0.700056	-0.530004	0.000020
H245	H	-0.366723	-0.196671	0.333353
H246	H	-0.033390	0.136662	0.666686
H247	H	-1.021039	-0.287620	0.000017
H248	H	-0.687705	0.045713	0.333350
H249	H	-0.354372	0.379046	0.666684
H250	H	-1.023330	-0.144412	0.000029
H251	H	-0.689997	0.188921	0.333362
H252	H	-0.356664	0.522255	0.666696
O253	O	-0.786713	0.209049	0.627865
O254	O	-0.453380	0.542382	0.961198
O255	O	-0.120047	0.875715	1.294531
H256	H	-0.818499	0.245789	0.588414
H257	H	-0.485165	0.579123	0.921748
H258	H	-0.151832	0.912456	1.255081
H259	H	-0.800309	0.195410	0.203720
H260	H	-0.466976	0.528743	0.537053
H261	H	-0.133642	0.862077	0.870387
H262	H	-0.664128	0.106259	0.135986
H263	H	-0.330795	0.439593	0.469319
H264	H	0.002539	0.772926	0.802652
O265	O	-0.752394	-0.262431	0.000009
O266	O	-0.419061	0.070902	0.333342
O267	O	-0.085727	0.404235	0.666676
H268	H	-0.748526	-0.297961	-0.056025
H269	H	-0.415192	0.035372	0.277309
H270	H	-0.081859	0.368705	0.610642
O271	O	-0.510477	0.103794	0.155791
O272	O	-0.177144	0.437128	0.489124
O273	O	0.156189	0.770461	0.822457
H274	H	-0.551181	0.104457	0.207906
H275	H	-0.217848	0.437790	0.541240
H276	H	0.115486	0.771123	0.874573
