data_functionalizedCrystal
_audit_creation_method	'MofGen! by Chris Wilmer'
_symmetry_space_group_name_H-M	'P1'
_symmetry_Int_Tables_number	1
_symmetry_cell_setting	triclinic
loop_
_symmetry_equiv_pos_as_xyz
  x,y,z
_cell_length_a	11.169417
_cell_length_b	12.759399
_cell_length_c	11.169409
_cell_angle_alpha	89.965848
_cell_angle_beta	89.979436
_cell_angle_gamma	90.015995
loop_
_atom_site_label
_atom_site_type_symbol
_atom_site_fract_x
_atom_site_fract_y
_atom_site_fract_z
Zn1	Zn	1.834931	-0.418157	-0.678527
Zn2	Zn	1.834801	-0.593883	-0.477837
Zn3	Zn	1.634215	-0.418221	-0.477861
Zn4	Zn	1.634208	-0.593797	-0.678482
O5	O	1.734539	-0.506015	-0.578177
O6	O	2.002864	-0.441477	-0.651914
O7	O	1.808141	-0.570643	-0.309891
O8	O	1.660897	-0.271192	-0.504509
O9	O	2.002768	-0.570581	-0.504468
O10	O	1.808363	-0.271145	-0.651937
O11	O	1.660771	-0.441585	-0.309908
O12	O	1.466264	-0.441503	-0.504466
O13	O	1.660886	-0.570436	-0.846438
O14	O	1.466259	-0.570498	-0.651861
O15	O	1.808356	-0.441394	-0.846471
O16	O	1.808135	-0.740892	-0.504425
O17	O	1.660760	-0.740830	-0.651838
C18	C	1.422714	-0.505999	-0.578162
C19	C	1.289314	-0.506017	-0.578184
C20	C	1.734465	-0.778982	-0.578150
C21	C	1.734544	-0.895759	-0.578178
C22	C	1.811369	-0.950618	-0.501508
C23	C	1.811446	-1.060342	-0.501548
C24	C	1.657862	-1.060337	-0.654933
C25	C	1.657791	-0.950615	-0.654898
C26	C	1.953107	-1.210221	-0.458834
C27	C	2.029922	-1.265085	-0.382145
C28	C	2.048383	-1.229550	-0.265042
C29	C	1.990012	-1.139154	-0.224604
C30	C	1.913187	-1.084296	-0.301287
C31	C	1.894749	-1.119829	-0.418407
C32	C	1.516129	-0.800734	-0.697599
C33	C	1.439298	-0.745875	-0.774277
C34	C	1.420825	-0.781407	-0.891382
C35	C	1.479175	-0.871807	-0.931815
C36	C	1.556006	-0.926667	-0.855137
C37	C	1.574482	-0.891126	-0.738033
C38	C	2.047581	-0.506031	-0.578193
C39	C	2.180981	-0.506038	-0.578200
C40	C	1.734635	-0.505898	-0.891220
C41	C	1.734676	-0.505849	-1.024620
C42	C	1.734645	-0.231981	-0.578231
C43	C	1.734691	-0.115205	-0.578254
C44	C	1.734512	-0.506055	-0.266352
C45	C	1.734703	-0.505808	-0.132953
H46	H	1.873867	-0.905957	-0.439040
N47	N	2.092895	-1.362572	-0.425751
H48	H	2.068927	-1.424175	-0.374212
H49	H	2.069539	-1.376665	-0.511591
N50	N	1.933200	-1.248541	-0.585147
H51	H	2.012020	-1.249589	-0.629476
H52	H	1.898521	-1.321625	-0.582895
N53	N	1.459246	-0.910139	-1.058121
H54	H	1.484986	-0.854157	-1.116696
H55	H	1.507865	-0.975747	-1.071990
H56	H	1.865665	-1.010696	-0.268364
H57	H	2.005040	-1.110235	-0.129242
H58	H	1.358259	-0.736731	-0.953811
N59	N	2.131194	-1.288744	-0.182309
H60	H	2.165354	-1.351407	-0.225687
H61	H	2.198537	-1.241155	-0.156141
H62	H	1.603523	-1.000272	-0.888070
H63	H	1.391793	-0.672262	-0.741348
H64	H	1.595371	-1.105015	-0.717393
H65	H	1.531174	-0.771789	-0.602245
