data_functionalizedCrystal
_audit_creation_method	'MofGen! by Chris Wilmer'
_symmetry_space_group_name_H-M	'P1'
_symmetry_Int_Tables_number	1
_symmetry_cell_setting	triclinic
loop_
_symmetry_equiv_pos_as_xyz
  x,y,z
_cell_length_a	10.540539
_cell_length_b	23.532357
_cell_length_c	9.016244
_cell_angle_alpha	89.992217
_cell_angle_beta	89.994699
_cell_angle_gamma	83.676892
loop_
_atom_site_label
_atom_site_type_symbol
_atom_site_fract_x
_atom_site_fract_y
_atom_site_fract_z
O1	O	1.683227	0.080253	-0.123291
O2	O	1.313563	0.087815	-0.123311
O3	O	1.509575	0.001174	-0.123270
O4	O	1.487215	0.166894	-0.123332
O5	O	1.509547	0.001176	0.123411
O6	O	1.313535	0.087816	0.123370
O7	O	1.683199	0.080255	0.123390
Cu8	Cu	1.498364	0.084036	0.145904
Cu9	Cu	1.498398	0.084034	-0.145825
O10	O	1.487186	0.166895	0.123349
C11	C	1.266265	0.087248	0.000027
C12	C	1.125373	0.085552	0.000021
C13	C	0.944106	0.020542	0.000621
C14	C	1.090667	0.022261	0.000049
C15	C	1.062705	0.116009	-0.140852
C16	C	0.916232	0.113849	-0.140954
C17	C	0.915669	0.115138	0.139568
C18	C	1.062631	0.115721	0.141414
C19	C	1.509002	-0.020045	0.000075
C20	C	1.507320	-0.083275	0.000089
C21	C	1.496779	-0.475357	-0.134457
C22	C	1.495181	-0.534767	-0.134466
O23	O	1.494324	-0.565490	-0.248824
N24	N	1.494372	-0.564483	-0.000002
C25	C	1.495150	-0.534784	0.134479
O26	O	1.494314	-0.565515	0.248850
C27	C	1.496739	-0.475375	0.134486
C28	C	1.497560	-0.445663	0.000014
C29	C	1.497599	-0.445645	-0.268919
C30	C	1.499200	-0.386240	-0.268910
C31	C	1.499981	-0.356546	-0.134439
C32	C	1.499161	-0.386257	0.000023
C33	C	1.497507	-0.445677	0.268966
C34	C	1.499096	-0.386263	0.268961
C35	C	1.499917	-0.356552	0.134489
C36	C	1.501543	-0.297158	0.134503
N37	N	1.502351	-0.267442	0.000039
C38	C	1.501570	-0.297136	-0.134432
C39	C	1.491810	-0.659548	0.134454
C40	C	1.490230	-0.718957	0.134449
C41	C	1.490258	-0.718935	-0.134497
C42	C	1.491847	-0.659526	-0.134490
C43	C	1.492618	-0.629832	-0.000010
C44	C	1.504933	-0.172380	-0.134403
C45	C	1.506539	-0.112969	-0.134382
C46	C	1.506504	-0.112995	0.134563
C47	C	1.504905	-0.172401	0.134543
C48	C	1.504115	-0.202092	0.000048
O49	O	1.502395	-0.266397	0.248802
O50	O	1.502389	-0.266398	-0.248784
C51	C	1.730497	0.080821	0.000049
C52	C	1.871389	0.082517	0.000045
C53	C	1.487760	0.188115	0.000001
C54	C	1.489442	0.251344	-0.000023
N55	N	1.498350	0.084037	0.351090
N56	N	1.498422	0.084028	-0.351011
C57	C	1.393184	0.130229	0.586101
C58	C	1.393408	0.130402	0.414210
C59	C	1.630624	0.097555	0.413430
C60	C	1.630047	0.097882	0.585374
C61	C	1.472564	0.024176	0.585654
C62	C	1.469506	0.024564	0.413700
H63	H	1.133225	-0.001874	-0.101092
H64	H	1.489618	-0.743123	-0.243990
O65	O	1.347613	0.007141	0.643139
H66	H	1.302543	0.041148	0.717501
H67	H	1.496841	-0.469858	0.378468
O68	O	1.117832	0.086243	0.279466
H69	H	1.072997	0.107815	0.378900
O70	O	1.492660	-0.627524	0.279511
H71	H	1.579905	-0.605182	0.285947
O72	O	1.120039	0.087981	-0.279715
H73	H	1.193151	0.052365	-0.248754
O74	O	1.092689	0.176843	0.152682
H75	H	1.153075	0.186718	0.057246
H76	H	1.499863	-0.362054	-0.378411
O77	O	1.660384	0.155722	0.638463
H78	H	1.660281	0.156529	0.761550
O79	O	1.415159	0.189220	0.359669
H80	H	1.503354	0.186221	0.291538
O81	O	0.907325	-0.012578	0.134447
H82	H	0.864576	-0.051218	0.097367
O83	O	1.507351	-0.080963	0.279597
H84	H	1.421548	-0.049172	0.286018
H85	H	0.914737	-0.004357	-0.099826
H86	H	0.866923	0.160853	0.140503
O87	O	1.661706	0.154743	0.356360
H88	H	1.755446	0.163823	0.401200
O89	O	1.564503	-0.023172	0.356812
H90	H	1.615760	-0.045106	0.451907
H91	H	0.888782	0.091337	-0.246240
H92	H	1.294525	0.122220	0.627492
O93	O	1.574215	-0.021380	0.639532
H94	H	1.642831	-0.001527	0.711071
H95	H	1.372208	0.014318	0.372957
O96	O	1.507407	-0.080921	-0.279424
H97	H	1.506577	-0.111553	-0.372928
H98	H	1.134065	-0.001703	0.101034
H99	H	1.409384	0.174382	0.629278
O100	O	1.504045	-0.204445	0.279589
H101	H	1.589845	-0.236238	0.286029
H102	H	0.866752	0.159366	-0.147364
H103	H	1.710762	0.065587	0.626973
H104	H	1.083515	0.162487	-0.146110
O105	O	1.504070	-0.204399	-0.279460
H106	H	1.504914	-0.173751	-0.372946
O107	O	0.874800	0.088005	0.281020
H108	H	0.822464	0.050962	0.253451
H109	H	1.496958	-0.469816	-0.378427
H110	H	1.295061	0.122268	0.372064
H111	H	1.710766	0.064823	0.372541
H112	H	1.489580	-0.743144	0.243950
O113	O	1.492711	-0.627479	-0.279524
H114	H	1.491891	-0.658114	-0.373023
O115	O	1.499943	-0.354236	0.414010
H116	H	1.499117	-0.384882	0.507504
