data_functionalizedCrystal
_audit_creation_method	'MofGen! by Chris Wilmer'
_symmetry_space_group_name_H-M	'P1'
_symmetry_Int_Tables_number	1
_symmetry_cell_setting	triclinic
loop_
_symmetry_equiv_pos_as_xyz
  x,y,z
_cell_length_a	19.121063
_cell_length_b	18.050591
_cell_length_c	18.050582
_cell_angle_alpha	90.023995
_cell_angle_beta	92.415032
_cell_angle_gamma	87.537533
loop_
_atom_site_label
_atom_site_type_symbol
_atom_site_fract_x
_atom_site_fract_y
_atom_site_fract_z
Zn1	Zn	-0.279788	-1.122674	-0.432692
Zn2	Zn	0.053545	-0.789340	-0.099359
Zn3	Zn	0.386879	-0.456007	0.233974
Zn4	Zn	-0.397232	-1.117288	-0.313791
Zn5	Zn	-0.063898	-0.783954	0.019542
Zn6	Zn	0.269435	-0.450621	0.352875
Zn7	Zn	-0.279785	-0.998493	-0.308497
Zn8	Zn	0.053549	-0.665160	0.024837
Zn9	Zn	0.386882	-0.331827	0.358170
Zn10	Zn	-0.397189	-0.993146	-0.437918
Zn11	Zn	-0.063855	-0.659813	-0.104585
Zn12	Zn	0.269478	-0.326479	0.228748
O13	O	-0.338498	-1.057900	-0.373225
O14	O	-0.005165	-0.724567	-0.039891
O15	O	0.328168	-0.391234	0.293442
O16	O	-0.295387	-1.225883	-0.416949
O17	O	0.037947	-0.892550	-0.083615
O18	O	0.371280	-0.559216	0.249718
O19	O	-0.381669	-1.101513	-0.209165
O20	O	-0.048336	-0.768180	0.124168
O21	O	0.284998	-0.434846	0.457502
O22	O	-0.181501	-1.019458	-0.320569
O23	O	0.151833	-0.686125	0.012765
O24	O	0.485166	-0.352791	0.346098
O25	O	-0.381672	-1.221926	-0.329593
O26	O	-0.048339	-0.888593	0.003741
O27	O	0.284995	-0.555259	0.337074
O28	O	-0.181503	-1.110693	-0.411815
O29	O	0.151830	-0.777360	-0.078481
O30	O	0.485164	-0.444026	0.254852
O31	O	-0.295381	-1.014235	-0.205275
O32	O	0.037952	-0.680902	0.128058
O33	O	0.371286	-0.347569	0.461392
O34	O	-0.295339	-0.893860	-0.325636
O35	O	0.037994	-0.560527	0.007697
O36	O	0.371327	-0.227194	0.341031
O37	O	-0.381598	-1.010345	-0.541149
O38	O	-0.048265	-0.677011	-0.207816
O39	O	0.285068	-0.343678	0.125518
O40	O	-0.381595	-0.889932	-0.420721
O41	O	-0.048262	-0.556598	-0.087388
O42	O	0.285071	-0.223265	0.245945
O43	O	-0.295345	-1.105508	-0.537309
O44	O	0.037989	-0.772175	-0.203976
O45	O	0.371322	-0.438841	0.129357
O46	O	-0.495511	-1.096328	-0.334660
O47	O	-0.162177	-0.762995	-0.001327
O48	O	0.171156	-0.429662	0.332007
O49	O	-0.495479	-1.005122	-0.425855
O50	O	-0.162146	-0.671789	-0.092522
O51	O	0.171188	-0.338455	0.240811
C52	C	-0.338463	-0.864950	-0.373172
C53	C	-0.005129	-0.531616	-0.039838
C54	C	0.328204	-0.198283	0.293495
C55	C	-0.338465	-0.782404	-0.373167
C56	C	-0.005131	-0.449070	-0.039834
C57	C	0.328202	-0.115737	0.293499
C58	C	-0.520979	-1.049581	-0.381416
C59	C	-0.187645	-0.716247	-0.048082
C60	C	0.145688	-0.382914	0.285251
C61	C	-0.599045	-1.046089	-0.384944
C62	C	-0.265711	-0.712756	-0.051611
C63	C	0.067622	-0.379423	0.281722
C64	C	-0.291494	-0.585071	-0.321561
C65	C	0.041839	-0.251737	0.011773
C66	C	0.375172	0.081596	0.345106
C67	C	-0.355552	-0.532762	-0.306167
C68	C	-0.022219	-0.199429	0.027167
C69	C	0.311115	0.133905	0.360500
C70	C	-0.338479	-0.631273	-0.373193
C71	C	-0.005145	-0.297940	-0.039860
C72	C	0.328188	0.035394	0.293473
C73	C	-0.274436	-0.536499	-0.388578
C74	C	0.058897	-0.203166	-0.055245
C75	C	0.392230	0.130167	0.278088
C76	C	-0.338486	-0.485287	-0.373217
C77	C	-0.005153	-0.151954	-0.039884
C78	C	0.328180	0.181379	0.293450
C79	C	-0.402570	-0.580050	-0.357766
C80	C	-0.069236	-0.246716	-0.024432
C81	C	0.264097	0.086617	0.308901
C82	C	-0.321411	-0.583793	-0.440207
C83	C	0.011922	-0.250460	-0.106874
C84	C	0.345256	0.082873	0.226460
C85	C	-0.385513	-0.531505	-0.424841
C86	C	-0.052179	-0.198171	-0.091507
C87	C	0.281154	0.135162	0.241826
C88	C	-0.338473	-0.715371	-0.373178
C89	C	-0.005140	-0.382038	-0.039845
C90	C	0.328194	-0.048705	0.293489
C91	C	-0.338499	-0.401190	-0.373233
C92	C	-0.005166	-0.067857	-0.039900
C93	C	0.328167	0.265476	0.293434
C94	C	-0.635713	-1.091972	-0.339161
C95	C	-0.302380	-0.758639	-0.005828
C96	C	0.030953	-0.425306	0.327506
C97	C	-0.709065	-1.088693	-0.342484
C98	C	-0.375731	-0.755360	-0.009151
C99	C	-0.042398	-0.422026	0.324182
C100	C	-0.745746	-1.039527	-0.391588
C101	C	-0.412413	-0.706193	-0.058254
C102	C	-0.079079	-0.372860	0.275079
C103	C	-0.709072	-0.993642	-0.437376
C104	C	-0.375739	-0.660309	-0.104043
C105	C	-0.042405	-0.326975	0.229290
C106	C	-0.635722	-0.996925	-0.434056
C107	C	-0.302389	-0.663592	-0.100723
C108	C	0.030945	-0.330259	0.232611
C109	C	-0.967215	-1.027239	-0.403989
C110	C	-0.633882	-0.693906	-0.070656
C111	C	-0.300549	-0.360572	0.262677
C112	C	-1.040571	-1.023958	-0.407304
C113	C	-0.707237	-0.690624	-0.073971
C114	C	-0.373904	-0.357291	0.259362
C115	C	-1.040558	-1.119010	-0.312413
C116	C	-0.707225	-0.785677	0.020920
C117	C	-0.373891	-0.452343	0.354254
C118	C	-0.967207	-1.122286	-0.309094
C119	C	-0.633874	-0.788953	0.024239
C120	C	-0.300540	-0.455619	0.357572
C121	C	-0.930539	-1.076404	-0.354885
C122	C	-0.597206	-0.743071	-0.021552
C123	C	-0.263873	-0.409737	0.311781
C124	C	-0.820723	-1.036172	-0.394984
C125	C	-0.487389	-0.702839	-0.061651
C126	C	-0.154056	-0.369506	0.271682
C127	C	-0.855564	-1.079763	-0.351492
C128	C	-0.522231	-0.746429	-0.018159
C129	C	-0.188897	-0.413096	0.315175
C130	C	-0.155305	-1.066273	-0.365018
C131	C	0.178028	-0.732939	-0.031685
C132	C	0.511361	-0.399606	0.301649
C133	C	-0.077239	-1.069840	-0.361521
C134	C	0.256094	-0.736507	-0.028188
C135	C	0.589427	-0.403174	0.305146
C136	C	-0.338467	-1.057931	-0.566929
C137	C	-0.005134	-0.724597	-0.233596
C138	C	0.328200	-0.391264	0.099738
C139	C	-0.338454	-1.057944	-0.649474
C140	C	-0.005121	-0.724610	-0.316141
C141	C	0.328213	-0.391277	0.017193
C142	C	-0.338522	-0.251605	-0.373264
C143	C	-0.005189	0.081729	-0.039931
C144	C	0.328144	0.415062	0.293402
C145	C	-0.338502	-0.334151	-0.373245
C146	C	-0.005168	-0.000818	-0.039912
C147	C	0.328165	0.332515	0.293421
C148	C	-0.385295	-1.006235	-0.851010
C149	C	-0.051961	-0.672901	-0.517677
C150	C	0.281372	-0.339568	-0.184343
C151	C	-0.402471	-1.073215	-0.901186
C152	C	-0.069137	-0.739882	-0.567852
C153	C	0.264196	-0.406549	-0.234519
C154	C	-0.338400	-1.057983	-0.800602
C155	C	-0.005067	-0.724649	-0.467269
C156	C	0.328266	-0.391316	-0.133936
C157	C	-0.321205	-0.991040	-0.897508
C158	C	0.012129	-0.657707	-0.564174
C159	C	0.345462	-0.324374	-0.230841
C160	C	-0.338350	-1.058014	-0.946585
C161	C	-0.005016	-0.724681	-0.613252
C162	C	0.328317	-0.391348	-0.279918
C163	C	-0.355610	-1.124997	-0.849692
C164	C	-0.022277	-0.791664	-0.516359
C165	C	0.311057	-0.458331	-0.183025
C166	C	-0.274314	-1.042778	-0.846008
C167	C	0.059019	-0.709445	-0.512675
C168	C	0.392352	-0.376111	-0.179342
C169	C	-0.291466	-1.109806	-0.896161
C170	C	0.041867	-0.776473	-0.562827
C171	C	0.375201	-0.443140	-0.229494
C172	C	-0.338431	-1.057963	-0.716505
C173	C	-0.005098	-0.724630	-0.383172
C174	C	0.328236	-0.391297	-0.049839
C175	C	-0.338319	-1.058041	-1.030680
C176	C	-0.004986	-0.724708	-0.697347
C177	C	0.328348	-0.391375	-0.364014
C178	C	-0.338479	-1.057915	-0.180272
C179	C	-0.005145	-0.724582	0.153062
C180	C	0.328188	-0.391248	0.486395
C181	C	-0.338294	-1.058055	-0.097718
C182	C	-0.004961	-0.724721	0.235615
C183	C	0.328373	-0.391388	0.568949
H184	H	-0.251807	-0.608518	-0.277856
H185	H	0.081526	-0.275185	0.055477
H186	H	0.414859	0.058148	0.388810
H187	H	-0.456749	-0.599185	-0.344700
H188	H	-0.123416	-0.265851	-0.011367
H189	H	0.209918	0.067482	0.321967
H190	H	-0.370194	-1.181637	-0.828755
H191	H	-0.036861	-0.848304	-0.495422
H192	H	0.296472	-0.514970	-0.162089
H193	H	-0.220280	-0.517234	-0.401556
H194	H	0.113053	-0.183901	-0.068223
H195	H	0.446386	0.149433	0.265111
H196	H	-1.070421	-1.156366	-0.275134
H197	H	-0.737087	-0.823032	0.058200
H198	H	-0.403754	-0.489699	0.391533
Cl199	Cl	-0.299082	-0.618389	-0.527663
Cl200	Cl	0.034251	-0.285056	-0.194330
Cl201	Cl	0.367585	0.048278	0.139004
H202	H	-0.306682	-0.934415	-0.918538
H203	H	0.026652	-0.601081	-0.585205
H204	H	0.359985	-0.267748	-0.251872
Cl205	Cl	-0.921129	-0.969557	-0.461554
Cl206	Cl	-0.587795	-0.636223	-0.128221
Cl207	Cl	-0.254462	-0.302890	0.205112
H208	H	-0.825696	-1.119797	-0.311515
H209	H	-0.492363	-0.786464	0.021819
H210	H	-0.159029	-0.453130	0.355152
H211	H	-0.937343	-1.162321	-0.269110
H212	H	-0.604009	-0.828988	0.064223
H213	H	-0.270676	-0.495654	0.397556
Cl214	Cl	-0.377853	-0.498192	-0.218687
Cl215	Cl	-0.044520	-0.164859	0.114646
Cl216	Cl	0.288813	0.168475	0.447980
Cl217	Cl	-0.446930	-0.495503	-0.492274
Cl218	Cl	-0.113596	-0.162170	-0.158941
Cl219	Cl	0.219737	0.171164	0.174392
Cl220	Cl	-0.589624	-0.939244	-0.491617
Cl221	Cl	-0.256291	-0.605910	-0.158284
Cl222	Cl	0.077043	-0.272577	0.175049
H223	H	-0.605852	-1.132005	-0.299173
H224	H	-0.272519	-0.798672	0.034161
H225	H	0.060814	-0.465339	0.367494
H226	H	-0.456645	-1.086095	-0.925327
H227	H	-0.123312	-0.752761	-0.591993
H228	H	0.210021	-0.419428	-0.258660
H229	H	-0.251787	-1.153630	-0.915917
H230	H	0.081546	-0.820297	-0.582583
H231	H	0.414879	-0.486963	-0.249250
Cl232	Cl	-0.755160	-1.146380	-0.284928
Cl233	Cl	-0.421826	-0.813047	0.048406
Cl234	Cl	-0.088493	-0.479713	0.381739
Cl235	Cl	-1.086683	-0.962134	-0.469029
Cl236	Cl	-0.753350	-0.628801	-0.135696
Cl237	Cl	-0.420017	-0.295467	0.197637
Cl238	Cl	-0.190696	-1.022862	-0.808708
Cl239	Cl	0.142637	-0.689528	-0.475375
Cl240	Cl	0.475971	-0.356195	-0.142042
H241	H	-0.738944	-0.953613	-0.477361
H242	H	-0.405610	-0.620280	-0.144027
H243	H	-0.072277	-0.286946	0.189306
H244	H	-0.850597	-0.996139	-0.434963
H245	H	-0.517263	-0.662806	-0.101630
H246	H	-0.183930	-0.329473	0.231704
H247	H	-0.425003	-0.962510	-0.831119
H248	H	-0.091670	-0.629177	-0.497786
H249	H	0.241663	-0.295843	-0.164452
