data_functionalizedCrystal
_audit_creation_method	'MofGen! by Chris Wilmer'
_symmetry_space_group_name_H-M	'P1'
_symmetry_Int_Tables_number	1
_symmetry_cell_setting	triclinic
loop_
_symmetry_equiv_pos_as_xyz
  x,y,z
_cell_length_a	14.971482
_cell_length_b	19.188930
_cell_length_c	17.666332
_cell_angle_alpha	89.990320
_cell_angle_beta	89.994730
_cell_angle_gamma	83.378695
loop_
_atom_site_label
_atom_site_type_symbol
_atom_site_fract_x
_atom_site_fract_y
_atom_site_fract_z
O1	O	1.186468	0.090974	-0.062947
O2	O	1.686468	0.590974	0.437053
O3	O	0.926010	0.101872	-0.062952
O4	O	1.426010	0.601872	0.437048
O5	O	1.063755	-0.005209	-0.062935
O6	O	1.563755	0.494791	0.437065
O7	O	1.048723	0.198055	-0.062965
O8	O	1.548723	0.698055	0.437035
O9	O	1.063740	-0.005211	0.062962
O10	O	1.563740	0.494789	0.562962
O11	O	0.925994	0.101870	0.062945
O12	O	1.425994	0.601870	0.562945
O13	O	1.186453	0.090971	0.062949
O14	O	1.686453	0.590971	0.562949
Cu15	Cu	1.056222	0.096420	0.074442
Cu16	Cu	1.556222	0.596420	0.574442
Cu17	Cu	1.056240	0.096423	-0.074445
Cu18	Cu	1.556240	0.596423	0.425555
O19	O	1.048707	0.198052	0.062932
O20	O	1.548707	0.698052	0.562932
C21	C	0.892680	0.101384	-0.000004
C22	C	1.392680	0.601384	0.499996
C23	C	0.793390	0.099925	-0.000005
C24	C	1.293390	0.599925	0.499995
C25	C	0.746741	0.099236	0.068622
C26	C	1.246741	0.599236	0.568622
C27	C	0.653450	0.097854	0.068623
C28	C	1.153450	0.597854	0.568623
C29	C	0.606809	0.097165	-0.000004
C30	C	1.106809	0.597165	0.499996
C31	C	0.653465	0.097852	-0.068637
C32	C	1.153465	0.597852	0.431363
C33	C	0.746755	0.099229	-0.068637
C34	C	1.246755	0.599229	0.431363
C35	C	0.459018	0.094983	-0.068631
C36	C	0.959018	0.594983	0.431369
C37	C	0.365721	0.093607	-0.068631
C38	C	0.865721	0.593607	0.431369
C39	C	0.365713	0.093608	0.068629
C40	C	0.865713	0.593608	0.568629
C41	C	0.459003	0.094985	0.068628
C42	C	0.959003	0.594985	0.568628
C43	C	0.505653	0.095673	-0.000005
C44	C	1.005653	0.595673	0.499995
C45	C	1.063261	-0.031222	0.000016
C46	C	1.563261	0.468778	0.500016
C47	C	1.061799	-0.108732	0.000022
C48	C	1.561799	0.391268	0.500022
C49	C	1.142624	-0.153396	0.000027
C50	C	1.642624	0.346604	0.500027
C51	C	1.141251	-0.226224	0.000015
C52	C	1.641251	0.273776	0.500015
C53	C	1.059049	-0.254385	0.000013
C54	C	1.559049	0.245615	0.500013
C55	C	0.978214	-0.209710	0.000004
C56	C	1.478214	0.290290	0.500004
C57	C	0.979589	-0.136884	0.000008
C58	C	1.479589	0.363116	0.500008
N59	N	0.996210	-0.362592	0.042857
N60	N	1.496210	0.137408	0.542857
N61	N	0.994909	-0.431775	0.042854
N62	N	1.494909	0.068225	0.542854
C63	C	1.054901	-0.473807	-0.000002
C64	C	1.554901	0.026193	0.499998
N65	N	1.116256	-0.444043	-0.042847
N66	N	1.616256	0.055957	0.457153
N67	N	1.117559	-0.374855	-0.042840
N68	N	1.617559	0.125145	0.457160
C69	C	1.057549	-0.333352	0.000008
C70	C	1.557549	0.166648	0.500008
C71	C	1.134242	-0.597441	-0.000011
C72	C	1.634242	-0.097441	0.499989
C73	C	1.132866	-0.670270	-0.000028
C74	C	1.632866	-0.170270	0.499972
C75	C	0.969826	-0.653754	-0.000032
C76	C	1.469826	-0.153754	0.499968
C77	C	0.971205	-0.580926	-0.000023
C78	C	1.471205	-0.080926	0.499977
C79	C	1.053415	-0.552774	-0.000009
C80	C	1.553415	-0.052774	0.499991
C81	C	1.219782	0.091459	-0.000000
C82	C	1.719782	0.591459	0.500000
C83	C	1.319072	0.092919	-0.000004
C84	C	1.819072	0.592919	0.499996
C85	C	1.049202	0.224066	-0.000020
C86	C	1.549202	0.724066	0.499980
C87	C	1.050663	0.301575	-0.000032
C88	C	1.550663	0.801575	0.499968
N89	N	1.056216	0.096418	0.179162
N90	N	1.556216	0.596418	0.679162
N91	N	1.056254	0.096420	-0.179165
N92	N	1.556254	0.596420	0.320835
C93	C	1.117249	0.049018	0.781220
C94	C	1.617249	0.549018	1.281220
C95	C	1.117250	0.049020	0.701972
C96	C	1.617250	0.549020	1.201972
C97	C	1.056241	0.096417	0.662343
C98	C	1.556241	0.596417	1.162343
C99	C	0.995241	0.143828	0.701969
C100	C	1.495241	0.643828	1.201969
C101	C	0.995248	0.143830	0.781215
C102	C	1.495248	0.643830	1.281215
N103	N	0.977055	0.105211	0.537929
N104	N	1.477055	0.605211	1.037929
N105	N	0.977052	0.105205	0.462648
N106	N	1.477052	0.605205	0.962648
C107	C	1.056220	0.096416	0.423579
C108	C	1.556220	0.596416	0.923579
N109	N	1.135394	0.087618	0.462635
N110	N	1.635394	0.587618	0.962635
N111	N	1.135396	0.087620	0.537922
N112	N	1.635396	0.587620	1.037922
C113	C	1.056228	0.096421	0.576414
C114	C	1.556228	0.596421	1.076414
C115	C	1.117222	0.049012	0.298034
C116	C	1.617222	0.549012	0.798034
C117	C	1.117225	0.049019	0.218785
C118	C	1.617225	0.549019	0.718785
C119	C	0.995208	0.143824	0.218783
C120	C	1.495208	0.643824	0.718783
C121	C	0.995213	0.143821	0.298031
C122	C	1.495213	0.643821	0.798031
C123	C	1.056219	0.096411	0.337652
C124	C	1.556219	0.596411	0.837652
H125	H	0.496998	0.095544	-0.124519
H126	H	0.996998	0.595544	0.375481
H127	H	0.913770	-0.100517	0.000004
H128	H	1.413770	0.399483	0.500004
H129	H	0.784708	0.099803	0.124506
H130	H	1.284708	0.599803	0.624506
H131	H	0.945537	0.182419	0.186518
H132	H	1.445537	0.682419	0.686518
H133	H	0.902896	-0.676681	-0.000037
H134	H	1.402896	-0.176681	0.499963
H135	H	0.615474	0.097281	0.124506
H136	H	1.115474	0.597281	0.624506
H137	H	0.615484	0.097287	-0.124514
H138	H	1.115484	0.597287	0.375486
H139	H	1.166899	0.010420	0.186529
H140	H	1.666899	0.510420	0.686529
H141	H	1.201183	-0.574518	-0.000004
H142	H	1.701183	-0.074518	0.499996
H143	H	1.207070	-0.262597	0.000016
H144	H	1.707070	0.237403	0.500016
H145	H	0.945568	0.182421	0.669699
H146	H	1.445568	0.682421	1.169699
H147	H	0.327749	0.093047	-0.124513
H148	H	0.827749	0.593047	0.375487
H149	H	1.198686	-0.706636	-0.000028
H150	H	1.698686	-0.206636	0.499972
H151	H	0.911284	-0.232643	0.000000
H152	H	1.411284	0.267357	0.500000
H153	H	0.945541	0.182418	0.330288
H154	H	1.445541	0.682418	0.830288
H155	H	0.905389	-0.544559	-0.000023
H156	H	1.405389	-0.044559	0.499977
H157	H	0.784736	0.099791	-0.124520
H158	H	1.284736	0.599791	0.375480
H159	H	1.166926	0.010416	0.813476
H160	H	1.666926	0.510416	1.313476
H161	H	0.496975	0.095550	0.124510
H162	H	0.996975	0.595550	0.624510
H163	H	0.945577	0.182432	0.813471
H164	H	1.445577	0.682432	1.313471
H165	H	1.209566	-0.130480	0.000036
H166	H	1.709566	0.369520	0.500036
H167	H	1.166922	0.010418	0.669711
H168	H	1.666922	0.510418	1.169711
H169	H	1.166900	0.010411	0.330294
H170	H	1.666900	0.510411	0.830294
H171	H	0.327726	0.093048	0.124512
H172	H	0.827726	0.593048	0.624512
