data_functionalizedCrystal
_audit_creation_method	'MofGen! by Chris Wilmer'
_symmetry_space_group_name_H-M	'P1'
_symmetry_Int_Tables_number	1
_symmetry_cell_setting	triclinic
loop_
_symmetry_equiv_pos_as_xyz
  x,y,z
_cell_length_a	13.635800
_cell_length_b	19.590079
_cell_length_c	19.551889
_cell_angle_alpha	83.769452
_cell_angle_beta	101.664587
_cell_angle_gamma	77.809549
loop_
_atom_site_label
_atom_site_type_symbol
_atom_site_fract_x
_atom_site_fract_y
_atom_site_fract_z
V1	V	-1.999962	0.097419	-0.218208
O2	O	-1.997261	-0.003918	-0.213698
O3	O	-1.972651	0.192432	-0.217058
O4	O	-1.971351	0.096256	-0.313220
O5	O	-1.998569	0.092924	-0.116870
V6	V	-2.242750	0.085259	-0.206046
O7	O	-2.128338	0.124095	-0.244887
O8	O	-2.339473	0.058583	-0.179366
O9	O	-2.158458	-0.009754	-0.207196
O10	O	-2.304149	0.186596	-0.210555
O11	O	-2.302841	0.089754	-0.307383
O12	O	-2.159758	0.086422	-0.111034
C13	C	-1.894537	0.215584	-0.213704
C14	C	-1.912821	0.293261	-0.213396
C15	C	-2.012180	0.333318	-0.216747
C16	C	-2.029362	0.406305	-0.216465
C17	C	-1.947175	0.439228	-0.212819
C18	C	-1.847802	0.399162	-0.209472
C19	C	-1.830625	0.326178	-0.209761
C20	C	-1.894052	0.545567	-0.168531
C21	C	-1.911231	0.618549	-0.168238
C22	C	-2.000151	0.664335	-0.211932
C23	C	-2.071905	0.637130	-0.255909
C24	C	-2.054728	0.564146	-0.256198
C25	C	-1.965790	0.518367	-0.212506
C26	C	-2.118148	0.783534	-0.214978
C27	C	-2.135327	0.856522	-0.214701
C28	C	-1.953763	0.849377	-0.207700
C29	C	-1.936588	0.776391	-0.207985
C30	C	-2.018784	0.743474	-0.211620
V31	V	-1.499962	0.097419	-0.218208
O32	O	-1.497261	-0.003918	-0.213698
O33	O	-1.472651	0.192432	-0.217058
O34	O	-1.471351	0.096256	-0.313220
O35	O	-1.498569	0.092924	-0.116870
V36	V	-1.742750	0.085259	-0.206046
O37	O	-1.628338	0.124095	-0.244887
O38	O	-1.839473	0.058583	-0.179366
O39	O	-1.658458	-0.009754	-0.207196
O40	O	-1.804149	0.186596	-0.210555
O41	O	-1.802841	0.089754	-0.307383
O42	O	-1.659758	0.086422	-0.111034
C43	C	-1.394537	0.215584	-0.213704
C44	C	-1.412821	0.293261	-0.213396
C45	C	-1.404622	0.319532	-0.149219
C46	C	-1.421838	0.392516	-0.148909
C47	C	-1.447234	0.439224	-0.212779
C48	C	-1.455438	0.412945	-0.276965
C49	C	-1.438232	0.339963	-0.277274
C50	C	-1.429022	0.560393	-0.259092
C51	C	-1.446221	0.633373	-0.258780
C52	C	-1.500309	0.664325	-0.211830
C53	C	-1.537180	0.622287	-0.165179
C54	C	-1.519973	0.549305	-0.165488
C55	C	-1.465894	0.518362	-0.212452
C56	C	-1.510778	0.769734	-0.147312
C57	C	-1.528002	0.842719	-0.147005
C58	C	-1.561592	0.863147	-0.275063
C59	C	-1.544378	0.790163	-0.275369
C60	C	-1.518967	0.743460	-0.211491
C61	C	-1.571715	0.967098	-0.210552
C62	C	-1.553398	0.889423	-0.210876
C63	C	-1.892879	0.092900	-0.336367
C64	C	-1.910108	0.092577	-0.414042
C65	C	-2.124972	0.093742	-0.977293
C66	C	-2.108794	0.094050	-0.904310
C67	C	-2.009926	0.090702	-0.864242
C68	C	-1.927237	0.087063	-0.897164
C69	C	-1.943420	0.086762	-0.970147
C70	C	-1.903483	0.047351	-0.739317
C71	C	-1.887303	0.047648	-0.666335
C72	C	-1.960011	0.091634	-0.639139
C73	C	-2.048915	0.135314	-0.684933
C74	C	-2.065098	0.135012	-0.757915
C75	C	-1.992369	0.091028	-0.785104
C76	C	-2.025156	0.095612	-0.527089
C77	C	-2.008974	0.095925	-0.454106
C78	C	-1.827413	0.088930	-0.446960
C79	C	-1.843599	0.088625	-0.519943
C80	C	-1.942471	0.091962	-0.560003
C81	C	-2.069901	0.089780	-0.087883
C82	C	-2.042291	0.090099	-0.010207
C83	C	-2.068243	-0.032902	-0.210548
C84	C	-2.039578	-0.110578	-0.210860
C85	C	-1.392879	0.092900	-0.336367
C86	C	-1.410108	0.092577	-0.414042
C87	C	-1.569901	0.089780	-0.087883
C88	C	-1.542291	0.090099	-0.010207
C89	C	-1.508980	0.095922	-0.454093
C90	C	-1.525180	0.095609	-0.527076
C91	C	-1.442508	0.091957	-0.560007
C92	C	-1.343626	0.088611	-0.519951
C93	C	-1.327426	0.088918	-0.446968
C94	C	-1.442733	0.093743	0.022706
C95	C	-1.416774	0.094035	0.095692
C96	C	-1.490376	0.090688	0.135762
C97	C	-1.589942	0.087041	0.102844
C98	C	-1.615898	0.086745	0.029861
H99	H	-2.185076	0.756731	-0.217937
H100	H	-1.335698	0.097004	0.122483
O101	O	-1.377214	0.269168	-0.080320
H102	H	-1.436433	0.238076	-0.080005
H103	H	-1.649862	0.084314	0.135480
O104	O	-1.598161	0.099856	-0.418587
H105	H	-1.570302	0.099513	-0.361108
O106	O	-1.631835	0.099219	-0.570267
H107	H	-1.656659	0.147114	-0.611331
O108	O	-1.220784	0.085323	-0.403774
H109	H	-1.166030	0.082741	-0.438941
O110	O	-1.483378	0.719354	-0.078421
H111	H	-1.546503	0.731109	-0.050279
O112	O	-2.242498	0.899733	-0.218310
H113	H	-2.296759	0.864577	-0.220878
O114	O	-1.363332	0.097353	-0.020499
H115	H	-1.398095	0.096541	-0.076783
H116	H	-1.886845	0.876183	-0.204736
O117	O	-1.723454	0.282965	-0.206146
H118	H	-1.670665	0.287632	-0.156539
H119	H	-1.455713	0.091708	-0.619435
H120	H	-1.521330	0.864107	-0.094742
O121	O	-1.588982	0.913514	-0.343955
H122	H	-1.599565	0.968677	-0.332960
O123	O	-1.254464	0.084682	-0.555474
H124	H	-1.282355	0.085041	-0.612953
O125	O	-1.754559	0.085180	-0.555527
H126	H	-1.683139	0.083079	-0.515433
O127	O	-1.462380	0.091016	0.214479
H128	H	-1.380785	0.094120	0.230626
H129	H	-1.551048	0.768773	-0.327629
O130	O	-1.406464	0.678714	-0.309097
H131	H	-1.365984	0.644934	-0.341807
O132	O	-2.132101	0.534805	-0.303640
H133	H	-2.207938	0.549145	-0.289625
O134	O	-1.820594	0.083431	-0.853950
H135	H	-1.823226	0.084238	-0.797668
O136	O	-2.100837	0.297818	-0.220701
H137	H	-2.172820	0.337942	-0.222999
O138	O	-2.136531	0.449523	-0.220070
H139	H	-2.190798	0.414371	-0.222641
O140	O	-1.723284	0.082817	-0.005637
H141	H	-1.770097	0.080545	0.034492
O142	O	-1.833842	0.647893	-0.120813
H143	H	-1.769113	0.603798	-0.090491
H144	H	-2.176124	0.097017	-0.877507
H145	H	-2.144217	0.674419	-0.291585
H146	H	-1.855679	0.743774	-0.205252
O147	O	-1.447081	0.311592	-0.346482
H148	H	-1.390570	0.327818	-0.374527
O149	O	-1.798145	0.496184	-0.121398
H150	H	-1.751148	0.527360	-0.090761
H151	H	-1.415160	0.413911	-0.096646
O152	O	-1.595522	0.655655	-0.114534
H153	H	-1.665612	0.695574	-0.144930
O154	O	-1.759153	0.434666	-0.205542
H155	H	-1.787788	0.492146	-0.205899
O156	O	-1.559687	0.503955	-0.115150
H157	H	-1.600174	0.537731	-0.082440
H158	H	-2.108119	0.171134	-0.662792
O159	O	-2.131797	0.099220	-0.570300
H160	H	-2.130413	0.051373	-0.596081
H161	H	-1.476117	0.450980	-0.328969
O162	O	-1.370675	0.527009	-0.309730
H163	H	-1.347911	0.568498	-0.342106
O164	O	-2.098163	0.099851	-0.418609
H165	H	-2.108254	0.148033	-0.393170
O166	O	-2.231606	0.097335	-1.020502
H167	H	-2.286381	0.099920	-0.985348
H168	H	-1.746915	0.086208	-0.414337
O169	O	-2.160973	0.182125	-0.807310
H170	H	-2.208815	0.212767	-0.776145
H171	H	-1.814919	0.012077	-0.629055
H172	H	-1.876088	0.083795	-0.996944
O173	O	-1.825064	-0.000100	-0.768648
H174	H	-1.760539	-0.030432	-0.724545
