data_functionalizedCrystal
_audit_creation_method	'MofGen! by Chris Wilmer'
_symmetry_space_group_name_H-M	'P1'
_symmetry_Int_Tables_number	1
_symmetry_cell_setting	triclinic
loop_
_symmetry_equiv_pos_as_xyz
  x,y,z
_cell_length_a	6.817900
_cell_length_b	19.551136
_cell_length_c	14.858572
_cell_angle_alpha	95.614431
_cell_angle_beta	104.524003
_cell_angle_gamma	101.650842
loop_
_atom_site_label
_atom_site_type_symbol
_atom_site_fract_x
_atom_site_fract_y
_atom_site_fract_z
V1	V	-4.029268	-0.097117	-0.290420
V2	V	-3.529268	0.402883	0.209580
O3	O	-4.026005	0.004214	-0.284421
O4	O	-3.526005	0.504214	0.215579
O5	O	-3.971850	-0.192132	-0.288887
O6	O	-3.471850	0.307868	0.211113
O7	O	-3.986028	-0.095822	-0.416876
O8	O	-3.486028	0.404178	0.083124
O9	O	-4.011729	-0.092762	-0.155546
O10	O	-3.511729	0.407238	0.344454
V11	V	-4.513395	-0.084973	-0.274233
V12	V	-4.013395	0.415027	0.225767
O13	O	-4.289200	-0.123756	-0.325928
O14	O	-3.789200	0.376244	0.174072
O15	O	-4.703661	-0.058335	-0.238725
O16	O	-4.203661	0.441665	0.261275
O17	O	-4.347606	0.010041	-0.275766
O18	O	-3.847606	0.510041	0.224234
O19	O	-4.634055	-0.186305	-0.280233
O20	O	-4.134055	0.313695	0.219767
O21	O	-4.648331	-0.089328	-0.409107
O22	O	-4.148331	0.410672	0.090893
O23	O	-4.333428	-0.086268	-0.147778
O24	O	-3.833428	0.413732	0.352222
C25	C	-3.814490	-0.215288	-0.284423
C26	C	-3.314490	0.284712	0.215577
C27	C	-3.848866	-0.292965	-0.284012
C28	C	-3.348866	0.207035	0.215988
C29	C	-3.822319	-0.319326	-0.198595
C30	C	-3.322319	0.180674	0.301405
C31	C	-3.854689	-0.392309	-0.198181
C32	C	-3.354689	0.107691	0.301819
C33	C	-3.913566	-0.438929	-0.283188
C34	C	-3.413566	0.061071	0.216812
C35	C	-3.940125	-0.412561	-0.368616
C36	C	-3.440125	0.087439	0.131384
C37	C	-3.907775	-0.339579	-0.369029
C38	C	-3.407775	0.160421	0.130971
C39	C	-3.880593	-0.560034	-0.344824
C40	C	-3.380593	-0.060034	0.155176
C41	C	-3.912928	-0.633014	-0.344408
C42	C	-3.412928	-0.133014	0.155592
C43	C	-4.013355	-0.664032	-0.281920
C44	C	-3.513355	-0.164032	0.218080
C45	C	-4.081410	-0.622057	-0.219831
C46	C	-3.581410	-0.122057	0.280169
C47	C	-4.049059	-0.549075	-0.220243
C48	C	-3.549059	-0.049075	0.279757
C49	C	-3.948650	-0.518067	-0.282750
C50	C	-3.448650	-0.018067	0.217250
C51	C	-4.021908	-0.769529	-0.196047
C52	C	-3.521908	-0.269529	0.303953
C53	C	-4.054292	-0.842515	-0.195637
C54	C	-3.554292	-0.342515	0.304363
C55	C	-4.139709	-0.862765	-0.366075
C56	C	-3.639709	-0.362765	0.133925
C57	C	-4.107344	-0.789781	-0.366483
C58	C	-3.607344	-0.289781	0.133517
C59	C	-4.048435	-0.743167	-0.281466
C60	C	-3.548435	-0.243167	0.218534
C61	C	-3.832575	-0.092434	-0.447684
C62	C	-3.332575	0.407566	0.052316
C63	C	-3.878446	-0.092004	-0.551065
C64	C	-3.378446	0.407996	-0.051065
C65	C	-4.046335	-0.090431	-0.929625
C66	C	-3.546335	0.409569	-0.429625
C67	C	-3.999615	-0.090869	-0.824298
C68	C	-3.499615	0.409131	-0.324298
C69	C	-3.962392	-0.091218	-0.740348
C70	C	-3.462392	0.408782	-0.240348
C71	C	-3.915669	-0.091654	-0.635014
C72	C	-3.415669	0.408346	-0.135014
C73	C	-4.168308	0.033194	-0.280228
C74	C	-3.668308	0.533194	0.219772
C75	C	-4.113171	0.110870	-0.280645
C76	C	-3.613171	0.610870	0.219355
C77	C	-4.150223	-0.089658	-0.116965
C78	C	-3.650223	0.410342	0.383035
C79	C	-4.083591	-0.090085	-0.013583
C80	C	-3.583591	0.409915	0.486417
H81	H	-3.857506	-0.667184	-0.394962
H82	H	-3.357506	-0.167184	0.105038
H83	H	-3.988068	-0.450524	-0.437830
H84	H	-3.488068	0.049476	0.062170
O85	O	-3.936530	-0.311117	-0.461146
O86	O	-3.436530	0.188883	0.038854
H87	H	-3.787838	-0.275677	-0.461954
H88	H	-3.287838	0.224323	0.038046
H89	H	-4.128947	-0.768318	-0.436039
H90	H	-3.628947	-0.268318	0.063961
O91	O	-4.025639	-0.870948	-0.103501
O92	O	-3.525639	-0.370948	0.396499
H93	H	-4.134971	-0.854727	-0.066186
H94	H	-3.634971	-0.354727	0.433814
O95	O	-3.758761	-0.269053	-0.106897
O96	O	-3.258761	0.230947	0.393103
H97	H	-3.880529	-0.280851	-0.069430
H98	H	-3.380529	0.219149	0.430570
H99	H	-3.833067	-0.413777	-0.128621
H100	H	-3.333067	0.086223	0.371379
H101	H	-3.798814	-0.534786	-0.395714
H102	H	-3.298814	-0.034786	0.104286
O103	O	-4.122349	-0.503795	-0.153248
O104	O	-3.622349	-0.003795	0.346752
H105	H	-4.197587	-0.537616	-0.109712
H106	H	-3.697587	-0.037616	0.390288
O107	O	-3.958394	-0.719251	-0.104353
O108	O	-3.458394	-0.219251	0.395647
H109	H	-3.805544	-0.682872	-0.096976
H110	H	-3.305544	-0.182872	0.403024
O111	O	-4.203217	-0.913043	-0.457760
O112	O	-3.703217	-0.413043	0.042240
H113	H	-4.353550	-0.906544	-0.502178
H114	H	-3.853550	-0.406544	-0.002178
O115	O	-4.189750	-0.655499	-0.152430
O116	O	-3.689750	-0.155499	0.347570
H117	H	-4.200844	-0.713301	-0.162581
H118	H	-3.700844	-0.213301	0.337419
