data_functionalizedCrystal
_audit_creation_method	'MofGen! by Chris Wilmer'
_symmetry_space_group_name_H-M	'P1'
_symmetry_Int_Tables_number	1
_symmetry_cell_setting	triclinic
loop_
_symmetry_equiv_pos_as_xyz
  x,y,z
_cell_length_a	17.699083
_cell_length_b	12.837942
_cell_length_c	16.776229
_cell_angle_alpha	89.994225
_cell_angle_beta	89.998886
_cell_angle_gamma	89.055978
loop_
_atom_site_label
_atom_site_type_symbol
_atom_site_fract_x
_atom_site_fract_y
_atom_site_fract_z
O1	O	1.013707	0.131067	-0.066175
O2	O	0.794582	0.148119	-0.066201
O3	O	0.899286	-0.011297	-0.066184
O4	O	0.909003	0.290484	-0.066192
O5	O	0.899269	-0.011307	0.066393
O6	O	0.794565	0.148110	0.066376
O7	O	1.013691	0.131057	0.066401
Zn8	Zn	0.904126	0.139582	0.087438
Zn9	Zn	0.904147	0.139595	-0.087237
O10	O	0.908987	0.290474	0.066384
C11	C	0.766332	0.147503	0.000084
C12	C	0.682179	0.145670	0.000074
C13	C	0.640432	0.239245	0.000072
C14	C	0.561362	0.237516	0.000082
C15	C	0.524040	0.142212	0.000089
C16	C	0.565792	0.048631	0.000094
C17	C	0.644861	0.050360	0.000089
C18	C	0.246916	0.041653	0.000114
C19	C	0.167842	0.039931	0.000116
C20	C	0.163418	0.228809	0.000107
C21	C	0.242486	0.230539	0.000102
C22	C	0.284232	0.136958	0.000111
C23	C	0.369969	0.138833	0.000101
C24	C	0.438304	0.140336	0.000093
C25	C	0.895995	-0.049915	0.000104
C26	C	0.886204	-0.164967	0.000101
C27	C	1.003908	-0.406222	0.000099
C28	C	0.994712	-0.514324	0.000096
C29	C	0.858617	-0.489277	0.000088
C30	C	0.867813	-0.381174	0.000091
C31	C	0.940461	-0.339651	0.000097
C32	C	0.949656	-0.231546	0.000105
C33	C	0.813561	-0.206501	0.000092
C34	C	0.804365	-0.314604	0.000089
C35	C	1.041941	0.131673	0.000115
C36	C	1.126094	0.133506	0.000119
C37	C	0.912278	0.329091	0.000095
C38	C	0.922069	0.444144	0.000092
N39	N	0.904117	0.139572	0.206649
N40	N	0.904161	0.139596	-0.206449
C41	C	0.950497	0.069012	0.248374
C42	C	0.950502	0.069011	0.331826
C43	C	0.904128	0.139576	0.373552
C44	C	0.857742	0.210141	0.331821
C45	C	0.857735	0.210136	0.248371
C46	C	0.857771	0.210161	0.668369
C47	C	0.857784	0.210163	0.751825
C48	C	0.950538	0.069036	0.751824
C49	C	0.950530	0.069031	0.668373
C50	C	0.904142	0.139591	0.626650
C51	C	0.904137	0.139590	0.536162
C52	C	0.904137	0.139583	0.464039
H53	H	0.129419	0.305007	0.000104
H54	H	0.988294	0.011574	0.634403
H55	H	0.819966	0.267592	0.214399
H56	H	0.820002	0.267615	0.634404
H57	H	0.280896	-0.034546	0.000122
O58	O	0.733784	-0.354896	-0.000058
C59	C	0.694631	-0.320827	-0.068710
H60	H	0.736975	-0.298426	-0.116699
H61	H	0.657719	-0.386236	-0.091761
H62	H	0.657538	-0.250274	-0.053184
O63	O	0.995525	0.000523	0.792479
C64	C	0.985604	0.015667	0.875082
H65	H	0.928233	0.054503	0.886485
H66	H	0.988371	-0.062839	0.906803
H67	H	1.032183	0.067580	0.898754
O68	O	0.812765	0.278650	0.372475
C69	C	0.822704	0.263510	0.455078
H70	H	0.880076	0.224671	0.466473
H71	H	0.819946	0.342018	0.486784
H72	H	0.776128	0.211602	0.478774
O73	O	0.676770	0.331759	0.000168
C74	C	0.722363	0.338420	0.068836
H75	H	0.736133	0.256682	0.091731
H76	H	0.777026	0.379608	0.053387
H77	H	0.690800	0.384357	0.116917
H78	H	0.761898	-0.152287	0.000097
H79	H	0.678850	-0.025837	0.000091
O80	O	1.074527	-0.366051	0.000070
C81	C	1.128558	-0.447991	0.000095
H82	H	1.102058	-0.521378	-0.025005
H83	H	1.178809	-0.425510	-0.038391
H84	H	1.148497	-0.463345	0.063701
O85	O	0.995567	0.000363	0.207968
C86	C	1.036517	-0.061899	0.262695
H87	H	1.005412	-0.063011	0.322185
H88	H	1.042093	-0.144692	0.238593
H89	H	1.095158	-0.028342	0.271560
O90	O	1.056322	-0.579034	-0.000042
C91	C	1.055069	-0.642322	-0.068695
H92	H	1.019229	-0.602631	-0.116687
H93	H	1.115150	-0.654619	-0.091740
H94	H	1.029819	-0.720889	-0.053174
O95	O	0.529420	-0.043858	0.000067
C96	C	0.450680	-0.025322	0.000088
H97	H	0.437977	0.055607	-0.025015
H98	H	0.422044	-0.086292	-0.038398
H99	H	0.428347	-0.030292	0.063693
O100	O	0.131705	-0.052743	0.000163
C101	C	0.185505	-0.134971	0.000152
H102	H	0.241220	-0.106057	0.025248
H103	H	0.164204	-0.201517	0.038650
H104	H	0.194594	-0.163830	-0.063449
H105	H	0.820019	0.267628	0.785797
O106	O	0.788092	-0.529751	-0.000028
C107	C	0.778708	-0.591495	-0.068706
H108	H	0.836416	-0.618545	-0.091594
H109	H	0.743449	-0.662225	-0.053272
H110	H	0.748672	-0.543647	-0.116785
H111	H	0.527375	0.313714	0.000079
H112	H	0.988268	0.011554	0.365798
H113	H	0.272870	0.308145	0.000093
O114	O	1.020237	-0.191256	-0.000034
C115	C	1.059392	-0.225301	-0.068688
H116	H	1.017049	-0.247683	-0.116678
H117	H	1.096306	-0.159886	-0.091736
H118	H	1.096483	-0.295861	-0.053166
