data_functionalizedCrystal
_audit_creation_method	'MofGen! by Chris Wilmer'
_symmetry_space_group_name_H-M	'P1'
_symmetry_Int_Tables_number	1
_symmetry_cell_setting	triclinic
loop_
_symmetry_equiv_pos_as_xyz
  x,y,z
_cell_length_a	16.625548
_cell_length_b	25.639239
_cell_length_c	16.625548
_cell_angle_alpha	90.014267
_cell_angle_beta	90.008236
_cell_angle_gamma	90.039754
loop_
_atom_site_label
_atom_site_type_symbol
_atom_site_fract_x
_atom_site_fract_y
_atom_site_fract_z
Zn1	Zn	1.232491	-0.208223	0.455892
Zn2	Zn	1.482491	0.041777	0.705892
Zn3	Zn	1.732491	0.291777	0.955892
Zn4	Zn	1.982491	0.541777	1.205892
Zn5	Zn	1.232385	-0.295635	0.321053
Zn6	Zn	1.482385	-0.045635	0.571053
Zn7	Zn	1.732385	0.204365	0.821053
Zn8	Zn	1.982385	0.454365	1.071053
Zn9	Zn	1.097682	-0.208217	0.321073
Zn10	Zn	1.347682	0.041783	0.571073
Zn11	Zn	1.597682	0.291783	0.821073
Zn12	Zn	1.847682	0.541783	1.071073
Zn13	Zn	1.097585	-0.295631	0.455843
Zn14	Zn	1.347585	-0.045631	0.705843
Zn15	Zn	1.597585	0.204369	0.955843
Zn16	Zn	1.847585	0.454369	1.205843
O17	O	1.165036	-0.251926	0.388465
O18	O	1.415036	-0.001926	0.638465
O19	O	1.665036	0.248074	0.888465
O20	O	1.915036	0.498074	1.138465
O21	O	1.345310	-0.219822	0.438018
O22	O	1.595310	0.030178	0.688018
O23	O	1.845310	0.280178	0.938018
O24	O	2.095310	0.530178	1.188018
O25	O	1.214513	-0.284038	0.208223
O26	O	1.464513	-0.034038	0.458223
O27	O	1.714513	0.215962	0.708223
O28	O	1.964513	0.465962	0.958223
O29	O	1.115650	-0.135052	0.338987
O30	O	1.365650	0.114948	0.588987
O31	O	1.615650	0.364948	0.838987
O32	O	1.865650	0.614948	1.088987
O33	O	1.345232	-0.284043	0.338952
O34	O	1.595232	-0.034043	0.588952
O35	O	1.845232	0.215957	0.838952
O36	O	2.095232	0.465957	1.088952
O37	O	1.214693	-0.135057	0.438038
O38	O	1.464693	0.114943	0.688038
O39	O	1.714693	0.364943	0.938038
O40	O	1.964693	0.614943	1.188038
O41	O	1.115547	-0.219812	0.208238
O42	O	1.365547	0.030188	0.458238
O43	O	1.615547	0.280188	0.708238
O44	O	1.865547	0.530188	0.958238
O45	O	0.984837	-0.219808	0.338938
O46	O	1.234837	0.030192	0.588938
O47	O	1.484837	0.280192	0.838938
O48	O	1.734837	0.530192	1.088938
O49	O	1.115485	-0.284036	0.568682
O50	O	1.365485	-0.034036	0.818682
O51	O	1.615485	0.215964	1.068682
O52	O	1.865485	0.465964	1.318682
O53	O	0.984766	-0.284031	0.437953
O54	O	1.234766	-0.034031	0.687953
O55	O	1.484766	0.215969	0.937953
O56	O	1.734766	0.465969	1.187953
O57	O	1.214600	-0.219818	0.568718
O58	O	1.464600	0.030182	0.818718
O59	O	1.714600	0.280182	1.068718
O60	O	1.964600	0.530182	1.318718
O61	O	1.214419	-0.368799	0.338904
O62	O	1.464419	-0.118799	0.588904
O63	O	1.714419	0.131201	0.838904
O64	O	1.964419	0.381201	1.088904
O65	O	1.115382	-0.368796	0.437933
O66	O	1.365382	-0.118796	0.687933
O67	O	1.615382	0.131204	0.937933
O68	O	1.865382	0.381204	1.187933
C69	C	0.955545	-0.251919	0.388443
C70	C	1.205545	-0.001919	0.638443
C71	C	1.455545	0.248081	0.888443
C72	C	1.705545	0.498081	1.138443
C73	C	0.865924	-0.251928	0.388452
C74	C	1.115924	-0.001928	0.638452
C75	C	1.365924	0.248072	0.888452
C76	C	1.615924	0.498072	1.138452
C77	C	1.164901	-0.387769	0.388428
C78	C	1.414901	-0.137769	0.638428
C79	C	1.664901	0.112231	0.888428
C80	C	1.914901	0.362231	1.138428
C81	C	1.164916	-0.445883	0.388440
C82	C	1.414916	-0.195883	0.638440
C83	C	1.664916	0.054117	0.888440
C84	C	1.914916	0.304117	1.138440
C85	C	0.537749	-0.251931	0.388487
C86	C	0.787749	-0.001931	0.638487
C87	C	1.037749	0.248069	0.888487
C88	C	1.287749	0.498069	1.138487
C89	C	0.629057	-0.251929	0.388474
C90	C	0.879057	-0.001929	0.638474
C91	C	1.129057	0.248071	0.888474
C92	C	1.379057	0.498071	1.138474
C93	C	0.701833	-0.251930	0.388469
C94	C	0.951833	-0.001930	0.638469
C95	C	1.201833	0.248070	0.888469
C96	C	1.451833	0.498070	1.138469
C97	C	0.793148	-0.251927	0.388458
C98	C	1.043148	-0.001927	0.638458
C99	C	1.293148	0.248073	0.888458
C100	C	1.543148	0.498073	1.138458
C101	C	1.216739	-0.806235	0.336988
C102	C	1.466739	-0.556235	0.586988
C103	C	1.716739	-0.306235	0.836988
C104	C	1.966739	-0.056235	1.086988
C105	C	1.216770	-0.860839	0.336999
C106	C	1.466770	-0.610839	0.586999
C107	C	1.716770	-0.360839	0.836999
C108	C	1.966770	-0.110839	1.086999
O109	O	1.260692	-0.889066	0.293213
O110	O	1.510692	-0.639066	0.543213
O111	O	1.760692	-0.389066	0.793213
O112	O	2.010692	-0.139066	1.043213
N113	N	1.165178	-0.888165	0.388519
N114	N	1.415178	-0.638165	0.638519
N115	N	1.665178	-0.388165	0.888519
N116	N	1.915178	-0.138165	1.138519
C117	C	1.113556	-0.860884	0.440036
C118	C	1.363556	-0.610884	0.690036
C119	C	1.613556	-0.360884	0.940036
C120	C	1.863556	-0.110884	1.190036
O121	O	1.069676	-0.889141	0.483859
O122	O	1.319676	-0.639141	0.733859
O123	O	1.569676	-0.389141	0.983859
O124	O	1.819676	-0.139141	1.233859
C125	C	1.113530	-0.806281	0.440029
C126	C	1.363530	-0.556281	0.690029
C127	C	1.613530	-0.306281	0.940029
C128	C	1.863530	-0.056281	1.190029
C129	C	1.165120	-0.778958	0.388501
C130	C	1.415120	-0.528958	0.638501
C131	C	1.665120	-0.278958	0.888501
C132	C	1.915120	-0.028958	1.138501
C133	C	1.268326	-0.778911	0.285465
C134	C	1.518326	-0.528911	0.535465
C135	C	1.768326	-0.278911	0.785465
C136	C	2.018326	-0.028911	1.035465
C137	C	1.268293	-0.724311	0.285453
C138	C	1.518293	-0.474311	0.535453
C139	C	1.768293	-0.224311	0.785453
C140	C	2.018293	0.025689	1.035453
C141	C	1.216674	-0.697034	0.336965
C142	C	1.466674	-0.447034	0.586965
C143	C	1.716674	-0.197034	0.836965
C144	C	1.966674	0.052966	1.086965
C145	C	1.165088	-0.724357	0.388489
C146	C	1.415088	-0.474357	0.638489
C147	C	1.665088	-0.224357	0.888489
C148	C	1.915088	0.025643	1.138489
C149	C	1.061913	-0.779001	0.491550
C150	C	1.311913	-0.529001	0.741550
C151	C	1.561913	-0.279001	0.991550
C152	C	1.811913	-0.029001	1.241550
C153	C	1.061891	-0.724394	0.491539
C154	C	1.311891	-0.474394	0.741539
C155	C	1.561891	-0.224394	0.991539
C156	C	1.811891	0.025606	1.241539
C157	C	1.113482	-0.697070	0.440011
C158	C	1.363482	-0.447070	0.690011
C159	C	1.613482	-0.197070	0.940011
C160	C	1.863482	0.052930	1.190011
C161	C	1.113436	-0.642479	0.439989
C162	C	1.363436	-0.392479	0.689989
C163	C	1.613436	-0.142479	0.939989
C164	C	1.863436	0.107521	1.189989
N165	N	1.165028	-0.615153	0.388470
N166	N	1.415028	-0.365153	0.638470
N167	N	1.665028	-0.115153	0.888470
N168	N	1.915028	0.134847	1.138470
C169	C	1.216648	-0.642430	0.336958
C170	C	1.466648	-0.392430	0.586958
C171	C	1.716648	-0.142430	0.836958
C172	C	1.966648	0.107570	1.086958
C173	C	1.113617	-0.975555	0.440049
C174	C	1.363617	-0.725555	0.690049
C175	C	1.613617	-0.475555	0.940049
C176	C	1.863617	-0.225555	1.190049
C177	C	1.113639	-1.030157	0.440053
C178	C	1.363639	-0.780157	0.690053
C179	C	1.613639	-0.530157	0.940053
C180	C	1.863639	-0.280157	1.190053
C181	C	1.216854	-1.030108	0.337016
C182	C	1.466854	-0.780108	0.587016
C183	C	1.716854	-0.530108	0.837016
C184	C	1.966854	-0.280108	1.087016
C185	C	1.216828	-0.975505	0.337009
C186	C	1.466828	-0.725505	0.587009
C187	C	1.716828	-0.475505	0.837009
C188	C	1.966828	-0.225505	1.087009
C189	C	1.165210	-0.948229	0.388529
C190	C	1.415210	-0.698229	0.638529
C191	C	1.665210	-0.448229	0.888529
C192	C	1.915210	-0.198229	1.138529
C193	C	1.216575	-0.527765	0.336937
C194	C	1.466575	-0.277765	0.586937
C195	C	1.716575	-0.027765	0.836937
C196	C	1.966575	0.222235	1.086937
C197	C	1.216535	-0.473160	0.336927
C198	C	1.466535	-0.223160	0.586927
C199	C	1.716535	0.026840	0.836927
C200	C	1.966535	0.276840	1.086927
C201	C	1.113323	-0.473214	0.439966
C202	C	1.363323	-0.223214	0.689966
C203	C	1.613323	0.026786	0.939966
C204	C	1.863323	0.276786	1.189966
C205	C	1.113360	-0.527814	0.439973
C206	C	1.363360	-0.277814	0.689973
C207	C	1.613360	-0.027814	0.939973
C208	C	1.863360	0.222186	1.189973
C209	C	1.164992	-0.555089	0.388456
C210	C	1.414992	-0.305089	0.638456
C211	C	1.664992	-0.055089	0.888456
C212	C	1.914992	0.194911	1.138456
O213	O	1.069539	-0.614217	0.483755
O214	O	1.319539	-0.364217	0.733755
O215	O	1.569539	-0.114217	0.983755
O216	O	1.819539	0.135783	1.233755
O217	O	1.260528	-0.614167	0.293150
O218	O	1.510528	-0.364167	0.543150
O219	O	1.760528	-0.114167	0.793150
O220	O	2.010528	0.135833	1.043150
C221	C	1.375345	-0.251934	0.388488
C222	C	1.625345	-0.001934	0.638488
C223	C	1.875345	0.248066	0.888488
C224	C	2.125345	0.498066	1.138488
C225	C	1.464966	-0.251937	0.388498
C226	C	1.714966	-0.001937	0.638498
C227	C	1.964966	0.248063	0.888498
C228	C	2.214966	0.498063	1.138498
C229	C	1.165043	-0.251928	0.598774
C230	C	1.415043	-0.001928	0.848774
C231	C	1.665043	0.248072	1.098774
C232	C	1.915043	0.498072	1.348774
C233	C	1.165046	-0.251928	0.688395
C234	C	1.415046	-0.001928	0.938395
C235	C	1.665046	0.248072	1.188395
C236	C	1.915046	0.498072	1.438395
C237	C	1.165194	-0.115553	0.388520
C238	C	1.415194	0.134447	0.638520
C239	C	1.665194	0.384447	0.888520
C240	C	1.915194	0.634447	1.138520
C241	C	1.165262	-0.057439	0.388543
C242	C	1.415262	0.192561	0.638543
C243	C	1.665262	0.442561	0.888543
C244	C	1.915262	0.692561	1.138543
C245	C	1.165013	-0.251933	1.016571
C246	C	1.415013	-0.001933	1.266571
C247	C	1.665013	0.248067	1.516571
C248	C	1.915013	0.498067	1.766571
C249	C	1.165020	-0.251933	0.925262
C250	C	1.415020	-0.001933	1.175262
C251	C	1.665020	0.248067	1.425262
C252	C	1.915020	0.498067	1.675262
C253	C	1.165030	-0.251931	0.852486
C254	C	1.415030	-0.001931	1.102486
C255	C	1.665030	0.248069	1.352486
C256	C	1.915030	0.498069	1.602486
C257	C	1.165036	-0.251931	0.761172
C258	C	1.415036	-0.001931	1.011172
C259	C	1.665036	0.248069	1.261172
C260	C	1.915036	0.498069	1.511172
C261	C	1.165021	-0.251935	1.178974
C262	C	1.415021	-0.001935	1.428974
C263	C	1.665021	0.248065	1.678974
C264	C	1.915021	0.498065	1.928974
C265	C	1.165013	-0.251931	1.089353
C266	C	1.415013	-0.001931	1.339353
C267	C	1.665013	0.248069	1.589353
C268	C	1.915013	0.498069	1.839353
H269	H	1.258546	-0.450915	0.294964
H270	H	1.508546	-0.200915	0.544964
H271	H	1.758546	0.049085	0.794964
H272	H	2.008546	0.299085	1.044964
H273	H	1.071622	-1.052399	0.482005
H274	H	1.321622	-0.802399	0.732005
H275	H	1.571622	-0.552399	0.982005
H276	H	1.821622	-0.302399	1.232005
H277	H	1.258621	-0.549966	0.294988
H278	H	1.508621	-0.299966	0.544988
H279	H	1.758621	-0.049966	0.794988
H280	H	2.008621	0.200034	1.044988
O281	O	1.266906	-0.949022	0.286846
O282	O	1.516906	-0.699022	0.536846
O283	O	1.766906	-0.449022	0.786846
O284	O	2.016906	-0.199022	1.036846
C285	C	1.249336	-0.962386	0.206470
C286	C	1.499336	-0.712386	0.456470
C287	C	1.749336	-0.462386	0.706470
C288	C	1.999336	-0.212386	0.956470
H289	H	1.218355	-1.002050	0.204779
H290	H	1.468355	-0.752050	0.454779
H291	H	1.718355	-0.502050	0.704779
H292	H	1.968355	-0.252050	0.954779
H293	H	1.307556	-0.964229	0.170369
H294	H	1.557556	-0.714229	0.420369
H295	H	1.807556	-0.464229	0.670369
H296	H	2.057556	-0.214229	0.920369
H297	H	1.207892	-0.931686	0.179269
H298	H	1.457892	-0.681686	0.429269
H299	H	1.707892	-0.431686	0.679269
H300	H	1.957892	-0.181686	0.929269
H301	H	1.071577	-0.953349	0.482001
H302	H	1.321577	-0.703349	0.732001
H303	H	1.571577	-0.453349	0.982001
H304	H	1.821577	-0.203349	1.232001
O305	O	1.267032	-1.056692	0.287110
O306	O	1.517032	-0.806692	0.537110
O307	O	1.767032	-0.556692	0.787110
O308	O	2.017032	-0.306692	1.037110
C309	C	1.256004	-1.110744	0.298189
C310	C	1.506004	-0.860744	0.548189
C311	C	1.756004	-0.610744	0.798189
C312	C	2.006004	-0.360744	1.048189
H313	H	1.229474	-1.118187	0.360363
H314	H	1.479474	-0.868187	0.610363
H315	H	1.729474	-0.618187	0.860363
H316	H	1.979474	-0.368187	1.110363
H317	H	1.316436	-1.131441	0.292881
H318	H	1.566436	-0.881441	0.542881
H319	H	1.816436	-0.631441	0.792881
H320	H	2.066436	-0.381441	1.042881
H321	H	1.213186	-1.126311	0.250284
H322	H	1.463186	-0.876311	0.500284
H323	H	1.713186	-0.626311	0.750284
H324	H	1.963186	-0.376311	1.000284
H325	H	1.310365	-0.801115	0.243517
H326	H	1.560365	-0.551115	0.493517
H327	H	1.810365	-0.301115	0.743517
H328	H	2.060365	-0.051115	0.993517
O329	O	1.318453	-0.697714	0.235517
O330	O	1.568453	-0.447714	0.485517
O331	O	1.818453	-0.197714	0.735517
O332	O	2.068453	0.052286	0.985517
C333	C	1.370494	-0.666096	0.281467
C334	C	1.620494	-0.416096	0.531467
C335	C	1.870494	-0.166096	0.781467
C336	C	2.120494	0.083904	1.031467
H337	H	1.342002	-0.657915	0.342541
H338	H	1.592002	-0.407915	0.592541
H339	H	1.842002	-0.157915	0.842541
H340	H	2.092002	0.092085	1.092541
H341	H	1.381315	-0.627701	0.248624
H342	H	1.631315	-0.377701	0.498624
H343	H	1.881315	-0.127701	0.748624
H344	H	2.131315	0.122299	0.998624
H345	H	1.430247	-0.687102	0.290391
H346	H	1.680247	-0.437102	0.540391
H347	H	1.930247	-0.187102	0.790391
H348	H	2.180247	0.062898	1.040391
O349	O	1.011775	-0.805453	0.541685
O350	O	1.261775	-0.555453	0.791685
O351	O	1.511775	-0.305453	1.041685
O352	O	1.761775	-0.055453	1.291685
C353	C	0.966206	-0.769658	0.587131
C354	C	1.216206	-0.519658	0.837131
C355	C	1.466206	-0.269658	1.087131
C356	C	1.716206	-0.019658	1.337131
H357	H	0.999217	-0.730714	0.589932
H358	H	1.249217	-0.480714	0.839932
H359	H	1.499217	-0.230714	1.089932
H360	H	1.749217	0.019286	1.339932
H361	H	0.957569	-0.785417	0.650660
H362	H	1.207569	-0.535417	0.900660
H363	H	1.457569	-0.285417	1.150660
H364	H	1.707569	-0.035417	1.400660
H365	H	0.904986	-0.763897	0.557553
H366	H	1.154986	-0.513897	0.807553
H367	H	1.404986	-0.263897	1.057553
H368	H	1.654986	-0.013897	1.307553
H369	H	1.019858	-0.702188	0.533496
H370	H	1.269858	-0.452188	0.783496
H371	H	1.519858	-0.202188	1.033496
H372	H	1.769858	0.047812	1.283496
H373	H	1.071353	-0.550062	0.481934
H374	H	1.321353	-0.300062	0.731934
H375	H	1.571353	-0.050062	0.981934
H376	H	1.821353	0.199938	1.231934
O377	O	1.063303	-0.446685	0.490091
O378	O	1.313303	-0.196685	0.740091
O379	O	1.563303	0.053315	0.990091
O380	O	1.813303	0.303315	1.240091
C381	C	1.109167	-0.415049	0.542179
C382	C	1.359167	-0.165049	0.792179
C383	C	1.609167	0.084951	1.042179
C384	C	1.859167	0.334951	1.292179
H385	H	1.172672	-0.431467	0.547215
H386	H	1.422672	-0.181467	0.797215
H387	H	1.672672	0.068533	1.047215
H388	H	1.922672	0.318533	1.297215
H389	H	1.079965	-0.414426	0.604208
H390	H	1.329965	-0.164426	0.854208
H391	H	1.579965	0.085574	1.104208
H392	H	1.829965	0.335574	1.354208
H393	H	1.111949	-0.373672	0.517236
H394	H	1.361949	-0.123672	0.767236
H395	H	1.611949	0.126328	1.017236
H396	H	1.861949	0.376328	1.267236
