data_functionalizedCrystal
_audit_creation_method	'MofGen! by Chris Wilmer'
_symmetry_space_group_name_H-M	'P1'
_symmetry_Int_Tables_number	1
_symmetry_cell_setting	triclinic
loop_
_symmetry_equiv_pos_as_xyz
  x,y,z
_cell_length_a	19.805407
_cell_length_b	18.050590
_cell_length_c	19.805399
_cell_angle_alpha	89.972574
_cell_angle_beta	89.982197
_cell_angle_gamma	90.015869
loop_
_atom_site_label
_atom_site_type_symbol
_atom_site_fract_x
_atom_site_fract_y
_atom_site_fract_z
Zn1	Zn	1.034773	-0.295730	-0.382688
Zn2	Zn	1.034703	-0.419922	-0.269500
Zn3	Zn	0.921587	-0.295744	-0.269516
Zn4	Zn	0.921566	-0.419877	-0.382651
O5	O	0.978157	-0.357818	-0.326089
O6	O	1.129480	-0.312217	-0.367683
O7	O	1.019678	-0.403475	-0.174786
O8	O	0.936639	-0.191818	-0.284551
O9	O	1.129429	-0.403460	-0.284524
O10	O	1.019796	-0.191807	-0.367698
O11	O	0.936572	-0.312242	-0.174798
O12	O	0.826868	-0.312198	-0.284515
O13	O	0.936604	-0.403383	-0.477372
O14	O	0.826853	-0.403397	-0.367634
O15	O	1.019776	-0.312173	-0.477400
O16	O	1.019657	-0.523841	-0.284488
O17	O	0.936536	-0.523807	-0.367619
C18	C	0.802301	-0.357795	-0.326073
C19	C	0.727069	-0.357803	-0.326082
C20	C	0.691752	-0.310377	-0.369448
C21	C	0.621064	-0.310380	-0.369451
C22	C	0.585694	-0.357815	-0.326090
C23	C	0.621016	-0.405244	-0.282718
C24	C	0.691703	-0.405235	-0.282713
C25	C	0.335942	-0.405277	-0.282739
C26	C	0.265250	-0.405283	-0.282749
C27	C	0.265304	-0.310422	-0.369477
C28	C	0.335991	-0.310414	-0.369472
C29	C	0.371306	-0.357839	-0.326098
C30	C	0.447955	-0.357833	-0.326095
C31	C	0.509047	-0.357825	-0.326096
C32	C	0.978105	-0.550770	-0.326062
C33	C	0.978145	-0.633316	-0.326073
C34	C	1.023440	-0.832758	-0.280930
C35	C	1.039973	-0.882093	-0.342704
C36	C	0.978183	-0.784446	-0.326100
C37	C	0.961720	-0.882194	-0.264353
C38	C	0.978222	-0.930432	-0.326121
C39	C	0.994748	-0.832694	-0.387907
C40	C	0.916466	-0.832791	-0.309515
C41	C	0.932975	-0.882103	-0.371332
C42	C	0.978163	-0.700348	-0.326087
C43	C	0.978242	-1.014528	-0.326141
C44	C	1.154700	-0.357842	-0.326106
C45	C	1.229932	-0.357852	-0.326113
C46	C	0.978195	-0.357771	-0.502632
C47	C	0.978211	-0.357752	-0.577864
C48	C	0.978228	-0.164113	-0.326131
C49	C	0.978258	-0.081567	-0.326149
C50	C	1.021520	-0.310256	-0.613223
C51	C	1.021527	-0.310235	-0.683912
C52	C	0.978228	-0.357713	-0.719239
C53	C	0.934915	-0.405210	-0.683875
C54	C	0.934905	-0.405228	-0.613188
C55	C	0.934953	-0.405141	-0.968948
C56	C	0.934968	-0.405122	-1.039640
C57	C	1.021575	-0.310148	-1.039673
C58	C	1.021565	-0.310165	-0.968985
C59	C	0.978250	-0.357660	-0.933627
C60	C	0.978242	-0.357682	-0.856979
C61	C	0.978239	-0.357695	-0.795887
C62	C	0.978158	-0.357811	-0.150233
C63	C	0.978273	-0.357622	-0.075001
H64	H	0.592211	-0.443862	-0.247410
H65	H	1.061725	-0.811091	-0.242770
H66	H	0.899692	-0.443825	-0.940168
H67	H	0.364688	-0.443894	-0.247422
Br68	Br	0.938484	-0.918436	-0.177307
Br69	Br	1.126995	-0.918171	-0.366122
Br70	Br	1.080361	-0.245689	-1.087663
Br71	Br	0.217372	-0.246057	-0.428342
Br72	Br	0.739634	-0.469601	-0.223855
Br73	Br	1.018094	-0.796614	-0.474979
Br74	Br	0.217248	-0.469663	-0.223898
Br75	Br	0.869211	-0.917992	-0.435084
H76	H	0.864271	-0.811116	-0.295455
H77	H	1.056781	-0.271596	-0.584465
Br78	Br	1.080337	-0.245808	-0.731898
H79	H	0.720546	-0.271752	-0.404760
H80	H	1.056826	-0.271506	-0.940225
H81	H	0.899658	-0.443865	-0.712644
Br82	Br	0.876202	-0.469562	-1.087585
Br83	Br	0.383990	-0.246041	-0.428325
Br84	Br	0.573136	-0.246014	-0.428309
Br85	Br	0.876122	-0.469684	-0.565199
