data_functionalizedCrystal
_audit_creation_method	'MofGen! by Chris Wilmer'
_symmetry_space_group_name_H-M	'P1'
_symmetry_Int_Tables_number	1
_symmetry_cell_setting	triclinic
loop_
_symmetry_equiv_pos_as_xyz
  x,y,z
_cell_length_a	17.699083
_cell_length_b	9.065218
_cell_length_c	7.540329
_cell_angle_alpha	90.003038
_cell_angle_beta	89.995522
_cell_angle_gamma	95.850550
loop_
_atom_site_label
_atom_site_type_symbol
_atom_site_fract_x
_atom_site_fract_y
_atom_site_fract_z
O1	O	0.110973	-1.957110	-0.147491
O2	O	0.120075	-1.527555	-0.147494
O3	O	0.005430	-1.754468	-0.147477
O4	O	0.225619	-1.730196	-0.147508
O5	O	0.005428	-1.754455	0.147488
O6	O	0.120074	-1.527542	0.147471
O7	O	0.110971	-1.957096	0.147474
Cu8	Cu	0.115522	-1.742318	0.174405
Cu9	Cu	0.115524	-1.742334	-0.174425
O10	O	0.225617	-1.730183	0.147457
C11	C	0.119200	-1.472588	-0.000012
C12	C	0.116584	-1.308822	-0.000012
C13	C	-0.022775	-1.753592	0.000006
C14	C	-0.106813	-1.750983	0.000007
N15	N	0.115521	-1.742317	0.419754
C16	C	-0.154396	-1.884176	0.000010
C17	C	-0.233358	-1.881716	-0.000006
C18	C	-0.264737	-1.746060	-0.000012
C19	C	-0.217149	-1.612857	-0.000021
C20	C	-0.138188	-1.615319	-0.000018
C21	C	-0.535589	-1.602925	-0.000035
C22	C	-0.614556	-1.600474	-0.000033
C23	C	-0.630760	-1.869322	-0.000023
C24	C	-0.551799	-1.871784	-0.000020
C25	C	-0.504217	-1.738581	-0.000038
C26	C	-0.418597	-1.741251	-0.000025
C27	C	-0.350355	-1.743390	-0.000013
C28	C	0.253822	-1.731059	-0.000030
C29	C	0.337860	-1.733669	-0.000042
C30	C	0.111847	-2.012064	-0.000012
C31	C	0.114463	-2.175829	-0.000023
N32	N	0.115520	-1.742346	-0.419774
H33	H	-0.128854	-1.994642	0.000026
H34	H	-0.526255	-1.982248	-0.000006
N35	N	-0.086863	-1.471662	-0.000032
H36	H	-0.118721	-1.385350	-0.000035
H37	H	-0.053750	-1.466817	0.109312
N38	N	-0.682077	-2.013001	-0.000033
H39	H	-0.671881	-2.072186	0.109318
H40	H	-0.736840	-1.990749	-0.000111
N41	N	-0.284680	-2.025373	0.000008
H42	H	-0.252820	-2.111683	0.000029
H43	H	-0.317797	-2.030190	0.109356
N44	N	-0.648403	-1.454154	-0.000030
H45	H	-0.606279	-1.370142	-0.000042
H46	H	-0.680812	-1.447289	-0.109372
H47	H	-0.496857	-1.494463	-0.000050
H48	H	-0.242703	-1.502404	-0.000037
