data_functionalizedCrystal
_audit_creation_method	'MofGen! by Chris Wilmer'
_symmetry_space_group_name_H-M	'P1'
_symmetry_Int_Tables_number	1
_symmetry_cell_setting	triclinic
loop_
_symmetry_equiv_pos_as_xyz
  x,y,z
_cell_length_a	21.295417
_cell_length_b	19.805407
_cell_length_c	19.805398
_cell_angle_alpha	89.986879
_cell_angle_beta	89.968132
_cell_angle_gamma	90.030507
loop_
_atom_site_label
_atom_site_type_symbol
_atom_site_fract_x
_atom_site_fract_y
_atom_site_fract_z
Zn1	Zn	-0.250617	1.034673	-0.382704
Zn2	Zn	0.082716	1.368007	-0.049371
Zn3	Zn	0.416049	1.701340	0.283962
Zn4	Zn	-0.355888	1.034593	-0.269510
Zn5	Zn	-0.022555	1.367926	0.063824
Zn6	Zn	0.310779	1.701259	0.397157
Zn7	Zn	-0.250637	0.921501	-0.269529
Zn8	Zn	0.082697	1.254834	0.063804
Zn9	Zn	0.416030	1.588167	0.397138
Zn10	Zn	-0.355853	0.921443	-0.382656
Zn11	Zn	-0.022519	1.254777	-0.049323
Zn12	Zn	0.310814	1.588110	0.284010
O13	O	-0.303249	0.978053	-0.326100
O14	O	0.030085	1.311386	0.007234
O15	O	0.363418	1.644719	0.340567
O16	O	-0.264589	1.129379	-0.367701
O17	O	0.068745	1.462713	-0.034367
O18	O	0.402078	1.796046	0.298966
O19	O	-0.341949	1.019581	-0.174796
O20	O	-0.008616	1.352915	0.158538
O21	O	0.324718	1.686248	0.491871
O22	O	-0.162545	0.936571	-0.284570
O23	O	0.170789	1.269904	0.048763
O24	O	0.504122	1.603238	0.382097
O25	O	-0.341930	1.129320	-0.284537
O26	O	-0.008597	1.462653	0.048796
O27	O	0.324736	1.795987	0.382130
O28	O	-0.162531	1.019718	-0.367719
O29	O	0.170803	1.353052	-0.034386
O30	O	0.504136	1.686385	0.298947
O31	O	-0.264621	0.936493	-0.174810
O32	O	0.068712	1.269826	0.158524
O33	O	0.402045	1.603160	0.491857
O34	O	-0.264587	0.826777	-0.284523
O35	O	0.068746	1.160110	0.048810
O36	O	0.402080	1.493443	0.382143
O37	O	-0.341870	0.936473	-0.477379
O38	O	-0.008537	1.269807	-0.144046
O39	O	0.324796	1.603140	0.189287
O40	O	-0.341889	0.826734	-0.367638
O41	O	-0.008556	1.160068	-0.034304
O42	O	0.324778	1.493401	0.299029
O43	O	-0.264554	1.019663	-0.477415
O44	O	0.068779	1.352996	-0.144081
O45	O	0.402112	1.686329	0.189252
O46	O	-0.443973	1.019526	-0.284491
O47	O	-0.110639	1.352859	0.048843
O48	O	0.222694	1.686192	0.382176
O49	O	-0.443947	0.936395	-0.367619
O50	O	-0.110613	1.269729	-0.034286
O51	O	0.222720	1.603062	0.299048
C52	C	-0.303237	0.802197	-0.326078
C53	C	0.030097	1.135530	0.007255
C54	C	0.363430	1.468863	0.340589
C55	C	-0.303247	0.726965	-0.326085
C56	C	0.030087	1.060298	0.007249
C57	C	0.363420	1.393631	0.340582
C58	C	-0.466800	0.977964	-0.326062
C59	C	-0.133467	1.311297	0.007271
C60	C	0.199866	1.644630	0.340604
C61	C	-0.536768	0.977988	-0.326069
C62	C	-0.203435	1.311321	0.007264
C63	C	0.129898	1.644654	0.340598
C64	C	-0.343558	0.691616	-0.369292
C65	C	-0.010225	1.024950	-0.035959
C66	C	0.323108	1.358283	0.297375
C67	C	-0.343559	0.620928	-0.369302
C68	C	-0.010226	0.954261	-0.035968
C69	C	0.323107	1.287594	0.297365
C70	C	-0.303252	0.585589	-0.326100
C71	C	0.030082	0.918922	0.007234
C72	C	0.363415	1.252256	0.340567
C73	C	-0.262936	0.620942	-0.282890
C74	C	0.070398	0.954276	0.050443
C75	C	0.403731	1.287609	0.383776
C76	C	-0.262932	0.691629	-0.282885
C77	C	0.070402	1.024963	0.050449
C78	C	0.403735	1.358296	0.383782
C79	C	-0.262949	0.335869	-0.282913
C80	C	0.070384	0.669202	0.050421
C81	C	0.403717	1.002536	0.383754
C82	C	-0.262958	0.265177	-0.282920
C83	C	0.070376	0.598510	0.050413
C84	C	0.403709	0.931844	0.383746
C85	C	-0.343577	0.265167	-0.369330
C86	C	-0.010244	0.598501	-0.035996
C87	C	0.323090	0.931834	0.297337
C88	C	-0.343573	0.335854	-0.369324
C89	C	-0.010240	0.669188	-0.035991
C90	C	0.323093	1.002521	0.297343
C91	C	-0.303255	0.371202	-0.326117
C92	C	0.030078	0.704535	0.007216
C93	C	0.363411	1.037868	0.340549
C94	C	-0.303254	0.447850	-0.326109
C95	C	0.030080	0.781183	0.007225
C96	C	0.363413	1.114517	0.340558
C97	C	-0.303256	0.508942	-0.326105
C98	C	0.030077	0.842275	0.007229
C99	C	0.363411	1.175608	0.340562
C100	C	-0.569628	1.021312	-0.282828
C101	C	-0.236294	1.354646	0.050505
C102	C	0.097039	1.687979	0.383838
C103	C	-0.635370	1.021344	-0.282844
C104	C	-0.302037	1.354677	0.050490
C105	C	0.031296	1.688011	0.383823
C106	C	-0.668251	0.978039	-0.326092
C107	C	-0.334918	1.311372	0.007241
C108	C	-0.001584	1.644706	0.340574
C109	C	-0.635384	0.934712	-0.369341
C110	C	-0.302050	1.268045	-0.036008
C111	C	0.031283	1.601378	0.297325
C112	C	-0.569643	0.934686	-0.369330
C113	C	-0.236309	1.268019	-0.035996
C114	C	0.097024	1.601353	0.297337
N115	N	-0.771517	0.918828	-0.331245
N116	N	-0.438183	1.252161	0.002089
N117	N	-0.104850	1.585495	0.335422
N118	N	-0.833968	0.918854	-0.331252
N119	N	-0.500635	1.252188	0.002081
N120	N	-0.167301	1.585521	0.335415
C121	C	-0.866326	0.978115	-0.326131
C122	C	-0.532992	1.311448	0.007202
C123	C	-0.199659	1.644782	0.340536
N124	N	-0.833872	1.037349	-0.320989
N125	N	-0.500539	1.370683	0.012344
N126	N	-0.167206	1.704016	0.345677
N127	N	-0.771415	1.037322	-0.320979
N128	N	-0.438082	1.370656	0.012354
N129	N	-0.104749	1.703989	0.345688
C130	C	-0.739536	0.978062	-0.326110
C131	C	-0.406203	1.311396	0.007223
C132	C	-0.072870	1.644729	0.340557
C133	C	-0.970470	1.021477	-0.282905
C134	C	-0.637137	1.354811	0.050429
C135	C	-0.303804	1.688144	0.383762
C136	C	-1.036214	1.021510	-0.282925
C137	C	-0.702881	1.354844	0.050409
C138	C	-0.369547	1.688177	0.383742
C139	C	-1.036226	0.934872	-0.369419
C140	C	-0.702893	1.268205	-0.036085
C141	C	-0.369560	1.601539	0.297248
C142	C	-0.970484	0.934845	-0.369402
C143	C	-0.637151	1.268178	-0.036069
C144	C	-0.303817	1.601512	0.297264
C145	C	-0.937610	0.978147	-0.326142
C146	C	-0.604277	1.311480	0.007192
C147	C	-0.270943	1.644814	0.340525
C148	C	-0.139058	0.978160	-0.326152
C149	C	0.194275	1.311493	0.007181
C150	C	0.527608	1.644827	0.340514
C151	C	-0.069090	0.978206	-0.326175
C152	C	0.264243	1.311539	0.007159
C153	C	0.597576	1.644873	0.340492
C154	C	-0.303206	0.978071	-0.502643
C155	C	0.030127	1.311404	-0.169309
C156	C	0.363461	1.644737	0.164024
C157	C	-0.303188	0.978078	-0.577875
C158	C	0.030145	1.311412	-0.244541
C159	C	0.363479	1.644745	0.088792
C160	C	-0.303261	1.154595	-0.326122
C161	C	0.030072	1.487929	0.007211
C162	C	0.363405	1.821262	0.340545
C163	C	-0.303267	1.229827	-0.326132
C164	C	0.030067	1.563161	0.007202
C165	C	0.363400	1.896494	0.340535
C166	C	-0.343352	1.021449	-1.039656
C167	C	-0.010019	1.354782	-0.706323
C168	C	0.323314	1.688116	-0.372989
C169	C	-0.343370	1.021430	-0.968968
C170	C	-0.010036	1.354764	-0.635634
C171	C	0.323297	1.688097	-0.302301
C172	C	-0.303117	0.978162	-0.933637
C173	C	0.030216	1.311496	-0.600303
C174	C	0.363550	1.644829	-0.266970
C175	C	-0.262849	0.934905	-0.968998
C176	C	0.070484	1.268239	-0.635664
C177	C	0.403817	1.601572	-0.302331
C178	C	-0.262836	0.934921	-1.039685
C179	C	0.070497	1.268255	-0.706352
C180	C	0.403831	1.601588	-0.373018
C181	C	-0.262903	0.934840	-0.683924
C182	C	0.070430	1.268173	-0.350591
C183	C	0.403763	1.601507	-0.017258
C184	C	-0.262918	0.934829	-0.613232
C185	C	0.070415	1.268162	-0.279899
C186	C	0.403748	1.601496	0.053435
C187	C	-0.343437	1.021349	-0.613207
C188	C	-0.010104	1.354683	-0.279874
C189	C	0.323230	1.688016	0.053460
C190	C	-0.343423	1.021365	-0.683894
C191	C	-0.010090	1.354698	-0.350561
C192	C	0.323243	1.688032	-0.017227
C193	C	-0.303158	0.978106	-0.719249
C194	C	0.030175	1.311439	-0.385916
C195	C	0.363508	1.644773	-0.052582
C196	C	-0.303141	0.978126	-0.795898
C197	C	0.030192	1.311459	-0.462564
C198	C	0.363525	1.644792	-0.129231
C199	C	-0.303131	0.978145	-0.856989
C200	C	0.030203	1.311479	-0.523656
C201	C	0.363536	1.644812	-0.190323
C202	C	-0.303246	0.978073	-0.150244
C203	C	0.030088	1.311407	0.183090
C204	C	0.363421	1.644740	0.516423
C205	C	-0.303087	0.978197	-0.075012
C206	C	0.030247	1.311530	0.258321
C207	C	0.363580	1.644864	0.591654
H208	H	-0.376386	0.592150	-0.404485
H209	H	-0.043052	0.925484	-0.071152
H210	H	0.290281	1.258817	0.262182
O211	O	-0.935011	1.068202	-0.236268
O212	O	-0.601678	1.401535	0.097066
O213	O	-0.268344	1.734869	0.430399
H214	H	-0.883776	1.060905	-0.243522
H215	H	-0.550442	1.394238	0.089811
H216	H	-0.217109	1.727571	0.423144
H217	H	-0.376128	1.056686	-1.068418
H218	H	-0.042795	1.390020	-0.735084
H219	H	0.290539	1.723353	-0.401751
O220	O	-0.386786	1.068094	-0.930831
O221	O	-0.053453	1.401428	-0.597497
O222	O	0.279881	1.734761	-0.264164
H223	H	-0.414764	1.098194	-0.967274
H224	H	-0.081430	1.431528	-0.633941
H225	H	0.251903	1.764861	-0.300607
O226	O	-0.219474	0.582832	-0.236275
O227	O	0.113859	0.916165	0.097059
O228	O	0.447192	1.249499	0.430392
H229	H	-0.226259	0.527740	-0.243525
H230	H	0.107074	0.861073	0.089808
H231	H	0.440408	1.194406	0.423142
O232	O	-0.670824	1.068068	-0.236198
O233	O	-0.337491	1.401401	0.097135
O234	O	-0.004157	1.734735	0.430468
H235	H	-0.636920	1.098170	-0.206112
H236	H	-0.303586	1.431503	0.127222
H237	H	0.029747	1.764836	0.460555
H238	H	-0.376225	1.056571	-0.584412
H239	H	-0.042891	1.389904	-0.251079
H240	H	0.290442	1.723238	0.082254
O241	O	-0.219501	0.888160	-0.575121
O242	O	0.113832	1.221493	-0.241787
O243	O	0.447166	1.554827	0.091546
H244	H	-0.191503	0.858078	-0.611580
H245	H	0.141831	1.191411	-0.278247
H246	H	0.475164	1.524745	0.055087
O247	O	-1.071660	1.068247	-0.236291
O248	O	-0.738327	1.401581	0.097043
O249	O	-0.404994	1.734914	0.430376
H250	H	-1.101669	1.037990	-0.201839
H251	H	-0.768336	1.371324	0.131494
H252	H	-0.435002	1.704657	0.464827
H253	H	-0.376199	1.056601	-0.712657
H254	H	-0.042866	1.389934	-0.379324
H255	H	0.290468	1.723267	-0.045990
O256	O	-0.387044	0.373972	-0.415924
O257	O	-0.053711	0.707305	-0.082590
O258	O	0.279623	1.040639	0.250743
H259	H	-0.415071	0.337516	-0.445977
H260	H	-0.081738	0.670849	-0.112643
H261	H	0.251596	1.004182	0.220690
O262	O	-0.387059	0.227044	-0.415942
O263	O	-0.053725	0.560378	-0.082609
O264	O	0.279608	0.893711	0.250724
H265	H	-0.380286	0.171954	-0.408698
H266	H	-0.046953	0.505287	-0.075364
H267	H	0.286380	0.838621	0.257969
H268	H	-0.230103	0.720409	-0.247704
H269	H	0.103231	1.053743	0.085629
H270	H	0.436564	1.387076	0.418962
H271	H	-0.542888	0.899405	-0.404542
H272	H	-0.209555	1.232739	-0.071209
H273	H	0.123779	1.566072	0.262125
O274	O	-0.219478	0.888184	-0.722055
O275	O	0.113855	1.221517	-0.388722
O276	O	0.447188	1.554851	-0.055389
H277	H	-0.187451	0.918502	-0.754281
H278	H	0.145882	1.251836	-0.420947
H279	H	0.479215	1.585169	-0.087614
O280	O	-0.670842	0.887995	-0.415982
O281	O	-0.337509	1.221328	-0.082649
O282	O	-0.004175	1.554662	0.250684
H283	H	-0.722077	0.895284	-0.408719
H284	H	-0.388744	1.228617	-0.075386
H285	H	-0.055411	1.561950	0.257948
H286	H	-0.230047	0.899702	-1.068471
H287	H	0.103287	1.233035	-0.735138
H288	H	0.436620	1.566368	-0.401804
O289	O	-0.219429	0.888239	-0.930896
O290	O	0.113905	1.221572	-0.597562
O291	O	0.447238	1.554906	-0.264229
H292	H	-0.226196	0.895500	-0.875802
H293	H	0.107137	1.228833	-0.542469
H294	H	0.440471	1.562167	-0.209135
O295	O	-0.534169	1.068023	-0.236180
O296	O	-0.200836	1.401357	0.097153
O297	O	0.132498	1.734690	0.430486
H298	H	-0.568068	1.098161	-0.206120
H299	H	-0.234734	1.431494	0.127213
H300	H	0.098599	1.764827	0.460547
H301	H	-0.230130	0.236406	-0.247740
H302	H	0.103203	0.569739	0.085593
H303	H	0.436536	0.903073	0.418927
O304	O	-0.387031	0.729731	-0.415892
O305	O	-0.053698	1.063064	-0.082558
O306	O	0.279636	1.396398	0.250775
H307	H	-0.415057	0.693272	-0.445943
H308	H	-0.081723	1.026606	-0.112610
H309	H	0.251610	1.359939	0.220723
H310	H	-0.230125	0.364640	-0.247726
H311	H	0.103209	0.697973	0.085607
H312	H	0.436542	1.031307	0.418941
H313	H	-1.062997	0.899615	-0.404636
H314	H	-0.729664	1.232949	-0.071302
H315	H	-0.396331	1.566282	0.262031
O316	O	-0.935036	0.888099	-0.416023
O317	O	-0.601703	1.221432	-0.082690
O318	O	-0.268369	1.554766	0.250644
H319	H	-0.968943	0.857983	-0.446093
H320	H	-0.635609	1.191316	-0.112759
H321	H	-0.302276	1.524650	0.220574
