data_functionalizedCrystal
_audit_creation_method	'MofGen! by Chris Wilmer'
_symmetry_space_group_name_H-M	'P1'
_symmetry_Int_Tables_number	1
_symmetry_cell_setting	triclinic
loop_
_symmetry_equiv_pos_as_xyz
  x,y,z
_cell_length_a	25.639242
_cell_length_b	19.121063
_cell_length_c	19.120904
_cell_angle_alpha	85.258387
_cell_angle_beta	92.414207
_cell_angle_gamma	87.535104
loop_
_atom_site_label
_atom_site_type_symbol
_atom_site_fract_x
_atom_site_fract_y
_atom_site_fract_z
Zn1	Zn	0.776825	0.297199	-0.409934
Zn2	Zn	1.276825	0.797199	0.090066
Zn3	Zn	0.776760	0.409846	-0.297285
Zn4	Zn	1.276760	0.909846	0.202715
Zn5	Zn	0.693292	0.292190	-0.292269
Zn6	Zn	1.193292	0.792190	0.207731
Zn7	Zn	0.685471	0.414816	-0.414886
Zn8	Zn	1.185471	0.914816	0.085114
O9	O	0.733087	0.353513	-0.353593
O10	O	1.233087	0.853513	0.146407
O11	O	0.849980	0.312158	-0.395017
O12	O	1.349980	0.812158	0.104983
O13	O	0.768934	0.390063	-0.198160
O14	O	1.268934	0.890063	0.301840
O15	O	0.707673	0.194392	-0.303706
O16	O	1.207673	0.694392	0.196294
O17	O	0.849933	0.394919	-0.312254
O18	O	1.349933	0.894919	0.187746
O19	O	0.769045	0.198072	-0.390154
O20	O	1.269045	0.698072	0.109846
O21	O	0.707611	0.303622	-0.194475
O22	O	1.207611	0.803622	0.305525
O23	O	0.619091	0.308441	-0.308508
O24	O	1.119091	0.808441	0.191492
O25	O	0.694343	0.403390	-0.512689
O26	O	1.194343	0.903390	-0.012689
O27	O	0.613344	0.398533	-0.398594
O28	O	1.113344	0.898533	0.101406
O29	O	0.761460	0.316977	-0.509050
O30	O	1.261460	0.816977	-0.009050
O31	O	0.761350	0.508968	-0.317056
O32	O	1.261350	1.008968	0.182944
O33	O	0.694280	0.512619	-0.403457
O34	O	1.194280	1.012619	0.096543
C35	C	0.726973	0.536324	-0.361354
C36	C	1.226973	1.036324	0.138646
C37	C	0.724404	0.614533	-0.364697
C38	C	1.224404	1.114533	0.135303
C39	C	0.597247	0.353483	-0.353545
C40	C	1.097247	0.853483	0.146455
C41	C	0.539133	0.353488	-0.353541
C42	C	1.039133	0.853488	0.146459
C43	C	0.727036	0.361297	-0.537113
C44	C	1.227036	0.861297	-0.037113
C45	C	0.724458	0.364613	-0.615318
C46	C	1.224458	0.864613	-0.115318
C47	C	0.175783	0.400497	-0.400462
C48	C	0.675783	0.900497	0.099538
C49	C	0.121178	0.400502	-0.400473
C50	C	0.621178	0.900502	0.099527
O51	O	0.090404	0.440435	-0.440325
O52	O	0.590404	0.940435	0.059675
N53	N	0.096846	0.353534	-0.353640
N54	N	0.596846	0.853534	0.146360
C55	C	0.127121	0.306554	-0.306798
C56	C	0.627121	0.806554	0.193202
O57	O	0.101411	0.266604	-0.266964
O58	O	0.601411	0.766604	0.233036
C59	C	0.181725	0.306546	-0.306790
C60	C	0.681725	0.806546	0.193210
C61	C	0.206054	0.353522	-0.353622
C62	C	0.706054	0.853522	0.146378
C63	C	0.200113	0.447469	-0.447290
C64	C	0.700113	0.947469	0.052710
C65	C	0.254714	0.447465	-0.447277
C66	C	0.754714	0.947465	0.052723
C67	C	0.284985	0.400489	-0.400437
C68	C	0.784985	0.900489	0.099563
C69	C	0.260655	0.353518	-0.353609
C70	C	0.760655	0.853518	0.146391
C71	C	0.211999	0.259562	-0.259952
C72	C	0.711999	0.759562	0.240048
C73	C	0.266607	0.259558	-0.259949
C74	C	0.766607	0.759558	0.240051
C75	C	0.290936	0.306534	-0.306780
C76	C	0.790936	0.806534	0.193220
C77	C	0.345528	0.306538	-0.306757
C78	C	0.845528	0.806538	0.193243
N79	N	0.369860	0.353506	-0.353589
N80	N	0.869860	0.853506	0.146411
C81	C	0.339589	0.400482	-0.400430
C82	C	0.839589	0.900482	0.099570
C83	C	0.012449	0.306572	-0.306818
C84	C	0.512449	0.806572	0.193182
C85	C	-0.042153	0.306583	-0.306821
C86	C	0.457847	0.806583	0.193179
C87	C	-0.048093	0.400531	-0.400497
C88	C	0.451907	0.900531	0.099503
C89	C	0.006511	0.400523	-0.400490
C90	C	0.506511	0.900523	0.099510
C91	C	0.036782	0.353540	-0.353650
C92	C	0.536782	0.853540	0.146350
C93	C	0.454255	0.400470	-0.400400
C94	C	0.954255	0.900470	0.099600
C95	C	0.508861	0.400464	-0.400381
C96	C	1.008861	0.900464	0.099619
C97	C	0.514796	0.306513	-0.306708
C98	C	1.014796	0.806513	0.193292
C99	C	0.460195	0.306522	-0.306723
C100	C	0.960195	0.806522	0.193277
C101	C	0.429925	0.353503	-0.353575
C102	C	0.929925	0.853503	0.146425
O103	O	0.376335	0.266624	-0.266927
O104	O	0.876335	0.766624	0.233073
O105	O	0.365307	0.440418	-0.440263
O106	O	0.865307	0.940418	0.059737
C107	C	0.869457	0.353543	-0.353643
C108	C	1.369457	0.853543	0.146357
C109	C	0.927570	0.353556	-0.353664
C110	C	1.427570	0.853556	0.146336
C111	C	0.739239	0.169988	-0.345818
C112	C	1.239239	0.669988	0.154182
C113	C	0.741860	0.091781	-0.342505
C114	C	1.241860	0.591781	0.157495
C115	C	0.758142	0.649352	-0.321321
C116	C	1.258142	1.149352	0.178679
C117	C	0.755730	0.722838	-0.324469
C118	C	1.255730	1.222838	0.175531
C119	C	0.719576	0.761502	-0.370991
C120	C	1.219576	1.261502	0.129009
C121	C	0.685837	0.726677	-0.414372
C122	C	1.185837	1.226677	0.085628
C123	C	0.688252	0.653193	-0.411227
C124	C	1.188252	1.153193	0.088773
C125	C	0.710536	0.983472	-0.382741
C126	C	1.210536	1.483472	0.117259
C127	C	0.708122	1.056961	-0.385881
C128	C	1.208122	1.556961	0.114119
C129	C	0.778016	1.053117	-0.295979
C130	C	1.278016	1.553117	0.204021
C131	C	0.780426	0.979631	-0.292834
C132	C	1.280426	1.479631	0.207166
C133	C	0.746689	0.944813	-0.336218
C134	C	1.246689	1.444813	0.163782
C135	C	0.717108	0.836616	-0.374209
C136	C	1.217108	1.336616	0.125791
C137	C	0.749160	0.869701	-0.333003
C138	C	1.249160	1.369701	0.166997
C139	C	0.758189	0.321183	-0.650166
C140	C	1.258189	0.821183	-0.150166
C141	C	0.755760	0.324297	-0.723648
C142	C	1.255760	0.824297	-0.223648
C143	C	0.719602	0.370845	-0.762280
C144	C	1.219602	0.870845	-0.262280
C145	C	0.685867	0.414277	-0.727427
C146	C	1.185867	0.914277	-0.227427
C147	C	0.688294	0.411159	-0.653947
C148	C	1.188294	0.911159	-0.153947
C149	C	0.710524	0.382507	-0.984239
C150	C	1.210524	0.882507	-0.484239
C151	C	0.708101	0.385623	-1.057725
C152	C	1.208101	0.885623	-0.557725
C153	C	0.777994	0.295642	-1.053940
C154	C	1.277994	0.795642	-0.553940
C155	C	0.780419	0.292531	-0.980458
C156	C	1.280419	0.792531	-0.480458
C157	C	0.746683	0.335961	-0.945611
C158	C	1.246683	0.835961	-0.445611
C159	C	0.717119	0.374031	-0.837391
C160	C	1.217119	0.874031	-0.337391
C161	C	0.749163	0.332771	-0.870502
C162	C	1.249163	0.832771	-0.370502
C163	C	0.739146	0.345709	-0.170786
C164	C	1.239146	0.845709	0.329214
C165	C	0.741832	0.342193	-0.092573
C166	C	1.241832	0.842193	0.407427
H167	H	0.528668	0.438720	-0.438517
H168	H	1.028668	0.938720	0.061483
H169	H	0.656424	0.452175	-0.758888
H170	H	1.156424	0.952175	-0.258888
H171	H	0.429616	0.438724	-0.438552
H172	H	0.929616	0.938724	0.061448
H173	H	0.660780	0.624844	-0.446549
H174	H	1.160780	1.124844	0.053451
H175	H	0.291251	0.221295	-0.221810
H176	H	0.791251	0.721295	0.278190
H177	H	0.660821	0.446518	-0.625574
H178	H	1.160821	0.946518	-0.125574
H179	H	0.805484	1.081474	-0.260659
H180	H	1.305484	1.581474	0.239341
H181	H	0.809865	0.254629	-0.949008
H182	H	1.309865	0.754629	-0.449008
H183	H	0.037093	0.268314	-0.268670
H184	H	0.537093	0.768314	0.231330
H185	H	0.683060	0.417881	-0.955876
H186	H	1.183060	0.917881	-0.455876
H187	H	-0.072750	0.438779	-0.438639
H188	H	0.427250	0.938779	0.061361
H189	H	0.192200	0.221311	-0.221815
H190	H	0.692200	0.721311	0.278185
H191	H	0.787580	0.617876	-0.283434
H192	H	1.287580	1.117876	0.216566
H193	H	0.787635	0.283281	-0.618716
H194	H	1.287635	0.783281	-0.118716
H195	H	0.809865	0.948152	-0.254953
H196	H	1.309865	1.448152	0.245047
H197	H	0.440385	0.268272	-0.268588
H198	H	0.940385	0.768272	0.231412
H199	H	0.778601	0.294869	-0.839044
H200	H	1.278601	0.794869	-0.339044
H201	H	0.678688	1.088440	-0.423777
H202	H	1.178688	1.588440	0.076223
H203	H	0.274518	0.485716	-0.485413
H204	H	0.774518	0.985716	0.014587
H205	H	0.539453	0.268269	-0.268569
H206	H	1.039453	0.768269	0.231431
H207	H	0.678655	0.423530	-1.089178
H208	H	1.178655	0.923530	-0.589178
H209	H	0.683065	0.955129	-0.418064
H210	H	1.183065	1.455129	0.081936
H211	H	0.687682	0.411934	-0.868854
H212	H	1.187682	0.911934	-0.368854
H213	H	0.656402	0.758164	-0.452255
H214	H	1.156402	1.258164	0.047745
H215	H	0.778598	0.838218	-0.295128
H216	H	1.278598	1.338218	0.204872
H217	H	0.783229	0.288934	-0.752017
H218	H	1.283229	0.788934	-0.252017
H219	H	0.805460	0.260284	-1.082320
H220	H	1.305460	0.760284	-0.582320
H221	H	0.175471	0.485722	-0.485436
H222	H	0.675471	0.985722	0.014564
H223	H	0.026316	0.438774	-0.438625
H224	H	0.526316	0.938774	0.061375
H225	H	0.687671	0.868104	-0.412086
H226	H	1.187671	1.368104	0.087914
H227	H	0.783202	0.751185	-0.289147
H228	H	1.283202	1.251185	0.210853
H229	H	-0.061958	0.268337	-0.268680
H230	H	0.438042	0.768337	0.231320
