data_functionalizedCrystal
_audit_creation_method	'MofGen! by Chris Wilmer'
_symmetry_space_group_name_H-M	'P1'
_symmetry_Int_Tables_number	1
_symmetry_cell_setting	triclinic
loop_
_symmetry_equiv_pos_as_xyz
  x,y,z
_cell_length_a	18.215407
_cell_length_b	19.805405
_cell_length_c	18.215399
_cell_angle_alpha	89.972077
_cell_angle_beta	89.983101
_cell_angle_gamma	90.024185
loop_
_atom_site_label
_atom_site_type_symbol
_atom_site_fract_x
_atom_site_fract_y
_atom_site_fract_z
Zn1	Zn	1.125062	-0.269516	-0.416058
Zn2	Zn	1.625062	0.230484	0.083942
Zn3	Zn	1.124967	-0.382707	-0.292992
Zn4	Zn	1.624967	0.117293	0.207008
Zn5	Zn	1.001995	-0.269532	-0.293012
Zn6	Zn	1.501995	0.230468	0.206988
Zn7	Zn	1.001957	-0.382663	-0.416023
Zn8	Zn	1.501957	0.117337	0.083977
O9	O	1.063495	-0.326105	-0.354521
O10	O	1.563495	0.173895	0.145479
O11	O	1.228034	-0.284542	-0.399740
O12	O	1.728034	0.215458	0.100260
O13	O	1.108630	-0.367719	-0.190010
O14	O	1.608630	0.132281	0.309990
O15	O	1.018376	-0.174814	-0.309357
O16	O	1.518376	0.325186	0.190643
O17	O	1.227964	-0.367703	-0.309323
O18	O	1.727964	0.132297	0.190677
O19	O	1.108793	-0.174802	-0.399759
O20	O	1.608793	0.325198	0.100241
O21	O	1.018283	-0.284570	-0.190025
O22	O	1.518283	0.215430	0.309975
O23	O	0.899006	-0.284528	-0.309323
O24	O	1.399006	0.215472	0.190677
O25	O	1.018311	-0.367629	-0.519012
O26	O	1.518311	0.132371	-0.019012
O27	O	0.898978	-0.367645	-0.399699
O28	O	1.398978	0.132355	0.100301
O29	O	1.108756	-0.284500	-0.519038
O30	O	1.608756	0.215500	-0.019038
O31	O	1.108593	-0.477418	-0.309289
O32	O	1.608593	0.022582	0.190711
O33	O	1.018219	-0.477386	-0.399680
O34	O	1.518219	0.022614	0.100320
C35	C	0.872289	-0.326084	-0.354510
C36	C	1.372289	0.173916	0.145490
C37	C	0.790490	-0.326091	-0.354523
C38	C	1.290490	0.173909	0.145477
C39	C	0.525437	-0.369455	-0.401516
C40	C	1.025437	0.130545	0.098484
C41	C	0.602296	-0.369449	-0.401512
C42	C	1.102296	0.130551	0.098488
C43	C	0.602295	-0.282770	-0.307540
C44	C	1.102295	0.217230	0.192460
C45	C	0.525437	-0.282779	-0.307541
C46	C	1.025437	0.217221	0.192459
C47	C	0.487011	-0.326121	-0.354533
C48	C	0.987011	0.173879	0.145467
C49	C	0.640727	-0.326105	-0.354529
C50	C	1.140727	0.173895	0.145471
C51	C	0.724060	-0.326099	-0.354524
C52	C	1.224060	0.173901	0.145476
C53	C	0.403672	-0.326129	-0.354536
C54	C	0.903672	0.173871	0.145464
C55	C	1.063412	-0.501961	-0.354495
C56	C	1.563412	-0.001961	0.145505
C57	C	1.063443	-0.577193	-0.354508
C58	C	1.563443	-0.077193	0.145492
C59	C	1.110495	-0.612472	-0.401617
C60	C	1.610495	-0.112472	0.098383
C61	C	1.110522	-0.683161	-0.401631
C62	C	1.610522	-0.183161	0.098369
C63	C	1.063499	-0.718568	-0.354531
C64	C	1.563499	-0.218568	0.145469
C65	C	1.016442	-0.683284	-0.307420
C66	C	1.516442	-0.183284	0.192580
C67	C	1.016412	-0.612596	-0.307411
C68	C	1.516412	-0.112596	0.192589
C69	C	1.016560	-0.968357	-0.307458
C70	C	1.516560	-0.468357	0.192542
C71	C	1.016595	-1.039049	-0.307469
C72	C	1.516595	-0.539049	0.192531
C73	C	1.110670	-1.038921	-0.401678
C74	C	1.610670	-0.538921	0.098322
C75	C	1.110640	-0.968234	-0.401668
C76	C	1.610640	-0.468234	0.098332
C77	C	1.063580	-0.932956	-0.354560
C78	C	1.563580	-0.432956	0.145440
C79	C	1.063551	-0.856307	-0.354547
C80	C	1.563551	-0.356307	0.145453
C81	C	1.063532	-0.795215	-0.354540
C82	C	1.563532	-0.295215	0.145460
C83	C	1.255448	-0.326126	-0.354533
C84	C	1.755448	0.173874	0.145467
C85	C	1.337247	-0.326135	-0.354538
C86	C	1.837247	0.173865	0.145462
C87	C	1.063540	-0.326058	-0.546474
C88	C	1.563540	0.173942	-0.046474
C89	C	1.063559	-0.326038	-0.628273
C90	C	1.563559	0.173962	-0.128273
C91	C	1.063600	-0.149562	-0.354564
C92	C	1.563600	0.350438	0.145436
C93	C	1.063644	-0.074330	-0.354583
C94	C	1.563644	0.425670	0.145417
C95	C	1.110671	-0.282712	-0.816482
C96	C	1.610671	0.217288	-0.316482
C97	C	1.110680	-0.282693	-0.893341
C98	C	1.610680	0.217307	-0.393341
C99	C	1.016500	-0.369259	-0.893303
C100	C	1.516500	0.130741	-0.393303
C101	C	1.016488	-0.369275	-0.816445
C102	C	1.516488	0.130725	-0.316445
C103	C	1.063578	-0.326003	-0.778037
C104	C	1.563578	0.173997	-0.278037
C105	C	1.063598	-0.325967	-0.931753
C106	C	1.563598	0.174033	-0.431753
C107	C	1.063607	-0.325946	-1.015087
C108	C	1.563607	0.174054	-0.515087
C109	C	1.063568	-0.326023	-0.694698
C110	C	1.563568	0.173977	-0.194698
C111	C	1.063493	-0.326102	-0.163315
C112	C	1.563493	0.173898	0.336685
C113	C	1.063617	-0.325932	-0.081517
C114	C	1.563617	0.174068	0.418483
H115	H	1.148790	-0.583648	-0.439968
H116	H	1.648790	-0.083648	0.060032
N117	N	0.643737	-0.416191	-0.452187
N118	N	1.143737	0.083809	0.047813
H119	H	0.630383	-0.405738	-0.504788
H120	H	1.130383	0.094262	-0.004788
H121	H	0.698245	-0.409593	-0.444995
H122	H	1.198245	0.090407	0.055005
N123	N	0.965686	-0.415973	-0.774986
N124	N	1.465686	0.084027	-0.274986
H125	H	0.995566	-0.447350	-0.743090
H126	H	1.495566	0.052650	-0.243090
H127	H	0.931599	-0.388421	-0.743146
H128	H	1.431599	0.111579	-0.243146
H129	H	0.494149	-0.247491	-0.269278
H130	H	0.994149	0.252509	0.230722
N131	N	0.643741	-0.236023	-0.256860
N132	N	1.143741	0.263977	0.243140
H133	H	0.698261	-0.242590	-0.263990
H134	H	1.198261	0.257410	0.236010
H135	H	0.630323	-0.187698	-0.268405
H136	H	1.130323	0.312302	0.231595
N137	N	1.161234	-0.721213	-0.452478
N138	N	1.661234	-0.221213	0.047522
H139	H	1.191009	-0.688057	-0.482322
H140	H	1.691009	-0.188057	0.017678
H141	H	1.195332	-0.750554	-0.422592
H142	H	1.695332	-0.250554	0.077408
N143	N	0.965728	-0.721469	-0.256614
N144	N	1.465728	-0.221469	0.243386
H145	H	0.913133	-0.709205	-0.267994
H146	H	1.413133	-0.209205	0.232006
H147	H	0.972952	-0.771591	-0.263788
H148	H	1.472952	-0.271591	0.236212
H149	H	0.978162	-0.404491	-0.924584
H150	H	1.478162	0.095509	-0.424584
H151	H	1.148933	-0.939408	-0.440019
H152	H	1.648933	-0.439408	0.059981
H153	H	1.149013	-0.247475	-0.785212
H154	H	1.649013	0.252525	-0.285212
H155	H	0.494153	-0.404746	-0.439779
H156	H	0.994153	0.095254	0.060221
H157	H	1.148986	-1.067653	-0.440038
H158	H	1.648986	-0.567653	0.059962
N159	N	1.161465	-0.235994	-0.934807
N160	N	1.661465	0.264006	-0.434807
H161	H	1.191289	-0.208583	-0.898811
H162	H	1.691289	0.291417	-0.398811
H163	H	1.195513	-0.263534	-0.966699
H164	H	1.695513	0.236466	-0.466699
N165	N	0.965876	-1.077241	-0.256666
N166	N	1.465876	-0.577241	0.243334
H167	H	0.936058	-1.044167	-0.226822
H168	H	1.436058	-0.544167	0.273178
H169	H	0.931820	-1.106581	-0.286600
H170	H	1.431820	-0.606581	0.213400
H171	H	0.978244	-0.939639	-0.269099
H172	H	1.478244	-0.439639	0.230901
N173	N	0.965661	-0.574541	-0.256603
N174	N	1.465661	-0.074541	0.243397
H175	H	0.935877	-0.607696	-0.226766
H176	H	1.435877	-0.107696	0.273234
H177	H	0.995623	-0.545208	-0.222568
H178	H	1.495623	-0.045208	0.277432
