data_functionalizedCrystal
_audit_creation_method	'MofGen! by Chris Wilmer'
_symmetry_space_group_name_H-M	'P1'
_symmetry_Int_Tables_number	1
_symmetry_cell_setting	triclinic
loop_
_symmetry_equiv_pos_as_xyz
  x,y,z
_cell_length_a	19.805407
_cell_length_b	12.827892
_cell_length_c	19.805399
_cell_angle_alpha	90.022529
_cell_angle_beta	90.019573
_cell_angle_gamma	90.015392
loop_
_atom_site_label
_atom_site_type_symbol
_atom_site_fract_x
_atom_site_fract_y
_atom_site_fract_z
Zn1	Zn	1.034788	-0.416057	0.382743
Zn2	Zn	1.034724	-0.590812	0.269565
Zn3	Zn	0.921602	-0.416086	0.269568
Zn4	Zn	0.921587	-0.590757	0.382712
O5	O	0.978175	-0.503428	0.326147
O6	O	1.129496	-0.439250	0.367742
O7	O	1.019698	-0.567670	0.174849
O8	O	0.936649	-0.269846	0.284595
O9	O	1.129449	-0.567642	0.284590
O10	O	1.019806	-0.269825	0.367745
O11	O	0.936588	-0.439299	0.174851
O12	O	0.826884	-0.439245	0.284565
O13	O	0.936624	-0.567547	0.477433
O14	O	0.826873	-0.567575	0.367691
O15	O	1.019792	-0.439196	0.477456
O16	O	1.019684	-0.737041	0.284560
O17	O	0.936563	-0.737000	0.367688
C18	C	0.802319	-0.503408	0.326125
C19	C	0.727087	-0.503425	0.326132
C20	C	0.978133	-0.774938	0.326135
C21	C	0.978177	-0.891091	0.326153
C22	C	0.691755	-0.570347	0.369346
C23	C	0.621067	-0.570349	0.369355
C24	C	0.585712	-0.503433	0.326147
C25	C	0.621049	-0.436504	0.282931
C26	C	0.691736	-0.436497	0.282926
C27	C	0.335975	-0.436527	0.282954
C28	C	0.265283	-0.436540	0.282961
C29	C	0.265306	-0.570378	0.369383
C30	C	0.335993	-0.570372	0.369378
C31	C	0.371324	-0.503439	0.326165
C32	C	0.447973	-0.503436	0.326156
C33	C	0.509065	-0.503440	0.326152
C34	C	1.019357	-0.942862	0.285064
C35	C	1.019403	-1.062912	0.285081
C36	C	1.154718	-0.503449	0.326169
C37	C	1.229950	-0.503458	0.326179
C38	C	0.978213	-0.503362	0.502690
C39	C	0.978229	-0.503334	0.577922
C40	C	0.978236	-0.230858	0.326174
C41	C	0.978262	-0.114705	0.326185
C42	C	0.978176	-0.503418	0.150291
C43	C	0.978291	-0.503152	0.075060
C44	C	1.021536	-0.436499	0.613279
C45	C	1.021543	-0.436468	0.683968
C46	C	0.978246	-0.503280	0.719298
C47	C	0.934935	-0.570118	0.683935
C48	C	0.934925	-0.570143	0.613248
C49	C	0.934973	-0.570021	0.969009
C50	C	0.934988	-0.569994	1.039701
C51	C	1.021591	-0.436347	1.039728
C52	C	1.021581	-0.436371	0.969041
C53	C	0.978268	-0.503205	0.933685
C54	C	0.978260	-0.503236	0.857037
C55	C	0.978257	-0.503255	0.795945
H56	H	0.592303	-0.624844	0.404544
H57	H	1.054581	-0.898310	0.249875
O58	O	0.892956	-0.635121	0.578821
C59	C	0.931476	-0.702646	0.537946
H60	H	0.982777	-0.665797	0.527377
H61	H	0.903900	-0.716659	0.488228
H62	H	0.938897	-0.780083	0.565178
O63	O	1.063580	-0.371397	0.718234
C64	C	1.048799	-0.267250	0.700973
H65	H	1.022770	-0.265109	0.649646
H66	H	1.097659	-0.220402	0.698562
H67	H	1.014018	-0.232023	0.740753
H68	H	1.056795	-0.382096	0.584519
O69	O	1.063660	-0.371371	0.934827
C70	C	1.101898	-0.312389	0.981193
H71	H	1.074184	-0.308750	1.031577
H72	H	1.109131	-0.230061	0.960779
H73	H	1.153297	-0.350658	0.988716
H74	H	0.364733	-0.382034	0.247762
H75	H	0.720536	-0.624841	0.404529
H76	H	0.943002	-1.070191	0.361363
O77	O	1.063597	-0.371445	1.074179
C78	C	1.054335	-0.385759	1.144145
H79	H	1.002093	-0.419971	1.153788
H80	H	1.058948	-0.307471	1.171016
H81	H	1.094472	-0.441406	1.164209
H82	H	0.899728	-0.624402	1.068465
O83	O	0.936062	-0.944119	0.368104
C84	C	0.868584	-0.917652	0.353250
H85	H	0.867118	-0.838405	0.327263
H86	H	0.838202	-0.914022	0.402072
H87	H	0.845868	-0.979123	0.318403
H88	H	0.899715	-0.624457	0.940230
O89	O	1.061463	-1.116178	0.243196
C90	C	1.052153	-1.224183	0.252544
H91	H	1.029923	-1.238955	0.304758
H92	H	1.102855	-1.265659	0.248067
H93	H	1.016154	-1.255271	0.212369
H94	H	0.899680	-0.624514	0.712707
H95	H	0.236531	-0.624874	0.404572
O96	O	0.370232	-0.635406	0.411414
C97	C	0.323888	-0.694493	0.449548
H98	H	0.273506	-0.651702	0.451943
H99	H	0.344334	-0.705743	0.502863
H100	H	0.316351	-0.773812	0.424677
O101	O	0.231017	-0.371580	0.240892
C102	C	0.248251	-0.394291	0.173406
H103	H	0.299569	-0.434453	0.171956
H104	H	0.250667	-0.318807	0.143142
H105	H	0.208452	-0.447974	0.150547
O106	O	0.586602	-0.371594	0.240984
C107	C	0.516635	-0.385929	0.250266
H108	H	0.506978	-0.466624	0.272340
H109	H	0.489749	-0.378732	0.199578
H110	H	0.496600	-0.324023	0.286384
H111	H	0.720502	-0.381997	0.247740
