data_functionalizedCrystal
_audit_creation_method	'MofGen! by Chris Wilmer'
_symmetry_space_group_name_H-M	'P1'
_symmetry_Int_Tables_number	1
_symmetry_cell_setting	triclinic
loop_
_symmetry_equiv_pos_as_xyz
  x,y,z
_cell_length_a	15.625950
_cell_length_b	15.538191
_cell_length_c	9.730223
_cell_angle_alpha	90.002740
_cell_angle_beta	108.073200
_cell_angle_gamma	66.741480
loop_
_atom_site_label
_atom_site_type_symbol
_atom_site_fract_x
_atom_site_fract_y
_atom_site_fract_z
O1	O	1.155833	0.123027	0.461575
O2	O	0.888599	0.137649	0.328434
O3	O	1.074235	-0.006719	0.420915
O4	O	0.970197	0.267395	0.369094
O5	O	1.074233	-0.006715	0.649493
O6	O	0.888596	0.137653	0.557013
O7	O	1.155830	0.123031	0.690153
Zn8	Zn	1.022213	0.130343	0.659875
Zn9	Zn	1.022216	0.130338	0.358713
O10	O	0.970194	0.267399	0.597672
C11	C	0.855231	0.136985	0.426099
C12	C	0.755814	0.134988	0.376567
C13	C	0.428724	0.128483	0.836476
C14	C	0.335298	0.126625	0.789865
C15	C	0.335347	0.126622	0.540701
C16	C	0.428773	0.128484	0.587290
C17	C	0.475455	0.129413	0.735179
C18	C	0.475504	0.129415	0.485993
C19	C	0.568924	0.131272	0.532580
C20	C	0.615614	0.132199	0.680463
C21	C	0.568875	0.131271	0.781766
C22	C	0.428824	0.128479	0.338106
C23	C	0.475554	0.129410	0.236809
C24	C	0.568973	0.131274	0.283394
C25	C	0.615663	0.132200	0.431277
C26	C	0.615712	0.132202	0.182091
C27	C	0.709132	0.134059	0.228678
C28	C	0.709083	0.134057	0.477864
C29	C	1.085119	-0.041797	0.540623
C30	C	1.117543	-0.146326	0.556763
C31	C	0.795425	-0.434565	0.396308
C32	C	0.825914	-0.532788	0.411501
C33	C	0.997410	-0.554992	0.496943
C34	C	0.966935	-0.456769	0.481750
C35	C	0.865941	-0.396562	0.431433
C36	C	1.037451	-0.418766	0.516875
C37	C	1.006978	-0.320552	0.501690
C38	C	0.905989	-0.260339	0.451380
C39	C	0.835468	-0.298347	0.416248
C40	C	1.138445	-0.478975	0.567201
C41	C	1.208961	-0.440972	0.602327
C42	C	1.178489	-0.342756	0.587132
C43	C	1.077499	-0.282543	0.536822
C44	C	1.249009	-0.304747	0.622264
C45	C	1.218536	-0.206532	0.607079
C46	C	1.047026	-0.184328	0.521637
C47	C	1.189198	0.123695	0.592485
C48	C	1.288616	0.125692	0.642008
C49	C	0.959310	0.302478	0.477962
C50	C	0.926887	0.407006	0.461812
N51	N	1.022217	0.130345	0.865413
N52	N	1.022222	0.130328	0.153179
C53	C	1.104425	0.066441	0.978294
C54	C	1.104427	0.066429	1.122178
C55	C	0.940006	0.194235	1.040284
C56	C	0.940003	0.194241	0.896402
C57	C	1.199354	-0.007345	1.025577
C58	C	1.199356	-0.007356	1.169460
H59	H	0.297243	0.125889	0.872360
Br60	Br	0.828433	0.280945	1.082350
Br61	Br	1.134469	-0.636708	0.565244
H62	H	1.208209	-0.079602	0.990930
Br63	Br	0.272002	0.125324	0.340009
Br64	Br	1.386067	-0.386466	0.690582
Br65	Br	1.346020	-0.522688	0.670627
H66	H	0.606879	0.132042	0.902189
Br67	Br	1.314237	-0.154951	0.654783
Br68	Br	0.492079	0.129760	1.037182
H69	H	0.873057	0.246269	0.804490
Br70	Br	0.552368	0.130895	-0.018597
H71	H	1.263394	0.008244	1.240417
H72	H	1.200347	-0.075582	1.214566
H73	H	0.747087	0.134828	0.598287
Br74	Br	0.742405	0.134707	0.743697
H75	H	0.352753	0.126972	0.300179
Br76	Br	0.412210	0.128111	0.036118
Br77	Br	0.772561	0.135316	0.091206
H78	H	1.257277	0.015085	1.009810
H79	H	1.163252	-0.558947	0.579551
Br80	Br	0.909961	-0.102610	0.453330
H81	H	0.881180	-0.180367	0.439026
H82	H	0.753229	-0.249323	0.375266
H83	H	0.713186	-0.385541	0.355325
H84	H	0.768483	-0.563724	0.382914
