data_functionalizedCrystal
_audit_creation_method	'MofGen! by Chris Wilmer'
_symmetry_space_group_name_H-M	'P1'
_symmetry_Int_Tables_number	1
_symmetry_cell_setting	triclinic
loop_
_symmetry_equiv_pos_as_xyz
  x,y,z
_cell_length_a	11.169417
_cell_length_b	12.594515
_cell_length_c	11.169409
_cell_angle_alpha	89.968234
_cell_angle_beta	90.019824
_cell_angle_gamma	89.971073
loop_
_atom_site_label
_atom_site_type_symbol
_atom_site_fract_x
_atom_site_fract_y
_atom_site_fract_z
Zn1	Zn	1.834815	0.423631	0.678547
Zn2	Zn	1.834642	0.601657	0.477866
Zn3	Zn	1.634101	0.423696	0.477882
Zn4	Zn	1.634046	0.601571	0.678511
O5	O	1.734401	0.512639	0.578202
O6	O	2.002741	0.447256	0.651935
O7	O	1.807990	0.578114	0.309919
O8	O	1.660821	0.274741	0.504522
O9	O	2.002615	0.578051	0.504496
O10	O	1.808285	0.274694	0.651950
O11	O	1.660653	0.447366	0.309930
O12	O	1.466144	0.447282	0.504487
O13	O	1.660728	0.577903	0.846466
O14	O	1.466104	0.577966	0.651889
O15	O	1.808232	0.447172	0.846492
O16	O	1.807937	0.750592	0.504461
O17	O	1.660560	0.750528	0.651874
C18	C	1.422576	0.512623	0.578186
C19	C	1.289176	0.512641	0.578208
C20	C	1.734257	0.789180	0.578188
C21	C	1.734305	0.907485	0.578222
C22	C	1.654185	1.047506	0.658360
C23	C	1.763615	0.976591	0.687799
C24	C	1.624886	0.976829	0.548836
C25	C	1.843948	1.047355	0.607764
C26	C	1.705145	1.047600	0.468750
C27	C	1.814651	0.976716	0.498147
C28	C	2.047443	0.512656	0.578218
C29	C	2.180843	0.512663	0.578225
C30	C	1.734493	0.512521	0.891244
C31	C	1.734532	0.512470	1.024644
C32	C	1.734529	1.235018	0.578244
C33	C	1.734459	1.116712	0.578268
C34	C	1.734378	0.512680	0.266377
C35	C	1.734571	0.512430	0.132978
H36	H	1.788351	0.945404	0.780396
H37	H	1.936575	1.078209	0.632745
H38	H	1.882549	0.945831	0.430396
H39	H	1.680377	1.078811	0.376180
O40	O	1.514322	0.940011	0.519277
C41	C	1.304848	0.934201	0.570387
C42	C	1.429992	0.975969	0.603981
H43	H	1.236637	0.963237	0.638866
H44	H	1.279194	0.964675	0.477732
H45	H	1.306086	0.843692	0.569734
H46	H	1.428850	1.066475	0.604704
H47	H	1.455597	0.945413	0.696615
H48	H	1.586448	1.078585	0.726163
