data_functionalizedCrystal
_audit_creation_method	'MofGen! by Chris Wilmer'
_symmetry_space_group_name_H-M	'P1'
_symmetry_Int_Tables_number	1
_symmetry_cell_setting	triclinic
loop_
_symmetry_equiv_pos_as_xyz
  x,y,z
_cell_length_a	14.560438
_cell_length_b	21.606444
_cell_length_c	21.606444
_cell_angle_alpha	60.001331
_cell_angle_beta	90.003088
_cell_angle_gamma	60.000320
loop_
_atom_site_label
_atom_site_type_symbol
_atom_site_fract_x
_atom_site_fract_y
_atom_site_fract_z
Zr1	Zr	0.884736	0.677461	-0.081191
O2	O	0.738080	0.806582	-0.180015
O3	O	0.929695	0.548342	-0.050899
O4	O	0.929683	0.677466	-0.180018
O5	O	0.738100	0.677454	0.050957
O6	O	1.080822	0.677468	-0.180016
O7	O	0.738092	0.677458	-0.050897
O8	O	1.080843	0.446489	0.050953
O9	O	0.738079	0.908433	-0.180012
O10	O	1.061661	0.601451	-0.037975
O11	O	0.948874	0.601447	0.038036
O12	O	0.948860	0.753473	-0.113984
O13	O	0.836073	0.753469	-0.037973
Zr14	Zr	1.125796	0.677457	0.081257
Zr15	Zr	1.125784	0.677464	-0.081189
Zr16	Zr	0.884748	0.677454	0.081254
Zr17	Zr	0.884733	0.839901	-0.081186
Zr18	Zr	1.125799	0.515017	0.081252
O19	O	1.080837	0.806576	0.050965
O20	O	1.080820	0.806586	-0.180012
O21	O	0.738098	0.806572	0.050961
O22	O	1.272452	0.548336	0.180081
O23	O	1.272434	0.548346	-0.050895
O24	O	0.929712	0.548332	0.180077
O25	O	1.272432	0.677464	-0.050891
O26	O	1.080849	0.677452	0.180083
O27	O	0.929710	0.677451	0.180082
O28	O	1.272440	0.677460	0.050963
O29	O	0.929680	0.908435	-0.180010
O30	O	1.080852	0.446483	0.180076
O31	O	1.272453	0.446485	0.180078
O32	O	1.272444	0.446491	0.050955
O33	O	0.738088	0.908427	-0.050890
O34	O	0.929689	0.908430	-0.050887
O35	O	1.061672	0.601445	0.114050
O36	O	1.174459	0.601449	0.038039
O37	O	1.061658	0.753472	-0.037970
O38	O	0.948871	0.753467	0.038041
C39	C	1.005269	0.474271	0.000026
C40	C	1.005270	0.405311	0.000024
C41	C	1.064141	0.372916	-0.039654
C42	C	1.064145	0.308116	-0.039649
C43	C	1.005271	0.275717	0.000030
C44	C	0.946398	0.308114	0.039713
C45	C	0.946401	0.372909	0.039712
C46	C	0.946385	0.046805	0.039720
C47	C	0.946383	-0.017992	0.039716
C48	C	1.064129	-0.017988	-0.039642
C49	C	1.064132	0.046806	-0.039643
C50	C	1.005265	0.079195	0.000043
C51	C	1.005263	0.149458	0.000039
C52	C	1.005266	0.205460	0.000031
C53	C	0.703752	0.677456	0.000030
C54	C	0.601420	0.677454	0.000029
C55	C	0.612223	0.598102	0.039704
C56	C	0.516068	0.598106	0.039711
C57	C	0.398311	0.756822	-0.039640
C58	C	0.494465	0.756817	-0.039642
C59	C	0.719178	0.518739	0.079374
C60	C	0.729985	0.439380	0.119052
C61	C	0.633830	0.439384	0.119059
C62	C	0.526868	0.518747	0.079388
C63	C	1.306780	0.677463	0.000036
C64	C	1.409112	0.677464	0.000037
C65	C	1.005251	0.677468	-0.203162
C66	C	1.005246	0.677471	-0.272124
C67	C	1.005263	0.880647	0.000039
C68	C	1.005262	0.949607	0.000042
C69	C	0.946364	0.756824	-0.344199
C70	C	0.946374	0.756822	-0.408994
C71	C	1.005259	0.677465	-0.401712
C72	C	1.064148	0.598106	-0.329630
C73	C	1.064144	0.598109	-0.264837
C74	C	1.064166	0.598090	-0.590933
C75	C	1.064162	0.598093	-0.655734
C76	C	0.946395	0.756803	-0.735090
C77	C	0.946392	0.756807	-0.670297
C78	C	1.005285	0.677448	-0.598220
C79	C	1.005275	0.677451	-0.527963
C80	C	1.005263	0.677461	-0.471968
C81	C	1.005281	0.677450	0.203227
C82	C	1.005287	0.677447	0.272190
C83	C	1.306784	0.474275	0.000030
C84	C	1.409116	0.405316	0.000028
C85	C	1.005285	0.474262	0.203221
C86	C	1.005291	0.405299	0.272181
C87	C	1.306799	0.474266	0.203224
C88	C	1.409136	0.405304	0.272185
C89	C	0.703733	0.880652	-0.203158
C90	C	0.601396	0.949614	-0.272120
C91	C	0.703748	0.880644	0.000036
C92	C	0.601416	0.949603	0.000037
C93	C	1.005248	0.880656	-0.203155
C94	C	1.005241	0.949619	-0.272115
C95	C	1.398293	0.372933	-0.039657
C96	C	1.494435	0.308147	-0.039674
C97	C	1.601400	0.275742	0.000001
C98	C	1.612222	0.308131	0.039688
C99	C	1.516080	0.372920	0.039699
C100	C	1.064173	0.372912	0.344251
C101	C	1.064175	0.308123	0.409052
C102	C	1.005300	0.275718	0.401783
C103	C	0.946410	0.308111	0.329705
C104	C	0.946403	0.372903	0.264905
C105	C	1.516079	0.372921	0.264893
C106	C	1.612245	0.308133	0.329683
C107	C	1.601466	0.275725	0.401765
C108	C	1.494512	0.308114	0.409056
C109	C	1.398349	0.372905	0.344266
C110	C	0.494453	0.982005	-0.264827
C111	C	0.398287	1.046813	-0.329618
C112	C	0.409066	1.079225	-0.401699
C113	C	0.516020	1.046832	-0.408990
C114	C	0.612183	0.982029	-0.344201
C115	C	0.612240	0.981992	0.039716
C116	C	0.516097	1.046795	0.039715
C117	C	0.409132	1.079203	0.000038
C118	C	0.398310	1.046811	-0.039646
C119	C	0.494452	0.982014	-0.039648
C120	C	1.064128	0.982004	-0.264821
C121	C	1.064144	1.046794	-0.329610
C122	C	1.005266	1.079201	-0.401693
C123	C	0.946378	1.046810	-0.408985
C124	C	0.946369	0.982017	-0.344197
H125	H	1.112084	0.281739	-0.071957
Br126	Br	0.253134	1.090801	-0.093487
H127	H	1.112073	0.955628	-0.206134
Br128	Br	1.530789	0.416855	0.093568
H129	H	1.112117	0.399290	0.350184
H130	H	1.311205	0.399317	-0.071974
Br131	Br	0.253150	1.090760	-0.319705
Br132	Br	0.396372	0.518751	0.079406
Br133	Br	0.866487	0.416846	0.167099
H134	H	0.898439	-0.044370	0.072030
H135	H	1.005315	0.222960	0.454553
H136	H	1.112117	0.533467	-0.649797
Br137	Br	0.866514	0.264122	0.319852
Br138	Br	0.648496	0.331686	0.172918
H139	H	0.898436	0.821427	-0.676232
H140	H	0.524783	1.073230	-0.467687
Br141	Br	1.144041	0.490389	-0.493123
Br142	Br	1.731869	0.187813	-0.000022
H143	H	1.112069	0.073187	-0.071956
Br144	Br	1.479723	0.264203	-0.093536
Br145	Br	0.278545	1.167173	-0.489622
H146	H	1.112067	-0.044369	-0.071954
H147	H	1.699325	0.281737	0.071989
H148	H	1.524877	0.399298	0.206206
H149	H	1.679778	0.222967	0.454515
Br150	Br	0.757316	0.938074	-0.354111
H151	H	1.485753	0.281717	0.467753
Br152	Br	1.757382	0.264188	0.319771
H153	H	0.699327	0.955611	0.072031
H154	H	0.898456	0.073165	0.072038
Br155	Br	1.144105	0.264174	0.506861
H156	H	0.311218	0.821436	-0.071940
Br157	Br	1.253216	0.416842	0.354177
H158	H	0.485666	0.821433	-0.071934
Br159	Br	0.530809	1.090740	0.093577
H160	H	0.485655	0.955619	-0.206141
Br161	Br	0.866518	0.264130	0.093580
Br162	Br	0.278663	1.167144	0.000049
Br163	Br	0.479743	0.938060	-0.093500
H164	H	1.112096	1.073160	-0.323658
H165	H	1.005282	1.131960	-0.454442
H166	H	0.898441	1.073207	-0.467684
H167	H	0.898412	0.955657	-0.350147
H168	H	0.898459	0.399286	0.072020
Br169	Br	0.849677	0.518729	0.079360
Br170	Br	1.144038	0.416886	-0.093514
H171	H	0.817078	0.374766	0.151356
H172	H	0.898429	0.821439	-0.467678
Br173	Br	0.866439	0.864529	-0.354090
H174	H	0.898445	0.821421	-0.793784
H175	H	1.112099	0.533492	-0.323706
Br176	Br	1.144075	0.490411	-0.167018
