data_functionalizedCrystal
_audit_creation_method	'MofGen! by Chris Wilmer'
_symmetry_space_group_name_H-M	'P1'
_symmetry_Int_Tables_number	1
_symmetry_cell_setting	triclinic
loop_
_symmetry_equiv_pos_as_xyz
  x,y,z
_cell_length_a	19.288864
_cell_length_b	19.188930
_cell_length_c	17.766277
_cell_angle_alpha	89.988508
_cell_angle_beta	89.976791
_cell_angle_gamma	83.140512
loop_
_atom_site_label
_atom_site_type_symbol
_atom_site_fract_x
_atom_site_fract_y
_atom_site_fract_z
O1	O	0.921360	0.087099	-0.062844
O2	O	1.421360	0.587099	0.437156
O3	O	0.719100	0.098849	-0.062794
O4	O	1.219100	0.598849	0.437206
O5	O	0.826066	-0.008682	-0.062806
O6	O	1.326066	0.491318	0.437194
O7	O	0.814393	0.194630	-0.062832
O8	O	1.314393	0.694630	0.437168
O9	O	0.826048	-0.008688	0.062383
O10	O	1.326048	0.491312	0.562383
O11	O	0.719081	0.098843	0.062395
O12	O	1.219081	0.598843	0.562395
O13	O	0.921341	0.087094	0.062345
O14	O	1.421341	0.587094	0.562345
Cu15	Cu	0.820209	0.092968	0.073800
Cu16	Cu	1.320209	0.592968	0.573800
Cu17	Cu	0.820231	0.092974	-0.074250
Cu18	Cu	1.320231	0.592974	0.425750
O19	O	0.814374	0.194625	0.062356
O20	O	1.314374	0.694625	0.562356
C21	C	0.693214	0.098468	-0.000193
C22	C	1.193214	0.598468	0.499807
C23	C	0.616110	0.097333	-0.000173
C24	C	1.116110	0.597333	0.499827
C25	C	0.571419	0.160427	-0.000193
C26	C	1.071419	0.660427	0.499807
C27	C	0.498972	0.159361	-0.000201
C28	C	0.998972	0.659361	0.499799
C29	C	0.471219	0.095197	-0.000204
C30	C	0.971219	0.595197	0.499796
C31	C	0.515921	0.032095	-0.000180
C32	C	1.015921	0.532095	0.499820
C33	C	0.588366	0.033163	-0.000164
C34	C	1.088366	0.533163	0.499836
C35	C	0.362960	0.044759	-0.044082
C36	C	0.862960	0.544759	0.455918
C37	C	0.290515	0.043694	-0.044103
C38	C	0.790515	0.543694	0.455897
C39	C	0.247773	0.091900	-0.000249
C40	C	0.747773	0.591900	0.499751
C41	C	0.277483	0.141184	0.043614
C42	C	0.777483	0.641184	0.543614
C43	C	0.349929	0.142252	0.043630
C44	C	0.849929	0.642252	0.543630
C45	C	0.392665	0.094032	-0.000221
C46	C	0.892665	0.594032	0.499779
C47	C	0.124526	0.153843	-0.000277
C48	C	0.624526	0.653843	0.499723
C49	C	0.052078	0.152774	-0.000281
C50	C	0.552078	0.652774	0.499719
C51	C	0.069028	0.025506	-0.000267
C52	C	0.569028	0.525506	0.499733
C53	C	0.141475	0.026576	-0.000256
C54	C	0.641475	0.526576	0.499744
C55	C	0.169219	0.090747	-0.000265
C56	C	0.669219	0.590747	0.499735
C57	C	0.825679	-0.034696	-0.000209
C58	C	1.325679	0.465304	0.499791
C59	C	0.824544	-0.112200	-0.000202
C60	C	1.324544	0.387800	0.499798
C61	C	0.887309	-0.157129	-0.000214
C62	C	1.387309	0.342871	0.499786
C63	C	0.886243	-0.229953	-0.000226
C64	C	1.386243	0.270047	0.499774
C65	C	0.822408	-0.257844	-0.000211
C66	C	1.322408	0.242156	0.499789
C67	C	0.759636	-0.212906	-0.000203
C68	C	1.259636	0.287094	0.499797
C69	C	0.760704	-0.140084	-0.000199
C70	C	1.260704	0.359916	0.499801
N71	N	0.773608	-0.365848	0.042405
N72	N	1.273608	0.134152	0.542405
N73	N	0.772598	-0.435026	0.042403
N74	N	1.272598	0.064974	0.542403
C75	C	0.819187	-0.477253	-0.000225
C76	C	1.319187	0.022747	0.499775
N77	N	0.866835	-0.447689	-0.042841
N78	N	1.366835	0.052311	0.457159
N79	N	0.867847	-0.378504	-0.042836
N80	N	1.367847	0.121496	0.457164
C81	C	0.821243	-0.336807	-0.000216
C82	C	1.321243	0.163193	0.499784
C83	C	0.880800	-0.601146	-0.000251
C84	C	1.380800	-0.101146	0.499749
C85	C	0.879731	-0.673971	-0.000268
C86	C	1.379731	-0.173971	0.499732
C87	C	0.753122	-0.656922	-0.000237
C88	C	1.253122	-0.156922	0.499763
C89	C	0.754193	-0.584099	-0.000228
C90	C	1.254193	-0.084099	0.499772
C91	C	0.818034	-0.556216	-0.000231
C92	C	1.318034	-0.056216	0.499769
C93	C	0.947227	0.087475	-0.000258
C94	C	1.447227	0.587475	0.499742
C95	C	1.024330	0.088609	-0.000283
C96	C	1.524330	0.588609	0.499717
C97	C	0.814762	0.220638	-0.000242
C98	C	1.314762	0.720638	0.499758
C99	C	0.815896	0.298143	-0.000253
C100	C	1.315896	0.798143	0.499747
N101	N	0.820199	0.092963	0.177931
N102	N	1.320199	0.592963	0.677931
N103	N	0.820247	0.092974	-0.178380
N104	N	1.320247	0.592974	0.321620
C105	C	0.867579	0.045372	0.217312
C106	C	1.367579	0.545372	0.717312
C107	C	0.867583	0.045368	0.296114
C108	C	1.367583	0.545368	0.796114
C109	C	0.820213	0.092969	0.335531
C110	C	1.320213	0.592969	0.835531
C111	C	0.772824	0.140564	0.296140
C112	C	1.272824	0.640564	0.796140
C113	C	0.772817	0.140561	0.217340
C114	C	1.272817	0.640561	0.717340
C115	C	0.810919	0.156585	0.460362
C116	C	1.310919	0.656585	0.960362
C117	C	0.810931	0.156589	0.539161
C118	C	1.310931	0.656589	1.039161
C119	C	0.820232	0.092977	0.578578
C120	C	1.320232	0.592977	1.078578
C121	C	0.829535	0.029359	0.539185
C122	C	1.329535	0.529359	1.039185
C123	C	0.829528	0.029356	0.460385
C124	C	1.329528	0.529356	0.960385
C125	C	0.820216	0.092977	0.420977
C126	C	1.320216	0.592977	0.920977
C127	C	0.867619	0.045378	0.703405
C128	C	1.367619	0.545378	1.203405
C129	C	0.867618	0.045374	0.782208
C130	C	1.367618	0.545374	1.282208
C131	C	0.772863	0.140575	0.782233
C132	C	1.272863	0.640575	1.282233
C133	C	0.772861	0.140573	0.703431
C134	C	1.272861	0.640573	1.203431
C135	C	0.820242	0.092976	0.664022
C136	C	1.320242	0.592976	1.164022
H137	H	0.177864	-0.024802	-0.000244
H138	H	0.677864	0.475198	0.499756
H139	H	0.015690	0.204155	-0.000293
H140	H	0.515690	0.704155	0.499707
H141	H	0.374116	0.182379	0.079348
H142	H	0.874116	0.682379	0.579348
O143	O	0.686492	-0.535640	-0.000201
O144	O	1.186492	-0.035640	0.499799
H145	H	0.683951	-0.502046	-0.051225
H146	H	1.183951	-0.002046	0.448775
O147	O	0.690784	-0.242984	-0.000187
O148	O	1.190784	0.257016	0.499813
H149	H	0.660625	-0.224924	0.050842
H150	H	1.160625	0.275076	0.550842
H151	H	0.930844	-0.710552	-0.000281
H152	H	1.430844	-0.210552	0.499719
H153	H	0.462577	0.210742	-0.000215
H154	H	0.962577	0.710742	0.499785
H155	H	0.906158	0.006613	0.185228
H156	H	1.406158	0.506613	0.685228
H157	H	0.906167	0.006612	0.328185
H158	H	1.406167	0.506612	0.828185
H159	H	0.242684	0.180439	0.079324
H160	H	0.742684	0.680439	0.579324
O161	O	0.953943	-0.278421	-0.000232
O162	O	1.453943	0.221579	0.499768
H163	H	0.956463	-0.312016	0.050791
H164	H	1.456463	0.187984	0.550791
H165	H	0.046433	-0.026738	-0.000317
H166	H	0.546433	0.473262	0.499683
H167	H	0.709591	-0.103502	-0.000189
H168	H	1.209591	0.396498	0.499811
H169	H	0.837108	-0.022440	0.571277
H170	H	1.337108	0.477560	1.071277
O171	O	0.800902	0.225202	0.581647
O172	O	1.300902	0.725202	1.081647
H173	H	0.847288	0.229566	0.617513
H174	H	1.347288	0.729566	1.117513
O175	O	0.154453	0.223054	-0.000276
O176	O	0.654453	0.723054	0.499724
H177	H	0.212338	0.213197	-0.000272
H178	H	0.712338	0.713197	0.499728
H179	H	0.906199	0.006616	0.814274
H180	H	1.406199	0.506616	1.314274
O181	O	0.918711	-0.005964	0.660890
O182	O	1.418711	0.494036	1.160890
H183	H	0.951651	-0.039068	0.701517
H184	H	1.451651	0.460932	1.201517
H185	H	0.493320	-0.020148	-0.000193
H186	H	0.993320	0.479852	0.499807
H187	H	0.266331	0.003566	-0.079822
H188	H	0.766331	0.503566	0.420178
O189	O	0.409059	-0.007235	-0.091388
O190	O	0.909059	0.492765	0.408612
H191	H	0.376230	-0.041674	-0.121901
H192	H	0.876230	0.458326	0.378099
H193	H	0.624755	-0.018218	-0.000148
H194	H	1.124755	0.481782	0.499852
O195	O	0.956162	-0.127052	-0.000239
O196	O	1.456162	0.372948	0.499761
H197	H	0.999628	-0.170534	-0.000261
H198	H	1.499628	0.329466	0.499739
O199	O	0.949652	-0.571062	-0.000270
O200	O	1.449652	-0.071062	0.499730
H201	H	0.993119	-0.614542	-0.000295
H202	H	1.493119	-0.114542	0.499705
H203	H	0.701147	-0.679631	-0.000228
H204	H	1.201147	-0.179631	0.499772
H205	H	0.837101	-0.022444	0.428315
H206	H	1.337101	0.477556	0.928315
O207	O	0.721770	0.191920	0.824734
O208	O	1.221770	0.691920	1.324734
H209	H	0.729737	0.183930	0.886146
H210	H	1.229737	0.683930	1.386146
O211	O	0.721766	0.191912	0.660947
O212	O	1.221766	0.691912	1.160947
H213	H	0.688830	0.225017	0.701592
H214	H	1.188830	0.725017	1.201592
O215	O	0.800893	0.225199	0.417850
O216	O	1.300893	0.725199	0.917850
H217	H	0.794438	0.269436	0.458478
H218	H	1.294438	0.769436	0.958478
O219	O	0.721735	0.191910	0.338647
O220	O	1.221735	0.691910	0.838647
H221	H	0.729705	0.183922	0.400059
H222	H	1.229705	0.683922	0.900059
H223	H	0.734234	0.179316	0.185275
H224	H	1.234234	0.679316	0.685275
H225	H	0.594003	0.212680	-0.000201
H226	H	1.094003	0.712680	0.499799
