data_functionalizedCrystal
_audit_creation_method	'MofGen! by Chris Wilmer'
_symmetry_space_group_name_H-M	'P1'
_symmetry_Int_Tables_number	1
_symmetry_cell_setting	triclinic
loop_
_symmetry_equiv_pos_as_xyz
  x,y,z
_cell_length_a	14.908520
_cell_length_b	11.169417
_cell_length_c	11.169409
_cell_angle_alpha	90.021683
_cell_angle_beta	93.260332
_cell_angle_gamma	86.680427
loop_
_atom_site_label
_atom_site_type_symbol
_atom_site_fract_x
_atom_site_fract_y
_atom_site_fract_z
Zn1	Zn	-0.359109	-1.807295	-0.706122
Zn2	Zn	-0.510000	-1.795559	-0.517002
Zn3	Zn	-0.359158	-1.606577	-0.505454
Zn4	Zn	-0.509922	-1.594969	-0.717635
O5	O	-0.434547	-1.701100	-0.611553
O6	O	-0.379137	-1.973687	-0.681050
O7	O	-0.490045	-1.770436	-0.347525
O8	O	-0.232908	-1.642972	-0.522422
O9	O	-0.489996	-1.965064	-0.542104
O10	O	-0.232871	-1.790439	-0.669852
O11	O	-0.379222	-1.631592	-0.339040
O12	O	-0.379145	-1.437088	-0.533585
O13	O	-0.489862	-1.623188	-0.884053
O14	O	-0.489911	-1.428560	-0.689473
O15	O	-0.379060	-1.779183	-0.875595
O16	O	-0.636234	-1.759180	-0.553268
O17	O	-0.636176	-1.611808	-0.700671
C18	C	-0.434526	-1.389277	-0.611526
C19	C	-0.434538	-1.255876	-0.611544
C20	C	-0.668938	-1.682994	-0.629498
C21	C	-0.769212	-1.675357	-0.637215
C22	C	-0.957635	-1.814625	-0.498349
C23	C	-1.051851	-1.807454	-0.505596
C24	C	-1.051861	-1.653852	-0.658962
C25	C	-0.957645	-1.661023	-0.651715
C26	C	-0.910536	-1.741411	-0.571404
C27	C	-0.816318	-1.748575	-0.564152
C28	C	-0.816330	-1.594979	-0.717523
C29	C	-0.910546	-1.587808	-0.724770
C30	C	-0.199241	-1.719309	-0.593564
C31	C	-0.098967	-1.727069	-0.585898
C32	C	-0.434447	-1.701200	-0.924588
C33	C	-0.434404	-1.701242	-1.057985
C34	C	-0.434562	-1.014141	-0.611571
C35	C	-0.434549	-1.147542	-0.611553
C36	C	-0.434582	-1.701074	-0.299731
C37	C	-0.434370	-1.701284	-0.166315
H38	H	-0.777962	-1.814027	-0.498756
H39	H	-0.777970	-1.535359	-0.777006
H40	H	-0.919278	-1.880072	-0.432949
H41	H	-1.090234	-1.588412	-0.724354
H42	H	-1.090196	-1.867076	-0.446109
H43	H	-0.948915	-1.522362	-0.790159
