data_functionalizedCrystal
_audit_creation_method	'MofGen! by Chris Wilmer'
_symmetry_space_group_name_H-M	'P1'
_symmetry_Int_Tables_number	1
_symmetry_cell_setting	triclinic
loop_
_symmetry_equiv_pos_as_xyz
  x,y,z
_cell_length_a	23.532407
_cell_length_b	16.974800
_cell_length_c	15.455446
_cell_angle_alpha	83.686872
_cell_angle_beta	92.661642
_cell_angle_gamma	83.120189
loop_
_atom_site_label
_atom_site_type_symbol
_atom_site_fract_x
_atom_site_fract_y
_atom_site_fract_z
O1	O	0.072493	1.048651	-0.001500
O2	O	0.082308	0.817589	0.014729
O3	O	-0.005526	0.940089	0.006109
O4	O	0.160327	0.926152	0.007120
O5	O	-0.010531	0.947054	-0.138640
O6	O	0.077304	0.824555	-0.130021
O7	O	0.067488	1.055617	-0.146249
Cu8	Cu	0.071939	0.940722	-0.151352
Cu9	Cu	0.077858	0.932484	0.019831
O10	O	0.155323	0.933118	-0.137630
C11	C	0.079527	0.791516	-0.055570
C12	C	0.078690	0.703450	-0.049386
C13	C	0.075567	0.665878	-0.125385
C14	C	0.074770	0.583132	-0.119576
C15	C	0.077101	0.537958	-0.037768
C16	C	0.080223	0.575536	0.038237
C17	C	0.081015	0.658281	0.032428
C18	C	0.075021	0.290079	-0.011932
C19	C	0.074230	0.207328	-0.006128
C20	C	0.068777	0.214930	-0.163942
C21	C	0.069573	0.297676	-0.169745
C22	C	0.072691	0.335247	-0.093740
N23	N	0.076289	0.453378	-0.031828
N24	N	0.073499	0.419826	-0.099680
C25	C	-0.029245	0.943217	-0.066243
C26	C	-0.092463	0.942150	-0.066175
C27	C	-0.491511	1.007948	-0.070748
C28	C	-0.550911	1.006957	-0.070672
O29	O	-0.587605	1.067952	-0.074924
N30	N	-0.573597	0.934131	-0.065558
C31	C	-0.536878	0.862292	-0.060511
O32	O	-0.561628	0.800258	-0.056153
C33	C	-0.477478	0.863284	-0.060581
C34	C	-0.454796	0.936115	-0.065704
C35	C	-0.468828	1.080773	-0.075871
C36	C	-0.409432	1.081764	-0.075948
C37	C	-0.372717	1.009930	-0.070904
C38	C	-0.395400	0.937106	-0.065782
C39	C	-0.440760	0.791446	-0.055527
C40	C	-0.381356	0.792444	-0.055597
C41	C	-0.358675	0.865275	-0.060721
C42	C	-0.299288	0.866264	-0.060816
N43	N	-0.276603	0.939089	-0.065930
C44	C	-0.313317	1.010922	-0.070974
C45	C	-0.661622	0.860215	-0.060363
C46	C	-0.721021	0.859222	-0.060299
C47	C	-0.735050	1.003887	-0.070459
C48	C	-0.675651	1.004879	-0.070529
C49	C	-0.638936	0.933040	-0.065477
C50	C	-0.188580	1.012998	-0.071138
C51	C	-0.129177	1.013983	-0.071219
C52	C	-0.115153	0.869319	-0.061054
C53	C	-0.174550	0.868334	-0.060978
C54	C	-0.211263	0.940180	-0.066017
O55	O	-0.262560	0.805300	-0.056562
O56	O	-0.288559	1.072946	-0.075320
C57	C	0.179041	0.929989	-0.065276
C58	C	0.242260	0.931056	-0.065338
C59	C	0.070270	1.081690	-0.075948
C60	C	0.071107	1.169756	-0.082127
N61	N	0.067776	0.946522	-0.271753
C62	C	0.044716	0.978742	-0.818014
C63	C	0.047871	0.974337	-0.726898
C64	C	0.088325	0.917877	-0.677538
C65	C	0.125630	0.865824	-0.719298
C66	C	0.122476	0.870232	-0.810413
C67	C	0.101927	0.898877	-0.404628
C68	C	0.105076	0.894471	-0.313507
C69	C	0.027318	1.002986	-0.321113
C70	C	0.024167	1.007386	-0.412229
C71	C	0.061473	0.955336	-0.453982
N72	N	0.091550	0.913372	-0.584403
N73	N	0.058250	0.959845	-0.547116
N74	N	0.082016	0.926690	0.140232
H75	H	-0.110714	1.073293	-0.075393
H76	H	-0.085249	0.810835	-0.056951
H77	H	0.073673	0.702652	-0.192002
H78	H	0.077559	0.320659	0.049957
C79	C	0.082785	0.525842	0.128228
N80	N	0.084717	0.488413	0.196011
C81	C	-0.465695	0.711325	-0.049885
N82	N	-0.484475	0.650973	-0.045632
H83	H	0.083559	0.688871	0.094315
C84	C	0.065341	0.173596	-0.247542
N85	N	0.062750	0.142463	-0.310513
H86	H	0.138020	0.848491	-0.273321
H87	H	-0.218464	1.071502	-0.075238
H88	H	-0.764954	1.062377	-0.074562
H89	H	-0.390970	1.141069	-0.080117
C90	C	-0.340974	0.713414	-0.050043
N91	N	-0.310559	0.653888	-0.045862
H92	H	0.132302	0.856494	-0.438615
H93	H	-0.498716	1.139271	-0.079975
C94	C	-0.650707	1.084996	-0.076157
N95	N	-0.631922	1.145344	-0.080393
H96	H	-0.739483	0.799917	-0.056142
C97	C	0.076794	0.157638	0.083872
N98	N	0.078726	0.120212	0.151656
C99	C	0.170129	0.803717	-0.664998
N100	N	0.203645	0.756934	-0.624100
H101	H	-0.631732	0.801711	-0.056256
C102	C	-0.020352	1.069474	-0.466517
N103	N	-0.053892	1.116228	-0.507407
C104	C	-0.013718	1.060234	-0.275178
N105	N	-0.044629	1.103356	-0.240579
H106	H	-0.193019	0.809031	-0.056830
H107	H	0.011772	1.024714	-0.858198
H108	H	0.067672	0.334451	-0.236362
C109	C	0.071348	0.541804	-0.203182
N110	N	0.068774	0.510676	-0.266158
H111	H	0.017499	1.016722	-0.692903
H112	H	0.152851	0.827848	-0.844408
