data_functionalizedCrystal
_audit_creation_method	'MofGen! by Chris Wilmer'
_symmetry_space_group_name_H-M	'P1'
_symmetry_Int_Tables_number	1
_symmetry_cell_setting	triclinic
loop_
_symmetry_equiv_pos_as_xyz
  x,y,z
_cell_length_a	12.759401
_cell_length_b	12.759400
_cell_length_c	12.759393
_cell_angle_alpha	89.969553
_cell_angle_beta	89.980535
_cell_angle_gamma	90.012838
loop_
_atom_site_label
_atom_site_type_symbol
_atom_site_fract_x
_atom_site_fract_y
_atom_site_fract_z
Zn1	Zn	1.606267	-0.418214	-0.594017
Zn2	Zn	1.606166	-0.593932	-0.418340
Zn3	Zn	1.430569	-0.418267	-0.418353
Zn4	Zn	1.430562	-0.593850	-0.593979
O5	O	1.518391	-0.506066	-0.506172
O6	O	1.753274	-0.441535	-0.570723
O7	O	1.582833	-0.570687	-0.271321
O8	O	1.453920	-0.271239	-0.441677
O9	O	1.753200	-0.570635	-0.441655
O10	O	1.583005	-0.271200	-0.570736
O11	O	1.453822	-0.441626	-0.271330
O12	O	1.283547	-0.441546	-0.441640
O13	O	1.453909	-0.570495	-0.741005
O14	O	1.283542	-0.570546	-0.570671
O15	O	1.582998	-0.441455	-0.741033
O16	O	1.582826	-0.740942	-0.441618
O17	O	1.453811	-0.740882	-0.570659
C18	C	1.245423	-0.506044	-0.506153
C19	C	1.128647	-0.506060	-0.506170
C20	C	0.964023	-0.573201	-0.438892
C21	C	1.073747	-0.573180	-0.438874
C22	C	1.073817	-0.438949	-0.573481
C23	C	0.964095	-0.438966	-0.573493
C24	C	0.909129	-0.640333	-0.371600
C25	C	0.963951	-0.707442	-0.304287
C26	C	1.073675	-0.707421	-0.304269
C27	C	1.128577	-0.640291	-0.371564
C28	C	1.518336	-0.779033	-0.506156
C29	C	1.518408	-0.895810	-0.506184
C30	C	1.585589	-0.950572	-0.573440
C31	C	1.585638	-1.060296	-0.573465
C32	C	1.451322	-1.060486	-0.438970
C33	C	1.451269	-0.950764	-0.438950
C34	C	1.652728	-0.895617	-0.640673
C35	C	1.719915	-0.950379	-0.707934
C36	C	1.719964	-1.060103	-0.707960
C37	C	1.652826	-1.115065	-0.640725
C38	C	1.792424	-0.506088	-0.506192
C39	C	1.909201	-0.506098	-0.506200
C40	C	1.518464	-0.505960	-0.780206
C41	C	1.518496	-0.505915	-0.896982
C42	C	1.518475	-0.232032	-0.506212
C43	C	1.518510	-0.115256	-0.506229
C44	C	1.585722	-0.438717	-0.951861
C45	C	1.585747	-0.438679	-1.061585
C46	C	1.451316	-0.573045	-1.061543
C47	C	1.451287	-0.573077	-0.951821
C48	C	1.652930	-0.371555	-0.897022
C49	C	1.720163	-0.304353	-0.951901
C50	C	1.720188	-0.304315	-1.061625
C51	C	1.652980	-0.371479	-1.116471
C52	C	1.518378	-0.506095	-0.233205
C53	C	1.518550	-0.505845	-0.116429
H54	H	0.919243	-0.762092	-0.249494
H55	H	1.118527	-0.384296	-0.628269
O56	O	1.652780	-0.789032	-0.640817
C57	C	1.726462	-0.752268	-0.714558
H58	H	1.741176	-0.815440	-0.775968
H59	H	1.803079	-0.732780	-0.672954
C60	C	1.665499	-0.575507	-0.692928
C61	C	1.683566	-0.653093	-0.768359
H62	H	1.639043	-0.514329	-0.726113
H63	H	1.615861	-0.600274	-0.643244
H64	H	1.729353	-0.559280	-0.658265
H65	H	1.619711	-0.669328	-0.803012
H66	H	1.733192	-0.628326	-0.818050
H67	H	0.819786	-0.640360	-0.371609
H68	H	1.774662	-1.104687	-0.762735
H69	H	1.774924	-0.249589	-1.106304
H70	H	1.118308	-0.762058	-0.249453
H71	H	1.217921	-0.640271	-0.371536
O72	O	1.386094	-0.638437	-1.114701
C73	C	1.409034	-0.743159	-1.087883
H74	H	1.449397	-0.745361	-1.008219
H75	H	1.463058	-0.778531	-1.149629
C76	C	1.257018	-0.804089	-1.180640
C77	C	1.306584	-0.806795	-1.082790
H78	H	1.193823	-0.843345	-1.177503
H79	H	1.241564	-0.733536	-1.198711
H80	H	1.302048	-0.833564	-1.232085
H81	H	1.261559	-0.777308	-1.031350
H82	H	1.322028	-0.877344	-1.064710
H83	H	0.919457	-0.384320	-0.628296
H84	H	1.774571	-0.905623	-0.762681
O85	O	1.386063	-1.113989	-0.373802
C86	C	1.318188	-1.177444	-0.433570
H87	H	1.355208	-1.193798	-0.513225
H88	H	1.240302	-1.135208	-0.445036
C89	C	1.253784	-1.261639	-0.277932
C90	C	1.299256	-1.281732	-0.375763
H91	H	1.242100	-1.325967	-0.242273
H92	H	1.299509	-1.218885	-0.237664
H93	H	1.188883	-1.226440	-0.287501
H94	H	1.364160	-1.316919	-0.366192
H95	H	1.253541	-1.324494	-0.416028
O96	O	1.785404	-0.239207	-0.898466
C97	C	1.770949	-0.253627	-0.789854
H98	H	1.736515	-0.334710	-0.774847
H99	H	1.715010	-0.191316	-0.758726
C100	C	1.919532	-0.144433	-0.751966
C101	C	1.877248	-0.244024	-0.733533
H102	H	1.985101	-0.138505	-0.717223
H103	H	1.929269	-0.134714	-0.825140
H104	H	1.872906	-0.092518	-0.726026
H105	H	1.923868	-0.295936	-0.759485
H106	H	1.867522	-0.253751	-0.660362
O107	O	1.386143	-0.638406	-0.898379
C108	C	1.445937	-0.706292	-0.834921
H109	H	1.525565	-0.669243	-0.818519
H110	H	1.457463	-0.784144	-0.877180
C111	C	1.290318	-0.770832	-0.750818
C112	C	1.388116	-0.725323	-0.730665
H113	H	1.254651	-0.782576	-0.686510
H114	H	1.250033	-0.725099	-0.793573
H115	H	1.299937	-0.835704	-0.786036
H116	H	1.378495	-0.660447	-0.695460
H117	H	1.428399	-0.771046	-0.687901
H118	H	1.652859	-1.204410	-0.640763
O119	O	1.653170	-0.371345	-1.223057
C120	C	1.726896	-0.297610	-1.259738
H121	H	1.788266	-0.282919	-1.196515
H122	H	1.685267	-0.220993	-1.279224
C123	C	1.705390	-0.358452	-1.436540
C124	C	1.780770	-0.340415	-1.358891
H125	H	1.738619	-0.384853	-1.497705
H126	H	1.655716	-0.408126	-1.411829
H127	H	1.670704	-0.294600	-1.452766
H128	H	1.815444	-0.404269	-1.342657
H129	H	1.830451	-0.290753	-1.383602
H130	H	1.652920	-0.371581	-0.807680
H131	H	1.396563	-0.906177	-0.384185
