data_functionalizedCrystal
_audit_creation_method	'MofGen! by Chris Wilmer'
_symmetry_space_group_name_H-M	'P1'
_symmetry_Int_Tables_number	1
_symmetry_cell_setting	triclinic
loop_
_symmetry_equiv_pos_as_xyz
  x,y,z
_cell_length_a	10.654550
_cell_length_b	10.654545
_cell_length_c	9.730223
_cell_angle_alpha	89.997167
_cell_angle_beta	89.995747
_cell_angle_gamma	84.484005
loop_
_atom_site_label
_atom_site_type_symbol
_atom_site_fract_x
_atom_site_fract_y
_atom_site_fract_z
O1	O	0.176372	1.667842	-0.114276
O2	O	0.193184	1.302363	-0.114282
O3	O	0.002038	1.493506	-0.114270
O4	O	0.367517	1.476700	-0.114287
O5	O	0.002033	1.493493	0.114310
O6	O	0.193178	1.302351	0.114298
O7	O	0.176366	1.667830	0.114304
Zn8	Zn	0.184771	1.485088	0.150593
Zn9	Zn	0.184778	1.485105	-0.150571
O10	O	0.367512	1.476687	0.114292
C11	C	0.191948	1.255559	0.000008
C12	C	0.188258	1.116115	0.000006
C13	C	0.186518	1.050604	0.124606
C14	C	0.183031	0.919585	0.124606
C15	C	0.183028	0.919599	-0.124605
C16	C	0.186507	1.050617	-0.124603
C17	C	-0.044762	1.492266	0.000019
C18	C	-0.184206	1.488574	0.000017
C19	C	-0.263693	1.601115	0.000018
C20	C	-0.394714	1.597639	0.000002
C21	C	-0.366747	1.369069	-0.000012
C22	C	-0.235729	1.372547	-0.000005
C23	C	0.414312	1.477927	0.000000
C24	C	0.553755	1.481619	-0.000007
C25	C	0.177602	1.714634	0.000012
C26	C	0.181292	1.854078	0.000005
N27	N	0.184766	1.485086	0.356130
N28	N	0.184774	1.485117	-0.356107
C29	C	0.100163	1.569753	0.428061
C30	C	0.100163	1.569766	0.571944
C31	C	0.269381	1.400440	0.571952
C32	C	0.269374	1.400423	0.428071
H33	H	0.181614	0.866251	0.226067
N34	N	0.181160	0.848958	-0.259003
H35	H	0.104049	0.881270	-0.313472
H36	H	0.178746	0.756032	-0.239993
N37	N	-0.208123	1.726254	0.000041
H38	H	-0.237024	1.775619	-0.084694
H39	H	-0.113071	1.711278	0.000102
H40	H	-0.408713	1.274604	-0.000027
N41	N	-0.149997	1.251149	0.000004
H42	H	-0.095023	1.247494	0.084741
H43	H	-0.095086	1.247572	-0.084784
N44	N	0.360626	1.309087	0.350488
H45	H	0.449903	1.324317	0.375504
H46	H	0.347671	1.321960	0.248449
N47	N	0.360631	1.309136	0.649558
H48	H	0.416691	1.357615	0.709232
H49	H	0.414141	1.255513	0.582071
N50	N	-0.480438	1.719029	0.000015
H51	H	-0.535432	1.722669	0.084745
H52	H	-0.535329	1.722625	-0.084780
H53	H	0.187944	1.103929	0.226070
N54	N	0.188368	1.121289	-0.258999
H55	H	0.186737	1.059917	-0.337939
H56	H	0.267526	1.166146	-0.264437
H57	H	0.031268	1.638690	0.369489
H58	H	0.031270	1.638708	0.630506
