data_functionalizedCrystal
_audit_creation_method	'MofGen! by Chris Wilmer'
_symmetry_space_group_name_H-M	'P1'
_symmetry_Int_Tables_number	1
_symmetry_cell_setting	triclinic
loop_
_symmetry_equiv_pos_as_xyz
  x,y,z
_cell_length_a	12.827892
_cell_length_b	11.169417
_cell_length_c	11.169409
_cell_angle_alpha	90.022423
_cell_angle_beta	89.966972
_cell_angle_gamma	89.985670
loop_
_atom_site_label
_atom_site_type_symbol
_atom_site_fract_x
_atom_site_fract_y
_atom_site_fract_z
Zn1	Zn	-0.415979	-1.834929	-0.678596
Zn2	Zn	0.084021	-1.334929	-0.178596
Zn3	Zn	-0.590766	-1.834798	-0.477910
Zn4	Zn	-0.090766	-1.334798	0.022090
Zn5	Zn	-0.416036	-1.634212	-0.477924
Zn6	Zn	0.083964	-1.134212	0.022076
Zn7	Zn	-0.590675	-1.634205	-0.678549
Zn8	Zn	-0.090675	-1.134205	-0.178549
O9	O	-0.503364	-1.734536	-0.578245
O10	O	-0.003364	-1.234536	-0.078245
O11	O	-0.439178	-2.002861	-0.651989
O12	O	0.060822	-1.502861	-0.151989
O13	O	-0.567650	-1.808138	-0.309962
O14	O	-0.067650	-1.308138	0.190038
O15	O	-0.269793	-1.660896	-0.504569
O16	O	0.230207	-1.160896	-0.004569
O17	O	-0.567594	-2.002765	-0.504546
O18	O	-0.067594	-1.502765	-0.004546
O19	O	-0.269750	-1.808361	-0.652002
O20	O	0.230250	-1.308361	-0.152002
O21	O	-0.439277	-1.660769	-0.309972
O22	O	0.060723	-1.160769	0.190028
O23	O	-0.439189	-1.466262	-0.504523
O24	O	0.060811	-0.966262	-0.004523
O25	O	-0.567439	-1.660883	-0.846505
O26	O	-0.067439	-1.160883	-0.346505
O27	O	-0.567495	-1.466256	-0.651921
O28	O	-0.067495	-0.966256	-0.151921
O29	O	-0.439090	-1.808354	-0.846540
O30	O	0.060910	-1.308354	-0.346540
O31	O	-0.736990	-1.808131	-0.504500
O32	O	-0.236990	-1.308131	-0.004500
O33	O	-0.736923	-1.660756	-0.651908
O34	O	-0.236923	-1.160756	-0.151908
C35	C	-0.503339	-1.422711	-0.578219
C36	C	-0.003339	-0.922711	-0.078219
C37	C	-0.503353	-1.289311	-0.578237
C38	C	-0.003353	-0.789311	-0.078237
C39	C	-0.774874	-1.734461	-0.578224
C40	C	-0.274874	-1.234461	-0.078224
C41	C	-0.891027	-1.734539	-0.578255
C42	C	-0.391027	-1.234539	-0.078255
C43	C	-0.942810	-1.807551	-0.505393
C44	C	-0.442810	-1.307551	-0.005393
C45	C	-1.062860	-1.807633	-0.505424
C46	C	-0.562860	-1.307633	-0.005424
C47	C	-0.230794	-1.734644	-0.578292
C48	C	0.269206	-1.234644	-0.078292
C49	C	-0.114641	-1.734690	-0.578312
C50	C	0.385359	-1.234690	-0.078312
C51	C	-0.503248	-1.734632	-0.891287
C52	C	-0.003248	-1.234632	-0.391287
C53	C	-0.503199	-1.734673	-1.024687
C54	C	-0.003199	-1.234673	-0.524687
C55	C	-0.503381	-1.047578	-0.578262
C56	C	-0.003381	-0.547578	-0.078262
C57	C	-0.503366	-1.180978	-0.578244
C58	C	-0.003366	-0.680978	-0.078244
C59	C	-0.503404	-1.734509	-0.266420
C60	C	-0.003404	-1.234509	0.233580
C61	C	-0.503159	-1.734701	-0.133021
C62	C	-0.003159	-1.234701	0.366979
H63	H	-0.898269	-1.870005	-0.442995
H64	H	-0.398269	-1.370005	0.057005
C65	C	-1.055222	-1.651535	-0.661646
C66	C	-0.555222	-1.151535	-0.161646
C67	C	-0.992475	-1.719477	-0.738569
C68	C	-0.492475	-1.219477	-0.238569
C69	C	-0.937726	-1.642918	-0.815363
C70	C	-0.437726	-1.142918	-0.315363
H71	H	-1.012627	-1.599255	-0.615774
H72	H	-0.512627	-1.099255	-0.115774
H73	H	-1.103247	-1.605803	-0.707452
H74	H	-0.603247	-1.105803	-0.207452
H75	H	-0.944455	-1.765188	-0.692769
H76	H	-0.444455	-1.265188	-0.192769
H77	H	-1.035043	-1.771754	-0.784468
H78	H	-0.535043	-1.271754	-0.284468
H79	H	-0.985752	-1.597187	-0.861168
H80	H	-0.485752	-1.097187	-0.361168
H81	H	-0.895138	-1.590642	-0.769481
H82	H	-0.395138	-1.090642	-0.269481
H83	H	-0.895154	-1.689006	-0.867571
H84	H	-0.395154	-1.189006	-0.367571
H85	H	-1.107393	-1.870138	-0.443041
H86	H	-0.607393	-1.370138	0.056959
H87	H	-0.935570	-1.672096	-0.640661
H88	H	-0.435570	-1.172096	-0.140661
