data_functionalizedCrystal
_audit_creation_method	'MofGen! by Chris Wilmer'
_symmetry_space_group_name_H-M	'P1'
_symmetry_Int_Tables_number	1
_symmetry_cell_setting	triclinic
loop_
_symmetry_equiv_pos_as_xyz
  x,y,z
_cell_length_a	27.354012
_cell_length_b	27.353283
_cell_length_c	27.349551
_cell_angle_alpha	60.005606
_cell_angle_beta	60.011434
_cell_angle_gamma	59.993282
loop_
_atom_site_label
_atom_site_type_symbol
_atom_site_fract_x
_atom_site_fract_y
_atom_site_fract_z
O1	O	0.067635	-0.714267	0.597330
O2	O	0.025429	-0.556105	0.481282
O3	O	0.125575	-0.656186	0.481214
O4	O	-0.032512	-0.614186	0.597397
O5	O	0.158797	-0.622968	0.514367
O6	O	0.058650	-0.522887	0.514434
O7	O	0.100856	-0.681048	0.630482
Zn8	Zn	0.085028	-0.596693	0.577722
Zn9	Zn	0.041257	-0.640460	0.534042
O10	O	0.000709	-0.580967	0.630549
N11	N	0.114901	-0.566828	0.607534
N12	N	0.011389	-0.670331	0.504229
C13	C	0.179404	-0.338196	0.672015
C14	C	0.179501	-0.502386	0.836160
C15	C	0.179415	-0.502363	0.671996
C16	C	0.343611	-0.502373	0.671960
C17	C	0.197478	-0.392371	0.690061
C18	C	0.197534	-0.484321	0.781984
C19	C	0.289434	-0.484312	0.690032
C20	C	0.197486	-0.484308	0.690051
C21	C	0.156398	-0.269238	0.649045
C22	C	0.156418	-0.525342	0.649015
C23	C	0.220484	-0.461329	0.713032
C24	C	0.443889	-0.485097	0.619172
C25	C	0.506571	-0.505993	0.598266
C26	C	0.506589	-0.607412	0.636940
C27	C	0.443909	-0.586515	0.657848
C28	C	0.171510	-0.237888	0.587422
C29	C	0.150593	-0.175201	0.566543
C30	C	0.099458	-0.175218	0.668913
C31	C	0.120375	-0.237905	0.689792
C32	C	0.094789	-0.510201	0.664176
C33	C	0.073888	-0.531091	0.643278
C34	C	0.176239	-0.582263	0.592072
C35	C	0.197142	-0.561373	0.612963
C36	C	0.094933	-0.510244	0.936476
C37	C	0.074073	-0.531151	0.999161
C38	C	0.176453	-0.582335	0.999126
C39	C	0.197312	-0.561429	0.936439
C40	C	0.156551	-0.525382	0.905116
C41	C	0.412561	-0.525357	0.648961
C42	C	-0.098513	-0.688235	0.485867
C43	C	-0.006461	-0.688368	0.394066
C44	C	-0.006645	-0.780264	0.486040
C45	C	-0.006630	-0.688361	0.486097
C46	C	-0.029562	-0.711308	0.463018
N47	N	0.537030	-0.566846	0.607436
O48	O	0.741877	-0.576849	0.459995
O49	O	0.742050	-0.693241	0.618010
O50	O	0.741986	-0.692977	0.517791
O51	O	0.741941	-0.577114	0.560214
O52	O	0.642405	-0.659839	0.551046
O53	O	0.642469	-0.660104	0.651265
O54	O	0.642296	-0.543712	0.493251
Zn55	Zn	0.626572	-0.596646	0.577538
Zn56	Zn	0.757774	-0.640307	0.533723
O57	O	0.642360	-0.543976	0.593469
N58	N	0.847316	-0.670107	0.503818
N59	N	0.114877	-0.144758	0.607577
O60	O	-0.032498	0.060193	0.597441
O61	O	0.125523	0.060193	0.481067
O62	O	0.025289	0.060179	0.481345
O63	O	0.067736	0.060207	0.597163
O64	O	0.058511	-0.039410	0.514543
O65	O	0.158745	-0.039397	0.514265
O66	O	0.000724	-0.039396	0.630638
Zn67	Zn	0.085009	-0.055208	0.577722
Zn68	Zn	0.041238	0.076005	0.533983
O69	O	0.100958	-0.039382	0.630360
N70	N	0.011362	0.165555	0.504130
N71	N	0.115121	-0.566884	1.029592
O72	O	0.104990	-0.714248	1.234528
O73	O	-0.011371	-0.556177	1.234539
O74	O	-0.011103	-0.656395	1.234497
O75	O	0.104722	-0.614030	1.234569
O76	O	0.022090	-0.623190	1.134913
O77	O	0.021822	-0.522972	1.134954
O78	O	0.138182	-0.681044	1.134943
Zn79	Zn	0.085272	-0.596736	1.119137
Zn80	Zn	0.041539	-0.640484	1.250344
O81	O	0.137914	-0.580826	1.134984
N82	N	0.011689	-0.670343	1.339890
C83	C	0.038085	-0.519567	0.481870
C84	C	0.162104	-0.643505	0.481786
C85	C	0.088200	-0.717587	0.629893
C86	C	-0.035819	-0.593649	0.629977
C87	C	0.692280	-0.692701	0.654545
C88	C	0.692203	-0.692374	0.530435
C89	C	0.692063	-0.544251	0.456717
C90	C	0.692144	-0.544580	0.580825
C91	C	0.162000	0.010521	0.481600
C92	C	0.037914	0.010381	0.481984
C93	C	-0.035795	0.010399	0.630065
C94	C	0.088333	0.010415	0.629722
C95	C	-0.010799	-0.519660	1.184747
C96	C	-0.010461	-0.643761	1.184677
C97	C	0.137610	-0.717561	1.184734
C98	C	0.137280	-0.593452	1.184783
H99	H	0.061737	-0.480889	0.910978
H100	H	0.209648	-0.611676	1.024626
C101	C	0.185736	-0.581247	1.184771
C102	C	0.164032	-0.522780	1.184768
C103	C	0.208655	-0.511513	1.184749
H104	H	0.196675	-0.608819	1.219490
H105	H	0.219788	-0.585681	1.150031
H106	H	0.129990	-0.518351	1.219505
H107	H	0.153097	-0.495195	1.150051
H108	H	0.242708	-0.515947	1.150009
H109	H	0.219591	-0.539089	1.219469
H110	H	0.193938	-0.471841	1.184742
C111	C	0.026145	-0.458960	0.433286
C112	C	0.066957	-0.432593	0.417325
C113	C	0.055971	-0.376759	0.372577
H114	H	0.030634	-0.464076	0.399205
H115	H	-0.013482	-0.433848	0.447846
H116	H	0.106574	-0.457699	0.402763
H117	H	0.062475	-0.427462	0.451392
H118	H	0.016344	-0.351647	0.387137
H119	H	0.060459	-0.381881	0.338500
H120	H	0.083656	-0.358860	0.361746
H121	H	0.097420	0.010424	0.666105
C122	C	0.007148	-0.514614	1.033095
C123	C	-0.024079	-0.478556	0.992242
C124	C	-0.085731	-0.463305	1.023481
H125	H	-0.003203	-0.550009	1.057547
H126	H	-0.003143	-0.493321	1.057540
H127	H	-0.013792	-0.499848	0.967808
H128	H	-0.013746	-0.443153	0.967789
H129	H	-0.096022	-0.442013	1.047925
H130	H	-0.096075	-0.498704	1.047931
H131	H	-0.106926	-0.438834	0.995767
H132	H	-0.047330	-0.474261	1.184750
C133	C	0.222648	-0.655325	0.433110
C134	C	0.248962	-0.614463	0.417136
C135	C	0.304731	-0.625328	0.372292
H136	H	0.247837	-0.694934	0.447570
H137	H	0.217439	-0.650795	0.399058
H138	H	0.254174	-0.618998	0.451182
H139	H	0.223790	-0.574851	0.402666
H140	H	0.299522	-0.620798	0.338240
H141	H	0.329915	-0.664937	0.386757
H142	H	0.322589	-0.597602	0.361444
C143	C	-0.096309	0.010498	0.678809
C144	C	-0.122562	0.061734	0.694730
C145	C	-0.178303	0.061843	0.739637
H146	H	-0.121549	0.010523	0.664423
H147	H	-0.091068	-0.024208	0.712866
H148	H	-0.127805	0.096431	0.660680
H149	H	-0.097340	0.061720	0.709127
H150	H	-0.173063	0.027136	0.773693
H151	H	-0.203538	0.061866	0.725246
H152	H	-0.196121	0.096603	0.750449
H153	H	-0.046832	-0.652809	1.184615
H154	H	0.097215	-0.763020	0.666340
H155	H	0.174144	-0.762957	1.184724
C156	C	-0.096392	-0.581790	0.678609
C157	C	-0.122717	-0.622634	0.694560
C158	C	-0.178520	-0.611722	0.739352
H159	H	-0.091246	-0.586303	0.712683
H160	H	-0.121541	-0.542167	0.664091
H161	H	-0.097574	-0.662248	0.709080
H162	H	-0.127879	-0.618128	0.660499
H163	H	-0.203669	-0.572099	0.724834
H164	H	-0.173368	-0.616235	0.773422
H165	H	-0.196391	-0.639429	0.750177
H166	H	0.061625	-0.480862	0.693528
C167	C	0.264239	-0.577905	0.902501
C168	C	0.295467	-0.613930	0.943351
C169	C	0.357119	-0.629111	0.912111
H170	H	0.274590	-0.599200	0.878040
H171	H	0.274527	-0.542466	0.878064
H172	H	0.285184	-0.649363	0.967777
H173	H	0.285134	-0.592647	0.967813
H174	H	0.367407	-0.593673	0.887675
H175	H	0.367465	-0.650404	0.887652
H176	H	0.378316	-0.653551	0.939823
H177	H	0.209407	-0.611608	0.562721
C178	C	0.006971	-0.514743	0.659856
C179	C	-0.018788	-0.536087	0.722210
C180	C	-0.080428	-0.521048	0.737503
H181	H	-0.010732	-0.472456	0.645515
H182	H	0.000334	-0.532361	0.642281
H183	H	-0.012156	-0.518467	0.739778
H184	H	-0.001103	-0.578373	0.736565
H185	H	-0.087065	-0.538667	0.719928
H186	H	-0.098124	-0.478761	0.723159
H187	H	-0.097912	-0.535533	0.779811
C188	C	0.264077	-0.577891	0.596454
C189	C	0.295267	-0.613924	0.560417
C190	C	0.356927	-0.629154	0.545200
H191	H	0.274413	-0.542487	0.575159
H192	H	0.274412	-0.599195	0.631877
H193	H	0.284937	-0.592619	0.525000
H194	H	0.284949	-0.649335	0.581700
H195	H	0.367262	-0.650458	0.580623
H196	H	0.367257	-0.593747	0.523907
H197	H	0.378098	-0.653608	0.520753
C198	C	0.692467	-0.741444	0.715026
C199	C	0.743720	-0.755197	0.725614
C200	C	0.743917	-0.800101	0.781319
H201	H	0.657791	-0.727792	0.745562
H202	H	0.692520	-0.776235	0.715089
H203	H	0.743661	-0.720413	0.725555
H204	H	0.778405	-0.768859	0.695092
H205	H	0.743971	-0.834893	0.781382
H206	H	0.709239	-0.786444	0.811850
H207	H	0.778694	-0.809442	0.788508
C208	C	0.410005	-0.630319	0.690150
C209	C	0.450880	-0.688347	0.693438
C210	C	0.419671	-0.728716	0.723184
H211	H	0.385566	-0.628800	0.729446
H212	H	0.385552	-0.619864	0.668793
H213	H	0.475323	-0.698799	0.714796
H214	H	0.475321	-0.689885	0.654152
H215	H	0.395217	-0.718261	0.701827
H216	H	0.395233	-0.727191	0.762477
H217	H	0.447400	-0.768091	0.725414
H218	H	0.692221	-0.728771	0.521355
H219	H	0.532080	-0.473208	0.574011
C220	C	0.409961	-0.418677	0.609494
C221	C	0.450818	-0.387897	0.578946
C222	C	0.419588	-0.326711	0.570024
H223	H	0.385493	-0.403892	0.586511
H224	H	0.385534	-0.412836	0.647154
H225	H	0.475234	-0.393734	0.541292
H226	H	0.475287	-0.402663	0.601919
H227	H	0.395161	-0.320870	0.607684
H228	H	0.395121	-0.311932	0.547042
H229	H	0.447304	-0.305820	0.549301
C230	C	0.540702	-0.673808	0.646624
C231	C	0.576722	-0.695322	0.680457
C232	C	0.608164	-0.756481	0.689381
H233	H	0.513135	-0.694867	0.667382
H234	H	0.565174	-0.679639	0.608964
H235	H	0.552252	-0.689496	0.718110
H236	H	0.604300	-0.674280	0.659709
H237	H	0.632636	-0.762313	0.651722
H238	H	0.580593	-0.777535	0.710138
H239	H	0.632611	-0.771086	0.712333
H240	H	0.200842	-0.263395	0.554238
C241	C	0.025705	0.010320	0.433560
C242	C	-0.032743	0.010292	0.455283
C243	C	-0.044005	0.010218	0.410698
H244	H	0.030109	0.045030	0.399470
H245	H	0.053307	-0.024432	0.422679
H246	H	-0.060337	0.045041	0.466156
H247	H	-0.037161	-0.024416	0.489367
H248	H	-0.016403	-0.024534	0.399816
H249	H	-0.039598	0.044929	0.376610
H250	H	-0.083661	0.010194	0.425432
H251	H	0.692005	-0.507708	0.411338
H252	H	0.070133	-0.149706	0.702094
C253	C	0.167085	-0.141267	0.499612
C254	C	0.203123	-0.182125	0.468397
C255	C	0.218331	-0.150890	0.406740
H256	H	0.131677	-0.116813	0.489267
H257	H	0.188376	-0.116822	0.489303
H258	H	0.181832	-0.206559	0.478701
H259	H	0.238539	-0.206581	0.478724
H260	H	0.239622	-0.126445	0.396431
H261	H	0.182920	-0.126437	0.396401
H262	H	0.242789	-0.178607	0.385553
H263	H	0.692134	-0.508185	0.589902
H264	H	0.207290	0.010797	0.444973
H265	H	0.108067	-0.263426	0.739970
