data_functionalizedCrystal
_audit_creation_method	'MofGen! by Chris Wilmer'
_symmetry_space_group_name_H-M	'P1'
_symmetry_Int_Tables_number	1
_symmetry_cell_setting	triclinic
loop_
_symmetry_equiv_pos_as_xyz
  x,y,z
_cell_length_a	18.101398
_cell_length_b	18.101395
_cell_length_c	12.759393
_cell_angle_alpha	89.966505
_cell_angle_beta	89.972557
_cell_angle_gamma	90.028835
loop_
_atom_site_label
_atom_site_type_symbol
_atom_site_fract_x
_atom_site_fract_y
_atom_site_fract_z
Zn1	Zn	1.132140	-0.294830	-0.594220
Zn2	Zn	1.632140	0.205170	-0.094220
Zn3	Zn	1.132031	-0.418692	-0.418534
Zn4	Zn	1.632031	0.081308	0.081466
Zn5	Zn	1.008294	-0.294864	-0.418531
Zn6	Zn	1.508294	0.205136	0.081469
Zn7	Zn	1.008250	-0.418630	-0.594148
Zn8	Zn	1.508250	0.081370	-0.094148
O9	O	1.070179	-0.356754	-0.506358
O10	O	1.570179	0.143246	-0.006358
O11	O	1.235759	-0.311273	-0.570946
O12	O	1.735759	0.188727	-0.070946
O13	O	1.115589	-0.402306	-0.271512
O14	O	1.615589	0.097694	0.228488
O15	O	1.024786	-0.191227	-0.441866
O16	O	1.524786	0.308773	0.058134
O17	O	1.235678	-0.402274	-0.441870
O18	O	1.735678	0.097726	0.058130
O19	O	1.115776	-0.191202	-0.570943
O20	O	1.615776	0.308798	-0.070943
O21	O	1.024680	-0.311330	-0.271511
O22	O	1.524680	0.188670	0.228489
O23	O	0.904655	-0.311270	-0.441796
O24	O	1.404655	0.188730	0.058204
O25	O	1.024712	-0.402167	-0.741178
O26	O	1.524712	0.097833	-0.241178
O27	O	0.904623	-0.402200	-0.570821
O28	O	1.404623	0.097800	-0.070821
O29	O	1.115734	-0.311212	-0.741231
O30	O	1.615734	0.188788	-0.241231
O31	O	1.115547	-0.522317	-0.441800
O32	O	1.615547	-0.022317	0.058200
O33	O	1.024606	-0.522271	-0.570823
O34	O	1.524606	-0.022271	-0.070823
C35	C	0.877768	-0.356732	-0.506301
C36	C	1.377768	0.143268	-0.006301
C37	C	0.795454	-0.356741	-0.506302
C38	C	1.295454	0.143259	-0.006302
C39	C	0.644746	-0.356756	-0.506349
C40	C	1.144746	0.143244	-0.006349
C41	C	0.613387	-0.299463	-0.425305
C42	C	1.113387	0.200537	0.074695
C43	C	0.527769	-0.299247	-0.425571
C44	C	1.027769	0.200753	0.074429
C45	C	0.496363	-0.356771	-0.506394
C46	C	0.996363	0.143229	-0.006394
C47	C	0.527507	-0.335929	-0.617241
C48	C	1.027507	0.164071	-0.117241
C49	C	0.613151	-0.335505	-0.616746
C50	C	1.113151	0.164495	-0.116746
C51	C	0.613141	-0.435039	-0.477522
C52	C	1.113141	0.064961	0.022478
C53	C	0.527489	-0.434626	-0.475107
C54	C	1.027489	0.065374	0.024893
C55	C	0.412504	-0.356780	-0.506426
C56	C	0.912504	0.143220	-0.006426
C57	C	0.728605	-0.356744	-0.506324
C58	C	1.228605	0.143256	-0.006324
C59	C	1.070080	-0.549165	-0.506327
C60	C	1.570080	-0.049165	-0.006327
C61	C	1.070105	-0.631479	-0.506349
C62	C	1.570105	-0.131479	-0.006349
C63	C	1.070267	-0.930570	-0.506406
C64	C	1.570267	-0.430570	-0.006406
C65	C	1.013183	-0.899246	-0.587785
C66	C	1.513183	-0.399246	-0.087785
C67	C	1.012911	-0.813628	-0.587530
C68	C	1.512911	-0.313628	-0.087530
C69	C	1.070187	-0.782187	-0.506379
C70	C	1.570187	-0.282187	-0.006379
C71	C	1.049054	-0.813346	-0.395649
C72	C	1.549054	-0.313346	0.104351
C73	C	1.048686	-0.898991	-0.396136
C74	C	1.548686	-0.398991	0.103864
C75	C	1.148610	-0.898914	-0.534782
C76	C	1.648610	-0.398914	-0.034782
C77	C	1.148149	-0.813263	-0.537210
C78	C	1.648149	-0.313263	-0.037210
C79	C	1.070142	-0.698328	-0.506356
C80	C	1.570142	-0.198328	-0.006356
C81	C	1.070310	-1.014429	-0.506421
C82	C	1.570310	-0.514429	-0.006421
C83	C	1.263341	-0.356776	-0.506416
C84	C	1.763341	0.143224	-0.006416
C85	C	1.345655	-0.356786	-0.506441
C86	C	1.845655	0.143214	-0.006441
C87	C	1.070230	-0.356679	-0.780392
C88	C	1.570230	0.143321	-0.280392
C89	C	1.070252	-0.356647	-0.897168
C90	C	1.570252	0.143353	-0.397168
C91	C	1.070298	-0.163592	-0.506412
C92	C	1.570298	0.336408	-0.006412
C93	C	1.070349	-0.081278	-0.506435
C94	C	1.570349	0.418722	-0.006435
C95	C	1.022933	-0.309267	-0.952029
C96	C	1.522933	0.190733	-0.452029
C97	C	1.022950	-0.309245	-1.061753
C98	C	1.522950	0.190755	-0.561753
C99	C	1.117613	-0.403983	-1.061746
C100	C	1.617613	0.096017	-0.561746
C101	C	1.117591	-0.404009	-0.952024
C102	C	1.617591	0.095991	-0.452024
C103	C	1.070170	-0.356775	-0.233391
C104	C	1.570170	0.143225	0.266609
C105	C	1.070291	-0.356598	-0.116615
C106	C	1.570291	0.143402	0.383385
H107	H	0.506709	-0.312252	-0.343393
H108	H	1.006709	0.187748	0.156607
H109	H	0.954842	-0.793204	-0.568733
H110	H	1.454842	-0.293204	-0.068733
F111	F	0.972579	-0.258824	-1.120135
F112	F	1.472579	0.241176	-0.620135
F113	F	1.167992	-0.454386	-1.120137
F114	F	1.667992	0.045614	-0.620137
H115	H	0.633926	-0.312319	-0.342854
H116	H	1.133926	0.187681	0.157146
H117	H	0.991418	-0.919034	-0.372100
H118	H	1.491418	-0.419034	0.127900
F119	F	0.974992	-0.785398	-0.363669
F120	F	1.474992	-0.285398	0.136331
F121	F	0.500925	-0.388809	-0.698355
F122	F	1.000925	0.111191	-0.198355
F123	F	0.641550	-0.224073	-0.449997
F124	F	1.141550	0.275927	0.050003
F125	F	0.639302	-0.260723	-0.648595
F126	F	1.139302	0.239277	-0.148595
H127	H	0.507307	-0.241245	-0.444709
H128	H	1.007307	0.258755	0.055291
F129	F	1.101688	-0.786731	-0.314231
F130	F	1.601688	-0.286731	0.185769
F131	F	1.204203	-0.925402	-0.457323
F132	F	1.704203	-0.425402	0.042677
H133	H	1.088460	-0.919715	-0.333434
H134	H	1.588460	-0.419715	0.166566
H135	H	0.633900	-0.375436	-0.679221
H136	H	1.133900	0.124564	-0.179221
H137	H	1.167876	-0.920457	-0.614150
H138	H	1.667876	-0.420457	-0.114150
H139	H	1.164086	-0.792894	-0.618701
H140	H	1.664086	-0.292894	-0.118701
F141	F	0.641316	-0.459913	-0.373634
F142	F	1.141316	0.040087	0.126366
H143	H	1.026273	-0.919788	-0.670155
H144	H	1.526273	-0.419788	-0.170155
H145	H	1.026133	-0.792559	-0.669635
H146	H	1.526133	-0.292559	-0.169635
F147	F	0.499510	-0.261975	-0.649654
F148	F	0.999510	0.238025	-0.149654
H149	H	1.156126	-0.442595	-0.907356
H150	H	1.656126	0.057405	-0.407356
H151	H	0.507131	-0.450348	-0.393528
H152	H	1.007131	0.049652	0.106472
F153	F	0.499568	-0.493377	-0.546618
F154	F	0.999568	0.006623	-0.046618
F155	F	1.206685	-0.785279	-0.465391
F156	F	1.706685	-0.285279	0.034609
F157	F	0.639663	-0.490832	-0.554655
F158	F	1.139663	0.009168	-0.054655
H159	H	0.984387	-0.270702	-0.907368
H160	H	1.484387	0.229298	-0.407368
F161	F	0.937745	-0.927473	-0.563543
F162	F	1.437745	-0.427473	-0.063543
