data_functionalizedCrystal
_audit_creation_method	'MofGen! by Chris Wilmer'
_symmetry_space_group_name_H-M	'P1'
_symmetry_Int_Tables_number	1
_symmetry_cell_setting	triclinic
loop_
_symmetry_equiv_pos_as_xyz
  x,y,z
_cell_length_a	9.065218
_cell_length_b	17.699083
_cell_length_c	7.540329
_cell_angle_alpha	89.995522
_cell_angle_beta	89.996962
_cell_angle_gamma	84.149450
loop_
_atom_site_label
_atom_site_type_symbol
_atom_site_fract_x
_atom_site_fract_y
_atom_site_fract_z
O1	O	1.957110	0.110973	-0.147491
O2	O	1.527555	0.120075	-0.147494
O3	O	1.754468	0.005430	-0.147477
O4	O	1.730196	0.225619	-0.147508
O5	O	1.754455	0.005428	0.147488
O6	O	1.527542	0.120074	0.147471
O7	O	1.957096	0.110971	0.147474
Cu8	Cu	1.742318	0.115522	0.174405
Cu9	Cu	1.742334	0.115524	-0.174425
O10	O	1.730183	0.225617	0.147457
C11	C	1.472588	0.119200	-0.000012
C12	C	1.308822	0.116584	-0.000012
C13	C	1.753592	-0.022775	0.000006
C14	C	1.750983	-0.106813	0.000007
C15	C	1.884176	-0.154396	0.000010
C16	C	1.881716	-0.233358	-0.000006
C17	C	1.746060	-0.264737	-0.000012
C18	C	1.612857	-0.217149	-0.000021
C19	C	1.615319	-0.138188	-0.000018
C20	C	1.602925	-0.535589	-0.000035
C21	C	1.600474	-0.614556	-0.000033
C22	C	1.869322	-0.630760	-0.000023
C23	C	1.871784	-0.551799	-0.000020
C24	C	1.738581	-0.504217	-0.000038
C25	C	1.741251	-0.418597	-0.000025
C26	C	1.743390	-0.350355	-0.000013
C27	C	2.012064	0.111847	-0.000012
C28	C	2.175829	0.114463	-0.000023
C29	C	1.731059	0.253822	-0.000030
C30	C	1.733669	0.337860	-0.000042
N31	N	1.742317	0.115521	0.419754
N32	N	1.742346	0.115520	-0.419774
H33	H	1.994642	-0.128854	0.000026
O34	O	2.011236	-0.279470	0.000088
C35	C	2.131495	-0.234843	0.000066
H36	H	2.093831	-0.176183	0.055908
H37	H	2.224791	-0.263328	0.085714
H38	H	2.173110	-0.228931	-0.141437
H39	H	1.982248	-0.526255	-0.000006
O40	O	1.473674	-0.489267	-0.000124
C41	C	1.504920	-0.412843	-0.000087
H42	H	1.620788	-0.409019	-0.055924
H43	H	1.420006	-0.377661	-0.085732
H44	H	1.499232	-0.390053	0.141420
H45	H	1.502404	-0.242703	-0.000037
H46	H	1.977782	-0.669510	-0.000018
O47	O	1.485839	-0.092041	-0.000255
C48	C	1.403487	-0.106388	-0.153047
H49	H	1.439925	-0.166022	-0.203972
H50	H	1.280423	-0.101674	-0.118698
H51	H	1.423519	-0.063069	-0.260020
O52	O	1.468561	-0.644913	-0.000133
C53	C	1.351519	-0.585986	-0.000110
H54	H	1.392681	-0.532072	-0.055948
H55	H	1.256807	-0.603135	-0.085760
H56	H	1.310424	-0.575101	0.141393
