data_functionalizedCrystal
_audit_creation_method	'MofGen! by Chris Wilmer'
_symmetry_space_group_name_H-M	'P1'
_symmetry_Int_Tables_number	1
_symmetry_cell_setting	triclinic
loop_
_symmetry_equiv_pos_as_xyz
  x,y,z
_cell_length_a	10.654550
_cell_length_b	13.930277
_cell_length_c	10.654551
_cell_angle_alpha	90.001696
_cell_angle_beta	84.485132
_cell_angle_gamma	90.010740
loop_
_atom_site_label
_atom_site_type_symbol
_atom_site_fract_x
_atom_site_fract_y
_atom_site_fract_z
O1	O	1.667847	0.079903	0.176398
O2	O	1.302369	0.079887	0.193204
O3	O	1.493510	0.079896	0.002062
O4	O	1.476705	0.079894	0.367540
O5	O	1.493483	-0.079766	0.002057
O6	O	1.302342	-0.079775	0.193199
O7	O	1.667820	-0.079759	0.176393
Zn8	Zn	1.485077	-0.105116	0.184796
Zn9	Zn	1.485112	0.105245	0.184801
O10	O	1.476679	-0.079767	0.367536
C11	C	1.255557	0.000054	0.191968
C12	C	1.116114	0.000049	0.188276
N13	N	1.485062	-0.248682	0.184791
C14	C	1.036629	0.000062	0.300817
C15	C	0.905608	0.000079	0.297341
C16	C	0.933570	0.000072	0.068771
C17	C	1.064589	0.000049	0.072249
C18	C	1.088154	0.000062	0.416844
C19	C	1.008667	0.000076	0.529395
C20	C	0.877647	0.000093	0.525918
C21	C	0.826112	0.000095	0.409891
C22	C	1.400471	-0.700956	0.269406
C23	C	1.569788	-0.700917	0.100188
C24	C	1.569773	-0.600421	0.100184
C25	C	1.485107	-0.550188	0.184793
C26	C	1.400456	-0.600451	0.269407
C27	C	1.654431	-0.550151	0.015580
C28	C	1.654420	-0.449650	0.015574
C29	C	1.569747	-0.399414	0.100178
C30	C	1.485092	-0.449683	0.184794
C31	C	1.400426	-0.399450	0.269404
C32	C	1.315764	-0.449717	0.354015
C33	C	1.315783	-0.550215	0.354011
C34	C	1.569728	-0.298916	0.100182
C35	C	1.400411	-0.298945	0.269405
C36	C	1.714632	0.000076	0.177629
C37	C	1.854075	0.000089	0.181321
C38	C	1.492263	0.000067	-0.044739
C39	C	1.488570	0.000074	-0.184182
N40	N	1.485137	0.248811	0.184796
C41	C	1.486853	0.087104	-0.249691
C42	C	1.483372	0.087099	-0.380712
C43	C	1.483333	-0.086973	-0.380702
C44	C	1.486804	-0.086968	-0.249683
C45	C	1.488619	0.174145	-0.184190
C46	C	1.486903	0.261182	-0.249700
C47	C	1.483422	0.261177	-0.380720
C48	C	1.481658	0.174136	-0.446231
C49	C	1.477926	0.000064	0.414336
C50	C	1.481619	0.000064	0.553779
H51	H	1.194836	0.000053	0.419687
H52	H	1.638664	-0.257993	0.031298
H53	H	1.246833	-0.408805	0.422910
H54	H	1.331537	-0.741885	0.338292
C55	C	1.277849	0.000005	-0.023897
C56	C	1.151971	0.000034	-0.051456
H57	H	1.331793	-0.000013	-0.100271
H58	H	1.293600	0.055677	0.023618
H59	H	1.293526	-0.055678	0.023634
H60	H	1.136291	0.055722	-0.098980
H61	H	1.136213	-0.055644	-0.098992
H62	H	1.246855	-0.591149	0.422900
H63	H	1.331461	-0.258051	0.338300
C64	C	1.486580	0.433243	-0.262869
C65	C	1.488832	0.356855	-0.177697
H66	H	1.487763	0.492308	-0.218416
H67	H	1.558327	0.429624	-0.322911
H68	H	1.412109	0.429610	-0.305029
H69	H	1.563309	0.360484	-0.135544
H70	H	1.417078	0.360476	-0.117633
C71	C	0.745140	0.000118	-0.038044
C72	C	0.876925	0.000088	-0.058759
H73	H	0.710175	0.000137	-0.116780
H74	H	0.717901	-0.055553	0.008329
H75	H	0.717972	0.055803	0.008350
H76	H	0.904094	-0.055600	-0.105146
H77	H	0.904176	0.055765	-0.105152
H78	H	1.481897	-0.157838	-0.434051
H79	H	1.638726	-0.741820	0.031307
H80	H	1.491456	0.174158	-0.077507
C81	C	1.729615	-0.704194	-0.059556
C82	C	1.747491	-0.605368	-0.077417
H83	H	1.787064	-0.738283	-0.116978
H84	H	1.743981	-0.720654	0.024383
H85	H	1.645679	-0.720668	-0.073980
H86	H	1.831425	-0.588893	-0.062984
H87	H	1.733135	-0.588901	-0.161376
H88	H	1.488176	-0.157835	-0.196340
C89	C	1.478098	0.338464	-0.581564
C90	C	1.481527	0.356844	-0.452732
H91	H	1.476924	0.397528	-0.626015
H92	H	1.550623	0.302709	-0.611971
H93	H	1.404405	0.302702	-0.594077
H94	H	1.555224	0.392600	-0.440218
H95	H	1.408994	0.392613	-0.422315
H96	H	1.050636	0.000066	0.623860
C97	C	1.368867	0.126719	-0.620701
C98	C	1.477813	0.174116	-0.590249
H99	H	1.366492	0.126710	-0.709610
H100	H	1.369658	0.062442	-0.591049
H101	H	1.296564	0.158875	-0.582110
H102	H	1.550117	0.141956	-0.628833
H103	H	1.477033	0.238405	-0.619915
H104	H	0.812931	0.000095	0.617562
C105	C	1.821779	-0.459717	-0.151703
C106	C	1.747466	-0.394401	-0.077439
H107	H	1.879214	-0.425606	-0.209132
H108	H	1.867416	-0.498896	-0.099004
H109	H	1.769104	-0.498936	-0.197356
H110	H	1.800142	-0.355187	-0.031779
H111	H	1.701827	-0.355206	-0.130146
H112	H	0.719425	0.000094	0.407069
