data_functionalizedCrystal
_audit_creation_method	'MofGen! by Chris Wilmer'
_symmetry_space_group_name_H-M	'P1'
_symmetry_Int_Tables_number	1
_symmetry_cell_setting	triclinic
loop_
_symmetry_equiv_pos_as_xyz
  x,y,z
_cell_length_a	14.853567
_cell_length_b	14.853567
_cell_length_c	13.330367
_cell_angle_alpha	90.004582
_cell_angle_beta	89.999156
_cell_angle_gamma	96.365070
loop_
_atom_site_label
_atom_site_type_symbol
_atom_site_fract_x
_atom_site_fract_y
_atom_site_fract_z
O1	O	0.117704	-1.196369	-0.083346
O2	O	0.131725	-0.933909	-0.083362
O3	O	-0.006515	-1.072150	-0.083356
O4	O	0.255944	-1.058128	-0.083351
O5	O	-0.006519	-1.072130	0.083491
O6	O	0.131722	-0.933889	0.083485
O7	O	0.117700	-1.196349	0.083501
Cu8	Cu	0.124711	-1.065117	0.098728
Cu9	Cu	0.124715	-1.065141	-0.098588
O10	O	0.255941	-1.058108	0.083496
C11	C	-0.040106	-1.071504	0.000064
C12	C	-0.140189	-1.069601	0.000055
C13	C	0.131088	-0.900311	0.000060
C14	C	0.129184	-0.800227	0.000053
C15	C	-0.552723	-0.979435	0.000069
C16	C	-0.574004	-1.143668	0.000079
C17	C	-0.479971	-1.145458	0.000073
C18	C	-0.422309	-1.064235	0.000067
C19	C	-0.458680	-0.981223	0.000066
C20	C	-0.443591	-1.228469	0.000084
C21	C	-0.349552	-1.230262	0.000079
C22	C	-0.291889	-1.149039	0.000066
C23	C	-0.328266	-1.066023	0.000064
C24	C	-0.270604	-0.984800	0.000058
C25	C	-0.306979	-0.901783	0.000049
C26	C	-0.401017	-0.899999	0.000053
C27	C	-0.197851	-1.150823	0.000062
C28	C	-0.176561	-0.986588	0.000055
C29	C	0.118337	-1.229947	0.000078
C30	C	0.120241	-1.330031	0.000078
C31	C	0.289531	-1.058754	0.000073
C32	C	0.389615	-1.060657	0.000075
N33	N	0.124708	-1.065107	0.237509
C34	C	0.039019	-0.387693	0.000074
C35	C	0.203251	-0.366412	0.000076
C36	C	0.205042	-0.460446	0.000073
C37	C	0.123819	-0.518108	0.000069
C38	C	0.040806	-0.481736	0.000067
C39	C	0.288053	-0.496825	0.000064
C40	C	0.289846	-0.590864	0.000059
C41	C	0.208623	-0.648528	0.000062
C42	C	0.125607	-0.612150	0.000062
C43	C	0.044384	-0.669812	0.000058
C44	C	-0.038633	-0.633437	0.000065
C45	C	-0.040417	-0.539399	0.000070
C46	C	0.210407	-0.742565	0.000057
C47	C	0.046172	-0.763855	0.000052
N48	N	0.124711	-1.065158	-0.237370
C49	C	0.185903	-1.003925	0.710130
C50	C	0.063519	-1.126381	0.710103
C51	C	0.063516	-1.126371	0.605084
C52	C	0.124709	-1.065138	0.552584
C53	C	0.185904	-1.003915	0.605102
C54	C	0.002328	-1.187598	0.552559
C55	C	0.002323	-1.187591	0.447534
C56	C	0.063512	-1.126353	0.395031
C57	C	0.124710	-1.065127	0.447556
C58	C	0.185902	-1.003895	0.395055
C59	C	0.247096	-0.942664	0.447578
C60	C	0.247093	-0.942677	0.552599
C61	C	0.063515	-1.126340	0.290010
C62	C	0.185903	-1.003884	0.290027
H63	H	-0.129618	-0.920445	0.000045
H64	H	-0.490546	-1.294596	0.000099
F65	F	0.251030	-0.938706	0.234160
H66	H	0.354180	-0.449870	0.000057
F67	F	0.312225	-0.877503	0.391692
H68	H	0.013696	-1.176197	0.247251
H69	H	-0.620958	-1.209795	0.000092
H70	H	-0.319944	-1.297860	0.000085
F71	F	-0.159141	-1.239169	0.000087
H72	H	0.357443	-0.620472	0.000053
F73	F	-0.040279	-0.825217	0.000055
H74	H	0.269379	-0.319459	0.000071
H75	H	-0.260019	-0.835652	0.000051
H76	H	-0.104764	-0.680397	0.000055
H77	H	-0.430643	-0.832411	0.000046
F78	F	-0.049330	-0.348980	0.000086
H79	H	-0.108005	-0.509774	0.000100
H80	H	0.296916	-0.892826	0.595370
H81	H	0.235724	-0.954070	0.752896
F82	F	-0.062790	-1.252769	0.608433
F83	F	0.298753	-0.781275	0.000042
F84	F	-0.062805	-1.252755	0.391643
F85	F	-0.591436	-0.891087	0.000051
F86	F	-0.001599	-1.191552	0.765977
