data_functionalizedCrystal
_audit_creation_method	'MofGen! by Chris Wilmer'
_symmetry_space_group_name_H-M	'P1'
_symmetry_Int_Tables_number	1
_symmetry_cell_setting	triclinic
loop_
_symmetry_equiv_pos_as_xyz
  x,y,z
_cell_length_a	10.686285
_cell_length_b	12.759401
_cell_length_c	12.759393
_cell_angle_alpha	90.022017
_cell_angle_beta	85.603657
_cell_angle_gamma	94.367583
loop_
_atom_site_label
_atom_site_type_symbol
_atom_site_fract_x
_atom_site_fract_y
_atom_site_fract_z
Zn1	Zn	-0.502268	-1.638398	-0.562048
Zn2	Zn	-0.002268	-1.138398	-0.062048
Zn3	Zn	-0.713305	-1.651793	-0.372916
Zn4	Zn	-0.213305	-1.151793	0.127084
Zn5	Zn	-0.502330	-1.462702	-0.386375
Zn6	Zn	-0.002330	-0.962702	0.113625
Zn7	Zn	-0.713216	-1.476185	-0.548554
Zn8	Zn	-0.213216	-0.976185	-0.048554
O9	O	-0.607780	-1.557270	-0.467473
O10	O	-0.107780	-1.057270	0.032527
O11	O	-0.530274	-1.787196	-0.536974
O12	O	-0.030274	-1.287196	-0.036974
O13	O	-0.685382	-1.626673	-0.227676
O14	O	-0.185382	-1.126673	0.272324
O15	O	-0.325746	-1.474760	-0.420958
O16	O	0.174254	-0.974760	0.079042
O17	O	-0.685321	-1.797038	-0.398020
O18	O	-0.185321	-1.297038	0.101980
O19	O	-0.325700	-1.603843	-0.550024
O20	O	0.174300	-1.103843	-0.050024
O21	O	-0.530380	-1.487748	-0.237564
O22	O	-0.030380	-0.987748	0.262436
O23	O	-0.530294	-1.317469	-0.407873
O24	O	-0.030294	-0.817469	0.092127
O25	O	-0.685171	-1.497740	-0.697370
O26	O	-0.185171	-0.997740	-0.197370
O27	O	-0.685231	-1.327375	-0.527026
O28	O	-0.185231	-0.827375	-0.027026
O29	O	-0.530188	-1.616917	-0.707283
O30	O	-0.030188	-1.116917	-0.207283
O31	O	-0.889869	-1.639747	-0.384936
O32	O	-0.389869	-1.139747	0.115064
O33	O	-0.889804	-1.510729	-0.513976
O34	O	-0.389804	-1.010729	-0.013976
C35	C	-0.607761	-1.284301	-0.467446
C36	C	-0.107761	-0.784301	0.032554
C37	C	-0.607783	-1.167526	-0.467458
C38	C	-0.107783	-0.667526	0.032542
C39	C	-0.935621	-1.578183	-0.446554
C40	C	-0.435621	-1.078183	0.053446
C41	C	-1.075873	-1.587226	-0.437640
C42	C	-0.575873	-1.087226	0.062360
C43	C	-0.688580	-1.117857	-0.529386
C44	C	-0.188580	-0.617857	-0.029386
C45	C	-0.688584	-1.008133	-0.529403
C46	C	-0.188584	-0.508133	-0.029403
C47	C	-0.526988	-0.997756	-0.405556
C48	C	-0.026988	-0.497756	0.094444
C49	C	-0.526979	-1.107477	-0.405545
C50	C	-0.026979	-0.607477	0.094455
C51	C	-0.278659	-1.536303	-0.488497
C52	C	0.221341	-1.036303	0.011503
C53	C	-0.138407	-1.527368	-0.497456
C54	C	0.361593	-1.027368	0.002544
C55	C	-0.607662	-1.557338	-0.741514
C56	C	-0.107662	-1.057338	-0.241514
C57	C	-0.607612	-1.557368	-0.858294
C58	C	-0.107612	-1.057368	-0.358294
C59	C	-0.607797	-0.831304	-0.467494
C60	C	-0.107797	-0.331304	0.032506
C61	C	-0.607794	-0.948080	-0.467487
C62	C	-0.107794	-0.448080	0.032513
C63	C	-0.688228	-1.629727	-1.017749
C64	C	-0.188228	-1.129727	-0.517749
C65	C	-0.688288	-1.629706	-0.908021
C66	C	-0.188288	-1.129706	-0.408021
C67	C	-0.526881	-1.485040	-0.918301
C68	C	-0.026881	-0.985040	-0.418301
C69	C	-0.526829	-1.485058	-1.028026
C70	C	-0.026829	-0.985058	-0.528026
C71	C	-0.607806	-1.557256	-0.194504
C72	C	-0.107806	-1.057256	0.305496
C73	C	-0.607501	-1.557407	-0.077748
C74	C	-0.107501	-1.057407	0.422252
H75	H	-0.754373	-1.166745	-0.579802
H76	H	-0.254373	-0.666745	-0.079802
H77	H	-1.084649	-1.469203	-0.555489
H78	H	-0.584649	-0.969203	-0.055489
Cl79	Cl	-1.158874	-1.677023	-0.348023
Cl80	Cl	-0.658874	-1.177023	0.151977
Cl81	Cl	-0.790160	-0.945698	-0.607261
Cl82	Cl	-0.290160	-0.445698	-0.107261
Cl83	Cl	-0.789648	-1.720678	-1.080252
Cl84	Cl	-0.289648	-1.220678	-0.580252
H85	H	-0.754024	-1.688596	-0.859175
H86	H	-0.254024	-1.188596	-0.359175
H87	H	-0.461199	-1.426137	-0.877804
H88	H	0.038801	-0.926137	-0.377804
Cl89	Cl	-0.425353	-1.394118	-1.103457
Cl90	Cl	0.074647	-0.894118	-0.603457
H91	H	-0.461202	-0.948852	-0.355148
H92	H	0.038798	-0.448852	0.144852
H93	H	-0.461176	-1.147918	-0.355116
H94	H	0.038824	-0.647918	0.144884
