data_functionalizedCrystal
_audit_creation_method	'MofGen! by Chris Wilmer'
_symmetry_space_group_name_H-M	'P1'
_symmetry_Int_Tables_number	1
_symmetry_cell_setting	triclinic
loop_
_symmetry_equiv_pos_as_xyz
  x,y,z
_cell_length_a	14.044191
_cell_length_b	17.019294
_cell_length_c	13.101039
_cell_angle_alpha	89.487532
_cell_angle_beta	86.337551
_cell_angle_gamma	88.281862
loop_
_atom_site_label
_atom_site_type_symbol
_atom_site_fract_x
_atom_site_fract_y
_atom_site_fract_z
O1	O	1.263670	0.185438	-0.101525
O2	O	1.597004	0.518772	0.231809
O3	O	1.930337	0.852105	0.565142
O4	O	0.987674	0.178598	-0.100934
O5	O	1.321007	0.511931	0.232399
O6	O	1.654341	0.845265	0.565732
O7	O	1.132755	0.068197	-0.091181
O8	O	1.466088	0.401531	0.242153
O9	O	1.799422	0.734864	0.575486
O10	O	1.118589	0.295839	-0.111278
O11	O	1.451923	0.629172	0.222055
O12	O	1.785256	0.962506	0.555388
O13	O	1.122346	0.076133	0.078548
O14	O	1.455679	0.409466	0.411881
O15	O	1.789012	0.742799	0.745215
O16	O	0.977265	0.186533	0.068795
O17	O	1.310598	0.519867	0.402128
O18	O	1.643931	0.853200	0.735461
O19	O	1.253261	0.193374	0.068204
O20	O	1.586594	0.526707	0.401537
O21	O	1.919928	0.860040	0.734871
Zn22	Zn	1.113610	0.191213	0.095447
Zn23	Zn	1.446943	0.524547	0.428781
Zn24	Zn	1.780277	0.857880	0.762114
Zn25	Zn	1.127325	0.180758	-0.128178
Zn26	Zn	1.460658	0.514091	0.205156
Zn27	Zn	1.793991	0.847425	0.538489
O28	O	1.108180	0.303774	0.058450
O29	O	1.441513	0.637108	0.391784
O30	O	1.774847	0.970441	0.725117
C31	C	0.947143	0.179574	-0.015807
C32	C	1.280476	0.512907	0.317526
C33	C	1.613809	0.846240	0.650859
C34	C	0.841881	0.170648	-0.015025
C35	C	1.175214	0.503982	0.318308
C36	C	1.508548	0.837315	0.651642
C37	C	0.591784	0.217630	-0.019162
C38	C	0.925117	0.550964	0.314171
C39	C	1.258451	0.884297	0.647504
C40	C	0.649157	0.154344	-0.013577
C41	C	0.982490	0.487678	0.319756
C42	C	1.315824	0.821011	0.653090
C43	C	0.756398	0.163418	-0.014383
C44	C	1.089732	0.496751	0.318951
C45	C	1.423065	0.830085	0.652284
C46	C	0.484533	0.208558	-0.018357
C47	C	0.817866	0.541891	0.314977
C48	C	1.151199	0.875224	0.648310
C49	C	1.126808	0.042856	-0.003731
C50	C	1.460141	0.376189	0.329602
C51	C	1.793475	0.709522	0.662936
C52	C	1.124585	-0.044478	0.003972
C53	C	1.457918	0.288856	0.337306
C54	C	1.791251	0.622189	0.670639
C55	C	1.129216	-0.089828	-0.084927
C56	C	1.462550	0.243505	0.248406
C57	C	1.795883	0.576839	0.581740
C58	C	1.127121	-0.171887	-0.077686
C59	C	1.460454	0.161447	0.255648
C60	C	1.793788	0.494780	0.588981
C61	C	1.120401	-0.208594	0.018456
C62	C	1.453734	0.124740	0.351790
C63	C	1.787067	0.458073	0.685123
C64	C	1.115766	-0.163237	0.107362
C65	C	1.449099	0.170096	0.440696
C66	C	1.782432	0.503430	0.774029
C67	C	1.117854	-0.081180	0.100120
C68	C	1.451188	0.252154	0.433453
C69	C	1.784521	0.585487	0.766787
C70	C	1.113804	-0.456137	0.044952
C71	C	1.447138	-0.122804	0.378285
C72	C	1.780471	0.210529	0.711619
C73	C	1.111719	-0.538201	0.052188
C74	C	1.445052	-0.204867	0.385521
C75	C	1.778386	0.128466	0.718854
C76	C	1.123073	-0.546845	-0.132861
C77	C	1.456406	-0.213511	0.200472
C78	C	1.789739	0.119822	0.533806
C79	C	1.125166	-0.464786	-0.140095
C80	C	1.458500	-0.131452	0.193239
C81	C	1.791833	0.201881	0.526572
C82	C	1.120526	-0.419436	-0.051189
C83	C	1.453860	-0.086103	0.282145
C84	C	1.787193	0.247231	0.615478
C85	C	1.118262	-0.292471	0.025860
C86	C	1.451595	0.040863	0.359194
C87	C	1.784928	0.374196	0.692527
C88	C	1.122658	-0.335560	-0.058594
C89	C	1.455992	-0.002227	0.274739
C90	C	1.789325	0.331106	0.608073
C91	C	1.293792	0.192398	-0.016925
C92	C	1.627126	0.525731	0.316408
C93	C	1.960459	0.859065	0.649742
C94	C	1.399054	0.201323	-0.017714
C95	C	1.732388	0.534656	0.315619
C96	C	2.065721	0.867990	0.648952
C97	C	1.114127	0.329116	-0.029001
C98	C	1.447460	0.662449	0.304332
C99	C	1.780794	0.995783	0.637665
C100	C	1.116351	0.416449	-0.036712
C101	C	1.449684	0.749782	0.296622
C102	C	1.783017	1.083116	0.629955
N103	N	1.104257	0.198349	0.248066
N104	N	1.437590	0.531682	0.581399
N105	N	1.770924	0.865016	0.914732
N106	N	1.136685	0.173617	-0.280795
N107	N	1.470019	0.506950	0.052538
N108	N	1.803352	0.840284	0.385871
C109	C	1.091532	0.208064	0.456250
C110	C	1.424865	0.541397	0.789583
C111	C	1.758199	0.874731	1.122916
C112	C	1.149407	0.163904	0.511027
C113	C	1.482741	0.497237	0.844360
C114	C	1.816074	0.830571	1.177694
C115	C	1.142327	0.169310	0.626868
C116	C	1.475660	0.502643	0.960201
C117	C	1.808994	0.835976	1.293534
C118	C	1.098611	0.202659	0.340398
C119	C	1.431944	0.535993	0.673732
C120	C	1.765278	0.869326	1.007065
H121	H	0.617739	0.093346	-0.008264
H122	H	0.951072	0.426679	0.325070
H123	H	1.284405	0.760013	0.658403
N124	N	1.132489	-0.425232	-0.243811
N125	N	1.465823	-0.091899	0.089522
N126	N	1.799156	0.241435	0.422855
H127	H	1.192348	-0.393661	-0.250701
H128	H	1.525681	-0.060327	0.082632
H129	H	1.859014	0.273006	0.415966
H130	H	1.135088	-0.466487	-0.298935
H131	H	1.468422	-0.133154	0.034399
H132	H	1.801755	0.200180	0.367732
N133	N	0.633397	0.298422	-0.026302
N134	N	0.966730	0.631755	0.307032
N135	N	1.300064	0.965088	0.640365
H136	H	0.705220	0.293532	-0.025876
H137	H	1.038553	0.626865	0.307457
H138	H	1.371886	0.960199	0.640791
H139	H	0.615213	0.324941	-0.091827
H140	H	0.948546	0.658274	0.241507
H141	H	1.281879	0.991607	0.574840
H142	H	1.134694	-0.059948	-0.163216
H143	H	1.468027	0.273385	0.170117
H144	H	1.801360	0.606719	0.503451
H145	H	1.204274	0.122038	0.470923
H146	H	1.537608	0.455372	0.804257
H147	H	1.870941	0.788705	1.137590
N148	N	1.018858	0.263519	0.509360
N149	N	1.352191	0.596852	0.842693
N150	N	1.685524	0.930185	1.176026
H151	H	1.024041	0.259567	0.585783
H152	H	1.357374	0.592901	0.919117
H153	H	1.690708	0.926234	1.252450
H154	H	1.031274	0.319144	0.485763
H155	H	1.364607	0.652478	0.819096
H156	H	1.697941	0.985811	1.152429
H157	H	1.126848	-0.583777	-0.205243
H158	H	1.460182	-0.250443	0.128090
H159	H	1.793515	0.082890	0.461424
N160	N	1.132227	-0.220768	-0.173601
N161	N	1.465560	0.112565	0.159732
N162	N	1.798893	0.445898	0.493065
H163	H	1.076401	-0.206138	-0.215581
H164	H	1.409735	0.127195	0.117753
H165	H	1.743068	0.460528	0.451086
H166	H	1.193852	-0.210548	-0.214935
H167	H	1.527186	0.122785	0.118398
H168	H	1.860519	0.456118	0.451732
N169	N	1.104474	-0.577795	0.155888
N170	N	1.437807	-0.244461	0.489221
N171	N	1.771140	0.088872	0.822555
H172	H	1.101850	-0.536615	0.211112
H173	H	1.435183	-0.203282	0.544445
H174	H	1.768516	0.130051	0.877778
H175	H	1.044648	-0.609406	0.162715
H176	H	1.377982	-0.276072	0.496048
H177	H	1.711315	0.057261	0.829382
N178	N	1.108815	-0.407230	0.140838
N179	N	1.442148	-0.073897	0.474172
N180	N	1.775481	0.259436	0.807505
H181	H	1.047261	-0.417373	0.182352
H182	H	1.380595	-0.084040	0.515685
H183	H	1.713928	0.249294	0.849018
H184	H	1.164731	-0.421898	0.182662
H185	H	1.498065	-0.088565	0.515995
H186	H	1.831398	0.244768	0.849328
H187	H	1.114069	-0.044256	0.172511
H188	H	1.447403	0.289078	0.505845
H189	H	1.780736	0.622411	0.839178
N190	N	1.108527	-0.202824	0.211060
N191	N	1.441860	0.130509	0.544393
N192	N	1.775194	0.463843	0.877727
H193	H	1.107915	-0.261689	0.202161
H194	H	1.441248	0.071644	0.535494
H195	H	1.774582	0.404978	0.868827
H196	H	1.165134	-0.188837	0.250386
H197	H	1.498467	0.144497	0.583720
H198	H	1.831801	0.477830	0.917053
H199	H	1.112793	-0.322367	0.104139
H200	H	1.446127	0.010967	0.437473
H201	H	1.779460	0.344300	0.770806
N202	N	1.129845	-0.295941	-0.162268
N203	N	1.463178	0.037392	0.171065
N204	N	1.796511	0.370725	0.504399
H205	H	1.189659	-0.264318	-0.169210
H206	H	1.522992	0.069015	0.164123
H207	H	1.856326	0.402349	0.497457
H208	H	1.132407	-0.337142	-0.217458
H209	H	1.465740	-0.003809	0.115875
H210	H	1.799074	0.329525	0.449208
