data_functionalizedCrystal
_audit_creation_method	'MofGen! by Chris Wilmer'
_symmetry_space_group_name_H-M	'P1'
_symmetry_Int_Tables_number	1
_symmetry_cell_setting	triclinic
loop_
_symmetry_equiv_pos_as_xyz
  x,y,z
_cell_length_a	16.109301
_cell_length_b	16.109301
_cell_length_c	14.586319
_cell_angle_alpha	89.994786
_cell_angle_beta	89.999213
_cell_angle_gamma	83.461481
loop_
_atom_site_label
_atom_site_type_symbol
_atom_site_fract_x
_atom_site_fract_y
_atom_site_fract_z
O1	O	1.103131	0.106866	-0.076185
O2	O	0.861069	0.120165	-0.076200
O3	O	0.988749	-0.007515	-0.076183
O4	O	0.975450	0.234547	-0.076203
O5	O	0.988741	-0.007517	0.076298
O6	O	0.861060	0.120164	0.076281
O7	O	1.103122	0.106864	0.076295
Cu8	Cu	0.982090	0.113514	0.090211
Cu9	Cu	0.982101	0.113516	-0.090115
O10	O	0.975441	0.234545	0.076278
C11	C	0.830090	0.119626	0.000038
C12	C	0.737794	0.118011	0.000033
C13	C	0.515522	0.190018	0.000038
C14	C	0.428801	0.188494	0.000044
C15	C	0.448676	0.037006	0.000052
C16	C	0.535394	0.038530	0.000053
C17	C	0.568815	0.115039	0.000041
C18	C	0.395376	0.111990	0.000046
C19	C	0.301350	0.110337	0.000053
C20	C	0.662847	0.116693	0.000036
C21	C	0.988206	-0.038491	0.000058
C22	C	0.986591	-0.130786	0.000059
C23	C	1.058599	-0.353059	0.000049
C24	C	1.057075	-0.439779	0.000041
C25	C	0.905586	-0.419905	0.000036
C26	C	0.907111	-0.333186	0.000037
C27	C	0.983620	-0.299766	0.000048
C28	C	0.980571	-0.473205	0.000039
C29	C	0.978918	-0.567231	0.000031
C30	C	0.985273	-0.205734	0.000055
C31	C	1.134101	0.107404	0.000055
C32	C	1.226397	0.109019	0.000054
C33	C	0.975984	0.265521	0.000035
C34	C	0.977600	0.357816	0.000028
N35	N	0.982089	0.113512	0.217042
N36	N	0.982109	0.113511	-0.216947
C37	C	1.038644	0.056994	0.452057
C38	C	1.038647	0.056992	0.548038
C39	C	0.925547	0.170032	0.548032
C40	C	0.925541	0.170030	0.452052
C41	C	0.982095	0.113511	0.404067
C42	C	0.982103	0.113512	0.596028
C43	C	0.982105	0.113510	0.700095
C44	C	0.982092	0.113512	0.299993
H45	H	0.578788	-0.022530	0.000058
O46	O	1.132864	-0.320494	-0.000072
C47	C	1.138286	-0.270936	-0.079054
H48	H	1.072751	-0.249315	-0.105380
H49	H	1.175075	-0.309256	-0.134355
C50	C	1.263531	-0.220803	-0.022733
C51	C	1.183040	-0.194240	-0.055062
H52	H	1.291140	-0.173495	-0.007936
H53	H	1.259881	-0.254192	0.030478
H54	H	1.294178	-0.252736	-0.068822
H55	H	1.152391	-0.162317	-0.008969
H56	H	1.186686	-0.160843	-0.108265
O57	O	1.093616	0.002206	0.594755
C58	C	1.144907	0.046747	0.650249
H59	H	1.111775	0.111795	0.664625
H60	H	1.206347	0.052415	0.613255
C61	C	1.203388	-0.080020	0.723766
C62	C	1.162692	-0.000128	0.741429
H63	H	1.214362	-0.108935	0.780008
H64	H	1.168834	-0.110029	0.686377
H65	H	1.254583	-0.075285	0.692935
H66	H	1.111493	-0.004864	0.772249
H67	H	1.197237	0.029879	0.778826
O68	O	0.377068	0.261352	-0.000126
C69	C	0.392229	0.307811	-0.079091
H70	H	0.421879	0.263911	-0.134284
H71	H	0.436372	0.355922	-0.061243
C72	C	0.272689	0.406792	-0.047111
C73	C	0.309100	0.352872	-0.114903
H74	H	0.221412	0.434591	-0.069201
H75	H	0.262476	0.375493	0.006091
H76	H	0.309483	0.446877	-0.032244
H77	H	0.272310	0.312782	-0.129761
H78	H	0.319304	0.384165	-0.168109
O79	O	0.834349	-0.281292	-0.000005
C80	C	0.852103	-0.197587	0.000017
H81	H	0.917409	-0.194285	-0.028847
H82	H	0.848943	-0.172511	0.073168
C83	C	0.707340	-0.148540	-0.024336
C84	C	0.787547	-0.144484	-0.059794
H85	H	0.667517	-0.115782	-0.061226
H86	H	0.695377	-0.204934	-0.024347
H87	H	0.704718	-0.127644	0.036623
H88	H	0.790171	-0.165389	-0.120748
H89	H	0.799509	-0.088093	-0.059795
O90	O	0.548026	0.264315	-0.000130
C91	C	0.597609	0.269728	-0.079090
H92	H	0.577116	0.226289	-0.134285
H93	H	0.666002	0.250537	-0.061237
C94	C	0.612234	0.413599	-0.047110
C95	C	0.587059	0.360251	-0.114904
H96	H	0.605730	0.469437	-0.069200
H97	H	0.578832	0.409952	0.006089
H98	H	0.669226	0.397596	-0.032238
H99	H	0.530066	0.376247	-0.129767
H100	H	0.620452	0.363903	-0.168107
H101	H	0.421454	-0.025285	0.000067
O102	O	0.831217	-0.452272	0.000153
C103	C	0.785517	-0.425058	0.079133
H104	H	0.808162	-0.364923	0.105463
H105	H	0.795155	-0.475246	0.134432
C106	C	0.664175	-0.482625	0.022802
C107	C	0.691983	-0.408762	0.055136
H108	H	0.606479	-0.472577	0.008002
H109	H	0.694964	-0.500963	-0.030407
H110	H	0.672214	-0.524442	0.068890
H111	H	0.683954	-0.366951	0.009044
H112	H	0.661191	-0.390417	0.108337
H113	H	1.118130	-0.483168	0.000040
O114	O	1.093604	0.002009	0.405585
C115	C	1.143529	-0.047862	0.468528
H116	H	1.109447	-0.048806	0.536949
H117	H	1.205282	-0.020851	0.478728
C118	C	1.202547	-0.136390	0.347048
C119	C	1.160683	-0.137556	0.431081
H120	H	1.213132	-0.191717	0.323948
H121	H	1.168914	-0.102790	0.304641
H122	H	1.254003	-0.113877	0.355559
H123	H	1.109224	-0.160059	0.422567
H124	H	1.194308	-0.171162	0.473486
O125	O	0.870699	0.224905	0.594789
C126	C	0.882817	0.212778	0.689794
H127	H	0.948923	0.181721	0.702901
H128	H	0.835773	0.171067	0.717044
C129	C	0.789110	0.335972	0.722960
C130	C	0.870305	0.297834	0.739058
H131	H	0.781389	0.388437	0.753350
H132	H	0.780943	0.344141	0.658953
H133	H	0.749916	0.301205	0.745668
H134	H	0.909497	0.332596	0.716340
H135	H	0.878478	0.289672	0.803063
H136	H	0.879487	0.216053	0.412977
