data_functionalizedCrystal
_audit_creation_method	'MofGen! by Chris Wilmer'
_symmetry_space_group_name_H-M	'P1'
_symmetry_Int_Tables_number	1
_symmetry_cell_setting	triclinic
loop_
_symmetry_equiv_pos_as_xyz
  x,y,z
_cell_length_a	10.654554
_cell_length_b	10.489741
_cell_length_c	9.730223
_cell_angle_alpha	89.998920
_cell_angle_beta	89.999646
_cell_angle_gamma	84.512959
loop_
_atom_site_label
_atom_site_type_symbol
_atom_site_fract_x
_atom_site_fract_y
_atom_site_fract_z
O1	O	1.667915	0.179184	-0.114294
O2	O	1.302445	0.196247	-0.114296
O3	O	1.493496	0.002114	-0.114287
O4	O	1.476864	0.373317	-0.114303
O5	O	1.493494	0.002119	0.114293
O6	O	1.302443	0.196252	0.114284
O7	O	1.667912	0.179189	0.114286
Zn8	Zn	1.485177	0.187721	0.150577
Zn9	Zn	1.485180	0.187715	-0.150587
O10	O	1.476861	0.373322	0.114277
C11	C	1.255645	0.194996	-0.000006
C12	C	1.116201	0.191244	-0.000006
C13	C	0.905744	0.302025	-0.000014
C14	C	1.036767	0.305551	-0.000014
C15	C	1.064605	0.073401	-0.000012
C16	C	0.933584	0.069877	-0.000021
C17	C	0.889673	0.436055	-0.000010
C18	C	1.020696	0.439582	-0.000010
C19	C	1.492239	-0.045415	0.000003
C20	C	1.488480	-0.187043	0.000000
C21	C	1.366920	-0.255126	-0.000010
C22	C	1.424343	-0.347273	0.112691
C23	C	1.424374	-0.347252	-0.112670
C24	C	1.545953	-0.277324	0.112795
C25	C	1.545967	-0.277294	-0.112668
C26	C	1.603478	-0.369414	0.000061
C27	C	1.714712	0.180440	-0.000007
C28	C	1.854157	0.184192	-0.000015
C29	C	1.478119	0.420851	-0.000015
C30	C	1.481877	0.562478	-0.000022
N31	N	1.485184	0.187725	0.356114
N32	N	1.485183	0.187701	-0.356123
C33	C	1.569804	0.101792	0.428044
C34	C	1.569800	0.101776	0.571927
C35	C	1.400554	0.273638	0.571937
C36	C	1.400553	0.273646	0.428056
C37	C	1.667520	0.002573	0.428039
C38	C	1.667517	0.002557	0.571922
H39	H	1.050081	0.491982	0.095659
H40	H	0.891588	-0.026074	-0.000040
H41	H	1.129291	-0.019670	-0.000018
H42	H	0.844040	0.476551	0.098680
H43	H	1.703514	-0.418884	0.000125
H44	H	1.597359	-0.246276	-0.207954
H45	H	1.056350	0.482264	-0.098709
H46	H	1.372925	-0.378194	-0.207960
H47	H	1.372907	-0.378258	0.207972
H48	H	1.331638	0.343608	0.369492
O49	O	0.840102	0.496296	-0.114229
C50	C	0.881399	0.609750	-0.322239
C51	C	0.937707	0.541541	-0.192966
H52	H	0.960283	0.646373	-0.385920
H53	H	0.830398	0.539598	-0.386124
H54	H	0.811804	0.693862	-0.290319
H55	H	1.007353	0.457435	-0.224764
H56	H	0.988629	0.611777	-0.129113
H57	H	1.266974	-0.205428	0.000103
H58	H	1.646032	-0.095472	0.388989
O59	O	1.607461	-0.240666	0.226496
C60	C	1.801254	-0.258812	0.355766
C61	C	1.731763	-0.300412	0.226930
H62	H	1.901756	-0.307119	0.356174
H63	H	1.803688	-0.150398	0.354892
H64	H	1.749719	-0.288192	0.451672
H65	H	1.783242	-0.271120	0.130956
H66	H	1.729317	-0.408823	0.227925
O67	O	1.318176	0.356971	0.641765
C68	C	1.100475	0.429684	0.685727
C69	C	1.193630	0.335215	0.606589
H70	H	0.999760	0.412145	0.657295
H71	H	1.114898	0.414914	0.800935
H72	H	1.117817	0.532003	0.657466
H73	H	1.176344	0.232859	0.634735
H74	H	1.179185	0.350097	0.491401
O75	O	1.776417	0.039603	0.375013
C76	C	1.980976	0.109365	0.422763
C77	C	1.857729	0.067417	0.482999
H78	H	2.046739	0.131889	0.510040
H79	H	2.028630	0.028884	0.356865
H80	H	1.958755	0.198470	0.356774
H81	H	1.879841	-0.021660	0.549050
H82	H	1.810110	0.147973	0.548819
O83	O	1.630918	-0.107980	0.624986
C84	C	1.466367	-0.249747	0.640472
C85	C	1.507651	-0.124544	0.580269
H86	H	1.366693	-0.263165	0.604366
H87	H	1.533698	-0.334051	0.604233
H88	H	1.468124	-0.244667	0.757482
H89	H	1.505888	-0.129498	0.463258
H90	H	1.440312	-0.040292	0.616616
H91	H	1.764039	0.024414	0.610972
