data_functionalizedCrystal
_audit_creation_method	'MofGen! by Chris Wilmer'
_symmetry_space_group_name_H-M	'P1'
_symmetry_Int_Tables_number	1
_symmetry_cell_setting	triclinic
loop_
_symmetry_equiv_pos_as_xyz
  x,y,z
_cell_length_a	12.594517
_cell_length_b	18.050590
_cell_length_c	12.594517
_cell_angle_alpha	90.007957
_cell_angle_beta	89.992224
_cell_angle_gamma	90.014439
loop_
_atom_site_label
_atom_site_type_symbol
_atom_site_fract_x
_atom_site_fract_y
_atom_site_fract_z
Zn1	Zn	1.627046	-0.295901	0.601546
Zn2	Zn	1.626989	-0.420051	0.423553
Zn3	Zn	1.449110	-0.295870	0.423605
Zn4	Zn	1.449025	-0.420045	0.601514
O5	O	1.538042	-0.357967	0.512554
O6	O	1.775984	-0.312385	0.577926
O7	O	1.603405	-0.403568	0.274614
O8	O	1.472773	-0.191950	0.447245
O9	O	1.775942	-0.403597	0.447156
O10	O	1.603502	-0.191972	0.577977
O11	O	1.472718	-0.312333	0.274653
O12	O	1.300153	-0.312327	0.447214
O13	O	1.472628	-0.403587	0.750464
O14	O	1.300090	-0.403557	0.577922
O15	O	1.603419	-0.312379	0.750487
O16	O	1.603322	-0.523975	0.447125
O17	O	1.472572	-0.523970	0.577871
C18	C	1.261501	-0.357939	0.512571
C19	C	1.143196	-0.357944	0.512603
C20	C	1.073940	-0.407662	0.583558
C21	C	1.003127	-0.339957	0.609744
C22	C	1.003210	-0.425705	0.486393
C23	C	1.073941	-0.290204	0.538840
C24	C	1.074031	-0.375997	0.415444
C25	C	1.003250	-0.308246	0.441593
C26	C	1.537961	-0.550919	0.512512
C27	C	1.538023	-0.633465	0.512529
C28	C	1.609273	-0.832891	0.441529
C29	C	1.635242	-0.882249	0.538667
C30	C	1.538083	-0.784595	0.512572
C31	C	1.512222	-0.882318	0.415477
C32	C	1.538144	-0.930580	0.512604
C33	C	1.564103	-0.832866	0.609762
C34	C	1.441038	-0.832931	0.486506
C35	C	1.466970	-0.882267	0.583711
C36	C	1.538051	-0.700497	0.512552
C37	C	1.538176	-1.014677	0.512635
C38	C	1.815663	-0.357995	0.512539
C39	C	1.933969	-0.358008	0.512532
C40	C	1.538020	-0.357986	0.790175
C41	C	1.538011	-0.357994	0.908481
C42	C	1.538154	-0.164261	0.512620
C43	C	1.538201	-0.081715	0.512648
C44	C	1.466872	-0.407595	0.977721
C45	C	1.563968	-0.425766	1.048493
C46	C	1.440920	-0.339841	1.048508
C47	C	1.635158	-0.376201	0.977694
C48	C	1.512045	-0.290244	0.977703
C49	C	1.609207	-0.308390	1.048443
C50	C	1.538041	-0.357970	1.236013
C51	C	1.538005	-0.357980	1.117708
H52	H	0.972406	-0.266180	0.381559
O53	O	1.343096	-0.807026	0.460337
C54	C	1.302752	-0.764060	0.544680
H55	H	1.343450	-0.780904	0.621828
H56	H	1.213576	-0.773605	0.552060
H57	H	1.318603	-0.702928	0.528356
H58	H	1.490049	-0.232972	0.946585
H59	H	1.585936	-0.483055	1.079587
H60	H	1.104982	-0.449625	0.643639
O61	O	1.485962	-0.908321	0.317586
C62	C	1.392740	-0.951288	0.324846
H63	H	1.383242	-0.972567	0.409535
H64	H	1.398421	-1.000257	0.267957
H65	H	1.321176	-0.915787	0.302917
O66	O	1.395314	-0.457777	0.940717
C67	C	1.423079	-0.529124	0.976812
H68	H	1.511365	-0.530534	0.996655
H69	H	1.405301	-0.571493	0.912074
H70	H	1.375023	-0.543038	1.050891
O71	O	1.395048	-0.907886	0.655410
C72	C	1.293074	-0.881662	0.628609
H73	H	1.300794	-0.829393	0.578401
H74	H	1.247059	-0.868434	0.704221
H75	H	1.248912	-0.925950	0.581535
O76	O	1.110893	-0.221899	0.565548
C77	C	1.173159	-0.227211	0.658259
H78	H	1.149620	-0.279015	0.704374
H79	H	1.159571	-0.176186	0.709846
H80	H	1.260634	-0.230728	0.635529
O81	O	1.343002	-0.321396	1.085563
C82	C	1.315061	-0.250472	1.047926
H83	H	1.390094	-0.218308	1.026956
H84	H	1.269317	-0.219467	1.112165
H85	H	1.263179	-0.256289	0.974226
H86	H	1.105198	-0.391264	0.333333
H87	H	1.717288	-0.391613	0.946719
O88	O	0.966261	-0.494090	0.460104
C89	C	1.002251	-0.546288	0.535182
H90	H	1.076762	-0.524313	0.575800
H91	H	1.021348	-0.600680	0.493324
H92	H	0.937750	-0.556083	0.597129
O93	O	0.966008	-0.321892	0.707789
C94	C	1.002035	-0.374404	0.782400
H95	H	1.021940	-0.428423	0.739938
H96	H	0.937232	-0.384910	0.843787
H97	H	1.076062	-0.352341	0.823807
H98	H	1.669495	-0.811210	0.381512
H99	H	1.669434	-0.266438	1.079300
H100	H	1.717338	-0.903914	0.560735
O101	O	1.590377	-0.806943	0.707691
C102	C	1.590045	-0.728838	0.706486
H103	H	1.601949	-0.708406	0.621672
H104	H	1.657132	-0.707234	0.758777
H105	H	1.510788	-0.707715	0.738035
