data_functionalizedCrystal
_audit_creation_method	'MofGen! by Chris Wilmer'
_symmetry_space_group_name_H-M	'P1'
_symmetry_Int_Tables_number	1
_symmetry_cell_setting	triclinic
loop_
_symmetry_equiv_pos_as_xyz
  x,y,z
_cell_length_a	12.759401
_cell_length_b	11.169416
_cell_length_c	12.759393
_cell_angle_alpha	89.971151
_cell_angle_beta	89.982620
_cell_angle_gamma	90.010501
loop_
_atom_site_label
_atom_site_type_symbol
_atom_site_fract_x
_atom_site_fract_y
_atom_site_fract_z
Zn1	Zn	1.606276	-0.477729	-0.594003
Zn2	Zn	1.606187	-0.678462	-0.418332
Zn3	Zn	1.430581	-0.477792	-0.418342
Zn4	Zn	1.430580	-0.678369	-0.593973
O5	O	1.518406	-0.578088	-0.506162
O6	O	1.753285	-0.504369	-0.570708
O7	O	1.582856	-0.651908	-0.271312
O8	O	1.453925	-0.309834	-0.441660
O9	O	1.753220	-0.651847	-0.441643
O10	O	1.583007	-0.309788	-0.570718
O11	O	1.453839	-0.504477	-0.271320
O12	O	1.283560	-0.504387	-0.441632
O13	O	1.453923	-0.651688	-0.740998
O14	O	1.283559	-0.651750	-0.570667
O15	O	1.583006	-0.504279	-0.741020
O16	O	1.582854	-0.846400	-0.441614
O17	O	1.453836	-0.846331	-0.570657
C18	C	1.245438	-0.578066	-0.506148
C19	C	1.128662	-0.578085	-0.506167
C20	C	1.073827	-0.654940	-0.573245
C21	C	0.964103	-0.654955	-0.573256
C22	C	0.964058	-0.501258	-0.439103
C23	C	1.073780	-0.501237	-0.439098
C24	C	1.073851	-0.743680	-0.650694
C25	C	0.964127	-0.743695	-0.650705
C26	C	1.518364	-0.889913	-0.506154
C27	C	1.518442	-1.023313	-0.506186
C28	C	1.792439	-0.578111	-0.506177
C29	C	1.909216	-0.578121	-0.506184
C30	C	1.518474	-0.577966	-0.780196
C31	C	1.518503	-0.577914	-0.896973
C32	C	1.518476	-0.265046	-0.506193
C33	C	1.518506	-0.131646	-0.506207
C34	C	1.451352	-0.501132	-0.951845
C35	C	1.451384	-0.501096	-1.061569
C36	C	1.585726	-0.654627	-1.061539
C37	C	1.585688	-0.654668	-0.951817
C38	C	1.373794	-0.412489	-0.951863
C39	C	1.373826	-0.412453	-1.061587
C40	C	1.518398	-0.578123	-0.233195
C41	C	1.518573	-0.577837	-0.116419
H42	H	0.934338	-0.836625	-0.628777
C43	C	1.181525	-0.841633	-0.522384
C44	C	1.119791	-0.862811	-0.611175
H45	H	1.209881	-0.915181	-0.497984
H46	H	1.236962	-0.788538	-0.539999
H47	H	1.139591	-0.806833	-0.468945
H48	H	1.161726	-0.897603	-0.664617
H49	H	1.064346	-0.915925	-0.593564
C50	C	1.600187	-0.816166	-0.828412
C51	C	1.659494	-0.739082	-0.891505
H52	H	1.645755	-0.868287	-0.791185
H53	H	1.560184	-0.770465	-0.780046
H54	H	1.554413	-0.862039	-0.871224
H55	H	1.705263	-0.693202	-0.848692
H56	H	1.699515	-0.784788	-0.939877
H57	H	1.103656	-0.718891	-0.732099
C58	C	0.999972	-0.669476	-0.823685
C59	C	0.918215	-0.698906	-0.755120
H60	H	0.971624	-0.641828	-0.888144
H61	H	1.041859	-0.608319	-0.793366
H62	H	1.041870	-0.738330	-0.836059
H63	H	0.876322	-0.630049	-0.742740
H64	H	0.876311	-0.760067	-0.785445
H65	H	1.395637	-0.319486	-1.091380
H66	H	1.640427	-0.717117	-1.106207
C67	C	1.197338	-0.466468	-0.997014
C68	C	1.263934	-0.446110	-0.911655
H69	H	1.129520	-0.487233	-0.972188
H70	H	1.192941	-0.395922	-1.038376
H71	H	1.224384	-0.530071	-1.038357
H72	H	1.236892	-0.382500	-0.870315
H73	H	1.268328	-0.516664	-0.870275
C74	C	1.439032	-0.215008	-0.987668
C75	C	1.413147	-0.293316	-0.905926
H76	H	1.463322	-0.141435	-0.959305
H77	H	1.492533	-0.249735	-1.029553
H78	H	1.378786	-0.200731	-1.029571
H79	H	1.473395	-0.307600	-0.864026
H80	H	1.359641	-0.258582	-0.864023
H81	H	1.118423	-0.438647	-0.384484
H82	H	0.919361	-0.438690	-0.384499
H83	H	1.296531	-0.445725	-1.095614
