data_functionalizedCrystal
_audit_creation_method	'MofGen! by Chris Wilmer'
_symmetry_space_group_name_H-M	'P1'
_symmetry_Int_Tables_number	1
_symmetry_cell_setting	triclinic
loop_
_symmetry_equiv_pos_as_xyz
  x,y,z
_cell_length_a	15.995350
_cell_length_b	26.809956
_cell_length_c	15.995350
_cell_angle_alpha	89.993425
_cell_angle_beta	83.492375
_cell_angle_gamma	90.005182
loop_
_atom_site_label
_atom_site_type_symbol
_atom_site_fract_x
_atom_site_fract_y
_atom_site_fract_z
O1	O	1.110992	0.041435	0.107915
O2	O	0.867217	0.041445	0.121242
O3	O	0.995768	0.041439	-0.007309
O4	O	0.982441	0.041441	0.236466
O5	O	0.995744	-0.041520	-0.007289
O6	O	0.867193	-0.041514	0.121262
O7	O	1.110968	-0.041524	0.107934
Zn8	Zn	0.989076	-0.054691	0.114601
Zn9	Zn	0.989108	0.054611	0.114575
O10	O	0.982416	-0.041519	0.236486
C11	C	0.836010	-0.000034	0.120701
C12	C	0.743060	-0.000030	0.119049
N13	N	0.989061	-0.129287	0.114618
C14	C	0.405312	-0.000040	0.113117
C15	C	0.452746	-0.000226	0.021565
C16	C	0.549436	-0.000035	0.023217
C17	C	0.572873	-0.000035	0.116060
C18	C	0.531799	0.047337	0.161205
C19	C	0.435164	0.047373	0.158905
C20	C	0.434797	-0.046967	0.160819
C21	C	0.531742	-0.047590	0.160797
C22	C	0.667570	-0.000031	0.117727
C23	C	0.310614	-0.000041	0.111452
C24	C	1.046024	-0.473916	0.057667
C25	C	1.046043	-0.682793	0.057654
O26	O	1.094441	-0.709799	0.009237
N27	N	0.989113	-0.708914	0.114557
C28	C	0.932170	-0.682812	0.171463
O29	O	0.883741	-0.709822	0.219857
C30	C	0.932146	-0.473936	0.171471
C31	C	0.989086	-0.447817	0.114571
C32	C	1.102958	-0.447797	0.000770
C33	C	1.102956	-0.395581	0.000777
C34	C	1.046019	-0.369483	0.057681
C35	C	0.989084	-0.395601	0.114577
C36	C	0.875200	-0.447835	0.228373
C37	C	0.875198	-0.395612	0.228369
C38	C	0.932138	-0.369494	0.171468
C39	C	0.932144	-0.317287	0.171488
N40	N	0.989075	-0.291166	0.114585
C41	C	1.046012	-0.317264	0.057681
C42	C	0.932187	-0.792476	0.171456
C43	C	0.932194	-0.844695	0.171455
C44	C	1.046067	-0.844672	0.057645
C45	C	1.046063	-0.792452	0.057650
C46	C	0.989117	-0.766355	0.114553
C47	C	1.046003	-0.207606	0.057701
C48	C	1.045998	-0.155385	0.057715
C49	C	0.932122	-0.155412	0.171522
C50	C	0.932130	-0.207629	0.171511
C51	C	0.989074	-0.233724	0.114593
O52	O	0.883765	-0.290249	0.219873
O53	O	1.094421	-0.290245	0.009283
C54	C	1.046026	-0.526132	0.057660
C55	C	0.989091	-0.552250	0.114557
C56	C	0.932154	-0.526152	0.171461
C57	C	0.989098	-0.604469	0.114556
C58	C	1.046035	-0.630567	0.057652
C59	C	1.102966	-0.604446	0.000750
C60	C	1.102963	-0.552230	0.000757
C61	C	0.875224	-0.552273	0.228363
C62	C	0.875231	-0.604489	0.228353
C63	C	0.932169	-0.630587	0.171449
C64	C	1.142175	-0.000045	0.108476
C65	C	1.235125	-0.000046	0.110127
N66	N	0.989131	0.129207	0.114552
C67	C	0.995205	-0.000040	-0.038494
C68	C	0.993553	-0.000037	-0.131444
C69	C	0.987621	-0.000038	-0.469192
C70	C	0.896069	0.000152	-0.421758
C71	C	0.897721	-0.000035	-0.325068
C72	C	0.990564	-0.000037	-0.301631
C73	C	1.035706	-0.047412	-0.342698
C74	C	1.033407	-0.047451	-0.439333
C75	C	1.035325	0.046889	-0.439714
C76	C	1.035304	0.047515	-0.342769
C77	C	0.992231	-0.000038	-0.206934
C78	C	0.985956	-0.000040	-0.563890
C79	C	0.982980	-0.000039	0.267671
C80	C	0.984631	-0.000039	0.360621
H81	H	0.577855	-0.033994	-0.012270
Cl82	Cl	1.174546	-0.480598	-0.070775
H83	H	0.859629	-0.033630	-0.441344
H84	H	0.885773	-0.228894	0.217853
Cl85	Cl	0.385372	0.050694	0.262677
Cl86	Cl	0.803602	-0.362808	0.299908
H87	H	1.092368	-0.134121	0.011379
Cl88	Cl	1.139836	0.051933	-0.319049
Cl89	Cl	0.553632	0.050070	0.266505
Cl90	Cl	0.424129	-0.052677	-0.034925
Cl91	Cl	1.139540	0.047380	-0.488751
H92	H	0.433162	0.033559	-0.014870
H93	H	0.577304	0.033982	-0.012526
H94	H	1.149319	-0.374319	-0.045559
Cl95	Cl	0.987269	-0.101842	-0.298871
H96	H	0.416866	0.082785	0.125967
H97	H	0.885814	-0.771231	0.217796
H98	H	0.414251	-0.082874	0.130897
H99	H	1.000468	-0.082864	-0.457626
Cl100	Cl	0.842532	-0.052551	-0.282028
H101	H	0.560184	0.082592	0.129833
H102	H	0.885767	-0.134155	0.217855
H103	H	0.559049	-0.082635	0.127842
Cl104	Cl	0.842932	0.052396	-0.281195
Cl105	Cl	0.803613	-0.480658	0.299907
H106	H	1.092428	-0.865930	0.011313
H107	H	0.547107	-0.050451	0.228501
Cl108	Cl	0.385761	-0.047463	0.265034
H109	H	1.005403	0.082796	-0.460262
H110	H	1.092371	-0.228847	0.011352
Cl111	Cl	0.839583	0.052605	-0.450379
Cl112	Cl	1.141015	-0.050137	-0.320890
H113	H	1.149329	-0.530968	-0.045578
H114	H	1.100622	-0.049602	-0.471581
H115	H	1.149329	-0.625704	-0.045581
H116	H	0.828866	-0.625751	0.274695
H117	H	1.002299	0.082561	-0.315528
Cl118	Cl	1.117646	-0.759623	-0.013886
H119	H	0.885837	-0.865956	0.217798
Cl120	Cl	0.803640	-0.519470	0.299907
