data_functionalizedCrystal
_audit_creation_method	'MofGen! by Chris Wilmer'
_symmetry_space_group_name_H-M	'P1'
_symmetry_Int_Tables_number	1
_symmetry_cell_setting	triclinic
loop_
_symmetry_equiv_pos_as_xyz
  x,y,z
_cell_length_a	13.897449
_cell_length_b	12.645329
_cell_length_c	13.897441
_cell_angle_alpha	90.028679
_cell_angle_beta	90.023394
_cell_angle_gamma	90.018804
loop_
_atom_site_label
_atom_site_type_symbol
_atom_site_fract_x
_atom_site_fract_y
_atom_site_fract_z
Zn1	Zn	1.474701	-0.421982	0.545463
Zn2	Zn	1.474594	-0.599278	0.384169
Zn3	Zn	1.313390	-0.422031	0.384173
Zn4	Zn	1.313371	-0.599207	0.545414
O5	O	1.394014	-0.510624	0.464805
O6	O	1.609668	-0.445510	0.524085
O7	O	1.453173	-0.575816	0.249188
O8	O	1.334841	-0.273677	0.405591
O9	O	1.609590	-0.575768	0.405584
O10	O	1.453355	-0.273641	0.524089
O11	O	1.334737	-0.445594	0.249191
O12	O	1.178406	-0.445525	0.405544
O13	O	1.334808	-0.575647	0.680403
O14	O	1.178392	-0.575695	0.524007
O15	O	1.453337	-0.445441	0.680438
O16	O	1.453155	-0.747615	0.405537
O17	O	1.334705	-0.747563	0.524003
C18	C	1.143399	-0.510608	0.464771
C19	C	1.036186	-0.510627	0.464780
C20	C	0.949116	-0.510630	0.464796
C21	C	0.839883	-0.510638	0.464825
C22	C	1.393942	-0.786054	0.464785
C23	C	1.394000	-0.903884	0.464809
C24	C	1.319448	-0.948778	0.539293
C25	C	1.319757	-1.071337	0.539616
C26	C	1.495839	-1.071648	0.492206
C27	C	1.495318	-0.949050	0.492716
C28	C	1.367789	-0.949180	0.362807
C29	C	1.365635	-1.071788	0.363381
C30	C	1.645607	-0.510642	0.464839
C31	C	1.752821	-0.510649	0.464854
C32	C	1.394082	-0.510531	0.716398
C33	C	1.394111	-0.510491	0.823612
C34	C	1.394112	-0.234119	0.464846
C35	C	1.394154	-0.116289	0.464863
C36	C	1.394001	-0.510641	0.214191
C37	C	1.394159	-0.510383	0.106977
C38	C	1.394138	-0.510419	1.019907
C39	C	1.394120	-0.510462	0.910675
H40	H	1.244364	-1.101527	0.522526
N41	N	1.342831	-1.110078	0.639751
H42	H	1.403376	-1.154193	0.637991
H43	H	1.287683	-1.154435	0.664456
N44	N	1.524705	-0.911051	0.591471
H45	H	1.537874	-0.973941	0.634264
H46	H	1.471106	-0.867251	0.620082
N47	N	1.571314	-0.909689	0.423846
H48	H	1.605019	-0.971982	0.393307
H49	H	1.619712	-0.865274	0.460037
N50	N	1.219212	-0.909834	0.516936
H51	H	1.172501	-0.939550	0.565582
H52	H	1.200116	-0.933814	0.450278
N53	N	1.571493	-1.110195	0.422579
H54	H	1.540504	-1.157080	0.372522
H55	H	1.621986	-1.151668	0.458724
H56	H	1.415990	-1.102403	0.304949
N57	N	1.525808	-1.112205	0.589896
H58	H	1.477465	-1.088749	0.639771
H59	H	1.591341	-1.083027	0.606756
H60	H	1.336609	-0.917896	0.614444
H61	H	1.294859	-0.918361	0.337855
N62	N	1.439706	-0.910700	0.289304
H63	H	1.405255	-0.868826	0.237906
H64	H	1.473002	-0.973375	0.258970
N65	N	1.266577	-1.110596	0.335979
H66	H	1.240268	-1.156796	0.389080
H67	H	1.270779	-1.152867	0.274446
