data_functionalizedCrystal
_audit_creation_method	'MofGen! by Chris Wilmer'
_symmetry_space_group_name_H-M	'P1'
_symmetry_Int_Tables_number	1
_symmetry_cell_setting	triclinic
loop_
_symmetry_equiv_pos_as_xyz
  x,y,z
_cell_length_a	25.639240
_cell_length_b	25.639242
_cell_length_c	19.805399
_cell_angle_alpha	89.971175
_cell_angle_beta	90.035908
_cell_angle_gamma	89.972218
loop_
_atom_site_label
_atom_site_type_symbol
_atom_site_fract_x
_atom_site_fract_y
_atom_site_fract_z
Zn1	Zn	-0.208232	-0.799274	0.382847
Zn2	Zn	0.291768	-0.299274	0.882847
Zn3	Zn	-0.295666	-0.799198	0.269643
Zn4	Zn	0.204334	-0.299198	0.769643
Zn5	Zn	-0.208239	-0.711842	0.269654
Zn6	Zn	0.291761	-0.211842	0.769654
Zn7	Zn	-0.295631	-0.711804	0.382771
Zn8	Zn	0.204369	-0.211804	0.882771
O9	O	-0.251942	-0.755529	0.326229
O10	O	0.248058	-0.255529	0.826229
O11	O	-0.219842	-0.872429	0.367858
O12	O	0.280158	-0.372429	0.867858
O13	O	-0.284087	-0.787594	0.174928
O14	O	0.215913	-0.287594	0.674928
O15	O	-0.135073	-0.723487	0.284706
O16	O	0.364927	-0.223487	0.784706
O17	O	-0.284080	-0.872373	0.284687
O18	O	0.215920	-0.372373	0.784687
O19	O	-0.135068	-0.787723	0.367869
O20	O	0.364932	-0.287723	0.867869
O21	O	-0.219854	-0.723414	0.174936
O22	O	0.280146	-0.223414	0.674936
O23	O	-0.219820	-0.638672	0.284632
O24	O	0.280180	-0.138672	0.784632
O25	O	-0.284020	-0.723423	0.477498
O26	O	0.215980	-0.223423	0.977498
O27	O	-0.284026	-0.638644	0.367739
O28	O	0.215974	-0.138644	0.867739
O29	O	-0.219808	-0.787686	0.477554
O30	O	0.280192	-0.287686	0.977554
O31	O	-0.368827	-0.787558	0.284613
O32	O	0.131173	-0.287558	0.784613
O33	O	-0.368801	-0.723350	0.367728
O34	O	0.131199	-0.223350	0.867728
C35	C	-0.251920	-0.619687	0.326179
C36	C	0.248080	-0.119687	0.826179
C37	C	-0.251924	-0.561573	0.326173
C38	C	0.248076	-0.061573	0.826173
C39	C	-0.285425	-0.201204	0.369444
C40	C	0.214575	0.298796	0.869444
C41	C	-0.285428	-0.146600	0.369453
C42	C	0.214572	0.353400	0.869453
O43	O	-0.313889	-0.118358	0.406213
O44	O	0.186111	0.381642	0.906213
N45	N	-0.251951	-0.119290	0.326252
N46	N	0.248049	0.380710	0.826252
C47	C	-0.218465	-0.146588	0.283045
C48	C	0.281535	0.353412	0.783045
O49	O	-0.189990	-0.118345	0.246302
O50	O	0.310010	0.381655	0.746302
C51	C	-0.218460	-0.201191	0.283040
C52	C	0.281540	0.298809	0.783040
C53	C	-0.251943	-0.228498	0.326239
C54	C	0.248057	0.271502	0.826239
C55	C	-0.318905	-0.228511	0.412639
C56	C	0.181095	0.271489	0.912639
C57	C	-0.318903	-0.283111	0.412629
C58	C	0.181097	0.216889	0.912629
C59	C	-0.285421	-0.310405	0.369424
C60	C	0.214579	0.189595	0.869424
C61	C	-0.251941	-0.283099	0.326229
C62	C	0.248059	0.216901	0.826229
C63	C	-0.184972	-0.228488	0.239837
C64	C	0.315028	0.271512	0.739837
C65	C	-0.184970	-0.283095	0.239836
C66	C	0.315030	0.216905	0.739836
C67	C	-0.218453	-0.310402	0.283035
C68	C	0.281547	0.189598	0.783035
C69	C	-0.218457	-0.364993	0.283013
C70	C	0.281543	0.135007	0.783013
N71	N	-0.251934	-0.392302	0.326214
N72	N	0.248066	0.107698	0.826214
C73	C	-0.285416	-0.365009	0.369419
C74	C	0.214584	0.134991	0.869419
C75	C	-0.218477	-0.031917	0.283060
C76	C	0.281523	0.468083	0.783060
C77	C	-0.218485	0.022685	0.283061
C78	C	0.281515	0.522685	0.783061
C79	C	-0.285447	0.022669	0.369469
C80	C	0.214553	0.522669	0.869469
C81	C	-0.285442	-0.031934	0.369464
C82	C	0.214558	0.468066	0.869464
C83	C	-0.251955	-0.059227	0.326260
C84	C	0.248045	0.440773	0.826260
C85	C	-0.285409	-0.479674	0.369394
C86	C	0.214591	0.020326	0.869394
C87	C	-0.285406	-0.534279	0.369378
C88	C	0.214594	-0.034279	0.869378
C89	C	-0.218442	-0.534259	0.282973
C90	C	0.281558	-0.034259	0.782973
C91	C	-0.218447	-0.479658	0.282986
C92	C	0.281553	0.020342	0.782986
C93	C	-0.251933	-0.452367	0.326202
C94	C	0.248067	0.047633	0.826202
O95	O	-0.190009	-0.393269	0.246274
O96	O	0.309991	0.106731	0.746274
O97	O	-0.313882	-0.393258	0.406163
O98	O	0.186118	0.106742	0.906163
C99	C	-0.387785	-0.755456	0.326176
C100	C	0.112215	-0.255456	0.826176
C101	C	-0.445899	-0.755472	0.326176
C102	C	0.054101	-0.255472	0.826176
C103	C	-0.806221	-0.788994	0.369610
C104	C	-0.306221	-0.288994	0.869610
C105	C	-0.860825	-0.789009	0.369624
C106	C	-0.360825	-0.289009	0.869624
O107	O	-0.889027	-0.817423	0.406498
O108	O	-0.389027	-0.317423	0.906498
N109	N	-0.888181	-0.755602	0.326294
N110	N	-0.388181	-0.255602	0.826294
C111	C	-0.860930	-0.722174	0.282953
C112	C	-0.360930	-0.222174	0.782953
O113	O	-0.889213	-0.693759	0.246100
O114	O	-0.389213	-0.193759	0.746100
C115	C	-0.806327	-0.722156	0.282943
C116	C	-0.306327	-0.222156	0.782943
C117	C	-0.778974	-0.755569	0.326271
C118	C	-0.278974	-0.255569	0.826271
C119	C	-0.778867	-0.822403	0.412934
C120	C	-0.278867	-0.322403	0.912934
C121	C	-0.724267	-0.822388	0.412919
C122	C	-0.224267	-0.322388	0.912919
C123	C	-0.697020	-0.788964	0.369580
C124	C	-0.197020	-0.288964	0.869580
C125	C	-0.724373	-0.755554	0.326256
C126	C	-0.224373	-0.255554	0.826256
C127	C	-0.779077	-0.688725	0.239606
C128	C	-0.279077	-0.188725	0.739606
C129	C	-0.724470	-0.688710	0.239600
C130	C	-0.224470	-0.188710	0.739600
C131	C	-0.697117	-0.722123	0.282928
C132	C	-0.197117	-0.222123	0.782928
C133	C	-0.642525	-0.722115	0.282902
C134	C	-0.142525	-0.222115	0.782902
N135	N	-0.615169	-0.755522	0.326231
N136	N	-0.115169	-0.255522	0.826231
C137	C	-0.642416	-0.788946	0.369570
C138	C	-0.142416	-0.288946	0.869570
C139	C	-0.975601	-0.722213	0.282978
C140	C	-0.475601	-0.222213	0.782978
C141	C	-1.030203	-0.722233	0.282984
C142	C	-0.530203	-0.222233	0.782984
C143	C	-1.030094	-0.789067	0.369655
C144	C	-0.530094	-0.289067	0.869655
C145	C	-0.975491	-0.789050	0.369646
C146	C	-0.475491	-0.289050	0.869646
C147	C	-0.948245	-0.755620	0.326307
C148	C	-0.448245	-0.255620	0.826307
C149	C	-0.527751	-0.788913	0.369536
C150	C	-0.027751	-0.288913	0.869536
C151	C	-0.473146	-0.788896	0.369515
C152	C	0.026854	-0.288896	0.869515
C153	C	-0.473260	-0.722060	0.282846
C154	C	0.026740	-0.222060	0.782846
C155	C	-0.527860	-0.722078	0.282864
C156	C	-0.027860	-0.222078	0.782864
C157	C	-0.555105	-0.755506	0.326214
C158	C	-0.055105	-0.255506	0.826214
O159	O	-0.614289	-0.693714	0.246048
O160	O	-0.114289	-0.193714	0.746048
O161	O	-0.614127	-0.817351	0.406424
O162	O	-0.114127	-0.317351	0.906424
C163	C	-0.115569	-0.755618	0.326297
C164	C	0.384431	-0.255618	0.826297
C165	C	-0.057455	-0.755656	0.326326
C166	C	0.442545	-0.255656	0.826326
C167	C	-0.251909	-0.755559	0.502772
C168	C	0.248091	-0.255559	1.002772
C169	C	-0.251895	-0.755571	0.578004
C170	C	0.248105	-0.255571	1.078004
C171	C	-0.251962	0.108098	0.326272
C172	C	0.248038	0.608098	0.826272
C173	C	-0.251965	0.049984	0.326269
C174	C	0.248035	0.549984	0.826269
C175	C	-0.251937	-0.755530	0.150373
C176	C	0.248063	-0.255530	0.650373
C177	C	-0.251804	-0.755619	0.075141
C178	C	0.248196	-0.255619	0.575141
C179	C	-0.218459	-0.789034	0.613378
C180	C	0.281541	-0.289034	1.113378
C181	C	-0.218443	-0.789039	0.684067
C182	C	0.281557	-0.289039	1.184067
C183	C	-0.251868	-0.755584	0.719379
C184	C	0.248132	-0.255584	1.219379
C185	C	-0.285306	-0.722118	0.684000
C186	C	0.214694	-0.222118	1.184000
C187	C	-0.285318	-0.722110	0.613313
C188	C	0.214682	-0.222110	1.113313
C189	C	-0.285257	-0.722147	0.969073
C190	C	0.214743	-0.222147	1.469073
C191	C	-0.285244	-0.722159	1.039766
C192	C	0.214756	-0.222159	1.539766
C193	C	-0.218383	-0.789077	1.039827
C194	C	0.281617	-0.289077	1.539827
C195	C	-0.218395	-0.789069	0.969140
C196	C	0.281605	-0.289069	1.469140
C197	C	-0.251831	-0.755601	0.933767
C198	C	0.248169	-0.255601	1.433767
C199	C	-0.251846	-0.755595	0.857118
C200	C	0.248154	-0.255595	1.357118
C201	C	-0.251856	-0.755593	0.796027
C202	C	0.248144	-0.255593	1.296027
H203	H	-0.346168	-0.305340	0.447807
H204	H	0.153832	0.194660	0.947807
H205	H	-0.312674	-0.556510	0.404556
H206	H	0.187326	-0.056510	0.904556
H207	H	-0.953420	-0.694991	0.247681
H208	H	-0.453420	-0.194991	0.747681
H209	H	-0.191217	-0.816289	0.712865
H210	H	0.308783	-0.316289	1.212865
N211	N	-0.184315	-0.823201	0.577300
N212	N	0.315685	-0.323201	1.077300
N213	N	-0.184327	-0.823189	0.514187
N214	N	0.315673	-0.323189	1.014187
H215	H	-0.160211	-0.847319	0.488707
H216	H	0.339789	-0.347319	0.988707
N217	N	-0.184243	-0.823234	0.933071
N218	N	0.315757	-0.323234	1.433071
N219	N	-0.150930	-0.804851	0.893639
N220	N	0.349070	-0.304851	1.393639
H221	H	-0.126807	-0.828979	0.868166
H222	H	0.373193	-0.328979	1.368166
H223	H	-0.953223	-0.816257	0.404927
H224	H	-0.453223	-0.316257	0.904927
N225	N	-0.184278	0.050574	0.238940
N226	N	0.315722	0.550574	0.738940
N227	N	-0.150982	0.081013	0.262843
N228	N	0.349018	0.581013	0.762843
H229	H	-0.126819	0.100707	0.231684
H230	H	0.373181	0.600707	0.731684
H231	H	-0.157696	-0.305314	0.204658
H232	H	0.342304	0.194686	0.704658
H233	H	-0.312519	-0.694876	0.712757
H234	H	0.187481	-0.194876	1.212757
H235	H	-0.191156	-0.816326	1.068637
H236	H	0.308844	-0.316326	1.568637
N237	N	-0.555567	-0.823068	0.413812
N238	N	-0.055567	-0.323068	0.913812
N239	N	-0.549426	-0.871312	0.409382
N240	N	-0.049426	-0.371312	0.909382
H241	H	-0.569070	-0.895437	0.440649
H242	H	-0.069070	-0.395437	0.940649
N243	N	-0.353111	-0.200645	0.456783
N244	N	0.146889	0.299355	0.956783
N245	N	-0.382996	-0.225043	0.495345
N246	N	0.117004	0.274957	0.995345
H247	H	-0.407158	-0.205366	0.526522
H248	H	0.092842	0.294634	1.026522
H249	H	-1.052289	-0.816283	0.404946
H250	H	-0.552289	-0.316283	0.904946
H251	H	-0.312706	-0.054163	0.404641
H252	H	0.187294	0.445837	0.904641
H253	H	-1.052470	-0.695030	0.247695
H254	H	-0.552470	-0.195030	0.747695
H255	H	-0.191183	-0.556491	0.247794
H256	H	0.308817	-0.056491	0.747794
H257	H	-0.312709	0.044902	0.404652
H258	H	0.187291	0.544902	0.904652
N259	N	-0.184255	-0.451755	0.238856
N260	N	0.315745	0.048245	0.738856
N261	N	-0.202606	-0.421253	0.195686
N262	N	0.297394	0.078747	0.695686
H263	H	-0.178455	-0.401549	0.164521
H264	H	0.321545	0.098451	0.664521
H265	H	-0.312463	-0.694913	1.068515
H266	H	0.187537	-0.194913	1.568515
H267	H	-0.450876	-0.816107	0.404797
H268	H	0.049124	-0.316107	0.904797
N269	N	-0.319623	-0.451810	0.413534
N270	N	0.180377	0.048190	0.913534
N271	N	-0.367862	-0.457894	0.408915
N272	N	0.132138	0.042106	0.908915
H273	H	-0.392029	-0.438217	0.440086
H274	H	0.107971	0.061783	0.940086
H275	H	-0.801339	-0.661517	0.204324
H276	H	-0.301339	-0.161517	0.704324
N277	N	-0.696648	-0.654555	0.195330
N278	N	-0.196648	-0.154555	0.695330
N279	N	-0.721081	-0.624726	0.156653
N280	N	-0.221081	-0.124726	0.656653
H281	H	-0.701433	-0.600604	0.125386
H282	H	-0.201433	-0.100604	0.625386
H283	H	-0.701999	-0.849595	0.448202
H284	H	-0.201999	-0.349595	0.948202
H285	H	-0.312490	-0.694903	0.940281
H286	H	0.187510	-0.194903	1.440281
H287	H	-0.312540	-0.694856	0.584512
H288	H	0.187460	-0.194856	1.084512
N289	N	-0.555796	-0.687968	0.238574
N290	N	-0.055796	-0.187968	0.738574
N291	N	-0.531459	-0.658140	0.199865
N292	N	-0.031459	-0.158140	0.699865
H293	H	-0.551185	-0.634052	0.168579
H294	H	-0.051185	-0.134052	0.668579
N295	N	-0.806686	-0.856550	0.457216
N296	N	-0.306686	-0.356550	0.957216
N297	N	-0.782246	-0.886373	0.495892
N298	N	-0.282246	-0.386373	0.995892
H299	H	-0.801889	-0.910493	0.527167
H300	H	-0.301889	-0.410493	1.027167
N301	N	-0.445411	-0.687920	0.238587
N302	N	0.054589	-0.187920	0.738587
N303	N	-0.414951	-0.654590	0.262356
N304	N	0.085049	-0.154590	0.762356
H305	H	-0.395280	-0.630477	0.231101
H306	H	0.104720	-0.130477	0.731101
N307	N	-0.184266	-0.059786	0.238919
N308	N	0.315734	0.440214	0.738919
N309	N	-0.154380	-0.035391	0.200355
N310	N	0.345620	0.464609	0.700355
H311	H	-0.130217	-0.055071	0.169181
H312	H	0.369783	0.444929	0.669181
H313	H	-0.157708	-0.206264	0.204659
H314	H	0.342292	0.293736	0.704659
