data_functionalizedCrystal
_audit_creation_method	'MofGen! by Chris Wilmer'
_symmetry_space_group_name_H-M	'P1'
_symmetry_Int_Tables_number	1
_symmetry_cell_setting	triclinic
loop_
_symmetry_equiv_pos_as_xyz
  x,y,z
_cell_length_a	14.853566
_cell_length_b	13.930277
_cell_length_c	10.723023
_cell_angle_alpha	90.003517
_cell_angle_beta	84.050981
_cell_angle_gamma	90.004369
loop_
_atom_site_label
_atom_site_type_symbol
_atom_site_fract_x
_atom_site_fract_y
_atom_site_fract_z
O1	O	1.197229	0.079765	0.162908
O2	O	0.934872	0.079781	0.182317
O3	O	1.072102	0.079769	-0.009025
O4	O	1.059998	0.079777	0.354250
O5	O	1.072083	-0.079893	-0.009029
O6	O	0.934852	-0.079881	0.182313
O7	O	1.197210	-0.079897	0.162904
Zn8	Zn	1.066028	-0.105239	0.172608
Zn9	Zn	1.066053	0.105123	0.172613
O10	O	1.059979	-0.079885	0.354246
C11	C	0.901269	-0.000048	0.181436
C12	C	0.801171	-0.000042	0.178801
N13	N	1.066017	-0.248805	0.172603
C14	C	0.377938	0.086972	0.167660
C15	C	0.377938	-0.087097	0.167657
C16	C	0.471985	-0.087094	0.170131
C17	C	0.519013	-0.000057	0.171371
C18	C	0.471993	0.086978	0.170138
C19	C	0.519011	-0.174127	0.171377
C20	C	0.613064	-0.174128	0.173852
C21	C	0.660094	-0.087089	0.175084
C22	C	0.613068	-0.000051	0.173849
C23	C	0.660096	0.086987	0.175090
C24	C	0.613073	0.174026	0.173847
C25	C	0.519023	0.174017	0.171370
C26	C	0.754143	-0.087080	0.177560
C27	C	0.754151	0.086992	0.177568
C28	C	1.005285	-0.701069	0.257306
C29	C	1.126846	-0.701049	0.087911
C30	C	1.126836	-0.600553	0.087907
C31	C	1.066050	-0.550310	0.172605
C32	C	1.005274	-0.600564	0.257307
C33	C	1.187616	-0.550292	0.003214
C34	C	1.187608	-0.449790	0.003208
C35	C	1.126817	-0.399546	0.087901
C36	C	1.066039	-0.449805	0.172606
C37	C	1.005253	-0.399563	0.257304
C38	C	0.944469	-0.449820	0.342004
C39	C	0.944483	-0.550319	0.342001
C40	C	1.126803	-0.299047	0.087905
C41	C	1.005242	-0.299058	0.257306
C42	C	1.230813	-0.000066	0.163785
C43	C	1.330910	-0.000065	0.166420
C44	C	1.071212	-0.000061	-0.055518
C45	C	1.068577	-0.000058	-0.194045
N46	N	1.066071	0.248689	0.172608
C47	C	1.067412	0.082653	-0.255797
C48	C	1.064689	0.082658	-0.398973
C49	C	1.060869	-0.000053	0.400739
C50	C	1.063504	-0.000049	0.539266
H51	H	0.651375	0.244892	0.174866
C52	C	0.805875	0.182743	0.178928
N53	N	0.844832	0.254863	0.179953
C54	C	0.467291	0.269751	0.170010
N55	N	0.428322	0.341857	0.168990
H56	H	0.955793	-0.741991	0.326264
H57	H	1.068427	0.153461	-0.202667
C58	C	0.877623	-0.605610	0.435156
N59	N	0.827263	-0.647259	0.505318
H60	H	1.064510	-0.070865	-0.407638
C61	C	1.193708	-0.756319	-0.005252
N62	N	1.244068	-0.797952	-0.075429
H63	H	0.651342	-0.245000	0.174862
C64	C	0.326213	0.182711	0.166292
N65	N	0.287252	0.254822	0.165262
H66	H	1.237111	-0.591203	-0.065739
H67	H	0.894980	-0.408901	0.410972
C68	C	1.254464	-0.394516	-0.089972
N69	N	1.304817	-0.352883	-0.160161
H70	H	0.480713	-0.244988	0.170375
H71	H	1.067552	-0.070866	-0.247173
H72	H	1.063692	0.153470	-0.452078
H73	H	0.339642	-0.157959	0.166655
C74	C	1.193662	-0.243769	-0.005258
N75	N	1.244021	-0.202134	-0.075436
H76	H	0.792424	-0.157946	0.178585
H77	H	0.955739	-0.258156	0.326273
