data_functionalizedCrystal
_audit_creation_method	'MofGen! by Chris Wilmer'
_symmetry_space_group_name_H-M	'P1'
_symmetry_Int_Tables_number	1
_symmetry_cell_setting	triclinic
loop_
_symmetry_equiv_pos_as_xyz
  x,y,z
_cell_length_a	15.297475
_cell_length_b	12.594516
_cell_length_c	15.298259
_cell_angle_alpha	80.293071
_cell_angle_beta	88.370891
_cell_angle_gamma	80.319586
loop_
_atom_site_label
_atom_site_type_symbol
_atom_site_fract_x
_atom_site_fract_y
_atom_site_fract_z
Zn1	Zn	1.253548	-0.531632	-0.726711
Zn2	Zn	1.278806	-0.744720	-0.580228
Zn3	Zn	1.132401	-0.541985	-0.554935
Zn4	Zn	1.107045	-0.684788	-0.701364
O5	O	1.192950	-0.625781	-0.640810
O6	O	1.379481	-0.580648	-0.728473
O7	O	1.280567	-0.747241	-0.454289
O8	O	1.148513	-0.391669	-0.577744
O9	O	1.398038	-0.737203	-0.620852
O10	O	1.237518	-0.384063	-0.703947
O11	O	1.173005	-0.598292	-0.435706
O12	O	1.006455	-0.540179	-0.553167
O13	O	1.105296	-0.635058	-0.827311
O14	O	0.987826	-0.645096	-0.660747
O15	O	1.212931	-0.522535	-0.845933
O16	O	1.255980	-0.885712	-0.596275
O17	O	1.129788	-0.841680	-0.685273
C18	C	0.965356	-0.587258	-0.601462
C19	C	0.867987	-0.570798	-0.584650
C20	C	0.554880	-0.743429	-0.760971
C21	C	0.646363	-0.758902	-0.776764
C22	C	0.701774	-0.711877	-0.728738
C23	C	0.665691	-0.649377	-0.664914
C24	C	0.574200	-0.633909	-0.649114
C25	C	0.721093	-0.602358	-0.616881
C26	C	0.685011	-0.539858	-0.553057
C27	C	0.593528	-0.524392	-0.537261
C28	C	0.538118	-0.571417	-0.585287
C29	C	0.812585	-0.617825	-0.632681
C30	C	0.831905	-0.508306	-0.520824
C31	C	0.740421	-0.492833	-0.505030
C32	C	1.192894	-0.902315	-0.640791
C33	C	1.192945	-1.020623	-0.640826
C34	C	1.124311	-1.065975	-0.689190
C35	C	1.116800	-1.152380	-0.605573
C36	C	1.200533	-1.145028	-0.724472
C37	C	1.185400	-1.105473	-0.557159
C38	C	1.269161	-1.098107	-0.676118
C39	C	1.261690	-1.184499	-0.592451
C40	C	1.421432	-0.664456	-0.680311
C41	C	1.518798	-0.680936	-0.697144
C42	C	1.153468	-0.570956	-0.869295
C43	C	1.136643	-0.547593	-0.966662
C44	C	1.193027	-0.348168	-0.640852
C45	C	1.193059	-0.229865	-0.640869
C46	C	1.313229	-0.791946	-1.279817
C47	C	1.329032	-0.813903	-1.188335
C48	C	1.280936	-0.747327	-1.132913
C49	C	1.217034	-0.658791	-1.168981
C50	C	1.201224	-0.636837	-1.260471
C51	C	1.168932	-0.592218	-1.113566
C52	C	1.105030	-0.503682	-1.149634
C53	C	1.089223	-0.481732	-1.241116
C54	C	1.137319	-0.548308	-1.296538
C55	C	1.184742	-0.614172	-1.022076
C56	C	1.072737	-0.459063	-1.002730
C57	C	1.056934	-0.437107	-1.094212
C58	C	1.232329	-0.680325	-0.413222
C59	C	1.249323	-0.703417	-0.315884
H60	H	0.776263	-0.724479	-0.741601
H61	H	1.236777	-0.686254	-0.992720
N62	N	0.498295	-0.791477	-0.810021
N63	N	0.509528	-0.892833	-0.805833
H64	H	0.469565	-0.926774	-0.840477
H65	H	1.206907	-1.162913	-0.795192
H66	H	1.381053	-0.885998	-1.158974
H67	H	1.333540	-1.073959	-0.705974
H68	H	1.352375	-0.846149	-1.324948
H69	H	1.004904	-0.365020	-1.123592
H70	H	1.293806	-0.765211	-1.058424
H71	H	0.463623	-0.558819	-0.572434
H72	H	1.124458	-0.530433	-1.371032
N73	N	1.023935	-0.391305	-1.277943
N74	N	0.980995	-0.331872	-1.228454
H75	H	0.934883	-0.268008	-1.254461
H76	H	0.675735	-0.809792	-0.828728
H77	H	1.033573	-0.404853	-0.957605
N78	N	0.556686	-0.460567	-0.472052
N79	N	0.606164	-0.418589	-0.429173
H80	H	0.580147	-0.373514	-0.383117
N81	N	0.703558	-0.428979	-0.439847
N82	N	0.647181	-0.345168	-0.461958
H83	H	0.621145	-0.300069	-0.415923
H84	H	0.841954	-0.668713	-0.684647
H85	H	0.877021	-0.470016	-0.481715
H86	H	1.066193	-1.014723	-0.730003
H87	H	1.052398	-1.176520	-0.575752
N88	N	1.177283	-1.083181	-0.468404
N89	N	1.112895	-1.017054	-0.447473
H90	H	1.107154	-1.001308	-0.384791
N91	N	1.334574	-1.248571	-0.541089
N92	N	1.340270	-1.243323	-0.460632
H93	H	1.391741	-1.288576	-0.424354
