data_functionalizedCrystal
_audit_creation_method	'MofGen! by Chris Wilmer'
_symmetry_space_group_name_H-M	'P1'
_symmetry_Int_Tables_number	1
_symmetry_cell_setting	triclinic
loop_
_symmetry_equiv_pos_as_xyz
  x,y,z
_cell_length_a	15.995292
_cell_length_b	19.188924
_cell_length_c	15.072220
_cell_angle_alpha	89.996779
_cell_angle_beta	89.986330
_cell_angle_gamma	83.305290
loop_
_atom_site_label
_atom_site_type_symbol
_atom_site_fract_x
_atom_site_fract_y
_atom_site_fract_z
O1	O	1.110695	0.089798	-0.073811
O2	O	0.866872	0.100954	-0.073808
O3	O	0.995822	-0.006263	-0.073799
O4	O	0.981744	0.197016	-0.073819
O5	O	0.995791	-0.006257	0.073766
O6	O	0.866840	0.100960	0.073757
O7	O	1.110663	0.089804	0.073755
Zn8	Zn	0.988746	0.095383	0.097185
Zn9	Zn	0.988788	0.095375	-0.097238
O10	O	0.981712	0.197022	0.073746
C11	C	0.835662	0.100503	-0.000025
C12	C	0.742714	0.099142	-0.000023
C13	C	0.404994	0.094138	-0.000033
C14	C	0.428021	0.171524	-0.000370
C15	C	0.524691	0.172995	-0.000034
C16	C	0.572541	0.096621	-0.000028
C17	C	0.543563	0.057935	0.084240
C18	C	0.446776	0.057003	0.084306
C19	C	0.446963	0.055416	-0.083503
C20	C	0.543445	0.058284	-0.084613
C21	C	0.667232	0.098020	-0.000023
C22	C	0.310303	0.092736	-0.000032
C23	C	0.995351	-0.032272	-0.000015
C24	C	0.993986	-0.109780	-0.000013
C25	C	0.993366	-0.146184	-0.080451
C26	C	0.992071	-0.219010	-0.080458
C27	C	0.991412	-0.255431	-0.000022
C28	C	0.992028	-0.219018	0.080427
C29	C	0.993315	-0.146192	0.080431
N30	N	1.037029	-0.374983	0.059844
N31	N	1.035808	-0.444164	0.059834
C32	C	0.987534	-0.474849	-0.000030
N33	N	0.940537	-0.433740	-0.059899
N34	N	0.941761	-0.364553	-0.059891
C35	C	0.990017	-0.334397	-0.000018
C36	C	0.985508	-0.590219	-0.080481
C37	C	0.984208	-0.663045	-0.080485
C38	C	0.984174	-0.663053	0.080402
C39	C	0.985466	-0.590227	0.080403
C40	C	0.986137	-0.553814	-0.000041
C41	C	1.141873	0.090255	-0.000031
C42	C	1.234821	0.091617	-0.000038
C43	C	0.982183	0.223031	-0.000040
C44	C	0.983549	0.300539	-0.000048
N45	N	0.988724	0.095388	0.229874
N46	N	0.988817	0.095365	-0.229927
C47	C	0.988786	0.095373	0.589075
C48	C	0.919557	0.152550	0.551464
C49	C	0.919715	0.152759	0.448638
C50	C	0.988755	0.095380	0.410871
C51	C	1.076063	0.111277	0.448160
C52	C	1.075675	0.111683	0.551017
C53	C	0.971487	0.022129	0.551184
C54	C	0.969480	0.022618	0.448320
C55	C	0.988742	0.095383	0.310158
C56	C	0.988805	0.095371	0.689789
H57	H	0.418560	0.079602	-0.147372
N58	N	0.986154	-0.550962	0.167164
H59	H	0.987070	-0.499302	0.154962
H60	H	0.934027	-0.558022	0.202293
H61	H	0.983632	-0.692706	0.145895
H62	H	0.991561	-0.248655	-0.145962
N63	N	0.833741	0.140220	0.415237
H64	H	0.795398	0.134507	0.467331
H65	H	0.809528	0.181532	0.378111
N66	N	0.548912	0.213377	0.080106
H67	H	0.496760	0.230286	0.115355
H68	H	0.588935	0.181828	0.118444
H69	H	0.399927	0.201350	-0.060803
H70	H	0.576622	0.002538	-0.089698
H71	H	1.128798	0.070739	0.423694
H72	H	0.563510	0.084805	0.146948
H73	H	0.854440	0.143237	0.576227
H74	H	0.993910	-0.116541	-0.145955
N75	N	0.411097	0.092497	0.167738
H76	H	0.458265	0.108601	0.204126
H77	H	0.369706	0.134332	0.151333
H78	H	1.091721	0.164083	0.422385
N79	N	0.933969	0.224150	0.585635
H80	H	0.985145	0.219709	0.625379
H81	H	0.943293	0.255796	0.533901
H82	H	1.128785	0.071679	0.575895
H83	H	0.432435	0.000263	0.088138
N84	N	0.567936	0.095580	-0.167196
H85	H	0.597753	0.137137	-0.149900
H86	H	0.606705	0.062167	-0.204565
H87	H	0.909219	0.006840	0.577177
N88	N	0.586051	-0.016508	0.088409
H89	H	0.624585	-0.025894	0.035587
H90	H	0.619993	-0.023282	0.144887
H91	H	0.991490	-0.248676	0.145918
N92	N	0.428715	-0.020037	-0.084256
H93	H	0.393440	-0.029124	-0.030822
H94	H	0.397090	-0.029352	-0.140196
H95	H	1.021976	-0.020420	0.575505
H96	H	0.986050	-0.560570	-0.145984
H97	H	0.993816	-0.116553	0.145935
N98	N	0.884380	0.006657	0.416104
H99	H	0.858418	0.046385	0.377403
H100	H	0.891220	-0.038322	0.380678
N101	N	0.389437	0.210823	0.079226
H102	H	0.349924	0.252598	0.058654
H103	H	0.357148	0.178666	0.115468
H104	H	0.983699	-0.692683	-0.145989
N105	N	1.031963	-0.036386	0.414287
H106	H	1.073838	-0.016698	0.373932
H107	H	1.062635	-0.061107	0.466039
H108	H	1.090960	0.165099	0.574993
N109	N	0.934266	0.224792	0.416121
H110	H	0.987188	0.221190	0.379025
H111	H	0.884705	0.244967	0.378998
N112	N	0.549771	0.213121	-0.080049
H113	H	0.497984	0.230012	-0.115857
H114	H	0.578068	0.254752	-0.059862
