data_functionalizedCrystal
_audit_creation_method	'MofGen! by Chris Wilmer'
_symmetry_space_group_name_H-M	'P1'
_symmetry_Int_Tables_number	1
_symmetry_cell_setting	triclinic
loop_
_symmetry_equiv_pos_as_xyz
  x,y,z
_cell_length_a	15.944551
_cell_length_b	10.723024
_cell_length_c	9.798715
_cell_angle_alpha	90.003391
_cell_angle_beta	90.004100
_cell_angle_gamma	83.983304
loop_
_atom_site_label
_atom_site_type_symbol
_atom_site_fract_x
_atom_site_fract_y
_atom_site_fract_z
O1	O	0.117808	1.655699	0.113485
O2	O	0.129085	1.292404	0.113490
O3	O	0.001228	1.483972	0.113475
O4	O	0.245664	1.464131	0.113500
O5	O	0.001228	1.483958	-0.113507
O6	O	0.129084	1.292390	-0.113492
O7	O	0.117808	1.655685	-0.113497
Zn8	Zn	0.123446	1.474035	-0.149533
Zn9	Zn	0.123446	1.474054	0.149526
O10	O	0.245664	1.464116	-0.113482
C11	C	0.128264	1.245908	-0.000000
C12	C	0.125809	1.107384	0.000001
C13	C	0.049542	0.916591	-0.000004
C14	C	0.052078	1.059762	-0.000005
C15	C	-0.030070	1.483141	-0.000016
C16	C	-0.123331	1.480672	-0.000017
C17	C	-0.338901	1.356026	0.000004
C18	C	-0.399587	1.413901	-0.111913
C19	C	-0.294082	1.476205	-0.000006
C20	C	-0.399570	1.413943	0.111874
C21	C	-0.459020	1.471880	0.000010
C22	C	-0.353540	1.534112	-0.112015
C23	C	-0.353517	1.534137	0.111872
C24	C	-0.414184	1.592099	-0.000072
C25	C	-0.199066	1.478692	-0.000016
C26	C	-0.554035	1.469402	0.000011
C27	C	0.276963	1.464947	0.000012
C28	C	0.370223	1.467417	0.000022
C29	C	0.118629	1.702181	-0.000003
C30	C	0.121084	1.840704	0.000004
N31	N	0.123445	1.474031	-0.353632
C32	C	0.069525	1.554469	-0.421415
C33	C	0.069522	1.554489	-0.578578
N34	N	0.123441	1.474067	0.353626
H35	H	0.184211	0.881729	0.000002
O36	O	0.008371	1.645723	-0.655770
H37	H	-0.032636	1.592969	-0.720880
H38	H	0.169603	1.405176	-0.411951
O39	O	0.184582	1.382825	-0.569171
H40	H	0.225579	1.435576	-0.504039
H41	H	-0.013585	0.875566	-0.000031
O42	O	-0.326677	1.601378	-0.237483
H43	H	-0.357607	1.699055	-0.237764
O44	O	0.206942	1.021024	0.000011
H45	H	0.261337	1.077695	0.000024
O46	O	-0.029056	1.146120	-0.000025
H47	H	-0.014333	1.245020	-0.000038
O48	O	-0.326452	1.601420	0.237198
H49	H	-0.344684	1.551345	0.329968
O50	O	-0.295525	1.223901	-0.000132
H51	H	-0.313857	1.174307	-0.093177
H52	H	0.023361	1.623316	-0.363098
O53	O	-0.426610	1.346579	-0.237250
H54	H	-0.396182	1.248617	-0.237024
O55	O	-0.457364	1.724340	-0.000149
H56	H	-0.438927	1.773905	-0.093138
O57	O	-0.426565	1.346608	0.237208
H58	H	-0.396123	1.248654	0.236963
