data_functionalizedCrystal
_audit_creation_method	'MofGen! by Chris Wilmer'
_symmetry_space_group_name_H-M	'P1'
_symmetry_Int_Tables_number	1
_symmetry_cell_setting	triclinic
loop_
_symmetry_equiv_pos_as_xyz
  x,y,z
_cell_length_a	16.109302
_cell_length_b	14.586319
_cell_length_c	16.109304
_cell_angle_alpha	89.997551
_cell_angle_beta	96.537798
_cell_angle_gamma	90.002485
loop_
_atom_site_label
_atom_site_type_symbol
_atom_site_fract_x
_atom_site_fract_y
_atom_site_fract_z
O1	O	1.103128	0.076274	-0.106872
O2	O	1.353128	0.326274	0.143128
O3	O	1.603128	0.576274	0.393128
O4	O	1.853128	0.826274	0.643128
O5	O	0.861066	0.076266	-0.120171
O6	O	1.111066	0.326266	0.129829
O7	O	1.361066	0.576266	0.379829
O8	O	1.611066	0.826266	0.629829
O9	O	0.988745	0.076273	0.007510
O10	O	1.238745	0.326273	0.257510
O11	O	1.488745	0.576273	0.507510
O12	O	1.738745	0.826273	0.757510
O13	O	0.975448	0.076268	-0.234552
O14	O	1.225448	0.326268	0.015448
O15	O	1.475448	0.576268	0.265448
O16	O	1.725448	0.826268	0.515448
O17	O	0.988744	-0.076208	0.007518
O18	O	1.238744	0.173792	0.257518
O19	O	1.488744	0.423792	0.507518
O20	O	1.738744	0.673792	0.757518
O21	O	0.861065	-0.076215	-0.120163
O22	O	1.111065	0.173785	0.129837
O23	O	1.361065	0.423785	0.379837
O24	O	1.611065	0.673785	0.629837
O25	O	1.103127	-0.076207	-0.106864
O26	O	1.353127	0.173793	0.143136
O27	O	1.603127	0.423793	0.393136
O28	O	1.853127	0.673793	0.643136
Cu29	Cu	0.982096	-0.090133	-0.113513
Cu30	Cu	1.232096	0.159867	0.136487
Cu31	Cu	1.482096	0.409867	0.386487
Cu32	Cu	1.732096	0.659867	0.636487
Cu33	Cu	0.982097	0.090193	-0.113522
Cu34	Cu	1.232097	0.340193	0.136478
Cu35	Cu	1.482097	0.590193	0.386478
Cu36	Cu	1.732097	0.840193	0.636478
O37	O	0.975447	-0.076213	-0.234544
O38	O	1.225447	0.173787	0.015456
O39	O	1.475447	0.423787	0.265456
O40	O	1.725447	0.673787	0.515456
C41	C	0.830090	0.000025	-0.119628
C42	C	1.080090	0.250025	0.130372
C43	C	1.330090	0.500025	0.380372
C44	C	1.580090	0.750025	0.630372
C45	C	0.737795	0.000022	-0.118012
C46	C	0.987795	0.250022	0.131988
C47	C	1.237795	0.500022	0.381988
C48	C	1.487795	0.750022	0.631988
C49	C	0.525454	-0.083086	-0.114273
C50	C	0.775454	0.166914	0.135727
C51	C	1.025454	0.416914	0.385727
C52	C	1.275454	0.666914	0.635727
C53	C	0.438734	-0.083083	-0.112746
C54	C	0.688734	0.166917	0.137254
C55	C	0.938734	0.416917	0.387254
C56	C	1.188734	0.666917	0.637254
C57	C	0.438745	0.083160	-0.112759
C58	C	0.688745	0.333160	0.137241
C59	C	0.938745	0.583160	0.387241
C60	C	1.188745	0.833160	0.637241
C61	C	0.525464	0.083156	-0.114280
C62	C	0.775464	0.333156	0.135720
C63	C	1.025464	0.583156	0.385720
C64	C	1.275464	0.833156	0.635720
C65	C	0.568816	0.000030	-0.115041
C66	C	0.818816	0.250030	0.134959
C67	C	1.068816	0.500030	0.384959
C68	C	1.318816	0.750030	0.634959
C69	C	0.395377	0.000038	-0.111994
C70	C	0.645377	0.250038	0.138006
C71	C	0.895377	0.500038	0.388006
C72	C	1.145377	0.750038	0.638006
C73	C	0.301351	0.000042	-0.110338
C74	C	0.551351	0.250042	0.139662
C75	C	0.801351	0.500042	0.389662
C76	C	1.051351	0.750042	0.639662
C77	C	0.662848	0.000026	-0.116695
C78	C	0.912848	0.250026	0.133305
C79	C	1.162848	0.500026	0.383305
C80	C	1.412848	0.750026	0.633305
N81	N	0.982101	-0.216965	-0.113505
N82	N	1.232101	0.033035	0.136495
N83	N	1.482101	0.283035	0.386495
N84	N	1.732101	0.533035	0.636495
C85	C	0.988206	0.000035	0.038488
C86	C	1.238206	0.250035	0.288488
C87	C	1.488206	0.500035	0.538488
C88	C	1.738206	0.750035	0.788488
C89	C	0.986590	0.000042	0.130784
C90	C	1.236590	0.250042	0.380784
C91	C	1.486590	0.500042	0.630784
C92	C	1.736590	0.750042	0.880784
C93	C	1.134102	0.000037	-0.107407
C94	C	1.384102	0.250037	0.142593
C95	C	1.634102	0.500037	0.392593
C96	C	1.884102	0.750037	0.642593
C97	C	1.226397	0.000046	-0.109022
C98	C	1.476397	0.250046	0.140978
C99	C	1.726397	0.500046	0.390978
C100	C	1.976397	0.750046	0.640978
N101	N	0.982098	0.217025	-0.113523
N102	N	1.232098	0.467025	0.136477
N103	N	1.482098	0.717025	0.386477
N104	N	1.732098	0.967025	0.636477
C105	C	1.038744	0.452034	-0.057095
C106	C	1.288744	0.702034	0.192905
C107	C	1.538744	0.952034	0.442905
C108	C	1.788744	1.202034	0.692905
C109	C	1.038746	0.548015	-0.057093
C110	C	1.288746	0.798015	0.192907
C111	C	1.538746	1.048015	0.442907
C112	C	1.788746	1.298015	0.692907
C113	C	0.925453	0.548019	-0.169938
C114	C	1.175453	0.798019	0.080062
C115	C	1.425453	1.048019	0.330062
C116	C	1.675453	1.298019	0.580062
C117	C	0.925455	0.452039	-0.169944
C118	C	1.175455	0.702039	0.080056
C119	C	1.425455	0.952039	0.330056
C120	C	1.675455	1.202039	0.580056
C121	C	0.982099	0.404049	-0.113518
C122	C	1.232099	0.654049	0.136482
C123	C	1.482099	0.904049	0.386482
C124	C	1.732099	1.154049	0.636482
C125	C	0.982100	0.596010	-0.113510
C126	C	1.232100	0.846010	0.136490
C127	C	1.482100	1.096010	0.386490
C128	C	1.732100	1.346010	0.636490
C129	C	0.982102	0.700077	-0.113509
C130	C	1.232102	0.950077	0.136491
C131	C	1.482102	1.200077	0.386491
C132	C	1.732102	1.450077	0.636491
C133	C	0.982098	0.299976	-0.113520
C134	C	1.232098	0.549976	0.136480
C135	C	1.482098	0.799976	0.386480
C136	C	1.732098	1.049976	0.636480
C137	C	0.982857	0.083159	0.343117
C138	C	1.232857	0.333159	0.593117
C139	C	1.482857	0.583159	0.843117
C140	C	1.732857	0.833159	1.093117
C141	C	0.981330	0.083159	0.429837
C142	C	1.231330	0.333159	0.679837
C143	C	1.481330	0.583159	0.929837
C144	C	1.731330	0.833159	1.179837
C145	C	0.981333	-0.083084	0.429842
C146	C	1.231333	0.166916	0.679842
C147	C	1.481333	0.416916	0.929842
C148	C	1.731333	0.666916	1.179842
C149	C	0.982854	-0.083083	0.343123
C150	C	1.232854	0.166917	0.593123
C151	C	1.482854	0.416917	0.843123
C152	C	1.732854	0.666917	1.093123
C153	C	0.983619	0.000041	0.299763
C154	C	1.233619	0.250041	0.549763
C155	C	1.483619	0.500041	0.799763
C156	C	1.733619	0.750041	1.049763
C157	C	0.980573	0.000040	0.473202
C158	C	1.230573	0.250040	0.723202
C159	C	1.480573	0.500040	0.973202
C160	C	1.730573	0.750040	1.223202
C161	C	0.978918	0.000040	0.567228
C162	C	1.228918	0.250040	0.817228
C163	C	1.478918	0.500040	1.067228
C164	C	1.728918	0.750040	1.317228
C165	C	0.985273	0.000041	0.205731
C166	C	1.235273	0.250041	0.455731
C167	C	1.485273	0.500041	0.705731
C168	C	1.735273	0.750041	0.955731
C169	C	0.975987	0.000030	0.734477
C170	C	1.225987	0.250030	0.984477
C171	C	1.475987	0.500030	1.234477
C172	C	1.725987	0.750030	1.484477
C173	C	0.977603	0.000039	0.642182
C174	C	1.227603	0.250039	0.892182
C175	C	1.477603	0.500039	1.142182
C176	C	1.727603	0.750039	1.392182
H177	H	0.560771	0.150843	-0.114903
H178	H	0.810771	0.400843	0.135097
H179	H	1.060771	0.650843	0.385097
H180	H	1.310771	0.900843	0.635097
H181	H	0.983478	0.150844	0.307815
H182	H	1.233478	0.400844	0.557815
H183	H	1.483478	0.650844	0.807815
H184	H	1.733478	0.900844	1.057815
H185	H	1.084868	0.412963	-0.011151
H186	H	1.334868	0.662963	0.238849
H187	H	1.584868	0.912963	0.488849
H188	H	1.834868	1.162963	0.738849
H189	H	0.980712	-0.150761	0.465157
H190	H	1.230712	0.099239	0.715157
H191	H	1.480712	0.349239	0.965157
H192	H	1.730712	0.599239	1.215157
H193	H	0.879333	0.587102	-0.215878
H194	H	1.129333	0.837102	0.034122
H195	H	1.379333	1.087102	0.284122
H196	H	1.629333	1.337102	0.534122
H197	H	0.879328	0.412968	-0.215893
H198	H	1.129328	0.662968	0.034107
H199	H	1.379328	0.912968	0.284107
H200	H	1.629328	1.162968	0.534107
H201	H	0.403432	-0.150764	-0.112121
H202	H	0.653432	0.099236	0.137879
H203	H	0.903432	0.349236	0.387879
H204	H	1.153432	0.599236	0.637879
H205	H	0.980708	0.150842	0.465131
H206	H	1.230708	0.400842	0.715131
H207	H	1.480708	0.650842	0.965131
H208	H	1.730708	0.900842	1.215131
H209	H	1.084872	0.587082	-0.011151
H210	H	1.334872	0.837082	0.238849
H211	H	1.584872	1.087082	0.488849
H212	H	1.834872	1.337082	0.738849
H213	H	0.560748	-0.150772	-0.114893
H214	H	0.810748	0.099228	0.135107
H215	H	1.060748	0.349228	0.385107
H216	H	1.310748	0.599228	0.635107
H217	H	0.983470	-0.150772	0.307823
H218	H	1.233470	0.099228	0.557823
H219	H	1.483470	0.349228	0.807823
H220	H	1.733470	0.599228	1.057823
H221	H	0.403438	0.150838	-0.112140
H222	H	0.653438	0.400838	0.137860
H223	H	0.903438	0.650838	0.387860
H224	H	1.153438	0.900838	0.637860
