data_functionalizedCrystal
_audit_creation_method	'MofGen! by Chris Wilmer'
_symmetry_space_group_name_H-M	'P1'
_symmetry_Int_Tables_number	1
_symmetry_cell_setting	triclinic
loop_
_symmetry_equiv_pos_as_xyz
  x,y,z
_cell_length_a	15.944545
_cell_length_b	14.421503
_cell_length_c	12.837942
_cell_angle_alpha	90.001076
_cell_angle_beta	90.837444
_cell_angle_gamma	89.990135
loop_
_atom_site_label
_atom_site_type_symbol
_atom_site_fract_x
_atom_site_fract_y
_atom_site_fract_z
O1	O	1.125206	0.077051	-0.133657
O2	O	0.881975	0.077066	-0.150147
O3	O	0.998197	0.077053	0.009001
O4	O	1.008984	0.077063	-0.292805
O5	O	0.998213	-0.077171	0.008991
O6	O	0.881991	-0.077158	-0.150157
O7	O	1.125222	-0.077173	-0.133667
Cu8	Cu	1.003608	-0.091247	-0.141913
Cu9	Cu	1.003589	0.091140	-0.141901
O10	O	1.009000	-0.077160	-0.292815
C11	C	0.850634	-0.000044	-0.149469
C12	C	0.757224	-0.000039	-0.147420
C13	C	0.478210	-0.000052	-0.042650
C14	C	0.532841	-0.076093	-0.093167
C15	C	0.420996	-0.000055	-0.140113
C16	C	0.532807	0.075959	-0.093183
C17	C	0.586196	-0.000045	-0.143698
C18	C	0.474396	-0.076158	-0.190604
C19	C	0.474358	0.075962	-0.190605
C20	C	0.528961	-0.000097	-0.241193
C21	C	0.325828	-0.000061	-0.138045
C22	C	0.681361	-0.000046	-0.145773
N23	N	1.003628	-0.219528	-0.141921
C24	C	1.057381	-0.469163	-0.068315
C25	C	0.979870	-0.530956	-0.048180
C26	C	1.003608	-0.408690	-0.141909
C27	C	1.081096	-0.530991	-0.161984
C28	C	1.003596	-0.591411	-0.141894
C29	C	0.926056	-0.469122	-0.121727
C30	C	1.027335	-0.469151	-0.235572
C31	C	0.949773	-0.530916	-0.215476
C32	C	1.003617	-0.303429	-0.141914
C33	C	1.003579	-0.696670	-0.141889
C34	C	1.156563	-0.000061	-0.134346
C35	C	1.249973	-0.000060	-0.136395
C36	C	0.994561	-0.000058	0.047617
C37	C	0.983693	-0.000056	0.162694
N38	N	1.003575	0.219421	-0.141885
C39	C	1.012636	-0.000047	-0.331431
C40	C	1.023504	-0.000043	-0.446509
C41	C	1.114346	-0.000045	0.403647
C42	C	1.104138	-0.000043	0.511773
C43	C	0.953072	-0.000043	0.487075
C44	C	0.963279	-0.000045	0.378949
C45	C	1.043919	-0.000047	0.337239
C46	C	1.054126	-0.000056	0.229111
C47	C	0.903059	-0.000050	0.204414
C48	C	0.892852	-0.000048	0.312541
H49	H	0.448694	0.140254	-0.231726
H50	H	1.119786	-0.000061	0.195153
H51	H	0.845713	-0.000059	0.150332
Br52	Br	0.575507	0.183099	-0.024546
Br53	Br	0.816787	-0.424025	-0.093264
H54	H	1.180006	-0.000056	0.369687
H55	H	1.161488	-0.000037	0.565840
Br56	Br	0.783418	-0.000033	0.369157
H57	H	1.047435	-0.441982	-0.314761
Br58	Br	1.133083	-0.423966	0.035466
Br59	Br	0.431880	-0.183423	-0.259166
Br60	Br	1.190323	-0.576295	-0.190292
Br61	Br	0.873886	-0.575827	-0.319207
H62	H	0.455842	-0.000129	0.041286
H63	H	0.551172	-0.000138	-0.325194
H64	H	0.887418	-0.000031	0.521054
Br65	Br	0.575581	-0.183250	-0.024575
H66	H	0.959792	-0.558105	0.031035
