data_functionalizedCrystal
_audit_creation_method	'MofGen! by Chris Wilmer'
_symmetry_space_group_name_H-M	'P1'
_symmetry_Int_Tables_number	1
_symmetry_cell_setting	triclinic
loop_
_symmetry_equiv_pos_as_xyz
  x,y,z
_cell_length_a	15.995350
_cell_length_b	16.992695
_cell_length_c	16.053802
_cell_angle_alpha	92.741074
_cell_angle_beta	87.422378
_cell_angle_gamma	87.080299
loop_
_atom_site_label
_atom_site_type_symbol
_atom_site_fract_x
_atom_site_fract_y
_atom_site_fract_z
O1	O	1.121056	0.097771	-0.069359
O2	O	1.621056	0.597771	0.430641
O3	O	0.878117	0.110251	-0.069376
O4	O	1.378117	0.610251	0.430624
O5	O	0.998613	-0.010132	-0.069361
O6	O	1.498613	0.489868	0.430639
O7	O	1.000561	0.218153	-0.069374
O8	O	1.500561	0.718153	0.430626
O9	O	0.991978	-0.003533	0.069497
O10	O	1.491978	0.496467	0.569497
O11	O	0.871483	0.116849	0.069482
O12	O	1.371483	0.616849	0.569482
O13	O	1.114422	0.104370	0.069499
O14	O	1.614422	0.604370	0.569499
Zn15	Zn	0.991899	0.111657	0.091537
Zn16	Zn	1.491899	0.611657	0.591537
Zn17	Zn	1.000640	0.102963	-0.091414
Zn18	Zn	1.500640	0.602963	0.408586
O19	O	0.993927	0.224752	0.069484
O20	O	1.493927	0.724752	0.569484
C21	C	0.992790	-0.036045	0.000068
C22	C	1.492790	0.463955	0.500068
C23	C	0.985314	-0.123089	0.000067
C24	C	1.485314	0.376911	0.500067
C25	C	0.843571	0.113034	0.000051
C26	C	1.343571	0.613034	0.500051
C27	C	0.750517	0.111487	0.000044
C28	C	1.250517	0.611487	0.500044
C29	C	1.057449	-0.173329	0.000073
C30	C	1.557449	0.326671	0.500073
C31	C	1.050419	-0.255116	0.000065
C32	C	1.550419	0.244884	0.500065
C33	C	0.971254	-0.286661	0.000056
C34	C	1.471254	0.213339	0.500056
C35	C	0.899114	-0.236415	0.000048
C36	C	1.399114	0.263585	0.500048
C37	C	0.906144	-0.154630	0.000050
C38	C	1.406144	0.345370	0.500050
C39	C	0.942116	-0.530260	0.000043
C40	C	1.442116	-0.030260	0.500043
C41	C	0.935091	-0.612051	0.000043
C42	C	1.435091	-0.112051	0.500043
C43	C	1.086398	-0.630747	0.000058
C44	C	1.586398	-0.130747	0.500058
C45	C	1.093421	-0.548959	0.000066
C46	C	1.593421	-0.048959	0.500066
C47	C	1.021281	-0.498720	0.000053
C48	C	1.521281	0.001280	0.500053
N49	N	0.964067	-0.370260	0.000050
N50	N	1.464067	0.129740	0.500050
N51	N	1.028469	-0.415123	0.000053
N52	N	1.528469	0.084877	0.500053
C53	C	0.412397	0.105932	0.000062
C54	C	0.912397	0.605932	0.500062
C55	C	0.454079	0.020213	0.000377
C56	C	0.954079	0.520213	0.500377
C57	C	0.550888	0.021745	0.000058
C58	C	1.050888	0.521745	0.500058
C59	C	0.580143	0.108688	0.000054
C60	C	1.080143	0.608688	0.500054
C61	C	0.545673	0.147206	-0.079240
C62	C	1.045673	0.647206	0.420760
C63	C	0.448896	0.145050	-0.079301
C64	C	0.948896	0.645050	0.420699
C65	C	0.441132	0.154325	0.078607
C66	C	0.941132	0.654325	0.578607
C67	C	0.538026	0.154355	0.079649
C68	C	1.038026	0.654355	0.579649
C69	C	0.674945	0.110249	0.000046
C70	C	1.174945	0.610249	0.500046
C71	C	0.317595	0.104373	0.000064
C72	C	0.817595	0.604373	0.500064
C73	C	1.148969	0.101586	0.000071
C74	C	1.648969	0.601586	0.500071
C75	C	1.242022	0.103133	0.000072
C76	C	1.742022	0.603133	0.500072
C77	C	0.999750	0.250665	0.000054
C78	C	1.499750	0.750665	0.500054
C79	C	1.007226	0.337709	0.000049
C80	C	1.507226	0.837709	0.500049
N81	N	0.985940	0.117590	0.216397
N82	N	1.485940	0.617590	0.716397
N83	N	1.006606	0.097024	-0.216274
N84	N	1.506606	0.597024	0.283726
C85	C	1.037232	0.066386	0.260097
C86	C	1.537232	0.566386	0.760097
C87	C	1.033072	0.070544	0.347504
C88	C	1.533072	0.570544	0.847504
C89	C	0.977623	0.125910	0.391208
C90	C	1.477623	0.625910	0.891208
C91	C	0.926325	0.177117	0.347501
C92	C	1.426325	0.677117	0.847501
C93	C	0.930482	0.172955	0.260097
C94	C	1.430482	0.672955	0.760097
C95	C	0.959465	0.144068	0.652615
C96	C	1.459465	0.644068	1.152615
C97	C	0.955314	0.148228	0.740026
C98	C	1.455314	0.648228	1.240026
C99	C	1.062060	0.041653	0.740022
C100	C	1.562060	0.541653	1.240022
C101	C	1.066215	0.037499	0.652616
C102	C	1.566215	0.537499	1.152616
C103	C	1.014914	0.088703	0.608917
C104	C	1.514914	0.588703	1.108917
N105	N	0.973371	0.130163	0.480551
N106	N	1.473371	0.630163	0.980551
N107	N	1.019162	0.084446	0.519575
N108	N	1.519162	0.584446	1.019575
H109	H	1.121913	-0.147652	0.000085
H110	H	1.621913	0.352348	0.500085
Cl111	Cl	0.594638	-0.033880	-0.087999
Cl112	Cl	1.094638	0.466120	0.412001
H113	H	0.910158	0.193318	0.775606
H114	H	1.410158	0.693318	1.275606
H115	H	0.415849	0.129153	0.138710
H116	H	0.915849	0.629153	0.638710
Cl117	Cl	0.574322	0.245599	-0.083819
Cl118	Cl	1.074322	0.745599	0.416181
H119	H	1.145130	-0.671660	0.000067
H120	H	1.645130	-0.171660	0.500067
H121	H	0.881173	0.222195	0.383090
H122	H	1.381173	0.722195	0.883090
H123	H	1.157885	-0.523282	0.000073
H124	H	1.657885	-0.023282	0.500073
Cl125	Cl	0.865994	0.237327	0.205160
Cl126	Cl	1.365994	0.737327	0.705160
H127	H	1.109160	-0.296019	0.000071
H128	H	1.609160	0.203981	0.500071
Cl129	Cl	0.894977	0.208441	0.597685
Cl130	Cl	1.394977	0.708441	1.097685
Cl131	Cl	0.424472	-0.036609	-0.086923
Cl132	Cl	0.924472	0.463391	0.413077
H133	H	0.574902	0.115031	-0.138249
H134	H	1.074902	0.615031	0.361751
Cl135	Cl	0.799591	-0.276072	0.000027
Cl136	Cl	1.299591	0.223928	0.500027
Cl137	Cl	1.097553	0.006170	0.402443
Cl138	Cl	1.597553	0.506170	0.902443
Cl139	Cl	1.135924	-0.032104	0.597673
Cl140	Cl	1.635924	0.467896	1.097673
H141	H	0.560474	0.126273	0.138311
H142	H	1.060474	0.626273	0.638311
H143	H	0.870621	-0.637730	0.000049
H144	H	1.370621	-0.137730	0.500049
Cl145	Cl	0.851425	-0.467113	0.000024
Cl146	Cl	1.351425	0.032887	0.500024
H147	H	0.557405	0.217983	0.084436
H148	H	1.057405	0.717983	0.584436
Cl149	Cl	0.815456	-0.091470	0.000040
Cl150	Cl	1.315456	0.408530	0.500040
H151	H	0.574377	-0.008794	0.056899
H152	H	1.074377	0.491206	0.556899
H153	H	1.103825	-0.000036	0.775610
H154	H	1.603825	0.499964	1.275610
H155	H	0.430547	-0.011355	0.057242
H156	H	0.930547	0.488645	0.557242
H157	H	0.431356	0.111395	-0.138572
H158	H	0.931356	0.611395	0.361428
H159	H	0.421032	0.207824	-0.082902
H160	H	0.921032	0.707824	0.417098
Cl161	Cl	1.106947	-0.003218	0.205164
Cl162	Cl	1.606947	0.496782	0.705164
H163	H	0.413574	0.217562	0.079140
H164	H	0.913574	0.717562	0.579140
