data_functionalizedCrystal
_audit_creation_method	'MofGen! by Chris Wilmer'
_symmetry_space_group_name_H-M	'P1'
_symmetry_Int_Tables_number	1
_symmetry_cell_setting	triclinic
loop_
_symmetry_equiv_pos_as_xyz
  x,y,z
_cell_length_a	19.288866
_cell_length_b	19.288865
_cell_length_c	17.766277
_cell_angle_alpha	89.988397
_cell_angle_beta	90.007831
_cell_angle_gamma	96.863554
loop_
_atom_site_label
_atom_site_type_symbol
_atom_site_fract_x
_atom_site_fract_y
_atom_site_fract_z
O1	O	-0.921353	0.086652	-0.062576
O2	O	-0.421353	0.586652	0.437424
O3	O	-0.719092	0.098340	-0.062584
O4	O	-0.219092	0.598340	0.437416
O5	O	-0.826067	-0.008634	-0.062565
O6	O	-0.326067	0.491366	0.437435
O7	O	-0.814378	0.193626	-0.062595
O8	O	-0.314378	0.693626	0.437405
O9	O	-0.826048	-0.008640	0.062624
O10	O	-0.326048	0.491360	0.562624
O11	O	-0.719073	0.098335	0.062604
O12	O	-0.219073	0.598335	0.562604
O13	O	-0.921334	0.086647	0.062613
O14	O	-0.421334	0.586647	0.562613
Cu15	Cu	-0.820202	0.092490	0.074039
Cu16	Cu	-0.320202	0.592490	0.574039
Cu17	Cu	-0.820224	0.092496	-0.074011
Cu18	Cu	-0.320224	0.592496	0.425989
O19	O	-0.814359	0.193621	0.062593
O20	O	-0.314359	0.693621	0.562593
C21	C	-0.693206	0.097961	0.000009
C22	C	-0.193206	0.597961	0.500009
C23	C	-0.616103	0.096832	0.000006
C24	C	-0.116103	0.596832	0.500006
C25	C	-0.060547	0.088701	-0.068224
C26	C	0.439453	0.588701	0.431776
C27	C	-0.132995	0.089757	-0.068227
C28	C	0.367005	0.589757	0.431773
C29	C	-0.169213	0.090286	0.000013
C30	C	0.330787	0.590286	0.500013
C31	C	-0.132980	0.089740	0.068261
C32	C	0.367020	0.589740	0.568261
C33	C	-0.060535	0.088676	0.068262
C34	C	0.439465	0.588676	0.568262
C35	C	-0.278533	0.132651	0.052287
C36	C	0.221467	0.632651	0.552287
C37	C	-0.350976	0.133719	0.052283
C38	C	0.149024	0.633719	0.552283
C39	C	-0.392659	0.093565	0.000013
C40	C	0.107341	0.593565	0.500013
C41	C	-0.361888	0.052350	-0.052267
C42	C	0.138112	0.552350	0.447733
C43	C	-0.289443	0.051286	-0.052266
C44	C	0.210557	0.551286	0.447734
C45	C	-0.247768	0.091439	0.000019
C46	C	0.252232	0.591439	0.500019
C47	C	-0.507440	0.095252	-0.068234
C48	C	-0.007440	0.595252	0.431766
C49	C	-0.579889	0.096304	-0.068234
C50	C	-0.079889	0.596304	0.431766
C51	C	-0.579872	0.096294	0.068256
C52	C	-0.079872	0.596294	0.568256
C53	C	-0.507425	0.095234	0.068254
C54	C	-0.007425	0.595234	0.568254
C55	C	-0.471213	0.094717	0.000007
C56	C	0.028787	0.594717	0.500007
C57	C	-0.825681	-0.034513	0.000032
C58	C	-0.325681	0.465487	0.500032
C59	C	-0.824552	-0.111617	0.000038
C60	C	-0.324552	0.388383	0.500038
C61	C	-0.887320	-0.156313	0.000045
C62	C	-0.387320	0.343687	0.500045
C63	C	-0.886259	-0.228760	0.000033
C64	C	-0.386259	0.271240	0.500033
C65	C	-0.822427	-0.256508	0.000029
C66	C	-0.322427	0.243492	0.500029
C67	C	-0.759651	-0.211802	0.000019
C68	C	-0.259651	0.288198	0.500019
C69	C	-0.760714	-0.139357	0.000023
C70	C	-0.260714	0.360643	0.500023
C71	C	-0.772241	-0.364797	0.043878
C72	C	-0.272241	0.135203	0.543878
C73	C	-0.771181	-0.437242	0.043878
C74	C	-0.271181	0.062758	0.543878
C75	C	-0.819148	-0.479954	0.000012
C76	C	-0.319148	0.020046	0.500012
C77	C	-0.868186	-0.450213	-0.043844
C78	C	-0.368186	0.049787	0.456156
C79	C	-0.869248	-0.377768	-0.043840
C80	C	-0.369248	0.122232	0.456160
C81	C	-0.821268	-0.335062	0.000024
C82	C	-0.321268	0.164938	0.500024
C83	C	-0.880770	-0.603206	0.000005
C84	C	-0.380770	-0.103206	0.500005
C85	C	-0.879706	-0.675654	-0.000012
C86	C	-0.379706	-0.175654	0.499988
C87	C	-0.753096	-0.658694	-0.000018
C88	C	-0.253096	-0.158694	0.499982
C89	C	-0.754161	-0.586247	-0.000009
C90	C	-0.254161	-0.086247	0.499991
C91	C	-0.818000	-0.558508	0.000006
C92	C	-0.318000	-0.058508	0.500006
C93	C	0.052780	0.087026	0.000018
C94	C	0.552780	0.587026	0.500018
C95	C	-0.024323	0.088158	0.000015
C96	C	0.475677	0.588158	0.500015
C97	C	-0.814745	0.219500	-0.000005
C98	C	-0.314745	0.719500	0.499995
C99	C	-0.815874	0.296604	-0.000016
C100	C	-0.315874	0.796604	0.499984
N101	N	-0.820191	0.092485	0.178170
N102	N	-0.320191	0.592485	0.678170
N103	N	-0.820240	0.092496	-0.178141
N104	N	-0.320240	0.592496	0.321859
C105	C	-0.867575	0.045140	0.217565
C106	C	-0.367575	0.545140	0.717565
C107	C	-0.867579	0.045137	0.296367
C108	C	-0.367579	0.545137	0.796367
C109	C	-0.820206	0.092491	0.335770
C110	C	-0.320206	0.592491	0.835770
C111	C	-0.772813	0.139839	0.296365
C112	C	-0.272813	0.639839	0.796365
C113	C	-0.772806	0.139837	0.217565
C114	C	-0.272806	0.639837	0.717565
C115	C	-0.810907	0.155778	0.460598
C116	C	-0.310907	0.655778	0.960598
C117	C	-0.810919	0.155782	0.539397
C118	C	-0.310919	0.655782	1.039397
C119	C	-0.820225	0.092499	0.578816
C120	C	-0.320225	0.592499	1.078816
C121	C	-0.829532	0.029210	0.539427
C122	C	-0.329532	0.529210	1.039427
C123	C	-0.829525	0.029207	0.460627
C124	C	-0.329525	0.529207	0.960627
C125	C	-0.820208	0.092499	0.421216
C126	C	-0.320208	0.592499	0.921216
C127	C	-0.867615	0.045146	0.703658
C128	C	-0.367615	0.545146	1.203658
C129	C	-0.867614	0.045142	0.782461
C130	C	-0.367614	0.545142	1.282461
C131	C	-0.772852	0.139851	0.782458
C132	C	-0.272852	0.639851	1.282458
C133	C	-0.772850	0.139849	0.703656
C134	C	-0.272850	0.639849	1.203656
C135	C	-0.820235	0.092498	0.664261
C136	C	-0.320235	0.592498	1.164261
H137	H	-0.609361	0.096722	0.123818
H138	H	-0.109361	0.596722	0.623818
H139	H	-0.906198	0.006585	0.814538
H140	H	-0.406198	0.506585	1.314538
O141	O	-0.839573	-0.039058	0.581921
O142	O	-0.339573	0.460942	1.081921
H143	H	-0.793197	-0.043409	0.617827
H144	H	-0.293197	0.456591	1.117827
H145	H	-0.477954	0.094828	-0.123805
H146	H	0.022046	0.594828	0.376195
H147	H	-0.731249	-0.461450	0.079584
H148	H	-0.231249	0.038550	0.579584
H149	H	-0.734220	0.178391	0.185488
H150	H	-0.234220	0.678391	0.685488
O151	O	-0.947412	-0.723864	0.000002
O152	O	-0.447412	-0.223864	0.500002
H153	H	-0.977988	-0.714008	-0.051011
H154	H	-0.477988	-0.214008	0.448989
H155	H	-0.932751	-0.580619	0.000014
H156	H	-0.432751	-0.080619	0.500014
O157	O	-0.918696	-0.005926	0.338866
O158	O	-0.418696	0.494074	0.838866
H159	H	-0.889577	-0.039618	0.374783
H160	H	-0.389577	0.460382	0.874783
H161	H	-0.609383	0.096740	-0.123805
H162	H	-0.109383	0.596740	0.376195
H163	H	-0.701123	-0.681285	-0.000024
H164	H	-0.201123	-0.181285	0.499976
H165	H	-0.907244	-0.484988	-0.079564
H166	H	-0.407244	0.015012	0.420436
H167	H	-0.906157	0.006582	0.185492
H168	H	-0.406157	0.506582	0.685492
O169	O	-0.021506	0.088109	-0.141839
O170	O	0.478494	0.588109	0.358161
H171	H	-0.029077	0.135637	-0.174584
H172	H	0.470923	0.635637	0.325416
H173	H	-0.734241	0.178394	0.328451
H174	H	-0.234241	0.678394	0.828451
H175	H	-0.803345	0.207316	0.571462
H176	H	-0.303345	0.707316	1.071462
H177	H	-0.264393	0.017727	-0.094833
H178	H	0.235607	0.517727	0.405167
H179	H	-0.162494	0.090203	-0.123797
H180	H	0.337506	0.590203	0.376203
H181	H	-0.477931	0.094795	0.123822
H182	H	0.022069	0.594795	0.623822
H183	H	-0.909175	-0.353557	-0.079550
H184	H	-0.409175	0.146443	0.420450
O185	O	-0.839551	-0.039048	0.418139
O186	O	-0.339551	0.460952	0.918139
H187	H	-0.846017	-0.083056	0.458782
H188	H	-0.346017	0.416944	0.958782
O189	O	-0.406838	0.009035	-0.108648
O190	O	0.093162	0.509035	0.391352
H191	H	-0.400393	-0.046938	-0.100915
H192	H	0.099607	0.453062	0.399085
H193	H	-0.376021	0.167295	0.094837
H194	H	0.123979	0.667295	0.594837
O195	O	-0.918711	-0.005930	0.661158
O196	O	-0.418711	0.494070	1.161158
H197	H	-0.951653	-0.038863	0.701795
H198	H	-0.451653	0.461137	1.201795
O199	O	-0.800875	0.224037	0.418083
O200	O	-0.300875	0.724037	0.918083
H201	H	-0.794418	0.268045	0.458709
H202	H	-0.294418	0.768045	0.958709
H203	H	-0.734277	0.178405	0.814539
H204	H	-0.234277	0.678405	1.314539
O205	O	-0.233575	0.175967	0.108665
O206	O	0.266425	0.675967	0.608665
H207	H	-0.267139	0.204814	0.145007
H208	H	0.232861	0.704814	0.645007
H209	H	-0.162474	0.090169	0.123822
H210	H	0.337526	0.590169	0.623822
H211	H	-0.031041	0.088237	0.123832
H212	H	0.468959	0.588237	0.623832
O213	O	-0.956171	-0.126392	0.000040
O214	O	-0.456171	0.373608	0.500040
H215	H	-0.999640	-0.169648	0.000031
H216	H	-0.499640	0.330352	0.500031
H217	H	-0.707679	-0.234399	0.000015
H218	H	-0.207679	0.265601	0.500015
O219	O	-0.721741	0.190918	0.661163
O220	O	-0.221741	0.690918	1.161163
H221	H	-0.729689	0.182956	0.599749
H222	H	-0.229689	0.682956	1.099749
H223	H	-0.937374	-0.265159	0.000035
H224	H	-0.437374	0.234841	0.500035
H225	H	-0.703049	-0.549855	-0.000010
H226	H	-0.203049	-0.049855	0.499990
H227	H	-0.733179	-0.330027	0.079603
H228	H	-0.233179	0.169973	0.579603
H229	H	-0.709599	-0.102964	0.000018
H230	H	-0.209599	0.397036	0.500018
