data_functionalizedCrystal
_audit_creation_method	'MofGen! by Chris Wilmer'
_symmetry_space_group_name_H-M	'P1'
_symmetry_Int_Tables_number	1
_symmetry_cell_setting	triclinic
loop_
_symmetry_equiv_pos_as_xyz
  x,y,z
_cell_length_a	6.817900
_cell_length_b	16.306198
_cell_length_c	16.305550
_cell_angle_alpha	95.373122
_cell_angle_beta	103.455250
_cell_angle_gamma	103.467075
loop_
_atom_site_label
_atom_site_type_symbol
_atom_site_fract_x
_atom_site_fract_y
_atom_site_fract_z
V1	V	-4.026246	-0.117432	-0.263332
O2	O	-4.013841	0.004910	-0.258012
O3	O	-3.977698	-0.232142	-0.261826
O4	O	-3.977652	-0.115947	-0.378045
O5	O	-4.013887	-0.112090	-0.140988
V6	V	-4.509919	-0.102760	-0.248662
O7	O	-4.287177	-0.149615	-0.295509
O8	O	-4.699185	-0.070577	-0.216485
O9	O	-4.335260	0.011951	-0.250168
O10	O	-4.639720	-0.225102	-0.253982
O11	O	-4.639675	-0.108102	-0.371006
O12	O	-4.335306	-0.104245	-0.133949
C13	C	-3.822669	-0.260096	-0.257748
C14	C	-3.864260	-0.353876	-0.257281
C15	C	-4.015214	-0.694623	-0.255576
C16	C	-4.219298	-0.664089	-0.260538
C17	C	-4.176361	-0.566600	-0.261349
C18	C	-3.940325	-0.525574	-0.256421
C19	C	-3.888744	-0.571230	-0.334676
C20	C	-3.933440	-0.668848	-0.334288
C21	C	-3.845294	-0.643281	-0.172946
C22	C	-3.805619	-0.545629	-0.172460
C23	C	-3.897991	-0.430035	-0.256902
C24	C	-4.057544	-0.790162	-0.255101
C25	C	-3.822610	-0.111876	-0.405996
C26	C	-3.864161	-0.111421	-0.499776
C27	C	-4.015248	-0.109658	-0.840517
C28	C	-3.779200	-0.104423	-0.799575
C29	C	-3.736007	-0.105246	-0.702082
C30	C	-3.940291	-0.110532	-0.671472
C31	C	-4.107324	-0.193848	-0.722311
C32	C	-4.149188	-0.193376	-0.819859
C33	C	-4.070003	-0.032243	-0.794476
C34	C	-4.022074	-0.031583	-0.696632
C35	C	-3.897941	-0.111029	-0.575935
C36	C	-4.057607	-0.109167	-0.936055
C37	C	-4.153632	0.039900	-0.254244
C38	C	-4.091278	0.133679	-0.254716
C39	C	-4.153691	-0.108318	-0.105994
C40	C	-4.091377	-0.108769	-0.012212
H41	H	-4.286051	-0.680462	-0.204400
H42	H	-3.901027	0.030042	-0.662096
O43	O	-3.643710	-0.668649	-0.167077
H44	H	-3.671495	-0.738030	-0.164244
O45	O	-4.033910	-0.271505	-0.700256
H46	H	-3.878589	-0.250967	-0.653128
H47	H	-4.282463	-0.554520	-0.321608
O48	O	-4.387242	-0.711375	-0.339499
H49	H	-4.325990	-0.756528	-0.375227
O50	O	-3.575171	-0.507288	-0.161206
H51	H	-3.552949	-0.473192	-0.215525
H52	H	-4.052604	-0.703043	-0.396498
H53	H	-3.784363	-0.689223	-0.334123
O54	O	-3.948928	0.051382	-0.811957
H55	H	-3.848365	0.038698	-0.853661
H56	H	-4.113043	-0.251982	-0.850391
H57	H	-3.609509	-0.045342	-0.666906
H58	H	-3.718146	-0.544677	-0.334048
O59	O	-4.379448	-0.203058	-0.856974
H60	H	-4.460436	-0.208062	-0.805235
H61	H	-3.894788	-0.659834	-0.113088
H62	H	-3.985083	-0.558145	-0.396811
H63	H	-3.843968	-0.514879	-0.114526
H64	H	-4.169362	-0.030547	-0.675281
O65	O	-3.638596	-0.024708	-0.815762
H66	H	-3.676240	0.032320	-0.787284
O67	O	-3.719446	-0.178095	-0.841495
H68	H	-3.857138	-0.218425	-0.891361
O69	O	-3.648023	-0.179770	-0.680678
H70	H	-3.636217	-0.215367	-0.740003
O71	O	-4.310202	-0.202979	-0.697284
H72	H	-4.294091	-0.148102	-0.648224
O73	O	-4.297908	-0.036322	-0.830012
H74	H	-4.371901	-0.093177	-0.880218
H75	H	-4.221391	-0.535490	-0.205421
