data_functionalizedCrystal
_audit_creation_method	'MofGen! by Chris Wilmer'
_symmetry_space_group_name_H-M	'P1'
_symmetry_Int_Tables_number	1
_symmetry_cell_setting	triclinic
loop_
_symmetry_equiv_pos_as_xyz
  x,y,z
_cell_length_a	13.596369
_cell_length_b	14.519731
_cell_length_c	8.559648
_cell_angle_alpha	76.733759
_cell_angle_beta	90.010964
_cell_angle_gamma	89.992959
loop_
_atom_site_label
_atom_site_type_symbol
_atom_site_fract_x
_atom_site_fract_y
_atom_site_fract_z
O1	O	0.081789	-1.208816	-0.209563
O2	O	0.081782	-0.938574	-0.234188
O3	O	0.081810	-1.097504	0.010655
O4	O	0.081760	-1.049887	-0.454406
O5	O	-0.081773	-1.097485	0.010642
O6	O	-0.081801	-0.938556	-0.234202
O7	O	-0.081794	-1.208798	-0.209576
Zn8	Zn	-0.107770	-1.073674	-0.221891
Zn9	Zn	0.107758	-1.073698	-0.221873
O10	O	-0.081822	-1.049868	-0.454420
C11	C	-0.000010	-0.904289	-0.233041
C12	C	-0.000011	-0.802157	-0.229583
N13	N	-0.254862	-1.073664	-0.221902
C14	C	0.000027	-1.101103	0.070168
C15	C	0.000052	-1.111845	0.247516
C16	C	-0.343860	-1.073669	-0.221906
C17	C	-0.455511	-1.073678	-0.221895
C18	C	-0.544502	-1.073692	-0.221877
C19	C	-0.656160	-1.073703	-0.221867
N20	N	0.254849	-1.073716	-0.221849
C21	C	-0.000008	-0.719214	-0.226774
C22	C	-0.000010	-0.615157	-0.223263
C23	C	-0.000011	-0.532218	-0.220477
C24	C	-0.000010	-0.428155	-0.216967
C25	C	-0.000005	-0.243084	-0.210723
C26	C	-0.000012	-0.345216	-0.214181
C27	C	-0.000010	-1.046269	0.486068
C28	C	0.000053	-1.035528	0.308720
H29	H	0.000040	-0.961972	0.225443
Br30	Br	0.000051	-1.234453	0.386318
