data_functionalizedCrystal
_audit_creation_method	'MofGen! by Chris Wilmer'
_symmetry_space_group_name_H-M	'P1'
_symmetry_Int_Tables_number	1
_symmetry_cell_setting	triclinic
loop_
_symmetry_equiv_pos_as_xyz
  x,y,z
_cell_length_a	14.519731
_cell_length_b	27.731996
_cell_length_c	12.996460
_cell_angle_alpha	89.988048
_cell_angle_beta	89.993791
_cell_angle_gamma	83.155120
loop_
_atom_site_label
_atom_site_type_symbol
_atom_site_fract_x
_atom_site_fract_y
_atom_site_fract_z
O1	O	1.222732	0.063413	-0.085583
O2	O	1.722732	0.563413	0.414417
O3	O	0.954125	0.070864	-0.085586
O4	O	1.454125	0.570864	0.414414
O5	O	1.096796	-0.003220	-0.085562
O6	O	1.596796	0.496780	0.414438
O7	O	1.080061	0.137496	-0.085607
O8	O	1.580061	0.637496	0.414393
O9	O	1.096779	-0.003224	0.085571
O10	O	1.596779	0.496776	0.585571
O11	O	0.954109	0.070860	0.085548
O12	O	1.454109	0.570860	0.585548
O13	O	1.222715	0.063409	0.085551
O14	O	1.722715	0.563409	0.585551
Cu15	Cu	1.088411	0.067134	0.101175
Cu16	Cu	1.588411	0.567134	0.601175
Cu17	Cu	1.088430	0.067138	-0.101211
Cu18	Cu	1.588430	0.567138	0.398789
O19	O	1.080045	0.137493	0.085527
O20	O	1.580045	0.637493	0.585527
C21	C	0.919764	0.070513	-0.000019
C22	C	1.419764	0.570513	0.499981
C23	C	0.817402	0.069466	-0.000020
C24	C	1.317402	0.569466	0.499980
C25	C	0.734273	0.068616	-0.000024
C26	C	1.234273	0.568616	0.499976
C27	C	0.629983	0.067554	-0.000024
C28	C	1.129983	0.567554	0.499976
C29	C	0.546859	0.066711	-0.000023
C30	C	1.046859	0.566711	0.499977
C31	C	0.442562	0.065649	-0.000025
C32	C	0.942562	0.565649	0.499975
C33	C	1.096444	-0.021231	0.000008
C34	C	1.596444	0.478769	0.500008
C35	C	1.095408	-0.074892	0.000019
C36	C	1.595408	0.425108	0.500019
C37	C	1.088903	-0.407638	-0.093317
C38	C	1.588903	0.092362	0.406683
C39	C	1.084971	-0.609315	-0.093335
C40	C	1.584971	-0.109315	0.406665
O41	O	1.084430	-0.635387	-0.172671
O42	O	1.584430	-0.135387	0.327329
N43	N	1.084473	-0.634537	-0.000051
N44	N	1.584473	-0.134537	0.499949
C45	C	1.084953	-0.609335	0.093245
C46	C	1.584953	-0.109335	0.593245
O47	O	1.084431	-0.635415	0.172588
O48	O	1.584431	-0.135415	0.672588
C49	C	1.088879	-0.407659	0.093262
C50	C	1.588879	0.092341	0.593262
C51	C	1.089385	-0.382440	-0.000029
C52	C	1.589385	0.117560	0.499971
C53	C	1.089408	-0.382419	-0.186599
C54	C	1.589408	0.117581	0.313401
C55	C	1.090396	-0.332004	-0.186594
C56	C	1.590396	0.167996	0.313406
C57	C	1.090879	-0.306806	-0.093306
C58	C	1.590879	0.193194	0.406694
C59	C	1.090373	-0.332024	-0.000023
C60	C	1.590373	0.167976	0.499977
C61	C	1.089352	-0.382458	0.186556
C62	C	1.589352	0.117542	0.686556
C63	C	1.090331	-0.332035	0.186552
C64	C	1.590331	0.167965	0.686552
C65	C	1.090837	-0.306817	0.093262
C66	C	1.590837	0.193183	0.593262
C67	C	1.091844	-0.256411	0.093270
C68	C	1.591844	0.243589	0.593270
N69	N	1.092341	-0.231189	-0.000014
N70	N	1.592341	0.268811	0.499986
C71	C	1.091858	-0.256387	-0.093302
C72	C	1.591858	0.243613	0.406698
C73	C	1.082894	-0.715219	0.093229
C74	C	1.582894	-0.215219	0.593229
C75	C	1.081915	-0.765638	0.093225
C76	C	1.581915	-0.265638	0.593225
C77	C	1.081930	-0.765614	-0.093355
C78	C	1.581930	-0.265614	0.406645
C79	C	1.082917	-0.715194	-0.093350
C80	C	1.582917	-0.215194	0.406650
C81	C	1.083391	-0.689997	-0.000055
C82	C	1.583391	-0.189997	0.499945
C83	C	1.093934	-0.150510	-0.093283
C84	C	1.593934	0.349490	0.406717
C85	C	1.094926	-0.100090	-0.093270
C86	C	1.594926	0.399910	0.406730
C87	C	1.094905	-0.100118	0.093310
C88	C	1.594905	0.399882	0.593310
C89	C	1.093918	-0.150534	0.093297
C90	C	1.593918	0.349466	0.593297
C91	C	1.093429	-0.175728	-0.000008
C92	C	1.593429	0.324272	0.499992
O93	O	1.092374	-0.230308	0.172565
O94	O	1.592374	0.269692	0.672565
O95	O	1.092360	-0.230297	-0.172633
O96	O	1.592360	0.269703	0.327367
C97	C	1.087915	-0.458054	-0.093322
C98	C	1.587915	0.041946	0.406678
C99	C	1.087409	-0.483272	-0.000040
C100	C	1.587409	0.016728	0.499960
C101	C	1.087892	-0.458075	0.093248
C102	C	1.587892	0.041925	0.593248
C103	C	1.086429	-0.533691	-0.000044
C104	C	1.586429	-0.033691	0.499956
C105	C	1.085947	-0.558889	-0.093332
C106	C	1.585947	-0.058889	0.406668
C107	C	1.086444	-0.533667	-0.186616
C108	C	1.586444	-0.033667	0.313384
C109	C	1.087432	-0.483251	-0.186610
C110	C	1.587432	0.016749	0.313390
C111	C	1.087394	-0.483296	0.186533
C112	C	1.587394	0.016704	0.686533
C113	C	1.086408	-0.533712	0.186520
C114	C	1.586408	-0.033712	0.686520
C115	C	1.085925	-0.558910	0.093231
C116	C	1.585925	-0.058910	0.593231
C117	C	1.257077	0.063760	-0.000018
C118	C	1.757077	0.563760	0.499982
C119	C	1.359438	0.064806	-0.000025
C120	C	1.859438	0.564806	0.499975
C121	C	1.080397	0.155503	-0.000046
C122	C	1.580397	0.655503	0.499954
C123	C	1.081432	0.209165	-0.000063
C124	C	1.581432	0.709165	0.499937
N125	N	1.088404	0.067131	0.243522
N126	N	1.588404	0.567131	0.743522
C127	C	1.088422	0.067140	0.663336
C128	C	1.588422	0.567140	1.163336
C129	C	1.088414	0.067139	0.546531
C130	C	1.588414	0.567139	1.046531
C131	C	1.088413	0.067136	0.453433
C132	C	1.588413	0.567136	0.953433
C133	C	1.088405	0.067134	0.336620
C134	C	1.588405	0.567134	0.836620
N135	N	1.088435	0.067140	0.756442
N136	N	1.588435	0.567140	1.256442
H137	H	1.095340	-0.079559	-0.169241
H138	H	1.595340	0.420441	0.330759
Br139	Br	1.083531	-0.681029	0.219856
Br140	Br	1.583531	-0.181029	0.719856
H141	H	1.087844	-0.462723	-0.262577
H142	H	1.587844	0.037277	0.237423
H143	H	1.093531	-0.171017	-0.169261
H144	H	1.593531	0.328983	0.330739
H145	H	1.083328	-0.694665	-0.169315
H146	H	1.583328	-0.194665	0.330685
Br147	Br	1.088039	-0.449107	0.313151
Br148	Br	1.588039	0.050893	0.813151
H149	H	1.095302	-0.079593	0.169262
H150	H	1.595302	0.420407	0.669262
Br151	Br	1.093252	-0.184761	0.219905
Br152	Br	1.593252	0.315239	0.719905
Br153	Br	1.091077	-0.297786	-0.313209
Br154	Br	1.591077	0.202214	0.186791
Br155	Br	1.090973	-0.297842	0.313174
Br156	Br	1.590973	0.202158	0.813174
H157	H	1.088941	-0.402982	0.262523
H158	H	1.588941	0.097018	0.762523
Br159	Br	1.081272	-0.799820	-0.219960
Br160	Br	1.581272	-0.299820	0.280040
H161	H	1.081516	-0.786167	0.169191
H162	H	1.581516	-0.286167	0.669191
H163	H	1.086055	-0.554192	-0.262575
H164	H	1.586055	-0.054192	0.237425
H165	H	1.086002	-0.554241	0.262493
H166	H	1.586002	-0.054241	0.762493
H167	H	1.089012	-0.402930	-0.262570
H168	H	1.589012	0.097070	0.237430
