data_functionalizedCrystal
_audit_creation_method	'MofGen! by Chris Wilmer'
_symmetry_space_group_name_H-M	'P1'
_symmetry_Int_Tables_number	1
_symmetry_cell_setting	triclinic
loop_
_symmetry_equiv_pos_as_xyz
  x,y,z
_cell_length_a	8.559649
_cell_length_b	8.634740
_cell_length_c	7.088929
_cell_angle_alpha	82.809607
_cell_angle_beta	84.675669
_cell_angle_gamma	94.825514
loop_
_atom_site_label
_atom_site_type_symbol
_atom_site_fract_x
_atom_site_fract_y
_atom_site_fract_z
O1	O	-2.098506	-0.033900	-0.158989
O2	O	-1.645343	0.044311	-0.158990
O3	O	-1.850474	-0.216731	-0.158985
O4	O	-1.893375	0.227141	-0.158994
O5	O	-1.877877	-0.251687	0.158991
O6	O	-1.672746	0.009355	0.158986
O7	O	-2.125909	-0.068856	0.158987
Cu8	Cu	-1.901829	-0.032942	0.188020
Cu9	Cu	-1.869422	0.008397	-0.188023
O10	O	-1.920778	0.192185	0.158982
C11	C	-1.600427	0.032760	-0.000002
C12	C	-1.425763	0.050402	-0.000003
C13	C	-1.854456	-0.290508	0.000000
C14	C	-1.825477	-0.458258	-0.000008
C15	C	-1.170825	-0.057305	-0.000001
C16	C	-1.345489	-0.074948	-0.000002
C17	C	-1.916795	0.265963	-0.000007
C18	C	-1.945773	0.433715	-0.000011
N19	N	-1.924634	-0.062021	0.452509
N20	N	-1.846628	0.037462	-0.452512
H21	H	-1.360857	0.171226	-0.000014
Br22	Br	-1.453647	-0.276321	-0.000018
H23	H	-2.005498	-0.165111	0.534167
Br24	Br	-2.154390	-0.506542	-0.000029
H25	H	-1.700307	-0.494111	-0.000021
H26	H	-1.765783	0.140555	0.465840
