data_functionalizedCrystal
_audit_creation_method	'MofGen! by Chris Wilmer'
_symmetry_space_group_name_H-M	'P1'
_symmetry_Int_Tables_number	1
_symmetry_cell_setting	triclinic
loop_
_symmetry_equiv_pos_as_xyz
  x,y,z
_cell_length_a	25.639234
_cell_length_b	25.639242
_cell_length_c	25.639239
_cell_angle_alpha	90.034811
_cell_angle_beta	90.025460
_cell_angle_gamma	90.029352
loop_
_atom_site_label
_atom_site_type_symbol
_atom_site_fract_x
_atom_site_fract_y
_atom_site_fract_z
Zn1	Zn	-0.295740	-0.799260	0.208245
Zn2	Zn	-0.045740	-0.549260	0.458245
Zn3	Zn	0.204260	-0.299260	0.708245
Zn4	Zn	0.454260	-0.049260	0.958245
Zn5	Zn	-0.208304	-0.799172	0.295673
Zn6	Zn	0.041696	-0.549172	0.545673
Zn7	Zn	0.291696	-0.299172	0.795673
Zn8	Zn	0.541696	-0.049172	1.045673
Zn9	Zn	-0.208304	-0.711825	0.208247
Zn10	Zn	0.041696	-0.461825	0.458247
Zn11	Zn	0.291696	-0.211825	0.708247
Zn12	Zn	0.541696	0.038175	0.958247
Zn13	Zn	-0.295694	-0.711780	0.295644
Zn14	Zn	-0.045694	-0.461780	0.545644
Zn15	Zn	0.204306	-0.211780	0.795644
Zn16	Zn	0.454306	0.038220	1.045644
O17	O	-0.252010	-0.755509	0.251952
O18	O	-0.002010	-0.505509	0.501952
O19	O	0.247990	-0.255509	0.751952
O20	O	0.497990	-0.005509	1.001952
O21	O	-0.284161	-0.872413	0.219854
O22	O	-0.034161	-0.622413	0.469854
O23	O	0.215839	-0.372413	0.719854
O24	O	0.465839	-0.122413	0.969854
O25	O	-0.135139	-0.787567	0.284089
O26	O	0.114861	-0.537567	0.534089
O27	O	0.364861	-0.287567	0.784089
O28	O	0.614861	-0.037567	1.034089
O29	O	-0.219923	-0.723479	0.135081
O30	O	0.030077	-0.473479	0.385081
O31	O	0.280077	-0.223479	0.635081
O32	O	0.530077	0.026521	0.885081
O33	O	-0.219922	-0.872348	0.284087
O34	O	0.030078	-0.622348	0.534087
O35	O	0.280078	-0.372348	0.784087
O36	O	0.530078	-0.122348	1.034087
O37	O	-0.284161	-0.787717	0.135080
O38	O	-0.034161	-0.537717	0.385080
O39	O	0.215839	-0.287717	0.635080
O40	O	0.465839	-0.037717	0.885080
O41	O	-0.135139	-0.723394	0.219857
O42	O	0.114861	-0.473394	0.469857
O43	O	0.364861	-0.223394	0.719857
O44	O	0.614861	0.026606	0.969857
O45	O	-0.219877	-0.638654	0.219829
O46	O	0.030123	-0.388654	0.469829
O47	O	0.280123	-0.138654	0.719829
O48	O	0.530123	0.111346	0.969829
O49	O	-0.368865	-0.723403	0.284038
O50	O	-0.118865	-0.473403	0.534038
O51	O	0.131135	-0.223403	0.784038
O52	O	0.381135	0.026597	1.034038
O53	O	-0.284082	-0.638621	0.284040
O54	O	-0.034082	-0.388621	0.534040
O55	O	0.215918	-0.138621	0.784040
O56	O	0.465918	0.111379	1.034040
O57	O	-0.368899	-0.787674	0.219826
O58	O	-0.118899	-0.537674	0.469826
O59	O	0.131101	-0.287674	0.719826
O60	O	0.381101	-0.037674	0.969826
O61	O	-0.219876	-0.787523	0.368835
O62	O	0.030124	-0.537523	0.618835
O63	O	0.280124	-0.287523	0.868835
O64	O	0.530124	-0.037523	1.118835
O65	O	-0.284081	-0.723317	0.368813
O66	O	-0.034081	-0.473317	0.618813
O67	O	0.215919	-0.223317	0.868813
O68	O	0.465919	0.026683	1.118813
C69	C	-0.251985	-0.755420	0.387795
C70	C	-0.001985	-0.505420	0.637795
C71	C	0.248015	-0.255420	0.887795
C72	C	0.498015	-0.005420	1.137795
C73	C	-0.251992	-0.755430	0.445909
C74	C	-0.001992	-0.505430	0.695909
C75	C	0.248008	-0.255430	0.945909
C76	C	0.498008	-0.005430	1.195909
C77	C	-0.251975	-0.619667	0.251932
C78	C	-0.001975	-0.369667	0.501932
C79	C	0.248025	-0.119667	0.751932
C80	C	0.498025	0.130333	1.001932
C81	C	-0.251972	-0.561553	0.251935
C82	C	-0.001972	-0.311553	0.501935
C83	C	0.248028	-0.061553	0.751935
C84	C	0.498028	0.188447	1.001935
C85	C	-0.388384	-0.755543	0.251928
C86	C	-0.138384	-0.505543	0.501928
C87	C	0.111616	-0.255543	0.751928
C88	C	0.361616	-0.005543	1.001928
C89	C	-0.446498	-0.755558	0.251918
C90	C	-0.196498	-0.505558	0.501918
C91	C	0.053502	-0.255558	0.751918
C92	C	0.303502	-0.005558	1.001918
C93	C	-0.806867	-0.722158	0.218411
C94	C	-0.556867	-0.472158	0.468411
C95	C	-0.306867	-0.222158	0.718411
C96	C	-0.056867	0.027842	0.968411
C97	C	-0.861471	-0.722160	0.218401
C98	C	-0.611471	-0.472160	0.468401
C99	C	-0.361471	-0.222160	0.718401
C100	C	-0.111471	0.027840	0.968401
O101	O	-0.889712	-0.693736	0.189969
O102	O	-0.639712	-0.443736	0.439969
O103	O	-0.389712	-0.193736	0.689969
O104	O	-0.139712	0.056264	0.939969
N105	N	-0.888780	-0.755575	0.251836
N106	N	-0.638780	-0.505575	0.501836
N107	N	-0.388780	-0.255575	0.751836
N108	N	-0.138780	-0.005575	1.001836
C109	C	-0.861483	-0.788986	0.285287
C110	C	-0.611483	-0.538986	0.535287
C111	C	-0.361483	-0.288986	0.785287
C112	C	-0.111483	-0.038986	1.035287
O113	O	-0.889725	-0.817407	0.313726
O114	O	-0.639725	-0.567407	0.563726
O115	O	-0.389725	-0.317407	0.813726
O116	O	-0.139725	-0.067407	1.063726
C117	C	-0.806879	-0.788980	0.285299
C118	C	-0.556879	-0.538980	0.535299
C119	C	-0.306879	-0.288980	0.785299
C120	C	-0.056879	-0.038980	1.035299
C121	C	-0.779573	-0.755567	0.251857
C122	C	-0.529573	-0.505567	0.501857
C123	C	-0.279573	-0.255567	0.751857
C124	C	-0.029573	-0.005567	1.001857
C125	C	-0.779560	-0.688747	0.184972
C126	C	-0.529560	-0.438747	0.434972
C127	C	-0.279560	-0.188747	0.684972
C128	C	-0.029560	0.061253	0.934972
C129	C	-0.724959	-0.688745	0.184981
C130	C	-0.474959	-0.438745	0.434981
C131	C	-0.224959	-0.188745	0.684981
C132	C	0.025041	0.061255	0.934981
C133	C	-0.697665	-0.722154	0.218428
C134	C	-0.447665	-0.472154	0.468428
C135	C	-0.197665	-0.222154	0.718428
C136	C	0.052335	0.027846	0.968428
C137	C	-0.724972	-0.755565	0.251866
C138	C	-0.474972	-0.505565	0.501866
C139	C	-0.224972	-0.255565	0.751866
C140	C	0.025028	-0.005565	1.001866
C141	C	-0.779582	-0.822387	0.318752
C142	C	-0.529582	-0.572387	0.568752
C143	C	-0.279582	-0.322387	0.818752
C144	C	-0.029582	-0.072387	1.068752
C145	C	-0.724975	-0.822378	0.318761
C146	C	-0.474975	-0.572378	0.568761
C147	C	-0.224975	-0.322378	0.818761
C148	C	0.025025	-0.072378	1.068761
C149	C	-0.697669	-0.788965	0.285319
C150	C	-0.447669	-0.538965	0.535319
C151	C	-0.197669	-0.288965	0.785319
C152	C	0.052331	-0.038965	1.035319
C153	C	-0.643078	-0.788971	0.285322
C154	C	-0.393078	-0.538971	0.535322
C155	C	-0.143078	-0.288971	0.785322
C156	C	0.106922	-0.038971	1.035322
N157	N	-0.615768	-0.755557	0.251887
N158	N	-0.365768	-0.505557	0.501887
N159	N	-0.115768	-0.255557	0.751887
N160	N	0.134232	-0.005557	1.001887
C161	C	-0.643062	-0.722148	0.218440
C162	C	-0.393062	-0.472148	0.468440
C163	C	-0.143062	-0.222148	0.718440
C164	C	0.106938	0.027852	0.968440
C165	C	-0.976153	-0.788995	0.285260
C166	C	-0.726153	-0.538995	0.535260
C167	C	-0.476153	-0.288995	0.785260
C168	C	-0.226153	-0.038995	1.035260
C169	C	-1.030756	-0.789003	0.285246
C170	C	-0.780756	-0.539003	0.535246
C171	C	-0.530756	-0.289003	0.785246
C172	C	-0.280756	-0.039003	1.035246
C173	C	-1.030740	-0.722178	0.218361
C174	C	-0.780740	-0.472178	0.468361
C175	C	-0.530740	-0.222178	0.718361
C176	C	-0.280740	0.027822	0.968361
C177	C	-0.976137	-0.722172	0.218373
C178	C	-0.726137	-0.472172	0.468373
C179	C	-0.476137	-0.222172	0.718373
C180	C	-0.226137	0.027828	0.968373
C181	C	-0.948844	-0.755580	0.251825
C182	C	-0.698844	-0.505580	0.501825
C183	C	-0.448844	-0.255580	0.751825
C184	C	-0.198844	-0.005580	1.001825
C185	C	-0.528397	-0.722146	0.218461
C186	C	-0.278397	-0.472146	0.468461
C187	C	-0.028397	-0.222146	0.718461
C188	C	0.221603	0.027854	0.968461
C189	C	-0.473792	-0.722149	0.218471
C190	C	-0.223792	-0.472149	0.468471
C191	C	0.026208	-0.222149	0.718471
C192	C	0.276208	0.027851	0.968471
C193	C	-0.473812	-0.788973	0.285358
C194	C	-0.223812	-0.538973	0.535358
C195	C	0.026188	-0.288973	0.785358
C196	C	0.276188	-0.038973	1.035358
C197	C	-0.528412	-0.788972	0.285346
C198	C	-0.278412	-0.538972	0.535346
C199	C	-0.028412	-0.288972	0.785346
C200	C	0.221588	-0.038972	1.035346
C201	C	-0.555704	-0.755555	0.251896
C202	C	-0.305704	-0.505555	0.501896
C203	C	-0.055704	-0.255555	0.751896
C204	C	0.194296	-0.005555	1.001896
O205	O	-0.614801	-0.817380	0.313741
O206	O	-0.364801	-0.567380	0.563741
O207	O	-0.114801	-0.317380	0.813741
O208	O	0.135199	-0.067380	1.063741
O209	O	-0.614813	-0.693726	0.190011
O210	O	-0.364813	-0.443726	0.440011
O211	O	-0.114813	-0.193726	0.690011
O212	O	0.135187	0.056274	0.940011
C213	C	-0.116168	-0.755506	0.251938
C214	C	0.133832	-0.505506	0.501938
C215	C	0.383832	-0.255506	0.751938
C216	C	0.633832	-0.005506	1.001938
C217	C	-0.058054	-0.755592	0.251801
C218	C	0.191946	-0.505592	0.501801
C219	C	0.441946	-0.255592	0.751801
C220	C	0.691946	-0.005592	1.001801
C221	C	-0.252046	-0.891882	0.251973
C222	C	-0.002046	-0.641882	0.501973
C223	C	0.247954	-0.391882	0.751973
C224	C	0.497954	-0.141882	1.001973
C225	C	-0.252062	-0.949996	0.251982
C226	C	-0.002062	-0.699996	0.501982
C227	C	0.247938	-0.449996	0.751982
C228	C	0.497938	-0.199996	1.001982
C229	C	-0.285410	-0.201181	0.285443
C230	C	-0.035410	0.048819	0.535443
C231	C	0.214590	0.298819	0.785443
C232	C	0.464590	0.548819	1.035443
C233	C	-0.285418	-0.146577	0.285446
C234	C	-0.035418	0.103423	0.535446
C235	C	0.214582	0.353423	0.785446
C236	C	0.464582	0.603423	1.035446
O237	O	-0.313818	-0.118333	0.313909
O238	O	-0.063818	0.131667	0.563909
O239	O	0.186182	0.381667	0.813909
O240	O	0.436182	0.631667	1.063909
N241	N	-0.252045	-0.119270	0.251967
N242	N	-0.002045	0.130730	0.501967
N243	N	0.247955	0.380730	0.751967
N244	N	0.497955	0.630730	1.001967
C245	C	-0.218664	-0.146571	0.218478
C246	C	0.031336	0.103429	0.468478
C247	C	0.281336	0.353429	0.718478
C248	C	0.531336	0.603429	0.968478
O249	O	-0.190278	-0.118330	0.190002
O250	O	0.059722	0.131670	0.440002
O251	O	0.309722	0.381670	0.690002
O252	O	0.559722	0.631670	0.940002
C253	C	-0.218659	-0.201174	0.218473
C254	C	0.031341	0.048826	0.468473
C255	C	0.281341	0.298826	0.718473
C256	C	0.531341	0.548826	0.968473
C257	C	-0.252031	-0.228478	0.251958
C258	C	-0.002031	0.021522	0.501958
C259	C	0.247969	0.271522	0.751958
C260	C	0.497969	0.521522	1.001958
C261	C	-0.318780	-0.228485	0.318925
C262	C	-0.068780	0.021515	0.568925
C263	C	0.181220	0.271515	0.818925
C264	C	0.431220	0.521515	1.068925
C265	C	-0.318771	-0.283086	0.318922
C266	C	-0.068771	-0.033086	0.568922
C267	C	0.181229	0.216914	0.818922
C268	C	0.431229	0.466914	1.068922
C269	C	-0.285392	-0.310382	0.285437
C270	C	-0.035392	-0.060382	0.535437
C271	C	0.214608	0.189618	0.785437
C272	C	0.464608	0.439618	1.035437
C273	C	-0.252022	-0.283078	0.251955
C274	C	-0.002022	-0.033078	0.501955
C275	C	0.247978	0.216922	0.751955
C276	C	0.497978	0.466922	1.001955
C277	C	-0.185282	-0.228473	0.184982
C278	C	0.064718	0.021527	0.434982
C279	C	0.314718	0.271527	0.684982
C280	C	0.564718	0.521527	0.934982
C281	C	-0.185279	-0.283080	0.184980
C282	C	0.064721	-0.033080	0.434980
C283	C	0.314721	0.216920	0.684980
C284	C	0.564721	0.466920	0.934980
C285	C	-0.218652	-0.310384	0.218465
C286	C	0.031348	-0.060384	0.468465
C287	C	0.281348	0.189616	0.718465
C288	C	0.531348	0.439616	0.968465
C289	C	-0.218634	-0.364975	0.218468
C290	C	0.031366	-0.114975	0.468468
C291	C	0.281366	0.135025	0.718468
C292	C	0.531366	0.385025	0.968468
N293	N	-0.252008	-0.392282	0.251947
N294	N	-0.002008	-0.142282	0.501947
N295	N	0.247992	0.107718	0.751947
N296	N	0.497992	0.357718	1.001947
C297	C	-0.285387	-0.364986	0.285432
C298	C	-0.035387	-0.114986	0.535432
C299	C	0.214613	0.135014	0.785432
C300	C	0.464613	0.385014	1.035432
C301	C	-0.218678	-0.031900	0.218492
C302	C	0.031322	0.218100	0.468492
C303	C	0.281322	0.468100	0.718492
C304	C	0.531322	0.718100	0.968492
C305	C	-0.218680	0.022702	0.218499
C306	C	0.031320	0.272702	0.468499
C307	C	0.281320	0.522702	0.718499
C308	C	0.531320	0.772702	0.968499
C309	C	-0.285436	0.022692	0.285466
C310	C	-0.035436	0.272692	0.535466
C311	C	0.214564	0.522692	0.785466
C312	C	0.464564	0.772692	1.035466
C313	C	-0.285430	-0.031911	0.285461
C314	C	-0.035430	0.218089	0.535461
C315	C	0.214570	0.468089	0.785461
C316	C	0.464570	0.718089	1.035461
C317	C	-0.252052	-0.059207	0.251971
C318	C	-0.002052	0.190793	0.501971
C319	C	0.247948	0.440793	0.751971
C320	C	0.497948	0.690793	1.001971
C321	C	-0.285365	-0.479651	0.285424
C322	C	-0.035365	-0.229651	0.535424
C323	C	0.214635	0.020349	0.785424
C324	C	0.464635	0.270349	1.035424
C325	C	-0.285351	-0.534256	0.285420
C326	C	-0.035351	-0.284256	0.535420
C327	C	0.214649	-0.034256	0.785420
C328	C	0.464649	0.215744	1.035420
C329	C	-0.218598	-0.534241	0.218451
C330	C	0.031402	-0.284241	0.468451
C331	C	0.281402	-0.034241	0.718451
C332	C	0.531402	0.215759	0.968451
C333	C	-0.218610	-0.479641	0.218457
C334	C	0.031390	-0.229641	0.468457
C335	C	0.281390	0.020359	0.718457
C336	C	0.531390	0.270359	0.968457
C337	C	-0.251997	-0.452347	0.251945
C338	C	-0.001997	-0.202347	0.501945
C339	C	0.248003	0.047653	0.751945
C340	C	0.498003	0.297653	1.001945
O341	O	-0.190250	-0.393254	0.190018
O342	O	0.059750	-0.143254	0.440018
O343	O	0.309750	0.106746	0.690018
O344	O	0.559750	0.356746	0.940018
O345	O	-0.313773	-0.393233	0.313899
O346	O	-0.063773	-0.143233	0.563899
O347	O	0.186227	0.106767	0.813899
O348	O	0.436227	0.356767	1.063899
C349	C	-0.252047	-0.755613	0.115579
C350	C	-0.002047	-0.505613	0.365579
C351	C	0.247953	-0.255613	0.615579
C352	C	0.497953	-0.005613	0.865579
C353	C	-0.252063	-0.755658	0.057465
C354	C	-0.002063	-0.505658	0.307465
C355	C	0.247937	-0.255658	0.557465
C356	C	0.497937	-0.005658	0.807465
C357	C	-0.285431	-0.722071	0.697104
C358	C	-0.035431	-0.472071	0.947104
C359	C	0.214569	-0.222071	1.197104
C360	C	0.464569	0.027929	1.447104
C361	C	-0.285425	-0.722052	0.642499
C362	C	-0.035425	-0.472052	0.892499
C363	C	0.214575	-0.222052	1.142499
C364	C	0.464575	0.027948	1.392499
O365	O	-0.313839	-0.693603	0.614264
O366	O	-0.063839	-0.443603	0.864264
O367	O	0.186161	-0.193603	1.114264
O368	O	0.436161	0.056397	1.364264
N369	N	-0.252019	-0.755495	0.615183
N370	N	-0.002019	-0.505495	0.865183
N371	N	0.247981	-0.255495	1.115183
N372	N	0.497981	-0.005495	1.365183
C373	C	-0.218621	-0.788964	0.642473
C374	C	0.031379	-0.538964	0.892473
C375	C	0.281379	-0.288964	1.142473
C376	C	0.531379	-0.038964	1.392473
O377	O	-0.190206	-0.817409	0.614224
O378	O	0.059794	-0.567409	0.864224
O379	O	0.309794	-0.317409	1.114224
O380	O	0.559794	-0.067409	1.364224
C381	C	-0.218630	-0.788986	0.697077
C382	C	0.031370	-0.538986	0.947077
C383	C	0.281370	-0.288986	1.197077
C384	C	0.531370	-0.038986	1.447077
C385	C	-0.252034	-0.755536	0.724390
C386	C	-0.002034	-0.505536	0.974390
C387	C	0.247966	-0.255536	1.224390
C388	C	0.497966	-0.005536	1.474390
C389	C	-0.318834	-0.688624	0.724418
C390	C	-0.068834	-0.438624	0.974418
C391	C	0.181166	-0.188624	1.224418
C392	C	0.431166	0.061376	1.474418
C393	C	-0.318839	-0.688643	0.779018
C394	C	-0.068839	-0.438643	1.029018
C395	C	0.181161	-0.188643	1.279018
C396	C	0.431161	0.061357	1.529018
C397	C	-0.285442	-0.722109	0.806305
C398	C	-0.035442	-0.472109	1.056305
C399	C	0.214558	-0.222109	1.306305
C400	C	0.464558	0.027891	1.556305
C401	C	-0.252040	-0.755555	0.778991
C402	C	-0.002040	-0.505555	1.028991
C403	C	0.247960	-0.255555	1.278991
C404	C	0.497960	-0.005555	1.528991
C405	C	-0.185235	-0.822457	0.724366
C406	C	0.064765	-0.572457	0.974366
C407	C	0.314765	-0.322457	1.224366
C408	C	0.564765	-0.072457	1.474366
C409	C	-0.185247	-0.822476	0.778973
C410	C	0.064753	-0.572476	1.028973
C411	C	0.314753	-0.322476	1.278973
C412	C	0.564753	-0.072476	1.528973
C413	C	-0.218651	-0.789027	0.806287
C414	C	0.031349	-0.539027	1.056287
C415	C	0.281349	-0.289027	1.306287
C416	C	0.531349	-0.039027	1.556287
C417	C	-0.218648	-0.789039	0.860878
C418	C	0.031352	-0.539039	1.110878
C419	C	0.281352	-0.289039	1.360878
C420	C	0.531352	-0.039039	1.610878
N421	N	-0.252054	-0.755596	0.888195
N422	N	-0.002054	-0.505596	1.138195
N423	N	0.247946	-0.255596	1.388195
N424	N	0.497946	-0.005596	1.638195
C425	C	-0.285451	-0.722130	0.860908
C426	C	-0.035451	-0.472130	1.110908
C427	C	0.214549	-0.222130	1.360908
C428	C	0.464549	0.027870	1.610908
C429	C	-0.218605	-0.788917	0.527803
C430	C	0.031395	-0.538917	0.777803
C431	C	0.281395	-0.288917	1.027803
C432	C	0.531395	-0.038917	1.277803
C433	C	-0.218593	-0.788893	0.473200
C434	C	0.031407	-0.538893	0.723200
C435	C	0.281407	-0.288893	0.973200
C436	C	0.531407	-0.038893	1.223200
C437	C	-0.285398	-0.721981	0.473230
C438	C	-0.035398	-0.471981	0.723230
C439	C	0.214602	-0.221981	0.973230
C440	C	0.464602	0.028019	1.223230
C441	C	-0.285407	-0.722003	0.527834
C442	C	-0.035407	-0.472003	0.777834
C443	C	0.214593	-0.222003	1.027834
C444	C	0.464593	0.027997	1.277834
C445	C	-0.252011	-0.755473	0.555119
C446	C	-0.002011	-0.505473	0.805119
C447	C	0.247989	-0.255473	1.055119
C448	C	0.497989	-0.005473	1.305119
C449	C	-0.285459	-0.722172	0.975573
C450	C	-0.035459	-0.472172	1.225573
C451	C	0.214541	-0.222172	1.475573
C452	C	0.464541	0.027828	1.725573
C453	C	-0.285460	-0.722192	1.030179
C454	C	-0.035460	-0.472192	1.280179
C455	C	0.214540	-0.222192	1.530179
C456	C	0.464540	0.027808	1.780179
C457	C	-0.218657	-0.789106	1.030144
C458	C	0.031343	-0.539106	1.280144
C459	C	0.281343	-0.289106	1.530144
C460	C	0.531343	-0.039106	1.780144
C461	C	-0.218654	-0.789084	0.975543
C462	C	0.031346	-0.539084	1.225543
C463	C	0.281346	-0.289084	1.475543
C464	C	0.531346	-0.039084	1.725543
C465	C	-0.252059	-0.755615	0.948259
C466	C	-0.002059	-0.505615	1.198259
C467	C	0.247941	-0.255615	1.448259
C468	C	0.497941	-0.005615	1.698259
O469	O	-0.190250	-0.817475	0.889148
O470	O	0.059750	-0.567475	1.139148
O471	O	0.309750	-0.317475	1.389148
O472	O	0.559750	-0.067475	1.639148
O473	O	-0.313866	-0.693695	0.889164
O474	O	-0.063866	-0.443695	1.139164
O475	O	0.186134	-0.193695	1.389164
O476	O	0.436134	0.056305	1.639164
H477	H	-0.451561	-0.694940	0.191237
H478	H	-0.201561	-0.444940	0.441237
H479	H	0.048439	-0.194940	0.691237
H480	H	0.298439	0.055060	0.941237
F481	F	-0.183084	-0.450581	0.182827
F482	F	0.066916	-0.200581	0.432827
F483	F	0.316916	0.049419	0.682827
F484	F	0.566916	0.299419	0.932827
H485	H	-0.550646	-0.816186	0.312571
H486	H	-0.300646	-0.566186	0.562571
H487	H	-0.050646	-0.316186	0.812571
H488	H	0.199354	-0.066186	1.062571
H489	H	-0.158034	-0.849695	0.702135
H490	H	0.091966	-0.599695	0.952135
H491	H	0.341966	-0.349695	1.202135
H492	H	0.591966	-0.099695	1.452135
H493	H	-0.191494	-0.054121	0.191221
H494	H	0.058506	0.195879	0.441221
H495	H	0.308506	0.445879	0.691221
H496	H	0.558506	0.695879	0.941221
F497	F	-0.183155	0.051755	0.182866
F498	F	0.066845	0.301755	0.432866
F499	F	0.316845	0.551755	0.682866
F500	F	0.566845	0.801755	0.932866
H501	H	-0.550611	-0.694935	0.191222
H502	H	-0.300611	-0.444935	0.441222
H503	H	-0.050611	-0.194935	0.691222
H504	H	0.199389	0.055065	0.941222
F505	F	-0.695904	-0.653179	0.149391
F506	F	-0.445904	-0.403179	0.399391
F507	F	-0.195904	-0.153179	0.649391
F508	F	0.054096	0.096821	0.899391
F509	F	-0.695931	-0.857935	0.354368
F510	F	-0.445931	-0.607935	0.604368
F511	F	-0.195931	-0.357935	0.854368
F512	F	0.054069	-0.107935	1.104368
F513	F	-0.808600	-0.653180	0.149376
F514	F	-0.558600	-0.403180	0.399376
F515	F	-0.308600	-0.153180	0.649376
F516	F	-0.058600	0.096820	0.899376
F517	F	-0.183076	-0.563302	0.182817
F518	F	0.066924	-0.313302	0.432817
F519	F	0.316924	-0.063302	0.682817
F520	F	0.566924	0.186698	0.932817
H521	H	-0.158105	-0.206252	0.157717
H522	H	0.091895	0.043748	0.407717
H523	H	0.341895	0.293748	0.657717
H524	H	0.591895	0.543748	0.907717
F525	F	-1.059798	-0.686620	0.182764
F526	F	-0.809798	-0.436620	0.432764
F527	F	-0.559798	-0.186620	0.682764
F528	F	-0.309798	0.063380	0.932764
F529	F	-0.183117	-0.824722	1.059194
F530	F	0.066883	-0.574722	1.309194
F531	F	0.316883	-0.324722	1.559194
F532	F	0.566883	-0.074722	1.809194
F533	F	-0.183092	-0.824675	0.946473
F534	F	0.066908	-0.574675	1.196473
F535	F	0.316908	-0.324675	1.446473
F536	F	0.566908	-0.074675	1.696473
F537	F	-0.321015	-0.686589	1.059245
F538	F	-0.071015	-0.436589	1.309245
F539	F	0.178985	-0.186589	1.559245
F540	F	0.428985	0.063411	1.809245
F541	F	-0.444754	-0.824530	0.320951
F542	F	-0.194754	-0.574530	0.570951
F543	F	0.055246	-0.324530	0.820951
F544	F	0.305246	-0.074530	1.070951
H545	H	-0.345964	-0.206266	0.346192
H546	H	-0.095964	0.043734	0.596192
H547	H	0.154036	0.293734	0.846192
H548	H	0.404036	0.543734	1.096192
H549	H	-0.312527	-0.556485	0.312690
H550	H	-0.062527	-0.306485	0.562690
H551	H	0.187473	-0.056485	0.812690
H552	H	0.437473	0.193515	1.062690
H553	H	-0.345947	-0.305312	0.346188
H554	H	-0.095947	-0.055312	0.596188
H555	H	0.154053	0.194688	0.846188
H556	H	0.404053	0.444688	1.096188
F557	F	-0.947080	-0.686609	0.182781
F558	F	-0.697080	-0.436609	0.432781
F559	F	-0.447080	-0.186609	0.682781
F560	F	-0.197080	0.063391	0.932781
F561	F	-0.320900	-0.450610	0.321066
F562	F	-0.070900	-0.200610	0.571066
F563	F	0.179100	0.049390	0.821066
F564	F	0.429100	0.299390	1.071066
H565	H	-1.052984	-0.816218	0.312472
H566	H	-0.802984	-0.566218	0.562472
H567	H	-0.552984	-0.316218	0.812472
H568	H	-0.302984	-0.066218	1.062472
F569	F	-0.354399	-0.653047	0.808081
F570	F	-0.104399	-0.403047	1.058081
F571	F	0.145601	-0.153047	1.308081
F572	F	0.395601	0.096953	1.558081
H573	H	-0.158101	-0.305301	0.157704
H574	H	0.091899	-0.055301	0.407704
H575	H	0.341899	0.194699	0.657704
H576	H	0.591899	0.444699	0.907704
H577	H	-0.801806	-0.849595	0.345983
H578	H	-0.551806	-0.599595	0.595983
H579	H	-0.301806	-0.349595	0.845983
H580	H	-0.051806	-0.099595	1.095983
F581	F	-0.947111	-0.824558	0.320864
F582	F	-0.697111	-0.574558	0.570864
F583	F	-0.447111	-0.324558	0.820864
F584	F	-0.197111	-0.074558	1.070864
H585	H	-0.312606	-0.054139	0.312727
H586	H	-0.062606	0.195861	0.562727
H587	H	0.187394	0.445861	0.812727
H588	H	0.437394	0.695861	1.062727
F589	F	-0.183054	-0.824540	0.556837
F590	F	0.066946	-0.574540	0.806837
F591	F	0.316946	-0.324540	1.056837
F592	F	0.566946	-0.074540	1.306837
F593	F	-0.320965	0.051753	0.321100
F594	F	-0.070965	0.301753	0.571100
F595	F	0.179035	0.551753	0.821100
F596	F	0.429035	0.801753	1.071100
H597	H	-0.312662	-0.694919	0.953365
H598	H	-0.062662	-0.444919	1.203365
H599	H	0.187338	-0.194919	1.453365
H600	H	0.437338	0.055081	1.703365
H601	H	-0.346032	-0.661373	0.702206
H602	H	-0.096032	-0.411373	0.952206
H603	H	0.153968	-0.161373	1.202206
H604	H	0.403968	0.088627	1.452206
F605	F	-0.320961	-0.686402	0.556898
F606	F	-0.070961	-0.436402	0.806898
F607	F	0.179039	-0.186402	1.056898
F608	F	0.429039	0.063598	1.306898
H609	H	-0.312592	-0.694732	0.451004
H610	H	-0.062592	-0.444732	0.701004
H611	H	0.187408	-0.194732	0.951004
H612	H	0.437408	0.055268	1.201004
H613	H	-0.191386	-0.816125	0.450965
H614	H	0.058614	-0.566125	0.700965
H615	H	0.308614	-0.316125	0.950965
H616	H	0.558614	-0.066125	1.200965
H617	H	-0.158053	-0.849735	0.801186
H618	H	0.091947	-0.599735	1.051186
H619	H	0.341947	-0.349735	1.301186
H620	H	0.591947	-0.099735	1.551186
