data_functionalizedCrystal
_audit_creation_method	'MofGen! by Chris Wilmer'
_symmetry_space_group_name_H-M	'P1'
_symmetry_Int_Tables_number	1
_symmetry_cell_setting	triclinic
loop_
_symmetry_equiv_pos_as_xyz
  x,y,z
_cell_length_a	21.295420
_cell_length_b	21.295417
_cell_length_c	21.295411
_cell_angle_alpha	90.020597
_cell_angle_beta	90.024693
_cell_angle_gamma	90.027953
loop_
_atom_site_label
_atom_site_type_symbol
_atom_site_fract_x
_atom_site_fract_y
_atom_site_fract_z
Zn1	Zn	0.962359	-0.250710	0.355918
Zn2	Zn	0.962263	-0.355962	0.250646
Zn3	Zn	0.857082	-0.250708	0.250663
Zn4	Zn	0.857053	-0.355942	0.355877
O5	O	0.909689	-0.303331	0.303276
O6	O	1.050435	-0.264682	0.341964
O7	O	0.948282	-0.342007	0.162558
O8	O	0.871100	-0.162619	0.264650
O9	O	1.050365	-0.342010	0.264620
O10	O	0.948446	-0.162621	0.341980
O11	O	0.871006	-0.264677	0.162571
O12	O	0.768989	-0.264658	0.264610
O13	O	0.871050	-0.341976	0.443972
O14	O	0.768967	-0.341973	0.341910
O15	O	0.948418	-0.264662	0.444002
O16	O	0.948254	-0.444049	0.264580
O17	O	0.870957	-0.444034	0.341893
C18	C	0.746138	-0.303314	0.303258
C19	C	0.676169	-0.303321	0.303265
C20	C	0.909609	-0.466882	0.303244
C21	C	0.909632	-0.536850	0.303251
C22	C	0.176717	-0.343663	0.343487
C23	C	0.242459	-0.343663	0.343480
C24	C	0.275330	-0.303345	0.303296
C25	C	0.242453	-0.263035	0.263103
C26	C	0.176711	-0.263040	0.263106
N27	N	0.378570	-0.248227	0.298562
N28	N	0.441021	-0.248224	0.298563
C29	C	0.473405	-0.303327	0.303282
N30	N	0.440977	-0.358435	0.308014
N31	N	0.378520	-0.358438	0.308017
C32	C	0.346615	-0.303335	0.303287
C33	C	0.577560	-0.343638	0.343462
C34	C	0.643303	-0.343639	0.343451
C35	C	0.643295	-0.263005	0.263077
C36	C	0.577553	-0.263010	0.263085
C37	C	0.544689	-0.303325	0.303281
C38	C	0.949883	-0.569661	0.343546
C39	C	0.949906	-0.635403	0.343562
C40	C	0.909683	-0.668333	0.303271
C41	C	0.869424	-0.635514	0.262974
C42	C	0.869399	-0.569773	0.262964
N43	N	0.904924	-0.771585	0.248180
N44	N	0.904952	-0.834036	0.248191
C45	C	0.909757	-0.866407	0.303300
N46	N	0.914545	-0.833968	0.358398
N47	N	0.914520	-0.771511	0.358386
C48	C	0.909706	-0.739618	0.303278
C49	C	0.950034	-0.970504	0.343615
C50	C	0.950052	-1.036247	0.343631
C51	C	0.869574	-1.036357	0.263038
C52	C	0.869553	-0.970615	0.263027
C53	C	0.909786	-0.937692	0.303314
C54	C	1.073879	-0.303348	0.303294
C55	C	1.143847	-0.303356	0.303302
C56	C	0.909741	-0.303317	0.467466
C57	C	0.909764	-0.303312	0.537434
C58	C	0.909787	-0.139140	0.303322
C59	C	0.909828	-0.069172	0.303341
C60	C	0.909673	-0.303298	0.139724
C61	C	0.909773	-0.303127	0.069757
C62	C	0.950047	-0.263053	0.570318
C63	C	0.950046	-0.263025	0.636060
C64	C	0.909769	-0.303268	0.668917
C65	C	0.869477	-0.343530	0.636026
C66	C	0.869475	-0.343552	0.570284
N67	N	0.904913	-0.358336	0.772133
N68	N	0.904919	-0.358314	0.834585
C69	C	0.909773	-0.303204	0.866992
N70	N	0.914632	-0.248117	0.834588
N71	N	0.914630	-0.248141	0.772131
C72	C	0.909766	-0.303249	0.740202
C73	C	0.950057	-0.262913	0.971161
C74	C	0.950052	-0.262884	1.036905
C75	C	0.869486	-0.343394	1.036869
C76	C	0.869488	-0.343417	0.971126
C77	C	0.909777	-0.303177	0.938276
H78	H	0.149963	-0.376493	0.376216
Br79	Br	0.287078	-0.398370	0.398020
H80	H	0.269220	-0.230208	0.230383
H81	H	0.670064	-0.376467	0.376173
Br82	Br	0.814815	-0.398059	0.926495
Br83	Br	0.132100	-0.208333	0.208566
H84	H	0.836673	-0.662330	0.230170
Br85	Br	0.814809	-0.398142	0.680615
Br86	Br	1.004634	-0.925819	0.398291
Br87	Br	0.814799	-0.398192	0.525653
H88	H	0.670058	-0.230180	0.230355
H89	H	0.982853	-0.230285	0.543575
H90	H	0.982829	-1.062960	0.376447
Br91	Br	0.532941	-0.208300	0.208549
H92	H	0.982860	-0.230143	0.944413
Br93	Br	1.004737	-0.208252	1.081534
H94	H	0.982642	-0.542857	0.376352
H95	H	0.982678	-0.662123	0.376382
Br96	Br	0.814981	-1.081040	0.208360
H97	H	0.550800	-0.376466	0.376191
Br98	Br	0.814921	-0.926083	0.208339
H99	H	0.836621	-0.543058	0.230150
H100	H	0.982849	-0.230238	0.662839
Br101	Br	0.814814	-0.398003	1.081452
