data_functionalizedCrystal
_audit_creation_method	'MofGen! by Chris Wilmer'
_symmetry_space_group_name_H-M	'P1'
_symmetry_Int_Tables_number	1
_symmetry_cell_setting	triclinic
loop_
_symmetry_equiv_pos_as_xyz
  x,y,z
_cell_length_a	17.699104
_cell_length_b	17.699083
_cell_length_c	18.366186
_cell_angle_alpha	89.992864
_cell_angle_beta	89.990066
_cell_angle_gamma	83.287266
loop_
_atom_site_label
_atom_site_type_symbol
_atom_site_fract_x
_atom_site_fract_y
_atom_site_fract_z
O1	O	1.004071	0.095787	-0.060566
O2	O	1.337404	0.429121	0.272768
O3	O	1.670737	0.762454	0.606101
O4	O	0.783695	0.108223	-0.060564
O5	O	1.117028	0.441557	0.272769
O6	O	1.450361	0.774890	0.606102
O7	O	0.900109	-0.008183	-0.060559
O8	O	1.233442	0.325150	0.272775
O9	O	1.566775	0.658483	0.606108
O10	O	0.887656	0.212194	-0.060571
O11	O	1.220990	0.545527	0.272762
O12	O	1.554323	0.878861	0.606095
O13	O	0.900089	-0.008189	0.060541
O14	O	1.233422	0.325144	0.393874
O15	O	1.566756	0.658478	0.727207
O16	O	0.783675	0.108218	0.060535
O17	O	1.117008	0.441551	0.393868
O18	O	1.450341	0.774884	0.727202
O19	O	1.004051	0.095782	0.060534
O20	O	1.337384	0.429115	0.393867
O21	O	1.670718	0.762448	0.727200
Zn22	Zn	0.893860	0.101999	0.079762
Zn23	Zn	1.227193	0.435332	0.413095
Zn24	Zn	1.560526	0.768665	0.746428
Zn25	Zn	0.893886	0.102006	-0.079792
Zn26	Zn	1.227219	0.435340	0.253541
Zn27	Zn	1.560552	0.768673	0.586875
O28	O	0.887637	0.212188	0.060528
O29	O	1.220970	0.545522	0.393861
O30	O	1.554303	0.878855	0.727195
C31	C	0.755488	0.107772	-0.000014
C32	C	1.088821	0.441105	0.333319
C33	C	1.422155	0.774439	0.666652
C34	C	0.671471	0.106427	-0.000013
C35	C	1.004804	0.439761	0.333320
C36	C	1.338137	0.773094	0.666653
C37	C	0.146600	0.167171	-0.000025
C38	C	0.479933	0.500504	0.333309
C39	C	0.813266	0.833838	0.666642
C40	C	0.225543	0.168430	-0.000027
C41	C	0.558877	0.501764	0.333307
C42	C	0.892210	0.835097	0.666640
C43	C	0.274161	0.100095	-0.000023
C44	C	0.607494	0.433428	0.333311
C45	C	0.940828	0.766762	0.666644
C46	C	0.243831	0.030496	-0.000024
C47	C	0.577165	0.363829	0.333310
C48	C	0.910498	0.697163	0.666643
C49	C	0.164889	0.029238	-0.000027
C50	C	0.498222	0.362571	0.333307
C51	C	0.831555	0.695905	0.666640
C52	C	0.562197	0.035569	-0.000012
C53	C	0.895531	0.368903	0.333321
C54	C	1.228864	0.702236	0.666654
C55	C	0.641144	0.036833	-0.000007
C56	C	0.974478	0.370166	0.333326
C57	C	1.307811	0.703500	0.666659
C58	C	0.622852	0.174762	-0.000012
C59	C	0.956185	0.508095	0.333321
C60	C	1.289519	0.841428	0.666654
C61	C	0.543909	0.173503	-0.000015
C62	C	0.877243	0.506837	0.333318
C63	C	1.210576	0.840170	0.666651
C64	C	0.513587	0.103905	-0.000020
C65	C	0.846920	0.437238	0.333313
C66	C	1.180253	0.770572	0.666646
C67	C	0.427987	0.102541	-0.000019
C68	C	0.761320	0.435874	0.333314
C69	C	1.094653	0.769207	0.666647
C70	C	0.359759	0.101459	-0.000018
C71	C	0.693093	0.434792	0.333315
C72	C	1.026426	0.768125	0.666648
C73	C	0.899653	-0.036383	-0.000009
C74	C	1.232986	0.296950	0.333324
C75	C	1.566319	0.630283	0.666658
C76	C	0.898314	-0.120402	-0.000009
C77	C	1.231647	0.212932	0.333325
C78	C	1.564981	0.546265	0.666658
C79	C	0.966647	-0.169017	-0.000008
C80	C	1.299980	0.164316	0.333325
C81	C	1.633314	0.497649	0.666659
C82	C	0.965385	-0.247961	-0.000014
C83	C	1.298718	0.085373	0.333319
C84	C	1.632051	0.418706	0.666652
C85	C	0.895789	-0.278287	-0.000016
C86	C	1.229122	0.055047	0.333317
C87	C	1.562455	0.388380	0.666650
C88	C	0.827451	-0.229665	-0.000019
C89	C	1.160784	0.103669	0.333314
C90	C	1.494118	0.437002	0.666648
C91	C	0.828714	-0.150723	-0.000018
C92	C	1.162047	0.182610	0.333316
C93	C	1.495381	0.515944	0.666649
C94	C	0.822356	-0.548028	-0.000025
C95	C	1.155689	-0.214695	0.333309
C96	C	1.489022	0.118639	0.666642
C97	C	0.821098	-0.626976	-0.000024
C98	C	1.154431	-0.293643	0.333310
C99	C	1.487764	0.039690	0.666643
C100	C	0.959026	-0.645266	-0.000022
C101	C	1.292360	-0.311933	0.333312
C102	C	1.625693	0.021401	0.666645
C103	C	0.960289	-0.566324	-0.000020
C104	C	1.293623	-0.232991	0.333313
C105	C	1.626956	0.100342	0.666646
C106	C	0.891952	-0.517709	-0.000027
C107	C	1.225285	-0.184376	0.333306
C108	C	1.558618	0.148958	0.666640
C109	C	0.893321	-0.432110	-0.000021
C110	C	1.226655	-0.098776	0.333312
C111	C	1.559988	0.234557	0.666645
C112	C	0.894419	-0.363885	-0.000017
C113	C	1.227752	-0.030551	0.333317
C114	C	1.561085	0.302782	0.666650
C115	C	1.032258	0.096233	-0.000018
C116	C	1.365591	0.429566	0.333315
C117	C	1.698924	0.762899	0.666649
C118	C	1.116275	0.097578	-0.000024
C119	C	1.449608	0.430911	0.333310
C120	C	1.782941	0.764244	0.666643
C121	C	0.888093	0.240388	-0.000023
C122	C	1.221426	0.573722	0.333310
C123	C	1.554759	0.907055	0.666643
C124	C	0.889431	0.324406	-0.000028
C125	C	1.222765	0.657740	0.333305
C126	C	1.556098	0.991073	0.666638
N127	N	0.893847	0.101993	0.188653
N128	N	1.227181	0.435326	0.521986
N129	N	1.560514	0.768660	0.855319
N130	N	0.893904	0.102006	-0.188683
N131	N	1.227237	0.435339	0.144650
N132	N	1.560571	0.768672	0.477983
C133	C	0.945413	0.050473	0.226755
C134	C	1.278746	0.383807	0.560089
C135	C	1.612079	0.717140	0.893422
C136	C	0.945417	0.050470	0.302983
C137	C	1.278751	0.383803	0.636317
C138	C	1.612084	0.717137	0.969650
C139	C	0.893864	0.101999	0.341105
C140	C	1.227198	0.435333	0.674439
C141	C	1.560531	0.768666	1.007772
C142	C	0.842290	0.153523	0.302993
C143	C	1.175623	0.486856	0.636327
C144	C	1.508956	0.820190	0.969660
C145	C	0.842281	0.153520	0.226767
C146	C	1.175614	0.486853	0.560100
C147	C	1.508948	0.820186	0.893434
C148	C	0.883822	0.170948	0.461862
C149	C	1.217155	0.504281	0.795195
C150	C	1.550488	0.837614	1.128528
C151	C	0.883835	0.170952	0.538087
C152	C	1.217169	0.504285	0.871420
C153	C	1.550502	0.837618	1.204753
C154	C	0.893886	0.102009	0.576213
C155	C	1.227219	0.435342	0.909546
C156	C	1.560552	0.768675	1.242880
C157	C	0.903939	0.033059	0.538105
C158	C	1.237272	0.366392	0.871438
C159	C	1.570606	0.699725	1.204771
C160	C	0.903930	0.033056	0.461878
C161	C	1.237264	0.366389	0.795212
C162	C	1.570597	0.699722	1.128545
C163	C	0.893867	0.102008	0.423760
C164	C	1.227201	0.435341	0.757093
C165	C	1.560534	0.768675	1.090427
C166	C	0.945459	0.050481	0.696971
C167	C	1.278792	0.383815	1.030304
C168	C	1.612126	0.717148	1.363637
C169	C	0.945458	0.050477	0.773200
C170	C	1.278792	0.383810	1.106533
C171	C	1.612125	0.717144	1.439867
C172	C	0.842334	0.153536	0.773208
C173	C	1.175668	0.486870	1.106542
C174	C	1.509001	0.820203	1.439875
C175	C	0.842331	0.153534	0.696981
C176	C	1.175664	0.486867	1.030314
C177	C	1.508998	0.820201	1.363647
C178	C	0.893897	0.102007	0.658866
C179	C	1.227231	0.435341	0.992200
C180	C	1.560564	0.768674	1.325533
H181	H	0.283422	-0.025143	-0.000025
H182	H	0.616755	0.308190	0.333309
H183	H	0.950089	0.641523	0.666642
F184	F	1.000337	-0.004361	0.656406
F185	F	1.333671	0.328972	0.989739
F186	F	1.667004	0.662306	1.323073
F187	F	1.034362	-0.534054	-0.000019
F188	F	1.367696	-0.200720	0.333314
F189	F	1.701029	0.132613	0.666647
H190	H	0.800356	0.195489	0.804247
H191	H	1.133689	0.528823	1.137580
H192	H	1.467022	0.862156	1.470913
H193	H	0.680728	-0.018817	-0.000006
H194	H	1.014061	0.314516	0.333328
H195	H	1.347395	0.647849	0.666661
F196	F	0.873179	0.244333	0.421292
F197	F	1.206512	0.577666	0.754626
F198	F	1.539845	0.910999	1.087959
F199	F	0.914641	-0.040321	0.578675
F200	F	1.247974	0.293012	0.912008
F201	F	1.581308	0.626346	1.245342
H202	H	0.537518	-0.021102	-0.000014
H203	H	0.870852	0.312232	0.333319
H204	H	1.204185	0.645565	0.666652
F205	F	0.755985	-0.098982	-0.000020
F206	F	1.089318	0.234351	0.333313
F207	F	1.422651	0.567685	0.666646
H208	H	0.987409	0.008515	0.334012
H209	H	1.320743	0.341848	0.667346
H210	H	1.654076	0.675182	1.000679
H211	H	0.140200	-0.027432	-0.000027
H212	H	0.473534	0.305901	0.333306
H213	H	0.806867	0.639234	0.666639
F214	F	1.000339	-0.004364	0.813753
F215	F	1.333673	0.328970	1.147087
F216	F	1.667006	0.662303	1.480420
F217	F	0.094864	0.239904	-0.000023
F218	F	0.428197	0.573238	0.333310
F219	F	0.761530	0.906571	0.666643
H220	H	0.766711	-0.508455	-0.000030
H221	H	1.100044	-0.175121	0.333303
H222	H	1.433377	0.158212	0.666637
H223	H	1.021028	-0.287541	-0.000012
H224	H	1.354361	0.045792	0.333321
H225	H	1.687695	0.379125	0.666654
H226	H	1.023320	-0.144333	-0.000002
H227	H	1.356653	0.189001	0.333331
H228	H	1.689986	0.522334	0.666665
H229	H	0.250230	0.225100	-0.000034
H230	H	0.583563	0.558433	0.333299
H231	H	0.916896	0.891767	0.666632
F232	F	1.031758	-0.697012	-0.000017
F233	F	1.365091	-0.363679	0.333316
F234	F	1.698425	-0.030346	0.666650
F235	F	0.492171	0.246235	-0.000017
F236	F	0.825504	0.579568	0.333316
F237	F	1.158837	0.912901	0.666649
F238	F	0.787452	0.208372	0.656426
F239	F	1.120785	0.541705	0.989759
F240	F	1.454118	0.875038	1.323092
H241	H	0.912114	-0.023086	0.430854
H242	H	1.245447	0.310248	0.764187
H243	H	1.578781	0.643581	1.097521
F244	F	0.747021	-0.659249	-0.000027
F245	F	1.080354	-0.325915	0.333307
F246	F	1.413687	0.007418	0.666640
F247	F	0.873141	0.244333	0.578637
F248	F	1.206474	0.577667	0.911970
F249	F	1.539808	0.911000	1.245304
F250	F	0.787420	0.208362	0.343566
F251	F	1.120754	0.541695	0.676899
F252	F	1.454087	0.875028	1.010233
F253	F	0.753381	-0.261942	-0.000029
F254	F	1.086715	0.071391	0.333304
F255	F	1.420048	0.404725	0.666638
F256	F	0.787396	0.208356	0.186213
F257	F	1.120730	0.541690	0.519547
F258	F	1.454063	0.875023	0.852880
F259	F	1.000290	-0.004368	0.186193
F260	F	1.333624	0.328966	0.519526
F261	F	1.666957	0.662299	0.852860
F262	F	0.655130	0.248835	-0.000012
F263	F	0.988463	0.582169	0.333322
F264	F	1.321796	0.915502	0.666655
