data_functionalizedCrystal
_audit_creation_method	'MofGen! by Chris Wilmer'
_symmetry_space_group_name_H-M	'P1'
_symmetry_Int_Tables_number	1
_symmetry_cell_setting	triclinic
loop_
_symmetry_equiv_pos_as_xyz
  x,y,z
_cell_length_a	10.540510
_cell_length_b	16.992695
_cell_length_c	15.455313
_cell_angle_alpha	87.152573
_cell_angle_beta	87.294504
_cell_angle_gamma	92.409233
loop_
_atom_site_label
_atom_site_type_symbol
_atom_site_fract_x
_atom_site_fract_y
_atom_site_fract_z
O1	O	1.700709	-0.107052	-0.072084
O2	O	1.332198	-0.117493	-0.072096
O3	O	1.514976	0.001878	-0.072083
O4	O	1.517931	-0.226423	-0.072097
O5	O	1.504521	-0.004920	0.072178
O6	O	1.321743	-0.124291	0.072165
O7	O	1.690254	-0.113850	0.072177
Cu8	Cu	1.505044	-0.119691	0.085343
Cu9	Cu	1.517408	-0.111652	-0.085262
O10	O	1.507476	-0.233221	0.072164
C11	C	1.279600	-0.120114	0.000033
C12	C	1.138448	-0.117786	0.000028
C13	C	1.505947	0.027713	0.000047
C14	C	1.494607	0.114819	0.000046
C15	C	1.742853	-0.111229	0.000046
C16	C	1.884005	-0.113557	0.000045
C17	C	2.094288	-0.030614	-0.000288
C18	C	1.947453	-0.028147	0.000047
C19	C	1.926601	-0.161161	0.082418
C20	C	2.073520	-0.163042	0.082477
C21	C	2.085346	-0.157090	-0.081575
C22	C	1.938732	-0.152988	-0.082653
C23	C	1.516505	-0.259056	0.000032
C24	C	1.527846	-0.346162	0.000027
N25	N	1.496357	-0.125345	0.205338
C26	C	1.604027	0.164454	0.000051
C27	C	1.593365	0.246300	0.000042
C28	C	1.473280	0.278510	0.000036
C29	C	1.363852	0.228869	0.000028
C30	C	1.374516	0.147024	0.000031
C31	C	1.429082	0.522353	0.000022
C32	C	1.418425	0.604203	0.000022
C33	C	1.647940	0.621629	0.000035
C34	C	1.658593	0.539782	0.000042
C35	C	1.549165	0.490149	0.000031
N36	N	1.462378	0.362169	0.000029
N37	N	1.560068	0.406491	0.000030
N38	N	1.526105	-0.105992	-0.205257
C39	C	1.574038	-0.074651	0.250738
C40	C	1.567481	-0.078934	0.341545
C41	C	1.483248	-0.133916	0.386951
C42	C	1.405559	-0.184612	0.341545
C43	C	1.412110	-0.180324	0.250740
C44	C	1.454967	-0.152401	0.658531
C45	C	1.448424	-0.156686	0.749343
C46	C	1.610345	-0.051007	0.749337
C47	C	1.616895	-0.046727	0.658529
C48	C	1.539200	-0.097421	0.613131
N49	N	1.476546	-0.138297	0.479771
N50	N	1.545896	-0.093035	0.520313
H51	H	1.919410	0.008845	-0.059000
N52	N	1.651278	-0.024273	0.390523
H53	H	1.707812	-0.056381	0.428184
H54	H	1.596426	0.008962	0.428164
N55	N	1.788123	0.505057	0.000048
H56	H	1.840307	0.525630	-0.053429
H57	H	1.778181	0.445681	0.000083
H58	H	1.701813	0.138236	0.000062
H59	H	2.129964	-0.127154	-0.144015
H60	H	1.737030	0.662049	0.000043
N61	N	1.311058	0.468827	0.000015
H62	H	1.314240	0.437003	-0.053466
H63	H	1.233438	0.501709	0.000045
H64	H	1.682467	0.286710	0.000048
N65	N	1.694139	0.003668	0.798300
H66	H	1.677211	-0.007389	0.862715
H67	H	1.674969	0.060159	0.782440
N68	N	1.870769	-0.244641	0.086483
H69	H	1.817196	-0.252423	0.034843
H70	H	1.816081	-0.254570	0.141697
N71	N	1.357578	-0.215989	0.798329
H72	H	1.378985	-0.271012	0.782513
H73	H	1.267689	-0.205610	0.782534
H74	H	1.320632	0.630424	0.000031
H75	H	1.266076	0.255100	0.000017
N76	N	1.328335	-0.235003	0.201765
H77	H	1.271780	-0.202910	0.164105
H78	H	1.274060	-0.270476	0.244360
N79	N	1.707747	0.012573	0.609557
H80	H	1.755963	0.044039	0.652097
H81	H	1.658326	0.049322	0.571893
N82	N	2.151717	0.017163	-0.078528
H83	H	2.206918	-0.017232	-0.114530
H84	H	2.205054	0.063044	-0.058784
H85	H	1.285414	0.106612	0.000027
H86	H	1.642635	-0.029883	0.213774
H87	H	1.336968	-0.229376	0.378520
N88	N	2.142476	0.009548	0.077523
H89	H	2.192787	-0.028479	0.112977
H90	H	2.067986	0.026931	0.114249
N91	N	1.900185	0.013731	0.078408
H92	H	1.938709	0.069283	0.075874
H93	H	1.925692	-0.015602	0.132863
H94	H	2.106690	-0.136063	0.144056
H95	H	2.101788	-0.227099	0.086225
H96	H	1.391707	-0.193679	0.621575
H97	H	1.888676	-0.133686	0.143728
N98	N	1.903020	-0.107049	-0.163380
H99	H	1.851603	-0.060888	-0.146463
H100	H	1.850866	-0.142524	-0.199932
H101	H	1.895417	-0.215103	-0.087640
N102	N	2.122104	-0.241997	-0.082325
H103	H	2.172902	-0.254973	-0.030091
H104	H	2.175162	-0.250158	-0.137016
