data_functionalizedCrystal
_audit_creation_method	'MofGen! by Chris Wilmer'
_symmetry_space_group_name_H-M	'P1'
_symmetry_Int_Tables_number	1
_symmetry_cell_setting	triclinic
loop_
_symmetry_equiv_pos_as_xyz
  x,y,z
_cell_length_a	14.908571
_cell_length_b	12.759394
_cell_length_c	14.908308
_cell_angle_alpha	86.731597
_cell_angle_beta	89.824947
_cell_angle_gamma	86.711101
loop_
_atom_site_label
_atom_site_type_symbol
_atom_site_fract_x
_atom_site_fract_y
_atom_site_fract_z
Zn1	Zn	1.345341	-0.548282	0.587592
Zn2	Zn	1.353935	-0.714462	0.437236
Zn3	Zn	1.203654	-0.528102	0.428590
Zn4	Zn	1.194963	-0.713213	0.578887
O5	O	1.274473	-0.626015	0.508076
O6	O	1.472308	-0.579294	0.574908
O7	O	1.341234	-0.681818	0.310264
O8	O	1.222490	-0.383762	0.449706
O9	O	1.478622	-0.701385	0.464442
O10	O	1.326587	-0.398588	0.566525
O11	O	1.230824	-0.544900	0.303912
O12	O	1.076675	-0.543690	0.441266
O13	O	1.207676	-0.699258	0.705867
O14	O	1.070289	-0.679690	0.551688
O15	O	1.318159	-0.578083	0.712262
O16	O	1.332806	-0.861313	0.456001
O17	O	1.216010	-0.860396	0.560072
C18	C	1.040856	-0.609365	0.494595
C19	C	0.940913	-0.602270	0.488849
C20	C	0.746516	-0.730752	0.592880
C21	C	0.652610	-0.724088	0.587484
C22	C	0.659192	-0.582274	0.472666
C23	C	0.753098	-0.588938	0.478062
C24	C	0.796757	-0.663180	0.538170
C25	C	0.890665	-0.669848	0.543561
C26	C	0.897246	-0.528030	0.428748
C27	C	0.803340	-0.521366	0.423352
C28	C	1.274420	-0.898977	0.508051
C29	C	1.274478	-1.015759	0.508075
C30	C	1.396180	-1.016672	0.399798
C31	C	1.457053	-1.071992	0.345671
C32	C	1.457105	-1.181719	0.345698
C33	C	1.396278	-1.236129	0.399860
C34	C	1.335404	-1.180809	0.453987
C35	C	1.335358	-1.071079	0.453952
C36	C	1.213709	-1.179897	0.562269
C37	C	1.213651	-1.070169	0.562238
C38	C	1.152882	-1.234306	0.616431
C39	C	1.092002	-1.178986	0.670555
C40	C	1.091953	-1.069252	0.670524
C41	C	1.152778	-1.014849	0.616365
C42	C	1.509002	-0.642730	0.521611
C43	C	1.608945	-0.649853	0.527378
C44	C	1.260989	-0.640782	0.742602
C45	C	1.255243	-0.647075	0.842543
C46	C	1.274549	-0.351989	0.508122
C47	C	1.274582	-0.235216	0.508142
C48	C	1.287956	-0.611232	0.274466
C49	C	1.293877	-0.604656	0.174536
C50	C	1.359488	-0.532697	1.037003
C51	C	1.354092	-0.538606	1.130907
C52	C	1.239051	-0.664798	1.124254
C53	C	1.244447	-0.658888	1.030351
C54	C	1.304669	-0.592837	0.986729
C55	C	1.310069	-0.586934	0.892824
C56	C	1.195024	-0.713118	0.886173
C57	C	1.189627	-0.719028	0.980077
H58	H	0.926210	-0.730302	0.592502
H59	H	1.398730	-0.489631	1.171837
C60	C	1.396121	-0.895969	0.399754
N61	N	1.396079	-0.805053	0.399719
C62	C	0.794542	-0.812421	0.658995
N63	N	0.830714	-0.873936	0.708795
C64	C	0.597348	-0.798429	0.647664
N65	N	0.555725	-0.854427	0.692992
C66	C	0.611151	-0.500604	0.406562
N67	N	0.574965	-0.439088	0.356773
C68	C	1.025099	-1.238843	0.730125
N69	N	0.974703	-1.283932	0.774991
H70	H	1.150388	-0.762092	0.845230
C71	C	1.123381	-0.791672	1.028071
N72	N	1.073482	-0.846389	1.064220
C73	C	0.755305	-0.439704	0.357237
N74	N	0.719126	-0.378196	0.307436
H75	H	0.938162	-0.473010	0.384197
H76	H	1.506677	-1.226761	0.301628
C77	C	1.396342	-1.356832	0.399892
N78	N	1.396389	-1.447747	0.399915
C79	C	1.523957	-1.012133	0.286092
N80	N	1.574349	-0.967050	0.241218
C81	C	1.024992	-1.008410	0.730077
N82	N	0.974558	-0.962588	0.774935
H83	H	1.152931	-1.323652	0.616454
C84	C	1.152734	-0.894147	0.616331
N85	N	1.152707	-0.803234	0.616307
C86	C	1.172790	-0.737420	1.172254
N87	N	1.122876	-0.792113	1.208408
C88	C	1.425736	-0.460046	0.989017
N89	N	1.475634	-0.405323	0.952875
H90	H	1.359106	-0.533153	0.857308
