data_functionalizedCrystal
_audit_creation_method	'MofGen! by Chris Wilmer'
_symmetry_space_group_name_H-M	'P1'
_symmetry_Int_Tables_number	1
_symmetry_cell_setting	triclinic
loop_
_symmetry_equiv_pos_as_xyz
  x,y,z
_cell_length_a	12.759401
_cell_length_b	13.897448
_cell_length_c	12.759393
_cell_angle_alpha	89.967728
_cell_angle_beta	89.979062
_cell_angle_gamma	90.019217
loop_
_atom_site_label
_atom_site_type_symbol
_atom_site_fract_x
_atom_site_fract_y
_atom_site_fract_z
Zn1	Zn	1.606245	-0.383929	-0.594007
Zn2	Zn	1.606126	-0.545255	-0.418322
Zn3	Zn	1.430543	-0.383980	-0.418342
Zn4	Zn	1.430526	-0.545188	-0.593959
O5	O	1.518360	-0.464588	-0.506158
O6	O	1.753250	-0.405336	-0.570714
O7	O	1.582793	-0.523912	-0.271303
O8	O	1.453907	-0.248992	-0.441673
O9	O	1.753163	-0.523862	-0.441638
O10	O	1.582994	-0.248954	-0.570734
O11	O	1.453793	-0.405423	-0.271318
O12	O	1.283520	-0.405358	-0.441627
O13	O	1.453878	-0.523747	-0.740987
O14	O	1.283507	-0.523797	-0.570652
O15	O	1.582977	-0.405271	-0.741022
O16	O	1.582776	-0.680228	-0.441592
O17	O	1.453763	-0.680179	-0.570632
C18	C	1.245393	-0.464576	-0.506137
C19	C	1.128616	-0.464595	-0.506153
C20	C	1.518283	-0.715203	-0.506127
C21	C	1.518347	-0.822416	-0.506149
C22	C	1.073775	-0.526359	-0.573230
C23	C	0.964051	-0.526363	-0.573251
C24	C	0.964019	-0.402834	-0.439108
C25	C	1.073741	-0.402827	-0.439093
C26	C	1.518457	-1.018711	-0.506215
C27	C	1.518393	-0.909479	-0.506182
C28	C	1.792393	-0.464601	-0.506179
C29	C	1.909170	-0.464606	-0.506188
C30	C	1.518439	-0.464496	-0.780191
C31	C	1.518472	-0.464456	-0.896968
C32	C	1.518466	-0.212995	-0.506211
C33	C	1.518511	-0.105781	-0.506234
C34	C	1.585699	-0.402756	-0.951850
C35	C	1.585717	-0.402714	-1.061574
C36	C	1.451278	-0.526082	-1.061524
C37	C	1.451255	-0.526118	-0.951802
C38	C	1.518342	-0.464611	-0.233190
C39	C	1.518512	-0.464379	-0.116414
H40	H	0.919404	-0.576657	-0.627874
N41	N	1.658194	-0.336255	-0.892703
H42	H	1.641915	-0.267326	-0.911802
H43	H	1.647947	-0.345728	-0.814886
N44	N	1.132909	-0.336212	-0.366742
H45	H	1.178464	-0.291560	-0.409526
H46	H	1.081439	-0.297150	-0.324267
H47	H	1.640459	-0.352470	-1.106254
H48	H	1.118451	-0.576652	-0.627837
H49	H	1.396554	-0.576287	-1.106184
N50	N	0.904832	-0.336241	-0.366755
H51	H	0.827001	-0.345627	-0.376930
H52	H	0.923986	-0.351194	-0.291699
N53	N	1.378721	-0.592650	-0.892598
H54	H	1.336143	-0.631706	-0.943983
H55	H	1.421441	-0.637310	-0.847059
