data_functionalizedCrystal
_audit_creation_method	'MofGen! by Chris Wilmer'
_symmetry_space_group_name_H-M	'P1'
_symmetry_Int_Tables_number	1
_symmetry_cell_setting	triclinic
loop_
_symmetry_equiv_pos_as_xyz
  x,y,z
_cell_length_a	11.169417
_cell_length_b	19.077068
_cell_length_c	11.169409
_cell_angle_alpha	92.259065
_cell_angle_beta	89.980176
_cell_angle_gamma	92.327792
loop_
_atom_site_label
_atom_site_type_symbol
_atom_site_fract_x
_atom_site_fract_y
_atom_site_fract_z
Zn1	Zn	1.815630	-0.280126	-0.697665
Zn2	Zn	1.807395	-0.397846	-0.505018
Zn3	Zn	1.614913	-0.280169	-0.497002
Zn4	Zn	1.606803	-0.397789	-0.705659
O5	O	1.711185	-0.338983	-0.601336
O6	O	1.982486	-0.295748	-0.672119
O7	O	1.781809	-0.382278	-0.336008
O8	O	1.648378	-0.181673	-0.516921
O9	O	1.976436	-0.382237	-0.530582
O10	O	1.795844	-0.181642	-0.664347
O11	O	1.640393	-0.295821	-0.330119
O12	O	1.445887	-0.295766	-0.524672
O13	O	1.634556	-0.382139	-0.872546
O14	O	1.439929	-0.382181	-0.677971
O15	O	1.787981	-0.295693	-0.866672
O16	O	1.773945	-0.496329	-0.538333
O17	O	1.626571	-0.496287	-0.685743
C18	C	1.399361	-0.338972	-0.601320
C19	C	1.265960	-0.338984	-0.601343
C20	C	1.698517	-0.521846	-0.613802
C21	C	1.693208	-0.600075	-0.619175
C22	C	1.767503	-0.636826	-0.545014
C23	C	1.762516	-0.710331	-0.550075
C24	C	1.683227	-0.747084	-0.629291
C25	C	1.608929	-0.710328	-0.703460
C26	C	1.613923	-0.636824	-0.698404
C27	C	1.660064	-0.966916	-0.652640
C28	C	1.655073	-1.040425	-0.657687
C29	C	1.808662	-1.040424	-0.504303
C30	C	1.813643	-0.966918	-0.499250
C31	C	1.739350	-0.930169	-0.573423
N32	N	1.678125	-0.822218	-0.634463
N33	N	1.744459	-0.855036	-0.568256
C34	C	2.024226	-0.338994	-0.601353
C35	C	2.157626	-0.338999	-0.601360
C36	C	1.711282	-0.338905	-0.914373
C37	C	1.711324	-0.338871	-1.047771
C38	C	1.723935	-0.155406	-0.588848
C39	C	1.729368	-0.077176	-0.583526
C40	C	1.711160	-0.339010	-0.289513
C41	C	1.711365	-0.338845	-0.156103
H42	H	1.823014	-0.740251	-0.489685
H43	H	1.544376	-0.740258	-0.767964
C44	C	1.890386	-1.080846	-0.422725
H45	H	1.938316	-1.048430	-0.374818
H46	H	1.940711	-1.109472	-0.470647
H47	H	1.842545	-1.109567	-0.372360
C48	C	1.532201	-0.596395	-0.779978
H49	H	1.546539	-0.547355	-0.765631
H50	H	1.450747	-0.608487	-0.763182
H51	H	1.548921	-0.608393	-0.861460
C52	C	1.854723	-0.596405	-0.457878
H53	H	1.898263	-0.628822	-0.414444
H54	H	1.810789	-0.567778	-0.403574
H55	H	1.908948	-0.567684	-0.501868
C56	C	1.567852	-1.080855	-0.744824
H57	H	1.575509	-1.129894	-0.737196
H58	H	1.586192	-1.068767	-0.824650
H59	H	1.488033	-1.068855	-0.726357
H60	H	1.599569	-0.937001	-0.713032
H61	H	1.878206	-0.936996	-0.434746
