data_functionalizedCrystal
_audit_creation_method	'MofGen! by Chris Wilmer'
_symmetry_space_group_name_H-M	'P1'
_symmetry_Int_Tables_number	1
_symmetry_cell_setting	triclinic
loop_
_symmetry_equiv_pos_as_xyz
  x,y,z
_cell_length_a	12.759401
_cell_length_b	12.759399
_cell_length_c	17.077396
_cell_angle_alpha	89.973998
_cell_angle_beta	89.983345
_cell_angle_gamma	90.014202
loop_
_atom_site_label
_atom_site_type_symbol
_atom_site_fract_x
_atom_site_fract_y
_atom_site_fract_z
Zn1	Zn	1.606231	-0.418292	-0.443797
Zn2	Zn	1.606130	-0.593992	-0.312536
Zn3	Zn	1.430539	-0.418325	-0.312551
Zn4	Zn	1.430520	-0.593927	-0.443766
O5	O	1.518355	-0.506134	-0.378163
O6	O	1.753238	-0.441613	-0.426391
O7	O	1.582804	-0.570731	-0.202691
O8	O	1.453895	-0.271300	-0.329980
O9	O	1.753164	-0.570699	-0.329955
O10	O	1.582975	-0.271275	-0.426405
O11	O	1.453797	-0.441669	-0.202702
O12	O	1.283516	-0.441606	-0.329951
O13	O	1.453863	-0.570587	-0.553617
O14	O	1.283502	-0.570619	-0.426354
O15	O	1.582956	-0.441549	-0.553640
O16	O	1.582785	-0.741005	-0.329925
O17	O	1.453765	-0.740956	-0.426340
C18	C	1.245388	-0.506110	-0.378151
C19	C	1.128611	-0.506124	-0.378165
C20	C	0.964051	-0.439055	-0.428462
C21	C	1.073775	-0.439034	-0.428457
C22	C	1.073717	-0.573247	-0.327880
C23	C	0.963995	-0.573272	-0.327890
C24	C	1.223777	-0.401621	-0.521068
C25	C	1.278667	-0.334489	-0.571344
C26	C	1.243064	-0.232004	-0.583532
C27	C	1.152574	-0.196629	-0.545433
C28	C	1.097690	-0.263755	-0.495151
C29	C	1.133290	-0.366255	-0.482978
C30	C	0.813991	-0.610675	-0.235278
C31	C	0.759105	-0.677796	-0.184992
C32	C	0.794705	-0.780284	-0.172796
C33	C	0.885199	-0.815654	-0.210881
C34	C	0.940085	-0.748533	-0.261167
C35	C	0.904478	-0.646047	-0.273364
C36	C	1.518291	-0.779102	-0.378145
C37	C	1.518359	-0.895878	-0.378163
C38	C	1.585617	-0.950730	-0.328018
C39	C	1.585684	-1.060454	-0.328044
C40	C	1.451228	-1.060464	-0.428364
C41	C	1.451166	-0.950742	-0.428341
C42	C	1.709695	-1.210332	-0.300108
C43	C	1.776943	-1.265188	-0.249950
C44	C	1.793111	-1.229639	-0.173359
C45	C	1.742016	-1.139236	-0.146911
C46	C	1.674760	-1.084386	-0.197065
C47	C	1.658612	-1.119933	-0.273666
C48	C	1.327154	-0.800863	-0.456269
C49	C	1.259892	-0.746010	-0.506419
C50	C	1.243713	-0.781557	-0.583012
C51	C	1.294790	-0.871963	-0.609457
C52	C	1.362052	-0.926816	-0.559307
C53	C	1.378233	-0.891261	-0.482715
C54	C	1.792388	-0.506159	-0.378175
C55	C	1.909165	-0.506170	-0.378180
C56	C	1.518419	-0.506057	-0.582907
C57	C	1.518446	-0.506024	-0.670157
C58	C	1.518448	-0.232101	-0.378198
C59	C	1.518488	-0.115324	-0.378213
C60	C	1.585667	-0.438828	-0.711160
C61	C	1.585680	-0.438793	-0.793140
C62	C	1.518475	-0.505960	-0.834116
C63	C	1.451246	-0.573159	-0.793108
C64	C	1.451229	-0.573187	-0.711129
C65	C	1.451289	-0.573095	-0.963978
C66	C	1.451307	-0.573068	-1.045962
C67	C	1.585739	-0.438701	-1.045989
C68	C	1.585722	-0.438730	-0.964010
C69	C	1.518494	-0.505930	-0.923007
C70	C	1.518352	-0.506135	-0.174215
C71	C	1.518529	-0.505872	-0.086965
H72	H	1.252767	-0.485076	-0.511156
Br73	Br	1.360090	-0.664214	-1.101573
H74	H	1.281617	-0.900906	-0.671825
Br75	Br	1.676887	-0.347676	-0.655557
H76	H	1.755178	-1.110306	-0.084539
Br77	Br	0.974892	-0.215757	-0.443445
H78	H	1.396528	-0.627801	-0.930596
H79	H	0.784995	-0.527222	-0.245206
H80	H	1.640421	-0.384078	-0.826521
Br81	Br	1.676938	-0.347583	-0.908400
Br82	Br	1.062904	-0.796534	-0.312852
H83	H	1.403645	-1.000426	-0.580846
H84	H	0.750010	-0.834931	-0.131843
Br85	Br	0.636300	-0.629787	-0.133293
H86	H	1.188939	-0.736887	-0.623843
Br87	Br	0.933563	-0.954724	-0.194287
Br88	Br	1.676807	-0.876275	-0.259920
H89	H	1.640477	-0.383982	-1.079378
Br90	Br	1.846281	-1.387875	-0.285842
Br91	Br	1.190530	-0.623344	-0.470516
H92	H	1.847868	-1.274310	-0.132520
Br93	Br	1.605411	-0.961710	-0.161177
Br94	Br	1.349117	-0.752609	-0.352320
H95	H	1.696547	-1.239277	-0.362477
Br96	Br	1.360032	-0.664308	-0.848717
H97	H	1.396520	-1.105148	-0.469216
Br98	Br	1.359990	-0.664379	-0.655480
H99	H	1.123601	-0.113170	-0.555353
Br100	Br	0.889641	-0.347990	-0.496713
H101	H	1.287764	-0.177345	-0.624467
Br102	Br	1.148136	-0.664307	-0.259631
Br103	Br	1.401471	-0.382495	-0.623047
