data_functionalizedCrystal
_audit_creation_method	'MofGen! by Chris Wilmer'
_symmetry_space_group_name_H-M	'P1'
_symmetry_Int_Tables_number	1
_symmetry_cell_setting	triclinic
loop_
_symmetry_equiv_pos_as_xyz
  x,y,z
_cell_length_a	18.050589
_cell_length_b	13.032951
_cell_length_c	13.032268
_cell_angle_alpha	89.114265
_cell_angle_beta	97.149417
_cell_angle_gamma	97.169409
loop_
_atom_site_label
_atom_site_type_symbol
_atom_site_fract_x
_atom_site_fract_y
_atom_site_fract_z
Zn1	Zn	-0.501584	-1.498346	-0.780877
Zn2	Zn	-0.168250	-1.165012	-0.447543
Zn3	Zn	0.165083	-0.831679	-0.114210
Zn4	Zn	-0.612231	-1.520060	-0.608897
Zn5	Zn	-0.278897	-1.186726	-0.275564
Zn6	Zn	0.054436	-0.853393	0.057769
Zn7	Zn	-0.470555	-1.348213	-0.587113
Zn8	Zn	-0.137222	-1.014879	-0.253780
Zn9	Zn	0.196112	-0.681546	0.079553
Zn10	Zn	-0.608208	-1.326309	-0.759017
Zn11	Zn	-0.274875	-0.992976	-0.425684
Zn12	Zn	0.058458	-0.659643	-0.092350
O13	O	-0.548144	-1.423232	-0.683976
O14	O	-0.214811	-1.089898	-0.350643
O15	O	0.118522	-0.756565	-0.017309
O16	O	-0.530930	-1.645142	-0.776328
O17	O	-0.197597	-1.311809	-0.442995
O18	O	0.135737	-0.978476	-0.109661
O19	O	-0.582135	-1.515518	-0.462091
O20	O	-0.248801	-1.182184	-0.128758
O21	O	0.084532	-0.848851	0.204575
O22	O	-0.370756	-1.368207	-0.612848
O23	O	-0.037423	-1.034874	-0.279515
O24	O	0.295910	-0.701541	0.053818
O25	O	-0.612222	-1.661096	-0.649976
O26	O	-0.278888	-1.327762	-0.316642
O27	O	0.054445	-0.994429	0.016691
O28	O	-0.393553	-1.478509	-0.755205
O29	O	-0.060220	-1.145176	-0.421872
O30	O	0.273114	-0.811843	-0.088539
O31	O	-0.478046	-1.389262	-0.446087
O32	O	-0.144713	-1.055929	-0.112754
O33	O	0.188620	-0.722596	0.220580
O34	O	-0.474146	-1.201391	-0.591652
O35	O	-0.140813	-0.868057	-0.258319
O36	O	0.192520	-0.534724	0.075015
O37	O	-0.605367	-1.330876	-0.905833
O38	O	-0.272033	-0.997543	-0.572500
O39	O	0.061300	-0.664210	-0.239166
O40	O	-0.575280	-1.185299	-0.717949
O41	O	-0.241946	-0.851965	-0.384616
O42	O	0.091387	-0.518632	-0.051282
O43	O	-0.527030	-1.457271	-0.921893
O44	O	-0.193697	-1.123937	-0.588560
O45	O	0.139637	-0.790604	-0.255227
O46	O	-0.715612	-1.494279	-0.628779
O47	O	-0.382278	-1.160946	-0.295446
O48	O	-0.048945	-0.827612	0.037887
O49	O	-0.712657	-1.351932	-0.739072
O50	O	-0.379323	-1.018598	-0.405738
O51	O	-0.045990	-0.685265	-0.072405
C52	C	-0.520910	-1.156029	-0.650065
C53	C	-0.187577	-0.822695	-0.316732
C54	C	0.145757	-0.489362	0.016602
C55	C	-0.509279	-1.041715	-0.635582
C56	C	-0.175946	-0.708381	-0.302249
C57	C	0.157388	-0.375048	0.031084
C58	C	-0.741083	-1.423110	-0.683943
C59	C	-0.407749	-1.089776	-0.350610
C60	C	-0.074416	-0.756443	-0.017277
C61	C	-0.823635	-1.423147	-0.683976
C62	C	-0.490301	-1.089814	-0.350642
C63	C	-0.156968	-0.756481	-0.017309
C64	C	-0.554197	-0.982827	-0.691521
C65	C	-0.220864	-0.649494	-0.358188
C66	C	0.112469	-0.316161	-0.024854
C67	C	-0.542177	-0.864678	-0.676554
C68	C	-0.208844	-0.531345	-0.343220
C69	C	0.124490	-0.198011	-0.009887
C70	C	-1.021510	-1.345809	-0.743937
C71	C	-0.688177	-1.012476	-0.410604
C72	C	-0.354844	-0.679143	-0.077271
C73	C	-1.061011	-1.332664	-0.646916
C74	C	-0.727678	-0.999331	-0.313583
C75	C	-0.394345	-0.665997	0.019751
C76	C	-0.974776	-1.423247	-0.684002
C77	C	-0.641443	-1.089913	-0.350669
C78	C	-0.308110	-0.756580	-0.017335
C79	C	-1.082363	-1.436441	-0.781040
C80	C	-0.749030	-1.103108	-0.447707
C81	C	-0.415696	-0.769775	-0.114374
C82	C	-1.120773	-1.423340	-0.684035
C83	C	-0.787439	-1.090006	-0.350702
C84	C	-0.454106	-0.756673	-0.017369
C85	C	-1.013181	-1.410058	-0.586925
C86	C	-0.679848	-1.076725	-0.253591
C87	C	-0.346515	-0.743392	0.079742
C88	C	-1.034538	-1.513871	-0.721118
C89	C	-0.701205	-1.180538	-0.387785
C90	C	-0.367871	-0.847204	-0.054451
C91	C	-1.074015	-1.500770	-0.624036
C92	C	-0.740682	-1.167436	-0.290703
C93	C	-0.407349	-0.834103	0.042630
C94	C	-0.890671	-1.423190	-0.683984
C95	C	-0.557338	-1.089857	-0.350650
C96	C	-0.224005	-0.756524	-0.017317
C97	C	-1.204875	-1.423397	-0.684043
C98	C	-0.871542	-1.090064	-0.350709
C99	C	-0.538209	-0.756731	-0.017376
C100	C	-0.354457	-1.423379	-0.684035
C101	C	-0.021124	-1.090046	-0.350702
C102	C	0.312209	-0.756713	-0.017369
C103	C	-0.271920	-1.423442	-0.684060
C104	C	0.061414	-1.090109	-0.350727
C105	C	0.394747	-0.756776	-0.017394
C106	C	-0.569211	-1.389208	-0.952222
C107	C	-0.235877	-1.055875	-0.618889
C108	C	0.097456	-0.722542	-0.285556
C109	C	-0.578188	-1.374709	-1.066533
C110	C	-0.244855	-1.041376	-0.733200
C111	C	0.088479	-0.708043	-0.399866
C112	C	-0.575477	-0.691479	-0.718013
C113	C	-0.242143	-0.358146	-0.384680
C114	C	0.091190	-0.024812	-0.051347
C115	C	-0.587101	-0.805792	-0.732500
C116	C	-0.253768	-0.472459	-0.399167
C117	C	0.079565	-0.139126	-0.065833
C118	C	-0.543431	-1.430783	-1.125442
C119	C	-0.210097	-1.097449	-0.792109
C120	C	0.123236	-0.764116	-0.458776
C121	C	-0.552708	-1.415799	-1.243589
C122	C	-0.219375	-1.082466	-0.910255
C123	C	0.113958	-0.749132	-0.576922
C124	C	-0.527112	-1.457182	-0.416781
C125	C	-0.193779	-1.123849	-0.083448
C126	C	0.139554	-0.790515	0.249886
C127	C	-0.517946	-1.471880	-0.302496
C128	C	-0.184613	-1.138547	0.030837
C129	C	0.148720	-0.805213	0.364170
H130	H	-0.601550	-1.019881	-0.750496
H131	H	-0.268217	-0.686548	-0.417163
H132	H	0.065117	-0.353214	-0.083830
H133	H	-0.506803	-1.489879	-1.088410
H134	H	-0.173469	-1.156545	-0.755076
H135	H	0.159864	-0.823212	-0.421743
F136	F	-0.626057	-1.297455	-1.114931
F137	F	-0.292724	-0.964122	-0.781597
F138	F	0.040610	-0.630788	-0.448264
H139	H	-0.461921	-1.004660	-0.576615
H140	H	-0.128588	-0.671327	-0.243281
H141	H	0.204746	-0.337994	0.090052
F142	F	-0.480272	-0.816256	-0.599472
F143	F	-0.146939	-0.482922	-0.266139
F144	F	0.186395	-0.149589	0.067195
F145	F	-0.600580	-1.338540	-1.291982
F146	F	-0.267247	-1.005207	-0.958648
F147	F	0.066087	-0.671874	-0.625315
H148	H	-1.112420	-1.447566	-0.863092
H149	H	-0.779087	-1.114232	-0.529758
H150	H	-0.445753	-0.780899	-0.196425
H151	H	-1.022515	-1.590443	-0.752527
H152	H	-0.689182	-1.257109	-0.419193
H153	H	-0.355849	-0.923776	-0.085860
H154	H	-0.998494	-1.280248	-0.794529
H155	H	-0.665161	-0.946915	-0.461196
H156	H	-0.331828	-0.613581	-0.127863
F157	F	-0.648995	-0.854210	-0.809601
F158	F	-0.315662	-0.520877	-0.476267
F159	F	0.017672	-0.187544	-0.142934
F160	F	-1.076705	-1.232546	-0.605893
F161	F	-0.743372	-0.899213	-0.272560
F162	F	-0.410039	-0.565879	0.060774
H163	H	-0.481314	-1.530978	-1.265469
H164	H	-0.147980	-1.197645	-0.932136
H165	H	0.185353	-0.864312	-0.598802
F166	F	-0.974000	-1.395404	-0.479632
F167	F	-0.640667	-1.062071	-0.146299
F168	F	-0.307334	-0.728738	0.187034
F169	F	-1.103900	-1.586430	-0.557722
F170	F	-0.770567	-1.253097	-0.224388
F171	F	-0.437234	-0.919763	0.108945
