data_functionalizedCrystal
_audit_creation_method	'MofGen! by Chris Wilmer'
_symmetry_space_group_name_H-M	'P1'
_symmetry_Int_Tables_number	1
_symmetry_cell_setting	triclinic
loop_
_symmetry_equiv_pos_as_xyz
  x,y,z
_cell_length_a	21.295420
_cell_length_b	21.295411
_cell_length_c	16.959454
_cell_angle_alpha	89.986811
_cell_angle_beta	90.018326
_cell_angle_gamma	89.975307
loop_
_atom_site_label
_atom_site_type_symbol
_atom_site_fract_x
_atom_site_fract_y
_atom_site_fract_z
Zn1	Zn	0.962401	-0.355951	-0.314808
Zn2	Zn	1.462401	0.144049	0.185192
Zn3	Zn	0.962323	-0.250692	-0.446970
Zn4	Zn	1.462323	0.249308	0.053030
Zn5	Zn	0.857124	-0.250695	-0.314805
Zn6	Zn	1.357124	0.249305	0.185195
Zn7	Zn	0.857113	-0.355923	-0.446945
Zn8	Zn	1.357113	0.144077	0.053055
O9	O	0.909740	-0.303315	-0.380882
O10	O	1.409740	0.196685	0.119118
O11	O	1.050480	-0.341998	-0.332352
O12	O	1.550480	0.158002	0.167648
O13	O	0.948340	-0.162603	-0.429447
O14	O	1.448340	0.337397	0.070553
O15	O	0.871127	-0.264671	-0.204195
O16	O	1.371127	0.235329	0.295805
O17	O	1.050422	-0.264664	-0.429450
O18	O	1.550422	0.235336	0.070550
O19	O	0.948473	-0.342001	-0.204197
O20	O	1.448473	0.157999	0.295803
O21	O	0.871051	-0.162606	-0.332346
O22	O	1.371051	0.337394	0.167654
O23	O	0.769033	-0.264644	-0.332322
O24	O	1.269033	0.235356	0.167678
O25	O	0.871107	-0.444016	-0.429408
O26	O	1.371107	0.055984	0.070592
O27	O	0.769025	-0.341954	-0.429404
O28	O	1.269025	0.158046	0.070596
O29	O	0.948462	-0.444036	-0.332328
O30	O	1.448462	0.055964	0.167672
O31	O	0.948329	-0.264638	-0.557577
O32	O	1.448329	0.235362	-0.057577
O33	O	0.871031	-0.341951	-0.557559
O34	O	1.371031	0.158049	-0.057559
C35	C	0.746189	-0.303297	-0.380861
C36	C	1.246189	0.196703	0.119139
C37	C	0.676220	-0.303304	-0.380870
C38	C	1.176220	0.196696	0.119130
C39	C	0.176775	-0.343532	-0.431526
C40	C	0.676775	0.156468	0.068474
C41	C	0.242517	-0.343525	-0.431526
C42	C	0.742517	0.156475	0.068474
C43	C	0.275381	-0.303335	-0.380900
C44	C	0.775381	0.196665	0.119100
C45	C	0.242497	-0.263137	-0.330284
C46	C	0.742497	0.236863	0.169716
C47	C	0.176756	-0.263140	-0.330291
C48	C	0.676756	0.236860	0.169709
N49	N	0.378612	-0.298594	-0.311691
N50	N	0.878612	0.201406	0.188309
N51	N	0.441063	-0.298595	-0.311687
N52	N	0.941063	0.201405	0.188313
C53	C	0.473456	-0.303322	-0.380878
C54	C	0.973456	0.196678	0.119122
N55	N	0.441038	-0.308060	-0.450075
N56	N	0.941038	0.191940	0.049925
N57	N	0.378580	-0.308063	-0.450078
N58	N	0.878580	0.191937	0.049922
C59	C	0.346666	-0.303327	-0.380887
C60	C	0.846666	0.196673	0.119113
C61	C	0.577617	-0.343506	-0.431495
C62	C	1.077617	0.156494	0.068505
C63	C	0.643361	-0.343495	-0.431496
C64	C	1.143361	0.156505	0.068504
C65	C	0.643340	-0.263111	-0.330247
C66	C	1.143340	0.236889	0.169753
C67	C	0.577597	-0.263119	-0.330252
C68	C	1.077597	0.236881	0.169748
C69	C	0.544740	-0.303320	-0.380875
C70	C	1.044740	0.196680	0.119125
C71	C	0.909792	-0.467506	-0.380865
C72	C	1.409792	0.032494	0.119135
C73	C	0.909815	-0.537474	-0.380858
C74	C	1.409815	-0.037474	0.119142
C75	C	0.950092	-0.570352	-0.330306
C76	C	1.450092	-0.070352	0.169694
C77	C	0.950091	-0.636094	-0.330272
C78	C	1.450091	-0.136094	0.169728
C79	C	0.909820	-0.668956	-0.380804
C80	C	1.409820	-0.168956	0.119196
C81	C	0.869535	-0.636070	-0.431359
C82	C	1.369535	-0.136070	0.068641
C83	C	0.869532	-0.570329	-0.431386
C84	C	1.369532	-0.070329	0.068614
N85	N	0.904973	-0.772180	-0.449950
N86	N	1.404973	-0.272180	0.050050
N87	N	0.904979	-0.834631	-0.449922
N88	N	1.404979	-0.334631	0.050078
C89	C	0.909823	-0.867031	-0.380724
C90	C	1.409823	-0.367031	0.119276
N91	N	0.914674	-0.834620	-0.311553
N92	N	1.414674	-0.334620	0.188447
N93	N	0.914671	-0.772163	-0.311582
N94	N	1.414671	-0.272163	0.188418
C95	C	0.909817	-0.740242	-0.380780
C96	C	1.409817	-0.240242	0.119220
C97	C	0.950102	-0.971195	-0.330130
C98	C	1.450102	-0.471195	0.169870
C99	C	0.950096	-1.036939	-0.330095
C100	C	1.450096	-0.536939	0.169905
C101	C	0.869544	-1.036913	-0.431189
C102	C	1.369544	-0.536913	0.068811
C103	C	0.869546	-0.971170	-0.431217
C104	C	1.369546	-0.471170	0.068783
C105	C	0.909828	-0.938315	-0.380689
C106	C	1.409828	-0.438315	0.119311
C107	C	1.073930	-0.303334	-0.380904
C108	C	1.573930	0.196666	0.119096
C109	C	1.143898	-0.303342	-0.380913
C110	C	1.643898	0.196658	0.119087
C111	C	0.909687	-0.303304	-0.586248
C112	C	1.409687	0.196696	-0.086248
C113	C	0.909722	-0.303321	-0.674105
C114	C	1.409722	0.196679	-0.174105
C115	C	0.909724	-0.139764	-0.380842
C116	C	1.409724	0.360236	0.119158
C117	C	0.909824	-0.069796	-0.380626
C118	C	1.409824	0.430204	0.119374
C119	C	0.869550	-0.343568	-1.045601
C120	C	1.369550	0.156432	-0.545601
C121	C	0.950106	-0.263127	-1.045560
C122	C	1.450106	0.236873	-0.545560
C123	C	0.950084	-0.263121	-0.963014
C124	C	1.450084	0.236879	-0.463014
C125	C	0.909794	-0.303338	-0.921758
C126	C	1.409794	0.196662	-0.421758
C127	C	0.869525	-0.343562	-0.963047
C128	C	1.369525	0.156438	-0.463047
C129	C	0.990347	-0.222894	-0.921718
C130	C	1.490347	0.277106	-0.421718
C131	C	0.990326	-0.222886	-0.839167
C132	C	1.490326	0.277114	-0.339167
C133	C	0.950038	-0.263107	-0.797910
C134	C	1.450038	0.236893	-0.297910
C135	C	0.909769	-0.303333	-0.839204
C136	C	1.409769	0.196667	-0.339204
C137	C	0.869479	-0.343550	-0.797948
C138	C	1.369479	0.156450	-0.297948
C139	C	0.829212	-0.383779	-0.839241
C140	C	1.329212	0.116221	-0.339241
C141	C	0.829238	-0.383783	-0.921790
C142	C	1.329238	0.116217	-0.421790
C143	C	0.950013	-0.263103	-0.715361
C144	C	1.450013	0.236897	-0.215361
C145	C	0.869454	-0.343544	-0.715394
C146	C	1.369454	0.156456	-0.215394
C147	C	0.909810	-0.303340	-0.174714
C148	C	1.409810	0.196660	0.325286
C149	C	0.909840	-0.303350	-0.086857
C150	C	1.409840	0.196650	0.413143
H151	H	0.670128	-0.376221	-0.472717
H152	H	1.170128	0.123779	0.027283
H153	H	0.982904	-0.230380	-1.079156
H154	H	1.482904	0.269620	-0.579156
N155	N	1.031502	-0.181813	-0.963852
N156	N	1.531502	0.318187	-0.463852
N157	N	1.089584	-0.186029	-0.954580
N158	N	1.589584	0.313971	-0.454580
H159	H	1.118651	-0.157012	-0.984337
H160	H	1.618651	0.342988	-0.484337
N161	N	0.788066	-0.424860	-0.797082
N162	N	1.288066	0.075140	-0.297082
N163	N	0.810185	-0.464982	-0.750976
N164	N	1.310185	0.035018	-0.250976
H165	H	0.781127	-0.493994	-0.721197
H166	H	1.281127	0.006006	-0.221197
N167	N	0.991249	-1.070526	-0.278465
N168	N	1.491249	-0.570526	0.221535
N169	N	1.031350	-1.107229	-0.306271
N170	N	1.531350	-0.607229	0.193729
H171	H	1.060416	-1.130951	-0.269807
H172	H	1.560416	-0.630951	0.230193
H173	H	0.836731	-0.543560	-0.472551
H174	H	1.336731	-0.043560	0.027449
H175	H	0.796454	-0.416535	-0.955418
H176	H	1.296454	0.083465	-0.455418
N177	N	0.544060	-0.384571	-0.483208
N178	N	1.044060	0.115429	0.016792
N179	N	0.573425	-0.420449	-0.528402
N180	N	1.073425	0.079551	-0.028402
H181	H	0.549727	-0.449452	-0.564926
H182	H	1.049727	0.050548	-0.064926
N183	N	0.676911	-0.222056	-0.278544
N184	N	1.176911	0.277944	0.221456
N185	N	0.735608	-0.222055	-0.278547
N186	N	1.235608	0.277945	0.221453
H187	H	0.759321	-0.193057	-0.242033
H188	H	1.259321	0.306943	0.257967
N189	N	0.828429	-0.384660	-1.087787
N190	N	1.328429	0.115340	-0.587787
N191	N	0.828457	-0.384666	-1.161491
N192	N	1.328457	0.115334	-0.661491
H193	H	0.799416	-0.413688	-1.191287
H194	H	1.299416	0.086312	-0.691287
H195	H	0.269290	-0.376255	-0.472741
H196	H	0.769290	0.123745	0.027259
H197	H	0.550829	-0.230394	-0.289036
H198	H	1.050829	0.269606	0.210964
H199	H	0.836647	-0.376297	-0.681809
H200	H	1.336647	0.123703	-0.181809
H201	H	0.836748	-1.063668	-0.472325
H202	H	1.336748	-0.563668	0.027675
H203	H	1.023113	-0.190130	-0.805552
H204	H	1.523113	0.309870	-0.305552
H205	H	0.982892	-0.543605	-0.289161
H206	H	1.482892	-0.043605	0.210839
N207	N	0.991234	-0.669678	-0.278622
N208	N	1.491234	-0.169678	0.221378
N209	N	1.027192	-0.640336	-0.233508
N210	N	1.527192	-0.140336	0.266492
H211	H	1.056249	-0.664052	-0.197028
H212	H	1.556249	-0.164052	0.302972
N213	N	0.143171	-0.222098	-0.278572
N214	N	0.643171	0.277902	0.221428
N215	N	0.106512	-0.244320	-0.228244
N216	N	0.606512	0.255680	0.271756
H217	H	0.082792	-0.215335	-0.191713
H218	H	0.582792	0.284665	0.308287
H219	H	0.150026	-0.376264	-0.472750
H220	H	0.650026	0.123736	0.027250
H221	H	0.269259	-0.230413	-0.289065
H222	H	0.769259	0.269587	0.210935
N223	N	0.991137	-0.222006	-0.673194
N224	N	1.491137	0.277994	-0.173194
N225	N	1.027101	-0.186096	-0.710039
N226	N	1.527101	0.313904	-0.210039
H227	H	1.056148	-0.157068	-0.680260
H228	H	1.556148	0.342932	-0.180260
H229	H	0.836744	-0.662830	-0.472500
H230	H	1.336744	-0.162830	0.027500
H231	H	0.982898	-0.944443	-0.288983
H232	H	1.482898	-0.444443	0.211017
H233	H	0.836752	-0.944401	-0.472387
H234	H	1.336752	-0.444401	0.027613
