data_functionalizedCrystal
_audit_creation_method	'MofGen! by Chris Wilmer'
_symmetry_space_group_name_H-M	'P1'
_symmetry_Int_Tables_number	1
_symmetry_cell_setting	triclinic
loop_
_symmetry_equiv_pos_as_xyz
  x,y,z
_cell_length_a	10.540539
_cell_length_b	10.540539
_cell_length_c	16.053802
_cell_angle_alpha	92.593658
_cell_angle_beta	87.394910
_cell_angle_gamma	84.525492
loop_
_atom_site_label
_atom_site_type_symbol
_atom_site_fract_x
_atom_site_fract_y
_atom_site_fract_z
O1	O	1.691191	0.173607	-0.069386
O2	O	1.321779	0.190463	-0.069395
O3	O	1.514913	-0.002671	-0.069389
O4	O	1.498057	0.366741	-0.069392
O5	O	1.504282	0.007915	0.069469
O6	O	1.311148	0.201049	0.069463
O7	O	1.680560	0.184194	0.069473
Zn8	Zn	1.494166	0.194302	0.091515
Zn9	Zn	1.508173	0.180354	-0.091437
O10	O	1.487426	0.377328	0.069467
C11	C	1.269160	0.194492	0.000032
C12	C	1.128213	0.190709	0.000029
C13	C	0.944761	0.045817	0.000354
C14	C	1.091404	0.049626	0.000032
C15	C	1.072611	0.252559	-0.079264
C16	C	0.926071	0.247740	-0.079322
C17	C	0.913493	0.262649	0.078587
C18	C	1.060395	0.264028	0.079626
C19	C	1.508333	-0.044681	0.000038
C20	C	1.504552	-0.185630	0.000034
C21	C	1.359659	-0.369081	-0.000282
C22	C	1.363468	-0.222439	0.000031
C23	C	1.566376	-0.241242	0.079331
C24	C	1.561556	-0.387781	0.079397
C25	C	1.576515	-0.400338	-0.078511
C26	C	1.577895	-0.253436	-0.079559
C27	C	1.733179	0.180165	0.000043
C28	C	1.874127	0.183947	0.000042
C29	C	1.494006	0.419338	0.000037
C30	C	1.497788	0.560286	0.000036
N31	N	1.484616	0.203821	0.216375
N32	N	1.517733	0.170826	-0.216297
C33	C	1.566825	0.121672	0.260071
C34	C	1.560157	0.128342	0.347478
C35	C	1.471284	0.217169	0.391186
C36	C	1.389066	0.299321	0.347484
C37	C	1.395729	0.292644	0.260079
C38	C	1.442178	0.246301	0.652595
C39	C	1.435523	0.252975	0.740006
C40	C	1.606613	0.081993	0.739994
C41	C	1.613274	0.075329	0.652588
C42	C	1.531051	0.157477	0.608893
N43	N	1.464469	0.223992	0.480530
N44	N	1.537862	0.150647	0.519551
H45	H	0.911822	-0.005583	0.057219
H46	H	1.363149	0.325313	0.775589
H47	H	1.095189	0.355942	-0.082215
H48	H	1.375231	0.313192	0.617025
Br49	Br	1.718193	-0.029490	0.799298
H50	H	0.878377	0.348931	-0.082921
H51	H	0.866225	0.364593	0.079122
Br52	Br	1.733892	-0.045217	0.593268
H53	H	1.627097	0.061449	0.383055
Br54	Br	1.121003	0.188668	0.177398
H55	H	1.299825	-0.394977	0.056262
Br56	Br	0.901621	-0.053886	-0.093888
Br57	Br	1.730205	-0.467281	0.085408
H58	H	1.305311	-0.176342	0.056966
Br59	Br	1.168223	-0.046891	-0.095033
Br60	Br	0.886607	0.156572	-0.178111
Br61	Br	1.503289	-0.191967	-0.177350
Br62	Br	1.151118	0.166456	-0.177622
Br63	Br	0.853252	0.194184	0.178764
H64	H	1.316698	0.371642	0.383076
H65	H	1.328784	0.359537	0.224502
Br66	Br	1.100151	0.436082	0.087605
H67	H	1.314397	-0.184169	-0.056812
H68	H	1.308281	-0.402016	-0.057147
Br69	Br	1.470356	-0.427258	0.178188
H70	H	1.669758	-0.218663	0.082282
H71	H	1.514695	-0.194144	0.138338
Br72	Br	1.155184	-0.032193	0.094770
Br73	Br	1.508067	-0.460546	-0.178686
Br74	Br	1.749948	-0.213667	-0.087544
Br75	Br	1.746428	-0.479117	-0.079397
Br76	Br	1.687454	0.001124	0.200762
