data_functionalizedCrystal
_audit_creation_method	'MofGen! by Chris Wilmer'
_symmetry_space_group_name_H-M	'P1'
_symmetry_Int_Tables_number	1
_symmetry_cell_setting	triclinic
loop_
_symmetry_equiv_pos_as_xyz
  x,y,z
_cell_length_a	9.065218
_cell_length_b	13.596369
_cell_length_c	9.065218
_cell_angle_alpha	90.001486
_cell_angle_beta	94.984115
_cell_angle_gamma	90.006051
loop_
_atom_site_label
_atom_site_type_symbol
_atom_site_fract_x
_atom_site_fract_y
_atom_site_fract_z
O1	O	1.960406	0.081790	-0.216347
O2	O	1.531121	0.081791	-0.234094
O3	O	1.754636	0.081788	-0.010578
O4	O	1.736890	0.081792	-0.439863
O5	O	1.754609	-0.081795	-0.010590
O6	O	1.531093	-0.081792	-0.234106
O7	O	1.960378	-0.081793	-0.216359
Zn8	Zn	1.745731	-0.107765	-0.225234
Zn9	Zn	1.745768	0.107762	-0.225218
O10	O	1.736862	-0.081791	-0.439875
C11	C	1.476120	-0.000001	-0.232394
C12	C	1.312277	-0.000000	-0.227294
N13	N	1.745717	-0.254857	-0.225245
C14	C	1.745724	-0.343855	-0.225248
C15	C	1.745739	-0.455506	-0.225238
C16	C	1.745758	-0.544497	-0.225222
C17	C	1.745774	-0.656155	-0.225213
C18	C	2.015378	0.000000	-0.218059
C19	C	2.179221	0.000006	-0.223158
C20	C	1.752917	-0.000002	0.044403
C21	C	1.747817	0.000003	0.208245
N22	N	1.745793	0.254854	-0.225197
C23	C	1.738582	0.000001	-0.494855
C24	C	1.743681	0.000003	-0.658698
