data_functionalizedCrystal
_audit_creation_method	'MofGen! by Chris Wilmer'
_symmetry_space_group_name_H-M	'P1'
_symmetry_Int_Tables_number	1
_symmetry_cell_setting	triclinic
loop_
_symmetry_equiv_pos_as_xyz
  x,y,z
_cell_length_a	16.120530
_cell_length_b	16.120484
_cell_length_c	16.120297
_cell_angle_alpha	95.614431
_cell_angle_beta	89.871860
_cell_angle_gamma	89.832673
loop_
_atom_site_label
_atom_site_type_symbol
_atom_site_fract_x
_atom_site_fract_y
_atom_site_fract_z
Zn1	Zn	1.224987	0.422264	0.554813
Zn2	Zn	1.474987	0.672264	0.804813
Zn3	Zn	1.724987	0.922264	1.054813
Zn4	Zn	1.974987	1.172264	1.304813
Zn5	Zn	1.224883	0.554948	0.422118
Zn6	Zn	1.474883	0.804948	0.672118
Zn7	Zn	1.724883	1.054948	0.922118
Zn8	Zn	1.974883	1.304948	1.172118
Zn9	Zn	1.093726	0.408180	0.408056
Zn10	Zn	1.343726	0.658180	0.658056
Zn11	Zn	1.593726	0.908180	0.908056
Zn12	Zn	1.843726	1.158180	1.158056
Zn13	Zn	1.078880	0.554181	0.554051
Zn14	Zn	1.328880	0.804181	0.804051
Zn15	Zn	1.578880	1.054181	1.054051
Zn16	Zn	1.828880	1.304181	1.304051
O17	O	1.155619	0.484893	0.484760
O18	O	1.405619	0.734893	0.734760
O19	O	1.655619	0.984893	0.984760
O20	O	1.905619	1.234893	1.234760
O21	O	1.341009	0.446081	0.543415
O22	O	1.591009	0.696081	0.793415
O23	O	1.841009	0.946081	1.043415
O24	O	2.091009	1.196081	1.293415
O25	O	1.213654	0.529906	0.303620
O26	O	1.463654	0.779906	0.553620
O27	O	1.713654	1.029906	0.803620
O28	O	1.963654	1.279906	1.053620
O29	O	1.117395	0.293418	0.421958
O30	O	1.367395	0.543418	0.671958
O31	O	1.617395	0.793418	0.921958
O32	O	1.867395	1.043418	1.171958
O33	O	1.340932	0.543563	0.445925
O34	O	1.590932	0.793563	0.695925
O35	O	1.840932	1.043563	0.945925
O36	O	2.090932	1.293563	1.195925
O37	O	1.213832	0.303765	0.529780
O38	O	1.463832	0.553765	0.779780
O39	O	1.713832	0.803765	1.029780
O40	O	1.963832	1.053765	1.279780
O41	O	1.117294	0.422076	0.293289
O42	O	1.367294	0.672076	0.543289
O43	O	1.617294	0.922076	0.793289
O44	O	1.867294	1.172076	1.043289
O45	O	0.975721	0.421332	0.421218
O46	O	1.225721	0.671332	0.671218
O47	O	1.475721	0.921332	0.921218
O48	O	1.725721	1.171332	1.171218
O49	O	1.092092	0.542255	0.670785
O50	O	1.342092	0.792255	0.920785
O51	O	1.592092	1.042255	1.170785
O52	O	1.842092	1.292255	1.420785
O53	O	0.964814	0.528598	0.528480
O54	O	1.214814	0.778598	0.778480
O55	O	1.464814	1.028598	1.028480
O56	O	1.714814	1.278598	1.278480
O57	O	1.199436	0.445336	0.671345
O58	O	1.449436	0.695336	0.921345
O59	O	1.699436	0.945336	1.171345
O60	O	1.949436	1.195336	1.421345
O61	O	1.199258	0.671477	0.445185
O62	O	1.449258	0.921477	0.695185
O63	O	1.699258	1.171477	0.945185
O64	O	1.949258	1.421477	1.195185
O65	O	1.091990	0.670913	0.542116
O66	O	1.341990	0.920913	0.792116
O67	O	1.591990	1.170913	1.042116
O68	O	1.841990	1.420913	1.292116
C69	C	1.144023	0.701438	0.495113
C70	C	1.394023	0.951438	0.745113
C71	C	1.644023	1.201438	0.995113
C72	C	1.894023	1.451438	1.245113
C73	C	1.139137	0.794083	0.499574
C74	C	1.389137	1.044083	0.749574
C75	C	1.639137	1.294083	0.999574
C76	C	1.889137	1.544083	1.249574
C77	C	0.940181	0.473354	0.473241
C78	C	1.190181	0.723354	0.723241
C79	C	1.440181	0.973354	0.973241
C80	C	1.690181	1.223354	1.223241
C81	C	0.848013	0.468438	0.468334
C82	C	1.098013	0.718438	0.718334
C83	C	1.348013	0.968438	0.968334
C84	C	1.598013	1.218438	1.218334
C85	C	1.144119	0.495281	0.702152
C86	C	1.394119	0.745281	0.952152
C87	C	1.644119	0.995281	1.202152
C88	C	1.894119	1.245281	1.452152
C89	C	1.139219	0.499708	0.794791
C90	C	1.389219	0.749708	1.044791
C91	C	1.639219	0.999708	1.294791
C92	C	1.889219	1.249708	1.544791
C93	C	0.679262	0.459445	0.459381
C94	C	0.929262	0.709445	0.709381
C95	C	1.179262	0.959445	0.959381
C96	C	1.429262	1.209445	1.209381
C97	C	0.632810	0.510407	0.510202
C98	C	0.882810	0.760407	0.760202
C99	C	1.132810	1.010407	1.010202
C100	C	1.382810	1.260407	1.260202
C101	C	0.538911	0.505403	0.505220
C102	C	0.788911	0.755403	0.755220
C103	C	1.038911	1.005403	1.005220
C104	C	1.288911	1.255403	1.255220
C105	C	0.773169	0.464448	0.464361
C106	C	1.023169	0.714448	0.714361
C107	C	1.273169	0.964448	0.964361
C108	C	1.523169	1.214448	1.214361
C109	C	1.371899	0.496479	0.496324
C110	C	1.621899	0.746479	0.746324
C111	C	1.871899	0.996479	0.996324
C112	C	2.121899	1.246479	1.246324
C113	C	1.464064	0.501416	0.501252
C114	C	1.714064	0.751416	0.751252
C115	C	1.964064	1.001416	1.001252
C116	C	2.214064	1.251416	1.251252
C117	C	1.167282	0.267505	0.474385
C118	C	1.417282	0.517505	0.724385
C119	C	1.667282	0.767505	0.974385
C120	C	1.917282	1.017505	1.224385
C121	C	1.172251	0.174867	0.469964
C122	C	1.422251	0.424867	0.719964
C123	C	1.672251	0.674867	0.969964
C124	C	1.922251	0.924867	1.219964
C125	C	1.130220	0.963706	0.507736
C126	C	1.380220	1.213706	0.757736
C127	C	1.630220	1.463706	1.007736
C128	C	1.880220	1.713706	1.257736
C129	C	1.181166	1.005249	0.461804
C130	C	1.431166	1.255249	0.711804
C131	C	1.681166	1.505249	0.961804
C132	C	1.931166	1.755249	1.211804
C133	C	1.176204	1.099633	0.466346
C134	C	1.426204	1.349633	0.716346
C135	C	1.676204	1.599633	0.966346
C136	C	1.926204	1.849633	1.216346
C137	C	1.135180	0.869313	0.503196
C138	C	1.385180	1.119313	0.753196
C139	C	1.635180	1.369313	1.003196
C140	C	1.885180	1.619313	1.253196
C141	C	1.167125	0.474489	0.268213
C142	C	1.417125	0.724489	0.518213
C143	C	1.667125	0.974489	0.768213
C144	C	1.917125	1.224489	1.018213
C145	C	1.172198	0.469836	0.175571
C146	C	1.422198	0.719836	0.425571
C147	C	1.672198	0.969836	0.675571
C148	C	1.922198	1.219836	0.925571
C149	C	1.130243	0.507770	0.964403
C150	C	1.380243	0.757770	1.214403
C151	C	1.630243	1.007770	1.464403
C152	C	1.880243	1.257770	1.714403
C153	C	1.181172	0.461776	1.005965
C154	C	1.431172	0.711776	1.255965
C155	C	1.681172	0.961776	1.505965
C156	C	1.931172	1.211776	1.755965
C157	C	1.176177	0.466262	1.100342
C158	C	1.426177	0.716262	1.350342
C159	C	1.676177	0.966262	1.600342
C160	C	1.926177	1.216262	1.850342
C161	C	1.135236	0.503285	0.870017
C162	C	1.385236	0.753285	1.120017
C163	C	1.635236	1.003285	1.370017
C164	C	1.885236	1.253285	1.620017
H165	H	0.648511	0.412060	0.412135
H166	H	0.898511	0.662060	0.662135
H167	H	1.148511	0.912060	0.912135
H168	H	1.398511	1.162060	1.162135
C169	C	1.245099	0.957541	0.404048
C170	C	1.495099	1.207541	0.654048
C171	C	1.745099	1.457541	0.904048
C172	C	1.995099	1.707541	1.154048
H173	H	1.240076	0.899442	0.408518
H174	H	1.490076	1.149442	0.658518
H175	H	1.740076	1.399442	0.908518
H176	H	1.990076	1.649442	1.158518
H177	H	1.299436	0.975254	0.419912
H178	H	1.549436	1.225254	0.669912
H179	H	1.799436	1.475254	0.919912
H180	H	2.049436	1.725254	1.169912
H181	H	1.235208	0.968482	0.348068
H182	H	1.485208	1.218482	0.598068
H183	H	1.735208	1.468482	0.848068
H184	H	1.985208	1.718482	1.098068
H185	H	1.082881	0.999022	0.550467
H186	H	1.332881	1.249022	0.800467
H187	H	1.582881	1.499022	1.050467
H188	H	1.832881	1.749022	1.300467
H189	H	1.228524	0.419031	0.970668
H190	H	1.478524	0.669031	1.220668
H191	H	1.728524	0.919031	1.470668
H192	H	1.978524	1.169031	1.720668
C193	C	1.066284	0.565518	1.012081
C194	C	1.316284	0.815518	1.262081
C195	C	1.566284	1.065518	1.512081
C196	C	1.816284	1.315518	1.762081
H197	H	1.071286	0.560999	1.070178
H198	H	1.321286	0.810999	1.320178
H199	H	1.571286	1.060999	1.570178
H200	H	1.821286	1.310999	1.820178
H201	H	1.011959	0.549684	0.994300
H202	H	1.261959	0.799684	1.244300
H203	H	1.511959	1.049684	1.494300
H204	H	1.761959	1.299684	1.744300
H205	H	1.076165	0.621507	1.001196
H206	H	1.326165	0.871507	1.251196
H207	H	1.576165	1.121507	1.501196
H208	H	1.826165	1.371507	1.751196
H209	H	0.663563	0.557794	0.557453
H210	H	0.913563	0.807794	0.807453
H211	H	1.163563	1.057794	1.057453
H212	H	1.413563	1.307794	1.307453
