data_functionalizedCrystal
_audit_creation_method	'MofGen! by Chris Wilmer'
_symmetry_space_group_name_H-M	'P1'
_symmetry_Int_Tables_number	1
_symmetry_cell_setting	triclinic
loop_
_symmetry_equiv_pos_as_xyz
  x,y,z
_cell_length_a	17.666332
_cell_length_b	14.519709
_cell_length_c	14.519709
_cell_angle_alpha	83.680145
_cell_angle_beta	89.991285
_cell_angle_gamma	90.006446
loop_
_atom_site_label
_atom_site_type_symbol
_atom_site_fract_x
_atom_site_fract_y
_atom_site_fract_z
O1	O	0.062851	-1.223860	-0.120896
O2	O	0.062875	-0.955383	-0.135133
O3	O	0.062856	-1.096740	0.006224
O4	O	0.062871	-1.082503	-0.262253
O5	O	-0.063041	-1.096743	0.006238
O6	O	-0.063022	-0.955386	-0.135118
O7	O	-0.063045	-1.223863	-0.120882
Cu8	Cu	-0.074529	-1.089625	-0.127999
Cu9	Cu	0.074358	-1.089621	-0.128016
O10	O	-0.063026	-1.082506	-0.262239
C11	C	-0.000071	-0.921025	-0.134462
C12	C	-0.000062	-0.818643	-0.132474
N13	N	-0.179248	-1.089634	-0.127987
N14	N	0.179078	-1.089619	-0.128021
C15	C	0.218679	-1.152324	-0.065551
C16	C	0.297927	-1.152332	-0.065549
C17	C	0.337570	-1.089620	-0.128009
C18	C	0.297959	-1.026910	-0.190490
C19	C	0.218713	-1.026909	-0.190496
N20	N	0.462003	-1.008035	-0.139415
N21	N	0.537283	-1.008039	-0.139404
C22	C	0.576334	-1.089618	-0.127996
N23	N	0.537260	-1.171197	-0.116581
N24	N	0.461973	-1.171193	-0.116587
C25	C	0.423499	-1.089613	-0.128009
C26	C	0.701865	-1.152337	-0.065521
C27	C	0.781114	-1.152347	-0.065526
C28	C	0.781145	-1.026916	-0.190462
C29	C	0.701897	-1.026914	-0.190462
C30	C	0.662262	-1.089624	-0.127986
C31	C	-0.000093	-1.096078	0.040591
C32	C	-0.000093	-1.094090	0.142972
C33	C	-0.000098	-1.258221	-0.121553
C34	C	-0.000102	-1.360602	-0.123541
C35	C	-0.000097	-0.443748	-0.125154
C36	C	-0.000087	-0.548056	-0.127187
C37	C	-0.000079	-0.631192	-0.128814
C38	C	-0.000070	-0.735507	-0.130847
C39	C	-0.000076	-1.083168	-0.296605
C40	C	-0.000071	-1.085156	-0.398987
C41	C	-0.000073	-1.086770	0.517868
C42	C	-0.000079	-1.088803	0.413560
C43	C	-0.000084	-1.090430	0.330423
C44	C	-0.000088	-1.092463	0.226109
H45	H	0.330176	-1.203396	-0.014677
O46	O	0.340710	-0.959250	-0.257843
H47	H	0.402469	-0.969772	-0.247332
O48	O	0.175988	-0.959278	-0.257875
H49	H	0.139893	-0.998090	-0.302863
O50	O	0.659106	-1.219982	0.001846
H51	H	0.699961	-1.263600	0.045275
H52	H	0.186410	-1.203388	-0.014682
H53	H	0.813358	-1.203413	-0.014658
H54	H	0.813422	-0.975857	-0.241321
O55	O	0.659176	-0.959304	-0.257861
H56	H	0.700053	-0.915701	-0.301301
