data_functionalizedCrystal
_audit_creation_method	'MofGen! by Chris Wilmer'
_symmetry_space_group_name_H-M	'P1'
_symmetry_Int_Tables_number	1
_symmetry_cell_setting	triclinic
loop_
_symmetry_equiv_pos_as_xyz
  x,y,z
_cell_length_a	19.188905
_cell_length_b	19.188924
_cell_length_c	17.666332
_cell_angle_alpha	89.991448
_cell_angle_beta	89.983521
_cell_angle_gamma	83.138260
loop_
_atom_site_label
_atom_site_type_symbol
_atom_site_fract_x
_atom_site_fract_y
_atom_site_fract_z
O1	O	0.926159	0.087086	-0.063076
O2	O	0.722845	0.098838	-0.063051
O3	O	0.830371	-0.008694	-0.063056
O4	O	0.818632	0.194619	-0.063072
O5	O	0.830352	-0.008700	0.062841
O6	O	0.722826	0.098833	0.062846
O7	O	0.926140	0.087080	0.062820
Cu8	Cu	0.824481	0.092956	0.074328
Cu9	Cu	0.824503	0.092963	-0.074559
O10	O	0.818613	0.194613	0.062825
C11	C	0.696824	0.098458	-0.000099
C12	C	0.619318	0.097324	-0.000089
C13	C	0.582937	0.096783	-0.068718
C14	C	0.510113	0.095710	-0.068727
C15	C	0.473676	0.095164	-0.000104
C16	C	0.510066	0.095710	0.068533
C17	C	0.582887	0.096790	0.068541
N18	N	0.364649	0.053733	0.050969
N19	N	0.295472	0.052706	0.050957
C20	C	0.254269	0.091911	-0.000122
N21	N	0.284858	0.132175	-0.051201
N22	N	0.354042	0.133199	-0.051191
C23	C	0.394713	0.093993	-0.000104
C24	C	0.138924	0.090207	-0.068765
C25	C	0.066098	0.089139	-0.068772
C26	C	0.066053	0.089132	0.068491
C27	C	0.138876	0.090207	0.068495
C28	C	0.175308	0.090742	-0.000135
C29	C	0.829982	-0.034708	-0.000106
C30	C	0.828844	-0.112213	-0.000104
C31	C	0.828322	-0.148609	-0.068731
C32	C	0.827243	-0.221431	-0.068736
C33	C	0.826698	-0.257857	-0.000112
C34	C	0.827215	-0.221452	0.068524
C35	C	0.828288	-0.148630	0.068528
N36	N	0.864739	-0.377526	0.050959
N37	N	0.863721	-0.446704	0.050951
C38	C	0.823464	-0.477266	-0.000119
N39	N	0.784272	-0.436037	-0.051191
N40	N	0.785293	-0.366853	-0.051185
C41	C	0.825534	-0.336821	-0.000108
C42	C	0.821771	-0.592624	-0.068756
C43	C	0.820686	-0.665448	-0.068759
C44	C	0.820666	-0.665468	0.068504
C45	C	0.821743	-0.592645	0.068504
C46	C	0.822299	-0.556228	-0.000127
C47	C	0.952160	0.087461	-0.000133
C48	C	1.029666	0.088594	-0.000148
C49	C	0.819002	0.220627	-0.000126
C50	C	0.820141	0.298132	-0.000133
N51	N	0.824471	0.092951	0.179048
N52	N	0.824519	0.092962	-0.179279
C53	C	0.872099	0.045358	0.218656
C54	C	0.872103	0.045355	0.297903
C55	C	0.824485	0.092956	0.337540
C56	C	0.776848	0.140552	0.297923
C57	C	0.776841	0.140549	0.218677
N58	N	0.815407	0.154764	0.461954
N59	N	0.815419	0.154765	0.537235
C60	C	0.824504	0.092966	0.576304
N61	N	0.833591	0.031165	0.537249
N62	N	0.833583	0.031165	0.461961
C63	C	0.824488	0.092964	0.423469
C64	C	0.872139	0.045366	0.701841
C65	C	0.872138	0.045362	0.781090
C66	C	0.776887	0.140565	0.781108
C67	C	0.776884	0.140563	0.701861
C68	C	0.824514	0.092964	0.662232
H69	H	0.036386	0.088692	0.124365
O70	O	0.826627	-0.256715	-0.135445
C71	C	0.766424	-0.230828	-0.177169
H72	H	0.747059	-0.175249	-0.157664
H73	H	0.780052	-0.230168	-0.239958
H74	H	0.723480	-0.266132	-0.167625
O75	O	0.918339	-0.000974	0.336309
C76	C	0.907197	-0.070065	0.316984
H77	H	0.880287	-0.069918	0.259454
H78	H	0.959786	-0.104584	0.314268
H79	H	0.872512	-0.091563	0.361602
O80	O	0.174207	0.090600	0.135182
C81	C	0.164487	0.029886	0.176941
H82	H	0.150147	-0.012663	0.136786
H83	H	0.215086	0.010301	0.208078
H84	H	0.120370	0.042925	0.219727
H85	H	0.612508	0.097231	0.124428
O86	O	0.826591	-0.256896	0.135139
C87	C	0.765506	-0.290907	0.139256
H88	H	0.745202	-0.299109	0.079671
H89	H	0.778343	-0.343941	0.168300
H90	H	0.723578	-0.257175	0.173126
H91	H	0.820258	-0.695079	-0.124645
O92	O	0.828687	-0.113171	-0.135372
C93	C	0.768800	-0.063010	-0.139431
H94	H	0.748866	-0.049382	-0.079823
H95	H	0.783073	-0.013622	-0.168551
H96	H	0.726037	-0.085462	-0.173199
O97	O	0.474764	0.095085	0.135242
C98	C	0.500639	0.034883	0.176991
H99	H	0.556222	0.015515	0.157484
H100	H	0.501286	0.048515	0.239773
H101	H	0.465336	-0.008060	0.167477
O102	O	0.918379	-0.000968	0.819483
C103	C	0.907243	-0.070059	0.800149
H104	H	0.880326	-0.069907	0.742622
H105	H	0.959835	-0.104572	0.797421
H106	H	0.872566	-0.091568	0.844767
H107	H	0.828710	-0.118997	0.124413
O108	O	0.918508	-0.000757	0.663331
C109	C	0.961446	0.036561	0.617491
H110	H	0.962389	0.091631	0.641363
H111	H	1.017048	0.007977	0.616623
H112	H	0.939623	0.040252	0.557421
H113	H	0.168587	0.090650	-0.124648
O114	O	0.822270	-0.557346	-0.135489
C115	C	0.821588	-0.605091	-0.196064
H116	H	0.798718	-0.654043	-0.175944
H117	H	0.788015	-0.579501	-0.244056
H118	H	0.877478	-0.620338	-0.217175
O119	O	0.030867	0.088583	-0.135509
C120	C	0.078640	0.089303	-0.196077
H121	H	0.133504	0.067972	-0.175948
H122	H	0.062158	0.055098	-0.244071
H123	H	0.078887	0.145417	-0.217189
O124	O	0.820029	-0.700899	0.135123
C125	C	0.758935	-0.734897	0.139234
H126	H	0.738640	-0.743104	0.079647
H127	H	0.771757	-0.787928	0.168289
H128	H	0.717007	-0.701153	0.173091
O129	O	0.822291	-0.557400	0.135237
C130	C	0.821562	-0.605161	0.195808
H131	H	0.842896	-0.660029	0.175682
H132	H	0.855759	-0.588670	0.243800
H133	H	0.765444	-0.605403	0.216920
O134	O	0.918168	-0.001097	0.180193
C135	C	0.880735	-0.044071	0.134561
H136	H	0.826107	-0.015953	0.122594
H137	H	0.909898	-0.055495	0.078870
H138	H	0.875929	-0.095513	0.165317
O139	O	0.730565	0.186696	0.336507
C140	C	0.687606	0.149414	0.382360
H141	H	0.715587	0.094708	0.394231
H142	H	0.676476	0.178587	0.438085
H143	H	0.636017	0.144799	0.351845
H144	H	0.738055	0.179305	0.186427
H145	H	0.612595	0.097218	-0.124602
H146	H	0.738113	0.179320	0.813380
H147	H	0.738104	0.179320	0.669610
H148	H	0.480485	0.095270	-0.124614
