data_functionalizedCrystal
_audit_creation_method	'MofGen! by Chris Wilmer'
_symmetry_space_group_name_H-M	'P1'
_symmetry_Int_Tables_number	1
_symmetry_cell_setting	triclinic
loop_
_symmetry_equiv_pos_as_xyz
  x,y,z
_cell_length_a	27.440280
_cell_length_b	20.016444
_cell_length_c	20.016444
_cell_angle_alpha	89.999974
_cell_angle_beta	59.996121
_cell_angle_gamma	60.006085
loop_
_atom_site_label
_atom_site_type_symbol
_atom_site_fract_x
_atom_site_fract_y
_atom_site_fract_z
Zr1	Zr	0.533376	0.643702	-0.087634
O2	O	0.635043	0.537045	-0.194315
O3	O	0.431712	0.676386	-0.054932
O4	O	0.533378	0.676406	-0.194310
O5	O	0.533374	0.537024	0.055007
O6	O	0.533375	0.786350	-0.194304
O7	O	0.533378	0.537025	-0.054937
O8	O	0.351514	0.786315	0.055017
O9	O	0.715235	0.537059	-0.194313
O10	O	0.473524	0.772391	-0.040980
O11	O	0.473524	0.690339	0.041067
O12	O	0.593222	0.690363	-0.123032
O13	O	0.593222	0.608311	-0.040986
Zr14	Zr	0.533366	0.819049	0.087723
Zr15	Zr	0.533371	0.819051	-0.087626
Zr16	Zr	0.533371	0.643700	0.087715
Zr17	Zr	0.661273	0.643725	-0.087632
Zr18	Zr	0.405469	0.819026	0.087721
O19	O	0.635030	0.786365	0.055021
O20	O	0.635037	0.786368	-0.194302
O21	O	0.635036	0.537042	0.055009
O22	O	0.431699	0.925706	0.194404
O23	O	0.431706	0.925709	-0.054920
O24	O	0.431705	0.676383	0.194392
O25	O	0.533368	0.925727	-0.054918
O26	O	0.533364	0.786345	0.194399
O27	O	0.533367	0.676401	0.194393
O28	O	0.533364	0.925726	0.055026
O29	O	0.715232	0.676438	-0.194307
O30	O	0.351510	0.786313	0.194396
O31	O	0.351507	0.925692	0.194402
O32	O	0.351510	0.925694	0.055023
O33	O	0.715232	0.537057	-0.054934
O34	O	0.715228	0.676436	-0.054928
O35	O	0.473520	0.772389	0.123121
O36	O	0.473520	0.854440	0.041075
O37	O	0.593218	0.772412	-0.040978
O38	O	0.593218	0.690360	0.041069
C39	C	0.373390	0.731347	0.000042
C40	C	0.319095	0.731338	0.000041
C41	C	-0.017647	0.774228	-0.042776
C42	C	-0.068671	0.774236	-0.042773
O43	O	-0.095077	0.810686	-0.079171
N44	N	-0.094187	0.731405	0.000052
C45	C	-0.068682	0.688571	0.042885
O46	O	-0.095071	0.652141	0.079313
C47	C	-0.017663	0.688569	0.042887
C48	C	0.007856	0.731395	0.000052
C49	C	0.007871	0.817052	-0.085607
C50	C	0.058892	0.817043	-0.085610
C51	C	0.084395	0.774211	-0.042782
C52	C	0.058877	0.731387	0.000049
C53	C	0.007838	0.645740	0.085725
C54	C	0.058861	0.645742	0.085724
C55	C	0.084379	0.688569	0.042888
C56	C	0.135402	0.688545	0.042873
N57	N	0.160918	0.731376	0.000048
C58	C	0.135415	0.774208	-0.042780
C59	C	-0.175827	0.688580	0.042879
C60	C	-0.226842	0.688577	0.042873
C61	C	-0.226829	0.774243	-0.042785
C62	C	-0.175809	0.774241	-0.042783
C63	C	-0.150311	0.731411	0.000053
C64	C	0.242564	0.774186	-0.042784
C65	C	0.293591	0.774170	-0.042787
C66	C	0.293571	0.688508	0.042874
C67	C	0.242550	0.688520	0.042873
C68	C	0.217046	0.731365	0.000042
O69	O	0.161838	0.652116	0.079255
O70	O	0.161804	0.810641	-0.079193
C71	C	0.533377	0.512041	0.000034
C72	C	0.533379	0.437601	0.000030
C73	C	0.533372	0.266346	-0.060527
C74	C	0.533368	0.196406	-0.060522
C75	C	0.533368	0.196411	0.060622
C76	C	0.533367	0.266354	0.060619
C77	C	0.533373	0.301317	0.000040
C78	C	0.533369	0.161434	0.000049
C79	C	0.533364	0.085602	0.000055
C80	C	0.533376	0.377155	0.000034
C81	C	0.693351	0.731404	0.000047
C82	C	0.747647	0.731413	0.000048
C83	C	0.533377	0.731378	-0.219290
C84	C	0.533379	0.731379	-0.293731
C85	C	0.533365	0.950710	0.000055
C86	C	0.533363	1.025150	0.000059
C87	C	0.533369	0.791948	-0.464983
C88	C	0.533364	0.791948	-0.534923
C89	C	0.533371	0.670800	-0.534922
C90	C	0.533371	0.670803	-0.464979
C91	C	0.533373	0.731377	-0.430014
C92	C	0.533369	0.731374	-0.569897
C93	C	0.533364	0.731374	-0.645729
C94	C	0.533377	0.731378	-0.354177
C95	C	0.533365	0.731373	0.219379
C96	C	0.533363	0.731372	0.293820
C97	C	0.373385	0.950682	0.000053
C98	C	0.319087	1.025112	0.000055
C99	C	0.373384	0.731344	0.219377
C100	C	0.319086	0.731334	0.293816
C101	C	0.373379	0.950679	0.219388
C102	C	0.319079	1.025108	0.293831
C103	C	0.693363	0.512072	-0.219298
C104	C	0.747663	0.437643	-0.293741
C105	C	0.693357	0.512069	0.000036
C106	C	0.747655	0.437639	0.000034
C107	C	0.693358	0.731407	-0.219288
C108	C	0.747656	0.731417	-0.293727
C109	C	0.293590	1.017237	-0.042782
C110	C	0.242579	1.087165	-0.042796
C111	C	0.217061	1.164969	0.000033
C112	C	0.242563	1.172843	0.042872
C113	C	0.293577	1.102915	0.042881
C114	C	0.293585	0.774158	0.371613
C115	C	0.242574	0.774145	0.441563
C116	C	0.217061	0.731312	0.433715
C117	C	0.242567	0.688483	0.355910
C118	C	0.293581	0.688492	0.285962
C119	C	0.293579	1.102899	0.285962
C120	C	0.242566	1.172840	0.355903
C121	C	0.217049	1.164989	0.433711
C122	C	0.242554	1.087191	0.441577
C123	C	0.293570	1.017251	0.371637
C124	C	0.773169	0.359852	-0.285873
C125	C	0.824198	0.289911	-0.355814
C126	C	0.849717	0.297762	-0.433622
C127	C	0.824209	0.375560	-0.441488
C128	C	0.773184	0.445500	-0.371548
C129	C	0.773157	0.445514	0.042864
C130	C	0.824182	0.375586	0.042858
C131	C	0.849702	0.297782	0.000027
C132	C	0.824198	0.289908	-0.042809
C133	C	0.773177	0.359836	-0.042808
C134	C	0.773152	0.774258	-0.285853
C135	C	0.824164	0.774284	-0.355790
C136	C	0.849682	0.731464	-0.433600
C137	C	0.824180	0.688621	-0.441473
C138	C	0.773166	0.688601	-0.371537
H139	H	-0.012891	0.851936	-0.120481
H140	H	0.752394	0.353444	-0.222525
C141	C	0.881130	0.174251	-0.510474
C142	C	0.905799	0.220878	-0.510496
H143	H	0.915750	0.126787	-0.557934
H144	H	0.869585	0.158450	-0.463010
H145	H	0.841329	0.205892	-0.510477
H146	H	0.945597	0.189239	-0.510487
H147	H	0.917353	0.236677	-0.557972
H148	H	0.175522	1.221902	0.000020
H149	H	0.844965	0.653758	-0.504835
H150	H	0.533360	0.841271	-0.563392
H151	H	0.314347	1.109307	0.222614
C152	C	0.185167	1.035724	0.536142
C153	C	0.214506	1.078562	0.527105
H154	H	0.167854	1.030393	0.588942
H155	H	0.148549	1.064781	0.530005
H156	H	0.219206	0.982937	0.495613
H157	H	0.180465	1.131351	0.567630
H158	H	0.251128	1.049505	0.533250
C159	C	-0.221705	0.858927	-0.127457
C160	C	-0.254871	0.821332	-0.089859
H161	H	-0.239016	0.887990	-0.156520
H162	H	-0.230065	0.895885	-0.086929
H163	H	-0.173539	0.818397	-0.164430
H164	H	-0.303037	0.861863	-0.052882
H165	H	-0.246516	0.784371	-0.130392
H166	H	0.844923	0.809170	-0.349364
H167	H	-0.155035	0.809114	-0.077663
H168	H	0.533375	0.294812	-0.109854
C169	C	0.533376	0.089192	0.114413
C170	C	0.533371	0.157971	0.127203
H171	H	0.533383	0.065459	0.155515
H172	H	0.493406	0.105122	0.116933
H173	H	0.573350	0.050342	0.062121
H174	H	0.493394	0.196824	0.179493
H175	H	0.573344	0.142043	0.124691
C176	C	0.819036	0.212290	-0.264088
C177	C	0.852223	0.204402	-0.347153
H178	H	0.836333	0.159501	-0.258742
H179	H	0.827394	0.241355	-0.238586
H180	H	0.770872	0.241353	-0.238605
H181	H	0.900387	0.175344	-0.372635
H182	H	0.843870	0.175324	-0.372666
H183	H	0.752384	0.809127	-0.222502
C184	C	0.143974	1.311807	0.487237
C185	C	0.160966	1.241873	0.510585
H186	H	0.109346	1.359272	0.534695
H187	H	0.183780	1.311800	0.455603
H188	H	0.127261	1.311781	0.455590
H189	H	0.177684	1.241896	0.542228
H190	H	0.121152	1.241880	0.542233
C191	C	0.474450	0.215255	-0.123390
C192	C	0.533370	0.157966	-0.127103
H193	H	0.474454	0.191524	-0.164500
H194	H	0.434484	0.231179	-0.071108
H195	H	0.474459	0.261909	-0.132060
H196	H	0.533357	0.111314	-0.118427
H197	H	0.573345	0.142030	-0.179398
C198	C	0.185154	1.267394	0.173017
C199	C	0.214500	1.258370	0.089960
H200	H	0.167828	1.320196	0.202089
H201	H	0.148545	1.261235	0.194145
H202	H	0.219194	1.226880	0.179145
H203	H	0.180459	1.298881	0.083831
H204	H	0.251113	1.264538	0.068826
H205	H	0.175522	0.731312	0.490678
H206	H	0.844993	0.381943	-0.504847
H207	H	0.221812	0.809024	0.504908
C208	C	0.964464	0.174306	-0.080407
C209	C	0.905788	0.220924	0.000031
H210	H	0.999090	0.126864	-0.080400
H211	H	0.952932	0.158470	-0.112039
H212	H	0.981169	0.205968	-0.103330
H213	H	0.889079	0.189265	0.022952
H214	H	0.917320	0.236760	0.031674
H215	H	0.314325	0.953914	0.378055
C216	C	0.778318	0.523117	-0.463272
C217	C	0.745143	0.531007	-0.380206
H218	H	0.761005	0.575905	-0.468619
H219	H	0.826476	0.494072	-0.488761
H220	H	0.769962	0.494033	-0.488767
H221	H	0.753503	0.560086	-0.354712
H222	H	0.696974	0.560064	-0.354707
H223	H	0.221787	0.653610	0.349533
C224	C	0.839913	0.161565	-0.035358
C225	C	0.852247	0.204382	-0.089879
H226	H	0.857225	0.108766	-0.064414
H227	H	0.862402	0.156258	-0.009856
H228	H	0.791744	0.190630	0.005165
H229	H	0.900417	0.175320	-0.130399
H230	H	0.829760	0.209686	-0.115394
H231	H	0.314330	1.109339	0.077769
C232	C	0.778284	0.523159	0.127532
C233	C	0.745114	0.531031	0.089948
H234	H	0.760977	0.575952	0.156595
H235	H	0.769923	0.494095	0.164494
H236	H	0.826450	0.494101	0.086989
H237	H	0.696949	0.560083	0.130491
H238	H	0.753470	0.560107	0.052983
H239	H	0.891222	0.731487	-0.490540
C240	C	0.474416	0.935591	-0.403077
C241	C	0.533350	0.858553	-0.426550
H242	H	0.474399	0.976717	-0.379349
H243	H	0.474424	0.944231	-0.449740
H244	H	0.434456	0.938075	-0.364210
H245	H	0.573311	0.856068	-0.465422
H246	H	0.533348	0.849911	-0.379881
C247	C	0.839873	0.346646	0.149689
C248	C	0.852200	0.384254	0.089958
H249	H	0.857172	0.351997	0.178764
H250	H	0.791713	0.372131	0.186642
H251	H	0.862386	0.290301	0.124166
H252	H	0.829683	0.440601	0.115482
H253	H	0.900370	0.358772	0.053000
H254	H	0.221805	1.236180	0.349483
H255	H	0.533366	0.294830	0.109945
H256	H	0.533370	0.621481	-0.563398
H257	H	0.221803	0.809075	-0.077660
H258	H	0.752414	0.353412	-0.077683
C259	C	0.185211	1.035659	-0.058673
C260	C	0.214547	1.078498	-0.089877
H261	H	0.167903	1.030312	-0.087736
H262	H	0.219244	0.982888	-0.064795
H263	H	0.148583	1.064734	-0.002327
H264	H	0.251179	1.049419	-0.146223
H265	H	0.180511	1.131277	-0.083763
C266	C	0.695013	0.650470	-0.302389
C267	C	0.745170	0.641468	-0.380199
H268	H	0.677736	0.621366	-0.307744
H269	H	0.714916	0.629346	-0.273331
H270	H	0.658366	0.706805	-0.273329
H271	H	0.781820	0.585133	-0.409258
H272	H	0.725268	0.662589	-0.409270
H273	H	0.533372	0.621479	-0.436505
H274	H	0.314366	0.953892	-0.077669
H275	H	0.314368	0.809044	-0.077671
C276	C	0.226812	0.581689	0.035566
C277	C	0.214514	0.641450	0.090002
H278	H	0.209510	0.552635	0.064682
H279	H	0.204294	0.607172	0.010086
H280	H	0.274976	0.544722	-0.004980
H281	H	0.166350	0.678420	0.130545
H282	H	0.237030	0.615966	0.115495
H283	H	0.079664	0.851919	-0.120487
C284	C	0.350974	0.790028	0.423075
C285	C	0.321634	0.821230	0.380247
H286	H	0.368296	0.819082	0.428404
H287	H	0.316940	0.796155	0.475859
H288	H	0.387594	0.733685	0.393997
H289	H	0.285011	0.877571	0.409328
H290	H	0.355671	0.815110	0.327454
C291	C	-0.284226	0.672692	0.173012
C292	C	-0.254894	0.641505	0.089958
H293	H	-0.301551	0.643639	0.202085
H294	H	-0.250187	0.666551	0.179129
H295	H	-0.320842	0.729037	0.194149
H296	H	-0.218275	0.585161	0.068819
H297	H	-0.288937	0.647638	0.083836
C298	C	0.288425	0.603840	0.208343
C299	C	0.321600	0.641427	0.200448
H300	H	0.305718	0.574787	0.155550
H301	H	0.296798	0.566872	0.237396
H302	H	0.240258	0.644373	0.237426
H303	H	0.369766	0.600893	0.171370
H304	H	0.313232	0.678398	0.171383
C305	C	0.371774	0.650482	0.080908
C306	C	0.321607	0.641433	0.089955
H307	H	0.389076	0.621428	0.109983
H308	H	0.408397	0.629329	0.024565
H309	H	0.351868	0.706829	0.102054
H310	H	0.341515	0.585087	0.068803
H311	H	0.284977	0.662583	0.146309
C312	C	-0.160122	0.695971	0.149705
C313	C	-0.147794	0.641485	0.089958
H314	H	-0.142820	0.666895	0.178771
H315	H	-0.137619	0.721468	0.124203
H316	H	-0.208289	0.736493	0.186670
H317	H	-0.099625	0.600965	0.052989
H318	H	-0.170294	0.615974	0.115461
C319	C	0.013016	0.561005	0.170330
C320	C	-0.020167	0.598613	0.132762
H321	H	-0.004266	0.531899	0.199359
H322	H	0.061177	0.524084	0.129790
H323	H	0.004628	0.601533	0.207330
H324	H	-0.011775	0.558085	0.095757
H325	H	-0.068340	0.635537	0.173307
H326	H	0.079620	0.610862	0.120606
