data_functionalizedCrystal
_audit_creation_method	'MofGen! by Chris Wilmer'
_symmetry_space_group_name_H-M	'P1'
_symmetry_Int_Tables_number	1
_symmetry_cell_setting	triclinic
loop_
_symmetry_equiv_pos_as_xyz
  x,y,z
_cell_length_a	19.288864
_cell_length_b	14.519709
_cell_length_c	18.366186
_cell_angle_alpha	89.992822
_cell_angle_beta	89.977106
_cell_angle_gamma	83.408195
loop_
_atom_site_label
_atom_site_type_symbol
_atom_site_fract_x
_atom_site_fract_y
_atom_site_fract_z
O1	O	0.921767	0.115045	-0.060785
O2	O	0.719562	0.130564	-0.060735
O3	O	0.826026	-0.011468	-0.060755
O4	O	0.815303	0.257077	-0.060765
O5	O	0.826007	-0.011475	0.060345
O6	O	0.719544	0.130557	0.060364
O7	O	0.921749	0.115038	0.060315
Zn8	Zn	0.820643	0.122797	0.079567
Zn9	Zn	0.820667	0.122806	-0.079987
O10	O	0.815285	0.257070	0.060334
C11	C	0.693675	0.130061	-0.000179
C12	C	0.616566	0.128562	-0.000160
C13	C	0.572169	0.211900	-0.000175
C14	C	0.499717	0.210492	-0.000183
C15	C	0.471665	0.125741	-0.000191
C16	C	0.516071	0.042392	-0.000172
C17	C	0.588521	0.043803	-0.000156
C18	C	0.363169	0.059120	-0.042639
C19	C	0.290720	0.057713	-0.042659
C20	C	0.248203	0.121387	-0.000234
C21	C	0.278144	0.186484	0.042200
C22	C	0.350595	0.187894	0.042215
C23	C	0.393105	0.124202	-0.000207
C24	C	0.125246	0.203203	-0.000257
C25	C	0.052792	0.201792	-0.000260
C26	C	0.069148	0.033689	-0.000257
C27	C	0.141599	0.035103	-0.000246
C28	C	0.169644	0.119863	-0.000249
C29	C	0.825517	-0.045828	-0.000205
C30	C	0.824019	-0.148200	-0.000204
C31	C	0.818507	-0.523061	-0.000222
C32	C	0.820037	-0.418762	-0.000216
C33	C	0.821263	-0.335633	-0.000212
C34	C	0.822794	-0.231329	-0.000208
C35	C	0.947636	0.115541	-0.000243
C36	C	1.024745	0.117040	-0.000267
C37	C	0.815794	0.291430	-0.000217
C38	C	0.817291	0.393802	-0.000223
N39	N	0.820632	0.122790	0.188458
N40	N	0.820684	0.122805	-0.188878
C41	C	0.867790	0.059929	0.226549
C42	C	0.867794	0.059925	0.302777
C43	C	0.820648	0.122797	0.340910
C44	C	0.773481	0.185663	0.302809
C45	C	0.773473	0.185659	0.226583
C46	C	0.811652	0.206826	0.461669
C47	C	0.811664	0.206831	0.537894
C48	C	0.820667	0.122809	0.576018
C49	C	0.829673	0.038778	0.537908
C50	C	0.829665	0.038775	0.461681
C51	C	0.820650	0.122808	0.423565
C52	C	0.867832	0.059938	0.696765
C53	C	0.867832	0.059933	0.772994
C54	C	0.773522	0.185679	0.773025
C55	C	0.773519	0.185677	0.696797
C56	C	0.820678	0.122807	0.658671
H57	H	0.374969	0.240896	0.076770
H58	H	0.177748	-0.032760	-0.000238
H59	H	0.016645	0.269658	-0.000268
C60	C	0.919656	-0.009233	0.184610
C61	C	0.892426	-0.079674	0.132231
C62	C	0.944290	-0.148837	0.090288
C63	C	1.023384	-0.147558	0.100723
C64	C	1.050618	-0.077114	0.153104
C65	C	0.998754	-0.007951	0.195047
H66	H	0.833872	-0.080623	0.124505
H67	H	0.924128	-0.200984	0.051513
H68	H	1.061777	-0.198756	0.069674
H69	H	1.109172	-0.076165	0.160830
H70	H	1.018915	0.044196	0.233822
C71	C	0.637362	-0.047875	-0.000146
C72	C	0.689386	-0.070024	0.062747
C73	C	0.738228	-0.161703	0.062756
C74	C	0.735046	-0.231232	-0.000128
C75	C	0.683020	-0.209085	-0.063025
C76	C	0.634178	-0.117406	-0.063034
H77	H	0.691743	-0.018553	0.109301
H78	H	0.776741	-0.178098	0.109317
H79	H	0.771202	-0.299098	-0.000121
H80	H	0.680663	-0.260556	-0.109579
H81	H	0.595665	-0.101011	-0.109595
H82	H	0.906197	0.008734	0.333797
C83	C	0.801767	0.299260	0.579811
C84	C	0.801785	0.299270	0.663657
C85	C	0.791890	0.391703	0.705573
C86	C	0.781978	0.484125	0.663642
C87	C	0.781960	0.484119	0.579791
C88	C	0.791854	0.391686	0.537876
H89	H	0.809123	0.230851	0.694701
H90	H	0.791904	0.391707	0.767645
H91	H	0.774653	0.552549	0.694670
H92	H	0.774622	0.552538	0.548748
H93	H	0.791841	0.391682	0.475804
C94	C	0.919699	-0.009225	0.654822
C95	C	0.919699	-0.009230	0.570976
C96	C	0.971566	-0.078394	0.529038
C97	C	1.023432	-0.147552	0.570945
C98	C	1.023434	-0.147549	0.654795
C99	C	0.971567	-0.078386	0.696734
H100	H	0.881303	0.041967	0.539950
H101	H	0.971564	-0.078396	0.466965
H102	H	1.061827	-0.198752	0.539899
H103	H	1.061830	-0.198747	0.685822
H104	H	0.971568	-0.078384	0.758806
C105	C	0.231389	0.256530	0.088876
C106	C	0.231181	0.361306	0.075709
C107	C	0.184423	0.431351	0.122383
C108	C	0.137874	0.396621	0.182222
C109	C	0.138080	0.291840	0.195392
C110	C	0.184837	0.221795	0.148719
H111	H	0.265641	0.387020	0.031410
H112	H	0.184271	0.508917	0.112633
H113	H	0.103261	0.448472	0.216773
H114	H	0.103619	0.266126	0.239691
H115	H	0.184990	0.144229	0.158468
H116	H	0.594998	0.280918	-0.000179
H117	H	0.397781	0.007267	-0.077190
H118	H	0.837003	-0.029640	0.568947
H119	H	0.735092	0.236854	0.333861
C120	C	0.721601	0.254815	0.184677
C121	C	0.669757	0.324003	0.226615
C122	C	0.617886	0.393161	0.184706
C123	C	0.617858	0.393131	0.100860
C124	C	0.669703	0.323941	0.058918
C125	C	0.721575	0.254783	0.100826
H126	H	0.669776	0.324027	0.288687
H127	H	0.579506	0.444380	0.215755
H128	H	0.579459	0.444326	0.069837
H129	H	0.669684	0.323917	-0.003154
H130	H	0.759954	0.203564	0.069777
H131	H	0.906231	0.008739	0.804009
H132	H	0.735132	0.236868	0.804072
C133	C	0.801746	0.299255	0.419733
C134	C	0.858924	0.324576	0.367291
C135	C	0.849015	0.417000	0.325356
C136	C	0.781929	0.484103	0.335862
C137	C	0.724746	0.458784	0.388306
C138	C	0.734655	0.366359	0.430242
H139	H	0.908589	0.274901	0.359512
H140	H	0.891346	0.435743	0.286533
H141	H	0.774594	0.552521	0.304818
H142	H	0.675081	0.508459	0.396085
H143	H	0.692324	0.347617	0.469065
H144	H	0.148080	0.272220	-0.000249
H145	H	0.493226	-0.026613	-0.000188
H146	H	0.463563	0.278358	-0.000193
C147	C	0.257791	-0.013889	-0.089340
C148	C	0.277916	-0.118275	-0.076162
C149	C	0.244991	-0.189877	-0.122846
C150	C	0.191941	-0.157094	-0.182707
C151	C	0.171812	-0.052702	-0.195888
C152	C	0.204738	0.018900	-0.149204
H153	H	0.317190	-0.142548	-0.031846
H154	H	0.259892	-0.267155	-0.113088
H155	H	0.167567	-0.210098	-0.217266
H156	H	0.132539	-0.028429	-0.240204
H157	H	0.189837	0.096178	-0.158962
C158	C	0.839556	-0.053652	0.419760
C159	C	0.849456	-0.146080	0.461684
C160	C	0.859341	-0.238508	0.419761
C161	C	0.859328	-0.238508	0.335915
C162	C	0.849428	-0.146077	0.293987
C163	C	0.839542	-0.053649	0.335909
H164	H	0.849466	-0.146083	0.523756
H165	H	0.866670	-0.306931	0.450800
H166	H	0.866645	-0.306928	0.304882
H167	H	0.849417	-0.146074	0.231915
H168	H	0.832214	0.014775	0.304870
H169	H	0.046308	-0.035317	-0.000308
H170	H	0.735122	0.236868	0.665780
