data_functionalizedCrystal
_audit_creation_method	'MofGen! by Chris Wilmer'
_symmetry_space_group_name_H-M	'P1'
_symmetry_Int_Tables_number	1
_symmetry_cell_setting	triclinic
loop_
_symmetry_equiv_pos_as_xyz
  x,y,z
_cell_length_a	15.944499
_cell_length_b	15.944551
_cell_length_c	18.366186
_cell_angle_alpha	89.992892
_cell_angle_beta	89.988045
_cell_angle_gamma	83.488174
loop_
_atom_site_label
_atom_site_type_symbol
_atom_site_fract_x
_atom_site_fract_y
_atom_site_fract_z
O1	O	1.114557	0.108126	-0.060595
O2	O	0.870001	0.121528	-0.060587
O3	O	0.998957	-0.007449	-0.060585
O4	O	0.985601	0.237103	-0.060597
O5	O	0.998935	-0.007455	0.060515
O6	O	0.869979	0.121522	0.060512
O7	O	1.114534	0.108120	0.060505
Zn8	Zn	0.992253	0.114820	0.079736
Zn9	Zn	0.992283	0.114828	-0.079818
O10	O	0.985578	0.237097	0.060502
C11	C	0.838695	0.120976	-0.000036
C12	C	0.745447	0.119331	-0.000033
C13	C	0.998392	-0.038746	-0.000035
C14	C	0.996729	-0.131992	-0.000034
C15	C	0.453911	0.194263	-0.000048
C16	C	0.514951	0.155315	-0.059755
C17	C	0.409810	0.113355	-0.000049
C18	C	0.514915	0.155287	0.059639
C19	C	0.574719	0.116296	-0.000040
C20	C	0.469623	0.074384	-0.059806
C21	C	0.469580	0.074367	0.059642
C22	C	0.530603	0.035360	-0.000080
C23	C	0.314810	0.111663	-0.000055
C24	C	0.669718	0.117981	-0.000039
C25	C	0.912823	-0.346833	-0.000042
C26	C	0.951775	-0.407860	0.059666
C27	C	0.993722	-0.302717	-0.000040
C28	C	0.951817	-0.407838	-0.059728
C29	C	0.990811	-0.467629	-0.000048
C30	C	1.032696	-0.362516	0.059718
C31	C	1.032726	-0.362487	-0.059731
C32	C	1.071737	-0.423497	-0.000008
C33	C	0.995397	-0.207715	-0.000034
C34	C	0.989143	-0.562630	-0.000049
C35	C	1.145840	0.108672	-0.000048
C36	C	1.239089	0.110317	-0.000056
C37	C	0.986144	0.268394	-0.000049
C38	C	0.987806	0.361640	-0.000055
N39	N	0.992239	0.114814	0.188627
C40	C	1.049359	0.057731	0.226728
C41	C	1.049364	0.057728	0.302956
C42	C	0.992256	0.114821	0.341080
C43	C	0.935125	0.171908	0.302969
C44	C	0.935116	0.171905	0.226742
C45	C	0.981255	0.191322	0.461836
C46	C	0.981269	0.191327	0.538061
C47	C	0.992279	0.114833	0.576187
C48	C	1.003291	0.038330	0.538079
C49	C	1.003282	0.038326	0.461852
C50	C	0.992259	0.114831	0.423734
C51	C	1.049407	0.057741	0.696943
C52	C	1.049406	0.057736	0.773173
C53	C	0.935172	0.171925	0.773184
C54	C	0.935169	0.171922	0.696956
C55	C	0.992291	0.114831	0.658840
N56	N	0.992297	0.114830	0.811291
H57	H	0.420581	0.261409	-0.000109
H58	H	1.095879	0.011242	0.333984
H59	H	1.095918	0.011248	0.804195
H60	H	0.449653	0.040197	-0.110341
C61	C	0.575433	-0.055429	-0.000121
N62	N	0.609201	-0.123810	-0.000154
C63	C	0.442381	0.028175	0.127843
N64	N	0.421891	-0.006610	0.179218
H65	H	0.534981	0.189519	0.110115
C66	C	0.872313	0.234740	0.184830
N67	N	0.825023	0.282082	0.153260
H68	H	0.888671	0.218408	0.804224
C69	C	0.822110	-0.301812	0.000043
N70	N	0.753787	-0.267899	0.000111
C71	C	0.542123	0.201554	-0.127946
N72	N	0.562589	0.236388	-0.179303
C73	C	0.905536	-0.435025	0.127862
N74	N	0.870704	-0.455483	0.179223
H75	H	1.138946	-0.456668	0.000024
C76	C	1.078867	-0.335525	0.127989
N77	N	1.113639	-0.315192	0.179412
H78	H	1.066924	-0.342361	-0.110214
C79	C	1.015400	-0.045821	0.580011
N80	N	1.024521	-0.109201	0.611599
H81	H	0.917598	-0.427906	-0.110210
C82	C	1.112187	-0.005079	0.184805
N83	N	1.159507	-0.052390	0.153228
C84	C	1.015384	-0.045825	0.419936
N85	N	1.024495	-0.109209	0.388365
C86	C	1.112234	-0.005067	0.655014
N87	N	1.159555	-0.052376	0.623434
C88	C	0.872392	0.234779	0.655043
N89	N	0.825124	0.282145	0.623474
H90	H	0.972308	0.253620	0.569083
C91	C	0.969143	0.275478	0.419905
N92	N	0.960021	0.338862	0.388324
H93	H	0.888626	0.218394	0.334013
