data_functionalizedCrystal
_audit_creation_method	'MofGen! by Chris Wilmer'
_symmetry_space_group_name_H-M	'P1'
_symmetry_Int_Tables_number	1
_symmetry_cell_setting	triclinic
loop_
_symmetry_equiv_pos_as_xyz
  x,y,z
_cell_length_a	19.121102
_cell_length_b	21.295417
_cell_length_c	19.121277
_cell_angle_alpha	87.575578
_cell_angle_beta	89.900604
_cell_angle_gamma	87.583861
loop_
_atom_site_label
_atom_site_type_symbol
_atom_site_fract_x
_atom_site_fract_y
_atom_site_fract_z
Zn1	Zn	1.054737	-0.308022	0.442034
Zn2	Zn	1.304737	-0.058022	0.692034
Zn3	Zn	1.554737	0.191978	0.942034
Zn4	Zn	1.804737	0.441978	1.192034
Zn5	Zn	1.059669	-0.408970	0.324791
Zn6	Zn	1.309669	-0.158970	0.574791
Zn7	Zn	1.559669	0.091030	0.824791
Zn8	Zn	1.809669	0.341030	1.074791
Zn9	Zn	0.942529	-0.299041	0.319820
Zn10	Zn	1.192529	-0.049041	0.569820
Zn11	Zn	1.442529	0.200959	0.819820
Zn12	Zn	1.692529	0.450959	1.069820
Zn13	Zn	0.937460	-0.408572	0.436992
Zn14	Zn	1.187460	-0.158572	0.686992
Zn15	Zn	1.437460	0.091428	0.936992
Zn16	Zn	1.687460	0.341428	1.186992
O17	O	0.998599	-0.356151	0.380909
O18	O	1.248599	-0.106151	0.630909
O19	O	1.498599	0.143849	0.880909
O20	O	1.748599	0.393849	1.130909
O21	O	1.153496	-0.325338	0.430672
O22	O	1.403496	-0.075338	0.680672
O23	O	1.653496	0.174662	0.930672
O24	O	1.903496	0.424662	1.180672
O25	O	1.048316	-0.390795	0.226028
O26	O	1.298316	-0.140795	0.476028
O27	O	1.548316	0.109205	0.726028
O28	O	1.798316	0.359205	0.976028
O29	O	0.957471	-0.212146	0.336062
O30	O	1.207471	0.037854	0.586062
O31	O	1.457471	0.287854	0.836062
O32	O	1.707471	0.537854	1.086062
O33	O	1.157119	-0.399504	0.344534
O34	O	1.407119	-0.149504	0.594534
O35	O	1.657119	0.100496	0.844534
O36	O	1.907119	0.350496	1.094534
O37	O	1.039910	-0.218745	0.425852
O38	O	1.289910	0.031255	0.675852
O39	O	1.539910	0.281255	0.925852
O40	O	1.789910	0.531255	1.175852
O41	O	0.962254	-0.310031	0.222376
O42	O	1.212254	-0.060031	0.472376
O43	O	1.462254	0.189969	0.722376
O44	O	1.712254	0.439969	0.972376
O45	O	0.843753	-0.309645	0.331173
O46	O	1.093753	-0.059645	0.581173
O47	O	1.343753	0.190355	0.831173
O48	O	1.593753	0.440355	1.081173
O49	O	0.948831	-0.398826	0.535765
O50	O	1.198831	-0.148826	0.785765
O51	O	1.448831	0.101174	1.035765
O52	O	1.698831	0.351174	1.285765
O53	O	0.840028	-0.390117	0.417259
O54	O	1.090028	-0.140117	0.667259
O55	O	1.340028	0.109883	0.917259
O56	O	1.590028	0.359883	1.167259
O57	O	1.034994	-0.324953	0.539469
O58	O	1.284994	-0.074953	0.789469
O59	O	1.534994	0.175047	1.039469
O60	O	1.784994	0.425047	1.289469
O61	O	1.043401	-0.497003	0.339645
O62	O	1.293401	-0.247003	0.589645
O63	O	1.543401	0.002997	0.839645
O64	O	1.793401	0.252997	1.089645
O65	O	0.953614	-0.496711	0.422079
O66	O	1.203614	-0.246711	0.672079
O67	O	1.453614	0.003289	0.922079
O68	O	1.703614	0.253289	1.172079
C69	C	0.816453	-0.348864	0.373129
C70	C	1.066453	-0.098864	0.623129
C71	C	1.316453	0.151136	0.873129
C72	C	1.566453	0.401136	1.123129
C73	C	0.738530	-0.345762	0.369818
C74	C	0.988530	-0.095762	0.619818
C75	C	1.238530	0.154238	0.869818
C76	C	1.488530	0.404238	1.119818
C77	C	0.998511	-0.519698	0.380870
C78	C	1.248511	-0.269698	0.630870
C79	C	1.498511	-0.019698	0.880870
C80	C	1.748511	0.230302	1.130870
C81	C	0.998537	-0.589667	0.380879
C82	C	1.248537	-0.339667	0.630879
C83	C	1.498537	-0.089667	0.880879
C84	C	1.748537	0.160333	1.130879
C85	C	0.700003	-0.386261	0.413012
C86	C	0.950003	-0.136261	0.663012
C87	C	1.200003	0.113739	0.913012
C88	C	1.450003	0.363739	1.163012
C89	C	0.626786	-0.383338	0.409904
C90	C	0.876786	-0.133338	0.659904
C91	C	1.126786	0.116662	0.909904
C92	C	1.376786	0.366662	1.159904
C93	C	0.592096	-0.339920	0.363597
C94	C	0.842096	-0.089920	0.613597
C95	C	1.092096	0.160080	0.863597
C96	C	1.342096	0.410080	1.113597
C97	C	0.630627	-0.299417	0.320401
C98	C	0.880627	-0.049417	0.570401
C99	C	1.130627	0.200583	0.820401
C100	C	1.380627	0.450583	1.070401
C101	C	0.703844	-0.302337	0.323514
C102	C	0.953844	-0.052337	0.573514
C103	C	1.203844	0.197663	0.823514
C104	C	1.453844	0.447663	1.073514
C105	C	0.371127	-0.329002	0.351965
C106	C	0.621127	-0.079002	0.601965
C107	C	0.871127	0.170998	0.851965
C108	C	1.121127	0.420998	1.101965
C109	C	0.297905	-0.326086	0.348854
C110	C	0.547905	-0.076086	0.598854
C111	C	0.797905	0.173914	0.848854
C112	C	1.047905	0.423914	1.098854
C113	C	0.294068	-0.410007	0.438358
C114	C	0.544068	-0.160007	0.688358
C115	C	0.794068	0.089993	0.938358
C116	C	1.044068	0.339993	1.188358
C117	C	0.367286	-0.412926	0.441463
C118	C	0.617286	-0.162926	0.691463
C119	C	0.867286	0.087074	0.941463
C120	C	1.117286	0.337074	1.191463
C121	C	0.405811	-0.372421	0.398270
C122	C	0.655811	-0.122421	0.648270
C123	C	0.905811	0.127579	0.898270
C124	C	1.155811	0.377579	1.148270
C125	C	0.517256	-0.336933	0.360418
C126	C	0.767256	-0.086933	0.610418
C127	C	1.017256	0.163067	0.860418
C128	C	1.267256	0.413067	1.110418
C129	C	0.480650	-0.375405	0.401454
C130	C	0.730650	-0.125405	0.651454
C131	C	0.980650	0.124595	0.901454
C132	C	1.230650	0.374595	1.151454
C133	C	1.041435	-0.625913	0.427664
C134	C	1.291435	-0.375913	0.677664
C135	C	1.541435	-0.125913	0.927664
C136	C	1.791435	0.124087	1.177664
C137	C	1.041459	-0.691657	0.427682
C138	C	1.291459	-0.441657	0.677682
C139	C	1.541459	-0.191657	0.927682
C140	C	1.791459	0.058343	1.177682
C141	C	0.998593	-0.721153	0.380904
C142	C	1.248593	-0.471153	0.630904
C143	C	1.498593	-0.221153	0.880904
C144	C	1.748593	0.028847	1.130904
C145	C	0.955685	-0.684899	0.334116
C146	C	1.205685	-0.434899	0.584116
C147	C	1.455685	-0.184899	0.834116
C148	C	1.705685	0.065101	1.084116
C149	C	0.955657	-0.619156	0.334103
C150	C	1.205657	-0.369156	0.584103
C151	C	1.455657	-0.119156	0.834103
C152	C	1.705657	0.130844	1.084103
N153	N	0.995929	-0.821943	0.319325
N154	N	1.245929	-0.571943	0.569325
N155	N	1.495929	-0.321943	0.819325
N156	N	1.745929	-0.071943	1.069325
N157	N	0.995960	-0.884396	0.319339
N158	N	1.245960	-0.634396	0.569339
N159	N	1.495960	-0.384396	0.819339
N160	N	1.745960	-0.134396	1.069339
C161	C	0.998673	-0.919232	0.380939
C162	C	1.248673	-0.669232	0.630939
C163	C	1.498673	-0.419232	0.880939
C164	C	1.748673	-0.169232	1.130939
N165	N	1.001368	-0.889256	0.442527
N166	N	1.251368	-0.639256	0.692527
N167	N	1.501368	-0.389256	0.942527
N168	N	1.751368	-0.139256	1.192527
N169	N	1.001341	-0.826797	0.442512
N170	N	1.251341	-0.576797	0.692512
N171	N	1.501341	-0.326797	0.942512
N172	N	1.751341	-0.076797	1.192512
C173	C	0.998618	-0.792440	0.380912
C174	C	1.248618	-0.542440	0.630912
C175	C	1.498618	-0.292440	0.880912
C176	C	1.748618	-0.042440	1.130912
C177	C	1.041600	-1.026765	0.427748
C178	C	1.291600	-0.776765	0.677748
C179	C	1.541600	-0.526765	0.927748
C180	C	1.791600	-0.276765	1.177748
C181	C	1.041619	-1.092510	0.427767
C182	C	1.291619	-0.842510	0.677767
C183	C	1.541619	-0.592510	0.927767
C184	C	1.791619	-0.342510	1.177767
C185	C	0.955849	-1.085751	0.334194
C186	C	1.205849	-0.835751	0.584194
C187	C	1.455849	-0.585751	0.834194
C188	C	1.705849	-0.335751	1.084194
C189	C	0.955826	-1.020007	0.334181
C190	C	1.205826	-0.770007	0.584181
C191	C	1.455826	-0.520007	0.834181
C192	C	1.705826	-0.270007	1.084181
C193	C	0.998705	-0.990518	0.380957
C194	C	1.248705	-0.740518	0.630957
C195	C	1.498705	-0.490518	0.880957
C196	C	1.748705	-0.240518	1.130957
C197	C	1.181456	-0.363467	0.388720
C198	C	1.431456	-0.113467	0.638720
C199	C	1.681456	0.136533	0.888720
C200	C	1.931456	0.386533	1.138720
C201	C	1.259379	-0.366585	0.392048
C202	C	1.509379	-0.116585	0.642048
C203	C	1.759379	0.133415	0.892048
C204	C	2.009379	0.383415	1.142048
C205	C	0.990797	-0.362847	0.563765
C206	C	1.240797	-0.112847	0.813765
C207	C	1.490797	0.137153	1.063765
C208	C	1.740797	0.387153	1.313765
C209	C	0.987473	-0.365700	0.641688
C210	C	1.237473	-0.115700	0.891688
C211	C	1.487473	0.134300	1.141688
C212	C	1.737473	0.384300	1.391688
C213	C	0.998706	-0.191967	0.380965
C214	C	1.248706	0.058033	0.630965
C215	C	1.498706	0.308033	0.880965
C216	C	1.748706	0.558033	1.130965
C217	C	0.998751	-0.122002	0.380989
C218	C	1.248751	0.127998	0.630989
C219	C	1.498751	0.377998	0.880989
C220	C	1.748751	0.627998	1.130989
C221	C	1.030769	-0.328581	0.680226
C222	C	1.280769	-0.078581	0.930226
C223	C	1.530769	0.171419	1.180226
C224	C	1.780769	0.421419	1.430226
C225	C	1.027636	-0.331259	0.753442
C226	C	1.277636	-0.081259	1.003442
C227	C	1.527636	0.168741	1.253442
C228	C	1.777636	0.418741	1.503442
C229	C	0.981211	-0.371061	0.788119
C230	C	1.231211	-0.121061	1.038119
C231	C	1.481211	0.128939	1.288119
C232	C	1.731211	0.378939	1.538119
C233	C	0.937910	-0.408182	0.749576
C234	C	1.187910	-0.158182	0.999576
C235	C	1.437910	0.091818	1.249576
C236	C	1.687910	0.341818	1.499576
C237	C	0.941039	-0.405500	0.676361
C238	C	1.191039	-0.155500	0.926361
C239	C	1.441039	0.094500	1.176361
C240	C	1.691039	0.344500	1.426361
C241	C	0.969515	-0.381080	1.009083
C242	C	1.219515	-0.131080	1.259083
C243	C	1.469515	0.118920	1.509083
C244	C	1.719515	0.368920	1.759083
C245	C	0.966390	-0.383760	1.082304
C246	C	1.216390	-0.133760	1.332304
C247	C	1.466390	0.116240	1.582304
C248	C	1.716390	0.366240	1.832304
C249	C	1.056116	-0.306836	1.086165
C250	C	1.306116	-0.056836	1.336165
C251	C	1.556116	0.193164	1.586165
C252	C	1.806116	0.443164	1.836165
C253	C	1.059244	-0.304161	1.012948
C254	C	1.309244	-0.054161	1.262948
C255	C	1.559244	0.195839	1.512948
C256	C	1.809244	0.445839	1.762948
C257	C	1.015941	-0.341279	0.974412
C258	C	1.265941	-0.091279	1.224412
C259	C	1.515941	0.158721	1.474412
C260	C	1.765941	0.408721	1.724412
C261	C	0.978009	-0.373801	0.862957
C262	C	1.228009	-0.123801	1.112957
C263	C	1.478009	0.126199	1.362957
C264	C	1.728009	0.376199	1.612957
C265	C	1.019139	-0.338535	0.899574
C266	C	1.269139	-0.088535	1.149574
C267	C	1.519139	0.161465	1.399574
C268	C	1.769139	0.411465	1.649574
C269	C	1.006364	-0.349495	1.198764
C270	C	1.256364	-0.099495	1.448764
C271	C	1.506364	0.150505	1.698764
C272	C	1.756364	0.400505	1.948764
C273	C	1.009686	-0.346641	1.120841
C274	C	1.259686	-0.096641	1.370841
C275	C	1.509686	0.153359	1.620841
C276	C	1.759686	0.403359	1.870841
H277	H	0.728242	-0.421619	0.450717
H278	H	0.978242	-0.171619	0.700717
H279	H	1.228242	0.078381	0.950717
H280	H	1.478242	0.328381	1.200717
H281	H	0.920941	-1.109766	0.296110
H282	H	1.170941	-0.859766	0.546110
H283	H	1.420941	-0.609766	0.796110
H284	H	1.670941	-0.359766	1.046110
H285	H	0.395526	-0.448283	0.479169
H286	H	0.645526	-0.198283	0.729169
H287	H	0.895526	0.051717	0.979169
H288	H	1.145526	0.301717	1.229169
F289	F	1.087123	-0.730240	0.477476
F290	F	1.337123	-0.480240	0.727476
F291	F	1.587123	-0.230240	0.977476
F292	F	1.837123	0.019760	1.227476
F293	F	0.412118	-0.285891	0.305996
F294	F	0.662118	-0.035891	0.555996
F295	F	0.912118	0.214109	0.805996
F296	F	1.162118	0.464109	1.055996
H297	H	0.920781	-0.708919	0.296030
H298	H	1.170781	-0.458919	0.546030
H299	H	1.420781	-0.208919	0.796030
H300	H	1.670781	0.041081	1.046030
F301	F	0.585786	-0.426443	0.455877
F302	F	0.835786	-0.176443	0.705877
F303	F	1.085786	0.073557	0.955877
F304	F	1.335786	0.323557	1.205877
F305	F	0.593706	-0.253204	0.271123
F306	F	0.843706	-0.003204	0.521123
F307	F	1.093706	0.246796	0.771123
F308	F	1.343706	0.496796	1.021123
H309	H	0.735211	-0.269356	0.288344
H310	H	0.985211	-0.019356	0.538344
H311	H	1.235211	0.230644	0.788344
H312	H	1.485211	0.480644	1.038344
H313	H	0.920723	-0.589644	0.296005
H314	H	1.170723	-0.339644	0.546005
H315	H	1.420723	-0.089644	0.796005
H316	H	1.670723	0.160356	1.046005
F317	F	0.517571	-0.421612	0.450735
F318	F	0.767571	-0.171612	0.700735
F319	F	1.017571	0.078388	0.950735
F320	F	1.267571	0.328388	1.200735
F321	F	0.910167	-0.981430	0.284385
F322	F	1.160167	-0.731430	0.534385
F323	F	1.410167	-0.481430	0.784385
F324	F	1.660167	-0.231430	1.034385
F325	F	0.923427	-0.420585	0.968079
F326	F	1.173427	-0.170585	1.218079
F327	F	1.423427	0.079415	1.468079
F328	F	1.673427	0.329415	1.718079
H329	H	0.940213	-0.406210	0.891200
H330	H	1.190213	-0.156210	1.141200
H331	H	1.440213	0.093790	1.391200
H332	H	1.690213	0.343790	1.641200
H333	H	0.262694	-0.442983	0.473524
H334	H	0.512694	-0.192983	0.723524
H335	H	0.762694	0.057017	0.973524
H336	H	1.012694	0.307017	1.223524
H337	H	0.489003	-0.301583	0.322713
H338	H	0.739003	-0.051583	0.572713
H339	H	0.989003	0.198417	0.822713
H340	H	1.239003	0.448417	1.072713
F341	F	1.087068	-0.594532	0.477451
F342	F	1.337068	-0.344532	0.727451
F343	F	1.587068	-0.094532	0.977451
F344	F	1.837068	0.155468	1.227451
F345	F	1.102197	-0.267333	1.127183
F346	F	1.352197	-0.017333	1.377183
F347	F	1.602197	0.232667	1.627183
F348	F	1.852197	0.482667	1.877183
F349	F	0.916973	-0.426122	1.119208
F350	F	1.166973	-0.176122	1.369208
F351	F	1.416973	0.073878	1.619208
F352	F	1.666973	0.323878	1.869208
H353	H	1.076513	-1.002754	0.465838
H354	H	1.326513	-0.752754	0.715838
H355	H	1.576513	-0.502754	0.965838
H356	H	1.826513	-0.252754	1.215838
F357	F	0.260988	-0.279876	0.299562
F358	F	0.510988	-0.029876	0.549562
F359	F	0.760988	0.220124	0.799562
F360	F	1.010988	0.470124	1.049562
H361	H	1.068575	-0.296172	0.651997
H362	H	1.318575	-0.046172	0.901997
H363	H	1.568575	0.203828	1.151997
H364	H	1.818575	0.453828	1.401997
H365	H	0.900107	-0.440587	0.777815
H366	H	1.150107	-0.190587	1.027815
H367	H	1.400107	0.059413	1.277815
H368	H	1.650107	0.309413	1.527815
F369	F	1.087273	-1.131086	0.477571
F370	F	1.337273	-0.881086	0.727571
F371	F	1.587273	-0.631086	0.977571
F372	F	1.837273	-0.381086	1.227571
H373	H	1.062894	-0.301034	0.784816
H374	H	1.312894	-0.051034	1.034816
H375	H	1.562894	0.198966	1.284816
H376	H	1.812894	0.448966	1.534816
F377	F	1.108657	-0.261798	0.976048
F378	F	1.358657	-0.011798	1.226048
F379	F	1.608657	0.238202	1.476048
F380	F	1.858657	0.488202	1.726048
F381	F	0.894956	-0.445006	0.635346
F382	F	1.144956	-0.195006	0.885346
F383	F	1.394956	0.054994	1.135346
F384	F	1.644956	0.304994	1.385346
H385	H	1.056935	-0.306126	0.871337
H386	H	1.306935	-0.056126	1.121337
H387	H	1.556935	0.193874	1.371337
H388	H	1.806935	0.443874	1.621337
