data_functionalizedCrystal
_audit_creation_method	'MofGen! by Chris Wilmer'
_symmetry_space_group_name_H-M	'P1'
_symmetry_Int_Tables_number	1
_symmetry_cell_setting	triclinic
loop_
_symmetry_equiv_pos_as_xyz
  x,y,z
_cell_length_a	12.759401
_cell_length_b	11.169416
_cell_length_c	12.759393
_cell_angle_alpha	89.970865
_cell_angle_beta	89.981504
_cell_angle_gamma	90.010310
loop_
_atom_site_label
_atom_site_type_symbol
_atom_site_fract_x
_atom_site_fract_y
_atom_site_fract_z
Zn1	Zn	1.606289	-0.477731	-0.593999
Zn2	Zn	1.606197	-0.678464	-0.418327
Zn3	Zn	1.430591	-0.477794	-0.418339
Zn4	Zn	1.430593	-0.678372	-0.593968
O5	O	1.518417	-0.578090	-0.506158
O6	O	1.753297	-0.504371	-0.570704
O7	O	1.582863	-0.651910	-0.271307
O8	O	1.453935	-0.309836	-0.441658
O9	O	1.753230	-0.651849	-0.441638
O10	O	1.583019	-0.309790	-0.570715
O11	O	1.453846	-0.504478	-0.271316
O12	O	1.283570	-0.504389	-0.441628
O13	O	1.453939	-0.651691	-0.740993
O14	O	1.283572	-0.651752	-0.570662
O15	O	1.583022	-0.504282	-0.741016
O16	O	1.582865	-0.846401	-0.441608
O17	O	1.453850	-0.846333	-0.570651
C18	C	1.245450	-0.578068	-0.506144
C19	C	1.128673	-0.578088	-0.506163
C20	C	1.073840	-0.654943	-0.573240
C21	C	0.964116	-0.654958	-0.573251
C22	C	0.964068	-0.501260	-0.439099
C23	C	1.073790	-0.501239	-0.439094
C24	C	1.073866	-0.743683	-0.650688
C25	C	0.964142	-0.743698	-0.650699
C26	C	1.518377	-0.889915	-0.506148
C27	C	1.518455	-1.023315	-0.506178
C28	C	1.792451	-0.578113	-0.506173
C29	C	1.909227	-0.578123	-0.506179
C30	C	1.518491	-0.577969	-0.780192
C31	C	1.518522	-0.577917	-0.896968
C32	C	1.518487	-0.265048	-0.506191
C33	C	1.518516	-0.131648	-0.506206
C34	C	1.585745	-0.501154	-0.951844
C35	C	1.585770	-0.501111	-1.061568
C36	C	1.451347	-0.654605	-1.061531
C37	C	1.451317	-0.654641	-0.951809
C38	C	1.663356	-0.412539	-0.951866
C39	C	1.663381	-0.412496	-1.061590
C40	C	1.518404	-0.578124	-0.233191
C41	C	1.518577	-0.577838	-0.116415
H42	H	1.103673	-0.718894	-0.732094
H43	H	1.744754	-0.437390	-1.091369
Cl44	Cl	1.366788	-0.751128	-0.882826
Cl45	Cl	0.918142	-0.887157	-0.616808
Cl46	Cl	1.629737	-0.269042	-0.905911
Cl47	Cl	1.366865	-0.751052	-1.130482
H48	H	1.107887	-0.831932	-0.621407
H49	H	1.740630	-0.445860	-0.917831
Cl50	Cl	0.911639	-0.692474	-0.770118
H51	H	1.118432	-0.438649	-0.384480
Cl52	Cl	0.895065	-0.404655	-0.354790
H53	H	1.634261	-0.324182	-1.095635
