data_functionalizedCrystal
_audit_creation_method	'MofGen! by Chris Wilmer'
_symmetry_space_group_name_H-M	'P1'
_symmetry_Int_Tables_number	1
_symmetry_cell_setting	triclinic
loop_
_symmetry_equiv_pos_as_xyz
  x,y,z
_cell_length_a	10.723024
_cell_length_b	14.586319
_cell_length_c	10.723023
_cell_angle_alpha	89.997215
_cell_angle_beta	84.467709
_cell_angle_gamma	89.996795
loop_
_atom_site_label
_atom_site_type_symbol
_atom_site_fract_x
_atom_site_fract_y
_atom_site_fract_z
O1	O	1.657186	-0.076232	0.175026
O2	O	1.294034	-0.076235	0.191779
O3	O	1.483987	-0.076230	0.001826
O4	O	1.467233	-0.076238	0.364979
O5	O	1.483974	0.076251	0.001823
O6	O	1.294021	0.076246	0.191776
O7	O	1.657173	0.076249	0.175023
Cu8	Cu	1.475596	0.090170	0.183399
Cu9	Cu	1.475611	-0.090156	0.183403
O10	O	1.467220	0.076243	0.364976
C11	C	1.247528	0.000005	0.190558
C12	C	1.108973	0.000004	0.186911
C13	C	1.482762	0.000010	-0.044675
C14	C	1.479114	0.000007	-0.183229
N15	N	1.475594	0.217002	0.183396
C16	C	1.033991	0.000001	0.293198
C17	C	0.890787	-0.000000	0.289431
C18	C	1.703679	0.000007	0.176243
C19	C	1.842234	0.000002	0.179891
N20	N	1.475623	-0.216988	0.183396
C21	C	1.559733	0.452010	0.099314
C22	C	1.559737	0.547992	0.099311
C23	C	1.391475	0.547996	0.267482
C24	C	1.391466	0.452017	0.267478
C25	C	1.475602	0.404026	0.183396
C26	C	1.475615	0.595987	0.183397
C27	C	1.475618	0.700054	0.183394
C28	C	1.475598	0.299953	0.183396
C29	C	1.477495	-0.078984	-0.244993
C30	C	1.473726	-0.078989	-0.388197
C31	C	1.468445	0.000002	0.411477
C32	C	1.472093	-0.000001	0.550031
H33	H	1.075812	0.000004	0.386984
H34	H	1.472339	-0.146616	-0.441313
H35	H	0.826354	-0.000006	0.380421
C36	C	1.473973	0.091368	-0.378233
C37	C	1.368155	0.114147	-0.275455
C38	C	1.370036	0.205517	-0.203708
C39	C	1.477735	0.274108	-0.234739
C40	C	1.583561	0.251331	-0.337522
C41	C	1.581680	0.159961	-0.409269
H42	H	1.288423	0.063371	-0.252479
H43	H	1.291696	0.222377	-0.127621
H44	H	1.479127	0.341745	-0.181628
H45	H	1.663293	0.302107	-0.360497
H46	H	1.660020	0.143100	-0.485356
C47	C	0.929260	0.000005	0.056955
C48	C	1.022600	0.079185	0.028192
C49	C	1.109637	0.079189	-0.094744
C50	C	1.103334	0.000012	-0.188917
C51	C	1.009991	-0.079175	-0.160157
C52	C	0.922954	-0.079178	-0.037221
H53	H	1.027269	0.137802	0.097907
H54	H	1.178736	0.137808	-0.116034
H55	H	1.167764	0.000014	-0.279922
H56	H	1.005322	-0.137792	-0.229872
H57	H	0.853854	-0.137798	-0.015931
H58	H	1.067152	-0.000018	0.093125
H59	H	1.322950	0.412946	0.335949
H60	H	1.628242	0.587058	0.030842
C61	C	1.298937	0.600786	0.359981
C62	C	1.299008	0.706360	0.360065
C63	C	1.206470	0.759147	0.452569
C64	C	1.113861	0.706360	0.544990
C65	C	1.113786	0.600780	0.544909
C66	C	1.206324	0.547994	0.452405
H67	H	1.367566	0.745441	0.291647
H68	H	1.206526	0.837304	0.452628
H69	H	1.045359	0.745436	0.613467
H70	H	1.045228	0.561699	0.613327
H71	H	1.206268	0.469836	0.452345
H72	H	1.478894	-0.146608	-0.191854
H73	H	1.477702	0.067630	-0.236367
H74	H	1.628241	0.412939	0.030846
