data_functionalizedCrystal
_audit_creation_method	'MofGen! by Chris Wilmer'
_symmetry_space_group_name_H-M	'P1'
_symmetry_Int_Tables_number	1
_symmetry_cell_setting	triclinic
loop_
_symmetry_equiv_pos_as_xyz
  x,y,z
_cell_length_a	12.837932
_cell_length_b	12.811415
_cell_length_c	9.198806
_cell_angle_alpha	84.565959
_cell_angle_beta	89.996231
_cell_angle_gamma	89.412215
loop_
_atom_site_label
_atom_site_type_symbol
_atom_site_fract_x
_atom_site_fract_y
_atom_site_fract_z
O1	O	1.376632	0.272984	-0.156879
O2	O	1.074768	0.259497	-0.155104
O3	O	1.233294	0.114208	-0.135942
O4	O	1.218107	0.418273	-0.176041
O5	O	1.233282	0.114206	0.105843
O6	O	1.074756	0.259496	0.086682
O7	O	1.376620	0.272982	0.084906
Cu8	Cu	1.225687	0.266239	0.107871
Cu9	Cu	1.225702	0.266241	-0.178068
O10	O	1.218094	0.418272	0.065744
C11	C	1.036122	0.254941	-0.033611
C12	C	0.920986	0.241354	-0.031820
C13	C	1.232437	0.075018	-0.009884
C14	C	1.229888	-0.041755	0.005506
C15	C	0.770653	0.127793	-0.016842
C16	C	0.878834	0.140553	-0.018525
C17	C	0.854948	0.329403	-0.043429
C18	C	0.746767	0.316643	-0.041746
C19	C	0.704624	0.215835	-0.028454
C20	C	0.596440	0.203077	-0.026781
C21	C	0.572556	0.391926	-0.051675
C22	C	0.680737	0.404686	-0.053358
C23	C	1.225093	-0.261173	-0.229198
C24	C	1.222698	-0.370891	-0.214744
C25	C	1.222695	-0.370913	0.048866
C26	C	1.225090	-0.261194	0.034412
C27	C	1.226291	-0.206328	-0.104624
C28	C	1.228693	-0.096608	-0.119077
C29	C	1.228683	-0.096631	0.144532
C30	C	1.226288	-0.206350	0.158986
C31	C	1.415266	0.277539	-0.036590
C32	C	1.530402	0.291126	-0.038390
C33	C	1.218952	0.457462	-0.060317
C34	C	1.221501	0.574235	-0.075717
N35	N	1.225684	0.266238	0.308985
N36	N	1.225713	0.266235	-0.379182
C37	C	1.292245	0.204939	0.389266
C38	C	1.292262	0.204937	0.556679
H39	H	0.562130	0.120994	-0.015964
H40	H	1.168706	0.318712	0.364192
C41	C	0.835966	0.508099	-0.066997
C42	C	0.727068	0.515490	-0.067972
H43	H	0.864564	0.576508	-0.076030
H44	H	0.858590	0.471402	0.022156
H45	H	0.858598	0.471390	-0.146474
H46	H	0.704436	0.552193	0.011513
H47	H	0.704435	0.552203	-0.157136
C48	C	0.805125	-0.057596	0.007588
C49	C	0.724322	0.016990	-0.002241
H50	H	0.776521	-0.126002	0.016609
H51	H	0.846824	-0.048687	-0.077897
H52	H	0.846821	-0.048692	0.090736
H53	H	0.682630	0.008090	-0.085397
H54	H	0.682605	0.008076	0.083252
C55	C	1.055272	0.076258	-0.010045
C56	C	0.951417	0.043775	-0.005765
H57	H	1.100080	0.016507	-0.002157
H58	H	1.068093	0.117138	-0.099748
H59	H	1.068081	0.117145	0.068884
H60	H	0.938606	0.002894	-0.084701
H61	H	0.938591	0.002878	0.083948
H62	H	0.518782	0.463617	-0.061131
H63	H	0.889281	0.411476	-0.054238
C64	C	1.228441	-0.107610	-0.378190
C65	C	1.230006	-0.036295	-0.271902
H66	H	1.229242	-0.070376	-0.472538
H67	H	1.287908	-0.152363	-0.366821
H68	H	1.167100	-0.148446	-0.367304
H69	H	1.291352	0.004535	-0.282780
H70	H	1.170534	0.008476	-0.283275
C71	C	1.222925	-0.359844	-0.476760
C72	C	1.221371	-0.431177	-0.351679
H73	H	1.222107	-0.397064	-0.561300
H74	H	1.163464	-0.315086	-0.477156
H75	H	1.284272	-0.319015	-0.476663
H76	H	1.160021	-0.472001	-0.351771
H77	H	1.280839	-0.475953	-0.351284
C78	C	1.087249	0.393770	0.619009
C79	C	1.148777	0.337091	0.527681
H80	H	1.039759	0.437518	0.561498
H81	H	1.049594	0.346450	0.684620
H82	H	1.130671	0.435795	0.672829
H83	H	1.105356	0.295060	0.473869
H84	H	1.186436	0.384417	0.462044
C85	C	1.219066	-0.539120	0.188054
C86	C	1.221409	-0.431235	0.201685
H87	H	1.218289	-0.576359	0.282401
H88	H	1.158263	-0.555135	0.136054
H89	H	1.279071	-0.559035	0.136483
H90	H	1.161400	-0.411320	0.253247
H91	H	1.282219	-0.415214	0.253708
H92	H	1.226080	-0.216500	-0.342407
C93	C	1.226527	-0.195350	0.418100
C94	C	1.224969	-0.266663	0.311810
H95	H	1.225708	-0.232585	0.512448
H96	H	1.287862	-0.154521	0.407232
H97	H	1.167054	-0.150589	0.406718
H98	H	1.284445	-0.311419	0.323186
H99	H	1.163627	-0.307509	0.322684
C100	C	1.232353	0.071548	0.239436
C101	C	1.229996	-0.036343	0.281477
H102	H	1.233160	0.108765	0.323979
H103	H	1.293146	0.087563	0.183177
H104	H	1.172338	0.091488	0.182658
H105	H	1.290015	-0.056284	0.338246
H106	H	1.169196	-0.052365	0.337759
C107	C	1.471362	0.160892	0.347963
C108	C	1.369188	0.134092	0.314795
H109	H	1.518869	0.117147	0.302008
H110	H	1.483086	0.232077	0.313678
H111	H	1.481426	0.151610	0.450701
H112	H	1.359122	0.143381	0.212057
H113	H	1.357460	0.062890	0.349073
H114	H	1.349252	0.152461	0.625686
