data_functionalizedCrystal
_audit_creation_method	'MofGen! by Chris Wilmer'
_symmetry_space_group_name_H-M	'P1'
_symmetry_Int_Tables_number	1
_symmetry_cell_setting	triclinic
loop_
_symmetry_equiv_pos_as_xyz
  x,y,z
_cell_length_a	19.805407
_cell_length_b	19.805405
_cell_length_c	19.805398
_cell_angle_alpha	89.972361
_cell_angle_beta	89.986043
_cell_angle_gamma	90.028666
loop_
_atom_site_label
_atom_site_type_symbol
_atom_site_fract_x
_atom_site_fract_y
_atom_site_fract_z
Zn1	Zn	1.034691	-0.269437	-0.382739
Zn2	Zn	1.534691	0.230563	0.117261
Zn3	Zn	1.034618	-0.382627	-0.269553
Zn4	Zn	1.534618	0.117373	0.230447
Zn5	Zn	0.921519	-0.269462	-0.269562
Zn6	Zn	1.421519	0.230538	0.230438
Zn7	Zn	0.921469	-0.382593	-0.382698
Zn8	Zn	1.421469	0.117407	0.117302
O9	O	0.978074	-0.326030	-0.326138
O10	O	1.478074	0.173970	0.173862
O11	O	1.129398	-0.284456	-0.367738
O12	O	1.629398	0.215544	0.132262
O13	O	1.019605	-0.367640	-0.174838
O14	O	1.519605	0.132360	0.325162
O15	O	0.936583	-0.174742	-0.284597
O16	O	1.436583	0.325258	0.215403
O17	O	1.129344	-0.367616	-0.284581
O18	O	1.629344	0.132384	0.215419
O19	O	1.019730	-0.174724	-0.367747
O20	O	1.519730	0.325276	0.132253
O21	O	0.936512	-0.284498	-0.174844
O22	O	1.436512	0.215502	0.325156
O23	O	0.826795	-0.284465	-0.284557
O24	O	1.326795	0.215535	0.215443
O25	O	0.936498	-0.367558	-0.477420
O26	O	1.436498	0.132442	0.022580
O27	O	0.826759	-0.367582	-0.367677
O28	O	1.326759	0.132418	0.132323
O29	O	1.019682	-0.284423	-0.477450
O30	O	1.519682	0.215577	0.022550
O31	O	1.019557	-0.477339	-0.284541
O32	O	1.519557	0.022661	0.215459
O33	O	0.936427	-0.477314	-0.367668
O34	O	1.436427	0.022686	0.132332
C35	C	0.802218	-0.326023	-0.326114
C36	C	1.302218	0.173977	0.173886
C37	C	0.726986	-0.326036	-0.326119
C38	C	1.226986	0.173964	0.173881
C39	C	0.265226	-0.282809	-0.369531
C40	C	0.765226	0.217191	0.130469
C41	C	0.335915	-0.282810	-0.369526
C42	C	0.835915	0.217190	0.130474
C43	C	0.371224	-0.326040	-0.326160
C44	C	0.871224	0.173960	0.173840
C45	C	0.335842	-0.369276	-0.282801
C46	C	0.835842	0.130724	0.217199
C47	C	0.265155	-0.369278	-0.282810
C48	C	0.765155	0.130722	0.217190
C49	C	0.620915	-0.369271	-0.282765
C50	C	1.120915	0.130729	0.217235
C51	C	0.691607	-0.369265	-0.282758
C52	C	1.191607	0.130735	0.217242
C53	C	0.691675	-0.282803	-0.369481
C54	C	1.191675	0.217197	0.130519
C55	C	0.620988	-0.282805	-0.369490
C56	C	1.120988	0.217195	0.130510
C57	C	0.585612	-0.326043	-0.326134
C58	C	1.085612	0.173957	0.173866
C59	C	0.508963	-0.326043	-0.326141
C60	C	1.008963	0.173957	0.173859
C61	C	0.447871	-0.326038	-0.326149
C62	C	0.947871	0.173962	0.173851
C63	C	0.977997	-0.501886	-0.326114
C64	C	1.477997	-0.001886	0.173886
C65	C	0.978026	-0.577118	-0.326126
C66	C	1.478026	-0.077118	0.173874
C67	C	1.021295	-0.612394	-0.369456
C68	C	1.521295	-0.112394	0.130544
C69	C	1.021320	-0.683083	-0.369469
C70	C	1.521320	-0.183083	0.130531
C71	C	0.978078	-0.718493	-0.326147
C72	C	1.478078	-0.218493	0.173853
C73	C	0.934804	-0.683212	-0.282815
C74	C	1.434804	-0.183212	0.217185
C75	C	0.934776	-0.612525	-0.282806
C76	C	1.434776	-0.112525	0.217194
C77	C	0.934912	-0.968285	-0.282849
C78	C	1.434912	-0.468285	0.217151
C79	C	0.934944	-1.038977	-0.282860
C80	C	1.434944	-0.538977	0.217140
C81	C	1.021456	-1.038843	-0.369512
C82	C	1.521456	-0.538843	0.130488
C83	C	1.021428	-0.968156	-0.369504
C84	C	1.521428	-0.468156	0.130496
C85	C	0.978152	-0.932881	-0.326174
C86	C	1.478152	-0.432881	0.173826
C87	C	0.978125	-0.856232	-0.326162
C88	C	1.478125	-0.356232	0.173838
C89	C	0.978107	-0.795140	-0.326155
C90	C	1.478107	-0.295140	0.173845
C91	C	1.154617	-0.326037	-0.326163
C92	C	1.654617	0.173963	0.173837
C93	C	1.229849	-0.326040	-0.326174
C94	C	1.729849	0.173960	0.173826
C95	C	0.978092	-0.325984	-0.502681
C96	C	1.478092	0.174016	-0.002681
C97	C	0.978100	-0.325964	-0.577913
C98	C	1.478100	0.174036	-0.077913
C99	C	0.978170	-0.149487	-0.326178
C100	C	1.478170	0.350513	0.173822
C101	C	0.978211	-0.074255	-0.326194
C102	C	1.478211	0.425745	0.173806
C103	C	1.021474	-0.369149	-1.039698
C104	C	1.521474	0.130851	-0.539698
C105	C	1.021455	-0.369168	-0.969010
C106	C	1.521455	0.130832	-0.469010
C107	C	0.978184	-0.325888	-0.933675
C108	C	1.478184	0.174112	-0.433675
C109	C	0.934924	-0.282592	-0.969032
C110	C	1.434924	0.217408	-0.469032
C111	C	0.934940	-0.282578	-1.039719
C112	C	1.434940	0.217422	-0.539719
C113	C	0.934859	-0.282650	-0.683959
C114	C	1.434859	0.217350	-0.183959
C115	C	0.934848	-0.282667	-0.613267
C116	C	1.434848	0.217333	-0.113267
C117	C	1.021374	-0.369240	-0.613249
C118	C	1.521374	0.130760	-0.113249
C119	C	1.021389	-0.369225	-0.683936
C120	C	1.521389	0.130775	-0.183936
C121	C	0.978127	-0.325933	-0.719287
C122	C	1.478127	0.174067	-0.219287
C123	C	0.978147	-0.325914	-0.795936
C124	C	1.478147	0.174086	-0.295936
C125	C	0.978167	-0.325903	-0.857028
C126	C	1.478167	0.174097	-0.357028
C127	C	0.978095	-0.326027	-0.150282
C128	C	1.478095	0.173973	0.349718
C129	C	0.978218	-0.325855	-0.075051
C130	C	1.478218	0.174145	0.424949
H131	H	0.592120	-0.404477	-0.247460
H132	H	1.092120	0.095523	0.252540
C133	C	0.887328	-0.234985	-0.930166
C134	C	1.387328	0.265015	-0.430166
H135	H	0.893518	-0.241188	-0.883004
H136	H	1.393518	0.258812	-0.383004
H137	H	0.841848	-0.244884	-0.941745
H138	H	1.341848	0.255116	-0.441745
H139	H	0.897267	-0.189504	-0.941765
H140	H	1.397267	0.310496	-0.441765
H141	H	0.236483	-0.247602	-0.404840
H142	H	0.736483	0.252398	0.095160
C143	C	0.582151	-0.235255	-0.417194
C144	C	1.082151	0.264745	0.082806
H145	H	0.613346	-0.209512	-0.443021
H146	H	1.113346	0.290488	0.056979
H147	H	0.554578	-0.205731	-0.391362
H148	H	1.054578	0.294269	0.108638
H149	H	0.554578	-0.261193	-0.446644
H150	H	1.054578	0.238807	0.053356
C151	C	1.068985	-0.416834	-0.722801
C152	C	1.568985	0.083166	-0.222801
H153	H	1.094740	-0.442627	-0.691622
H154	H	1.594740	0.057373	-0.191622
H155	H	1.098497	-0.390941	-0.750386
H156	H	1.598497	0.109059	-0.250386
H157	H	1.043076	-0.446320	-0.750365
H158	H	1.543076	0.053680	-0.250365
C159	C	1.069034	-0.416790	-0.930122
C160	C	1.569034	0.083210	-0.430122
H161	H	1.062822	-0.410608	-0.882963
H162	H	1.562822	0.089392	-0.382963
H163	H	1.114519	-0.406884	-0.941708
H164	H	1.614519	0.093116	-0.441708
H165	H	1.059102	-0.462266	-0.941697
H166	H	1.559102	0.037734	-0.441697
H167	H	0.364716	-0.247609	-0.404834
H168	H	0.864716	0.252391	0.095166
H169	H	1.056713	-0.404389	-1.068463
H170	H	1.556713	0.095611	-0.568463
H171	H	0.720487	-0.247599	-0.404786
H172	H	1.220487	0.252401	0.095214
C173	C	1.068956	-0.416870	-0.574364
C174	C	1.568956	0.083130	-0.074364
H175	H	1.094733	-0.442638	-0.605533
H176	H	1.594733	0.057362	-0.105533
H177	H	1.043044	-0.446368	-0.546782
H178	H	1.543044	0.053632	-0.046782
H179	H	1.098458	-0.390983	-0.546797
H180	H	1.598458	0.109017	-0.046797
H181	H	0.899593	-0.712049	-0.247544
H182	H	1.399593	-0.212049	0.252456
H183	H	0.899609	-0.247421	-0.584499
H184	H	1.399609	0.252579	-0.084499
C185	C	0.730446	-0.416826	-0.235061
C186	C	1.230446	0.083174	0.264939
H187	H	0.699254	-0.442584	-0.209246
H188	H	1.199254	0.057416	0.290754
H189	H	0.758024	-0.390900	-0.205609
H190	H	1.258024	0.109100	0.294391
H191	H	0.758016	-0.446347	-0.260908
H192	H	1.258016	0.053653	0.239092
C193	C	0.374680	-0.416827	-0.235098
C194	C	0.874680	0.083173	0.264902
H195	H	0.421846	-0.410630	-0.241297
H196	H	0.921846	0.089370	0.258703
H197	H	0.363080	-0.462318	-0.244923
H198	H	0.863080	0.037682	0.255077
H199	H	0.363081	-0.406857	-0.189638
H200	H	0.863081	0.093143	0.310362
H201	H	0.236351	-0.404483	-0.247505
H202	H	0.736351	0.095517	0.252495
H203	H	0.899631	-0.247400	-0.712733
H204	H	1.399631	0.252600	-0.212733
H205	H	0.899541	-0.583803	-0.247523
H206	H	1.399541	-0.083803	0.252477
H207	H	0.899718	-0.247323	-1.068502
H208	H	1.399718	0.252677	-0.568502
H209	H	1.056511	-0.583568	-0.404731
H210	H	1.556511	-0.083568	0.095269
H211	H	1.056559	-0.711802	-0.404748
H212	H	1.556559	-0.211802	0.095252
H213	H	0.899729	-1.067807	-0.247581
H214	H	1.399729	-0.567807	0.252419
H215	H	1.056642	-0.939327	-0.404778
H216	H	1.556642	-0.439327	0.095222
C217	C	1.069053	-1.077648	-0.417181
C218	C	1.569053	-0.577648	0.082819
H219	H	1.062873	-1.124818	-0.410990
H220	H	1.562873	-0.624818	0.089010
H221	H	1.114532	-1.066029	-0.407316
H222	H	1.614532	-0.566029	0.092684
H223	H	1.059107	-1.066041	-0.462649
H224	H	1.559107	-0.566041	0.037351
H225	H	0.899677	-0.939569	-0.247568
H226	H	1.399677	-0.439569	0.252432
