data_functionalizedCrystal
_audit_creation_method	'MofGen! by Chris Wilmer'
_symmetry_space_group_name_H-M	'P1'
_symmetry_Int_Tables_number	1
_symmetry_cell_setting	triclinic
loop_
_symmetry_equiv_pos_as_xyz
  x,y,z
_cell_length_a	18.101398
_cell_length_b	12.594516
_cell_length_c	18.101389
_cell_angle_alpha	89.987481
_cell_angle_beta	89.990255
_cell_angle_gamma	90.011609
loop_
_atom_site_label
_atom_site_type_symbol
_atom_site_fract_x
_atom_site_fract_y
_atom_site_fract_z
Zn1	Zn	1.132198	-0.423980	-0.418581
Zn2	Zn	1.132127	-0.601948	-0.294752
Zn3	Zn	1.008357	-0.423970	-0.294774
Zn4	Zn	1.008341	-0.601903	-0.418572
O5	O	1.070256	-0.512950	-0.356670
O6	O	1.235822	-0.447611	-0.402149
O7	O	1.115686	-0.578353	-0.191122
O8	O	1.024822	-0.275025	-0.311210
O9	O	1.235769	-0.578363	-0.311173
O10	O	1.115808	-0.275033	-0.402170
O11	O	1.024753	-0.447593	-0.191138
O12	O	0.904722	-0.447550	-0.311201
O13	O	1.024794	-0.578287	-0.522206
O14	O	0.904710	-0.578277	-0.402155
O15	O	1.115791	-0.447567	-0.522213
O16	O	1.115669	-0.750888	-0.311165
O17	O	1.024724	-0.750855	-0.402135
C18	C	0.877845	-0.512908	-0.356680
C19	C	0.795531	-0.512916	-0.356702
C20	C	0.496440	-0.512979	-0.356671
C21	C	0.527782	-0.595626	-0.413615
C22	C	0.613401	-0.595367	-0.413849
C23	C	0.644823	-0.512949	-0.356687
C24	C	0.613748	-0.400845	-0.378006
C25	C	0.528103	-0.401342	-0.378411
C26	C	0.527993	-0.541446	-0.278270
C27	C	0.613643	-0.543906	-0.278690
C28	C	0.728682	-0.512925	-0.356694
C29	C	0.412581	-0.512995	-0.356666
C30	C	1.070207	-0.789491	-0.356663
C31	C	1.070254	-0.907797	-0.356684
C32	C	1.020784	-0.977071	-0.406128
C33	C	1.002743	-1.047911	-0.338555
C34	C	1.088363	-1.047755	-0.424269
C35	C	1.052177	-0.977079	-0.289075
C36	C	1.137829	-0.976917	-0.374835
C37	C	1.119813	-1.047725	-0.307215
C38	C	1.263418	-0.512993	-0.356660
C39	C	1.345732	-0.513011	-0.356656
C40	C	1.070299	-0.512923	-0.549832
C41	C	1.070317	-0.512912	-0.632146
C42	C	1.070325	-0.235329	-0.356693
C43	C	1.070354	-0.117024	-0.356703
C44	C	1.070360	-0.512712	-0.931237
C45	C	1.012909	-0.594696	-0.899908
C46	C	1.013065	-0.595076	-0.814289
C47	C	1.070338	-0.512811	-0.782854
C48	C	1.148369	-0.543267	-0.813942
C49	C	1.148049	-0.543805	-0.899588
C50	C	1.050458	-0.400091	-0.899658
C51	C	1.048722	-0.400742	-0.814008
C52	C	1.070330	-0.512865	-0.698995
C53	C	1.070373	-0.512661	-1.015097
C54	C	1.070256	-0.512900	-0.164259
C55	C	1.070381	-0.512612	-0.081946
H56	H	0.507182	-0.679029	-0.400403
H57	H	0.955202	-0.576017	-0.793270
C58	C	1.031449	-0.935317	-0.211851
C59	C	0.956231	-0.964301	-0.177577
C60	C	0.935501	-0.922535	-0.100356
C61	C	0.989990	-0.851786	-0.057408
C62	C	1.065213	-0.822799	-0.091682
C63	C	1.085943	-0.864565	-0.168903
H64	H	0.915891	-1.016677	-0.209370
H65	H	0.879816	-0.943994	-0.074985
H66	H	0.974645	-0.820868	-0.000244
H67	H	1.105554	-0.770423	-0.059889
H68	H	1.141628	-0.843106	-0.194274
H69	H	0.634100	-0.337599	-0.337825
C70	C	1.176380	-1.089399	-0.250678
C71	C	1.168067	-1.061253	-0.168311
C72	C	1.224627	-1.102937	-0.111771
C73	C	1.289500	-1.172766	-0.137598
C74	C	1.297816	-1.200916	-0.219968
C75	C	1.241256	-1.159232	-0.276508
H76	H	1.120042	-1.009558	-0.149190
H77	H	1.218471	-1.082098	-0.050795
H78	H	1.331369	-1.203623	-0.095743
H79	H	1.345842	-1.252611	-0.239090
H80	H	1.247413	-1.180071	-0.337484
C81	C	0.964172	-0.935146	-0.462532
C82	C	0.971604	-0.964606	-0.544759
C83	C	0.914990	-0.922679	-0.601158
C84	C	0.850944	-0.851292	-0.575330
C85	C	0.843509	-0.821828	-0.493098
C86	C	0.900123	-0.863755	-0.436699
H87	H	1.019017	-1.017455	-0.563883
H88	H	0.920494	-0.944491	-0.662032
H89	H	0.809035	-0.820256	-0.617080
H90	H	0.796096	-0.768980	-0.473975
H91	H	0.894619	-0.841943	-0.375826
H92	H	0.635208	-0.376262	-0.434697
C93	C	1.030485	-0.706787	-0.928980
C94	C	0.981832	-0.801538	-0.906037
C95	C	0.999412	-0.913628	-0.935107
C96	C	1.065646	-0.930969	-0.987121
C97	C	1.114303	-0.836215	-1.010068
C98	C	1.096723	-0.724124	-0.980997
H99	H	0.932798	-0.788704	-0.867530
H100	H	0.963392	-0.983771	-0.918120
H101	H	1.078659	-1.013945	-1.008641
H102	H	1.163337	-0.849049	-1.048574
H103	H	1.132743	-0.653982	-0.997984
C104	C	1.214948	-0.934749	-0.395595
C105	C	1.248899	-0.962543	-0.471163
C106	C	1.326018	-0.920372	-0.491933
C107	C	1.369187	-0.850406	-0.437134
C108	C	1.335236	-0.822608	-0.361561
C109	C	1.258117	-0.864779	-0.340791
H110	H	1.216943	-1.014339	-0.511733
H111	H	1.351151	-0.940950	-0.547878
H112	H	1.426275	-0.819188	-0.452509
H113	H	1.367192	-0.770812	-0.320991
H114	H	1.232984	-0.844201	-0.284846
C115	C	1.030854	-0.707836	-0.786615
C116	C	1.044967	-0.797816	-0.842445
C117	C	1.062759	-0.910581	-0.814771
C118	C	1.066438	-0.933364	-0.731266
C119	C	1.052325	-0.843381	-0.675431
C120	C	1.034532	-0.730617	-0.703105
H121	H	1.042243	-0.780953	-0.904264
H122	H	1.073207	-0.977192	-0.856104
H123	H	1.079609	-1.016839	-0.710780
H124	H	1.055048	-0.860245	-0.613612
H125	H	1.024085	-0.664006	-0.661772
H126	H	1.192306	-0.486684	-0.920313
H127	H	1.164918	-0.626132	-0.919572
H128	H	1.103639	-1.078800	-0.481416
C129	C	1.207755	-0.465137	-0.786441
C130	C	1.186034	-0.372552	-0.735313
C131	C	1.245418	-0.294418	-0.707814
C132	C	1.326523	-0.308870	-0.731443
C133	C	1.348248	-0.401460	-0.782574
C134	C	1.288864	-0.479593	-0.810073
H135	H	1.125991	-0.361850	-0.717819
H136	H	1.229335	-0.225877	-0.669963
H137	H	1.370483	-0.251031	-0.711087
H138	H	1.408291	-0.412162	-0.800068
H139	H	1.304947	-0.548134	-0.847924
C140	C	0.498732	-0.570505	-0.491642
C141	C	0.446724	-0.475355	-0.503825
C142	C	0.417674	-0.450228	-0.581851
C143	C	0.440632	-0.520252	-0.647694
C144	C	0.492642	-0.615408	-0.635512
C145	C	0.521692	-0.640534	-0.557486
H146	H	0.429727	-0.423513	-0.455083
H147	H	0.379173	-0.379787	-0.590868
H148	H	0.419127	-0.501652	-0.705453
H149	H	0.509639	-0.667249	-0.684254
H150	H	0.560194	-0.710976	-0.548469
H151	H	1.165529	-0.624719	-0.792502
C152	C	0.971148	-0.369708	-0.786556
C153	C	0.955860	-0.360188	-0.703130
C154	C	0.878285	-0.329161	-0.675673
C155	C	0.815998	-0.307654	-0.731643
C156	C	0.831284	-0.317174	-0.815074
C157	C	0.908859	-0.348201	-0.842531
H158	H	1.001970	-0.376109	-0.661694
H159	H	0.866970	-0.322113	-0.613912
H160	H	0.758573	-0.284686	-0.711317
H161	H	0.785174	-0.301253	-0.856510
H162	H	0.920174	-0.355249	-0.904292
C163	C	0.498810	-0.649982	-0.252086
C164	C	0.445944	-0.714152	-0.301565
C165	C	0.416760	-0.822692	-0.275391
C166	C	0.440442	-0.867061	-0.199736
C167	C	0.493310	-0.802890	-0.150251
C168	C	0.522494	-0.694350	-0.176426
H169	H	0.428412	-0.681308	-0.357574
H170	H	0.377624	-0.870195	-0.312023
H171	H	0.418838	-0.947409	-0.180360
H172	H	0.510842	-0.835734	-0.094243
H173	H	0.561630	-0.646847	-0.139794
C174	C	0.641088	-0.655351	-0.256971
C175	C	0.724513	-0.677263	-0.250296
C176	C	0.751967	-0.788706	-0.228582
C177	C	0.695996	-0.878238	-0.213542
C178	C	0.612566	-0.856328	-0.220216
C179	C	0.585112	-0.744885	-0.241930
H180	H	0.765951	-0.610984	-0.261430
H181	H	0.813728	-0.804924	-0.223641
H182	H	0.716320	-0.960735	-0.197467
H183	H	0.571129	-0.922607	-0.209082
H184	H	0.523352	-0.728666	-0.246871
C185	C	1.106981	-0.317568	-0.927029
C186	C	1.170883	-0.352131	-0.977779
C187	C	1.227409	-0.269619	-1.005153
C188	C	1.220034	-0.152543	-0.981778
C189	C	1.156129	-0.117973	-0.931026
C190	C	1.099603	-0.200486	-0.903651
H191	H	1.176346	-0.438803	-0.995085
H192	H	1.274716	-0.295210	-1.042724
H193	H	1.261878	-0.091462	-1.002043
H194	H	1.150667	-0.031301	-0.913720
H195	H	1.052297	-0.174895	-0.866081
C196	C	0.501125	-0.368730	-0.455839
C197	C	0.522899	-0.435375	-0.523749
C198	C	0.495925	-0.402766	-0.601179
C199	C	0.447178	-0.303511	-0.610699
C200	C	0.425401	-0.236860	-0.542787
C201	C	0.452374	-0.269469	-0.465357
H202	H	0.558987	-0.508855	-0.516703
H203	H	0.512046	-0.452106	-0.651452
H204	H	0.427210	-0.279372	-0.668018
H205	H	0.389313	-0.163380	-0.549833
H206	H	0.436254	-0.220129	-0.415084
H207	H	1.087511	-0.336416	-0.792609
H208	H	0.634411	-0.678498	-0.400488
C209	C	0.642533	-0.468488	-0.218291
C210	C	0.695175	-0.377060	-0.238828
C211	C	0.724065	-0.301633	-0.178431
C212	C	0.700314	-0.317634	-0.097497
C213	C	0.647669	-0.409066	-0.076955
C214	C	0.618779	-0.484493	-0.137352
H215	H	0.712760	-0.365211	-0.298744
H216	H	0.763036	-0.233949	-0.193638
H217	H	0.721700	-0.261799	-0.052787
H218	H	0.630084	-0.420915	-0.017039
H219	H	0.579807	-0.552177	-0.122146
H220	H	0.507723	-0.481246	-0.235842
H221	H	0.954873	-0.575832	-0.920507
H222	H	0.633900	-0.576533	-0.471939
H223	H	0.994546	-0.372346	-0.921256
C224	C	0.925604	-1.090046	-0.317819
C225	C	0.858345	-1.062199	-0.366161
C226	C	0.781204	-1.104330	-0.345430
C227	C	0.771323	-1.174308	-0.276358
C228	C	0.838584	-1.202159	-0.228012
C229	C	0.915724	-1.160027	-0.248742
H230	H	0.865657	-1.010394	-0.417296
H231	H	0.731413	-1.083713	-0.381220
H232	H	0.714219	-1.205496	-0.261012
H233	H	0.831271	-1.253964	-0.176876
H234	H	0.965515	-1.180644	-0.212953
H235	H	0.507369	-0.337558	-0.338837
