data_functionalizedCrystal
_audit_creation_method	'MofGen! by Chris Wilmer'
_symmetry_space_group_name_H-M	'P1'
_symmetry_Int_Tables_number	1
_symmetry_cell_setting	triclinic
loop_
_symmetry_equiv_pos_as_xyz
  x,y,z
_cell_length_a	9.016244
_cell_length_b	14.519709
_cell_length_c	10.540539
_cell_angle_alpha	84.102818
_cell_angle_beta	89.999933
_cell_angle_gamma	89.998272
loop_
_atom_site_label
_atom_site_type_symbol
_atom_site_fract_x
_atom_site_fract_y
_atom_site_fract_z
O1	O	0.123140	-1.224768	-0.166392
O2	O	0.623140	-0.724768	0.333608
O3	O	0.123184	-0.956397	-0.185988
O4	O	0.623184	-0.456397	0.314012
O5	O	0.123159	-1.096705	0.008579
O6	O	0.623159	-0.596705	0.508579
O7	O	0.123165	-1.084460	-0.360959
O8	O	0.623165	-0.584460	0.139041
O9	O	-0.123522	-1.096685	0.008574
O10	O	0.376478	-0.596685	0.508574
O11	O	-0.123496	-0.956376	-0.185992
O12	O	0.376504	-0.456376	0.314008
O13	O	-0.123541	-1.224748	-0.166397
O14	O	0.376459	-0.724748	0.333603
Cu15	Cu	-0.146043	-1.090560	-0.176195
Cu16	Cu	0.353957	-0.590560	0.323805
Cu17	Cu	0.145686	-1.090584	-0.176190
Cu18	Cu	0.645686	-0.590584	0.323810
O19	O	-0.123516	-1.084439	-0.360964
O20	O	0.376484	-0.584439	0.139036
C21	C	-0.000150	-0.922022	-0.185077
C22	C	0.499850	-0.422022	0.314923
C23	C	-0.000133	-0.819626	-0.182340
C24	C	0.499867	-0.319626	0.317660
N25	N	-0.351229	-1.090550	-0.176198
N26	N	0.148771	-0.590550	0.323802
C27	C	-0.000178	-1.095777	0.055870
C28	C	0.499822	-0.595777	0.555870
C29	C	-0.000170	-1.093029	0.196790
C30	C	0.499830	-0.593029	0.696790
C31	C	-0.586248	-1.015263	-0.279934
C32	C	-0.086248	-0.515263	0.220066
C33	C	-0.414357	-1.015430	-0.280318
C34	C	0.085643	-0.515430	0.219682
C35	C	-0.413583	-1.186970	-0.205347
C36	C	0.086417	-0.686970	0.294653
C37	C	-0.585528	-1.186559	-0.206081
C38	C	-0.085528	-0.686559	0.293919
C39	C	-0.585770	-1.070372	-0.042965
C40	C	-0.085770	-0.570372	0.457035
C41	C	-0.413816	-1.068160	-0.043853
C42	C	0.086184	-0.568160	0.456147
N43	N	0.350872	-1.090602	-0.176177
N44	N	0.850872	-0.590602	0.323823
C45	C	-0.000203	-1.259123	-0.167308
C46	C	0.499797	-0.759123	0.332692
C47	C	-0.000210	-1.361519	-0.170044
C48	C	0.499790	-0.861519	0.329956
C49	C	-0.000201	-0.444676	-0.172266
C50	C	0.499799	0.055324	0.327734
C51	C	-0.000181	-0.548999	-0.175063
C52	C	0.499819	-0.048999	0.324937
C53	C	-0.000165	-0.632148	-0.177303
C54	C	0.499835	-0.132148	0.322697
C55	C	-0.000149	-0.736477	-0.180101
C56	C	0.499851	-0.236477	0.319899
C57	C	-0.000175	-1.085368	-0.408255
C58	C	0.499825	-0.585368	0.091745
C59	C	-0.000174	-1.088115	-0.549175
C60	C	0.499826	-0.588115	-0.049175
C61	C	0.000401	-0.987750	0.379142
C62	C	0.500401	-0.487750	0.879142
C63	C	-0.000154	-0.990535	0.232553
C64	C	0.499846	-0.490535	0.732553
C65	C	-0.141045	-1.142342	0.258949
C66	C	0.358955	-0.642342	0.758949
C67	C	-0.141163	-1.138844	0.405458
C68	C	0.358837	-0.638844	0.905458
C69	C	0.139359	-1.140952	0.406002
C70	C	0.639359	-0.640952	0.906002
C71	C	0.141221	-1.141896	0.259030
C72	C	0.641221	-0.641896	0.759030
H73	H	-0.372201	-0.943787	-0.262918
H74	H	0.127799	-0.443787	0.237082
N75	N	0.152474	-1.240883	0.227968
N76	N	0.652474	-0.740883	0.727968
H77	H	0.151212	-1.283912	0.309584
H78	H	0.651212	-0.783912	0.809584
H79	H	0.248051	-1.249458	0.180613
H80	H	0.748051	-0.749458	0.680613
N81	N	-0.641059	-0.920062	-0.257274
N82	N	-0.141059	-0.420062	0.242726
H83	H	-0.707188	-0.924842	-0.179533
H84	H	-0.207188	-0.424842	0.320467
H85	H	-0.699013	-0.892759	-0.334102
H86	H	-0.199013	-0.392759	0.165898
H87	H	-0.629442	-1.028098	-0.378227
H88	H	-0.129442	-0.528098	0.121773
H89	H	-0.245868	-1.108070	0.215998
H90	H	0.254132	-0.608070	0.715998
N91	N	-0.359837	-1.032408	-0.411347
N92	N	0.140163	-0.532408	0.088653
H93	H	-0.447501	-1.039845	-0.469070
H94	H	0.052499	-0.539845	0.030930
H95	H	-0.297701	-1.090577	-0.404975
H96	H	0.202299	-0.590577	0.095025
H97	H	-0.626432	-1.125303	0.034250
H98	H	-0.126432	-0.625303	0.534250
N99	N	0.279265	-1.094167	0.204308
N100	N	0.779265	-0.594167	0.704308
H101	H	0.341818	-1.139801	0.161686
H102	H	0.841818	-0.639801	0.661686
H103	H	0.338002	-1.069604	0.275152
H104	H	0.838002	-0.569604	0.775152
H105	H	-0.625618	-1.204252	-0.303237
H106	H	-0.125618	-0.704252	0.196763
H107	H	0.101426	-0.947271	0.407331
H108	H	0.601426	-0.447271	0.907331
N109	N	-0.640638	-1.263076	-0.109763
N110	N	-0.140638	-0.763076	0.390237
H111	H	-0.553232	-1.296930	-0.067025
H112	H	-0.053232	-0.796930	0.432975
H113	H	-0.702736	-1.307811	-0.154441
H114	H	-0.202736	-0.807811	0.345559
H115	H	-0.373062	-0.997228	-0.021736
H116	H	0.126938	-0.497228	0.478264
N117	N	0.140608	-1.239015	0.469551
N118	N	0.640608	-0.739015	0.969551
H119	H	0.051280	-1.249207	0.527100
H120	H	0.551280	-0.749207	1.027100
H121	H	0.234119	-1.249696	0.521745
H122	H	0.734119	-0.749696	1.021745
H123	H	-0.629207	-1.001548	-0.014989
H124	H	-0.129207	-0.501548	0.485011
H125	H	-0.370507	-1.205058	-0.301400
H126	H	0.129493	-0.705058	0.198600
N127	N	-0.359433	-1.263052	-0.107925
N128	N	0.140567	-0.763052	0.392075
H129	H	-0.293800	-1.235682	-0.043805
H130	H	0.206200	-0.735682	0.456195
H131	H	-0.301115	-1.309766	-0.152258
H132	H	0.198885	-0.809766	0.347742
H133	H	-0.370849	-1.119397	0.036991
H134	H	0.129151	-0.619397	0.536991
N135	N	0.280795	-1.097029	0.447353
N136	N	0.780795	-0.597029	0.947353
H137	H	0.285461	-1.030488	0.408739
H138	H	0.785461	-0.530488	0.908739
H139	H	0.368830	-1.132073	0.417603
H140	H	0.868830	-0.632073	0.917603
H141	H	0.100831	-0.951732	0.189555
H142	H	0.600831	-0.451732	0.689555
N143	N	-0.280628	-1.090537	0.442314
N144	N	0.219372	-0.590537	0.942314
H145	H	-0.253319	-1.033619	0.484788
H146	H	0.246681	-0.533619	0.984788
H147	H	-0.340498	-1.133976	0.503373
H148	H	0.159502	-0.633976	1.003373
N149	N	-0.148022	-1.242040	0.230345
N150	N	0.351978	-0.742040	0.730345
H151	H	-0.239442	-1.272378	0.271220
H152	H	0.260558	-0.772378	0.771220
H153	H	-0.056717	-1.275894	0.265624
H154	H	0.443283	-0.775894	0.765624
N155	N	-0.132646	-0.934319	0.418595
N156	N	0.367354	-0.434319	0.918595
H157	H	-0.193290	-0.974844	0.482700
H158	H	0.306710	-0.474844	0.982700
H159	H	-0.195431	-0.914714	0.341155
H160	H	0.304569	-0.414714	0.841155
N161	N	-0.134130	-0.938765	0.176693
N162	N	0.365870	-0.438765	0.676693
H163	H	-0.129787	-0.872356	0.197085
H164	H	0.370213	-0.372356	0.697085
H165	H	-0.227256	-0.968968	0.214471
H166	H	0.272744	-0.468968	0.714471
H167	H	-0.147566	-1.212556	0.454179
H168	H	0.352434	-0.712556	0.954179
