data_functionalizedCrystal
_audit_creation_method	'MofGen! by Chris Wilmer'
_symmetry_space_group_name_H-M	'P1'
_symmetry_Int_Tables_number	1
_symmetry_cell_setting	triclinic
loop_
_symmetry_equiv_pos_as_xyz
  x,y,z
_cell_length_a	11.792241
_cell_length_b	16.109301
_cell_length_c	15.186229
_cell_angle_alpha	90.005167
_cell_angle_beta	90.000845
_cell_angle_gamma	96.172552
loop_
_atom_site_label
_atom_site_type_symbol
_atom_site_fract_x
_atom_site_fract_y
_atom_site_fract_z
O1	O	1.505908	-0.113953	-0.073146
O2	O	2.005908	0.386047	0.426854
O3	O	1.175464	-0.125697	-0.073167
O4	O	1.675464	0.374303	0.426833
O5	O	1.349763	0.001163	-0.073147
O6	O	1.849763	0.501163	0.426853
O7	O	1.331608	-0.240814	-0.073166
O8	O	1.831608	0.259186	0.426834
O9	O	1.349752	0.001165	0.073310
O10	O	1.849752	0.501165	0.573310
O11	O	1.175452	-0.125695	0.073290
O12	O	1.675452	0.374305	0.573290
O13	O	1.505896	-0.113951	0.073311
O14	O	2.005896	0.386049	0.573311
Zn15	Zn	1.340672	-0.119823	0.096554
Zn16	Zn	1.840672	0.380177	0.596554
Zn17	Zn	1.340687	-0.119826	-0.096410
Zn18	Zn	1.840687	0.380174	0.403590
O19	O	1.331596	-0.240812	0.073291
O20	O	1.831596	0.259188	0.573291
C21	C	1.133173	-0.124959	0.000059
C22	C	1.633173	0.375041	0.500059
C23	C	1.007179	-0.122751	0.000051
C24	C	1.507179	0.377249	0.500051
N25	N	1.340670	-0.119821	0.228247
N26	N	1.840670	0.380179	0.728247
C27	C	1.349022	0.032142	0.000082
C28	C	1.849022	0.532142	0.500082
C29	C	1.346817	0.124448	0.000083
C30	C	1.846817	0.624448	0.500083
C31	C	0.776502	-0.118690	0.000077
C32	C	1.276502	0.381310	0.500077
C33	C	0.904868	-0.120946	0.000063
C34	C	1.404868	0.379054	0.500063
C35	C	1.548186	-0.114690	0.000083
C36	C	2.048186	0.385310	0.500083
C37	C	1.674181	-0.116898	0.000085
C38	C	2.174181	0.383102	0.500085
C39	C	1.332338	-0.271791	0.000060
C40	C	1.832338	0.228209	0.500060
C41	C	1.334542	-0.364097	0.000053
C42	C	1.834542	0.135903	0.500053
C43	C	1.445116	0.346258	0.000075
C44	C	1.945116	0.846258	0.500075
C45	C	1.443036	0.432988	0.000068
C46	C	1.943036	0.932988	0.500068
C47	C	1.236235	0.414087	0.000058
C48	C	1.736235	0.914087	0.500058
C49	C	1.238317	0.327358	0.000060
C50	C	1.738317	0.827358	0.500060
C51	C	1.342761	0.293446	0.000072
C52	C	1.842761	0.793446	0.500072
C53	C	1.338599	0.466905	0.000064
C54	C	1.838599	0.966905	0.500064
C55	C	1.336342	0.560942	0.000056
C56	C	1.836342	1.060942	0.500056
C57	C	1.345018	0.199404	0.000079
C58	C	1.845018	0.699404	0.500079
N59	N	1.340699	-0.119821	-0.228102
N60	N	1.840699	0.380179	0.271898
C61	C	1.417876	-0.063666	0.453978
C62	C	1.917876	0.436334	0.953978
C63	C	1.417880	-0.063664	0.546168
C64	C	1.917880	0.436336	1.046168
C65	C	1.263484	-0.175978	0.546159
C66	C	1.763484	0.324022	1.046159
C67	C	1.263476	-0.175976	0.453971
C68	C	1.763476	0.324024	0.953971
C69	C	1.340678	-0.119821	0.407883
C70	C	1.840678	0.380179	0.907883
C71	C	1.340690	-0.119821	0.592261
C72	C	1.840690	0.380179	1.092261
C73	C	1.340693	-0.119820	0.692217
C74	C	1.840693	0.380180	1.192217
C75	C	1.340674	-0.119821	0.307921
C76	C	1.840674	0.380179	0.807921
H77	H	1.530161	0.318650	0.000084
H78	H	2.030161	0.818650	0.500084
H79	H	1.200629	-0.221700	0.583694
H80	H	1.700629	0.278300	1.083694
H81	H	1.200607	-0.221704	0.416438
H82	H	1.700607	0.278296	0.916438
O83	O	1.127915	0.270387	0.000066
O84	O	1.627915	0.770387	0.500066
H85	H	1.054939	0.308537	0.000073
H86	H	1.554939	0.808537	0.500073
H87	H	1.480739	-0.017938	0.583696
H88	H	1.980739	0.482062	1.083696
O89	O	1.553432	0.489952	0.000082
O90	O	2.053432	0.989952	0.500082
H91	H	1.626403	0.451797	0.000100
H92	H	2.126403	0.951797	0.500100
O93	O	1.123587	0.450662	0.000063
O94	O	1.623587	0.950662	0.500063
H95	H	1.139333	0.519843	0.000076
H96	H	1.639333	1.019843	0.500076
H97	H	1.480737	-0.017940	0.416456
H98	H	1.980737	0.482060	0.916456
