data_functionalizedCrystal
_audit_creation_method	'MofGen! by Chris Wilmer'
_symmetry_space_group_name_H-M	'P1'
_symmetry_Int_Tables_number	1
_symmetry_cell_setting	triclinic
loop_
_symmetry_equiv_pos_as_xyz
  x,y,z
_cell_length_a	21.295418
_cell_length_b	29.839131
_cell_length_c	29.839126
_cell_angle_alpha	89.970347
_cell_angle_beta	89.954791
_cell_angle_gamma	90.051038
loop_
_atom_site_label
_atom_site_type_symbol
_atom_site_fract_x
_atom_site_fract_y
_atom_site_fract_z
Zn1	Zn	0.962344	-0.178708	-0.254215
Zn2	Zn	1.462344	0.321292	0.245785
Zn3	Zn	0.962235	-0.253825	-0.179075
Zn4	Zn	1.462235	0.246175	0.320925
Zn5	Zn	0.857065	-0.178731	-0.179072
Zn6	Zn	1.357065	0.321269	0.320928
Zn7	Zn	0.857028	-0.253832	-0.254151
Zn8	Zn	1.357028	0.246168	0.245849
O9	O	0.909668	-0.216274	-0.216628
O10	O	1.409668	0.283726	0.283372
O11	O	1.050419	-0.188660	-0.244275
O12	O	1.550419	0.311340	0.255725
O13	O	0.948254	-0.243871	-0.116207
O14	O	1.448254	0.256129	0.383793
O15	O	0.871091	-0.115861	-0.189065
O16	O	1.371091	0.384139	0.310935
O17	O	1.050339	-0.243848	-0.189070
O18	O	1.550339	0.256152	0.310930
O19	O	0.948440	-0.115844	-0.244273
O20	O	1.448440	0.384156	0.255727
O21	O	0.870986	-0.188699	-0.116205
O22	O	1.370986	0.311301	0.383795
O23	O	0.768971	-0.188706	-0.189003
O24	O	1.268971	0.311294	0.310997
O25	O	0.871029	-0.243860	-0.317026
O26	O	1.371029	0.256140	0.182974
O27	O	0.768944	-0.243882	-0.244163
O28	O	1.268944	0.256118	0.255837
O29	O	0.948404	-0.188666	-0.317073
O30	O	1.448404	0.311334	0.182927
O31	O	0.948218	-0.316693	-0.189008
O32	O	1.448218	0.183307	0.310992
O33	O	0.870923	-0.316698	-0.244166
O34	O	1.370923	0.183302	0.255834
C35	C	0.746116	-0.216298	-0.216576
C36	C	1.246116	0.283702	0.283424
C37	C	0.676148	-0.216319	-0.216565
C38	C	1.176148	0.283681	0.283435
C39	C	0.643284	-0.245087	-0.245244
C40	C	1.143284	0.254913	0.254756
C41	C	0.577542	-0.245076	-0.245264
C42	C	1.077542	0.254924	0.254736
C43	C	0.544666	-0.216301	-0.216597
C44	C	1.044666	0.283699	0.283403
C45	C	0.577538	-0.187527	-0.187916
C46	C	1.077538	0.312473	0.312084
C47	C	0.643279	-0.187536	-0.187900
C48	C	1.143279	0.312464	0.312100
N49	N	0.441389	-0.212786	-0.177304
N50	N	0.941389	0.287214	0.322696
N51	N	0.378937	-0.212780	-0.177321
N52	N	0.878937	0.287220	0.322679
C53	C	0.346591	-0.216272	-0.216645
C54	C	0.846591	0.283728	0.283355
N55	N	0.379056	-0.219779	-0.255952
N56	N	0.879056	0.280221	0.244048
N57	N	0.441513	-0.219787	-0.255935
N58	N	0.941513	0.280213	0.244065
C59	C	0.473381	-0.216288	-0.216612
C60	C	0.973381	0.283712	0.283388
C61	C	0.242442	-0.245030	-0.245348
C62	C	0.742442	0.254970	0.254652
C63	C	0.176698	-0.245016	-0.245369
C64	C	0.676698	0.254984	0.254631
C65	C	0.176695	-0.187470	-0.188017
C66	C	0.676695	0.312530	0.311983
C67	C	0.242438	-0.187482	-0.188000
C68	C	0.742438	0.312518	0.312000
C69	C	0.275307	-0.216264	-0.216665
C70	C	0.775307	0.283736	0.283335
C71	C	0.909572	-0.332997	-0.216590
C72	C	1.409572	0.167003	0.283410
C73	C	0.909589	-0.382931	-0.216589
C74	C	1.409589	0.117069	0.283411
C75	C	0.949935	-0.692531	-0.245415
C76	C	1.449935	-0.192531	0.254585
C77	C	0.950003	-0.880204	-0.245442
C78	C	1.450003	-0.380204	0.254558
O79	O	0.984213	-0.904431	-0.269923
O80	O	1.484213	-0.404431	0.230077
N81	N	0.909775	-0.903716	-0.216678
N82	N	1.409775	-0.403716	0.283322
C83	C	0.869524	-0.880307	-0.187907
C84	C	1.369524	-0.380307	0.312093
O85	O	0.835305	-0.904612	-0.163445
O86	O	1.335305	-0.404612	0.336555
C87	C	0.869453	-0.692635	-0.187882
C88	C	1.369453	-0.192635	0.312118
C89	C	0.909688	-0.669125	-0.216645
C90	C	1.409688	-0.169125	0.283355
C91	C	0.990166	-0.669021	-0.274176
C92	C	1.490166	-0.169021	0.225824
C93	C	0.990151	-0.622105	-0.274168
C94	C	1.490151	-0.122105	0.225832
C95	C	0.949905	-0.598700	-0.245398
C96	C	1.449905	-0.098700	0.254602
C97	C	0.909673	-0.622210	-0.216637
C98	C	1.409673	-0.122210	0.283363
C99	C	0.829200	-0.669227	-0.159114
C100	C	1.329200	-0.169227	0.340886
C101	C	0.829184	-0.622306	-0.159111
C102	C	1.329184	-0.122306	0.340889
C103	C	0.869419	-0.598796	-0.187874
C104	C	1.369419	-0.098796	0.312126
C105	C	0.869412	-0.551889	-0.187858
C106	C	1.369412	-0.051889	0.312142
N107	N	0.909640	-0.528376	-0.216622
N108	N	1.409640	-0.028376	0.283378
C109	C	0.949886	-0.551782	-0.245392
C110	C	1.449886	-0.051782	0.254608
C111	C	0.869565	-0.978838	-0.187921
C112	C	1.369565	-0.478838	0.312079
C113	C	0.869584	-1.025756	-0.187926
C114	C	1.369584	-0.525756	0.312074
C115	C	0.950062	-1.025649	-0.245463
C116	C	1.450062	-0.525649	0.254537
C117	C	0.950046	-0.978730	-0.245455
C118	C	1.450046	-0.478730	0.254545
C119	C	0.909793	-0.955325	-0.216685
C120	C	1.409793	-0.455325	0.283315
C121	C	0.949852	-0.453256	-0.245371
C122	C	1.449852	0.046744	0.254629
C123	C	0.949835	-0.406336	-0.245359
C124	C	1.449835	0.093664	0.254641
C125	C	0.869355	-0.406447	-0.187824
C126	C	1.369355	0.093553	0.312176
C127	C	0.869374	-0.453363	-0.187835
C128	C	1.369374	0.046637	0.312165
C129	C	0.909624	-0.476766	-0.216612
C130	C	1.409624	0.023234	0.283388
O131	O	0.835215	-0.527632	-0.163393
O132	O	1.335215	-0.027632	0.336607
O133	O	0.984091	-0.527469	-0.269858
O134	O	1.484091	-0.027469	0.230142
C135	C	0.949950	-0.739446	-0.245424
C136	C	1.449950	-0.239446	0.254576
C137	C	0.909718	-0.762956	-0.216663
C138	C	1.409718	-0.262956	0.283337
C139	C	0.869472	-0.739551	-0.187893
C140	C	1.369472	-0.239551	0.312107
C141	C	0.909737	-0.809874	-0.216668
C142	C	1.409737	-0.309874	0.283332
C143	C	0.949983	-0.833279	-0.245438
C144	C	1.449983	-0.333279	0.254562
C145	C	0.990211	-0.809767	-0.274203
C146	C	1.490211	-0.309767	0.225797
C147	C	0.990196	-0.762851	-0.274194
C148	C	1.490196	-0.262851	0.225806
C149	C	0.829244	-0.763063	-0.159129
C150	C	1.329244	-0.263063	0.340871
C151	C	0.829263	-0.809978	-0.159139
C152	C	1.329263	-0.309978	0.340861
C153	C	0.869509	-0.833384	-0.187909
C154	C	1.369509	-0.333384	0.312091
C155	C	1.073858	-0.216251	-0.216680
C156	C	1.573858	0.283749	0.283320
C157	C	1.143827	-0.216241	-0.216702
C158	C	1.643827	0.283759	0.283298
C159	C	0.909725	-0.216261	-0.333806
C160	C	1.409725	0.283739	0.166194
C161	C	0.909749	-0.216256	-0.383741
C162	C	1.409749	0.283744	0.116259
C163	C	0.909782	-0.099096	-0.216676
C164	C	1.409782	0.400904	0.283324
C165	C	0.909830	-0.049161	-0.216696
C166	C	1.409830	0.450839	0.283304
C167	C	0.949974	-0.244924	-0.740332
C168	C	1.449974	0.255076	-0.240332
C169	C	0.949975	-0.244955	-0.552659
C170	C	1.449975	0.255045	-0.052659
O171	O	0.984169	-0.269400	-0.528398
O172	O	1.484169	0.230600	-0.028398
N173	N	0.909746	-0.216234	-0.529186
N174	N	1.409746	0.283766	-0.029186
C175	C	0.869511	-0.187505	-0.552634
C176	C	1.369511	0.312495	-0.052634
O177	O	0.835289	-0.163080	-0.528363
O178	O	1.335289	0.336920	-0.028363
C179	C	0.869507	-0.187477	-0.740306
C180	C	1.369507	0.312523	-0.240306
C181	C	0.909743	-0.216196	-0.763777
C182	C	1.409743	0.283804	-0.263777
C183	C	0.990206	-0.273641	-0.763803
C184	C	1.490206	0.226359	-0.263803
C185	C	0.990208	-0.273631	-0.810718
C186	C	1.490208	0.226369	-0.310718
C187	C	0.949977	-0.244904	-0.834163
C188	C	1.449977	0.255096	-0.334163
C189	C	0.909745	-0.216186	-0.810693
C190	C	1.409745	0.283814	-0.310693
C191	C	0.829269	-0.158751	-0.763754
C192	C	1.329269	0.341249	-0.263754
C193	C	0.829271	-0.158747	-0.810675
C194	C	1.329271	0.341253	-0.310675
C195	C	0.869507	-0.187466	-0.834145
C196	C	1.369507	0.312534	-0.334145
C197	C	0.869516	-0.187449	-0.881053
C198	C	1.369516	0.312551	-0.381053
N199	N	0.909745	-0.216170	-0.904526
N200	N	1.409745	0.283830	-0.404526
C201	C	0.949976	-0.244897	-0.881081
C202	C	1.449976	0.255103	-0.381081
C203	C	0.869516	-0.187522	-0.454104
C204	C	1.369516	0.312478	0.045896
C205	C	0.869518	-0.187528	-0.407186
C206	C	1.369518	0.312472	0.092814
C207	C	0.949981	-0.244979	-0.407214
C208	C	1.449981	0.255021	0.092786
C209	C	0.949983	-0.244969	-0.454133
C210	C	1.449983	0.255031	0.045867
C211	C	0.909745	-0.216243	-0.477577
C212	C	1.409745	0.283757	0.022423
C213	C	0.949977	-0.244874	-0.979607
C214	C	1.449977	0.255126	-0.479607
C215	C	0.949977	-0.244861	-1.026527
C216	C	1.449977	0.255139	-0.526527
C217	C	0.869511	-0.187412	-1.026494
C218	C	1.369511	0.312588	-0.526494
C219	C	0.869513	-0.187424	-0.979579
C220	C	1.369513	0.312576	-0.479579
C221	C	0.909748	-0.216159	-0.956136
C222	C	1.409748	0.283841	-0.456136
O223	O	0.835334	-0.163020	-0.905343
O224	O	1.335334	0.336980	-0.405343
O225	O	0.984183	-0.269326	-0.905361
O226	O	1.484183	0.230674	-0.405361
C227	C	0.949972	-0.244933	-0.693417
C228	C	1.449972	0.255067	-0.193417
C229	C	0.909740	-0.216216	-0.669946
C230	C	1.409740	0.283784	-0.169946
C231	C	0.869509	-0.187488	-0.693391
C232	C	1.369509	0.312512	-0.193391
C233	C	0.909741	-0.216222	-0.623028
C234	C	1.409741	0.283778	-0.123028
C235	C	0.949972	-0.244950	-0.599583
C236	C	1.449972	0.255050	-0.099583
C237	C	0.990201	-0.273671	-0.623056
C238	C	1.490201	0.226329	-0.123056
C239	C	0.990203	-0.273661	-0.669972
C240	C	1.490203	0.226339	-0.169972
C241	C	0.829280	-0.158768	-0.669918
C242	C	1.329280	0.341232	-0.169918
C243	C	0.829282	-0.158779	-0.623002
C244	C	1.329282	0.341221	-0.123002
C245	C	0.869513	-0.187507	-0.599558
C246	C	1.369513	0.312493	-0.099558
C247	C	0.909648	-0.216254	-0.099906
C248	C	1.409648	0.283746	0.400094
C249	C	0.909746	-0.216133	-0.049971
C250	C	1.409746	0.283867	0.450029
H251	H	0.670037	-0.164108	-0.164546
H252	H	1.170037	0.335892	0.335454
H253	H	0.550778	-0.268502	-0.268619
H254	H	1.050778	0.231498	0.231381
H255	H	0.269205	-0.268465	-0.268691
H256	H	0.769205	0.231535	0.231309
O257	O	1.029143	-0.599223	-0.302135
O258	O	1.529143	-0.099223	0.197865
C259	C	0.993275	-0.572105	-0.331125
C260	C	1.493275	-0.072105	0.168875
H261	H	0.945581	-0.565118	-0.315234
H262	H	1.445581	-0.065118	0.184766
H263	H	1.018904	-0.539090	-0.337172
H264	H	1.518904	-0.039090	0.162828
H265	H	0.986335	-0.590176	-0.364410
H266	H	1.486335	-0.090176	0.135590
O267	O	0.830341	-0.159634	-0.476822
O268	O	1.330341	0.340366	0.023178
C269	C	0.767595	-0.169472	-0.465319
C270	C	1.267595	0.330528	0.034681
H271	H	0.766283	-0.186754	-0.431249
H272	H	1.266283	0.313246	0.068751
H273	H	0.739400	-0.137054	-0.463699
H274	H	1.239400	0.362946	0.036301
H275	H	0.746362	-0.192563	-0.491705
H276	H	1.246362	0.307437	0.008295
O277	O	0.144869	-0.273007	-0.273243
O278	O	0.644869	0.226993	0.226757
C279	C	0.187981	-0.298404	-0.298544
C280	C	0.687981	0.201596	0.201456
H281	H	0.234811	-0.299937	-0.280128
H282	H	0.734811	0.200063	0.219872
H283	H	0.168939	-0.333805	-0.303267
H284	H	0.668939	0.166195	0.196733
H285	H	0.195053	-0.282007	-0.332697
H286	H	0.695053	0.217993	0.167303
H287	H	0.149929	-0.164039	-0.164678
H288	H	0.649929	0.335961	0.335322
O289	O	0.545579	-0.159641	-0.160019
O290	O	1.045579	0.340359	0.339981
C291	C	0.507459	-0.185173	-0.130968
C292	C	1.007459	0.314827	0.369032
H293	H	0.527214	-0.220555	-0.128121
H294	H	1.027214	0.279445	0.371879
H295	H	0.506686	-0.168876	-0.096426
H296	H	1.006686	0.331124	0.403574
H297	H	0.457653	-0.186734	-0.144865
H298	H	0.957653	0.313266	0.355135
O299	O	0.274268	-0.159524	-0.160096
O300	O	0.774268	0.340476	0.339904
C301	C	0.231157	-0.134115	-0.134806
C302	C	0.731157	0.365885	0.365194
H303	H	0.184264	-0.152508	-0.133225
H304	H	0.684264	0.347492	0.366775
H305	H	0.250103	-0.129274	-0.099414
H306	H	0.750103	0.370726	0.400586
H307	H	0.224243	-0.100018	-0.151326
H308	H	0.724243	0.399982	0.348674
O309	O	0.790117	-0.832744	-0.131182
O310	O	1.290117	-0.332744	0.368818
C311	C	0.754604	-0.802019	-0.105782
C312	C	1.254604	-0.302019	0.394218
H313	H	0.752411	-0.768564	-0.124177
H314	H	1.252411	-0.268564	0.375823
H315	H	0.705011	-0.815613	-0.100951
H316	H	1.205011	-0.315613	0.399049
H317	H	0.777673	-0.797035	-0.071680
H318	H	1.277673	-0.297035	0.428320
H319	H	0.982740	-0.268369	-0.388117
H320	H	1.482740	0.231631	0.111883
H321	H	0.982601	-0.387196	-0.268781
H322	H	1.482601	0.112804	0.231219
O323	O	1.029210	-0.740037	-0.302201
O324	O	1.529210	-0.240037	0.197799
C325	C	1.015434	-0.751497	-0.346964
C326	C	1.515434	-0.251497	0.153036
H327	H	0.965146	-0.764431	-0.349186
H328	H	1.465146	-0.264431	0.150814
H329	H	1.020835	-0.720627	-0.369164
H330	H	1.520835	-0.220627	0.130836
H331	H	1.049180	-0.778700	-0.358738
H332	H	1.549180	-0.278700	0.141262
H333	H	0.982744	-0.268248	-1.045634
H334	H	1.482744	0.231752	-0.545634
O335	O	0.830552	-0.956056	-0.159948
O336	O	1.330552	-0.456056	0.340052
C337	C	0.866399	-0.928914	-0.130952
C338	C	1.366399	-0.428914	0.369048
H339	H	0.914088	-0.921830	-0.146840
H340	H	1.414088	-0.421830	0.353160
H341	H	0.840745	-0.895950	-0.124899
H342	H	1.340745	-0.395950	0.375101
H343	H	0.873350	-0.947015	-0.097670
H344	H	1.373350	-0.447015	0.402330
H345	H	1.022967	-0.297047	-0.689078
H346	H	1.522967	0.202953	-0.189078
H347	H	0.982623	-0.472305	-0.268808
H348	H	1.482623	0.027695	0.231192
H349	H	1.022939	-0.688072	-0.297607
H350	H	1.522939	-0.188072	0.202393
H351	H	0.796517	-0.135375	-0.689002
H352	H	1.296517	0.364625	-0.189002
O353	O	0.790081	-0.740311	-0.131242
O354	O	1.290081	-0.240311	0.368758
C355	C	0.749401	-0.713177	-0.156771
C356	C	1.249401	-0.213177	0.343229
H357	H	0.745492	-0.727289	-0.192155
H358	H	1.245492	-0.227289	0.307845
H359	H	0.700970	-0.712701	-0.140475
H360	H	1.200970	-0.212701	0.359525
H361	H	0.768847	-0.677601	-0.158325
H362	H	1.268847	-0.177601	0.341675
H363	H	0.982744	-0.268270	-0.960526
H364	H	1.482744	0.231730	-0.460526
H365	H	1.022970	-0.297019	-0.829824
H366	H	1.522970	0.202981	-0.329824
H367	H	0.982809	-0.959591	-0.268876
H368	H	1.482809	-0.459591	0.231124
O369	O	0.989065	-1.048409	-0.273460
O370	O	1.489065	-0.548409	0.226540
C371	C	0.953206	-1.075567	-0.302434
C372	C	1.453206	-0.575567	0.197566
H373	H	0.903622	-1.061463	-0.305158
H374	H	1.403622	-0.561463	0.194842
H375	H	0.975943	-1.076063	-0.337030
H376	H	1.475943	-0.576063	0.162970
H377	H	0.951057	-1.111135	-0.288543
H378	H	1.451057	-0.611135	0.211457
O379	O	1.029351	-0.301563	-0.741102
O380	O	1.529351	0.198437	-0.241102
C381	C	1.064842	-0.326912	-0.771888
C382	C	1.564842	0.173088	-0.271888
H383	H	1.067026	-0.308502	-0.805339
H384	H	1.567026	0.191498	-0.305339
H385	H	1.114440	-0.331696	-0.758367
H386	H	1.614440	0.168304	-0.258367
H387	H	1.041762	-0.361036	-0.776853
H388	H	1.541762	0.138964	-0.276853
H389	H	0.836827	-1.044894	-0.164500
H390	H	1.336827	-0.544894	0.335500
H391	H	0.796404	-0.603252	-0.135684
H392	H	1.296404	-0.103252	0.364316
H393	H	0.836616	-0.472506	-0.164410
H394	H	1.336616	0.027494	0.335590
H395	H	0.982746	-0.268356	-0.473239
H396	H	1.482746	0.231644	0.026761
H397	H	0.796504	-0.135353	-0.829760
H398	H	1.296504	0.364647	-0.329760
O399	O	0.790052	-0.691988	-0.131160
O400	O	1.290052	-0.191988	0.368840
C401	C	0.754540	-0.661260	-0.105765
C402	C	1.254540	-0.161260	0.394235
H403	H	0.752348	-0.627806	-0.124163
H404	H	1.252348	-0.127806	0.375837
H405	H	0.704946	-0.674852	-0.100933
H406	H	1.204946	-0.174852	0.399067
H407	H	0.777607	-0.656273	-0.071663
H408	H	1.277607	-0.156273	0.428337
O409	O	0.830406	-0.159689	-0.384340
O410	O	1.330406	0.340311	0.115660
C411	C	0.789713	-0.185277	-0.357177
C412	C	1.289713	0.314723	0.142823
H413	H	0.811884	-0.219319	-0.350145
H414	H	1.311884	0.280681	0.149855
H415	H	0.781288	-0.166983	-0.324188
H416	H	1.281288	0.333017	0.175812
H417	H	0.743061	-0.190221	-0.375234
H418	H	1.243061	0.309779	0.124766
O419	O	1.029190	-0.301625	-0.600257
O420	O	1.529190	0.198375	-0.100257
C421	C	0.993315	-0.330640	-0.573081
C422	C	1.493315	0.169360	-0.073081
H423	H	0.943737	-0.333420	-0.587197
H424	H	1.443737	0.166580	-0.087197
H425	H	1.016047	-0.365211	-0.572543
H426	H	1.516047	0.134789	-0.072543
H427	H	0.991153	-0.316753	-0.537528
H428	H	1.491153	0.183247	-0.037528
H429	H	0.796503	-0.135365	-0.744652
H430	H	1.296503	0.364635	-0.244652
O431	O	0.830280	-0.383637	-0.159922
O432	O	1.330280	0.116363	0.340078
C433	C	0.838909	-0.337186	-0.166079
C434	C	1.338909	0.162814	0.333921
H435	H	0.859506	-0.330743	-0.200766
H436	H	1.359506	0.169257	0.299234
H437	H	0.791754	-0.319392	-0.162993
H438	H	1.291754	0.180608	0.337007
H439	H	0.872441	-0.323861	-0.139459
H440	H	1.372441	0.176139	0.360541
O441	O	1.029215	-0.832529	-0.302199
O442	O	1.529215	-0.332529	0.197801
C443	C	0.993355	-0.859685	-0.331174
C444	C	1.493355	-0.359685	0.168826
H445	H	0.943773	-0.845578	-0.333901
H446	H	1.443773	-0.345578	0.166099
H447	H	1.016096	-0.860183	-0.365769
H448	H	1.516096	-0.360183	0.134231
H449	H	0.991201	-0.895252	-0.317282
H450	H	1.491201	-0.395252	0.182718
O451	O	0.830370	-0.159512	-0.956846
O452	O	1.330370	0.340488	-0.456846
C453	C	0.794875	-0.134146	-0.987603
C454	C	1.294875	0.365854	-0.487603
H455	H	0.792689	-0.152538	-1.021042
H456	H	1.292689	0.347462	-0.521042
H457	H	0.745279	-0.129370	-0.974025
H458	H	1.245279	0.370630	-0.474025
H459	H	0.817954	-0.100019	-0.992611
H460	H	1.317954	0.399981	-0.492611
H461	H	0.836758	-0.164022	-1.045592
H462	H	1.336758	0.335978	-0.545592
O463	O	0.790135	-0.130864	-0.600275
O464	O	1.290135	0.369136	-0.100275
C465	C	0.754640	-0.105502	-0.631035
C466	C	1.254640	0.394498	-0.131035
H467	H	0.752454	-0.123898	-0.664472
H468	H	1.252454	0.376102	-0.164472
H469	H	0.705043	-0.100724	-0.617459
H470	H	1.205043	0.399276	-0.117459
H471	H	0.777719	-0.071375	-0.636047
H472	H	1.277719	0.428625	-0.136047
H473	H	0.670042	-0.268524	-0.268585
H474	H	1.170042	0.231476	0.231415
