data_functionalizedCrystal
_audit_creation_method	'MofGen! by Chris Wilmer'
_symmetry_space_group_name_H-M	'P1'
_symmetry_Int_Tables_number	1
_symmetry_cell_setting	triclinic
loop_
_symmetry_equiv_pos_as_xyz
  x,y,z
_cell_length_a	13.032831
_cell_length_b	16.120484
_cell_length_c	13.033109
_cell_angle_alpha	100.385715
_cell_angle_beta	76.665514
_cell_angle_gamma	86.078521
loop_
_atom_site_label
_atom_site_type_symbol
_atom_site_fract_x
_atom_site_fract_y
_atom_site_fract_z
Zn1	Zn	1.666952	-0.586070	-0.839395
Zn2	Zn	2.000286	-0.252736	-0.506062
Zn3	Zn	2.333619	0.080597	-0.172728
Zn4	Zn	1.637544	-0.705199	-0.668483
Zn5	Zn	1.970877	-0.371866	-0.335150
Zn6	Zn	2.304210	-0.038533	-0.001817
Zn7	Zn	1.469071	-0.545521	-0.637006
Zn8	Zn	1.802404	-0.212188	-0.303673
Zn9	Zn	2.135738	0.121146	0.029661
Zn10	Zn	1.482563	-0.705126	-0.823523
Zn11	Zn	1.815896	-0.371792	-0.490190
Zn12	Zn	2.149229	-0.038459	-0.156857
O13	O	1.564032	-0.635479	-0.742102
O14	O	1.897366	-0.302146	-0.408769
O15	O	2.230699	0.031188	-0.075435
O16	O	1.810726	-0.618873	-0.836539
O17	O	2.144059	-0.285540	-0.503206
O18	O	2.477392	0.047794	-0.169872
O19	O	1.597241	-0.667078	-0.514723
O20	O	1.930575	-0.333745	-0.181389
O21	O	2.263908	-0.000412	0.151944
O22	O	1.501982	-0.434248	-0.657323
O23	O	1.835315	-0.100915	-0.323989
O24	O	2.168648	0.232418	0.009344
O25	O	1.789119	-0.706397	-0.710971
O26	O	2.122452	-0.373064	-0.377638
O27	O	2.455786	-0.039730	-0.044304
O28	O	1.647364	-0.464039	-0.806017
O29	O	1.980698	-0.130706	-0.472684
O30	O	2.314031	0.202627	-0.139350
O31	O	1.473465	-0.549763	-0.491596
O32	O	1.806799	-0.216430	-0.158263
O33	O	2.140132	0.116903	0.175070
O34	O	1.323186	-0.549692	-0.641932
O35	O	1.656520	-0.216359	-0.308599
O36	O	1.989853	0.116974	0.024734
O37	O	1.524976	-0.706272	-0.975214
O38	O	1.858310	-0.372938	-0.641881
O39	O	2.191643	-0.039605	-0.308547
O40	O	1.333099	-0.666953	-0.778966
O41	O	1.666432	-0.333620	-0.445632
O42	O	1.999766	-0.000287	-0.112299
O43	O	1.660447	-0.618802	-0.986875
O44	O	1.993780	-0.285468	-0.653542
O45	O	2.327113	0.047865	-0.320208
O46	O	1.610324	-0.821841	-0.695581
O47	O	1.943657	-0.488507	-0.362247
O48	O	2.276991	-0.155174	-0.028914
O49	O	1.496460	-0.821787	-0.809488
O50	O	1.829793	-0.488454	-0.476154
O51	O	2.163127	-0.155120	-0.142821
C52	C	1.289852	-0.603915	-0.705312
C53	C	1.623186	-0.270582	-0.371978
C54	C	1.956519	0.062751	-0.038645
C55	C	1.172559	-0.590435	-0.689599
C56	C	1.505892	-0.257102	-0.356266
C57	C	1.839226	0.076231	-0.022932
C58	C	1.551696	-0.852066	-0.754255
C59	C	1.885030	-0.518733	-0.420921
C60	C	2.218363	-0.185399	-0.087588
C61	C	1.546520	-0.944738	-0.759502
C62	C	1.879853	-0.611405	-0.426169
C63	C	2.213186	-0.278072	-0.092836
C64	C	1.125182	-0.642514	-0.750302
C65	C	1.458515	-0.309181	-0.416969
C66	C	1.791848	0.024152	-0.083636
C67	C	1.003953	-0.628583	-0.734064
C68	C	1.337286	-0.295250	-0.400731
C69	C	1.670619	0.038083	-0.067397
C70	C	1.537077	-1.114414	-0.769106
C71	C	1.870410	-0.781081	-0.435773
C72	C	2.203744	-0.447748	-0.102439
C73	C	1.591179	-1.155726	-0.715141
C74	C	1.924512	-0.822393	-0.381807
C75	C	2.257846	-0.489060	-0.048474
C76	C	1.585925	-1.250140	-0.720484
C77	C	1.919259	-0.916807	-0.387151
C78	C	2.252592	-0.583473	-0.053818
C79	C	1.542330	-1.019992	-0.763764
C80	C	1.875663	-0.686659	-0.430430
C81	C	2.208996	-0.353326	-0.097097
C82	C	1.839283	-0.667166	-0.779037
C83	C	2.172617	-0.333833	-0.445703
C84	C	2.505950	-0.000500	-0.112370
C85	C	1.956579	-0.680669	-0.794776
C86	C	2.289912	-0.347336	-0.461443
C87	C	2.623245	-0.014003	-0.128109
C88	C	1.597497	-0.667052	-1.020915
C89	C	1.930830	-0.333718	-0.687581
C90	C	2.264164	-0.000385	-0.354248
C91	C	1.611758	-0.680506	-1.139728
C92	C	1.945091	-0.347173	-0.806395
C93	C	2.278424	-0.013839	-0.473061
C94	C	1.576448	-0.418052	-0.729929
C95	C	1.909782	-0.084718	-0.396596
C96	C	2.243115	0.248615	-0.063262
C97	C	1.581739	-0.325397	-0.724742
C98	C	1.915073	0.007936	-0.391408
C99	C	2.248406	0.341269	-0.058075
C100	C	1.556873	-0.628459	-1.181256
C101	C	1.890207	-0.295126	-0.847923
C102	C	2.223540	0.038207	-0.514590
C103	C	1.571611	-0.642364	-1.304056
C104	C	1.904945	-0.309031	-0.970723
C105	C	2.238278	0.024303	-0.637389
C106	C	1.530762	-0.603976	-0.464379
C107	C	1.864096	-0.270642	-0.131045
C108	C	2.197429	0.062691	0.202288
C109	C	1.516719	-0.590310	-0.345580
C110	C	1.850053	-0.256977	-0.012247
C111	C	2.183386	0.076357	0.321087
H112	H	1.174370	-0.697412	-0.814298
H113	H	1.507703	-0.364079	-0.480965
H114	H	1.841037	-0.030745	-0.147631
C115	C	1.649836	-0.716469	-1.378827
C116	C	1.983169	-0.383136	-1.045494
C117	C	2.316503	-0.049803	-0.712160
H118	H	1.649486	-0.716090	-1.451554
H119	H	1.982819	-0.382756	-1.118220
H120	H	2.316152	-0.049423	-0.784887
H121	H	1.629025	-0.768651	-1.361651
H122	H	1.962358	-0.435317	-1.028317
H123	H	2.295692	-0.101984	-0.694984
H124	H	1.719266	-0.710373	-1.369417
H125	H	2.052600	-0.377040	-1.036084
H126	H	2.385933	-0.043706	-0.702751
C127	C	1.659048	-1.107716	-0.647270
C128	C	1.992381	-0.774383	-0.313937
C129	C	2.325714	-0.441049	0.019396
H130	H	1.653700	-1.049634	-0.652516
H131	H	1.987034	-0.716300	-0.319182
H132	H	2.320367	-0.382967	0.014151
H133	H	1.731059	-1.131802	-0.673240
H134	H	2.064392	-0.798468	-0.339906
H135	H	2.397725	-0.465135	-0.006573
H136	H	1.634224	-1.112077	-0.574165
H137	H	1.967557	-0.778744	-0.240831
H138	H	2.300891	-0.445411	0.092502
C139	C	1.106121	-0.516266	-0.603153
C140	C	1.439455	-0.182932	-0.269820
C141	C	1.772788	0.150401	0.063513
H142	H	1.033357	-0.516635	-0.603577
H143	H	1.366690	-0.183301	-0.270244
H144	H	1.700023	0.150032	0.063090
H145	H	1.129210	-0.464115	-0.618169
H146	H	1.462543	-0.130782	-0.284836
H147	H	1.795876	0.202552	0.048498
H148	H	1.114799	-0.522299	-0.534374
H149	H	1.448132	-0.188966	-0.201040
H150	H	1.781466	0.144368	0.132293
H151	H	1.458814	-0.535454	-1.290226
H152	H	1.792147	-0.202121	-0.956893
H153	H	2.125480	0.131212	-0.623560
H154	H	1.669656	-0.735360	-1.195086
H155	H	2.002989	-0.402026	-0.861753
H156	H	2.336322	-0.068693	-0.528419
H157	H	1.498970	-0.573609	-1.125898
H158	H	1.832303	-0.240276	-0.792565
H159	H	2.165637	0.093057	-0.459231
H160	H	1.486816	-1.149951	-0.819315
H161	H	1.820150	-0.816617	-0.485982
H162	H	2.153483	-0.483284	-0.152649
H163	H	0.954769	-0.573676	-0.670072
H164	H	1.288103	-0.240343	-0.336738
H165	H	1.621436	0.092990	-0.003405
C166	C	1.023007	-0.754855	-0.881210
C167	C	1.356341	-0.421522	-0.547877
C168	C	1.689674	-0.088189	-0.214543
H169	H	1.095770	-0.754498	-0.880774
H170	H	1.429103	-0.421164	-0.547440
H171	H	1.762437	-0.087831	-0.214107
H172	H	1.014334	-0.748845	-0.949993
H173	H	1.347668	-0.415512	-0.616660
H174	H	1.681001	-0.082178	-0.283327
H175	H	0.999907	-0.807000	-0.866164
H176	H	1.333241	-0.473666	-0.532831
H177	H	1.666574	-0.140333	-0.199497
