data_functionalizedCrystal
_audit_creation_method	'MofGen! by Chris Wilmer'
_symmetry_space_group_name_H-M	'P1'
_symmetry_Int_Tables_number	1
_symmetry_cell_setting	triclinic
loop_
_symmetry_equiv_pos_as_xyz
  x,y,z
_cell_length_a	16.625546
_cell_length_b	25.639242
_cell_length_c	16.625539
_cell_angle_alpha	89.972728
_cell_angle_beta	90.028532
_cell_angle_gamma	89.982506
loop_
_atom_site_label
_atom_site_type_symbol
_atom_site_fract_x
_atom_site_fract_y
_atom_site_fract_z
Zn1	Zn	-0.321122	-0.799303	0.456117
Zn2	Zn	0.178878	-0.299303	0.956117
Zn3	Zn	-0.455961	-0.799246	0.321280
Zn4	Zn	0.044039	-0.299246	0.821280
Zn5	Zn	-0.321134	-0.711874	0.321274
Zn6	Zn	0.178866	-0.211874	0.821274
Zn7	Zn	-0.455905	-0.711849	0.456045
Zn8	Zn	0.044095	-0.211849	0.956045
O9	O	-0.388530	-0.755568	0.388679
O10	O	0.111470	-0.255568	0.888679
O11	O	-0.339027	-0.872461	0.438263
O12	O	0.160973	-0.372461	0.938263
O13	O	-0.438104	-0.787642	0.208446
O14	O	0.061896	-0.287642	0.708446
O15	O	-0.208300	-0.723506	0.339189
O16	O	0.291700	-0.223506	0.839189
O17	O	-0.438092	-0.872418	0.339199
O18	O	0.061908	-0.372418	0.839199
O19	O	-0.208291	-0.787740	0.438258
O20	O	0.291709	-0.287740	0.938258
O21	O	-0.339048	-0.723450	0.208442
O22	O	0.160952	-0.223450	0.708442
O23	O	-0.338993	-0.638705	0.339119
O24	O	0.161007	-0.138705	0.839119
O25	O	-0.437997	-0.723464	0.568887
O26	O	0.062003	-0.223464	1.068887
O27	O	-0.438009	-0.638687	0.438135
O28	O	0.061991	-0.138687	0.938135
O29	O	-0.338973	-0.787716	0.568940
O30	O	0.161027	-0.287716	1.068940
O31	O	-0.568786	-0.787618	0.339129
O32	O	-0.068786	-0.287618	0.839129
O33	O	-0.568744	-0.723408	0.438141
O34	O	-0.068744	-0.223408	0.938141
C35	C	-0.388497	-0.619725	0.388619
C36	C	0.111503	-0.119725	0.888619
C37	C	-0.388502	-0.561611	0.388613
C38	C	0.111498	-0.061611	0.888613
C39	C	-0.598021	-0.755518	0.388645
C40	C	-0.098021	-0.255518	0.888645
C41	C	-0.687642	-0.755545	0.388658
C42	C	-0.187642	-0.255545	0.888658
C43	C	-1.015818	-0.755636	0.388742
C44	C	-0.515818	-0.255636	0.888742
C45	C	-0.924509	-0.755609	0.388721
C46	C	-0.424509	-0.255609	0.888721
C47	C	-0.851733	-0.755590	0.388699
C48	C	-0.351733	-0.255590	0.888699
C49	C	-0.760419	-0.755564	0.388679
C50	C	-0.260419	-0.255564	0.888679
C51	C	-0.440166	-0.201248	0.440167
C52	C	0.059834	0.298752	0.940167
C53	C	-0.440170	-0.146643	0.440177
C54	C	0.059830	0.353357	0.940177
O55	O	-0.484062	-0.118406	0.483975
O56	O	0.015938	0.381594	0.983975
N57	N	-0.388544	-0.119329	0.388707
N58	N	0.111456	0.380671	0.888707
C59	C	-0.336904	-0.146621	0.337229
C60	C	0.163096	0.353379	0.837229
O61	O	-0.292991	-0.118374	0.293451
O62	O	0.207009	0.381626	0.793451
C63	C	-0.336896	-0.201225	0.337223
C64	C	0.163104	0.298775	0.837223
C65	C	-0.388532	-0.228536	0.388691
C66	C	0.111468	0.271464	0.888691
C67	C	-0.491797	-0.228560	0.491631
C68	C	0.008203	0.271440	0.991631
C69	C	-0.491794	-0.283160	0.491619
C70	C	0.008206	0.216840	0.991619
C71	C	-0.440160	-0.310449	0.440143
C72	C	0.059840	0.189551	0.940143
C73	C	-0.388529	-0.283137	0.388679
C74	C	0.111471	0.216863	0.888679
C75	C	-0.285253	-0.228516	0.285750
C76	C	0.214747	0.271484	0.785750
C77	C	-0.285249	-0.283123	0.285748
C78	C	0.214751	0.216877	0.785748
C79	C	-0.336885	-0.310435	0.337216
C80	C	0.163115	0.189565	0.837216
C81	C	-0.336891	-0.365026	0.337191
C82	C	0.163109	0.134974	0.837191
N83	N	-0.388518	-0.392341	0.388661
N84	N	0.111482	0.107659	0.888661
C85	C	-0.440152	-0.365052	0.440137
C86	C	0.059848	0.134948	0.940137
C87	C	-0.336923	-0.031951	0.337246
C88	C	0.163077	0.468049	0.837246
C89	C	-0.336934	0.022652	0.337248
C90	C	0.163066	0.522652	0.837248
C91	C	-0.440200	0.022626	0.440197
C92	C	0.059800	0.522626	0.940197
C93	C	-0.440192	-0.031978	0.440191
C94	C	0.059808	0.468022	0.940191
C95	C	-0.388550	-0.059265	0.388716
C96	C	0.111450	0.440735	0.888716
C97	C	-0.440142	-0.479717	0.440107
C98	C	0.059858	0.020283	0.940107
C99	C	-0.440136	-0.534323	0.440089
C100	C	0.059864	-0.034323	0.940089
C101	C	-0.336868	-0.534292	0.337143
C102	C	0.163132	-0.034292	0.837143
C103	C	-0.336876	-0.479691	0.337158
C104	C	0.163124	0.020309	0.837158
C105	C	-0.388516	-0.452405	0.388647
C106	C	0.111484	0.047595	0.888647
O107	O	-0.293020	-0.393298	0.293418
O108	O	0.206980	0.106702	0.793418
O109	O	-0.484050	-0.393306	0.483915
O110	O	0.015950	0.106694	0.983915
C111	C	-0.178221	-0.755632	0.388731
C112	C	0.321779	-0.255632	0.888731
C113	C	-0.088600	-0.755659	0.388753
C114	C	0.411400	-0.255659	0.888753
C115	C	-0.388477	-0.755593	0.598988
C116	C	0.111523	-0.255593	1.098988
C117	C	-0.388454	-0.755604	0.688609
C118	C	0.111546	-0.255604	1.188609
C119	C	-0.388561	0.108059	0.388730
C120	C	0.111439	0.608059	0.888730
C121	C	-0.388566	0.049945	0.388727
C122	C	0.111434	0.549945	0.888727
C123	C	-0.388525	-0.755572	0.179188
C124	C	0.111475	-0.255572	0.679188
C125	C	-0.388321	-0.755663	0.089568
C126	C	0.111679	-0.255663	0.589568
C127	C	-0.388437	-0.755613	0.761392
C128	C	0.111563	-0.255613	1.261392
C129	C	-0.388407	-0.755625	0.852700
C130	C	0.111593	-0.255625	1.352700
C131	C	-0.388378	-0.755637	0.925477
C132	C	0.111622	-0.255637	1.425477
C133	C	-0.388349	-0.755650	1.016791
C134	C	0.111651	-0.255650	1.516791
H135	H	-0.482187	-0.556557	0.482000
H136	H	0.017813	-0.056557	0.982000
H137	H	-0.294832	-0.457453	0.295247
H138	H	0.205168	0.042547	0.795247
H139	H	-0.482190	-0.457507	0.482037
H140	H	0.017810	0.042493	0.982037
Br141	Br	-0.561871	-0.320218	0.561475
Br142	Br	-0.061871	0.179782	1.061475
Br143	Br	-0.266835	-0.068979	0.267376
Br144	Br	0.233165	0.431021	0.767376
Br145	Br	-0.561881	-0.191535	0.561502
Br146	Br	-0.061881	0.308465	1.061502
Br147	Br	-0.215167	-0.191464	0.215901
Br148	Br	0.284833	0.308536	0.715901
Br149	Br	-0.266867	0.059711	0.267383
Br150	Br	0.233133	0.559711	0.767383
H151	H	-0.243190	-0.305338	0.243835
H152	H	0.256810	0.194662	0.743835
H153	H	-0.294831	-0.556520	0.295230
H154	H	0.205169	-0.056520	0.795230
H155	H	-0.482237	-0.054211	0.482102
H156	H	0.017763	0.445789	0.982102
Br157	Br	-0.510269	0.059671	0.510065
Br158	Br	-0.010269	0.559671	1.010065
