data_functionalizedCrystal
_audit_creation_method	'MofGen! by Chris Wilmer'
_symmetry_space_group_name_H-M	'P1'
_symmetry_Int_Tables_number	1
_symmetry_cell_setting	triclinic
loop_
_symmetry_equiv_pos_as_xyz
  x,y,z
_cell_length_a	14.044220
_cell_length_b	15.625325
_cell_length_c	14.184680
_cell_angle_alpha	59.452443
_cell_angle_beta	104.390031
_cell_angle_gamma	88.490508
loop_
_atom_site_label
_atom_site_type_symbol
_atom_site_fract_x
_atom_site_fract_y
_atom_site_fract_z
O1	O	1.259182	0.216331	0.004612
O2	O	0.984010	0.207784	0.007747
O3	O	1.142297	0.069804	0.057929
O4	O	1.100895	0.354311	-0.045569
O5	O	1.095485	0.110566	-0.123755
O6	O	0.937198	0.248546	-0.173937
O7	O	1.212370	0.257093	-0.177072
Cu8	Cu	1.070509	0.256541	-0.192093
Cu9	Cu	1.125871	0.208335	0.022769
O10	O	1.054083	0.395073	-0.227253
C11	C	1.121656	0.053554	-0.019585
C12	C	1.129883	-0.055597	0.020129
C13	C	0.925636	0.224425	-0.081731
C14	C	0.821445	0.213271	-0.077663
C15	C	1.029377	-0.303475	-0.344454
C16	C	1.037117	-0.406042	-0.307118
C17	C	1.088149	-0.450469	-0.109057
C18	C	1.080409	-0.347902	-0.146377
C19	C	1.051023	-0.274413	-0.264076
C20	C	1.102055	-0.318840	-0.065999
C21	C	1.094321	-0.216283	-0.103315
C22	C	1.064939	-0.142788	-0.221010
C23	C	1.043289	-0.171856	-0.301393
C24	C	1.131448	-0.392332	0.051700
C25	C	1.153094	-0.363270	0.132078
C26	C	1.145353	-0.260711	0.094762
C27	C	1.115971	-0.187216	-0.022933
C28	C	1.167004	-0.231644	0.175145
C29	C	1.159269	-0.129086	0.137828
C30	C	1.108237	-0.084659	-0.060249
C31	C	0.630664	0.192888	-0.070268
C32	C	0.565714	0.271982	-0.099045
C33	C	0.459557	0.260641	-0.094930
C34	C	0.736831	0.204228	-0.074382
C35	C	1.270744	0.240451	-0.087591
C36	C	1.374938	0.251603	-0.091652
C37	C	1.074725	0.411322	-0.149737
C38	C	1.066499	0.520471	-0.189443
N39	N	1.031578	0.290447	-0.343216
C40	C	0.917307	0.390007	-0.536992
C41	C	0.946764	0.364340	-0.422620
C42	C	1.086972	0.242195	-0.378162
C43	C	1.057529	0.267855	-0.492534
C44	C	0.972696	0.341761	-0.571941
C45	C	1.112918	0.219610	-0.527482
C46	C	1.083475	0.245265	-0.641843
C47	C	0.998643	0.319165	-0.721255
C48	C	0.943252	0.367416	-0.686301
C49	C	1.197747	0.145699	-0.448072
C50	C	1.253136	0.097454	-0.483020
C51	C	1.223697	0.123113	-0.597385
C52	C	1.138865	0.197014	-0.676797
C53	C	1.279087	0.074863	-0.632338
C54	C	1.249644	0.100517	-0.746699
C55	C	1.109422	0.222669	-0.791157
N56	N	1.164810	0.174423	0.173894
H57	H	1.058646	-0.059281	-0.251391
H58	H	0.589835	0.348214	-0.126772
H59	H	1.177023	-0.423119	0.227909
H60	H	0.606543	0.116663	-0.042544
H61	H	1.040347	0.282857	-0.855818
H62	H	1.190938	-0.291494	0.270976
H63	H	1.176896	-0.105425	0.203280
H64	H	1.156042	0.182018	-0.313496
C65	C	0.880114	0.422423	-0.909277
C66	C	0.966271	0.347369	-0.846964
H67	H	0.860128	0.439829	-0.986882
H68	H	0.893838	0.480502	-0.906647
H69	H	0.827940	0.397829	-0.876570
H70	H	1.018448	0.371966	-0.879666
H71	H	0.952552	0.289279	-0.849601
C72	C	0.805205	0.487671	-0.478062
C73	C	0.885879	0.417385	-0.384209
H74	H	0.767623	0.520420	-0.454346
H75	H	0.763689	0.453803	-0.506705
H76	H	0.829595	0.536468	-0.536777
H77	H	0.861489	0.368583	-0.325496
H78	H	0.927402	0.451254	-0.355549
H79	H	1.348154	0.014681	-0.567669
C80	C	1.391197	-0.022806	-0.691273
C81	C	1.310520	0.047480	-0.785120
H82	H	1.428778	-0.055550	-0.714995
H83	H	1.366817	-0.071599	-0.632560
H84	H	1.432721	0.011069	-0.662632
H85	H	1.268991	0.013604	-0.813756
H86	H	1.334900	0.096279	-0.843853
C87	C	0.980530	-0.011302	-0.241963
C88	C	1.075908	-0.003858	-0.189626
H89	H	0.960571	0.038580	-0.321831
H90	H	0.934290	-0.000995	-0.208315
H91	H	0.982051	-0.076538	-0.231253
H92	H	1.074385	0.061375	-0.200329
H93	H	1.122159	-0.014158	-0.223285
H94	H	1.112078	-0.510317	-0.013226
H95	H	0.874178	0.427604	-0.750962
H96	H	0.848233	0.450195	-0.601653
H97	H	1.221714	0.124811	-0.354953
C98	C	1.319087	-0.063168	-0.306417
C99	C	1.346407	0.016257	-0.395721
H100	H	1.376679	-0.113280	-0.252520
H101	H	1.271780	-0.091996	-0.336894
H102	H	1.290288	-0.038092	-0.269262
H103	H	1.375199	-0.008818	-0.432882
H104	H	1.393731	0.045088	-0.365243
C105	C	0.993566	-0.138225	-0.493451
C106	C	1.010953	-0.091064	-0.430772
H107	H	0.973602	-0.088346	-0.573319
H108	H	0.942178	-0.176518	-0.475710
H109	H	1.053135	-0.181783	-0.473842
H110	H	0.951382	-0.047511	-0.450374
H111	H	1.062345	-0.052753	-0.448521
H112	H	1.019484	-0.429697	-0.372581
C113	C	1.170353	-0.563435	0.213004
C114	C	1.139971	-0.505068	0.092725
H115	H	1.175626	-0.633033	0.238328
H116	H	1.122543	-0.545809	0.240182
H117	H	1.233507	-0.551059	0.242074
H118	H	1.076814	-0.517439	0.063655
H119	H	1.187783	-0.522701	0.065536
H120	H	1.005416	-0.243632	-0.440297
