data_functionalizedCrystal
_audit_creation_method	'MofGen! by Chris Wilmer'
_symmetry_space_group_name_H-M	'P1'
_symmetry_Int_Tables_number	1
_symmetry_cell_setting	triclinic
loop_
_symmetry_equiv_pos_as_xyz
  x,y,z
_cell_length_a	22.863218
_cell_length_b	22.862586
_cell_length_c	22.858745
_cell_angle_alpha	60.006856
_cell_angle_beta	60.013818
_cell_angle_gamma	59.991795
loop_
_atom_site_label
_atom_site_type_symbol
_atom_site_fract_x
_atom_site_fract_y
_atom_site_fract_z
O1	O	0.081006	-0.854581	0.714630
O2	O	0.030492	-0.665350	0.575795
O3	O	0.150314	-0.785089	0.575706
O4	O	-0.038816	-0.734841	0.714718
O5	O	0.190066	-0.745348	0.615369
O6	O	0.070244	-0.625609	0.615458
O7	O	0.120758	-0.814840	0.754293
Zn8	Zn	0.101812	-0.713914	0.691173
Zn9	Zn	0.049438	-0.766275	0.638915
O10	O	0.000936	-0.695100	0.754381
N11	N	0.137558	-0.678184	0.726840
N12	N	0.013698	-0.802011	0.603247
C13	C	0.187224	-0.518558	0.776483
C14	C	0.187235	-0.628552	0.776467
C15	C	0.214753	-0.601061	0.803961
C16	C	0.334724	-0.580392	0.740801
C17	C	0.409718	-0.605392	0.715784
C18	C	0.409746	-0.726732	0.762051
C19	C	0.334754	-0.701730	0.787070
C20	C	0.205297	-0.481049	0.702756
C21	C	0.180267	-0.406048	0.677779
C22	C	0.119099	-0.406071	0.800259
C23	C	0.144128	-0.481071	0.825236
C24	C	0.113501	-0.610437	0.794610
C25	C	0.088492	-0.635428	0.769607
C26	C	0.210943	-0.696652	0.708337
C27	C	0.235956	-0.671660	0.733331
C28	C	0.113585	-0.610461	0.923980
C29	C	0.088635	-0.635476	0.998978
C30	C	0.211128	-0.696714	0.998930
C31	C	0.236077	-0.671700	0.923930
C32	C	0.187303	-0.628571	0.886457
C33	C	0.297246	-0.628559	0.776441
C34	C	-0.117796	-0.823430	0.581283
C35	C	-0.007671	-0.823587	0.471446
C36	C	-0.007879	-0.933535	0.581483
C37	C	-0.007861	-0.823583	0.581554
C38	C	-0.035301	-0.851035	0.553942
N39	N	0.446162	-0.678198	0.726752
O40	O	0.691234	-0.690164	0.550341
O41	O	0.691462	-0.829422	0.739388
O42	O	0.691373	-0.829102	0.619485
O43	O	0.691323	-0.690484	0.670244
O44	O	0.572233	-0.789455	0.659278
O45	O	0.572322	-0.789775	0.779181
O46	O	0.572094	-0.650517	0.590134
Zn47	Zn	0.553292	-0.713851	0.690976
Zn48	Zn	0.710264	-0.766088	0.638547
O49	O	0.572183	-0.650837	0.710037
N50	N	0.817394	-0.801741	0.602763
N51	N	0.137538	-0.369628	0.726874
O52	O	-0.038795	-0.124419	0.714761
O53	O	0.150256	-0.124417	0.575522
O54	O	0.030331	-0.124432	0.575860
O55	O	0.081131	-0.124404	0.714423
O56	O	0.070086	-0.243584	0.615573
O57	O	0.190011	-0.243569	0.615236
O58	O	0.000960	-0.243571	0.754474
Zn59	Zn	0.101797	-0.262488	0.691160
Zn60	Zn	0.049419	-0.105500	0.638836
O61	O	0.120885	-0.243556	0.754137
N62	N	0.013669	0.001640	0.603123
N63	N	0.137749	-0.678230	1.035381
O64	O	0.125655	-0.854547	1.280566
O65	O	-0.013567	-0.665426	1.280590
O66	O	-0.013245	-0.785328	1.280537
O67	O	0.125333	-0.734644	1.280618
O68	O	0.026456	-0.745599	1.161392
O69	O	0.026134	-0.625697	1.161444
O70	O	0.165355	-0.814817	1.161420
Zn71	Zn	0.102048	-0.713949	1.142516
Zn72	Zn	0.049740	-0.766294	1.299495
O73	O	0.165033	-0.694915	1.161473
N74	N	0.014038	-0.802020	1.406629
C75	C	0.045634	-0.621635	0.576499
C76	C	0.194019	-0.769918	0.576389
C77	C	0.105616	-0.858555	0.753588
C78	C	-0.042769	-0.710272	0.753698
C79	C	0.631920	-0.828776	0.783102
C80	C	0.631811	-0.828380	0.634616
C81	C	0.631633	-0.651162	0.546422
C82	C	0.631745	-0.651559	0.694907
C83	C	0.193900	-0.183846	0.576155
C84	C	0.045437	-0.184012	0.576622
C85	C	-0.042734	-0.183994	0.753792
C86	C	0.105780	-0.183977	0.753375
C87	C	-0.012889	-0.621735	1.221020
C88	C	-0.012483	-0.770211	1.220931
C89	C	0.164678	-0.858508	1.220991
C90	C	0.164280	-0.710023	1.221052
H91	H	0.028603	-0.620718	1.029520
O92	O	0.032367	-0.184073	0.524784
C93	C	-0.052768	-0.184092	0.492038
C94	C	-0.038061	-0.184025	0.550808
H95	H	-0.109713	-0.184038	0.513052
H96	H	-0.013147	-0.233981	0.476404
H97	H	-0.046344	-0.134251	0.443124
H98	H	-0.044495	-0.233833	0.599761
H99	H	-0.077680	-0.134104	0.566381
H100	H	0.296108	-0.686456	0.893383
H101	H	0.631735	-0.608016	0.705768
H102	H	0.207816	-0.699179	1.221068
O103	O	0.631871	-0.880918	0.847902
C104	C	0.570295	-0.959343	0.953020
C105	C	0.570250	-0.900281	0.879657
H106	H	0.520487	-0.975026	0.978708
H107	H	0.570261	-0.938605	0.989198
H108	H	0.620205	-1.008161	0.945439
H109	H	0.520348	-0.851443	0.887170
H110	H	0.570321	-0.921075	0.843504
H111	H	0.631832	-0.871926	0.623751
H112	H	0.250848	-0.731818	1.029432
O113	O	0.631576	-0.599087	0.481605
C114	C	0.631410	-0.565756	0.363624
C115	C	0.631493	-0.624799	0.436990
H116	H	0.631327	-0.586516	0.327538
H117	H	0.681252	-0.550099	0.337824
H118	H	0.581533	-0.516915	0.371218
H119	H	0.681336	-0.673678	0.429459
H120	H	0.581617	-0.640394	0.462765
O121	O	0.258565	-0.183416	0.523938
C122	C	0.376396	-0.182862	0.490440
C123	C	0.303191	-0.183333	0.549632
H124	H	0.412502	-0.182810	0.511196
H125	H	0.368607	-0.132878	0.441737
H126	H	0.402290	-0.232606	0.474577
H127	H	0.277257	-0.133622	0.565556
H128	H	0.311027	-0.233349	0.598296
H129	H	0.116656	-0.183968	0.796904
H130	H	-0.097093	-0.699562	0.797349
H131	H	0.034845	-0.567275	0.532897
H132	H	-0.097027	-0.183996	0.797505
H133	H	0.248339	-0.780632	0.532734
O134	O	-0.064969	-0.556909	1.221058
C135	C	-0.098259	-0.438877	1.221050
C136	C	-0.039222	-0.512265	1.221024
H137	H	-0.077459	-0.402757	1.221007
H138	H	-0.147116	-0.446352	1.270915
H139	H	-0.113895	-0.413176	1.171190
H140	H	-0.023525	-0.538007	1.270850
H141	H	0.009597	-0.504743	1.171126
H142	H	-0.056000	-0.781036	1.220859
O143	O	0.216803	-0.923300	1.220886
C144	C	0.292576	-1.009562	1.159108
C145	C	0.233530	-0.936181	1.159147
H146	H	0.306129	-1.019993	1.109190
H147	H	0.272895	-1.053340	1.208921
H148	H	0.342458	-1.009655	1.159163
H149	H	0.183629	-0.936018	1.159066
H150	H	0.253270	-0.892435	1.109338
O151	O	0.066176	-0.568671	0.887611
C152	C	-0.030912	-0.559054	0.864730
C153	C	0.022744	-0.606459	0.905951
H154	H	-0.066051	-0.589581	0.879554
H155	H	-0.000453	-0.544304	0.804674
H156	H	-0.065989	-0.508153	0.879482
H157	H	0.057835	-0.657390	0.891258
H158	H	-0.007759	-0.621151	0.965996
O159	O	0.016861	-0.617925	0.787351
C160	C	-0.095420	-0.623638	0.882465
C161	C	-0.014307	-0.643517	0.862469
H162	H	-0.120645	-0.644306	0.943199
H163	H	-0.104963	-0.648929	0.857241
H164	H	-0.120708	-0.562908	0.861754
H165	H	0.011035	-0.704236	0.883177
H166	H	-0.004815	-0.618175	0.887684
O167	O	0.258370	-0.738496	0.666422
C168	C	0.382471	-0.796622	0.608330
C169	C	0.328837	-0.749215	0.655793
H170	H	0.439455	-0.805316	0.599734
H171	H	0.373852	-0.769143	0.554362
H172	H	0.373807	-0.850552	0.635802
H173	H	0.337469	-0.695278	0.628385
H174	H	0.337470	-0.776750	0.709758
O175	O	0.066241	-0.568474	0.836430
C176	C	0.023348	-0.454297	0.849796
C177	C	0.076922	-0.501750	0.802371
H178	H	0.031955	-0.400335	0.822271
H179	H	0.032024	-0.481732	0.903732
H180	H	-0.033639	-0.445679	0.858476
H181	H	0.133930	-0.510384	0.793633
H182	H	0.068183	-0.474293	0.748464
H183	H	0.304240	-0.740958	0.816091
O184	O	0.446076	-0.797838	0.772452
C185	C	0.438196	-0.915547	0.820933
C186	C	0.396965	-0.835044	0.809218
H187	H	0.398507	-0.945650	0.850645
H188	H	0.473315	-0.936715	0.853932
H189	H	0.473298	-0.923866	0.766841
H190	H	0.361824	-0.826663	0.863276
H191	H	0.361890	-0.813916	0.776185
O192	O	0.446093	-0.558557	0.681053
C193	C	0.468947	-0.454571	0.579996
C194	C	0.427720	-0.507574	0.619249
H195	H	0.454097	-0.413329	0.530028
H196	H	0.528998	-0.484965	0.563883
H197	H	0.454228	-0.426151	0.617054
H198	H	0.442379	-0.536009	0.582231
H199	H	0.367679	-0.477141	0.635373
O200	O	0.298213	-0.509343	0.730603
C201	C	0.213597	-0.418588	0.785870
C202	C	0.254889	-0.499073	0.797521
H203	H	0.178571	-0.410258	0.839964
H204	H	0.178412	-0.397442	0.752946
H205	H	0.253285	-0.388470	0.756067
H206	H	0.215253	-0.529249	0.827343
H207	H	0.290085	-0.520163	0.830416
H208	H	0.240384	-0.511568	0.663058
H209	H	0.084019	-0.375548	0.839959
O210	O	0.197788	-0.369684	0.606141
C211	C	0.191963	-0.346675	0.493833
C212	C	0.172089	-0.387912	0.574948
H213	H	0.171181	-0.361385	0.468592
H214	H	0.252683	-0.361428	0.468490
H215	H	0.166694	-0.286635	0.484375
H216	H	0.197310	-0.447961	0.584471
H217	H	0.111364	-0.373099	0.600251
O218	O	0.126659	-0.517481	0.896865
C219	C	0.132399	-0.540422	1.009190
C220	C	0.152245	-0.499158	0.928080
H221	H	0.153064	-0.525612	1.034455
H222	H	0.157710	-0.600475	1.018710
H223	H	0.071679	-0.525691	1.034462
H224	H	0.212956	-0.513829	0.902755
H225	H	0.126883	-0.439116	0.918612
O226	O	0.118589	-0.923454	0.805520
C227	C	0.203607	-1.041385	0.838495
C228	C	0.189005	-0.967927	0.779614
H229	H	0.260541	-1.077357	0.817577
H230	H	0.163955	-1.067246	0.854156
H231	H	0.197144	-1.033914	0.887369
H232	H	0.195477	-0.975335	0.730702
H233	H	0.228653	-0.942090	0.764014
H234	H	0.295996	-0.686402	0.718551
