data_functionalizedCrystal
_audit_creation_method	'MofGen! by Chris Wilmer'
_symmetry_space_group_name_H-M	'P1'
_symmetry_Int_Tables_number	1
_symmetry_cell_setting	triclinic
loop_
_symmetry_equiv_pos_as_xyz
  x,y,z
_cell_length_a	10.065918
_cell_length_b	10.908937
_cell_length_c	10.967953
_cell_angle_alpha	72.684254
_cell_angle_beta	92.224360
_cell_angle_gamma	78.564768
loop_
_atom_site_label
_atom_site_type_symbol
_atom_site_fract_x
_atom_site_fract_y
_atom_site_fract_z
O1	O	-0.154586	1.725199	-0.174907
O2	O	0.178747	2.058532	0.158427
O3	O	0.512080	2.391866	0.491760
O4	O	-0.132314	1.348871	-0.080161
O5	O	0.201019	1.682205	0.253173
O6	O	0.534353	2.015538	0.586506
O7	O	-0.185471	1.551910	-0.306221
O8	O	0.147862	1.885243	0.027112
O9	O	0.481196	2.218576	0.360445
O10	O	-0.101429	1.522161	0.051154
O11	O	0.231904	1.855494	0.384487
O12	O	0.565237	2.188827	0.717821
O13	O	0.035647	1.518924	-0.331183
O14	O	0.368980	1.852257	0.002150
O15	O	0.702313	2.185591	0.335484
O16	O	0.088803	1.315886	-0.105122
O17	O	0.422137	1.649219	0.228211
O18	O	0.755470	1.982553	0.561544
O19	O	0.066531	1.692213	-0.199869
O20	O	0.399865	2.025547	0.133465
O21	O	0.733198	2.358880	0.466798
Zn22	Zn	0.112774	1.498813	-0.156459
Zn23	Zn	0.446108	1.832146	0.176875
Zn24	Zn	0.779441	2.165479	0.510208
Zn25	Zn	-0.178557	1.542272	-0.123570
Zn26	Zn	0.154776	1.875606	0.209763
Zn27	Zn	0.488109	2.208939	0.543096
O28	O	0.119688	1.489175	0.026192
O29	O	0.453021	1.822509	0.359525
O30	O	0.786355	2.155842	0.692859
C31	C	-0.019674	1.284307	-0.083787
C32	C	0.313659	1.617640	0.249546
C33	C	0.646992	1.950974	0.582880
C34	C	-0.013477	1.141069	-0.057418
C35	C	0.319857	1.474403	0.275915
C36	C	0.653190	1.807736	0.609248
N37	N	0.311600	1.469162	-0.178907
N38	N	0.644933	1.802495	0.154427
N39	N	0.978267	2.135828	0.487760
C40	C	-0.085505	1.535745	-0.363735
C41	C	0.247828	1.869079	-0.030402
C42	C	0.581161	2.202412	0.302931
C43	C	-0.117069	1.536709	-0.497916
C44	C	0.216265	1.870042	-0.164583
C45	C	0.549598	2.203375	0.168750
N46	N	-0.377386	1.571934	-0.101134
N47	N	-0.044052	1.905267	0.232199
N48	N	0.289281	2.238600	0.565532
C49	C	0.543656	1.509148	-0.148662
C50	C	0.876990	1.842481	0.184671
C51	C	1.210323	2.175815	0.518004
C52	C	0.390556	1.531956	-0.131372
C53	C	0.723889	1.865290	0.201962
C54	C	1.057223	2.198623	0.535295
C55	C	-0.046112	1.756778	-0.196242
C56	C	0.287222	2.090112	0.137092
C57	C	0.620555	2.423445	0.470425
C58	C	-0.052318	1.900017	-0.222610
C59	C	0.281016	2.233351	0.110724
C60	C	0.614349	2.566684	0.444057
C61	C	-0.036102	2.094563	-0.153635
C62	C	0.297231	2.427896	0.179698
C63	C	0.630565	2.761230	0.513032
C64	C	-0.029689	1.946518	-0.126380
C65	C	0.303644	2.279851	0.206954
C66	C	0.636977	2.613185	0.540287
C67	C	-0.049199	1.521038	-0.709354
C68	C	0.284134	1.854371	-0.376021
C69	C	0.617468	2.187704	-0.042688
C70	C	-0.016581	1.520047	-0.570672
C71	C	0.316752	1.853380	-0.237339
C72	C	0.650086	2.186714	0.095995
C73	C	0.019720	1.505340	0.083706
C74	C	0.353053	1.838673	0.417040
C75	C	0.686386	2.172007	0.750373
C76	C	0.051274	1.504378	0.217888
C77	C	0.384607	1.837711	0.551222
C78	C	0.717941	2.171045	0.884555
H79	H	0.589401	1.438515	-0.202160
H80	H	0.922734	1.771849	0.131173
H81	H	1.256067	2.105182	0.464507
H82	H	0.161440	1.489388	-0.741734
H83	H	0.494773	1.822721	-0.408400
H84	H	0.828107	2.156055	-0.075067
Br85	Br	0.010495	1.830221	0.044564
Br86	Br	0.343829	2.163554	0.377897
Br87	Br	0.677162	2.496888	0.711231
H88	H	-0.060226	2.164351	-0.256186
H89	H	0.273107	2.497684	0.077147
H90	H	0.606441	2.831017	0.410480
Br91	Br	0.167051	1.495064	-0.503394
Br92	Br	0.500384	1.828398	-0.170060
Br93	Br	0.833718	2.161731	0.163273
H94	H	0.357338	1.398519	-0.232403
H95	H	0.690671	1.731853	0.100931
H96	H	1.024004	2.065186	0.434264
Br97	Br	0.314328	1.649713	-0.042223
Br98	Br	0.647662	1.983047	0.291111
Br99	Br	0.980995	2.316380	0.624444
Br100	Br	-0.092542	2.016317	-0.393550
Br101	Br	0.240791	2.349650	-0.060217
Br102	Br	0.574125	2.682983	0.273117
Br103	Br	0.546381	1.689686	-0.011989
Br104	Br	0.879714	2.023019	0.321345
Br105	Br	1.213047	2.356352	0.654678
H106	H	-0.159366	1.536042	-0.749737
H107	H	0.173967	1.869375	-0.416403
H108	H	0.507301	2.202708	-0.083070
Br109	Br	0.026706	2.024769	0.113518
Br110	Br	0.360040	2.358102	0.446851
Br111	Br	0.693373	2.691435	0.780185
H112	H	-0.227244	1.551712	-0.538291
H113	H	0.106090	1.885045	-0.204957
H114	H	0.439423	2.218379	0.128376
