data_functionalizedCrystal
_audit_creation_method	'MofGen! by Chris Wilmer'
_symmetry_space_group_name_H-M	'P1'
_symmetry_Int_Tables_number	1
_symmetry_cell_setting	triclinic
loop_
_symmetry_equiv_pos_as_xyz
  x,y,z
_cell_length_a	6.817900
_cell_length_b	17.078472
_cell_length_c	16.305550
_cell_angle_alpha	96.275374
_cell_angle_beta	103.455250
_cell_angle_gamma	99.306020
loop_
_atom_site_label
_atom_site_type_symbol
_atom_site_fract_x
_atom_site_fract_y
_atom_site_fract_z
V1	V	-4.005358	-0.110437	-0.262946
O2	O	-4.014715	0.004618	-0.258028
O3	O	-3.936405	-0.218315	-0.261064
O4	O	-3.957028	-0.109040	-0.377664
O5	O	-3.993949	-0.105413	-0.140620
V6	V	-4.491640	-0.096639	-0.248325
O7	O	-4.260564	-0.140703	-0.295018
O8	O	-4.686631	-0.066373	-0.216253
O9	O	-4.337386	0.011239	-0.250207
O10	O	-4.599680	-0.211694	-0.253243
O11	O	-4.620446	-0.101663	-0.370651
O12	O	-4.316763	-0.098035	-0.133607
C13	C	-3.776404	-0.244603	-0.256894
C14	C	-3.801314	-0.332797	-0.256120
C15	C	-3.994349	-0.378282	-0.259961
C16	C	-4.017745	-0.461150	-0.259239
C17	C	-3.848102	-0.498530	-0.254669
C18	C	-3.655053	-0.453039	-0.250830
C19	C	-3.631662	-0.370174	-0.251559
C20	C	-3.898617	-0.745927	-0.252044
C21	C	-3.922022	-0.828798	-0.251313
C22	C	-4.284714	-0.836904	-0.259724
C23	C	-4.261303	-0.754036	-0.260447
C24	C	-4.068260	-0.708553	-0.256612
N25	N	-3.872011	-0.583234	-0.253928
N26	N	-4.044356	-0.623851	-0.257360
C27	C	-3.802710	-0.105212	-0.405628
C28	C	-3.844342	-0.104784	-0.499411
C29	C	-3.995743	-0.103126	-0.840157
C30	C	-3.760626	-0.098203	-0.799233
C31	C	-3.717286	-0.098977	-0.701737
C32	C	-3.920630	-0.103948	-0.671109
C33	C	-4.072844	-0.182301	-0.721675
C34	C	-4.114791	-0.181858	-0.819225
C35	C	-4.064268	-0.030322	-0.794370
C36	C	-4.016456	-0.029702	-0.696528
C37	C	-3.878192	-0.104416	-0.575570
C38	C	-4.038189	-0.102664	-0.935697
C39	C	-4.160729	0.037524	-0.254375
C40	C	-4.115057	0.125716	-0.255155
C41	C	-4.134423	-0.101866	-0.105638
C42	C	-4.072030	-0.102290	-0.011855
H43	H	-4.174932	-0.498181	-0.262368
H44	H	-4.441884	-0.873944	-0.262845
H45	H	-3.601444	-0.042641	-0.666757
Cl46	Cl	-4.307422	-0.192296	-0.692473
H47	H	-3.741430	-0.708904	-0.248917
Cl48	Cl	-3.708744	-0.875791	-0.245581
Cl49	Cl	-3.441788	-0.500033	-0.245090
H50	H	-3.705642	-0.150510	-0.830704
Cl51	Cl	-3.971169	-0.267419	-0.695655
H52	H	-3.474477	-0.333141	-0.248434
H53	H	-3.665193	-0.041602	-0.811640
H54	H	-3.640853	-0.151887	-0.685403
Cl55	Cl	-4.474566	-0.707045	-0.266159
H56	H	-4.068222	-0.236972	-0.849564
Cl57	Cl	-3.940492	0.061337	-0.815081
Cl58	Cl	-3.846491	0.059778	-0.643526
Cl59	Cl	-4.381165	-0.192451	-0.862435
H60	H	-4.163928	-0.028727	-0.675181
H61	H	-4.235783	-0.033232	-0.821184
H62	H	-4.132491	-0.347852	-0.263674
