data_functionalizedCrystal
_audit_creation_method	'MofGen! by Chris Wilmer'
_symmetry_space_group_name_H-M	'P1'
_symmetry_Int_Tables_number	1
_symmetry_cell_setting	triclinic
loop_
_symmetry_equiv_pos_as_xyz
  x,y,z
_cell_length_a	6.817900
_cell_length_b	10.992723
_cell_length_c	14.907103
_cell_angle_alpha	86.829357
_cell_angle_beta	105.227398
_cell_angle_gamma	71.229715
loop_
_atom_site_label
_atom_site_type_symbol
_atom_site_fract_x
_atom_site_fract_y
_atom_site_fract_z
V1	V	4.073450	-0.178563	0.289951
O2	O	4.032319	0.007757	0.284440
O3	O	4.051341	-0.353268	0.287960
O4	O	4.033233	-0.176178	0.416413
O5	O	4.050553	-0.170560	0.155098
V6	V	4.552611	-0.156234	0.273823
O7	O	4.344277	-0.227543	0.325330
O8	O	4.731981	-0.107254	0.238443
O9	O	4.351512	0.018471	0.275814
O10	O	4.711138	-0.342554	0.279334
O11	O	4.692904	-0.164238	0.408675
O12	O	4.369621	-0.158620	0.147361
C13	C	3.902474	-0.395847	0.283384
C14	C	3.965739	-0.538673	0.282599
C15	C	4.277088	-0.749625	0.286733
C16	C	4.211645	-0.601149	0.287909
C17	C	3.930682	-0.608123	0.368734
C18	C	3.997946	-0.756794	0.368025
C19	C	3.891606	-0.718029	0.190239
C20	C	3.829288	-0.569307	0.189985
C21	C	3.879373	-0.169948	0.447237
C22	C	3.927949	-0.169154	0.550619
C23	C	4.105742	-0.166252	0.929186
C24	C	4.056266	-0.167059	0.823857
C25	C	4.016847	-0.167704	0.739906
C26	C	3.967368	-0.168509	0.634570
C27	C	4.193786	-0.164846	1.116532
C28	C	4.145197	-0.165613	1.013146
C29	C	4.163723	0.061042	0.280387
C30	C	4.079697	0.203867	0.281178
H31	H	4.343359	-0.774620	0.224800
H32	H	4.129759	-0.808805	0.436504
Cl33	Cl	3.662991	-0.763081	0.182634
Cl34	Cl	3.775053	-0.804708	0.367649
Cl35	Cl	4.492601	-0.833491	0.388023
Cl36	Cl	4.263469	-0.528084	0.192856
H37	H	3.647973	-0.525202	0.180702
H38	H	3.753891	-0.567683	0.368121
H39	H	4.028720	-0.588127	0.437268
H40	H	4.319535	-0.582686	0.354371
H41	H	3.940376	-0.743303	0.124205
Cl42	Cl	3.870704	-0.497106	0.091515
