data_functionalizedCrystal
_audit_creation_method	'MofGen! by Chris Wilmer'
_symmetry_space_group_name_H-M	'P1'
_symmetry_Int_Tables_number	1
_symmetry_cell_setting	triclinic
loop_
_symmetry_equiv_pos_as_xyz
  x,y,z
_cell_length_a	10.489746
_cell_length_b	10.489746
_cell_length_c	9.565339
_cell_angle_alpha	90.000074
_cell_angle_beta	90.000667
_cell_angle_gamma	84.541301
loop_
_atom_site_label
_atom_site_type_symbol
_atom_site_fract_x
_atom_site_fract_y
_atom_site_fract_z
O1	O	1.694052	0.179990	0.116167
O2	O	1.322858	0.196876	0.116191
O3	O	1.516898	0.002836	0.116168
O4	O	1.500012	0.374030	0.116190
O5	O	1.516883	0.002848	-0.116352
O6	O	1.322843	0.196888	-0.116329
O7	O	1.694037	0.180002	-0.116353
Zn8	Zn	1.508437	0.188447	-0.153259
Zn9	Zn	1.508458	0.188431	0.153097
O10	O	1.499997	0.374042	-0.116330
C11	C	1.275319	0.195605	-0.000066
C12	C	1.133689	0.191785	-0.000058
C13	C	0.980829	0.066062	-0.000085
C14	C	1.058217	0.128925	-0.114722
C15	C	1.058187	0.128942	0.114525
C16	C	0.958727	0.247906	-0.114824
C17	C	0.958693	0.247906	0.114526
C18	C	1.036031	0.310856	-0.000139
C19	C	1.515614	-0.044690	-0.000092
C20	C	1.511794	-0.186319	-0.000091
C21	C	1.386071	-0.339179	-0.000065
C22	C	1.448935	-0.261792	0.114573
C23	C	1.448949	-0.261821	-0.114674
C24	C	1.567916	-0.361281	0.114673
C25	C	1.567913	-0.361316	-0.114677
C26	C	1.630864	-0.283978	-0.000011
C27	C	1.741576	0.181273	-0.000093
C28	C	1.883206	0.185093	-0.000092
C29	C	1.501281	0.421568	-0.000067
C30	C	1.505101	0.563197	-0.000059
N31	N	1.508433	0.188457	-0.362338
C32	C	1.418668	0.278164	-0.453531
C33	C	1.534165	0.303976	-0.546715
C34	C	1.392986	0.162655	-0.546709
C35	C	1.623989	0.214328	-0.453471
C36	C	1.482733	0.072955	-0.453456
C37	C	1.598313	0.098719	-0.546599
N38	N	1.508472	0.188411	0.362176
H39	H	1.101636	0.078666	0.211444
H40	H	1.060509	0.414435	-0.000196
H41	H	0.915442	0.298125	-0.211853
H42	H	1.460933	-0.024672	-0.412461
H43	H	1.618137	-0.404566	0.211701
H44	H	1.398672	-0.218372	-0.211593
C45	C	0.900781	0.314626	0.243935
C46	C	0.951378	0.251839	0.363654
C47	C	0.898046	0.313244	0.482902
H48	H	0.920591	0.401118	0.244961
H49	H	0.810463	0.312358	0.242599
H50	H	1.041675	0.254121	0.364990
H51	H	0.931570	0.165352	0.362675
H52	H	0.807728	0.310976	0.481566
H53	H	0.917860	0.399734	0.483914
H54	H	0.932359	0.270646	0.564145
H55	H	1.398693	-0.218323	0.211499
C56	C	1.317705	0.379600	-0.399100
C57	C	1.345249	0.500306	-0.446328
C58	C	1.252288	0.593782	-0.396197
H59	H	1.235792	0.362269	-0.432360
H60	H	1.317892	0.378475	-0.299785
H61	H	1.345049	0.501428	-0.545623
H62	H	1.427145	0.517678	-0.413072
H63	H	1.252475	0.592657	-0.296882
H64	H	1.170381	0.576438	-0.429460
H65	H	1.270970	0.675691	-0.428223
C66	C	1.699854	-0.002306	-0.600684
C67	C	1.820466	0.025289	-0.553212
C68	C	1.914039	-0.067731	-0.603026
H69	H	1.682454	-0.084181	-0.567371
H70	H	1.698926	-0.002232	-0.700001
H71	H	1.821390	0.025202	-0.453915
H72	H	1.837906	0.107147	-0.586521
H73	H	1.913112	-0.067657	-0.702344
H74	H	1.896627	-0.149600	-0.569709
H75	H	1.995886	-0.049014	-0.570835
C76	C	1.634631	-0.419228	-0.244086
C77	C	1.571842	-0.368631	-0.363805
C78	C	1.633245	-0.421964	-0.483054
H79	H	1.721122	-0.399418	-0.245113
H80	H	1.632362	-0.509546	-0.242751
H81	H	1.574125	-0.278334	-0.365140
H82	H	1.485355	-0.388438	-0.362825
H83	H	1.630975	-0.512282	-0.481719
H84	H	1.719734	-0.402150	-0.484066
H85	H	1.590645	-0.387651	-0.564296
H86	H	1.295338	0.140852	-0.587668
H87	H	1.555930	0.401634	-0.587678
H88	H	1.721659	0.236248	-0.412688
H89	H	0.956107	-0.037439	-0.000207
H90	H	1.282569	-0.363901	0.000056
C91	C	1.769002	-0.251421	0.000331
C92	C	1.830734	-0.302212	0.120572
C93	C	1.957981	-0.272239	0.120944
H94	H	1.811703	-0.287011	-0.080248
H95	H	1.770740	-0.161035	-0.000375
H96	H	1.829003	-0.392580	0.121265
H97	H	1.788071	-0.266630	0.201171
H98	H	1.959720	-0.181853	0.120238
H99	H	2.000671	-0.307831	0.040360
H100	H	1.999879	-0.306686	0.202531
H101	H	1.101686	0.078681	-0.211648
