data_functionalizedCrystal
_audit_creation_method	'MofGen! by Chris Wilmer'
_symmetry_space_group_name_H-M	'P1'
_symmetry_Int_Tables_number	1
_symmetry_cell_setting	triclinic
loop_
_symmetry_equiv_pos_as_xyz
  x,y,z
_cell_length_a	14.519731
_cell_length_b	12.376717
_cell_length_c	13.339070
_cell_angle_alpha	99.014819
_cell_angle_beta	80.340926
_cell_angle_gamma	77.363083
loop_
_atom_site_label
_atom_site_type_symbol
_atom_site_fract_x
_atom_site_fract_y
_atom_site_fract_z
O1	O	1.237419	0.094000	-0.115416
O2	O	0.972913	0.094001	-0.131017
O3	O	1.074810	0.093997	0.024104
O4	O	1.135522	0.094004	-0.270537
O5	O	1.115220	-0.094006	-0.010613
O6	O	1.013323	-0.094002	-0.165734
O7	O	1.277829	-0.094003	-0.150132
Zn8	Zn	1.151992	-0.123852	-0.163445
Zn9	Zn	1.098750	0.123850	-0.117704
O10	O	1.175932	-0.093999	-0.305253
C11	C	0.958573	0.000000	-0.147644
C12	C	0.855635	0.000001	-0.145454
N13	N	1.188335	-0.292902	-0.194661
C14	C	1.272731	-0.352067	-0.267109
C15	C	1.298187	-0.470401	-0.288936
C16	C	1.239245	-0.529582	-0.238324
C17	C	1.154844	-0.470416	-0.165881
C18	C	1.129390	-0.352071	-0.144045
C19	C	1.095904	-0.529585	-0.115261
C20	C	1.011502	-0.470420	-0.042817
C21	C	0.986052	-0.352086	-0.020986
C22	C	1.044994	-0.292905	-0.071598
C23	C	1.121358	-0.647931	-0.137096
C24	C	0.978016	-0.647934	-0.014033
C25	C	0.952561	-0.529600	0.007795
C26	C	0.772037	0.000005	-0.143673
C27	C	0.667163	0.000005	-0.141449
C28	C	0.583575	0.000005	-0.139683
C29	C	0.478693	0.000008	-0.137459
C30	C	1.292169	0.000001	-0.133505
C31	C	1.395105	0.000008	-0.135694
C32	C	1.084759	-0.000002	0.044455
C33	C	1.054188	0.000002	0.156815
N34	N	1.062412	0.292900	-0.086480
C35	C	1.165983	0.000003	-0.325604
C36	C	1.196552	0.000006	-0.437963
C37	C	1.291883	0.000001	0.521158
C38	C	1.320610	-0.000010	0.415589
C39	C	1.254007	-0.000007	0.350890
C40	C	1.158672	0.000007	0.391771
C41	C	1.129944	0.000009	0.497349
C42	C	1.092068	0.000001	0.327081
C43	C	0.996733	0.000015	0.367962
C44	C	0.968010	0.000018	0.473530
C45	C	1.034613	0.000014	0.538228
C46	C	1.120796	-0.000000	0.221504
C47	C	0.958857	0.000008	0.197695
C48	C	0.930130	0.000019	0.303264
H49	H	1.190078	-0.696092	-0.196080
H50	H	1.277402	-0.000016	0.264932
O51	O	0.904015	-0.294786	0.049385
C52	C	0.764557	-0.307282	0.169189
C53	C	0.857424	-0.372311	0.089500
H54	H	0.726872	-0.369933	0.201661
H55	H	0.714349	-0.251928	0.129799
H56	H	0.783740	-0.251829	0.235161
H57	H	0.838330	-0.427825	0.023508
H58	H	0.907606	-0.427593	0.128967
O59	O	0.837478	0.000076	0.342821
C60	C	0.679899	0.000020	0.308061
C61	C	0.784790	-0.000021	0.263132
H62	H	0.637276	-0.000082	0.243650
H63	H	0.645440	0.078721	0.371384
H64	H	0.679349	-0.078637	0.342408
H65	H	0.785426	0.078583	0.228730
H66	H	0.819205	-0.078773	0.199858
O67	O	0.870481	-0.472172	0.078044
C68	C	0.697289	-0.436036	0.124677
C69	C	0.790164	-0.501122	0.045027
H70	H	0.632330	-0.459436	0.098024
H71	H	0.689144	-0.341279	0.131578
H72	H	0.701648	-0.459267	0.203445
H73	H	0.785871	-0.477985	-0.033783
H74	H	0.798276	-0.595863	0.038216
O75	O	1.413237	0.000026	0.376057
C76	C	1.570842	-0.000061	0.410805
C77	C	1.465960	-0.000075	0.455715
H78	H	1.613504	-0.000168	0.475182
H79	H	1.571486	0.078631	0.376536
H80	H	1.605198	-0.078727	0.347419
H81	H	1.431541	0.078537	0.519137
H82	H	1.465382	-0.078820	0.489915
H83	H	1.346102	-0.000012	0.573842
H84	H	1.366907	-0.518565	-0.347917
H85	H	1.011227	0.000027	0.624193
O86	O	0.875358	0.000070	0.513082
C87	C	0.717785	0.000004	0.478309
C88	C	0.822675	-0.000027	0.433389
H89	H	0.675166	-0.000098	0.413894
H90	H	0.683320	0.078701	0.541634
H91	H	0.717238	-0.078657	0.512650
H92	H	0.823309	0.078581	0.398992
H93	H	0.857097	-0.078776	0.370112
O94	O	1.264086	-0.644530	-0.259685
C95	C	1.379291	-0.814347	-0.358497
C96	C	1.351260	-0.684164	-0.334412
H97	H	1.449784	-0.846430	-0.418899
H98	H	1.319839	-0.846555	-0.389942
H99	H	1.389032	-0.846435	-0.284411
H100	H	1.341533	-0.651980	-0.408454
H101	H	1.410726	-0.652033	-0.302923
H102	H	0.930021	-0.696119	0.027180
H103	H	0.904624	0.000005	0.145016
H104	H	1.320716	-0.303872	-0.308302
O105	O	1.213363	0.000196	0.181885
C106	C	1.339640	0.097560	0.187974
C107	C	1.234781	0.097487	0.232916
H108	H	1.356996	0.176199	0.229228
H109	H	1.348776	0.097633	0.101416
H110	H	1.390802	0.018845	0.200053
H111	H	1.183553	0.176188	0.220912
H112	H	1.225724	0.097355	0.319458
H113	H	1.024270	-0.196548	-0.053831
