data_functionalizedCrystal
_audit_creation_method	'MofGen! by Chris Wilmer'
_symmetry_space_group_name_H-M	'P1'
_symmetry_Int_Tables_number	1
_symmetry_cell_setting	triclinic
loop_
_symmetry_equiv_pos_as_xyz
  x,y,z
_cell_length_a	14.044220
_cell_length_b	14.044220
_cell_length_c	13.448316
_cell_angle_alpha	89.992660
_cell_angle_beta	89.998357
_cell_angle_gamma	93.188878
loop_
_atom_site_label
_atom_site_type_symbol
_atom_site_fract_x
_atom_site_fract_y
_atom_site_fract_z
O1	O	1.277171	0.230170	-0.082590
O2	O	1.000500	0.221864	-0.082615
O3	O	1.134682	0.087681	-0.082593
O4	O	1.142988	0.364353	-0.082612
O5	O	1.134663	0.087671	0.082791
O6	O	1.000480	0.221854	0.082769
O7	O	1.277152	0.230159	0.082794
Cu8	Cu	1.138814	0.226006	0.097882
Cu9	Cu	1.138837	0.226018	-0.097703
O10	O	1.142969	0.364342	0.082772
C11	C	0.964868	0.218223	0.000074
C12	C	0.858725	0.207379	0.000064
C13	C	0.664388	0.187553	0.000086
C14	C	0.613258	0.264467	0.000084
C15	C	0.505122	0.253435	0.000096
C16	C	0.772534	0.198583	0.000074
C17	C	1.131037	0.052054	0.000099
C18	C	1.120193	-0.054088	0.000099
C19	C	1.100366	-0.248426	0.000083
C20	C	1.177281	-0.299556	0.000087
C21	C	1.166249	-0.407692	0.000078
C22	C	1.111397	-0.140280	0.000092
C23	C	1.312783	0.233800	0.000103
C24	C	1.418926	0.244645	0.000106
C25	C	1.146614	0.399969	0.000078
C26	C	1.157459	0.506112	0.000071
N27	N	1.138805	0.225997	0.235446
N28	N	1.138853	0.226020	-0.235268
C29	C	1.198244	0.166609	0.287496
C30	C	1.198250	0.166609	0.391600
C31	C	1.138821	0.226002	0.443651
C32	C	1.079376	0.285392	0.391594
C33	C	1.079366	0.285387	0.287492
C34	C	1.079403	0.285401	0.608574
C35	C	1.079414	0.285408	0.712682
C36	C	1.198287	0.166623	0.712681
C37	C	1.198277	0.166617	0.608580
C38	C	1.138833	0.226009	0.556530
H39	H	0.650697	0.338600	0.000075
H40	H	1.030994	0.333761	0.566198
H41	H	1.251414	-0.262117	0.000027
H42	H	1.026239	-0.285863	0.000074
H43	H	1.246642	0.118249	0.245123
H44	H	1.246688	0.118264	0.755066
H45	H	1.030983	0.333748	0.433980
C46	C	1.315775	0.049224	0.381142
C47	C	1.263603	0.101344	0.448813
H48	H	1.356129	0.008939	0.416465
H49	H	1.273136	0.011486	0.340559
H50	H	1.353455	0.091906	0.340520
H51	H	1.225917	0.058662	0.489431
H52	H	1.306247	0.139084	0.489414
H53	H	1.030964	0.333745	0.245114
H54	H	1.246673	0.118260	0.566200
H55	H	1.031021	0.333771	0.755057
H56	H	0.626951	0.113425	0.000096
