data_functionalizedCrystal
_audit_creation_method	'MofGen! by Chris Wilmer'
_symmetry_space_group_name_H-M	'P1'
_symmetry_Int_Tables_number	1
_symmetry_cell_setting	triclinic
loop_
_symmetry_equiv_pos_as_xyz
  x,y,z
_cell_length_a	16.120530
_cell_length_b	29.839131
_cell_length_c	16.120256
_cell_angle_alpha	92.869474
_cell_angle_beta	90.128265
_cell_angle_gamma	87.136742
loop_
_atom_site_label
_atom_site_type_symbol
_atom_site_fract_x
_atom_site_fract_y
_atom_site_fract_z
Zn1	Zn	1.247310	-0.227608	-0.534531
Zn2	Zn	1.254220	-0.299123	-0.395461
Zn3	Zn	1.115304	-0.220015	-0.388450
Zn4	Zn	1.108176	-0.298711	-0.527431
O5	O	1.181252	-0.261364	-0.461468
O6	O	1.364591	-0.240445	-0.521989
O7	O	1.241667	-0.285623	-0.278166
O8	O	1.132907	-0.158158	-0.407864
O9	O	1.369667	-0.292986	-0.419815
O10	O	1.229890	-0.163737	-0.515190
O11	O	1.139607	-0.227503	-0.273014
O12	O	0.997995	-0.227104	-0.400980
O13	O	1.120757	-0.292285	-0.644739
O14	O	0.992757	-0.284921	-0.503089
O15	O	1.222978	-0.240046	-0.649955
O16	O	1.234755	-0.361932	-0.412931
O17	O	1.127458	-0.361629	-0.509889
C18	C	0.965204	-0.255144	-0.450504
C19	C	0.872776	-0.252495	-0.445833
C20	C	0.703550	-0.247647	-0.437312
C21	C	0.659793	-0.275116	-0.485685
C22	C	0.565629	-0.272419	-0.480944
C23	C	0.797722	-0.250343	-0.442052
C24	C	1.181104	-0.378081	-0.461419
C25	C	1.181116	-0.428016	-0.461430
C26	C	1.237215	-0.737814	-0.411065
C27	C	1.237316	-0.925491	-0.411102
O28	O	1.284896	-0.949883	-0.368242
N29	N	1.181422	-0.948813	-0.461540
C30	C	1.125502	-0.925213	-0.511975
O31	O	1.077968	-0.949356	-0.554882
C32	C	1.125405	-0.737537	-0.511942
C33	C	1.181298	-0.714217	-0.461495
C34	C	1.293103	-0.714494	-0.360623
C35	C	1.293075	-0.667578	-0.360611
C36	C	1.237157	-0.643981	-0.411041
C37	C	1.181269	-0.667301	-0.461483
C38	C	1.069490	-0.713938	-0.562381
C39	C	1.069472	-0.667016	-0.562370
C40	C	1.125365	-0.643696	-0.511923
C41	C	1.125323	-0.596787	-0.511900
N42	N	1.181217	-0.573465	-0.461463
C43	C	1.237134	-0.597062	-0.411033
C44	C	1.125555	-1.023745	-0.511988
C45	C	1.125578	-1.070664	-0.511996
C46	C	1.237394	-1.070939	-0.411124
C47	C	1.237366	-1.024019	-0.411112
C48	C	1.181450	-1.000423	-0.461551
C49	C	1.237069	-0.498534	-0.411011
C50	C	1.237033	-0.451613	-0.411000
C51	C	1.125221	-0.451342	-0.511875
C52	C	1.125254	-0.498259	-0.511883
C53	C	1.181185	-0.521854	-0.461448
O54	O	1.077774	-0.572367	-0.554745
O55	O	1.284673	-0.572912	-0.368146
C56	C	1.237244	-0.784731	-0.411077
C57	C	1.181355	-0.808050	-0.461519
C58	C	1.125438	-0.784454	-0.511949
C59	C	1.181378	-0.854969	-0.461527
C60	C	1.237296	-0.878566	-0.411097
C61	C	1.293190	-0.855244	-0.360660
C62	C	1.293161	-0.808327	-0.360647
C63	C	1.069544	-0.807775	-0.562386
C64	C	1.069577	-0.854692	-0.562394
C65	C	1.125494	-0.878289	-0.511964
C66	C	1.398145	-0.267609	-0.472476
C67	C	1.490571	-0.270270	-0.477167
C68	C	1.170302	-0.266967	-0.678362
C69	C	1.165635	-0.269354	-0.770790
C70	C	1.181423	-0.144192	-0.461537
C71	C	1.181495	-0.094261	-0.461566
C72	C	1.205586	-0.248902	-0.983777
C73	C	1.157088	-0.273694	-0.940009
C74	C	1.161845	-0.271278	-0.845847
C75	C	1.200830	-0.251317	-1.077948
C76	C	1.192208	-0.255752	-0.245420
C77	C	1.197036	-0.253243	-0.153002
H78	H	1.282547	-0.432628	-0.369918
N79	N	1.012388	-0.737749	-0.613905
N80	N	0.935941	-0.730198	-0.604439
H81	H	0.895609	-0.747013	-0.640831
H82	H	1.111990	-0.296729	-0.973256
N83	N	1.294204	-0.522624	-0.359487
N84	N	1.344094	-0.501790	-0.314455
H85	H	1.384442	-0.518802	-0.278061
H86	H	1.024055	-0.873675	-0.603472
H87	H	0.693050	-0.300658	-0.530660
N88	N	1.012420	-0.783683	-0.613910
N89	N	0.962524	-0.804516	-0.658937
H90	H	0.922174	-0.787503	-0.695327
H91	H	1.338589	-0.648594	-0.319535
N92	N	1.262147	-0.220004	-0.942063
N93	N	1.265976	-0.218061	-0.864521
H94	H	1.305923	-0.197652	-0.835050
H95	H	0.670294	-0.222106	-0.392342
N96	N	1.350225	-0.738585	-0.309091
N97	N	1.348634	-0.731213	-0.232080
H98	H	1.388976	-0.748224	-0.195677
N99	N	1.294462	-1.000207	-0.359576
N100	N	1.344377	-1.021287	-0.314551
H101	H	1.384705	-1.004473	-0.278151
N102	N	1.068429	-0.999653	-0.563520
N103	N	1.018532	-1.020487	-0.608544
H104	H	0.978184	-1.003474	-0.644938
H105	H	1.282924	-1.090159	-0.370062
N106	N	1.068467	-1.094474	-0.563517
N107	N	1.018548	-1.073394	-0.608537
H108	H	0.978212	-1.090208	-0.644928
N109	N	1.012364	-0.642915	-0.613904
N110	N	1.013954	-0.650276	-0.690917
H111	H	0.973621	-0.633255	-0.727314
N112	N	1.068146	-0.522083	-0.563390
N113	N	0.991698	-0.514541	-0.553912
H114	H	0.951368	-0.531365	-0.590293
N115	N	1.068104	-0.427227	-0.563373
N116	N	1.068094	-0.385335	-0.563349
H117	H	1.027757	-0.368302	-0.599722
N118	N	1.350258	-0.784517	-0.309109
N119	N	1.400175	-0.805599	-0.264090
H120	H	1.440503	-0.788787	-0.227688
H121	H	1.338718	-0.874465	-0.319595
