data_functionalizedCrystal
_audit_creation_method	'MofGen! by Chris Wilmer'
_symmetry_space_group_name_H-M	'P1'
_symmetry_Int_Tables_number	1
_symmetry_cell_setting	triclinic
loop_
_symmetry_equiv_pos_as_xyz
  x,y,z
_cell_length_a	14.908783
_cell_length_b	13.897441
_cell_length_c	14.908520
_cell_angle_alpha	86.734773
_cell_angle_beta	83.208414
_cell_angle_gamma	86.678177
loop_
_atom_site_label
_atom_site_type_symbol
_atom_site_fract_x
_atom_site_fract_y
_atom_site_fract_z
Zn1	Zn	1.363075	-0.646927	0.280577
Zn2	Zn	1.354228	-0.494414	0.431967
Zn3	Zn	1.211695	-0.476829	0.289341
Zn4	Zn	1.202935	-0.646850	0.440623
O5	O	1.282983	-0.566255	0.360627
O6	O	1.488571	-0.634087	0.293369
O7	O	1.335283	-0.357100	0.413092
O8	O	1.239144	-0.492065	0.161509
O9	O	1.482071	-0.522037	0.404594
O10	O	1.350363	-0.617035	0.155071
O11	O	1.230565	-0.344180	0.308305
O12	O	1.083863	-0.491991	0.316699
O13	O	1.224215	-0.781841	0.419347
O14	O	1.077428	-0.616904	0.427845
O15	O	1.341869	-0.781898	0.301763
O16	O	1.326790	-0.521963	0.559784
O17	O	1.215636	-0.633956	0.566144
C18	C	1.047801	-0.552531	0.374163
C19	C	0.947188	-0.546685	0.379975
C20	C	0.764884	-0.652573	0.275237
C21	C	0.670349	-0.647083	0.280695
C22	C	0.663583	-0.530208	0.396345
C23	C	0.758118	-0.535699	0.390887
C24	C	0.808765	-0.596885	0.330332
C25	C	0.903301	-0.602380	0.324879
C26	C	0.896533	-0.485501	0.440523
C27	C	0.801999	-0.480010	0.445981
C28	C	1.283052	-0.817847	0.360543
C29	C	1.283081	-0.925061	0.360507
C30	C	1.283110	-1.121354	0.360445
C31	C	1.283091	-1.012122	0.360482
C32	C	1.519083	-0.580032	0.347039
C33	C	1.619695	-0.585904	0.341248
C34	C	1.269327	-0.579882	0.595806
C35	C	1.263567	-0.585749	0.696412
C36	C	1.282971	-0.315641	0.360642
C37	C	1.283131	-0.208423	0.360412
C38	C	1.296718	-0.552597	0.124528
C39	C	1.302570	-0.546777	0.023916
C40	C	1.368608	-0.480260	0.878771
C41	C	1.363200	-0.485770	0.973300
C42	C	1.247347	-0.602281	0.979998
C43	C	1.252756	-0.596772	0.885470
C44	C	1.313387	-0.535758	0.834860
C45	C	1.318791	-0.530244	0.740330
C46	C	1.202943	-0.646760	0.747030
C47	C	1.197535	-0.652270	0.841558
H48	H	0.944537	-0.652201	0.275573
C49	C	1.130842	-0.719379	0.897236
C50	C	1.028681	-0.704651	0.890268
C51	C	0.961985	-0.771759	0.945944
C52	C	0.997450	-0.853595	1.008589
C53	C	1.099616	-0.868326	1.015560
C54	C	1.166312	-0.801219	0.959883
H55	H	1.002423	-0.644068	0.843892
H56	H	0.886354	-0.760853	0.940783
H57	H	0.948077	-0.903272	1.049804
H58	H	1.125874	-0.928909	1.061935
H59	H	1.241943	-0.812124	0.965044
C60	C	0.607866	-0.462900	0.462945
C61	C	0.614892	-0.477306	0.565106
C62	C	0.559177	-0.409993	0.631705
C63	C	0.496437	-0.328274	0.596143
C64	C	0.489409	-0.313865	0.493976
C65	C	0.545124	-0.381177	0.427377
H66	H	0.661338	-0.537802	0.591437
H67	H	0.564380	-0.420660	0.707336
H68	H	0.455194	-0.278446	0.645443
H69	H	0.442963	-0.253369	0.467646
H70	H	0.539921	-0.370510	0.351746
H71	H	1.157976	-0.691948	0.711267
C72	C	1.180665	-0.669395	1.035684
C73	C	1.078500	-0.654682	1.028733
C74	C	1.011819	-0.721797	1.084422
C75	C	1.047304	-0.803624	1.147063
C76	C	1.149474	-0.818341	1.154018
C77	C	1.216155	-0.751227	1.098328
H78	H	1.052227	-0.594105	0.982360
H79	H	0.936186	-0.710902	1.079274
H80	H	0.997943	-0.853307	1.188288
H81	H	1.175746	-0.878919	1.200391
H82	H	1.291788	-0.762122	1.103476
H83	H	0.806121	-0.702398	0.225935
H84	H	0.634625	-0.692428	0.235830
C85	C	0.746281	-0.412713	0.512590
C86	C	0.683532	-0.330993	0.477045
C87	C	0.627815	-0.263697	0.543658
C88	C	0.634848	-0.278121	0.645817
C89	C	0.697600	-0.359844	0.681368
C90	C	0.753317	-0.427140	0.614755
H91	H	0.678323	-0.320313	0.401416
H92	H	0.581362	-0.203200	0.517340
H93	H	0.593604	-0.228304	0.695128
H94	H	0.702809	-0.370524	0.756997
H95	H	0.799770	-0.487637	0.641073
H96	H	0.932271	-0.440163	0.485392
H97	H	1.368157	-0.480561	0.699124
H98	H	1.408168	-0.440579	1.009048
H99	H	1.417971	-0.430574	0.837564
