data_functionalizedCrystal
_audit_creation_method	'MofGen! by Chris Wilmer'
_symmetry_space_group_name_H-M	'P1'
_symmetry_Int_Tables_number	1
_symmetry_cell_setting	triclinic
loop_
_symmetry_equiv_pos_as_xyz
  x,y,z
_cell_length_a	13.032951
_cell_length_b	19.077068
_cell_length_c	19.077251
_cell_angle_alpha	94.671285
_cell_angle_beta	80.839147
_cell_angle_gamma	85.403843
loop_
_atom_site_label
_atom_site_type_symbol
_atom_site_fract_x
_atom_site_fract_y
_atom_site_fract_z
Zn1	Zn	-1.604105	0.440020	0.552590
Zn2	Zn	-1.590509	0.551932	0.438223
Zn3	Zn	-1.422651	0.419073	0.418572
Zn4	Zn	-1.422550	0.541659	0.541124
O5	O	-1.509953	0.488171	0.487627
O6	O	-1.748532	0.467931	0.550442
O7	O	-1.562594	0.529840	0.336465
O8	O	-1.452453	0.323713	0.432925
O9	O	-1.738543	0.550152	0.466417
O10	O	-1.585767	0.339103	0.531388
O11	O	-1.439270	0.432229	0.322028
O12	O	-1.276407	0.422269	0.421806
O13	O	-1.452281	0.532644	0.641797
O14	O	-1.276333	0.512332	0.511845
O15	O	-1.585668	0.457970	0.650221
O16	O	-1.562496	0.648707	0.455298
O17	O	-1.439097	0.641160	0.530899
C18	C	-1.238454	0.463913	0.463449
C19	C	-1.122305	0.453553	0.453123
C20	C	-1.499340	0.670383	0.494005
C21	C	-1.494896	0.748344	0.496765
C22	C	-1.520480	0.496498	0.672436
C23	C	-1.524966	0.500046	0.751191
C24	C	-1.070505	0.493562	0.493007
C25	C	-0.950460	0.482855	0.482335
C26	C	-0.782513	0.512516	0.511895
C27	C	-0.898663	0.522869	0.522224
C28	C	-1.520638	0.305250	0.481243
C29	C	-1.525191	0.227300	0.478523
C30	C	-1.557110	0.788883	0.458743
C31	C	-1.552936	0.862136	0.461344
C32	C	-1.486544	0.894848	0.501964
C33	C	-1.424328	0.854304	0.539991
C34	C	-1.428507	0.781053	0.537393
C35	C	-1.467154	1.113506	0.513952
C36	C	-1.462978	1.186762	0.516545
C37	C	-1.591588	1.194588	0.437899
C38	C	-1.595757	1.121335	0.435302
C39	C	-1.533545	1.080798	0.473332
N40	N	-1.482274	0.969724	0.504622
N41	N	-1.537821	1.005924	0.470678
C42	C	-1.462868	0.450893	0.780673
C43	C	-1.467078	0.454233	0.854671
C44	C	-1.533393	0.506722	0.899186
C45	C	-1.595493	0.555880	0.869699
C46	C	-1.591277	0.552543	0.795702
C47	C	-1.552884	0.522155	1.121301
C48	C	-1.557098	0.525487	1.195303
C49	C	-1.428681	0.423840	1.180269
C50	C	-1.424475	0.420505	1.106271
C51	C	-1.486571	0.469665	1.076791
N52	N	-1.537701	0.510136	0.974825
N53	N	-1.482257	0.466254	1.001153
C54	C	-1.499466	0.479889	1.303538
C55	C	-1.495000	0.476334	1.224785
H56	H	-1.115032	0.535738	0.535055
F57	F	-0.956851	0.577996	0.577195
F58	F	-1.657366	0.604860	0.764326
F59	F	-0.892271	0.427716	0.427377
F60	F	-1.618979	0.574472	1.089935
F61	F	-1.627768	0.754074	0.415505
F62	F	-1.392299	1.221574	0.559772
H63	H	-1.077780	0.411372	0.411080
H64	H	-1.603597	0.895139	0.430382
H65	H	-1.416497	1.080506	0.544916
H66	H	-1.649819	1.094702	0.402226
H67	H	-1.642239	1.227601	0.406939
H68	H	-1.370274	0.880945	0.573067
F69	F	-1.362294	0.737910	0.577864
H70	H	-1.408873	0.408147	0.744434
H71	H	-1.649483	0.598621	0.905949
F72	F	-1.400944	0.401940	0.886042
F73	F	-1.353895	0.364638	1.058900
H74	H	-1.378125	0.383818	1.204280
F75	F	-1.627690	0.581352	1.242679
