data_functionalizedCrystal
_audit_creation_method	'MofGen! by Chris Wilmer'
_symmetry_space_group_name_H-M	'P1'
_symmetry_Int_Tables_number	1
_symmetry_cell_setting	triclinic
loop_
_symmetry_equiv_pos_as_xyz
  x,y,z
_cell_length_a	6.394989
_cell_length_b	16.992694
_cell_length_c	15.455313
_cell_angle_alpha	92.865953
_cell_angle_beta	87.251077
_cell_angle_gamma	88.582967
loop_
_atom_site_label
_atom_site_type_symbol
_atom_site_fract_x
_atom_site_fract_y
_atom_site_fract_z
O1	O	-0.452196	-1.041422	0.072013
O2	O	-0.447332	-0.813087	0.072039
O3	O	-0.146241	-0.930496	0.072026
O4	O	-0.753287	-0.924014	0.072026
O5	O	-0.129078	-0.937203	-0.072237
O6	O	-0.430169	-0.819794	-0.072224
O7	O	-0.435033	-1.048129	-0.072250
Cu8	Cu	-0.431034	-0.934574	-0.085409
Cu9	Cu	-0.451331	-0.926642	0.085198
O10	O	-0.736124	-0.930721	-0.072237
C11	C	-0.432490	-0.787166	-0.000089
C12	C	-0.413810	-0.699937	-0.000079
N13	N	-0.465593	-0.921064	0.205194
C14	C	-0.449875	-1.074050	-0.000120
C15	C	-0.468556	-1.161279	-0.000124
C16	C	-0.059624	-0.932567	-0.000102
C17	C	0.177264	-0.928650	-0.000100
N18	N	-0.416757	-0.940158	-0.205405
C19	C	-0.594058	-0.651478	-0.000080
C20	C	-0.576491	-0.569518	-0.000092
C21	C	-0.378675	-0.536019	-0.000097
C22	C	-0.198413	-0.584485	-0.000099
C23	C	-0.215981	-0.666443	-0.000093
C24	C	-0.305863	-0.291703	-0.000120
C25	C	-0.288308	-0.209738	-0.000123
C26	C	-0.666388	-0.194777	-0.000118
C27	C	-0.683939	-0.276738	-0.000107
C28	C	-0.503677	-0.325196	-0.000113
N29	N	-0.360715	-0.452243	-0.000106
N30	N	-0.521638	-0.408971	-0.000110
C31	C	-0.337958	-0.971043	0.250583
C32	C	-0.348739	-0.966823	0.341392
C33	C	-0.487145	-0.912619	0.386809
C34	C	-0.614794	-0.862638	0.341414
C35	C	-0.604022	-0.866862	0.250608
C36	C	-0.533634	-0.894402	0.658393
C37	C	-0.544391	-0.890179	0.749206
C38	C	-0.278338	-0.994366	0.749177
C39	C	-0.267570	-0.998583	0.658369
C40	C	-0.395226	-0.948604	0.612981
N41	N	-0.498163	-0.908302	0.479630
N42	N	-0.384217	-0.952925	0.520162
H43	H	-0.755141	-0.678746	-0.000075
H44	H	-0.813146	-0.155314	-0.000115
C45	C	-0.629612	-0.760890	0.630465
C46	C	-0.673944	-0.839460	0.608513
H47	H	-0.716232	-0.726972	0.599665
H48	H	-0.655822	-0.750626	0.691040
H49	H	-0.486717	-0.751786	0.615563
H50	H	-0.816836	-0.848566	0.623421
H51	H	-0.647749	-0.849728	0.547925
H52	H	-0.225244	-1.015178	0.213610
H53	H	-0.727498	-0.818506	0.378399
H54	H	-0.723269	-0.530065	-0.000092
C55	C	-0.084652	-1.070219	0.332242
C56	C	-0.208426	-1.021758	0.391283
H57	H	0.001982	-1.104131	0.363044
H58	H	-0.172443	-1.100911	0.296829
H59	H	0.000475	-1.038480	0.296821
H60	H	-0.293564	-1.053497	0.426700
H61	H	-0.120625	-0.991064	0.426711
C62	C	-1.020408	-0.285724	0.074063
C63	C	-0.901406	-0.313541	-0.000098
H64	H	-1.154674	-0.308437	0.074069
H65	H	-0.951597	-0.299893	0.124359
H66	H	-1.035686	-0.229976	0.074047
H67	H	-0.886115	-0.369289	-0.000078
H68	H	-0.970233	-0.299377	-0.050407
C69	C	-0.040409	-0.129700	-0.074293
C70	C	-0.070851	-0.172916	-0.000134
H71	H	0.093828	-0.106965	-0.074295
H72	H	-0.049135	-0.163707	-0.124591
H73	H	-0.145261	-0.089112	-0.074280
H74	H	0.033993	-0.213508	-0.000151
H75	H	-0.062106	-0.138907	0.050176
C76	C	-0.003607	-0.465493	-0.000101
C77	C	0.019032	-0.547664	-0.000102
H78	H	0.130639	-0.442764	-0.000096
H79	H	-0.072401	-0.451336	-0.050406
H80	H	-0.084388	-0.446650	0.050209
H81	H	0.099800	-0.566508	-0.050417
H82	H	0.087856	-0.561828	0.050208
H83	H	-0.159079	-0.331149	-0.000126
C84	C	-0.075039	-0.798725	-0.000091
C85	C	-0.017849	-0.719714	-0.000092
H86	H	0.047287	-0.831611	-0.000099
H87	H	-0.161552	-0.806734	0.050215
H88	H	-0.149611	-0.811418	-0.050400
H89	H	0.056710	-0.707019	0.050221
H90	H	0.068698	-0.711702	-0.050403
C91	C	-0.005735	-1.101167	0.667465
C92	C	-0.115471	-1.058181	0.608448
H93	H	0.088149	-1.137965	0.636644
H94	H	0.071032	-1.066150	0.702871
H95	H	-0.101970	-1.128548	0.702895
H96	H	-0.019237	-1.030795	0.573022
H97	H	-0.192242	-1.093202	0.573027
C98	C	-0.868054	-0.763444	0.259751
C99	C	-0.744306	-0.811918	0.200713
H100	H	-0.954653	-0.729521	0.228947
H101	H	-0.953196	-0.795170	0.295169
H102	H	-0.780230	-0.732758	0.295169
H103	H	-0.832130	-0.842608	0.165300
H104	H	-0.659156	-0.780188	0.165281
H105	H	-0.174409	-1.035057	0.786140
H106	H	-0.657104	-0.846037	0.786181
