data_functionalizedCrystal
_audit_creation_method	'MofGen! by Chris Wilmer'
_symmetry_space_group_name_H-M	'P1'
_symmetry_Int_Tables_number	1
_symmetry_cell_setting	triclinic
loop_
_symmetry_equiv_pos_as_xyz
  x,y,z
_cell_length_a	16.109301
_cell_length_b	16.992696
_cell_length_c	15.455382
_cell_angle_alpha	87.160297
_cell_angle_beta	92.983937
_cell_angle_gamma	92.935033
loop_
_atom_site_label
_atom_site_type_symbol
_atom_site_fract_x
_atom_site_fract_y
_atom_site_fract_z
O1	O	1.113290	-0.103852	0.072092
O2	O	1.446623	0.229481	0.405425
O3	O	1.779957	0.562815	0.738758
O4	O	0.872066	-0.116395	0.072107
O5	O	1.205399	0.216938	0.405441
O6	O	1.538733	0.550272	0.738774
O7	O	0.991710	0.004020	0.072076
O8	O	1.325043	0.337353	0.405409
O9	O	1.658376	0.670687	0.738742
O10	O	0.993646	-0.224267	0.072124
O11	O	1.326980	0.109067	0.405457
O12	O	1.660313	0.442400	0.738790
O13	O	0.984829	0.010161	-0.072186
O14	O	1.318163	0.343495	0.261147
O15	O	1.651496	0.676828	0.594481
O16	O	0.865186	-0.110253	-0.072154
O17	O	1.198519	0.223080	0.261179
O18	O	1.531852	0.556413	0.594513
O19	O	1.106410	-0.097710	-0.072170
O20	O	1.439743	0.235623	0.261163
O21	O	1.773076	0.568956	0.594497
Cu22	Cu	0.985169	-0.103421	-0.085334
Cu23	Cu	1.318503	0.229912	0.247999
Cu24	Cu	1.651836	0.563245	0.581332
Cu25	Cu	0.993306	-0.110684	0.085272
Cu26	Cu	1.326640	0.222649	0.418605
Cu27	Cu	1.659973	0.555983	0.751938
O28	O	0.986766	-0.218125	-0.072138
O29	O	1.320099	0.115208	0.261195
O30	O	1.653433	0.448541	0.594529
C31	C	0.837617	-0.112816	-0.000022
C32	C	1.170950	0.220517	0.333312
C33	C	1.504284	0.553850	0.666645
C34	C	0.745220	-0.111293	-0.000017
C35	C	1.078554	0.222040	0.333317
C36	C	1.411887	0.555373	0.666650
C37	C	0.527480	-0.179203	-0.000013
C38	C	0.860813	0.154131	0.333321
C39	C	1.194146	0.487464	0.666654
C40	C	0.440663	-0.177765	-0.000018
C41	C	0.773997	0.155568	0.333315
C42	C	1.107330	0.488902	0.666648
C43	C	0.451003	-0.034897	-0.000045
C44	C	0.784336	0.298436	0.333288
C45	C	1.117669	0.631769	0.666622
C46	C	0.537817	-0.036336	-0.000045
C47	C	0.871151	0.296998	0.333288
C48	C	1.204484	0.630331	0.666621
C49	C	0.576054	-0.108491	-0.000025
C50	C	0.909387	0.224843	0.333309
C51	C	1.242720	0.558176	0.666642
C52	C	0.402422	-0.105615	-0.000030
C53	C	0.735756	0.227718	0.333303
C54	C	1.069089	0.561052	0.666636
C55	C	0.308292	-0.104056	-0.000037
C56	C	0.641625	0.229278	0.333297
C57	C	0.974959	0.562611	0.666630
C58	C	0.670190	-0.110050	-0.000020
C59	C	1.003523	0.223283	0.333313
C60	C	1.336857	0.556616	0.666647
C61	C	0.985781	0.036303	-0.000059
C62	C	1.319114	0.369636	0.333274
C63	C	1.652448	0.702969	0.666607
C64	C	0.978357	0.123346	-0.000072
C65	C	1.311690	0.456679	0.333262
C66	C	1.645024	0.790012	0.666595
C67	C	1.049982	0.173605	-0.000084
C68	C	1.383316	0.506938	0.333249
C69	C	1.716649	0.840272	0.666582
C70	C	1.043002	0.255390	-0.000088
C71	C	1.376335	0.588723	0.333245
C72	C	1.709669	0.922057	0.666579
C73	C	0.964395	0.286914	-0.000085
C74	C	1.297728	0.620248	0.333248
C75	C	1.631062	0.953581	0.666581
C76	C	0.892765	0.236648	-0.000070
C77	C	1.226098	0.569982	0.333263
C78	C	1.559431	0.903315	0.666597
C79	C	0.899746	0.154865	-0.000060
C80	C	1.233079	0.488198	0.333273
C81	C	1.566413	0.821531	0.666606
C82	C	0.935461	0.530505	-0.000108
C83	C	1.268794	0.863839	0.333225
C84	C	1.602127	1.197172	0.666558
C85	C	0.928484	0.612296	-0.000121
C86	C	1.261818	0.945629	0.333212
C87	C	1.595151	1.278962	0.666546
C88	C	1.078723	0.631032	-0.000137
C89	C	1.412056	0.964365	0.333196
C90	C	1.745389	1.297698	0.666530
C91	C	1.085697	0.549246	-0.000132
C92	C	1.419030	0.882579	0.333201
C93	C	1.752364	1.215912	0.666534
C94	C	1.014067	0.498987	-0.000113
C95	C	1.347400	0.832320	0.333221
C96	C	1.680733	1.165653	0.666554
N97	N	0.957258	0.370511	-0.000092
N98	N	1.290591	0.703845	0.333241
N99	N	1.623925	1.037178	0.666575
N100	N	1.021205	0.415391	-0.000100
N101	N	1.354538	0.748724	0.333233
N102	N	1.687871	1.082058	0.666567
C103	C	1.140859	-0.101289	-0.000039
C104	C	1.474192	0.232044	0.333295
C105	C	1.807525	0.565377	0.666628
C106	C	1.233256	-0.102812	-0.000038
C107	C	1.566589	0.230521	0.333295
C108	C	1.899922	0.563854	0.666629
C109	C	0.992692	0.749593	-0.000039
C110	C	1.326026	1.082927	0.333294
C111	C	1.659359	1.416260	0.666628
C112	C	1.000110	0.662555	-0.000133
C113	C	1.333443	0.995888	0.333200
C114	C	1.666776	1.329222	0.666533
N115	N	0.999029	-0.115787	0.205267
N116	N	1.332363	0.217547	0.538600
N117	N	1.665696	0.550880	0.871934
C118	C	1.030756	-0.144052	0.749272
C119	C	1.364090	0.189282	1.082606
C120	C	1.697423	0.522615	1.415939
C121	C	1.026421	-0.140184	0.658465
C122	C	1.359754	0.193150	0.991798
C123	C	1.693087	0.526483	1.325132
C124	C	0.970768	-0.090583	0.613057
C125	C	1.304101	0.242751	0.946391
C126	C	1.637434	0.576084	1.279724
C127	C	0.919453	-0.044841	0.658462
C128	C	1.252787	0.288492	0.991795
C129	C	1.586120	0.621826	1.325129
C130	C	0.923794	-0.048705	0.749268
C131	C	1.257127	0.284628	1.082601
C132	C	1.590460	0.617961	1.415934
C133	C	0.952055	-0.073910	0.341477
C134	C	1.285389	0.259424	0.674811
C135	C	1.618722	0.592757	1.008144
C136	C	0.947717	-0.070050	0.250665
C137	C	1.281050	0.263283	0.583998
C138	C	1.614384	0.596616	0.917332
C139	C	1.054686	-0.165392	0.250674
C140	C	1.388019	0.167941	0.584008
C141	C	1.721353	0.501274	0.917341
C142	C	1.059018	-0.169256	0.341482
C143	C	1.392351	0.164077	0.674815
C144	C	1.725685	0.497411	1.008149
C145	C	1.007707	-0.123511	0.386879
C146	C	1.341040	0.209822	0.720212
C147	C	1.674373	0.543156	1.053545
N148	N	0.966333	-0.086629	0.520237
N149	N	1.299666	0.246704	0.853571
N150	N	1.632999	0.580037	1.186904
N151	N	1.012146	-0.127461	0.479697
N152	N	1.345480	0.205873	0.813030
N153	N	1.678813	0.539206	1.146364
N154	N	0.979444	-0.098315	0.794671
N155	N	1.312777	0.235018	1.128004
N156	N	1.646111	0.568351	1.461337
H157	H	0.401118	-0.235346	-0.000010
H158	H	0.734451	0.097987	0.333323
H159	H	1.067784	0.431321	0.666656
Cl160	Cl	1.128951	-0.231647	0.398559
Cl161	Cl	1.462284	0.101686	0.731893
Cl162	Cl	1.795618	0.435019	1.065226
H163	H	0.419859	0.023849	-0.000067
H164	H	0.753193	0.357182	0.333267
H165	H	1.086526	0.690516	0.666600
H166	H	1.113992	0.147945	-0.000092
H167	H	1.447325	0.481278	0.333241
H168	H	1.780659	0.814612	0.666575
Cl169	Cl	0.598886	0.052567	-0.000067
Cl170	Cl	0.932219	0.385901	0.333266
Cl171	Cl	1.265553	0.719234	0.666599
H172	H	0.910274	-0.036661	0.378428
H173	H	1.243607	0.296673	0.711762
H174	H	1.576941	0.630006	1.045095
Cl175	Cl	1.133050	0.318570	-0.000106
Cl176	Cl	1.466383	0.651904	0.333227
Cl177	Cl	1.799716	0.985237	0.666560
H178	H	1.076070	-0.184447	0.786237
H179	H	1.409404	0.148886	1.119570
H180	H	1.742737	0.482220	1.452903
Cl181	Cl	0.809699	0.091681	-0.000041
Cl182	Cl	1.143032	0.425014	0.333292
Cl183	Cl	1.476365	0.758347	0.666625
Cl184	Cl	1.090929	-0.197686	0.601396
Cl185	Cl	1.424263	0.135648	0.934730
Cl186	Cl	1.757596	0.468981	1.268063
Cl187	Cl	1.184522	0.509620	-0.000108
Cl188	Cl	1.517856	0.842954	0.333226
Cl189	Cl	1.851189	1.176287	0.666559
H190	H	0.902393	-0.029659	0.213697
H191	H	1.235726	0.303674	0.547030
H192	H	1.569060	0.637007	0.880363
H193	H	1.137040	0.671961	-0.000152
H194	H	1.470373	1.005294	0.333182
H195	H	1.803706	1.338627	0.666515
H196	H	0.864470	0.637960	-0.000133
H197	H	1.197803	0.971293	0.333201
H198	H	1.531136	1.304626	0.666534
H199	H	0.874143	-0.004451	0.621484
H200	H	1.207477	0.328882	0.954817
H201	H	1.540810	0.662216	1.288151
H202	H	0.877134	0.489594	-0.000093
H203	H	1.210467	0.822927	0.333241
H204	H	1.543800	1.156261	0.666574
Cl205	Cl	1.119189	-0.222894	0.193599
Cl206	Cl	1.452522	0.110439	0.526933
Cl207	Cl	1.785856	0.443772	0.860266
H208	H	0.828761	0.262322	-0.000062
H209	H	1.162095	0.595655	0.333271
H210	H	1.495428	0.928988	0.666604
H211	H	0.558609	-0.237956	-0.000002
H212	H	0.891942	0.095378	0.333331
H213	H	1.225275	0.428711	0.666664
Cl214	Cl	0.859292	0.008803	0.806340
Cl215	Cl	1.192625	0.342136	1.139674
Cl216	Cl	1.525958	0.675469	1.473007
