data_functionalizedCrystal
_audit_creation_method	'MofGen! by Chris Wilmer'
_symmetry_space_group_name_H-M	'P1'
_symmetry_Int_Tables_number	1
_symmetry_cell_setting	triclinic
loop_
_symmetry_equiv_pos_as_xyz
  x,y,z
_cell_length_a	17.699083
_cell_length_b	9.130313
_cell_length_c	10.654550
_cell_angle_alpha	90.000110
_cell_angle_beta	83.883959
_cell_angle_gamma	89.994200
loop_
_atom_site_label
_atom_site_type_symbol
_atom_site_fract_x
_atom_site_fract_y
_atom_site_fract_z
O1	O	1.005081	0.121590	0.158800
O2	O	0.784834	0.121638	0.179462
O3	O	0.900021	0.121607	-0.013697
O4	O	0.889894	0.121620	0.351959
O5	O	0.900020	-0.121991	-0.013692
O6	O	0.784833	-0.121961	0.179467
O7	O	1.005080	-0.122009	0.158805
Cu8	Cu	0.894956	-0.144227	0.169137
Cu9	Cu	0.894958	0.143856	0.169130
O10	O	0.889892	-0.121978	0.351964
C11	C	0.756632	-0.000156	0.178724
C12	C	0.672599	-0.000138	0.176503
N13	N	0.894960	-0.346850	0.169140
C14	C	0.899277	-0.000190	-0.060479
C15	C	0.897052	-0.000185	-0.199884
C16	C	0.624699	-0.000134	0.289883
C17	C	0.545743	-0.000153	0.287788
C18	C	0.514688	-0.000165	0.172313
C19	C	0.562594	-0.000173	0.058924
C20	C	0.641549	-0.000165	0.061020
C21	C	0.244177	-0.000210	0.050470
C22	C	0.165216	-0.000214	0.048383
C23	C	0.148371	-0.000198	0.277239
C24	C	0.227326	-0.000189	0.279334
C25	C	0.275225	-0.000205	0.165946
C26	C	0.360839	-0.000187	0.168219
C27	C	0.429076	-0.000173	0.170039
C28	C	1.033282	-0.000212	0.159543
C29	C	1.117314	-0.000221	0.161764
C30	C	0.945979	-0.423515	0.083638
C31	C	0.945976	-0.576852	0.083623
C32	C	0.843936	-0.576845	0.254623
C33	C	0.843935	-0.423511	0.254631
C34	C	1.004893	-0.423521	-0.015084
C35	C	1.004891	-0.576858	-0.015099
N36	N	0.894959	0.346479	0.169117
C37	C	0.964873	-0.000204	-0.280557
C38	C	0.962778	-0.000193	-0.411541
C39	C	0.825036	-0.000150	-0.381166
C40	C	0.827132	-0.000150	-0.250185
C41	C	1.044397	-0.000235	-0.298094
C42	C	1.042302	-0.000224	-0.429078
C43	C	0.890637	-0.000178	0.398746
C44	C	0.892861	-0.000174	0.538151
H45	H	0.649978	-0.000123	0.383916
H46	H	1.072265	-0.102174	-0.471361
C47	C	1.079129	-0.359279	0.024932
N48	N	1.135044	-0.310891	0.055072
H49	H	0.139935	-0.000226	-0.045657
C50	C	0.987431	-0.367287	-0.145184
N51	N	0.974276	-0.324932	-0.243172
H52	H	0.109361	-0.000193	0.369564
H53	H	0.771905	-0.000115	-0.184504
C54	C	0.493055	-0.000175	0.412516
N55	N	0.453371	-0.000203	0.506466
H56	H	1.069720	-0.105421	-0.262908
H57	H	0.252606	-0.000173	0.373366
C58	C	0.787869	-0.339184	0.348785
N59	N	0.745662	-0.275670	0.419744
C60	C	0.748127	-0.000130	-0.436510
N61	N	0.690197	-0.000121	-0.478194
H62	H	0.680549	-0.000167	-0.031306
C63	C	1.086414	0.137473	-0.259164
N64	N	1.118059	0.241194	-0.229842
C65	C	1.083443	-0.633103	0.012692
N66	N	1.142599	-0.675466	0.033662
C67	C	0.787809	-0.661186	0.348656
N68	N	0.745534	-0.724710	0.419484
C69	C	0.980041	-0.641098	-0.137892
N70	N	0.961319	-0.689485	-0.230374
H71	H	0.283168	-0.000224	-0.041858
C72	C	0.528431	-0.000189	-0.068101
N73	N	0.502700	-0.000196	-0.163779
C74	C	1.074785	0.141845	-0.491321
N75	N	1.099255	0.248845	-0.538205
