data_functionalizedCrystal
_audit_creation_method	'MofGen! by Chris Wilmer'
_symmetry_space_group_name_H-M	'P1'
_symmetry_Int_Tables_number	1
_symmetry_cell_setting	triclinic
loop_
_symmetry_equiv_pos_as_xyz
  x,y,z
_cell_length_a	16.625547
_cell_length_b	18.050590
_cell_length_c	16.625539
_cell_angle_alpha	89.971908
_cell_angle_beta	89.978691
_cell_angle_gamma	90.018489
loop_
_atom_site_label
_atom_site_type_symbol
_atom_site_fract_x
_atom_site_fract_y
_atom_site_fract_z
Zn1	Zn	1.232674	-0.295673	-0.455992
Zn2	Zn	1.566008	0.037660	-0.122658
Zn3	Zn	1.899341	0.370994	0.210675
Zn4	Zn	1.232595	-0.419867	-0.321155
Zn5	Zn	1.565929	-0.086533	0.012178
Zn6	Zn	1.899262	0.246800	0.345512
Zn7	Zn	1.097845	-0.295695	-0.321162
Zn8	Zn	1.431178	0.037639	0.012171
Zn9	Zn	1.764511	0.370972	0.345505
Zn10	Zn	1.097816	-0.419826	-0.455935
Zn11	Zn	1.431149	-0.086492	-0.122601
Zn12	Zn	1.764483	0.246841	0.210732
O13	O	1.165233	-0.357765	-0.388561
O14	O	1.498566	-0.024432	-0.055228
O15	O	1.831899	0.308902	0.278106
O16	O	1.345496	-0.312156	-0.438126
O17	O	1.678830	0.021178	-0.104793
O18	O	2.012163	0.354511	0.228541
O19	O	1.214699	-0.403421	-0.208323
O20	O	1.548032	-0.070088	0.125010
O21	O	1.881366	0.263245	0.458343
O22	O	1.115775	-0.191767	-0.339074
O23	O	1.449109	0.141566	-0.005741
O24	O	1.782442	0.474899	0.327592
O25	O	1.345438	-0.403400	-0.339062
O26	O	1.678771	-0.070067	-0.005729
O27	O	2.012105	0.263267	0.327605
O28	O	1.214834	-0.191751	-0.438133
O29	O	1.548168	0.141582	-0.104800
O30	O	1.881501	0.474915	0.228534
O31	O	1.115698	-0.312193	-0.208329
O32	O	1.449032	0.021141	0.125005
O33	O	1.782365	0.354474	0.458338
O34	O	0.985008	-0.312153	-0.339019
O35	O	1.318342	0.021180	-0.005686
O36	O	1.651675	0.354514	0.327647
O37	O	1.115726	-0.403330	-0.568775
O38	O	1.449060	-0.069997	-0.235441
O39	O	1.782393	0.263337	0.097892
O40	O	0.984987	-0.403351	-0.438036
O41	O	1.318321	-0.070018	-0.104703
O42	O	1.651654	0.263315	0.228631
O43	O	1.214806	-0.312116	-0.568817
O44	O	1.548140	0.021218	-0.235483
O45	O	1.881473	0.354551	0.097850
O46	O	1.214671	-0.523786	-0.339007
O47	O	1.548005	-0.190452	-0.005674
O48	O	1.881338	0.142881	0.327660
O49	O	1.115650	-0.523756	-0.438029
O50	O	1.448983	-0.190422	-0.104696
O51	O	1.782316	0.142911	0.228637
C52	C	0.955742	-0.357751	-0.388523
C53	C	1.289075	-0.024417	-0.055189
C54	C	1.622408	0.308916	0.278144
C55	C	0.866121	-0.357762	-0.388526
C56	C	1.199454	-0.024429	-0.055192
C57	C	1.532787	0.308904	0.278141
C58	C	1.165171	-0.550717	-0.388529
C59	C	1.498504	-0.217384	-0.055195
C60	C	1.831837	0.115950	0.278138
C61	C	1.165218	-0.633263	-0.388542
C62	C	1.498551	-0.299930	-0.055209
C63	C	1.831884	0.033404	0.278125
C64	C	0.793338	-0.357764	-0.388536
C65	C	1.126671	-0.024430	-0.055202
C66	C	1.460005	0.308903	0.278131
C67	C	0.702030	-0.357768	-0.388556
C68	C	1.035363	-0.024434	-0.055222
C69	C	1.368696	0.308899	0.278111
C70	C	0.629253	-0.357774	-0.388576
C71	C	0.962587	-0.024441	-0.055243
C72	C	1.295920	0.308892	0.278090
C73	C	0.537939	-0.357780	-0.388596
C74	C	0.871272	-0.024446	-0.055262
C75	C	1.204606	0.308887	0.278071
C76	C	1.219178	-0.832703	-0.334769
C77	C	1.552511	-0.499370	-0.001436
C78	C	1.885844	-0.166036	0.331898
C79	C	1.238871	-0.882036	-0.408360
C80	C	1.572204	-0.548703	-0.075027
C81	C	1.905537	-0.215369	0.258306
C82	C	1.165264	-0.784393	-0.388574
C83	C	1.498597	-0.451060	-0.055241
C84	C	1.831930	-0.117727	0.278093
C85	C	1.145653	-0.882142	-0.315016
C86	C	1.478986	-0.548808	0.018317
C87	C	1.812320	-0.215475	0.351651
C88	C	1.165309	-0.930378	-0.388599
C89	C	1.498643	-0.597045	-0.055265
C90	C	1.831976	-0.263712	0.278068
C91	C	1.184994	-0.832639	-0.462204
C92	C	1.518327	-0.499306	-0.128871
C93	C	1.851661	-0.165972	0.204463
C94	C	1.091742	-0.832741	-0.368810
C95	C	1.425076	-0.499407	-0.035477
C96	C	1.758409	-0.166074	0.297857
C97	C	1.111407	-0.882051	-0.442452
C98	C	1.444740	-0.548718	-0.109119
C99	C	1.778074	-0.215385	0.224214
C100	C	1.165239	-0.700295	-0.388559
C101	C	1.498573	-0.366962	-0.055226
C102	C	1.831906	-0.033628	0.278108
C103	C	1.165333	-1.014475	-0.388622
C104	C	1.498667	-0.681141	-0.055289
C105	C	1.832000	-0.347808	0.278044
C106	C	1.375541	-0.357780	-0.388600
C107	C	1.708875	-0.024447	-0.055266
C108	C	2.042208	0.308887	0.278067
C109	C	1.465163	-0.357786	-0.388616
C110	C	1.798496	-0.024453	-0.055283
C111	C	2.131829	0.308880	0.278051
C112	C	1.165272	-0.357716	-0.598870
C113	C	1.498605	-0.024383	-0.265537
C114	C	1.831939	0.308951	0.067797
C115	C	1.165289	-0.357695	-0.688491
C116	C	1.498622	-0.024362	-0.355158
C117	C	1.831956	0.308972	-0.021824
C118	C	1.165317	-0.164059	-0.388611
C119	C	1.498650	0.169274	-0.055277
C120	C	1.831983	0.502607	0.278056
C121	C	1.165353	-0.081514	-0.388632
C122	C	1.498686	0.251820	-0.055299
C123	C	1.832019	0.585153	0.278035
C124	C	1.165302	-0.357679	-0.761274
C125	C	1.498635	-0.024345	-0.427940
C126	C	1.831969	0.308988	-0.094607
C127	C	1.165321	-0.357651	-0.852582
C128	C	1.498654	-0.024318	-0.519249
C129	C	1.831988	0.309016	-0.185915
C130	C	1.165340	-0.357625	-0.925359
C131	C	1.498673	-0.024292	-0.592025
C132	C	1.832007	0.309042	-0.258692
C133	C	1.165360	-0.357598	-1.016673
C134	C	1.498693	-0.024265	-0.683340
C135	C	1.832027	0.309069	-0.350006
C136	C	1.165240	-0.357760	-0.179070
C137	C	1.498573	-0.024427	0.154263
C138	C	1.831906	0.308906	0.487597
C139	C	1.165379	-0.357572	-0.089449
C140	C	1.498712	-0.024239	0.243884
C141	C	1.832046	0.309095	0.577217
H142	H	1.264787	-0.811034	-0.289314
H143	H	1.598120	-0.477701	0.044019
H144	H	1.931453	-0.144368	0.377352
H145	H	1.029565	-0.811069	-0.352056
H146	H	1.362898	-0.477736	-0.018723
H147	H	1.696232	-0.144403	0.314611
H148	H	1.129047	-0.903886	-0.252798
H149	H	1.462381	-0.570552	0.080535
H150	H	1.795714	-0.237219	0.413868
Br151	Br	1.342536	-0.918109	-0.436267
Br152	Br	1.675869	-0.584776	-0.102934
Br153	Br	2.009202	-0.251443	0.230400
Br154	Br	1.212803	-0.796557	-0.565933
Br155	Br	1.546136	-0.463224	-0.232599
Br156	Br	1.879470	-0.129891	0.100734
Br157	Br	1.035445	-0.917942	-0.518391
Br158	Br	1.368779	-0.584609	-0.185058
Br159	Br	1.702112	-0.251276	0.148275
