data_functionalizedCrystal
_audit_creation_method	'MofGen! by Chris Wilmer'
_symmetry_space_group_name_H-M	'P1'
_symmetry_Int_Tables_number	1
_symmetry_cell_setting	triclinic
loop_
_symmetry_equiv_pos_as_xyz
  x,y,z
_cell_length_a	10.723024
_cell_length_b	19.188924
_cell_length_c	9.198806
_cell_angle_alpha	89.994752
_cell_angle_beta	89.996352
_cell_angle_gamma	83.804917
loop_
_atom_site_label
_atom_site_type_symbol
_atom_site_fract_x
_atom_site_fract_y
_atom_site_fract_z
O1	O	1.655151	0.097922	-0.120890
O2	O	1.291803	0.107295	-0.120896
O3	O	1.483967	0.001021	-0.120876
O4	O	1.462987	0.204197	-0.120911
O5	O	1.483952	0.001021	0.120909
O6	O	1.291788	0.107295	0.120889
O7	O	1.655136	0.097922	0.120895
Cu8	Cu	1.473461	0.102609	0.142969
Cu9	Cu	1.473478	0.102609	-0.142970
O10	O	1.462972	0.204196	0.120874
C11	C	1.245310	0.106613	-0.000004
C12	C	1.106799	0.104572	-0.000006
C13	C	1.483281	-0.024995	0.000018
C14	C	1.481246	-0.102513	0.000022
C15	C	1.030579	0.164038	-0.000017
C16	C	0.887419	0.161930	-0.000018
C17	C	1.480305	-0.138918	-0.131776
C18	C	1.478375	-0.211753	-0.131787
C19	C	1.477412	-0.248182	0.000007
C20	C	1.478346	-0.211768	0.131822
C21	C	1.480264	-0.138933	0.131829
N22	N	1.545402	-0.367404	0.098099
N23	N	1.543584	-0.436594	0.098083
C24	C	1.471632	-0.467629	-0.000007
N25	N	1.401583	-0.426861	-0.098103
N26	N	1.403408	-0.357665	-0.098091
C27	C	1.475332	-0.327159	0.000014
C28	C	1.468596	-0.583010	-0.131825
C29	C	1.466658	-0.655846	-0.131831
C30	C	1.466642	-0.655860	0.131781
C31	C	1.468567	-0.583025	0.131783
C32	C	1.469550	-0.546604	-0.000024
C33	C	1.701629	0.098604	-0.000001
C34	C	1.840140	0.100645	-0.000009
C35	C	1.463658	0.230212	-0.000023
C36	C	1.465693	0.307730	-0.000036
N37	N	1.473457	0.102608	0.344083
N38	N	1.473492	0.102604	-0.344084
C39	C	1.554145	0.057790	0.416288
C40	C	1.554165	0.057787	0.583700
H41	H	1.071310	0.216509	-0.000017
H42	H	1.066068	0.052101	-0.000034
C43	C	1.469488	-0.543351	-0.274805
C44	C	1.363300	-0.494167	-0.282503
C45	C	1.364103	-0.457613	-0.414180
H46	H	1.468589	-0.575374	-0.353440
H47	H	1.542962	-0.519882	-0.280255
H48	H	1.289846	-0.517635	-0.277067
H49	H	1.364176	-0.462129	-0.203899
H50	H	1.437577	-0.434144	-0.419631
H51	H	1.363208	-0.489642	-0.492804
H52	H	1.292063	-0.424233	-0.419415
C53	C	1.481289	-0.099497	-0.275029
C54	C	1.480017	-0.146972	-0.390455
C55	C	1.480903	-0.110680	-0.522440
H56	H	1.554763	-0.076054	-0.280713
H57	H	1.409258	-0.066121	-0.280588
H58	H	1.552042	-0.180335	-0.384899
H59	H	1.406549	-0.170416	-0.384820
H60	H	1.408872	-0.077304	-0.527999
H61	H	1.554379	-0.087239	-0.528109
H62	H	1.480029	-0.142885	-0.600772
C63	C	1.646299	0.006548	0.333733
C64	C	1.720723	-0.034812	0.432792
C65	C	1.805619	-0.082032	0.356801
H66	H	1.698302	0.031787	0.274332
H67	H	1.601392	-0.022678	0.274404
H68	H	1.765626	-0.005590	0.492096
H69	H	1.668754	-0.060067	0.492196
H70	H	1.760713	-0.111257	0.297471
H71	H	1.857614	-0.056786	0.297402
H72	H	1.856118	-0.110104	0.424000
C73	C	1.465717	-0.695254	-0.275087
C74	C	1.467031	-0.647768	-0.390508
C75	C	1.466190	-0.684048	-0.522497
H76	H	1.392245	-0.718695	-0.280800
H77	H	1.537750	-0.728629	-0.280625
H78	H	1.395005	-0.614405	-0.384973
H79	H	1.540498	-0.624325	-0.384843
H80	H	1.538223	-0.717423	-0.528034
H81	H	1.392716	-0.707487	-0.528194
H82	H	1.467093	-0.651835	-0.600825
C83	C	0.799958	0.229760	-0.000260
C84	C	0.724346	0.232310	-0.124638
C85	C	0.643747	0.294781	-0.124901
H86	H	0.848034	0.268539	-0.000340
H87	H	0.748477	0.231622	0.084010
H88	H	0.775820	0.230455	-0.208886
H89	H	0.676243	0.193545	-0.124584
H90	H	0.592267	0.296643	-0.040631
H91	H	0.691834	0.333556	-0.124977
H92	H	0.592427	0.296517	-0.209282
H93	H	1.481025	-0.109292	0.239158
C94	C	1.469806	-0.543419	0.274772
C95	C	1.578218	-0.508934	0.282457
C96	C	1.579390	-0.472434	0.414153
H97	H	1.469023	-0.575467	0.353389
H98	H	1.397845	-0.509991	0.280265
H99	H	1.650160	-0.542359	0.276979
H100	H	1.579023	-0.476874	0.203870
H101	H	1.507429	-0.439006	0.419646
H102	H	1.578604	-0.504487	0.492760
H103	H	1.652940	-0.449027	0.419379
H104	H	1.477600	-0.241399	-0.239115
C105	C	1.381316	0.153851	0.573404
C106	C	1.306916	0.195208	0.672484
C107	C	1.222002	0.242430	0.596517
H108	H	1.329299	0.128614	0.514035
H109	H	1.426209	0.183078	0.514046
H110	H	1.262025	0.165984	0.731818
H111	H	1.358898	0.220460	0.731857
H112	H	1.266895	0.271657	0.537159
H113	H	1.169993	0.217187	0.537150
H114	H	1.171519	0.270500	0.663731
C115	C	0.927595	0.032813	-0.000224
C116	C	1.003224	0.030263	-0.124599
C117	C	1.083823	-0.032208	-0.124838
H118	H	0.879520	-0.005967	-0.000293
H119	H	0.979065	0.030951	0.084048
H120	H	0.951760	0.032118	-0.208849
H121	H	1.051326	0.069028	-0.124557
H122	H	1.135292	-0.034070	-0.040566
H123	H	1.035737	-0.070983	-0.124903
H124	H	1.135154	-0.033944	-0.209217
C125	C	1.477101	-0.251390	0.274809
C126	C	1.368690	-0.285878	0.282481
C127	C	1.367499	-0.322390	0.414175
H128	H	1.477868	-0.219349	0.353428
H129	H	1.549062	-0.284818	0.280306
H130	H	1.296747	-0.252454	0.276998
H131	H	1.367899	-0.317931	0.203893
H132	H	1.439461	-0.355818	0.419672
H133	H	1.368270	-0.290344	0.492784
H134	H	1.293950	-0.345800	0.419393
H135	H	1.465848	-0.685520	0.239090
H136	H	1.623250	0.019419	0.645794
H137	H	1.404387	0.140974	0.406204
