data_functionalizedCrystal
_audit_creation_method	'MofGen! by Chris Wilmer'
_symmetry_space_group_name_H-M	'P1'
_symmetry_Int_Tables_number	1
_symmetry_cell_setting	triclinic
loop_
_symmetry_equiv_pos_as_xyz
  x,y,z
_cell_length_a	19.188930
_cell_length_b	17.038272
_cell_length_c	15.500227
_cell_angle_alpha	86.966746
_cell_angle_beta	92.848719
_cell_angle_gamma	87.128168
loop_
_atom_site_label
_atom_site_type_symbol
_atom_site_fract_x
_atom_site_fract_y
_atom_site_fract_z
O1	O	-0.935251	-0.093937	-0.072226
O2	O	-0.435251	0.406063	0.427774
O3	O	-0.732754	-0.107077	-0.072167
O4	O	-0.232754	0.392923	0.427833
O5	O	-0.832799	0.013304	-0.072189
O6	O	-0.332799	0.513304	0.427811
O7	O	-0.835206	-0.214318	-0.072204
O8	O	-0.335206	0.285682	0.427796
O9	O	-0.826726	0.006028	0.071701
O10	O	-0.326726	0.506028	0.571701
O11	O	-0.726681	-0.114354	0.071723
O12	O	-0.226681	0.385646	0.571723
O13	O	-0.929178	-0.101213	0.071664
O14	O	-0.429178	0.398787	0.571664
Cu15	Cu	-0.827375	-0.108448	0.084832
Cu16	Cu	-0.327375	0.391552	0.584832
Cu17	Cu	-0.834557	-0.099843	-0.085335
Cu18	Cu	-0.334557	0.400157	0.414665
O19	O	-0.829133	-0.221595	0.071686
O20	O	-0.329133	0.278405	0.571686
C21	C	-0.827573	0.038787	-0.000244
C22	C	-0.327573	0.538787	0.499756
C23	C	-0.821041	0.125560	-0.000242
C24	C	-0.321041	0.625560	0.499758
C25	C	-0.703679	-0.110290	-0.000214
C26	C	-0.203679	0.389710	0.499786
C27	C	-0.626095	-0.109014	-0.000191
C28	C	-0.126095	0.390986	0.499809
C29	C	-0.958253	-0.098000	-0.000290
C30	C	-0.458253	0.402000	0.499710
C31	C	-1.035838	-0.099276	-0.000319
C32	C	-0.535838	0.400724	0.499681
C33	C	-0.585560	-0.179649	-0.000210
C34	C	-0.085560	0.320351	0.499790
C35	C	-0.512662	-0.178448	-0.000219
C36	C	-0.012662	0.321552	0.499781
C37	C	-0.480302	-0.106609	-0.000228
C38	C	0.019698	0.393391	0.499772
C39	C	-0.520847	-0.035966	-0.000205
C40	C	-0.020847	0.464034	0.499795
C41	C	-0.593743	-0.037168	-0.000187
C42	C	-0.093743	0.462832	0.499813
N43	N	-0.370979	-0.049219	-0.049231
N44	N	0.129021	0.450781	0.450769
N45	N	-0.301731	-0.048081	-0.049250
N46	N	0.198269	0.451919	0.450750
C47	C	-0.260671	-0.102981	-0.000280
C48	C	0.239329	0.397019	0.499720
N49	N	-0.291475	-0.159073	0.048698
N50	N	0.208525	0.340927	0.548698
N51	N	-0.360730	-0.160213	0.048714
N52	N	0.139270	0.339787	0.548714
C53	C	-0.401259	-0.105297	-0.000247
C54	C	0.098741	0.394703	0.499753
C55	C	-0.141091	-0.172319	-0.000307
C56	C	0.358909	0.327681	0.499693
C57	C	-0.068192	-0.171116	-0.000312
C58	C	0.431808	0.328884	0.499688
C59	C	-0.076379	-0.028630	-0.000306
C60	C	0.423621	0.471370	0.499694
C61	C	-0.149276	-0.029836	-0.000293
C62	C	0.350724	0.470164	0.499707
C63	C	-0.181628	-0.101682	-0.000298
C64	C	0.318372	0.398318	0.499702
C65	C	-0.834359	-0.247078	-0.000261
C66	C	-0.334359	0.252922	0.499739
C67	C	-0.840891	-0.333850	-0.000268
C68	C	-0.340891	0.166150	0.499732
N69	N	-0.822329	-0.114500	0.204518
N70	N	-0.322329	0.385500	0.704518
C71	C	-0.881009	0.175862	-0.000259
C72	C	-0.381009	0.675862	0.499741
C73	C	-0.874868	0.257394	-0.000265
C74	C	-0.374868	0.757394	0.499735
C75	C	-0.808759	0.288621	-0.000249
C76	C	-0.308759	0.788621	0.499751
C77	C	-0.748787	0.238312	-0.000235
C78	C	-0.248787	0.738312	0.499765
C79	C	-0.754929	0.156783	-0.000234
C80	C	-0.254929	0.656783	0.499766
C81	C	-0.787061	0.534312	-0.000254
C82	C	-0.287061	1.034312	0.499746
C83	C	-0.780924	0.615848	-0.000252
C84	C	-0.280924	1.115848	0.499748
C85	C	-0.907005	0.634924	-0.000284
C86	C	-0.407005	1.134924	0.499716
C87	C	-0.913141	0.553391	-0.000278
C88	C	-0.413141	1.053391	0.499722
C89	C	-0.853169	0.503090	-0.000269
C90	C	-0.353169	1.003090	0.499731
C91	C	-0.802480	0.371959	-0.000252
C92	C	-0.302480	0.871959	0.499748
C93	C	-0.859449	0.419754	-0.000271
C94	C	-0.359449	0.919754	0.499729
N95	N	-0.839608	-0.093784	-0.205021
N96	N	-0.339608	0.406216	0.294979
C97	C	-0.864739	-0.063509	0.249785
C98	C	-0.364739	0.436491	0.749785
C99	C	-0.860929	-0.068093	0.340359
C100	C	-0.360929	0.431907	0.840359
C101	C	-0.814713	-0.123673	0.385664
C102	C	-0.314713	0.376327	0.885664
C103	C	-0.772299	-0.174666	0.340390
C104	C	-0.272299	0.325334	0.840390
C105	C	-0.776106	-0.170078	0.249818
C106	C	-0.276106	0.329922	0.749818
C107	C	-0.801000	-0.140189	0.659134
C108	C	-0.301000	0.359811	1.159134
C109	C	-0.797199	-0.144776	0.749712
C110	C	-0.297199	0.355224	1.249712
C111	C	-0.885828	-0.038201	0.749674
C112	C	-0.385828	0.461799	1.249674
C113	C	-0.889633	-0.033621	0.659101
C114	C	-0.389633	0.466379	1.159101
C115	C	-0.847217	-0.084611	0.613835
C116	C	-0.347217	0.415389	1.113835
C117	C	-0.810820	-0.128361	0.478245
C118	C	-0.310820	0.371639	0.978245
C119	C	-0.851107	-0.079918	0.521256
C120	C	-0.351107	0.420082	1.021256
H121	H	-0.611896	-0.238151	-0.000215
H122	H	-0.111896	0.261849	0.499785
H123	H	-0.741570	-0.211599	0.212962
H124	H	-0.241570	0.288401	0.712962
H125	H	-0.035189	-0.228637	-0.000321
H126	H	0.464811	0.271363	0.499679
H127	H	-0.494495	0.022527	-0.000224
H128	H	0.005505	0.522527	0.499776
H129	H	-0.626746	0.020353	-0.000172
H130	H	-0.126746	0.520353	0.499828
O131	O	-0.175994	-0.249805	-0.000295
O132	O	0.324006	0.250195	0.499705
H133	H	-0.135556	-0.298723	-0.000293
H134	H	0.364444	0.201277	0.499707
O135	O	-0.731178	0.405645	-0.000216
O136	O	-0.231178	0.905645	0.499784
H137	H	-0.727840	0.445302	-0.058857
H138	H	-0.227840	0.945302	0.441143
H139	H	-0.050035	0.029865	-0.000367
H140	H	0.449965	0.529865	0.499633
H141	H	-0.479652	-0.235969	-0.000231
H142	H	0.020348	0.264031	0.499769
H143	H	-0.182281	0.027683	-0.000283
H144	H	0.317719	0.527683	0.499717
H145	H	-0.934841	0.150444	-0.000266
H146	H	-0.434841	0.650444	0.499734
H147	H	-0.902375	-0.018253	0.212904
H148	H	-0.402375	0.481747	0.712904
H149	H	-0.888733	-0.034662	0.484366
H150	H	-0.388733	0.465338	0.984366
O151	O	-0.939545	0.311651	-0.000268
O152	O	-0.439545	0.811651	0.499732
H153	H	-0.986546	0.276239	-0.000264
H154	H	-0.486546	0.776239	0.499736
H155	H	-0.966974	0.527972	-0.000291
H156	H	-0.466974	1.027972	0.499709
O157	O	-0.971687	0.689175	-0.000299
O158	O	-0.471687	1.189175	0.499701
H159	H	-0.956314	0.751115	-0.000303
H160	H	-0.456314	1.251115	0.499697
H161	H	-0.773191	-0.173617	0.515139
H162	H	-0.273191	0.326383	1.015139
O163	O	-0.939487	0.026316	0.610230
O164	O	-0.439487	0.526316	1.110230
H165	H	-0.909587	0.066312	0.568978
H166	H	-0.409587	0.566312	1.068978
O167	O	-0.931569	0.016795	0.798503
O168	O	-0.431569	0.516795	1.298503
H169	H	-0.987308	0.007861	0.781091
H170	H	-0.487308	0.507861	1.281091
H171	H	-0.727087	0.641268	-0.000225
H172	H	-0.227087	1.141268	0.499775
H173	H	-0.706097	0.115826	-0.000221
H174	H	-0.206097	0.615826	0.499779
H175	H	-0.738228	0.493365	-0.000246
H176	H	-0.238228	0.993365	0.499754
O177	O	-0.677481	0.271986	-0.000208
O178	O	-0.177481	0.771986	0.499792
H179	H	-0.683283	0.337130	-0.000198
H180	H	-0.183283	0.837130	0.499802
O181	O	-0.906670	-0.013099	0.389190
O182	O	-0.406670	0.486901	0.889190
H183	H	-0.940806	-0.048007	0.430435
H184	H	-0.440806	0.451993	0.930435
H185	H	-0.759562	-0.190038	0.786595
H186	H	-0.259562	0.309962	1.286595
O187	O	-0.930749	0.386073	-0.000295
O188	O	-0.430749	0.886073	0.499705
H189	H	-0.971422	0.434746	-0.000312
H190	H	-0.471422	0.934746	0.499688
O191	O	-0.755260	-0.195191	0.610316
O192	O	-0.255260	0.304809	1.110316
H193	H	-0.722492	-0.234615	0.657038
H194	H	-0.222492	0.265385	1.157038
H195	H	-0.734666	-0.219918	0.377283
H196	H	-0.234666	0.280082	0.877283
