data_functionalizedCrystal
_audit_creation_method	'MofGen! by Chris Wilmer'
_symmetry_space_group_name_H-M	'P1'
_symmetry_Int_Tables_number	1
_symmetry_cell_setting	triclinic
loop_
_symmetry_equiv_pos_as_xyz
  x,y,z
_cell_length_a	13.635800
_cell_length_b	14.814571
_cell_length_c	10.992410
_cell_angle_alpha	97.378906
_cell_angle_beta	71.235349
_cell_angle_gamma	135.366958
loop_
_atom_site_label
_atom_site_type_symbol
_atom_site_fract_x
_atom_site_fract_y
_atom_site_fract_z
V1	V	2.148459	0.177760	-0.400574
O2	O	2.031799	-0.008542	-0.392968
O3	O	2.227016	0.352468	-0.397815
O4	O	2.135850	0.175026	-0.575286
O5	O	2.123595	0.170129	-0.214268
V6	V	2.375456	0.155476	-0.378292
O7	O	2.311475	0.226641	-0.449449
O8	O	2.437539	0.106595	-0.329416
O9	O	2.185297	-0.019232	-0.381051
O10	O	2.550815	0.341778	-0.385898
O11	O	2.459018	0.163107	-0.564598
O12	O	2.276462	0.158210	-0.203580
V13	V	2.648459	0.177760	-0.400574
O14	O	2.531799	-0.008542	-0.392968
O15	O	2.727016	0.352468	-0.397815
O16	O	2.635850	0.175026	-0.575286
O17	O	2.623595	0.170129	-0.214268
V18	V	2.875456	0.155476	-0.378292
O19	O	2.811475	0.226641	-0.449449
O20	O	2.937539	0.106595	-0.329416
O21	O	2.685297	-0.019232	-0.381051
O22	O	3.050815	0.341778	-0.385898
O23	O	2.959018	0.163107	-0.564598
O24	O	2.776462	0.158210	-0.203580
C25	C	2.174139	0.395058	-0.391491
C26	C	2.279088	0.537884	-0.390399
C27	C	2.313261	0.733170	-0.381612
C28	C	2.203845	0.584527	-0.382237
C29	C	2.334244	0.576519	-0.270583
C30	C	2.442685	0.725062	-0.269313
C31	C	2.528261	0.763643	-0.514929
C32	C	2.417427	0.615131	-0.517529
C33	C	2.057847	0.168711	-0.617872
C34	C	2.088859	0.167631	-0.760700
C35	C	2.573318	0.938183	-0.387370
C36	C	2.468328	0.795355	-0.388462
C37	C	2.017367	0.157795	-0.955825
C38	C	1.985442	0.159450	-0.807341
C39	C	2.252957	0.294311	-0.837790
C40	C	2.284538	0.293191	-0.986357
C41	C	2.097384	0.047893	-0.948352
C42	C	2.061721	0.047293	-0.799339
C43	C	2.069848	-0.061815	-0.387372
C44	C	1.954519	-0.204640	-0.388471
C45	C	1.691295	-0.399922	-0.397288
C46	C	1.811389	-0.251282	-0.396641
C47	C	2.012093	-0.243256	-0.508296
C48	C	1.891514	-0.391796	-0.509587
C49	C	1.790019	-0.430412	-0.263972
C50	C	1.907467	-0.281903	-0.261350
C51	C	2.186138	0.164529	-0.160988
C52	C	2.144741	0.165602	-0.018158
C53	C	2.674139	0.395058	-0.391491
C54	C	2.779088	0.537884	-0.390399
C55	C	2.557847	0.168711	-0.617872
C56	C	2.588859	0.167631	-0.760700
C57	C	2.686138	0.164529	-0.160988
C58	C	2.644741	0.165602	-0.018158
C59	C	2.698762	0.173541	-0.834346
C60	C	2.727892	0.172522	-0.968547
C61	C	2.537210	0.159689	-0.955446
C62	C	2.508074	0.160699	-0.821246
H63	H	2.162045	0.558763	-0.467850
C64	C	1.849765	-0.485941	-0.255490
H65	H	1.875791	-0.466473	-0.178878
H66	H	1.775742	-0.577494	-0.252960
H67	H	1.934644	-0.448093	-0.329405
C68	C	2.067013	0.513667	-0.258930
H69	H	1.999591	0.422474	-0.258897
H70	H	2.096613	0.534770	-0.184242
H71	H	2.020400	0.540027	-0.257590
H72	H	2.764542	0.179184	-0.785053
H73	H	2.006602	-0.251702	-0.247967
H74	H	2.391525	0.546284	-0.271965
H75	H	2.817382	0.177333	-1.028504
H76	H	2.236082	0.522282	-0.176465
H77	H	2.380649	0.591235	-0.606175
H78	H	2.471445	0.154048	-1.004759
H79	H	2.418568	0.155876	-0.761279
H80	H	2.551797	0.765945	-0.269124
C81	C	2.328031	0.795883	-0.496539
H82	H	2.428899	0.860560	-0.549729
H83	H	2.270882	0.731182	-0.546345
H84	H	2.293448	0.834629	-0.464442
C85	C	2.415127	0.308089	-1.043957
H86	H	2.448666	0.314807	-0.976540
H87	H	2.383893	0.234397	-1.083995
H88	H	2.493411	0.384290	-1.106857
H89	H	1.765013	-0.225532	-0.311022
H90	H	1.864412	0.068362	-0.754010
C91	C	1.845583	-0.249642	-0.141582
H92	H	1.817313	-0.296678	-0.064990
H93	H	1.919405	-0.159088	-0.138514
H94	H	1.761835	-0.273275	-0.147345
H95	H	1.996500	-0.048305	-0.968721
C96	C	2.678278	0.819185	-0.523417
H97	H	2.704320	0.861506	-0.450296
H98	H	2.671134	0.750482	-0.524362
H99	H	2.751941	0.879864	-0.600823
C100	C	2.249301	0.760931	-0.258407
H101	H	2.155614	0.723029	-0.255026
H102	H	2.238242	0.724726	-0.183743
H103	H	2.314588	0.852177	-0.260458
C104	C	2.380003	0.748731	-0.140808
H105	H	2.288631	0.667652	-0.089873
H106	H	2.448101	0.795017	-0.094338
H107	H	2.364572	0.798105	-0.158940
H108	H	1.941944	-0.046419	-0.746991
H109	H	2.550534	0.813160	-0.605590
H110	H	2.000911	0.245199	-0.782517
H111	H	1.911641	0.066080	-0.974664
C112	C	2.497648	0.574341	-0.535605
H113	H	2.447605	0.509384	-0.465538
H114	H	2.498369	0.540752	-0.615175
H115	H	2.596464	0.647728	-0.537223
H116	H	2.275983	0.383657	-0.812175
C117	C	2.156655	0.045262	-0.755401
H118	H	2.214351	0.118111	-0.712737
H119	H	2.094018	-0.032490	-0.697269
H120	H	2.220194	0.048945	-0.829104
H121	H	2.048353	0.242370	-1.003808
H122	H	2.322551	0.382318	-1.032618
C123	C	2.361867	0.308594	-0.798876
H124	H	2.308098	0.237258	-0.735111
H125	H	2.422865	0.310010	-0.873221
H126	H	2.421813	0.387322	-0.764261
H127	H	2.189242	0.052497	-0.989192
H128	H	1.586321	-0.446354	-0.312212
H129	H	1.659485	-0.420469	-0.488497
C130	C	1.848088	-0.180412	-0.519945
H131	H	1.789583	-0.242458	-0.570634
H132	H	1.827471	-0.130165	-0.495979
H133	H	1.949861	-0.124904	-0.569314
H134	H	1.867382	-0.409296	-0.604724
C135	C	1.953630	-0.447034	-0.509821
H136	H	2.052382	-0.378676	-0.509142
H137	H	1.894488	-0.510258	-0.434856
H138	H	1.952363	-0.486226	-0.585628
H139	H	2.115409	-0.213020	-0.506909
H140	H	2.046617	-0.189008	-0.602408
H141	H	1.688696	-0.479942	-0.173317
