data_functionalizedCrystal
_audit_creation_method	'MofGen! by Chris Wilmer'
_symmetry_space_group_name_H-M	'P1'
_symmetry_Int_Tables_number	1
_symmetry_cell_setting	triclinic
loop_
_symmetry_equiv_pos_as_xyz
  x,y,z
_cell_length_a	6.817900
_cell_length_b	12.908942
_cell_length_c	14.125286
_cell_angle_alpha	96.077598
_cell_angle_beta	100.396688
_cell_angle_gamma	100.860556
loop_
_atom_site_label
_atom_site_type_symbol
_atom_site_fract_x
_atom_site_fract_y
_atom_site_fract_z
V1	V	-3.978002	-0.145040	-0.299458
O2	O	-3.980247	0.007807	-0.294309
O3	O	-3.916578	-0.288395	-0.296880
O4	O	-3.914393	-0.142441	-0.430304
O5	O	-3.982447	-0.139157	-0.159961
V6	V	-4.465289	-0.126801	-0.282838
O7	O	-4.231005	-0.185048	-0.335917
O8	O	-4.662483	-0.086793	-0.246379
O9	O	-4.303507	0.016554	-0.285415
O10	O	-4.580441	-0.279648	-0.287987
O11	O	-4.578241	-0.132684	-0.422334
O12	O	-4.305692	-0.129400	-0.151992
C13	C	-3.758902	-0.323354	-0.292020
C14	C	-3.789865	-0.440546	-0.290784
C15	C	-4.210201	-0.671480	-0.298045
C16	C	-4.239303	-0.781593	-0.296884
C17	C	-3.877177	-0.770889	-0.287309
C18	C	-3.848075	-0.660776	-0.288470
C19	C	-4.014594	-0.611075	-0.293836
C20	C	-3.985487	-0.500959	-0.294990
C21	C	-3.623366	-0.490258	-0.285422
C22	C	-3.652468	-0.600371	-0.284261
C23	C	-3.756114	-0.137174	-0.462213
C24	C	-3.785304	-0.135998	-0.569177
C25	C	-4.023879	-0.138134	-0.817291
C26	C	-3.838794	-0.133705	-0.764993
C27	C	-3.809033	-0.134981	-0.656031
C28	C	-4.053648	-0.136858	-0.926263
C29	C	-4.124525	0.051507	-0.290274
C30	C	-4.072799	0.168699	-0.291515
C31	C	-4.127313	-0.134671	-0.120077
C32	C	-4.077363	-0.135841	-0.013113
H33	H	-4.345783	-0.631010	-0.302400
H34	H	-4.121075	-0.460493	-0.299353
N35	N	-3.697584	-0.824499	-0.281493
H36	H	-3.745708	-0.903419	-0.281388
H37	H	-3.594114	-0.792830	-0.219708
H38	H	-3.516901	-0.640853	-0.279896
H39	H	-3.464085	-0.441064	-0.281994
N40	N	-4.450279	-0.846747	-0.301428
H41	H	-4.551343	-0.798549	-0.305005
H42	H	-4.450884	-0.882592	-0.241270
H43	H	-3.702688	-0.128953	-0.802052
N44	N	-4.204161	-0.144421	-0.768212
H45	H	-4.157004	-0.144453	-0.696202
H46	H	-4.308269	-0.212139	-0.796989
