data_functionalizedCrystal
_audit_creation_method	'MofGen! by Chris Wilmer'
_symmetry_space_group_name_H-M	'P1'
_symmetry_Int_Tables_number	1
_symmetry_cell_setting	triclinic
loop_
_symmetry_equiv_pos_as_xyz
  x,y,z
_cell_length_a	14.044220
_cell_length_b	10.489741
_cell_length_c	13.101039
_cell_angle_alpha	93.396862
_cell_angle_beta	86.340132
_cell_angle_gamma	88.864026
loop_
_atom_site_label
_atom_site_type_symbol
_atom_site_fract_x
_atom_site_fract_y
_atom_site_fract_z
O1	O	1.264971	0.301301	-0.085104
O2	O	0.988928	0.290194	-0.085130
O3	O	1.133230	0.110787	-0.085110
O4	O	1.120668	0.480707	-0.085124
O5	O	1.122877	0.123682	0.085318
O6	O	0.978574	0.303089	0.085298
O7	O	1.254618	0.314196	0.085324
Zn8	Zn	1.114952	0.310690	0.112370
Zn9	Zn	1.128593	0.293700	-0.112176
O10	O	1.110315	0.493603	0.085305
C11	C	0.948404	0.291780	0.000081
C12	C	0.843079	0.277280	0.000071
C13	C	0.650236	0.250773	0.000092
C14	C	0.593304	0.353611	0.000093
C15	C	0.486000	0.338862	0.000105
C16	C	0.757551	0.265520	0.000080
C17	C	1.127105	0.069607	0.000103
C18	C	1.124266	-0.072311	0.000101
C19	C	1.032451	-0.149765	0.000085
C20	C	1.070719	-0.231130	0.084119
C21	C	1.080948	-0.243816	-0.083910
C22	C	1.162568	-0.151801	0.084204
C23	C	1.172789	-0.164485	-0.083900
C24	C	1.211123	-0.245814	0.000155
C25	C	1.295142	0.312609	0.000111
C26	C	1.400466	0.327109	0.000114
C27	C	1.116441	0.534783	0.000089
C28	C	1.119280	0.676700	0.000084
N29	N	1.105649	0.322285	0.265618
N30	N	1.137903	0.282095	-0.265424
C31	C	1.092993	0.338073	0.474659
C32	C	1.150557	0.266311	0.525542
C33	C	1.143515	0.275096	0.641860
C34	C	1.100034	0.329290	0.358331
H35	H	0.618389	0.151662	0.000101
H36	H	1.046404	-0.284097	-0.154961
C37	C	1.224285	0.174407	0.466392
H38	H	1.259474	0.130533	0.513615
H39	H	1.266639	0.221651	0.424535
H40	H	1.192220	0.114322	0.424539
C41	C	0.930470	-0.093015	0.000187
H42	H	0.894371	-0.115602	0.059965
H43	H	0.901111	-0.125789	-0.058905
H44	H	0.933016	-0.002627	-0.000414
C45	C	1.012411	-0.271094	0.180081
H46	H	0.948938	-0.238079	0.179975
H47	H	1.040795	-0.238214	0.239756
H48	H	1.011511	-0.361654	0.179699
H49	H	1.197063	-0.111651	0.155329
H50	H	1.286678	-0.287571	0.000208
H51	H	1.215921	-0.134879	-0.154942
C52	C	1.019256	0.429951	0.533809
H53	H	0.984051	0.473811	0.486590
H54	H	1.051301	0.490030	0.575676
H55	H	0.976905	0.382673	0.575651
C56	C	0.636323	0.487511	0.000065
H57	H	0.703848	0.479989	0.000046
H58	H	0.612240	0.537086	0.059490
H59	H	0.619435	0.528054	-0.059382
