data_functionalizedCrystal
_audit_creation_method	'MofGen! by Chris Wilmer'
_symmetry_space_group_name_H-M	'P1'
_symmetry_Int_Tables_number	1
_symmetry_cell_setting	triclinic
loop_
_symmetry_equiv_pos_as_xyz
  x,y,z
_cell_length_a	6.817900
_cell_length_b	14.125469
_cell_length_c	16.255661
_cell_angle_alpha	95.870770
_cell_angle_beta	103.488922
_cell_angle_gamma	100.398878
loop_
_atom_site_label
_atom_site_type_symbol
_atom_site_fract_x
_atom_site_fract_y
_atom_site_fract_z
V1	V	-4.010936	-0.133890	-0.263542
O2	O	-4.014854	0.005634	-0.258862
O3	O	-3.947073	-0.264713	-0.261416
O4	O	-3.962699	-0.132182	-0.378630
O5	O	-3.999120	-0.127814	-0.140837
V6	V	-4.496546	-0.117160	-0.248905
O7	O	-4.267615	-0.170589	-0.295650
O8	O	-4.690064	-0.080461	-0.216797
O9	O	-4.337203	0.013662	-0.251031
O10	O	-4.610025	-0.256684	-0.253585
O11	O	-4.625759	-0.123236	-0.371610
O12	O	-4.321576	-0.118869	-0.133818
C13	C	-3.788307	-0.296593	-0.257175
C14	C	-3.817379	-0.403545	-0.256204
C15	C	-3.870675	-0.599365	-0.254439
C16	C	-4.056174	-0.651697	-0.258011
C17	C	-4.085830	-0.760658	-0.257029
C18	C	-3.841011	-0.490394	-0.255421
C19	C	-3.808239	-0.127536	-0.406692
C20	C	-3.849981	-0.127004	-0.500774
C21	C	-3.761285	-0.120657	-0.723608
C22	C	-3.908049	-0.202574	-0.792883
C23	C	-3.926483	-0.126008	-0.673025
C24	C	-3.854120	-0.043154	-0.771390
C25	C	-4.000365	-0.125041	-0.839411
C26	C	-4.072720	-0.207998	-0.741070
C27	C	-4.018737	-0.048505	-0.719561
C28	C	-4.165635	-0.130445	-0.788817
C29	C	-3.883916	-0.126566	-0.577175
C30	C	-4.042948	-0.124491	-0.935261
C31	C	-4.159310	0.045538	-0.255270
C32	C	-4.109476	0.152488	-0.256246
C33	C	-4.139379	-0.123518	-0.105751
C34	C	-4.076875	-0.124044	-0.011668
H35	H	-3.590007	-0.116625	-0.695138
O36	O	-3.707776	-0.643548	-0.249752
C37	C	-3.491771	-0.738259	-0.170231
C38	C	-3.676247	-0.688230	-0.175429
H39	H	-3.466249	-0.774414	-0.110155
H40	H	-3.347311	-0.681704	-0.167635
H41	H	-3.525280	-0.795757	-0.229101
H42	H	-3.642938	-0.630738	-0.116574
H43	H	-3.820649	-0.744842	-0.178067
O44	O	-3.852593	-0.280172	-0.831063
C45	C	-3.638321	-0.334959	-0.916683
C46	C	-3.700988	-0.247000	-0.873510
H47	H	-3.515710	-0.308171	-0.950996
H48	H	-3.779283	-0.382653	-0.964963
H49	H	-3.573476	-0.379178	-0.865991
H50	H	-3.765792	-0.202706	-0.924140
H51	H	-3.559965	-0.199377	-0.825213
H52	H	-4.337017	-0.134605	-0.817153
O53	O	-4.182261	-0.291170	-0.724659
C54	C	-4.265631	-0.384971	-0.617021
C55	C	-4.141441	-0.290748	-0.635488
H56	H	-4.232706	-0.384652	-0.544928
H57	H	-4.218825	-0.450598	-0.647913
H58	H	-4.437437	-0.389389	-0.644560
H59	H	-3.969606	-0.286236	-0.607951
H60	H	-4.188420	-0.225166	-0.604613
H61	H	-4.065007	0.016635	-0.687613
O62	O	-3.744040	0.039941	-0.787689
C63	C	-3.407052	0.138930	-0.772972
C64	C	-3.531481	0.044809	-0.754443
H65	H	-3.235173	0.142886	-0.746117
H66	H	-3.452421	0.204670	-0.741523
H67	H	-3.441459	0.138880	-0.845056
H68	H	-3.497138	0.044764	-0.682374
H69	H	-3.486094	-0.020889	-0.785951
H70	H	-4.192711	-0.614668	-0.261806
