data_functionalizedCrystal
_audit_creation_method	'MofGen! by Chris Wilmer'
_symmetry_space_group_name_H-M	'P1'
_symmetry_Int_Tables_number	1
_symmetry_cell_setting	triclinic
loop_
_symmetry_equiv_pos_as_xyz
  x,y,z
_cell_length_a	29.839131
_cell_length_b	12.759401
_cell_length_c	12.759393
_cell_angle_alpha	90.018292
_cell_angle_beta	89.963226
_cell_angle_gamma	89.958419
loop_
_atom_site_label
_atom_site_type_symbol
_atom_site_fract_x
_atom_site_fract_y
_atom_site_fract_z
Zn1	Zn	-0.178830	-1.606058	-0.593935
Zn2	Zn	-0.253967	-1.605871	-0.418236
Zn3	Zn	-0.178852	-1.430361	-0.418275
Zn4	Zn	-0.253934	-1.430267	-0.593877
O5	O	-0.216396	-1.518139	-0.506081
O6	O	-0.188802	-1.753054	-0.570636
O7	O	-0.244026	-1.582550	-0.271220
O8	O	-0.115982	-1.453785	-0.441617
O9	O	-0.244004	-1.752917	-0.441551
O10	O	-0.115966	-1.582869	-0.570674
O11	O	-0.188839	-1.453604	-0.271248
O12	O	-0.188807	-1.283327	-0.441561
O13	O	-0.243948	-1.453625	-0.740906
O14	O	-0.243969	-1.283258	-0.570575
O15	O	-0.188769	-1.582778	-0.740949
O16	O	-0.316830	-1.582459	-0.441495
O17	O	-0.316805	-1.453444	-0.570538
C18	C	-0.216387	-1.245172	-0.506066
C19	C	-0.216395	-1.128395	-0.506085
C20	C	-0.333118	-1.517950	-0.506029
C21	C	-0.383053	-1.517965	-0.506041
C22	C	-0.216353	-1.518212	-0.780114
C23	C	-0.216334	-1.518243	-0.896891
C24	C	-0.692696	-1.585440	-0.438986
C25	C	-0.880369	-1.585570	-0.439027
O26	O	-0.904634	-1.642789	-0.381974
N27	N	-0.903838	-1.518357	-0.506160
C28	C	-0.880385	-1.451112	-0.573292
O29	O	-0.904653	-1.393955	-0.630402
C30	C	-0.692713	-1.450989	-0.573256
C31	C	-0.669247	-1.518198	-0.506111
C32	C	-0.669230	-1.652645	-0.371848
C33	C	-0.622314	-1.652608	-0.371834
C34	C	-0.598865	-1.585366	-0.438959
C35	C	-0.622331	-1.518161	-0.506098
C36	C	-0.669261	-1.383750	-0.640393
C37	C	-0.622340	-1.383727	-0.640380
C38	C	-0.598874	-1.450936	-0.573235
C39	C	-0.551967	-1.450882	-0.573209
N40	N	-0.528498	-1.518094	-0.506076
C41	C	-0.551947	-1.585336	-0.438951
C42	C	-0.978916	-1.451180	-0.573305
C43	C	-1.025834	-1.451210	-0.573313
C44	C	-1.025814	-1.585669	-0.439049
C45	C	-0.978896	-1.585633	-0.439036
C46	C	-0.955447	-1.518393	-0.506172
C47	C	-0.453421	-1.585253	-0.438927
C48	C	-0.406502	-1.585206	-0.438916
C49	C	-0.406525	-1.450752	-0.573184
C50	C	-0.453441	-1.450794	-0.573191
C51	C	-0.476888	-1.518052	-0.506059
O52	O	-0.527673	-1.393701	-0.630240
O53	O	-0.527671	-1.642502	-0.381867
C54	C	-0.739611	-1.585477	-0.439000
C55	C	-0.763078	-1.518272	-0.506138
C56	C	-0.739628	-1.451030	-0.573263
C57	C	-0.809996	-1.518302	-0.506146
C58	C	-0.833445	-1.585544	-0.439021
C59	C	-0.809976	-1.652756	-0.371888
C60	C	-0.763061	-1.652719	-0.371875
C61	C	-0.763097	-1.383818	-0.640396
C62	C	-0.810013	-1.383860	-0.640404
C63	C	-0.833462	-1.451102	-0.573279
C64	C	-0.099217	-1.518358	-0.506156
C65	C	-0.049283	-1.518452	-0.506188
C66	C	-0.216404	-1.792173	-0.506096
C67	C	-0.216408	-1.908949	-0.506102
C68	C	-0.245164	-1.073525	-0.573152
C69	C	-0.245169	-0.963801	-0.573163
C70	C	-0.187636	-0.963827	-0.439032
C71	C	-0.187628	-1.073549	-0.439027
C72	C	-0.273930	-1.128371	-0.640210
C73	C	-0.302702	-1.073500	-0.707282
C74	C	-0.302708	-0.963776	-0.707293
C75	C	-0.273942	-0.908923	-0.640233
C76	C	-0.245059	-1.585389	-0.951736
C77	C	-0.245040	-1.585420	-1.061460
C78	C	-0.187570	-1.451151	-1.061485
C79	C	-0.187587	-1.451126	-0.951763
C80	C	-0.273806	-1.652506	-0.896864
C81	C	-0.302533	-1.719656	-0.951708
C82	C	-0.302514	-1.719688	-1.061433
C83	C	-0.273768	-1.652569	-1.116312
C84	C	-0.216406	-1.518127	-0.233113
C85	C	-0.216298	-1.518300	-0.116337
H86	H	-0.387397	-1.639936	-0.384235
Br87	Br	-0.947054	-1.676848	-0.347907
Br88	Br	-0.341735	-1.147940	-0.798296
H89	H	-0.164195	-1.396453	-0.907107
H90	H	-0.164216	-0.919157	-0.384434
H91	H	-0.387426	-1.396001	-0.627834
H92	H	-0.326132	-0.919103	-0.761913
Br93	Br	-0.148583	-1.148024	-0.348009
Br94	Br	-0.273737	-1.652627	-1.265225
Br95	Br	-0.841809	-1.744008	-0.280786
H96	H	-0.273826	-1.652485	-0.807521
H97	H	-0.273945	-0.819578	-0.640257
H98	H	-0.325935	-1.774308	-0.907018
Br99	Br	-0.341496	-1.810828	-1.135863
H100	H	-0.164166	-1.396506	-1.106176
H101	H	-0.472506	-1.640023	-0.384264
Br102	Br	-0.590475	-1.743841	-0.280719
H103	H	-1.044915	-1.640420	-0.384393
Br104	Br	-1.057675	-1.359978	-0.664426
Br105	Br	-0.701045	-1.743917	-0.280739
H106	H	-0.959827	-1.396423	-0.627977
H107	H	-0.273930	-1.217713	-0.640207
H108	H	-0.688359	-1.329016	-0.695065
H109	H	-0.603251	-1.328973	-0.695053
Br110	Br	-0.841854	-1.292635	-0.731535
Br111	Br	-0.485289	-1.359555	-0.664291
H112	H	-0.743958	-1.707447	-0.317199
H113	H	-0.744008	-1.329063	-0.695059
