data_functionalizedCrystal
_audit_creation_method	'MofGen! by Chris Wilmer'
_symmetry_space_group_name_H-M	'P1'
_symmetry_Int_Tables_number	1
_symmetry_cell_setting	triclinic
loop_
_symmetry_equiv_pos_as_xyz
  x,y,z
_cell_length_a	12.759401
_cell_length_b	12.827892
_cell_length_c	12.759393
_cell_angle_alpha	90.031046
_cell_angle_beta	90.018496
_cell_angle_gamma	90.015553
loop_
_atom_site_label
_atom_site_type_symbol
_atom_site_fract_x
_atom_site_fract_y
_atom_site_fract_z
Zn1	Zn	1.606250	-0.415967	0.593985
Zn2	Zn	1.606143	-0.590748	0.418307
Zn3	Zn	1.430552	-0.416022	0.418325
Zn4	Zn	1.430539	-0.590667	0.593948
O5	O	1.518371	-0.503351	0.506141
O6	O	1.753257	-0.439163	0.570689
O7	O	1.582811	-0.567626	0.271288
O8	O	1.453910	-0.269778	0.441649
O9	O	1.753178	-0.567573	0.441619
O10	O	1.582994	-0.269738	0.570706
O11	O	1.453805	-0.439256	0.271301
O12	O	1.283530	-0.439178	0.441613
O13	O	1.453887	-0.567436	0.740974
O14	O	1.283520	-0.567489	0.570643
O15	O	1.582981	-0.439085	0.741001
O16	O	1.582798	-0.736973	0.441583
O17	O	1.453782	-0.736914	0.570626
C18	C	1.245404	-0.503332	0.506127
C19	C	1.128627	-0.503349	0.506146
C20	C	1.518305	-0.774861	0.506122
C21	C	1.518373	-0.891014	0.506149
C22	C	1.073787	-0.570267	0.573221
C23	C	0.964063	-0.570280	0.573232
C24	C	0.964028	-0.436453	0.439085
C25	C	1.073750	-0.436436	0.439079
C26	C	1.073807	-0.647534	0.650666
C27	C	0.964083	-0.647548	0.650678
C28	C	1.582220	-0.942695	0.570067
C29	C	1.582292	-1.062746	0.570097
C30	C	1.792404	-0.503371	0.506156
C31	C	1.909181	-0.503379	0.506162
C32	C	1.518445	-0.503245	0.780175
C33	C	1.518476	-0.503200	0.896951
C34	C	1.518466	-0.230781	0.506184
C35	C	1.518506	-0.114628	0.506202
C36	C	1.518358	-0.503380	0.233174
C37	C	1.518530	-0.503131	0.116398
C38	C	1.585705	-0.436361	0.951829
C39	C	1.585730	-0.436324	1.061553
C40	C	1.451294	-0.569973	1.061512
C41	C	1.451265	-0.570005	0.951790
C42	C	1.663323	-0.359203	0.951854
C43	C	1.663348	-0.359165	1.061578
H44	H	1.118397	-0.381937	0.384468
H45	H	1.636957	-1.107191	0.624816
H46	H	1.636825	-0.898067	0.624774
H47	H	1.463760	-0.935644	0.451452
C48	C	1.839778	-0.406239	1.016431
C49	C	1.773186	-0.388439	1.101789
H50	H	1.907581	-0.424318	1.041258
H51	H	1.844222	-0.344843	0.975092
H52	H	1.812698	-0.461641	0.975064
H53	H	1.800262	-0.333032	1.143151
H54	H	1.768746	-0.449842	1.143145
H55	H	0.919334	-0.381975	0.384483
C56	C	1.598244	-0.187216	1.025835
C57	C	1.624068	-0.255356	1.107552
H58	H	1.573999	-0.123130	1.054221
H59	H	1.544724	-0.217464	0.983930
H60	H	1.658503	-0.174830	0.983944
H61	H	1.563806	-0.267749	1.149438
H62	H	1.677592	-0.225102	1.149474
H63	H	0.934286	-0.728463	0.628746
C64	C	1.028725	-0.600724	0.827210
C65	C	1.114058	-0.618390	0.760555
H66	H	1.053577	-0.582725	0.895046
H67	H	0.987368	-0.662147	0.831531
H68	H	0.987368	-0.545306	0.800264
H69	H	1.155411	-0.673814	0.787497
H70	H	1.155432	-0.556960	0.756237
C71	C	1.309903	-0.584516	0.828391
C72	C	1.377355	-0.643462	0.891462
H73	H	1.264269	-0.629868	0.791152
H74	H	1.349928	-0.544746	0.780036
H75	H	1.269754	-0.538970	0.871219
H76	H	1.417510	-0.689004	0.848634
H77	H	1.337326	-0.683250	0.939824
H78	H	1.396571	-0.624360	1.106175
H79	H	1.107820	-0.724374	0.621383
H80	H	1.463845	-1.070190	0.451471
H81	H	0.930085	-0.618659	0.728029
H82	H	1.641556	-0.278273	0.922097
H83	H	1.740595	-0.388216	0.917818
