data_functionalizedCrystal
_audit_creation_method	'MofGen! by Chris Wilmer'
_symmetry_space_group_name_H-M	'P1'
_symmetry_Int_Tables_number	1
_symmetry_cell_setting	triclinic
loop_
_symmetry_equiv_pos_as_xyz
  x,y,z
_cell_length_a	15.944551
_cell_length_b	15.944551
_cell_length_c	9.565339
_cell_angle_alpha	89.999279
_cell_angle_beta	90.000937
_cell_angle_gamma	83.498738
loop_
_atom_site_label
_atom_site_type_symbol
_atom_site_fract_x
_atom_site_fract_y
_atom_site_fract_z
O1	O	1.114524	0.108326	-0.116117
O2	O	0.869974	0.121682	-0.116152
O3	O	0.998927	-0.007271	-0.116121
O4	O	0.985571	0.237279	-0.116148
O5	O	0.998917	-0.007263	0.116399
O6	O	0.869964	0.121690	0.116368
O7	O	1.114513	0.108334	0.116403
Zn8	Zn	0.992237	0.115013	0.153303
Zn9	Zn	0.992250	0.115003	-0.153052
O10	O	0.985561	0.237287	0.116372
C11	C	0.838675	0.121132	0.000103
C12	C	0.745429	0.119470	0.000090
C13	C	0.998367	-0.038561	0.000139
C14	C	0.996705	-0.131807	0.000140
C15	C	0.530572	0.035565	0.000127
C16	C	0.469557	0.074524	-0.114522
C17	C	0.574703	0.116462	0.000107
C18	C	0.469569	0.074551	0.114724
C19	C	0.409790	0.113551	0.000130
C20	C	0.514916	0.155443	-0.114637
C21	C	0.514935	0.155459	0.114713
C22	C	0.453937	0.194476	0.000036
C23	C	0.669705	0.118137	0.000093
C24	C	0.314789	0.111883	0.000134
C25	C	0.912801	-0.346663	0.000108
C26	C	0.951758	-0.407677	0.114760
C27	C	0.993698	-0.302533	0.000128
C28	C	0.951787	-0.407668	-0.114486
C29	C	0.990787	-0.467445	0.000111
C30	C	1.032677	-0.362318	0.114875
C31	C	1.032695	-0.362303	-0.114474
C32	C	1.071711	-0.423298	0.000206
C33	C	0.995372	-0.207530	0.000139
C34	C	0.989119	-0.562446	0.000111
C35	C	1.145813	0.108885	0.000144
C36	C	1.239059	0.110547	0.000148
C37	C	0.986120	0.268577	0.000108
C38	C	0.987782	0.361823	0.000099
N39	N	0.992234	0.115020	0.362382
N40	N	0.992260	0.114990	-0.362132
C41	C	0.932580	0.174637	0.453571
C42	C	1.008484	0.190940	0.546759
C43	C	0.916362	0.098724	0.546750
C44	C	1.068177	0.131361	0.453518
C45	C	0.976005	0.039112	0.453501
C46	C	1.051964	0.055382	0.546647
H47	H	0.563905	-0.031573	-0.000008
Cl48	Cl	0.854764	0.252542	0.390464
H49	H	1.102479	0.004950	0.587258
Cl50	Cl	0.546014	0.208248	0.264358
Cl51	Cl	0.954748	-0.059947	0.390201
Cl52	Cl	0.438553	0.021709	0.264370
Cl53	Cl	0.898945	-0.438692	-0.264126
Cl54	Cl	1.167280	0.152738	0.390565
Cl55	Cl	0.809130	-0.295238	0.000261
H56	H	1.022229	0.255120	0.587721
Cl57	Cl	0.545777	0.208225	-0.264450
Cl58	Cl	0.817284	0.077461	0.609981
H59	H	0.420779	0.261683	-0.000035
Cl60	Cl	1.085485	-0.331224	-0.264120
H61	H	0.449451	0.040304	-0.211443
H62	H	0.917538	-0.427782	0.211680
Cl63	Cl	1.175472	-0.474497	0.000315
Cl64	Cl	1.085456	-0.331454	0.264691
