data_functionalizedCrystal
_audit_creation_method	'MofGen! by Chris Wilmer'
_symmetry_space_group_name_H-M	'P1'
_symmetry_Int_Tables_number	1
_symmetry_cell_setting	triclinic
loop_
_symmetry_equiv_pos_as_xyz
  x,y,z
_cell_length_a	16.974800
_cell_length_b	14.853559
_cell_length_c	16.053802
_cell_angle_alpha	92.571272
_cell_angle_beta	91.074188
_cell_angle_gamma	83.510332
loop_
_atom_site_label
_atom_site_type_symbol
_atom_site_fract_x
_atom_site_fract_y
_atom_site_fract_z
O1	O	1.049200	0.114922	0.001494
O2	O	0.819753	0.128723	-0.014017
O3	O	0.940609	-0.009402	-0.005846
O4	O	0.928344	0.253047	-0.006677
O5	O	0.933956	-0.001830	0.132563
O6	O	0.813101	0.136294	0.124393
O7	O	1.042548	0.122494	0.139903
Zn8	Zn	0.926768	0.130596	0.154123
Zn9	Zn	0.935533	0.120621	-0.028237
O10	O	0.921692	0.260618	0.131732
C11	C	0.787063	0.131845	0.053203
C12	C	0.699568	0.129857	0.047288
C13	C	0.654842	0.133048	0.119958
C14	C	0.572632	0.131166	0.114403
C15	C	0.535151	0.126099	0.036177
C16	C	0.579884	0.122905	-0.036498
C17	C	0.662092	0.124781	-0.030942
C18	C	0.289674	0.120041	0.011471
C19	C	0.207459	0.118168	0.005920
C20	C	0.200214	0.126427	0.156823
C21	C	0.282423	0.128308	0.162371
C22	C	0.327150	0.125109	0.089696
N23	N	0.451120	0.124178	0.030497
N24	N	0.411180	0.127024	0.095377
C25	C	0.936728	-0.039205	0.063319
C26	C	0.935067	-0.139291	0.063203
C27	C	0.931643	-0.566600	-0.012721
C28	C	0.924391	-0.558341	0.138178
C29	C	0.925958	-0.464306	0.138285
C30	C	0.930368	-0.421414	0.062887
C31	C	0.933209	-0.472557	-0.012617
C32	C	0.923109	-0.413155	0.213787
C33	C	0.924676	-0.319114	0.213897
C34	C	0.929091	-0.276221	0.138499
C35	C	0.931933	-0.327370	0.062992
C36	C	0.936342	-0.284478	-0.012406
C37	C	0.939190	-0.335626	-0.087913
C38	C	0.937624	-0.429664	-0.088015
C39	C	0.930658	-0.182183	0.138600
C40	C	0.937908	-0.190434	-0.012302
C41	C	1.075238	0.119371	0.072681
C42	C	1.162733	0.121359	0.078591
C43	C	0.925572	0.290422	0.062565
C44	C	0.927234	0.390508	0.062676
N45	N	0.920792	0.137404	0.278579
N46	N	0.941515	0.113806	-0.152693
C47	C	0.972235	0.078652	0.325751
C48	C	0.968062	0.083423	0.412876
C49	C	0.912450	0.146950	0.452827
C50	C	0.861001	0.205704	0.405649
C51	C	0.865171	0.200928	0.318526
C52	C	0.894236	0.167784	0.713006
C53	C	0.890072	0.172557	0.800135
C54	C	0.997132	0.050275	0.807356
C55	C	1.001300	0.045508	0.720231
C56	C	0.949849	0.104259	0.673060
N57	N	0.908185	0.151829	0.541883
N58	N	0.954111	0.099374	0.584006
H59	H	0.163789	0.129030	0.215991
H60	H	0.326081	0.117433	-0.047707
H61	H	1.017524	0.026926	0.293229
H62	H	0.920796	-0.593268	0.199563
F63	F	0.694724	0.138447	0.203218
H64	H	0.852343	0.215623	0.674606
F65	F	0.539994	0.117485	-0.119752
F66	F	0.942606	-0.144794	-0.092551
H67	H	0.933965	-0.608250	-0.074197
F68	F	0.921642	-0.264686	0.294257
F69	F	1.022813	0.020892	0.463080
H70	H	1.046585	-0.006220	0.687705
F71	F	0.801809	0.273310	0.448169
F72	F	1.051885	-0.012250	0.857564
F73	F	0.830878	0.240177	0.842649
H74	H	0.823279	0.248769	0.280119
H75	H	0.536221	0.133750	0.173579
H76	H	0.919515	-0.448084	0.275171
H77	H	0.312935	0.132430	0.226071
F78	F	0.927624	-0.127752	0.218954
H79	H	0.698508	0.122184	-0.090118
H80	H	0.176944	0.114044	-0.057784
H81	H	0.942775	-0.300690	-0.149302
H82	H	0.939942	-0.471317	-0.149489
