data_functionalizedCrystal
_audit_creation_method	'MofGen! by Chris Wilmer'
_symmetry_space_group_name_H-M	'P1'
_symmetry_Int_Tables_number	1
_symmetry_cell_setting	triclinic
loop_
_symmetry_equiv_pos_as_xyz
  x,y,z
_cell_length_a	6.817900
_cell_length_b	16.256208
_cell_length_c	16.255661
_cell_angle_alpha	95.350611
_cell_angle_beta	103.488922
_cell_angle_gamma	103.499088
loop_
_atom_site_label
_atom_site_type_symbol
_atom_site_fract_x
_atom_site_fract_y
_atom_site_fract_z
V1	V	-4.026770	-0.117778	-0.264174
O2	O	-4.014188	0.004956	-0.258835
O3	O	-3.978378	-0.232858	-0.262666
O4	O	-3.978331	-0.116275	-0.379254
O5	O	-4.014235	-0.112433	-0.141440
V6	V	-4.510402	-0.103061	-0.249458
O7	O	-4.287789	-0.150061	-0.296455
O8	O	-4.699579	-0.070778	-0.217177
O9	O	-4.335587	0.012018	-0.250966
O10	O	-4.640380	-0.225796	-0.254797
O11	O	-4.640333	-0.108406	-0.372192
O12	O	-4.335634	-0.104564	-0.134379
C13	C	-3.823382	-0.260902	-0.258575
C14	C	-3.865103	-0.354983	-0.258109
C15	C	-4.180993	-0.643087	-0.261101
C16	C	-4.024588	-0.573415	-0.189040
C17	C	-4.015127	-0.693616	-0.256396
C18	C	-4.097310	-0.595653	-0.329275
C19	C	-3.941426	-0.527235	-0.257239
C20	C	-3.859240	-0.625174	-0.184270
C21	C	-3.932023	-0.647427	-0.324568
C22	C	-3.775481	-0.577774	-0.252486
C23	C	-4.057590	-0.789464	-0.255909
C24	C	-3.898947	-0.431387	-0.257719
C25	C	-3.823321	-0.112188	-0.407294
C26	C	-3.865001	-0.111721	-0.501374
C27	C	-3.775555	-0.106138	-0.724178
C28	C	-3.932006	-0.178197	-0.793840
C29	C	-3.941385	-0.110845	-0.673620
C30	C	-3.859223	-0.037961	-0.771594
C31	C	-4.015152	-0.109994	-0.840001
C32	C	-4.097318	-0.182968	-0.742052
C33	C	-4.024473	-0.042668	-0.719790
C34	C	-4.181062	-0.114748	-0.789432
C35	C	-3.898884	-0.111335	-0.577772
C36	C	-4.057670	-0.109510	-0.935849
C37	C	-4.153925	0.040058	-0.255055
C38	C	-4.091442	0.134138	-0.255526
C39	C	-4.153986	-0.108654	-0.106334
C40	C	-4.091545	-0.109117	-0.012253
H41	H	-4.063276	-0.541196	-0.131743
C42	C	-4.444336	-0.610658	-0.416348
C43	C	-4.232636	-0.577543	-0.412004
H44	H	-4.527885	-0.599481	-0.467421
H45	H	-4.475820	-0.584231	-0.368191
H46	H	-4.472879	-0.670723	-0.416392
H47	H	-4.204089	-0.517476	-0.411954
H48	H	-4.201139	-0.603967	-0.460174
C49	C	-3.764536	-0.731664	-0.101727
C50	C	-3.723940	-0.643119	-0.101444
H51	H	-3.681026	-0.742741	-0.050591
H52	H	-3.731959	-0.757693	-0.149797
H53	H	-3.908155	-0.754603	-0.104972
H54	H	-3.580324	-0.620181	-0.098206
H55	H	-3.756503	-0.617079	-0.053361
C56	C	-3.506349	-0.101093	-0.597234
C57	C	-3.543696	-0.101347	-0.685704
H58	H	-3.363212	-0.098133	-0.573483
H59	H	-3.591279	-0.152094	-0.586576
H60	H	-3.539198	-0.052868	-0.571643
H61	H	-3.510863	-0.149575	-0.711296
H62	H	-3.458738	-0.050340	-0.696369
H63	H	-3.893415	-0.679666	-0.381870
C64	C	-4.103027	-0.311262	-0.679407
C65	C	-4.232645	-0.265793	-0.724097
H66	H	-4.186569	-0.362397	-0.668327
H67	H	-4.019816	-0.276993	-0.626736
H68	H	-4.014814	-0.325245	-0.712858
H69	H	-4.320847	-0.251805	-0.690643
H70	H	-4.315892	-0.300069	-0.776776
C71	C	-3.418863	-0.554013	-0.171609
C72	C	-3.543462	-0.539452	-0.247547
H73	H	-3.275627	-0.530348	-0.168557
H74	H	-3.444023	-0.613880	-0.170817
H75	H	-3.452419	-0.527673	-0.123952
H76	H	-3.509916	-0.565798	-0.295205
H77	H	-3.518289	-0.479574	-0.248347
H78	H	-4.352936	-0.118407	-0.817788
H79	H	-3.893361	-0.235496	-0.826073
C80	C	-3.951072	0.110524	-0.690598
C81	C	-4.076530	0.034684	-0.676234
H82	H	-3.983189	0.158282	-0.663701
H83	H	-3.976946	0.111693	-0.750422
H84	H	-3.807993	0.113036	-0.667399
H85	H	-4.219610	0.032170	-0.699439
H86	H	-4.050671	0.033515	-0.616399
C87	C	-3.512187	0.049118	-0.756620
C88	C	-3.723884	0.044775	-0.789707
H89	H	-3.428630	0.100197	-0.767796
H90	H	-3.480728	0.000966	-0.783063
H91	H	-3.483630	0.049152	-0.696555
H92	H	-3.752446	0.044735	-0.849773
H93	H	-3.755356	0.092940	-0.763266
H94	H	-4.352750	-0.671603	-0.264649
