data_functionalizedCrystal
_audit_creation_method	'MofGen! by Chris Wilmer'
_symmetry_space_group_name_H-M	'P1'
_symmetry_Int_Tables_number	1
_symmetry_cell_setting	triclinic
loop_
_symmetry_equiv_pos_as_xyz
  x,y,z
_cell_length_a	11.792241
_cell_length_b	11.792254
_cell_length_c	16.776229
_cell_angle_alpha	89.993192
_cell_angle_beta	89.997077
_cell_angle_gamma	84.196007
loop_
_atom_site_label
_atom_site_type_symbol
_atom_site_fract_x
_atom_site_fract_y
_atom_site_fract_z
O1	O	1.506920	0.155570	-0.066211
O2	O	2.006920	0.655570	0.433789
O3	O	1.176580	0.171602	-0.066230
O4	O	1.676580	0.671602	0.433770
O5	O	1.349759	-0.001584	-0.066214
O6	O	1.849759	0.498416	0.433786
O7	O	1.333741	0.328756	-0.066227
O8	O	1.833741	0.828756	0.433773
O9	O	1.349735	-0.001594	0.066362
O10	O	1.849735	0.498406	0.566362
O11	O	1.176556	0.171592	0.066347
O12	O	1.676556	0.671592	0.566347
O13	O	1.506897	0.155559	0.066365
O14	O	2.006897	0.655559	0.566365
Zn15	Zn	1.341723	0.163573	0.087405
Zn16	Zn	1.841723	0.663573	0.587405
Zn17	Zn	1.341753	0.163588	-0.087270
Zn18	Zn	1.841753	0.663588	0.412730
O19	O	1.333718	0.328745	0.066350
O20	O	1.833718	0.828745	0.566350
C21	C	1.134277	0.170590	0.000056
C22	C	1.634277	0.670590	0.500056
C23	C	1.008263	0.167576	0.000049
C24	C	1.508263	0.667576	0.500049
C25	C	0.777551	0.162033	0.000072
C26	C	1.277551	0.662033	0.500072
C27	C	0.905936	0.165112	0.000060
C28	C	1.405936	0.665112	0.500060
C29	C	1.348738	-0.043880	0.000074
C30	C	1.848738	0.456120	0.500074
C31	C	1.345718	-0.169893	0.000073
C32	C	1.845718	0.330107	0.500073
C33	C	1.343264	-0.272229	0.000070
C34	C	1.843264	0.227771	0.500070
C35	C	1.340196	-0.400616	0.000062
C36	C	1.840196	0.099384	0.500062
C37	C	1.549199	0.156571	0.000078
C38	C	2.049199	0.656571	0.500078
C39	C	1.675213	0.159586	0.000079
C40	C	2.175213	0.659586	0.500079
C41	C	1.334738	0.371041	0.000060
C42	C	1.834738	0.871041	0.500060
C43	C	1.337758	0.497054	0.000056
C44	C	1.837758	0.997054	0.500056
N45	N	1.341710	0.163563	0.206617
N46	N	1.841710	0.663563	0.706617
N47	N	1.341775	0.163589	-0.206481
N48	N	1.841775	0.663589	0.293519
C49	C	1.418418	0.086908	0.248341
C50	C	1.918418	0.586908	0.748341
C51	C	1.418424	0.086907	0.331793
C52	C	1.918424	0.586907	0.831793
C53	C	1.341727	0.163568	0.373520
C54	C	1.841727	0.663568	0.873520
C55	C	1.265012	0.240226	0.331790
C56	C	1.765012	0.740226	0.831790
C57	C	1.265001	0.240221	0.248339
C58	C	1.765001	0.740221	0.748339
C59	C	1.265053	0.240249	0.668337
C60	C	1.765053	0.740249	1.168337
C61	C	1.265072	0.240251	0.751793
C62	C	1.765072	0.740251	1.251793
C63	C	1.418476	0.086935	0.751791
C64	C	1.918476	0.586935	1.251791
C65	C	1.418465	0.086930	0.668340
C66	C	1.918465	0.586930	1.168340
C67	C	1.341746	0.163584	0.626617
C68	C	1.841746	0.663584	1.126617
C69	C	1.341739	0.163582	0.536129
C70	C	1.841739	0.663582	1.036129
C71	C	1.341739	0.163575	0.464006
C72	C	1.841739	0.663575	0.964006
H73	H	1.480877	0.024487	0.214372
H74	H	1.980877	0.524487	0.714372
H75	H	1.202612	0.302679	0.785766
H76	H	1.702612	0.802679	1.285766
C77	C	1.502799	0.002588	0.377689
C78	C	2.002799	0.502588	0.877689
H79	H	1.491813	0.013557	0.433366
H80	H	1.991813	0.513557	0.933366
H81	H	1.578620	0.015424	0.364007
H82	H	2.078620	0.515424	0.864007
H83	H	1.489999	-0.073250	0.364019
H84	H	1.989999	0.426750	0.864019
H85	H	1.202558	0.302641	0.365769
H86	H	1.702558	0.802641	0.865769
C87	C	1.502827	0.002600	0.622445
C88	C	2.002827	0.502600	1.122445
H89	H	1.548506	-0.043062	0.659247
H90	H	2.048506	0.456938	1.159247
H91	H	1.550319	0.043742	0.589878
H92	H	2.050319	0.543742	1.089878
H93	H	1.461693	-0.044927	0.589904
H94	H	1.961693	0.455073	1.089904
C95	C	1.502855	0.002604	0.797687
C96	C	2.002855	0.502604	1.297687
H97	H	1.491873	0.013573	0.853364
H98	H	1.991873	0.513573	1.353364
H99	H	1.578676	0.015441	0.784003
H100	H	2.078676	0.515441	1.284003
H101	H	1.490055	-0.073234	0.784017
H102	H	1.990055	0.426766	1.284017
C103	C	1.180675	0.324574	0.622453
C104	C	1.680675	0.824574	1.122453
H105	H	1.135011	0.370238	0.659258
H106	H	1.635011	0.870238	1.159258
H107	H	1.133170	0.283430	0.589908
H108	H	1.633170	0.783430	1.089908
H109	H	1.221796	0.372100	0.589890
H110	H	1.721796	0.872100	1.089890
H111	H	1.202537	0.302639	0.214368
H112	H	1.702537	0.802639	0.714368
