data_functionalizedCrystal
_audit_creation_method	'MofGen! by Chris Wilmer'
_symmetry_space_group_name_H-M	'P1'
_symmetry_Int_Tables_number	1
_symmetry_cell_setting	triclinic
loop_
_symmetry_equiv_pos_as_xyz
  x,y,z
_cell_length_a	19.851628
_cell_length_b	23.196402
_cell_length_c	23.196402
_cell_angle_alpha	60.005245
_cell_angle_beta	59.998845
_cell_angle_gamma	90.008895
loop_
_atom_site_label
_atom_site_type_symbol
_atom_site_fract_x
_atom_site_fract_y
_atom_site_fract_z
Zr1	Zr	0.648990	-0.075559	0.630931
O2	O	0.541418	-0.167615	0.751206
O3	O	0.681964	-0.047342	0.510663
O4	O	0.681956	-0.167605	0.630927
O5	O	0.541435	0.047518	0.630944
O6	O	0.792818	-0.167594	0.630916
O7	O	0.541426	-0.047352	0.630943
O8	O	0.792832	0.047535	0.415786
O9	O	0.541421	-0.167611	0.846073
O10	O	0.778765	-0.035295	0.560121
O11	O	0.696037	0.035497	0.560130
O12	O	0.696028	-0.106098	0.701725
O13	O	0.613300	-0.035306	0.701734
Zr14	Zr	0.825817	0.075766	0.630916
Zr15	Zr	0.825802	-0.075540	0.630914
Zr16	Zr	0.649005	0.075748	0.630934
Zr17	Zr	0.648995	-0.075552	0.782234
Zr18	Zr	0.825812	0.075760	0.479614
O19	O	0.792843	0.047550	0.751184
O20	O	0.792821	-0.167589	0.751181
O21	O	0.541439	0.047524	0.751209
O22	O	0.933389	0.167823	0.510641
O23	O	0.933367	-0.047316	0.510638
O24	O	0.681985	0.167796	0.510667
O25	O	0.933371	-0.047311	0.630903
O26	O	0.792851	0.167813	0.630921
O27	O	0.681989	0.167802	0.630932
O28	O	0.933381	0.047559	0.630905
O29	O	0.681963	-0.167596	0.846059
O30	O	0.792844	0.167804	0.415788
O31	O	0.933386	0.167818	0.415774
O32	O	0.933374	0.047550	0.415772
O33	O	0.541433	-0.047342	0.846075
O34	O	0.681975	-0.047328	0.846061
O35	O	0.778779	0.106306	0.560123
O36	O	0.861507	0.035514	0.560113
O37	O	0.778769	-0.035289	0.701717
O38	O	0.696042	0.035503	0.701727
C39	C	0.516239	0.000081	0.630946
C40	C	0.441177	0.000073	0.630953
C41	C	0.737397	0.000096	0.441667
C42	C	0.737395	0.000093	0.377436
C43	C	0.737422	0.189365	0.630927
C44	C	0.737428	0.253599	0.630928
C45	C	0.214721	-0.038508	0.708144
C46	C	0.192355	-0.066485	0.669549
C47	C	0.303771	0.000093	0.630932
C48	C	0.192395	0.028057	0.669532
C49	C	0.171039	0.000112	0.630918
C50	C	0.282394	-0.027922	0.592337
C51	C	0.282432	0.066656	0.592331
C52	C	0.260120	0.038696	0.553680
C53	C	0.380233	0.000081	0.630943
C54	C	0.094582	0.000124	0.630901
C55	C	0.958568	0.000127	0.630901
C56	C	1.033629	0.000135	0.630894
C57	C	0.737385	-0.189158	0.630921
C58	C	0.737378	-0.253391	0.630920
C59	C	0.694244	0.246816	0.704841
C60	C	0.694232	0.307170	0.704842
C61	C	0.737420	0.374307	0.630926
C62	C	0.780607	0.381088	0.557002
C63	C	0.780611	0.320734	0.557003
C64	C	0.809755	0.498249	0.574291
C65	C	0.809753	0.558601	0.574293
C66	C	0.737406	0.560461	0.630919
C67	C	0.665062	0.501955	0.687557
C68	C	0.665066	0.441601	0.687558
C69	C	0.737420	0.439755	0.630916
C70	C	0.694205	0.619118	0.704839
C71	C	0.694190	0.679475	0.704837
C72	C	0.780573	0.753393	0.556995
C73	C	0.780580	0.693036	0.556999
C74	C	0.737397	0.625901	0.630924
C75	C	0.780573	-0.036862	0.347260
C76	C	0.780580	-0.036857	0.286899
C77	C	0.737395	0.000095	0.256727
C78	C	0.694216	0.037058	0.286907
C79	C	0.694216	0.037057	0.347261
C80	C	0.665055	-0.005187	0.194705
C81	C	0.665053	-0.005191	0.134356
C82	C	0.737396	0.000102	0.070573
C83	C	0.809741	0.005385	0.067154
C84	C	0.809741	0.005384	0.127508
C85	C	0.737390	0.000100	0.191283
C86	C	0.780586	-0.036849	-0.025054
C87	C	0.780596	-0.036838	-0.085420
C88	C	0.694223	0.037072	-0.085405
C89	C	0.694221	0.037066	-0.025046
C90	C	0.737400	0.000102	0.005128
C91	C	0.737409	0.000112	0.820180
C92	C	0.737411	0.000115	0.884412
C93	C	0.958562	0.000119	0.441645
C94	C	1.033621	0.000124	0.377406
C95	C	0.737416	0.189357	0.441670
C96	C	0.737420	0.253588	0.377439
C97	C	0.958580	0.189380	0.441648
C98	C	1.033646	0.253619	0.377410
C99	C	0.516226	-0.189173	0.820199
C100	C	0.441161	-0.253411	0.884438
C101	C	0.516245	0.000089	0.820202
C102	C	0.441186	0.000084	0.884442
C103	C	0.737391	-0.189150	0.820177
C104	C	0.737386	-0.253380	0.884408
C105	C	1.025679	-0.036842	0.347242
C106	C	1.096198	-0.036851	0.286891
C107	C	1.174659	0.000109	0.256700
C108	C	1.182599	0.037076	0.286870
C109	C	1.112080	0.037081	0.347224
C110	C	0.780613	0.320719	0.347272
C111	C	0.780614	0.381077	0.286929
C112	C	0.737426	0.374301	0.256750
C113	C	0.694229	0.307163	0.286923
C114	C	0.694223	0.246807	0.347269
C115	C	1.112088	0.246833	0.347238
C116	C	1.182627	0.307187	0.286887
C117	C	1.174722	0.374325	0.256706
C118	C	1.096271	0.381109	0.286884
C119	C	1.025734	0.320756	0.347237
C120	C	0.362718	-0.246626	0.914617
C121	C	0.292180	-0.306979	0.974986
C122	C	0.300085	-0.374117	1.005171
C123	C	0.378535	-0.380901	0.974989
C124	C	0.449072	-0.320548	0.914625
C125	C	0.449127	0.037043	0.914612
C126	C	0.378608	0.037036	0.974980
C127	C	0.300148	0.000073	1.005172
C128	C	0.292208	-0.036891	0.975000
C129	C	0.362726	-0.036887	0.914637
C130	C	0.780582	-0.246582	0.914568
C131	C	0.780594	-0.306928	0.974911
C132	C	0.737405	-0.374072	1.005098
C133	C	0.694208	-0.380868	0.974932
C134	C	0.694201	-0.320523	0.914586
H135	H	0.196268	-0.071199	0.773430
C136	C	0.646730	0.299722	0.253713
N137	N	0.610959	0.294119	0.228693
C138	C	0.828080	-0.077517	0.380442
N139	N	0.863865	-0.108136	0.405433
C140	C	1.087590	0.454967	0.253669
N141	N	1.081053	0.510600	0.228644
C142	C	0.828078	-0.077514	0.253702
N143	N	0.863853	-0.108138	0.228700
C144	C	0.939449	0.328232	0.380418
N145	N	0.874460	0.333868	0.405408
H146	H	0.659039	0.564454	0.765033
H147	H	0.815781	0.326250	0.371837
H148	H	0.228309	-0.301442	0.999550
C149	C	0.585475	-0.010994	0.138118
N150	N	0.525537	-0.015361	0.140951
C151	C	1.252323	0.440708	0.190309
N152	N	1.310776	0.490705	0.140296
H153	H	0.815793	0.435738	0.262369
C154	C	1.087446	-0.077512	0.253708
N155	N	1.080851	-0.108135	0.228715
C156	C	0.889326	0.011211	-0.003009
N157	N	0.949267	0.015599	-0.055856
C158	C	0.585472	0.503997	0.749846
N159	N	0.525527	0.505538	0.796759
C160	C	0.285248	0.082794	0.465413
N161	N	0.304170	0.116004	0.398932
C162	C	0.353976	-0.077539	0.881447
N163	N	0.347379	-0.108158	0.856450
H164	H	0.606161	0.393968	0.733673
H165	H	0.815769	-0.301380	0.999466
C166	C	0.889320	0.011204	0.123740
N167	N	0.949262	0.015591	0.120899
H168	H	0.659019	0.673946	0.765029
H169	H	0.153541	-0.122768	0.702181
C170	C	0.646716	0.172964	0.380438
N171	N	0.610931	0.117346	0.405416
H172	H	0.228316	-0.066985	0.999592
C173	C	0.828102	-0.172730	0.881369
N174	N	0.863901	-0.117106	0.856364
C175	C	0.828093	-0.077502	0.008132
N176	N	0.863878	-0.108120	0.033125
C177	C	1.252224	0.000103	0.190303
N178	N	1.310643	0.000098	0.140289
H179	H	0.356266	-0.191964	0.890044
H180	H	0.961799	-0.066948	0.371823
C181	C	0.334659	-0.059954	0.548288
N182	N	0.374025	-0.084083	0.515113
H183	H	0.659054	0.067145	0.262336
C184	C	1.120804	0.172987	0.380431
N185	N	1.127376	0.117367	0.405432
H186	H	1.246491	0.067168	0.262280
C187	C	0.737449	0.440702	0.190359
N188	N	0.737473	0.490718	0.140350
C189	C	1.268914	0.299708	0.253695
N190	N	1.333904	0.294074	0.228695
C191	C	0.334879	0.142668	0.548303
N192	N	0.374383	0.199918	0.515153
C193	C	0.828092	0.700500	0.475687
N194	N	0.863878	0.706124	0.414439
C195	C	0.646738	-0.454733	1.008118
N196	N	0.610992	-0.510369	1.033107
H197	H	0.513007	0.067147	0.890033
C198	C	0.646667	-0.328013	0.881427
N199	N	0.610859	-0.333660	0.856458
C200	C	0.646732	0.077728	0.008139
N201	N	0.610968	0.108364	0.033128
H202	H	0.242642	-0.423254	1.054323
H203	H	0.737417	-0.423203	1.054237
H204	H	0.153598	0.051698	0.702181
C205	C	0.387361	0.077707	1.008152
N206	N	0.393956	0.108342	1.033133
C207	C	0.646707	0.172970	0.786160
N208	N	0.610890	0.117347	0.847411
H209	H	0.659062	0.301647	0.765033
H210	H	0.384962	-0.435572	0.999573
H211	H	0.512941	-0.326082	0.890054
C212	C	0.222583	0.000080	1.071570
N213	N	0.164164	0.000090	1.121578
H214	H	0.868661	0.606231	0.528179
C215	C	0.889349	0.496211	0.512000
N216	N	0.949299	0.494674	0.465086
H217	H	0.815769	0.435755	0.496819
H218	H	0.815733	0.808056	0.496811
C219	C	0.585468	-0.011009	0.264865
N220	N	0.525525	-0.015392	0.317707
H221	H	1.118558	0.067187	0.371776
H222	H	0.815777	0.326262	0.496812
H223	H	0.815761	-0.066928	-0.109992
H224	H	0.659053	0.067151	0.371830
H225	H	0.659061	0.067159	-0.109971
