data_functionalizedCrystal
_audit_creation_method	'MofGen! by Chris Wilmer'
_symmetry_space_group_name_H-M	'P1'
_symmetry_Int_Tables_number	1
_symmetry_cell_setting	triclinic
loop_
_symmetry_equiv_pos_as_xyz
  x,y,z
_cell_length_a	6.817900
_cell_length_b	11.102288
_cell_length_c	17.110486
_cell_angle_alpha	95.184196
_cell_angle_beta	99.060439
_cell_angle_gamma	108.605689
loop_
_atom_site_label
_atom_site_type_symbol
_atom_site_fract_x
_atom_site_fract_y
_atom_site_fract_z
V1	V	-4.002964	-0.175461	-0.246720
O2	O	-3.964063	0.008821	-0.242024
O3	O	-3.980483	-0.348284	-0.245033
O4	O	-3.932395	-0.172591	-0.354323
O5	O	-4.012484	-0.168088	-0.131977
V6	V	-4.486106	-0.153439	-0.232996
O7	O	-4.265058	-0.223768	-0.276826
O8	O	-4.674209	-0.105132	-0.202891
O9	O	-4.285380	0.019384	-0.234683
O10	O	-4.642403	-0.337720	-0.237693
O11	O	-4.593982	-0.160811	-0.347740
O12	O	-4.333468	-0.156308	-0.125393
C13	C	-3.832507	-0.390419	-0.241141
C14	C	-3.895266	-0.531703	-0.240479
C15	C	-3.771165	-0.166304	-0.380551
C16	C	-3.794922	-0.165101	-0.468517
C17	C	-4.107020	-0.604546	-0.244115
C18	C	-4.165979	-0.737298	-0.243499
C19	C	-3.801406	-0.724352	-0.235606
C20	C	-3.742453	-0.591604	-0.236228
C21	C	-3.988322	-0.170879	-0.513875
C22	C	-4.010632	-0.169748	-0.596528
C23	C	-3.839545	-0.162848	-0.633823
C24	C	-3.646128	-0.157066	-0.588458
C25	C	-3.623816	-0.158188	-0.505806
C26	C	-3.897793	-0.159135	-0.883178
C27	C	-3.920123	-0.158018	-0.965837
C28	C	-4.284625	-0.170697	-0.973900
C29	C	-4.262299	-0.171826	-0.891246
C30	C	-4.068882	-0.166037	-0.845889
C31	C	-3.862348	-0.161696	-0.718308
C32	C	-4.046078	-0.167181	-0.761404
C33	C	-4.096699	0.061513	-0.238573
C34	C	-4.013178	0.202796	-0.239241
C35	C	-4.158042	-0.162599	-0.099161
C36	C	-4.113522	-0.163796	-0.011194
H37	H	-4.231454	-0.555779	-0.247575
C38	C	-3.411065	-0.151837	-0.455913
N39	N	-3.250813	-0.147050	-0.418334
C40	C	-3.509495	-0.511471	-0.232225
N41	N	-3.334039	-0.451116	-0.229212
C42	C	-4.223379	-0.176090	-0.646417
N43	N	-4.383625	-0.180860	-0.683992
C44	C	-3.633323	-0.790252	-0.230916
N45	N	-3.506715	-0.839885	-0.227378
H46	H	-4.127648	-0.176506	-0.483517
C47	C	-3.674078	-0.153935	-0.759324
N48	N	-3.532243	-0.148022	-0.790213
H49	H	-4.338406	-0.796602	-0.246462
C50	C	-4.497365	-0.177048	-1.023799
N51	N	-4.657606	-0.181825	-1.061382
H52	H	-4.401620	-0.177444	-0.860887
H53	H	-3.780790	-0.152395	-0.996199
H54	H	-3.506824	-0.151441	-0.618829
H55	H	-3.740326	-0.154467	-0.846261
H56	H	-4.185372	-0.172794	-0.731035
