data_functionalizedCrystal
_audit_creation_method	'MofGen! by Chris Wilmer'
_symmetry_space_group_name_H-M	'P1'
_symmetry_Int_Tables_number	1
_symmetry_cell_setting	triclinic
loop_
_symmetry_equiv_pos_as_xyz
  x,y,z
_cell_length_a	23.532407
_cell_length_b	23.532407
_cell_length_c	9.130307
_cell_angle_alpha	89.992076
_cell_angle_beta	90.001167
_cell_angle_gamma	82.848712
loop_
_atom_site_label
_atom_site_type_symbol
_atom_site_fract_x
_atom_site_fract_y
_atom_site_fract_z
O1	O	0.755257	0.069134	-0.121722
O2	O	1.255257	0.569134	0.378278
O3	O	0.589394	0.079137	-0.121747
O4	O	1.089394	0.579137	0.378253
O5	O	0.677327	-0.008796	-0.121707
O6	O	1.177327	0.491204	0.378293
O7	O	0.667324	0.157068	-0.121762
O8	O	1.167324	0.657068	0.378238
O9	O	0.677324	-0.008797	0.121892
O10	O	1.177324	0.491203	0.621892
O11	O	0.589391	0.079137	0.121852
O12	O	1.089391	0.579137	0.621852
O13	O	0.755254	0.069134	0.121877
O14	O	1.255254	0.569134	0.621877
Cu15	Cu	0.672322	0.074135	0.144107
Cu16	Cu	1.172322	0.574135	0.644107
Cu17	Cu	0.672326	0.074136	-0.143977
Cu18	Cu	1.172326	0.574136	0.356023
O19	O	0.667321	0.157067	0.121837
O20	O	1.167321	0.657067	0.621837
C21	C	0.568176	0.078882	0.000050
C22	C	1.068176	0.578882	0.500050
C23	C	0.504959	0.078116	0.000041
C24	C	1.004959	0.578116	0.500041
C25	C	0.238792	0.022921	0.000099
C26	C	0.738792	0.522921	0.500099
C27	C	0.298192	0.023632	0.000099
C28	C	0.798192	0.523632	0.500099
O29	O	0.334937	-0.020153	0.000164
O30	O	0.834937	0.479847	0.500164
N31	N	0.320818	0.075909	0.000071
N32	N	0.820818	0.575909	0.500071
C33	C	0.284041	0.127477	0.000060
C34	C	0.784041	0.627477	0.500060
O35	O	0.308740	0.172007	0.000038
O36	O	0.808740	0.672007	0.500038
C37	C	0.224642	0.126765	0.000071
C38	C	0.724642	0.626765	0.500071
C39	C	0.202019	0.074485	0.000083
C40	C	0.702019	0.574485	0.500083
C41	C	0.216169	-0.029354	0.000114
C42	C	0.716169	0.470646	0.500114
C43	C	0.156772	-0.030066	0.000111
C44	C	0.656772	0.469934	0.500111
C45	C	0.119999	0.021499	0.000095
C46	C	0.619999	0.521499	0.500095
C47	C	0.142623	0.073774	0.000081
C48	C	0.642623	0.573774	0.500081
C49	C	0.187865	0.178333	0.000069
C50	C	0.687865	0.678333	0.500069
C51	C	0.128463	0.177616	0.000082
C52	C	0.628463	0.677616	0.500082
C53	C	0.105840	0.125336	0.000094
C54	C	0.605840	0.625336	0.500094
C55	C	0.046454	0.124627	0.000063
C56	C	0.546454	0.624627	0.500063
N57	N	0.023828	0.072351	0.000090
N58	N	0.523828	0.572351	0.500090
C59	C	0.060600	0.020787	0.000106
C60	C	0.560600	0.520787	0.500106
C61	C	0.408783	0.128968	0.000039
C62	C	0.908783	0.628968	0.500039
C63	C	0.468181	0.129681	0.000017
C64	C	0.968181	0.629681	0.500017
C65	C	0.482328	0.025836	0.000059
C66	C	0.982328	0.525836	0.500059
C67	C	0.422929	0.025124	0.000070
C68	C	0.922929	0.525124	0.500070
C69	C	0.386157	0.076692	0.000066
C70	C	0.886157	0.576692	0.500066
C71	C	-0.064136	0.019297	0.000101
C72	C	0.435864	0.519297	0.500101
C73	C	-0.123538	0.018590	0.000092
C74	C	0.376462	0.518590	0.500092
C75	C	-0.137680	0.122435	0.000058
C76	C	0.362320	0.622435	0.500058
C77	C	-0.078284	0.123142	0.000059
C78	C	0.421716	0.623142	0.500059
C79	C	-0.041512	0.071568	0.000085
C80	C	0.458488	0.571568	0.500085
O81	O	0.009675	0.168390	0.000003
O82	O	0.509675	0.668390	0.500003
O83	O	0.035892	-0.023737	0.000148
O84	O	0.535892	0.476263	0.500148
C85	C	0.677071	-0.030012	0.000096
C86	C	1.177071	0.469988	0.500096
C87	C	0.676305	-0.093229	0.000108
C88	C	1.176305	0.406771	0.500108
C89	C	0.723538	-0.492332	0.000034
C90	C	1.223538	0.007668	0.500034
C91	C	0.722827	-0.551733	0.000023
C92	C	1.222827	-0.051733	0.500023
O93	O	0.766613	-0.588477	-0.000024
O94	O	1.266613	-0.088477	0.499976
N95	N	0.670551	-0.574359	0.000016
N96	N	1.170551	-0.074359	0.500016
C97	C	0.618982	-0.537581	0.000006
C98	C	1.118982	-0.037581	0.500006
O99	O	0.574452	-0.562281	-0.000002
O100	O	1.074452	-0.062281	0.499998
C101	C	0.619695	-0.478182	0.000007
C102	C	1.119695	0.021818	0.500007
C103	C	0.671974	-0.455559	0.000028
C104	C	1.171974	0.044441	0.500028
C105	C	0.775814	-0.469709	0.000055
C106	C	1.275814	0.030291	0.500055
C107	C	0.776525	-0.410313	0.000069
C108	C	1.276525	0.089687	0.500069
C109	C	0.724961	-0.373540	0.000062
C110	C	1.224961	0.126460	0.500062
C111	C	0.672685	-0.396163	0.000042
C112	C	1.172685	0.103837	0.500042
C113	C	0.568127	-0.441406	-0.000014
C114	C	1.068127	0.058594	0.499986
C115	C	0.568843	-0.382003	-0.000015
C116	C	1.068843	0.117997	0.499985
C117	C	0.621123	-0.359381	0.000007
C118	C	1.121123	0.140619	0.500007
C119	C	0.621832	-0.299994	0.000050
C120	C	1.121832	0.200006	0.500050
N121	N	0.674109	-0.277368	0.000057
N122	N	1.174109	0.222632	0.500057
C123	C	0.725673	-0.314141	0.000063
C124	C	1.225673	0.185859	0.500063
C125	C	0.617491	-0.662324	0.000002
C126	C	1.117491	-0.162324	0.500002
C127	C	0.616778	-0.721722	0.000011
C128	C	1.116778	-0.221722	0.500011
C129	C	0.720623	-0.735869	0.000026
C130	C	1.220623	-0.235869	0.500026
C131	C	0.721335	-0.676470	0.000027
C132	C	1.221335	-0.176470	0.500027
C133	C	0.669767	-0.639698	0.000009
C134	C	1.169767	-0.139698	0.500009
C135	C	0.727163	-0.189404	0.000094
C136	C	1.227163	0.310596	0.500094
C137	C	0.727869	-0.130002	0.000114
C138	C	1.227869	0.369998	0.500114
C139	C	0.624025	-0.115860	0.000091
C140	C	1.124025	0.384140	0.500091
C141	C	0.623318	-0.175257	0.000079
C142	C	1.123318	0.324743	0.500079
C143	C	0.674891	-0.212028	0.000075
C144	C	1.174891	0.287972	0.500075
O145	O	0.578069	-0.263215	0.000091
O146	O	1.078069	0.236785	0.500091
O147	O	0.770196	-0.289433	0.000052
O148	O	1.270196	0.210567	0.500052
C149	C	0.776472	0.069389	0.000077
C150	C	1.276472	0.569389	0.500077
C151	C	0.839689	0.070155	0.000076
C152	C	1.339689	0.570155	0.500076
C153	C	0.667577	0.178283	0.000031
C154	C	1.167577	0.678283	0.500031
C155	C	0.668343	0.241500	0.000010
C156	C	1.168343	0.741500	0.500010
N157	N	0.672324	0.074134	0.346730
N158	N	1.172324	0.574134	0.846730
N159	N	0.672328	0.074132	-0.346600
N160	N	1.172328	0.574132	0.153400
C161	C	0.750220	-0.003709	0.346756
C162	C	1.250220	0.496291	0.846756
C163	C	0.789172	-0.042629	0.423435
C164	C	1.289172	0.457371	0.923435
C165	C	0.789178	-0.042629	0.576769
C166	C	1.289178	0.457371	1.076769
C167	C	0.750226	-0.003707	0.653426
C168	C	1.250226	0.496293	1.153426
C169	C	0.711275	0.035213	0.576746
C170	C	1.211275	0.535213	1.076746
C171	C	0.711274	0.035210	0.423410
C172	C	1.211274	0.535210	0.923410
C173	C	0.633377	0.113052	0.576721
C174	C	1.133377	0.613052	1.076721
C175	C	0.633373	0.113056	0.423387
C176	C	1.133373	0.613056	0.923387
C177	C	0.594425	0.151975	0.653378
C178	C	1.094425	0.651975	1.153378
C179	C	0.555475	0.190898	0.576699
C180	C	1.055475	0.690898	1.076699
C181	C	0.555471	0.190897	0.423356
C182	C	1.055471	0.690897	0.923356
C183	C	0.594421	0.151976	0.346708
C184	C	1.094421	0.651976	0.846708
H185	H	0.486595	0.172252	-0.000013
H186	H	0.986595	0.672252	0.499987
H187	H	0.769159	-0.219337	0.000085
H188	H	1.269159	0.280663	0.500085
F189	F	0.594423	0.151974	0.183516
F190	F	1.094423	0.651974	0.683516
F191	F	0.567676	-0.199334	0.000082
F192	F	1.067676	0.300666	0.500082
H193	H	0.817806	-0.499644	0.000054
H194	H	1.317806	0.000356	0.500054
F195	F	0.369651	0.183858	0.000019
F196	F	0.869651	0.683858	0.500019
H197	H	0.594429	0.151970	0.778230
H198	H	1.094429	0.651970	1.278230
H199	H	0.523761	0.222584	0.639123
H200	H	1.023761	0.722584	1.139123
F201	F	-0.054206	0.178783	0.000026
F202	F	0.445794	0.678783	0.500026
H203	H	0.582043	-0.085909	0.000091
H204	H	1.082043	0.414091	0.500091
F205	F	0.775503	-0.775016	0.000025
F206	F	1.275503	-0.275016	0.500025
F207	F	0.561135	-0.745792	0.000015
F208	F	1.061135	-0.245792	0.500015
H209	H	-0.167631	0.164417	0.000038
H210	H	0.332369	0.664417	0.500038
H211	H	0.523750	0.222588	0.360931
H212	H	1.023750	0.722588	0.860931
F213	F	0.211929	0.233977	0.000056
F214	F	0.711929	0.733977	0.500056
H215	H	-0.141954	-0.023984	0.000099
H216	H	0.358046	0.476016	0.500099
F217	F	0.830624	-0.084053	0.341844
F218	F	1.330624	0.415947	0.841844
F219	F	-0.025010	-0.035594	0.000128
F220	F	0.474990	0.464406	0.500128
H221	H	0.138359	-0.072637	0.000128
H222	H	0.638359	0.427363	0.500128
H223	H	0.763906	-0.658055	0.000043
H224	H	1.263906	-0.158055	0.500043
H225	H	0.246104	-0.071347	0.000132
H226	H	0.746104	0.428653	0.500132
H227	H	0.404515	-0.017447	0.000082
H228	H	0.904515	0.482553	0.500082
F229	F	0.089330	0.232503	0.000084
F230	F	0.589330	0.732503	0.500084
F231	F	0.562602	-0.623192	-0.000004
F232	F	1.062602	-0.123192	0.499996
H233	H	0.820894	-0.074323	0.639201
H234	H	1.320894	0.425677	1.139201
F235	F	0.521475	-0.029043	0.000076
F236	F	1.021475	0.470957	0.500076
H237	H	0.770443	-0.111587	0.000135
H238	H	1.270443	0.388413	0.500135
H239	H	0.819097	-0.391900	0.000080
H240	H	1.319097	0.108100	0.500080
H241	H	0.525555	-0.459814	-0.000041
H242	H	1.025555	0.040186	0.499959
H243	H	0.750224	-0.003708	0.221903
H244	H	1.250224	0.496292	0.721903
F245	F	0.513956	-0.342870	-0.000037
F246	F	1.013956	0.157130	0.499963
F247	F	0.750227	-0.003715	0.816617
F248	F	1.250227	0.496285	1.316617
