data_functionalizedCrystal
_audit_creation_method	'MofGen! by Chris Wilmer'
_symmetry_space_group_name_H-M	'P1'
_symmetry_Int_Tables_number	1
_symmetry_cell_setting	triclinic
loop_
_symmetry_equiv_pos_as_xyz
  x,y,z
_cell_length_a	18.215407
_cell_length_b	18.050590
_cell_length_c	18.215407
_cell_angle_alpha	90.013001
_cell_angle_beta	90.007771
_cell_angle_gamma	90.015996
loop_
_atom_site_label
_atom_site_type_symbol
_atom_site_fract_x
_atom_site_fract_y
_atom_site_fract_z
Zn1	Zn	1.125035	-0.295833	0.416063
Zn2	Zn	1.124977	-0.419994	0.292995
Zn3	Zn	1.001988	-0.295817	0.293016
Zn4	Zn	1.001947	-0.419980	0.416025
O5	O	1.063487	-0.357906	0.354525
O6	O	1.228011	-0.312316	0.399745
O7	O	1.108656	-0.403520	0.190014
O8	O	1.018351	-0.191894	0.309363
O9	O	1.227969	-0.403536	0.309328
O10	O	1.108753	-0.191906	0.399765
O11	O	1.018296	-0.312288	0.190029
O12	O	0.898998	-0.312275	0.309326
O13	O	1.018281	-0.403513	0.519015
O14	O	0.898968	-0.403497	0.399701
O15	O	1.108713	-0.312303	0.519042
O16	O	1.108616	-0.523917	0.309291
O17	O	1.018226	-0.523907	0.399681
C18	C	0.872280	-0.357883	0.354512
C19	C	0.790481	-0.357891	0.354524
C20	C	0.602308	-0.310491	0.401679
C21	C	0.525450	-0.310497	0.401681
C22	C	0.525417	-0.405342	0.307384
C23	C	0.602274	-0.405332	0.307378
C24	C	0.640718	-0.357907	0.354530
C25	C	0.487002	-0.357924	0.354538
C26	C	0.403668	-0.357931	0.354540
C27	C	0.724057	-0.357898	0.354527
C28	C	1.063430	-0.550858	0.354496
C29	C	1.063473	-0.633404	0.354508
C30	C	1.112729	-0.832833	0.305422
C31	C	1.130695	-0.882185	0.372588
C32	C	1.063515	-0.784534	0.354537
C33	C	1.045624	-0.882264	0.287401
C34	C	1.063557	-0.930519	0.354559
C35	C	1.081515	-0.832799	0.421738
C36	C	0.996413	-0.832874	0.336506
C37	C	1.014353	-0.882203	0.403718
C38	C	1.063493	-0.700436	0.354523
C39	C	1.063579	-1.014616	0.354581
C40	C	1.255439	-0.357929	0.354538
C41	C	1.337238	-0.357939	0.354544
C42	C	1.063499	-0.357908	0.546478
C43	C	1.063505	-0.357909	0.628277
C44	C	1.063563	-0.164200	0.354571
C45	C	1.063596	-0.081655	0.354590
C46	C	1.110578	-0.310423	0.816486
C47	C	1.110574	-0.310423	0.893345
C48	C	1.016407	-0.405405	0.893305
C49	C	1.016408	-0.405401	0.816448
C50	C	1.063498	-0.357911	0.778040
C51	C	1.063493	-0.357915	0.931756
C52	C	1.063488	-0.357915	1.015090
C53	C	1.063502	-0.357910	0.694701
C54	C	1.063474	-0.357920	1.163319
C55	C	1.063486	-0.357918	1.081520
H56	H	0.633548	-0.443944	0.268980
Br57	Br	1.182116	-0.796700	0.236264
H58	H	1.187460	-0.903847	0.387854
Br59	Br	1.106885	-0.796743	0.516410
H60	H	1.030475	-0.903992	0.230616
H61	H	0.972752	-0.903744	0.445311
Br62	Br	1.174483	-0.245972	0.764364
H63	H	1.148910	-0.271752	0.924644
H64	H	0.939664	-0.811196	0.321220
H65	H	0.494180	-0.271885	0.440073
Br66	Br	0.952506	-0.469855	0.945434
H67	H	0.978065	-0.444071	0.785144
Br68	Br	0.654480	-0.246127	0.465668
Br69	Br	0.473238	-0.469702	0.243397
