data_functionalizedCrystal
_audit_creation_method	'MofGen! by Chris Wilmer'
_symmetry_space_group_name_H-M	'P1'
_symmetry_Int_Tables_number	1
_symmetry_cell_setting	triclinic
loop_
_symmetry_equiv_pos_as_xyz
  x,y,z
_cell_length_a	15.944551
_cell_length_b	17.038272
_cell_length_c	15.021413
_cell_angle_alpha	90.004029
_cell_angle_beta	89.997174
_cell_angle_gamma	87.305147
loop_
_atom_site_label
_atom_site_type_symbol
_atom_site_fract_x
_atom_site_fract_y
_atom_site_fract_z
O1	O	1.121728	0.100827	-0.073940
O2	O	1.371728	0.350827	0.176060
O3	O	1.621728	0.600827	0.426060
O4	O	1.871728	0.850827	0.676060
O5	O	0.878066	0.113259	-0.073962
O6	O	1.128066	0.363259	0.176038
O7	O	1.378066	0.613259	0.426038
O8	O	1.628066	0.863259	0.676038
O9	O	0.998449	-0.006773	-0.073944
O10	O	1.248449	0.243227	0.176056
O11	O	1.498449	0.493227	0.426056
O12	O	1.748449	0.743227	0.676056
O13	O	1.001345	0.220859	-0.073958
O14	O	1.251345	0.470859	0.176042
O15	O	1.501345	0.720859	0.426042
O16	O	1.751345	0.970859	0.676042
O17	O	0.998429	-0.006755	0.074120
O18	O	1.248429	0.243245	0.324120
O19	O	1.498429	0.493245	0.574120
O20	O	1.748429	0.743245	0.824120
O21	O	0.878046	0.113277	0.074102
O22	O	1.128046	0.363277	0.324102
O23	O	1.378046	0.613277	0.574102
O24	O	1.628046	0.863277	0.824102
O25	O	1.121708	0.100844	0.074125
O26	O	1.371708	0.350844	0.324125
O27	O	1.621708	0.600844	0.574125
O28	O	1.871708	0.850844	0.824125
Zn29	Zn	0.999874	0.107063	0.097622
Zn30	Zn	1.249874	0.357063	0.347622
Zn31	Zn	1.499874	0.607063	0.597622
Zn32	Zn	1.749874	0.857063	0.847622
Zn33	Zn	0.999900	0.107041	-0.097459
Zn34	Zn	1.249900	0.357041	0.152541
Zn35	Zn	1.499900	0.607041	0.402541
Zn36	Zn	1.749900	0.857041	0.652541
O37	O	1.001326	0.220876	0.074107
O38	O	1.251326	0.470876	0.324107
O39	O	1.501326	0.720876	0.574107
O40	O	1.751326	0.970876	0.824107
C41	C	0.846725	0.112752	0.000067
C42	C	1.096725	0.362752	0.250067
C43	C	1.346725	0.612752	0.500067
C44	C	1.596725	0.862752	0.750067
C45	C	0.753369	0.111205	0.000059
C46	C	1.003369	0.361205	0.250059
C47	C	1.253369	0.611205	0.500059
C48	C	1.503369	0.861205	0.750059
C49	C	0.532936	0.033105	0.000081
C50	C	0.782936	0.283105	0.250081
C51	C	1.032936	0.533105	0.500081
C52	C	1.282936	0.783105	0.750081
C53	C	0.474515	0.069363	-0.072924
C54	C	0.724515	0.319363	0.177076
C55	C	0.974515	0.569363	0.427076
C56	C	1.224515	0.819363	0.677076
C57	C	0.582443	0.108405	0.000070
C58	C	0.832443	0.358405	0.250070
C59	C	1.082443	0.608405	0.500070
C60	C	1.332443	0.858405	0.750070
C61	C	0.474519	0.069398	0.073055
C62	C	0.724519	0.319398	0.323055
C63	C	0.974519	0.569398	0.573055
C64	C	1.224519	0.819398	0.823055
C65	C	0.417337	0.105696	0.000084
C66	C	0.667337	0.355696	0.250084
C67	C	0.917337	0.605696	0.500084
C68	C	1.167337	0.855696	0.750084
C69	C	0.525252	0.144684	-0.072996
C70	C	0.775252	0.394684	0.177004
C71	C	1.025252	0.644684	0.427004
C72	C	1.275252	0.894684	0.677004
C73	C	0.525262	0.144709	0.073049
C74	C	0.775262	0.394709	0.323049
C75	C	1.025262	0.644709	0.573049
C76	C	1.275262	0.894709	0.823049
C77	C	0.466862	0.181022	0.000026
C78	C	0.716862	0.431022	0.250026
C79	C	0.966862	0.681022	0.500026
C80	C	1.216862	0.931022	0.750026
C81	C	0.677557	0.109964	0.000061
C82	C	0.927557	0.359964	0.250061
C83	C	1.177557	0.609964	0.500061
C84	C	1.427557	0.859964	0.750061
C85	C	0.322225	0.104143	0.000087
C86	C	0.572225	0.354143	0.250087
C87	C	0.822225	0.604143	0.500087
C88	C	1.072225	0.854143	0.750087
C89	C	0.995805	-0.035893	0.000088
C90	C	1.245805	0.214107	0.250088
C91	C	1.495805	0.464107	0.500088
C92	C	1.745805	0.714107	0.750088
C93	C	0.987945	-0.122688	0.000087
C94	C	1.237945	0.127312	0.250087
C95	C	1.487945	0.377312	0.500087
C96	C	1.737945	0.627312	0.750087
C97	C	1.060103	-0.172781	0.000094
C98	C	1.310103	0.077219	0.250094
C99	C	1.560103	0.327219	0.500094
C100	C	1.810103	0.577219	0.750094
C101	C	1.052713	-0.254334	0.000085
C102	C	1.302713	-0.004334	0.250085
C103	C	1.552713	0.245666	0.500085
C104	C	1.802713	0.495666	0.750085
C105	C	0.973165	-0.285792	0.000075
C106	C	1.223165	-0.035792	0.250075
C107	C	1.473165	0.214208	0.500075
C108	C	1.723165	0.464208	0.750075
C109	C	0.901002	-0.235693	0.000065
C110	C	1.151002	0.014307	0.250065
C111	C	1.401002	0.264307	0.500065
C112	C	1.651002	0.514307	0.750065
C113	C	0.908393	-0.154142	0.000068
C114	C	1.158393	0.095858	0.250068
C115	C	1.408393	0.345858	0.500068
C116	C	1.658393	0.595858	0.750068
C117	C	0.947056	-0.531558	0.000061
C118	C	1.197056	-0.281558	0.250061
C119	C	1.447056	-0.031558	0.500061
C120	C	1.697056	0.218442	0.750061
C121	C	0.939671	-0.613115	0.000060
C122	C	1.189671	-0.363115	0.250060
C123	C	1.439671	-0.113115	0.500060
C124	C	1.689671	0.136885	0.750060
C125	C	1.091383	-0.631751	0.000079
C126	C	1.341383	-0.381751	0.250079
C127	C	1.591383	-0.131751	0.500079
C128	C	1.841383	0.118249	0.750079
C129	C	1.098766	-0.550197	0.000087
C130	C	1.348766	-0.300197	0.250087
C131	C	1.598766	-0.050197	0.500087
C132	C	1.848766	0.199803	0.750087
C133	C	1.026603	-0.500105	0.000072
C134	C	1.276603	-0.250105	0.250072
C135	C	1.526603	-0.000105	0.500072
C136	C	1.776603	0.249895	0.750072
C137	C	0.965610	-0.369152	0.000069
C138	C	1.215610	-0.119152	0.250069
C139	C	1.465610	0.130848	0.500069
C140	C	1.715610	0.380848	0.750069
C141	C	1.034159	-0.416747	0.000073
C142	C	1.284159	-0.166747	0.250073
C143	C	1.534159	0.083253	0.500073
C144	C	1.784159	0.333253	0.750073
C145	C	1.153049	0.101352	0.000093
C146	C	1.403049	0.351352	0.250093
C147	C	1.653049	0.601352	0.500093
C148	C	1.903049	0.851352	0.750093
C149	C	1.246405	0.102899	0.000096
C150	C	1.496405	0.352899	0.250096
C151	C	1.746405	0.602899	0.500096
C152	C	1.996405	0.852899	0.750096
C153	C	1.003969	0.249997	0.000073
C154	C	1.253969	0.499997	0.250073
C155	C	1.503969	0.749997	0.500073
C156	C	1.753969	0.999997	0.750073
C157	C	1.011829	0.336792	0.000068
C158	C	1.261829	0.586792	0.250068
C159	C	1.511829	0.836792	0.500068
C160	C	1.761829	1.086792	0.750068
N161	N	0.999863	0.107078	0.230759
N162	N	1.249863	0.357078	0.480759
N163	N	1.499863	0.607078	0.730759
N164	N	1.749863	0.857078	0.980759
N165	N	0.999917	0.107019	-0.230597
N166	N	1.249917	0.357019	0.019403
N167	N	1.499917	0.607019	0.269403
N168	N	1.749917	0.857019	0.519403
C169	C	0.944187	0.162555	0.470434
C170	C	1.194187	0.412555	0.720434
C171	C	1.444187	0.662555	0.970434
C172	C	1.694187	0.912555	1.220434
C173	C	1.021171	0.177734	0.529775
C174	C	1.271171	0.427734	0.779775
C175	C	1.521171	0.677734	1.029775
C176	C	1.771171	0.927734	1.279775
C177	C	0.999883	0.107059	0.412366
C178	C	1.249883	0.357059	0.662366
C179	C	1.499883	0.607059	0.912366
C180	C	1.749883	0.857059	1.162366
C181	C	0.922921	0.091897	0.529768
C182	C	1.172921	0.341897	0.779768
C183	C	1.422921	0.591897	1.029768
C184	C	1.672921	0.841897	1.279768
C185	C	0.999896	0.107041	0.587790
C186	C	1.249896	0.357041	0.837790
C187	C	1.499896	0.607041	1.087790
C188	C	1.749896	0.857041	1.337790
C189	C	1.076908	0.122273	0.470400
C190	C	1.326908	0.372273	0.720400
C191	C	1.576908	0.622273	0.970400
C192	C	1.826908	0.872273	1.220400
C193	C	0.978606	0.036405	0.470388
C194	C	1.228606	0.286405	0.720388
C195	C	1.478606	0.536405	0.970388
C196	C	1.728606	0.786405	1.220388
C197	C	1.055643	0.051554	0.529702
C198	C	1.305643	0.301554	0.779702
C199	C	1.555643	0.551554	1.029702
C200	C	1.805643	0.801554	1.279702
C201	C	0.999875	0.107070	0.311309
C202	C	1.249875	0.357070	0.561309
C203	C	1.499875	0.607070	0.811309
C204	C	1.749875	0.857070	1.061309
C205	C	0.999913	0.107029	0.688846
C206	C	1.249913	0.357029	0.938846
C207	C	1.499913	0.607029	1.188846
C208	C	1.749913	0.857029	1.438846
H209	H	0.561807	-0.029389	-0.000005
H210	H	0.811807	0.220611	0.249995
H211	H	1.061807	0.470611	0.499995
H212	H	1.311807	0.720611	0.749995
F213	F	1.162014	0.139115	0.436462
F214	F	1.412014	0.389115	0.686462
F215	F	1.662014	0.639115	0.936462
F216	F	1.912014	0.889115	1.186462
F217	F	1.168178	-0.685067	0.000094
F218	F	1.418178	-0.435067	0.250094
F219	F	1.668178	-0.185067	0.500094
F220	F	1.918178	0.064933	0.750094
H221	H	0.900842	-0.394774	0.000062
H222	H	1.150842	-0.144774	0.250062
H223	H	1.400842	0.105226	0.500062
H224	H	1.650842	0.355226	0.750062
H225	H	0.836233	-0.261313	0.000051
H226	H	1.086233	-0.011313	0.250051
H227	H	1.336233	0.238687	0.500051
H228	H	1.586233	0.488687	0.750051
F229	F	0.445282	0.027762	0.153727
F230	F	0.695282	0.277762	0.403727
F231	F	0.945282	0.527762	0.653727
F232	F	1.195282	0.777762	0.903727
H233	H	1.124879	-0.147175	0.000108
H234	H	1.374879	0.102825	0.250108
H235	H	1.624879	0.352825	0.500108
H236	H	1.874879	0.602825	0.750108
H237	H	1.163543	-0.524590	0.000096
H238	H	1.413543	-0.274590	0.250096
H239	H	1.663543	-0.024590	0.500096
H240	H	1.913543	0.225410	0.750096
H241	H	0.452139	0.037507	-0.134642
H242	H	0.702139	0.287507	0.115358
H243	H	0.952139	0.537507	0.365358
H244	H	1.202139	0.787507	0.615358
F245	F	0.554354	0.186273	-0.153758
F246	F	0.804354	0.436273	0.096242
F247	F	1.054354	0.686273	0.346242
F248	F	1.304354	0.936273	0.596242
H249	H	0.874891	-0.638725	0.000067
H250	H	1.124891	-0.388725	0.250067
H251	H	1.374891	-0.138725	0.500067
H252	H	1.624891	0.111275	0.750067
H253	H	0.857830	0.079081	0.555848
H254	H	1.107830	0.329081	0.805848
H255	H	1.357830	0.579081	1.055848
H256	H	1.607830	0.829081	1.305848
H257	H	1.102803	0.004613	0.555561
H258	H	1.352803	0.254613	0.805561
H259	H	1.602803	0.504613	1.055561
H260	H	1.852803	0.754613	1.305561
F261	F	0.554537	0.186313	0.153722
F262	F	0.804537	0.436313	0.403722
F263	F	1.054537	0.686313	0.653722
F264	F	1.304537	0.936313	0.903722
H265	H	0.960575	-0.023318	0.444282
H266	H	1.210575	0.226682	0.694282
H267	H	1.460575	0.476682	0.944282
H268	H	1.710575	0.726682	1.194282
H269	H	0.897140	0.209524	0.444412
H270	H	1.147140	0.459524	0.694412
H271	H	1.397140	0.709524	0.944412
H272	H	1.647140	0.959524	1.194412
H273	H	1.098927	-0.391130	0.000061
H274	H	1.348927	-0.141130	0.250061
H275	H	1.598927	0.108870	0.500061
H276	H	1.848927	0.358870	0.750061
H277	H	0.438170	0.243580	-0.000019
H278	H	0.688170	0.493580	0.249981
H279	H	0.938170	0.743580	0.499981
H280	H	1.188170	0.993580	0.749981
F281	F	1.129514	-0.307643	0.000095
F282	F	1.379514	-0.057643	0.250095
F283	F	1.629514	0.192357	0.500095
F284	F	1.879514	0.442357	0.750095
F285	F	1.044710	0.255820	0.563871
F286	F	1.294710	0.505820	0.813871
F287	F	1.544710	0.755820	1.063871
F288	F	1.794710	1.005820	1.313871
H289	H	0.888296	-0.490782	0.000049
H290	H	1.138296	-0.240782	0.250049
H291	H	1.388296	0.009218	0.500049
H292	H	1.638296	0.259218	0.750049
F293	F	0.831593	-0.100829	0.000057
F294	F	1.081593	0.149171	0.250057
F295	F	1.331593	0.399171	0.500057
F296	F	1.581593	0.649171	0.750057
