data_functionalizedCrystal
_audit_creation_method	'MofGen! by Chris Wilmer'
_symmetry_space_group_name_H-M	'P1'
_symmetry_Int_Tables_number	1
_symmetry_cell_setting	triclinic
loop_
_symmetry_equiv_pos_as_xyz
  x,y,z
_cell_length_a	19.288864
_cell_length_b	15.455313
_cell_length_c	19.288859
_cell_angle_alpha	87.344042
_cell_angle_beta	83.134986
_cell_angle_gamma	92.685809
loop_
_atom_site_label
_atom_site_type_symbol
_atom_site_fract_x
_atom_site_fract_y
_atom_site_fract_z
O1	O	0.924412	0.072409	0.083588
O2	O	1.424412	0.572409	0.583588
O3	O	0.722149	0.072350	0.095280
O4	O	1.222149	0.572350	0.595280
O5	O	0.829127	0.072376	-0.011696
O6	O	1.329127	0.572376	0.488304
O7	O	0.817434	0.072383	0.190565
O8	O	1.317434	0.572383	0.690565
O9	O	0.823010	-0.071887	-0.005604
O10	O	1.323010	0.428113	0.494396
O11	O	0.716031	-0.071914	0.101372
O12	O	1.216031	0.428086	0.601372
O13	O	0.918295	-0.071854	0.089681
O14	O	1.418295	0.428146	0.589681
Cu15	Cu	0.816605	-0.085056	0.096083
Cu16	Cu	1.316605	0.414944	0.596083
Cu17	Cu	0.823839	0.085552	0.088878
Cu18	Cu	1.323839	0.585552	0.588878
O19	O	0.811317	-0.071881	0.196657
O20	O	1.311317	0.428119	0.696657
C21	C	0.693213	0.000211	0.097950
C22	C	1.193213	0.500211	0.597950
C23	C	0.616109	0.000188	0.096822
C24	C	1.116109	0.500188	0.596822
N25	N	0.811521	-0.205053	0.101150
N26	N	1.311521	0.294947	0.601150
C27	C	0.571412	0.000204	0.159589
C28	C	1.071412	0.500204	0.659589
C29	C	0.498965	0.000213	0.158528
C30	C	0.998965	0.500213	0.658528
C31	C	0.471220	0.000224	0.094696
C32	C	0.971220	0.500224	0.594696
C33	C	0.515926	0.000204	0.031920
C34	C	1.015926	0.500204	0.531920
C35	C	0.588371	0.000185	0.032983
C36	C	1.088371	0.500185	0.532983
C37	C	0.365103	0.050794	0.042381
C38	C	0.865103	0.550794	0.542381
C39	C	0.292660	0.050817	0.041320
C40	C	0.792660	0.550817	0.541320
C41	C	0.247776	0.000277	0.091414
C42	C	0.747776	0.500277	0.591414
C43	C	0.275344	-0.050276	0.142580
C44	C	0.775344	0.449724	0.642580
C45	C	0.347789	-0.050295	0.143643
C46	C	0.847789	0.449705	0.643643
C47	C	0.392666	0.000244	0.093536
C48	C	0.892666	0.500244	0.593536
C49	C	0.124524	0.000302	0.153035
C50	C	0.624524	0.500302	0.653035
C51	C	0.052076	0.000306	0.151971
C52	C	0.552076	0.500306	0.651971
C53	C	0.069039	0.000305	0.025361
C54	C	0.569039	0.500305	0.525361
C55	C	0.141485	0.000292	0.026427
C56	C	0.641485	0.500292	0.526427
C57	C	0.169223	0.000295	0.090265
C58	C	0.669223	0.500295	0.590265
C59	C	0.856985	-0.250436	0.055719
C60	C	1.356985	0.249564	0.555719
C61	C	0.853147	-0.341245	0.059557
C62	C	1.353147	0.158755	0.559557
C63	C	0.803848	-0.386669	0.108830
C64	C	1.303848	0.113331	0.608830
C65	C	0.758380	-0.341280	0.154263
C66	C	1.258380	0.158720	0.654263
C67	C	0.762215	-0.250473	0.150421
C68	C	1.262215	0.249527	0.650421
C69	C	0.787294	-0.658255	0.125396
C70	C	1.287294	-0.158255	0.625396
C71	C	0.783464	-0.749068	0.129236
C72	C	1.283464	-0.249068	0.629236
C73	C	0.878231	-0.749027	0.034529
C74	C	1.378231	-0.249027	0.534529
C75	C	0.882065	-0.658218	0.030694
C76	C	1.382065	-0.158218	0.530694
C77	C	0.836594	-0.612837	0.076124
C78	C	1.336594	-0.112837	0.576124
N79	N	0.799925	-0.479490	0.112756
N80	N	1.299925	0.020510	0.612756
N81	N	0.840514	-0.520017	0.072194
N82	N	1.340514	-0.020017	0.572194
C83	C	0.947230	0.000287	0.087010
C84	C	1.447230	0.500287	0.587010
C85	C	1.024335	0.000316	0.088138
C86	C	1.524335	0.500316	0.588138
C87	C	0.825693	0.000245	-0.034527
C88	C	1.325693	0.500245	0.465473
C89	C	0.824566	0.000246	-0.111631
C90	C	1.324566	0.500246	0.388369
N91	N	0.828928	0.205549	0.083805
N92	N	1.328928	0.705549	0.583805
C93	C	0.879710	0.000285	-0.675673
C94	C	1.379710	0.500285	-0.175673
C95	C	0.880775	0.000278	-0.603226
C96	C	1.380775	0.500278	-0.103226
C97	C	0.818005	0.000260	-0.558519
C98	C	1.318005	0.500260	-0.058519
C99	C	0.754165	0.000227	-0.586262
C100	C	1.254165	0.500227	-0.086262
C101	C	0.753101	0.000226	-0.658708
C102	C	1.253101	0.500226	-0.158708
C103	C	0.773335	0.050786	-0.439379
C104	C	1.273335	0.550786	0.060621
C105	C	0.774401	0.050793	-0.366935
C106	C	1.274401	0.550793	0.133065
C107	C	0.821283	0.000260	-0.335073
C108	C	1.321283	0.500260	0.164927
C109	C	0.867110	-0.050269	-0.375665
C110	C	1.367110	0.449731	0.124335
C111	C	0.866047	-0.050270	-0.448110
C112	C	1.366047	0.449730	0.051890
C113	C	0.819152	0.000261	-0.479963
C114	C	1.319152	0.500261	0.020037
C115	C	0.886274	0.000279	-0.228782
C116	C	1.386274	0.500279	0.271218
C117	C	0.887336	0.000266	-0.156333
C118	C	1.387336	0.500266	0.343667
C119	C	0.760724	0.000223	-0.139371
C120	C	1.260724	0.500223	0.360629
C121	C	0.759663	0.000228	-0.211818
C122	C	1.259663	0.500228	0.288182
C123	C	0.822441	0.000259	-0.256520
C124	C	1.322441	0.500259	0.243480
C125	C	0.814751	0.000253	0.219487
C126	C	1.314751	0.500253	0.719487
C127	C	0.815878	0.000257	0.296591
C128	C	1.315878	0.500257	0.796591
H129	H	0.462566	0.000224	0.209643
H130	H	0.962566	0.500224	0.709643
H131	H	0.147108	0.000291	0.205017
H132	H	0.647108	0.500291	0.705017
O133	O	0.743196	-0.614222	0.169629
O134	O	1.243196	-0.114222	0.669629
C135	C	0.753324	-0.636416	0.239296
C136	C	1.253324	-0.136416	0.739296
H137	H	0.807881	-0.661337	0.240544
H138	H	1.307881	-0.161337	0.740544
H139	H	0.747740	-0.576701	0.271656
H140	H	1.247740	-0.076701	0.771656
H141	H	0.712540	-0.689152	0.262023
H142	H	1.212540	-0.189152	0.762023
H143	H	0.718236	-0.378269	0.194380
H144	H	1.218236	0.121731	0.694380
H145	H	0.593991	0.000207	0.211572
H146	H	1.093991	0.500207	0.711572
H147	H	0.743317	-0.786048	0.169363
H148	H	1.243317	-0.286048	0.669363
H149	H	0.905281	-0.091424	-0.349723
H150	H	1.405281	0.408576	0.150277
O151	O	0.940752	0.000267	-0.718994
O152	O	1.440752	0.500267	-0.218994
C153	C	0.997322	0.000310	-0.678972
C154	C	1.497322	0.500310	-0.178972
H155	H	0.978363	-0.027003	-0.623691
H156	H	1.478363	0.472997	-0.123691
H157	H	1.039514	-0.041561	-0.704065
H158	H	1.539514	0.458439	-0.204065
H159	H	1.019833	0.069528	-0.676799
H160	H	1.519833	0.569528	-0.176799
H161	H	0.401642	0.091955	0.001587
H162	H	0.901642	0.591955	0.501587
O163	O	0.904896	-0.206449	0.007794
O164	O	1.404896	0.293551	0.507794
C165	C	0.944210	-0.265983	-0.031470
C166	C	1.444210	0.234017	0.468530
H167	H	0.913001	-0.330729	-0.029442
H168	H	1.413001	0.169271	0.470558
H169	H	0.956092	-0.239752	-0.088079
H170	H	1.456092	0.260248	0.411921
H171	H	0.995327	-0.275607	-0.008640
H172	H	1.495327	0.224393	0.491360
H173	H	0.915251	-0.785985	-0.002459
H174	H	1.415251	-0.285985	0.497541
O175	O	0.374455	-0.099483	0.193367
O176	O	0.874455	0.400517	0.693367
C177	C	0.319312	-0.144073	0.237368
C178	C	0.819312	0.355927	0.737368
H179	H	0.271204	-0.150165	0.208524
H180	H	0.771204	0.349835	0.708524
H181	H	0.335723	-0.211517	0.252763
H182	H	0.835723	0.288483	0.752763
H183	H	0.306418	-0.106598	0.286395
H184	H	0.806418	0.393402	0.786395
H185	H	0.737090	0.091941	-0.333891
H186	H	1.237090	0.591941	0.166109
O187	O	0.897336	-0.385430	0.015530
O188	O	1.397336	0.114570	0.515530
C189	C	0.937854	-0.437909	0.054847
C190	C	1.437854	0.062091	0.554847
H191	H	0.909437	-0.451514	0.109845
H192	H	1.409437	0.048486	0.609845
H193	H	0.946237	-0.501767	0.028531
H194	H	1.446237	-0.001767	0.528531
H195	H	0.990651	-0.402886	0.057959
H196	H	1.490651	0.097114	0.557959
O197	O	0.489064	0.000334	-0.030135
O198	O	0.989064	0.500334	0.469865
C199	C	0.515109	0.075054	-0.071535
C200	C	1.015109	0.575054	0.428465
H201	H	0.566364	0.099947	-0.053815
H202	H	1.066364	0.599947	0.446185
H203	H	0.524626	0.058248	-0.128700
H204	H	1.024626	0.558248	0.371300
H205	H	0.475400	0.127385	-0.065567
H206	H	0.975400	0.627385	0.434433
H207	H	0.725192	-0.213523	0.187414
H208	H	1.225192	0.286477	0.687414
H209	H	0.624764	0.000173	-0.018131
H210	H	1.124764	0.500173	0.481869
O211	O	0.942746	0.000427	-0.576195
O212	O	1.442746	0.500427	-0.076195
C213	C	0.950309	0.075159	-0.537966
C214	C	1.450309	0.575159	-0.037966
H215	H	0.896556	0.100040	-0.520806
H216	H	1.396556	0.600040	-0.020806
H217	H	0.977134	0.058374	-0.489899
H218	H	1.477134	0.558374	0.010101
H219	H	0.983353	0.127492	-0.572278
H220	H	1.483353	0.627492	-0.072278
O221	O	0.910459	-0.099403	-0.487604
O222	O	1.410459	0.400597	0.012396
C223	C	0.871532	-0.159688	-0.522163
C224	C	1.371532	0.340312	-0.022163
H225	H	0.817428	-0.134903	-0.526687
H226	H	1.317428	0.365097	-0.026687
H227	H	0.899637	-0.168191	-0.576665
H228	H	1.399637	0.331809	-0.076665
H229	H	0.866052	-0.224716	-0.491084
H230	H	1.366052	0.275284	0.008916
H231	H	0.939318	0.000283	-0.133753
H232	H	1.439318	0.500283	0.366247
O233	O	0.929972	-0.614230	-0.017234
O234	O	1.429972	-0.114230	0.482766
C235	C	0.969290	-0.673760	-0.056499
C236	C	1.469290	-0.173760	0.443501
H237	H	0.938083	-0.738508	-0.054473
H238	H	1.438083	-0.238508	0.445527
H239	H	0.981172	-0.647526	-0.113107
H240	H	1.481172	-0.147526	0.386893
H241	H	1.020407	-0.683382	-0.033668
H242	H	1.520407	-0.183382	0.466332
O243	O	0.947314	0.000263	-0.272109
O244	O	1.447314	0.500263	0.227891
C245	C	1.003886	0.000300	-0.232090
C246	C	1.503886	0.500300	0.267910
H247	H	0.984928	-0.027022	-0.176810
H248	H	1.484928	0.472978	0.323190
H249	H	1.046078	-0.041566	-0.257189
H250	H	1.546078	0.458434	0.242811
H251	H	1.026396	0.069517	-0.229909
H252	H	1.526396	0.569517	0.270091
H253	H	0.709615	0.000201	-0.102970
H254	H	1.209615	0.500201	0.397030
H255	H	0.238801	-0.091432	0.183371
H256	H	0.738801	0.408568	0.683371
O257	O	0.691103	0.000052	-0.685681
O258	O	1.191103	0.500052	-0.185681
C259	C	0.683542	-0.074650	-0.723945
C260	C	1.183542	0.425350	-0.223945
H261	H	0.717571	-0.126863	-0.704725
H262	H	1.217571	0.373137	-0.204725
H263	H	0.626478	-0.099746	-0.716211
H264	H	1.126478	0.400254	-0.216211
H265	H	0.700462	-0.057748	-0.781841
H266	H	1.200462	0.442252	-0.281841
O267	O	0.008590	0.000438	0.212898
O268	O	0.508590	0.500438	0.712898
C269	C	-0.030616	0.075174	0.212916
C270	C	0.469384	0.575174	0.712916
H271	H	-0.033044	0.100076	0.156742
H272	H	0.466956	0.600076	0.656742
H273	H	-0.085866	0.058385	0.239674
H274	H	0.414134	0.558385	0.739674
H275	H	-0.004644	0.127493	0.242349
H276	H	0.495356	0.627493	0.742349
O277	O	0.041982	0.000356	-0.036588
O278	O	0.541982	0.500356	0.463412
C279	C	-0.031546	0.000351	-0.024068
C280	C	0.468454	0.500351	0.475932
H281	H	-0.047562	0.027664	0.029038
H282	H	0.452438	0.527664	0.529038
H283	H	-0.051873	0.042242	-0.066668
H284	H	0.448127	0.542242	0.433332
H285	H	-0.054661	-0.068854	-0.024450
H286	H	0.445339	0.431146	0.475550
H287	H	0.707685	0.000211	-0.234401
H288	H	1.207685	0.500211	0.265599
H289	H	0.177878	0.000284	-0.024686
H290	H	0.677878	0.500284	0.475314
H291	H	0.735149	0.091930	-0.465313
H292	H	1.235149	0.591930	0.034687
H293	H	0.703057	0.000209	-0.549857
H294	H	1.203057	0.500209	-0.049857
H295	H	0.270220	0.091984	-0.000340
H296	H	0.770220	0.591984	0.499660
