data_functionalizedCrystal
_audit_creation_method	'MofGen! by Chris Wilmer'
_symmetry_space_group_name_H-M	'P1'
_symmetry_Int_Tables_number	1
_symmetry_cell_setting	triclinic
loop_
_symmetry_equiv_pos_as_xyz
  x,y,z
_cell_length_a	12.759399
_cell_length_b	14.908780
_cell_length_c	14.908308
_cell_angle_alpha	89.787311
_cell_angle_beta	93.272288
_cell_angle_gamma	93.305032
loop_
_atom_site_label
_atom_site_type_symbol
_atom_site_fract_x
_atom_site_fract_y
_atom_site_fract_z
Zn1	Zn	0.367517	-1.345338	0.587898
Zn2	Zn	0.867517	-0.845338	1.087898
Zn3	Zn	0.532543	-1.353929	0.437552
Zn4	Zn	1.032543	-0.853929	0.937552
Zn5	Zn	0.366375	-1.203651	0.428865
Zn6	Zn	0.866375	-0.703651	0.928865
Zn7	Zn	0.552655	-1.194957	0.579172
Zn8	Zn	1.052655	-0.694957	1.079172
O9	O	0.454772	-1.274469	0.508372
O10	O	0.954772	-0.774469	1.008372
O11	O	0.381469	-1.472304	0.575242
O12	O	0.881469	-0.972304	1.075242
O13	O	0.501605	-1.341229	0.310576
O14	O	1.001605	-0.841229	0.810576
O15	O	0.219503	-1.222489	0.449977
O16	O	0.719503	-0.722489	0.949977
O17	O	0.502713	-1.478617	0.464784
O18	O	1.002713	-0.978617	0.964784
O19	O	0.220343	-1.326586	0.566818
O20	O	0.720343	-0.826586	1.066818
O21	O	0.379522	-1.230820	0.304194
O22	O	0.879522	-0.730820	0.804194
O23	O	0.399024	-1.076671	0.441516
O24	O	0.899024	-0.576671	0.941516
O25	O	0.536991	-1.207671	0.706153
O26	O	1.036991	-0.707671	1.206153
O27	O	0.535883	-1.070283	0.551946
O28	O	1.035883	-0.570283	1.051946
O29	O	0.400971	-1.318155	0.712564
O30	O	0.900971	-0.818155	1.212564
O31	O	0.682234	-1.332798	0.456322
O32	O	1.182234	-0.832798	0.956322
O33	O	0.697010	-1.216002	0.560369
O34	O	1.197010	-0.716002	1.060369
C35	C	0.469513	-1.040851	0.494842
C36	C	0.969513	-0.540851	0.994842
C37	C	0.475846	-0.940907	0.489075
C38	C	0.975846	-0.440907	0.989075
C39	C	0.361692	-0.746517	0.593434
C40	C	0.861692	-0.246517	1.093434
C41	C	0.367639	-0.652611	0.588019
C42	C	0.867639	-0.152611	1.088019
C43	C	0.493681	-0.659187	0.472825
C44	C	0.993681	-0.159187	0.972825
C45	C	0.487734	-0.753093	0.478240
C46	C	0.987734	-0.253093	0.978240
C47	C	0.421738	-0.796755	0.538548
C48	C	0.921738	-0.296755	1.038548
C49	C	0.415797	-0.890663	0.543967
C50	C	0.915797	-0.390663	1.043967
C51	C	0.541833	-0.897237	0.428769
C52	C	1.041833	-0.397237	0.928769
C53	C	0.547780	-0.803331	0.423354
C54	C	1.047780	-0.303331	0.923354
C55	C	0.727743	-1.274412	0.508363
C56	C	1.227743	-0.774412	1.008363
C57	C	0.844518	-1.274469	0.508394
C58	C	1.344518	-0.774469	1.008394
C59	C	0.891652	-1.335344	0.454286
C60	C	1.391652	-0.835344	0.954286
C61	C	1.001375	-1.335396	0.454322
C62	C	1.501375	-0.835396	0.954322
C63	C	1.016821	-1.213689	0.562575
C64	C	1.516821	-0.713689	1.062575
C65	C	0.907100	-1.213642	0.562543
C66	C	1.407100	-0.713642	1.062543
C67	C	0.829070	-1.396170	0.400136
C68	C	1.329070	-0.896170	0.900136
C69	C	0.876203	-1.457050	0.346024
C70	C	1.376203	-0.957050	0.846024
C71	C	0.985926	-1.457102	0.346060
C72	C	1.485926	-0.957102	0.846060
C73	C	1.048515	-1.396274	0.400209
C74	C	1.548515	-0.896274	0.900209
C75	C	1.180737	-1.274545	0.508414
C76	C	1.680737	-0.774545	1.008414
C77	C	1.063962	-1.274567	0.508462
C78	C	1.563962	-0.774567	1.008462
C79	C	0.471352	-1.260985	0.742895
C80	C	0.971352	-0.760985	1.242895
C81	C	0.478417	-1.255238	0.842835
C82	C	0.978417	-0.755238	1.342835
C83	C	0.439965	-0.508999	0.521948
C84	C	0.939965	-0.008999	1.021948
C85	C	0.433632	-0.608942	0.527717
C86	C	0.933632	-0.108942	1.027717
C87	C	0.438178	-1.287952	0.274763
C88	C	0.938178	-0.787952	0.774763
C89	C	0.430806	-1.293872	0.174834
C90	C	0.930806	-0.793872	0.674834
C91	C	0.350031	-1.359485	1.037311
C92	C	0.850031	-0.859485	1.537311
C93	C	0.356666	-1.354089	1.131213
C94	C	0.856666	-0.854089	1.631213
C95	C	0.498315	-1.239046	1.124545
C96	C	0.998315	-0.739046	1.624545
C97	C	0.491680	-1.244442	1.030642
C98	C	0.991680	-0.744442	1.530642
C99	C	0.417537	-1.304665	0.987029
C100	C	0.917537	-0.804665	1.487029
C101	C	0.410908	-1.310065	0.893124
C102	C	0.910908	-0.810065	1.393124
C103	C	0.552552	-1.195018	0.886458
C104	C	1.052552	-0.695018	1.386458
C105	C	0.559186	-1.189621	0.980360
C106	C	1.059186	-0.689621	1.480360
H107	H	0.318740	-0.611711	0.632711
H108	H	0.818740	-0.111711	1.132711
O109	O	0.564844	-0.612090	0.407772
O110	O	1.064844	-0.112090	0.907772
H111	H	0.558886	-0.538351	0.413229
H112	H	1.058886	-0.038351	0.913229
H113	H	1.067790	-1.164166	0.606660
H114	H	1.567790	-0.664166	1.106660
H115	H	0.558678	-1.190015	1.160072
H116	H	1.058678	-0.690015	1.660072
O117	O	0.625367	-1.135880	0.832227
O118	O	1.125367	-0.635880	1.332227
H119	H	0.608296	-1.149743	0.759602
H120	H	1.108296	-0.649743	1.259602
H121	H	0.601508	-0.767769	0.374250
H122	H	1.101508	-0.267769	0.874250
O123	O	0.856250	-1.147979	0.620892
O124	O	1.356250	-0.647979	1.120892
H125	H	0.918198	-1.105680	0.658539
H126	H	1.418198	-0.605680	1.158539
H127	H	0.825237	-1.506579	0.301943
H128	H	1.325237	-1.006579	0.801943
O129	O	0.270076	-1.424447	0.990268
O130	O	0.770076	-0.924447	1.490268
H131	H	0.276812	-1.418996	0.916524
H132	H	0.776812	-0.918996	1.416524
H133	H	0.590736	-0.938151	0.384084
H134	H	1.090736	-0.438151	0.884084
O135	O	0.344615	-0.937754	0.609010
O136	O	0.844615	-0.437754	1.109010
H137	H	0.350572	-1.011494	0.603563
H138	H	0.850572	-0.511494	1.103563
H139	H	0.301693	-1.398728	1.172150
H140	H	0.801693	-0.898728	1.672150
H141	H	0.739727	-1.396132	0.400098
H142	H	1.239727	-0.896132	0.900098
O143	O	0.639149	-1.124665	1.027401
O144	O	1.139149	-0.624665	1.527401
H145	H	0.632425	-1.130123	1.101146
H146	H	1.132425	-0.630123	1.601146
O147	O	0.330947	-1.375017	0.846076
O148	O	0.830947	-0.875017	1.346076
H149	H	0.250736	-1.358574	0.863205
H150	H	0.750736	-0.858574	1.363205
H151	H	0.307960	-0.782067	0.642543
H152	H	0.807960	-0.282067	1.142543
H153	H	1.137859	-1.396328	0.400241
H154	H	1.637859	-0.896328	0.900241
O155	O	1.036769	-1.522759	0.287701
O156	O	1.536769	-1.022759	0.787701
H157	H	0.974815	-1.565040	0.250039
H158	H	1.474815	-1.065040	0.750039
