data_functionalizedCrystal
_audit_creation_method	'MofGen! by Chris Wilmer'
_symmetry_space_group_name_H-M	'P1'
_symmetry_Int_Tables_number	1
_symmetry_cell_setting	triclinic
loop_
_symmetry_equiv_pos_as_xyz
  x,y,z
_cell_length_a	31.640172
_cell_length_b	12.970454
_cell_length_c	12.970454
_cell_angle_alpha	59.999644
_cell_angle_beta	90.004135
_cell_angle_gamma	59.998248
loop_
_atom_site_label
_atom_site_type_symbol
_atom_site_fract_x
_atom_site_fract_y
_atom_site_fract_z
Zr1	Zr	0.407182	1.128396	-0.135173
O2	O	0.339692	1.343509	-0.299821
O3	O	0.427871	0.913299	-0.084699
O4	O	0.427871	1.128391	-0.299791
O5	O	0.339693	1.128416	0.084938
O6	O	0.497428	1.128369	-0.299769
O7	O	0.339692	1.128417	-0.084729
O8	O	0.497428	0.743609	0.084992
O9	O	0.339692	1.513176	-0.299822
O10	O	0.488604	1.001750	-0.063157
O11	O	0.436695	1.001765	0.063447
O12	O	0.436695	1.255008	-0.189796
O13	O	0.384785	1.255024	-0.063192
Zr14	Zr	0.518118	1.128361	0.135463
Zr15	Zr	0.518117	1.128362	-0.135137
Zr16	Zr	0.407182	1.128395	0.135427
Zr17	Zr	0.407182	1.398996	-0.135175
Zr18	Zr	0.518118	0.857761	0.135464
O19	O	0.497428	1.343458	0.084989
O20	O	0.497428	1.343460	-0.299770
O21	O	0.339693	1.343507	0.084937
O22	O	0.585608	0.913249	0.300110
O23	O	0.585607	0.913250	-0.084648
O24	O	0.427872	0.913297	0.300059
O25	O	0.585607	1.128341	-0.084649
O26	O	0.497429	1.128367	0.300080
O27	O	0.427872	1.128388	0.300058
O28	O	0.585607	1.128340	0.085018
O29	O	0.427871	1.513149	-0.299793
O30	O	0.497429	0.743608	0.300082
O31	O	0.585608	0.743581	0.300111
O32	O	0.585607	0.743582	0.085020
O33	O	0.339692	1.513175	-0.084731
O34	O	0.427871	1.513148	-0.084702
O35	O	0.488605	1.001749	0.190085
O36	O	0.540514	1.001734	0.063481
O37	O	0.488604	1.254992	-0.063158
O38	O	0.436695	1.255007	0.063446
C39	C	0.462650	0.789899	0.000146
C40	C	0.462650	0.675023	0.000147
C41	C	0.323886	1.128421	0.000100
C42	C	0.276791	1.128436	0.000084
C43	C	0.011882	0.996167	0.066274
C44	C	-0.165103	0.996141	0.066299
O45	O	-0.164945	0.883711	0.122565
N46	N	-0.214329	1.128339	0.000193
C47	C	-0.219308	1.260552	-0.065917
O48	O	-0.265239	1.372993	-0.122133
C49	C	-0.042324	1.260575	-0.065934
C50	C	0.006902	1.128370	0.000166
C51	C	0.061105	0.863972	0.132370
C52	C	0.105349	0.863979	0.132357
C53	C	0.100369	0.996182	0.066249
C54	C	0.051145	1.128377	0.000154
C55	C	-0.047303	1.392787	-0.132035
C56	C	-0.003052	1.392781	-0.132031
C57	C	0.046174	1.260575	-0.065931
C58	C	0.090408	1.260588	-0.065967
N59	N	0.139634	1.128390	0.000139
C60	C	0.144615	0.996188	0.066247
C61	C	-0.312226	1.260530	-0.065905
C62	C	-0.356472	1.260524	-0.065903
C63	C	-0.302264	0.996114	0.066315
C64	C	-0.258017	0.996121	0.066305
C65	C	-0.263000	1.128333	0.000201
C66	C	0.237527	0.996214	0.066215
C67	C	0.281772	0.996233	0.066192
C68	C	0.227560	1.260643	-0.066020
C69	C	0.183318	1.260624	-0.066003
C70	C	0.188305	1.128398	0.000124
O71	O	0.090289	1.372959	-0.122191
O72	O	0.190550	0.883763	0.122478
C73	C	-0.032362	0.996159	0.066287
C74	C	-0.081585	1.128354	0.000191
C75	C	-0.086565	1.260557	-0.065917
C76	C	-0.125831	1.128349	0.000194
C77	C	-0.120851	0.996146	0.066302
C78	C	-0.071625	0.863949	0.132408
C79	C	-0.027381	0.863956	0.132395
C80	C	-0.135791	1.392754	-0.132023
C81	C	-0.180032	1.392736	-0.132006
C82	C	-0.175052	1.260533	-0.065898
C83	C	0.601413	1.128336	0.000190
C84	C	0.648508	1.128322	0.000205
C85	C	0.462649	1.128380	-0.338335
C86	C	0.462649	1.128381	-0.453211
C87	C	0.462650	1.466858	0.000143
C88	C	0.462650	1.581735	0.000142
C89	C	0.462650	1.128377	0.338624
C90	C	0.462651	1.128376	0.453501
C91	C	0.601413	0.789857	0.000191
C92	C	0.648508	0.674966	0.000207
C93	C	0.462650	0.789898	0.338626
C94	C	0.462651	0.675020	0.453503
C95	C	0.601414	0.789855	0.338671
C96	C	0.648509	0.674963	0.453563
C97	C	0.323886	1.466902	-0.338381
C98	C	0.276791	1.581794	-0.453274
C99	C	0.323886	1.466901	0.000098
C100	C	0.276791	1.581792	0.000082
C101	C	0.462649	1.466860	-0.338336
C102	C	0.462649	1.581737	-0.453214
C103	C	0.643528	0.621020	-0.065900
C104	C	0.687774	0.513082	-0.065910
C105	C	0.737001	0.459085	0.000195
C106	C	0.741980	0.513041	0.066304
C107	C	0.697734	0.620984	0.066306
C108	C	0.697726	0.621001	0.441432
C109	C	0.741981	0.513063	0.549376
C110	C	0.737018	0.459082	0.669449
C111	C	0.687796	0.513055	0.681578
C112	C	0.643542	0.620998	0.573636
C113	C	0.227573	1.635770	-0.441143
C114	C	0.183318	1.743741	-0.549086
C115	C	0.188281	1.797728	-0.669160
C116	C	0.237504	1.743748	-0.681289
C117	C	0.281758	1.635786	-0.573346
C118	C	0.281772	1.635749	0.066178
C119	C	0.237525	1.743716	0.066159
C120	C	0.188299	1.797717	0.000050
C121	C	0.183320	1.743756	-0.066055
C122	C	0.227566	1.635798	-0.066042
H123	H	0.241595	0.888542	0.120063
H124	H	-0.316291	1.368199	-0.119744
H125	H	0.773057	0.371187	0.757332
N126	N	0.682721	0.457903	0.804225
N127	N	0.638776	0.506075	0.815057
H128	H	0.635193	0.467115	0.901678
N129	N	0.792260	0.457926	0.536993
N130	N	0.823001	0.469980	0.582458
H131	H	0.858510	0.431040	0.573712
H132	H	-0.139854	1.500412	-0.185859
N133	N	-0.097575	1.527848	-0.199564
N134	N	-0.102003	1.645863	-0.258568
H135	H	-0.137509	1.741259	-0.306263
H136	H	0.603450	0.664984	-0.119746
H137	H	0.143244	1.787673	-0.539186
N138	N	0.593264	0.676084	0.586016
N139	N	0.553751	0.772439	0.489642
H140	H	0.518243	0.811332	0.498391
N141	N	0.332047	1.580613	0.133723
N142	N	0.336477	1.628825	0.192722
H143	H	0.371983	1.589897	0.240426
H144	H	0.223522	1.591819	-0.343383
N145	N	0.702795	0.676162	0.318780
N146	N	0.663284	0.772546	0.222400
H147	H	0.666866	0.811506	0.135777
H148	H	0.152243	1.885637	-0.757043
H149	H	0.241539	1.787718	-0.779065
N150	N	0.022898	0.728910	0.199901
N151	N	0.036095	0.640396	0.171877
H152	H	0.071604	0.545012	0.219556
H153	H	0.782065	0.469061	0.120124
N154	N	0.133030	1.798925	-0.133551
N155	N	0.102300	1.786882	-0.075994
H156	H	0.066781	1.825844	-0.123655
N157	N	-0.406748	1.395583	-0.133453
N158	N	-0.411181	1.513604	-0.192470
H159	H	-0.446688	1.608996	-0.240177
N160	N	0.782205	0.348711	0.000324
N161	N	0.789830	0.228265	0.043178
H162	H	0.821759	0.150273	0.043319
H163	H	0.223504	1.591869	-0.119862
H164	H	0.321832	1.591840	-0.583239
N165	N	-0.207737	0.861076	0.133854
N166	N	-0.177000	0.831570	0.220896
H167	H	-0.141490	0.736187	0.268609
H168	H	0.241589	1.787633	0.119993
H169	H	0.683710	0.469165	-0.119744
H170	H	0.152275	1.885624	0.000049
H171	H	0.145427	0.756323	0.186177
N172	N	0.332055	0.861182	0.133696
N173	N	0.345253	0.772667	0.105673
H174	H	0.380765	0.677290	0.153345
N175	N	0.066188	0.728933	0.199896
N176	N	0.047552	0.699404	0.286935
H177	H	0.051144	0.604026	0.334620
N178	N	-0.297169	0.861054	0.133847
N179	N	-0.274082	0.772520	0.105843
H180	H	-0.270486	0.677137	0.153541
H181	H	0.143236	1.368277	-0.119844
N182	N	-0.008153	1.527850	-0.199580
N183	N	-0.031250	1.616369	-0.316123
H184	H	-0.034853	1.711763	-0.363833
N185	N	0.222488	1.395666	-0.133545
N186	N	0.262000	1.395636	-0.133533
H187	H	0.258419	1.490997	-0.181217
H188	H	-0.220113	1.500402	-0.185845
N189	N	-0.066541	0.728904	0.199915
N190	N	-0.085190	0.699413	0.142381
H191	H	-0.081602	0.604042	0.190057
H192	H	0.701796	0.664893	0.120146
