data_functionalizedCrystal
_audit_creation_method	'MofGen! by Chris Wilmer'
_symmetry_space_group_name_H-M	'P1'
_symmetry_Int_Tables_number	1
_symmetry_cell_setting	triclinic
loop_
_symmetry_equiv_pos_as_xyz
  x,y,z
_cell_length_a	16.120490
_cell_length_b	16.120444
_cell_length_c	17.077396
_cell_angle_alpha	92.869489
_cell_angle_beta	87.084783
_cell_angle_gamma	90.165174
loop_
_atom_site_label
_atom_site_type_symbol
_atom_site_fract_x
_atom_site_fract_y
_atom_site_fract_z
Zn1	Zn	1.254466	-0.395674	-0.522512
Zn2	Zn	1.247307	-0.534735	-0.397540
Zn3	Zn	1.115406	-0.388634	-0.384296
Zn4	Zn	1.108316	-0.527620	-0.521799
O5	O	1.181374	-0.461666	-0.456537
O6	O	1.369882	-0.420045	-0.511776
O7	O	1.229782	-0.515386	-0.285936
O8	O	1.139816	-0.273205	-0.397387
O9	O	1.364622	-0.522212	-0.419958
O10	O	1.241983	-0.278377	-0.498934
O11	O	1.132875	-0.408046	-0.276206
O12	O	0.998100	-0.401147	-0.396695
O13	O	1.127732	-0.510085	-0.631740
O14	O	0.992891	-0.503259	-0.497718
O15	O	1.235108	-0.413146	-0.632265
O16	O	1.222906	-0.650154	-0.419266
O17	O	1.120790	-0.644927	-0.510559
C18	C	0.965323	-0.450668	-0.445693
C19	C	0.872895	-0.445983	-0.441073
C20	C	0.659924	-0.485961	-0.480501
C21	C	0.703671	-0.437437	-0.432638
C22	C	0.797836	-0.442193	-0.437332
C23	C	0.565751	-0.481206	-0.475807
C24	C	1.170325	-0.677713	-0.466291
C25	C	1.165674	-0.770143	-0.470493
C26	C	1.205704	-0.983119	-0.434914
C27	C	1.157198	-0.939369	-0.478176
C28	C	1.161915	-0.845203	-0.473900
C29	C	1.200988	-1.077294	-0.439189
C30	C	1.398268	-0.472707	-0.467424
C31	C	1.490696	-0.477413	-0.472063
C32	C	1.181427	-0.461607	-0.661281
C33	C	1.181450	-0.461582	-0.748531
C34	C	1.192489	-0.244776	-0.446763
C35	C	1.197226	-0.152350	-0.442598
C36	C	1.237363	-0.411101	-0.789795
C37	C	1.237374	-0.411074	-0.871775
C38	C	1.181476	-0.461533	-0.912489
C39	C	1.125557	-0.512016	-0.871219
C40	C	1.125543	-0.512038	-0.789240
C41	C	1.125593	-0.511967	-1.042088
C42	C	1.125609	-0.511947	-1.124073
C43	C	1.237425	-0.411004	-1.124623
C44	C	1.237410	-0.411026	-1.042644
C45	C	1.181492	-0.461510	-1.001380
C46	C	1.181372	-0.461667	-0.252589
C47	C	1.181522	-0.461466	-0.165337
H48	H	1.250771	-0.949857	-0.394667
C49	C	1.096302	-0.984304	-0.532544
C50	C	1.103606	-0.972737	-0.621594
C51	C	1.042711	-1.017676	-0.675957
C52	C	0.974512	-1.074183	-0.641268
C53	C	0.967205	-1.085753	-0.552212
C54	C	1.028101	-1.040814	-0.497850
H55	H	1.154093	-0.930905	-0.647277
H56	H	1.048120	-1.009111	-0.741881
H57	H	0.929434	-1.107450	-0.681510
H58	H	0.916718	-1.127585	-0.526529
H59	H	1.022692	-1.049379	-0.431925
H60	H	0.670405	-0.392322	-0.388135
C61	C	0.704859	-0.546912	-0.540613
C62	C	0.688197	-0.640848	-0.537741
C63	C	0.733143	-0.701801	-0.597849
C64	C	0.794752	-0.668817	-0.660828
C65	C	0.811417	-0.574876	-0.663702
C66	C	0.766471	-0.513924	-0.603594
H67	H	0.642587	-0.665269	-0.491119
H68	H	0.720806	-0.771342	-0.595721
H69	H	0.828025	-0.713938	-0.705323
H70	H	0.857027	-0.550455	-0.710325
H71	H	0.778808	-0.444382	-0.605722
H72	H	1.282884	-0.370015	-0.756652
C73	C	1.298881	-0.355542	-0.917162
C74	C	1.393063	-0.367148	-0.910949
C75	C	1.454572	-0.311610	-0.956333
C76	C	1.421898	-0.244467	-1.007931
C77	C	1.327711	-0.232859	-1.014147
C78	C	1.266203	-0.288396	-0.968762
H79	H	1.417255	-0.416854	-0.872751
H80	H	1.524295	-0.320204	-0.951732
H81	H	1.467430	-0.203355	-1.041528
H82	H	1.303520	-0.183153	-1.052345
H83	H	1.196479	-0.279803	-0.973363
H84	H	1.282932	-0.369943	-1.009497
H85	H	1.282954	-0.369896	-1.158224
C86	C	1.064074	-0.567522	-0.916009
C87	C	1.096782	-0.634623	-0.977116
C88	C	1.035302	-0.690134	-1.021907
C89	C	0.941113	-0.678544	-1.005591
C90	C	0.908400	-0.611440	-0.944481
C91	C	0.969880	-0.555929	-0.899690
H92	H	1.166511	-0.643206	-0.989196
H93	H	1.059519	-0.739809	-1.067144
H94	H	0.895602	-0.719636	-1.038748
H95	H	0.838671	-0.602858	-0.932401
H96	H	0.945663	-0.506254	-0.854452
C97	C	1.064149	-0.567481	-1.168863
C98	C	1.002658	-0.623030	-1.123480
C99	C	0.941212	-0.678582	-1.168272
C100	C	0.941258	-0.678584	-1.258448
C101	C	1.002752	-0.623033	-1.303837
C102	C	1.064197	-0.567482	-1.259044
H103	H	1.002621	-0.623030	-1.056722
H104	H	0.895691	-0.719704	-1.134672
H105	H	0.895773	-0.719707	-1.291606
H106	H	1.002788	-0.623034	-1.370595
H107	H	1.109719	-0.526359	-1.292645
C108	C	1.064045	-0.567573	-0.743843
C109	C	1.000596	-0.528235	-0.682579
C110	C	0.939096	-0.583770	-0.637182
C111	C	0.941045	-0.678643	-0.653049
C112	C	1.004496	-0.717987	-0.714316
C113	C	1.065996	-0.662451	-0.759713
H114	H	0.999151	-0.458000	-0.670831
H115	H	0.892125	-0.554645	-0.591827
H116	H	0.895519	-0.719754	-0.619443
H117	H	1.005941	-0.788222	-0.726065
H118	H	1.112967	-0.691576	-0.805068
H119	H	1.080047	-0.553063	-1.008492
