data_functionalizedCrystal
_audit_creation_method	'MofGen! by Chris Wilmer'
_symmetry_space_group_name_H-M	'P1'
_symmetry_Int_Tables_number	1
_symmetry_cell_setting	triclinic
loop_
_symmetry_equiv_pos_as_xyz
  x,y,z
_cell_length_a	14.044191
_cell_length_b	16.109301
_cell_length_c	14.586319
_cell_angle_alpha	90.001610
_cell_angle_beta	90.003775
_cell_angle_gamma	88.326629
loop_
_atom_site_label
_atom_site_type_symbol
_atom_site_fract_x
_atom_site_fract_y
_atom_site_fract_z
O1	O	1.257649	0.200459	0.076201
O2	O	0.981682	0.193220	0.076213
O3	O	1.127246	0.076373	0.076197
O4	O	1.112084	0.317306	0.076217
O5	O	1.127229	0.076379	-0.076283
O6	O	0.981664	0.193226	-0.076268
O7	O	1.257631	0.200465	-0.076279
Cu8	Cu	1.119646	0.196846	-0.090196
Cu9	Cu	1.119667	0.196839	0.090130
O10	O	1.112067	0.317313	-0.076264
C11	C	1.126623	0.045355	-0.000043
C12	C	1.124782	-0.047077	-0.000045
C13	C	0.946359	0.190056	-0.000026
C14	C	0.841136	0.180610	-0.000022
C15	C	1.206876	-0.263240	-0.000034
C16	C	1.205138	-0.350089	-0.000026
C17	C	1.032431	-0.343068	-0.000022
C18	C	1.034169	-0.256220	-0.000023
C19	C	1.121395	-0.216308	-0.000034
C20	C	1.117918	-0.390006	-0.000025
C21	C	1.116034	-0.484173	-0.000017
C22	C	1.123280	-0.122136	-0.000040
C23	C	0.590834	0.230335	-0.000027
C24	C	0.648484	0.163354	-0.000031
C25	C	0.755686	0.172958	-0.000026
C26	C	0.483623	0.220733	-0.000032
C27	C	1.292954	0.203629	-0.000038
C28	C	1.398177	0.213075	-0.000036
C29	C	1.112690	0.348330	-0.000021
C30	C	1.114531	0.440762	-0.000014
N31	N	1.119638	0.196852	-0.217028
C32	C	1.177124	0.251558	-0.452033
C33	C	1.177134	0.251553	-0.548014
C34	C	1.062195	0.142115	-0.548027
C35	C	1.062190	0.142117	-0.452048
C36	C	1.119653	0.196843	-0.404053
C37	C	1.119667	0.196836	-0.596014
C38	C	1.119678	0.196831	-0.700081
C39	C	1.119645	0.196848	-0.299979
N40	N	1.119682	0.196828	0.216962
H41	H	1.274746	-0.388298	-0.000024
N42	N	0.943345	-0.383853	-0.000010
N43	N	0.941803	-0.461395	-0.000009
H44	H	0.878884	-0.490199	-0.000002
H45	H	0.617329	0.098797	0.000028
H46	H	0.964556	-0.218007	-0.000021
H47	H	0.621988	0.294886	-0.000019
H48	H	1.223933	0.296107	-0.587075
H49	H	1.223914	0.296120	-0.412958
H50	H	1.015409	0.097560	-0.587116
H51	H	1.015390	0.097556	-0.412981
H52	H	1.277900	-0.230746	-0.000040
