data_functionalizedCrystal
_audit_creation_method	'MofGen! by Chris Wilmer'
_symmetry_space_group_name_H-M	'P1'
_symmetry_Int_Tables_number	1
_symmetry_cell_setting	triclinic
loop_
_symmetry_equiv_pos_as_xyz
  x,y,z
_cell_length_a	23.532407
_cell_length_b	23.532407
_cell_length_c	22.610064
_cell_angle_alpha	89.999397
_cell_angle_beta	89.997161
_cell_angle_gamma	82.848678
loop_
_atom_site_label
_atom_site_type_symbol
_atom_site_fract_x
_atom_site_fract_y
_atom_site_fract_z
O1	O	0.755263	0.069127	-0.049117
O2	O	0.589400	0.079130	-0.049135
O3	O	0.677333	-0.008803	-0.049114
O4	O	0.667330	0.157060	-0.049137
O5	O	0.677318	-0.008790	0.049255
O6	O	0.589385	0.079143	0.049234
O7	O	0.755248	0.069140	0.049252
Zn8	Zn	0.672314	0.074144	0.064862
Zn9	Zn	0.672334	0.074127	-0.064744
O10	O	0.667315	0.157073	0.049232
C11	C	0.568176	0.078882	0.000048
C12	C	0.504959	0.078116	0.000041
C13	C	0.105856	0.125350	0.000061
C14	C	0.046456	0.124638	0.000065
O15	O	0.009711	0.168424	0.000081
N16	N	0.023830	0.072362	0.000071
C17	C	0.060607	0.020794	0.000080
O18	O	0.035908	-0.023737	0.000086
C19	C	0.120006	0.021506	0.000080
C20	C	0.142629	0.073785	0.000068
C21	C	0.128479	0.177625	0.000050
C22	C	0.187876	0.178336	0.000045
C23	C	0.224649	0.126772	0.000052
C24	C	0.202025	0.074497	0.000063
C25	C	0.156783	-0.030062	0.000093
C26	C	0.216185	-0.029345	0.000094
C27	C	0.238808	0.022934	0.000082
C28	C	0.298194	0.023643	0.000065
N29	N	0.320820	0.075920	0.000059
C30	C	0.284048	0.127484	0.000052
C31	C	-0.064135	0.019302	0.000080
C32	C	-0.123533	0.018589	0.000075
C33	C	-0.137680	0.122434	0.000061
C34	C	-0.078281	0.123146	0.000062
C35	C	-0.041509	0.071578	0.000074
C36	C	0.408784	0.128974	0.000042
C37	C	0.468186	0.129680	0.000034
C38	C	0.482329	0.025836	0.000051
C39	C	0.422932	0.025129	0.000055
C40	C	0.386160	0.076702	0.000052
O41	O	0.334974	-0.020119	0.000052
O42	O	0.308755	0.172007	0.000054
C43	C	0.677071	-0.030013	0.000072
C44	C	0.676305	-0.093230	0.000076
C45	C	0.723539	-0.492333	0.000049
C46	C	0.722827	-0.551733	0.000044
O47	O	0.766613	-0.588478	0.000027
N48	N	0.670551	-0.574359	0.000039
C49	C	0.618983	-0.537582	0.000032
O50	O	0.574452	-0.562281	0.000027
C51	C	0.619695	-0.478182	0.000033
C52	C	0.671974	-0.455560	0.000044
C53	C	0.775814	-0.469710	0.000060
C54	C	0.776525	-0.410313	0.000065
C55	C	0.724961	-0.373540	0.000060
C56	C	0.672685	-0.396164	0.000050
C57	C	0.568127	-0.441406	0.000022
C58	C	0.568844	-0.382004	0.000021
C59	C	0.621123	-0.359381	0.000033
C60	C	0.621832	-0.299995	0.000050
N61	N	0.674109	-0.277368	0.000056
C62	C	0.725673	-0.314141	0.000061
C63	C	0.617491	-0.662324	0.000031
C64	C	0.616778	-0.721722	0.000034
C65	C	0.720623	-0.735869	0.000045
C66	C	0.721335	-0.676470	0.000046
C67	C	0.669767	-0.639698	0.000036
C68	C	0.727163	-0.189405	0.000073
C69	C	0.727869	-0.130003	0.000081
C70	C	0.624025	-0.115860	0.000067
C71	C	0.623318	-0.175257	0.000062
C72	C	0.674891	-0.212029	0.000063
O73	O	0.578070	-0.263215	0.000065
O74	O	0.770196	-0.289433	0.000058
C75	C	0.776472	0.069388	0.000069
C76	C	0.839689	0.070154	0.000071
C77	C	0.667577	0.178283	0.000045
C78	C	0.668343	0.241500	0.000036
N79	N	0.672304	0.074155	0.153314
N80	N	0.672349	0.074111	-0.153196
C81	C	0.711273	0.035196	0.561965
C82	C	0.711276	0.035192	0.623884
O83	O	0.744384	0.002076	0.655911
N84	N	0.672334	0.074115	0.654851
C85	C	0.633383	0.113041	0.623895
O86	O	0.600259	0.146147	0.655920
C87	C	0.633377	0.113042	0.561976
C88	C	0.672326	0.074120	0.531013
C89	C	0.750218	-0.003724	0.531001
C90	C	0.750215	-0.003719	0.469085
C91	C	0.711268	0.035206	0.438133
C92	C	0.672323	0.074125	0.469097
C93	C	0.594424	0.151965	0.531021
C94	C	0.594422	0.151962	0.469098
C95	C	0.633370	0.113040	0.438134
C96	C	0.633374	0.113054	0.376229
N97	N	0.672316	0.074131	0.345262
C98	C	0.711263	0.035207	0.376214
C99	C	0.633396	0.113035	0.753928
C100	C	0.633403	0.113037	0.815846
C101	C	0.711296	0.035187	0.815831
C102	C	0.711291	0.035188	0.753913
C103	C	0.672338	0.074112	0.722962
C104	C	0.711255	0.035220	0.246187
C105	C	0.711251	0.035230	0.184266
C106	C	0.633357	0.113078	0.184286
C107	C	0.633363	0.113071	0.246202
C108	C	0.672314	0.074137	0.277151
O109	O	0.600281	0.146152	0.344163
O110	O	0.744376	0.002101	0.344182
H111	H	-0.059867	0.165717	0.000055
C112	C	0.556363	0.190016	0.239994
C113	C	0.590549	0.155851	0.280241
H114	H	0.529925	0.216420	0.261006
H115	H	0.579949	0.210390	0.215850
H116	H	0.536022	0.166406	0.215836
H117	H	0.610893	0.179461	0.304396
H118	H	0.566959	0.135476	0.304394
C119	C	0.724045	-0.042419	0.684328
C120	C	0.754081	-0.007634	0.719900
H121	H	0.750458	-0.068865	0.663336
H122	H	0.700443	-0.062745	0.708503
H123	H	0.700870	-0.019236	0.657013
H124	H	0.777253	-0.030817	0.747218
H125	H	0.777693	0.012694	0.695723
H126	H	0.486602	0.172255	0.000024
H127	H	0.781929	-0.035414	0.443878
C128	C	0.291194	-0.088802	-0.050465
C129	C	0.256607	-0.086031	0.000104
H130	H	0.316150	-0.123795	-0.050457
H131	H	0.267728	-0.086928	-0.084760
H132	H	0.313168	-0.057564	-0.050466
H133	H	0.234630	-0.117266	0.000103
H134	H	0.280076	-0.087910	0.034408
C135	C	0.333785	0.188445	0.050603
C136	C	0.368372	0.185664	0.000035
H137	H	0.308840	0.223445	0.050596
H138	H	0.311805	0.157219	0.050607
H139	H	0.357257	0.186567	0.084902
H140	H	0.344901	0.187538	-0.034265
H141	H	0.390354	0.216899	0.000025
H142	H	0.743008	0.003492	0.841044
H143	H	0.582043	-0.085909	0.000065
C144	C	-0.235021	0.167445	0.000065
C145	C	-0.178110	0.179116	0.000059
H146	H	-0.259980	0.202436	0.000066
H147	H	-0.241842	0.145995	-0.034234
H148	H	-0.241840	0.145996	0.034373
H149	H	-0.171290	0.200562	-0.034252
H150	H	-0.171286	0.200576	0.034361
C151	C	0.788244	-0.041726	0.190481
C152	C	0.754063	-0.007558	0.150232
H153	H	0.814670	-0.068143	0.169469
H154	H	0.808594	-0.018124	0.214629
H155	H	0.764649	-0.062090	0.214633
H156	H	0.777659	0.012809	0.126082
H157	H	0.733713	-0.031163	0.126073
H158	H	0.580748	-0.193677	0.000069
C159	C	0.620549	0.190646	0.114645
C160	C	0.590546	0.155859	0.150253
H161	H	0.594116	0.217052	0.093631
H162	H	0.644127	0.211018	0.138797
H163	H	0.643746	0.167458	0.087350
H164	H	0.567352	0.179047	0.177551
H165	H	0.566958	0.135486	0.126099
C166	C	0.528057	-0.727938	-0.050545
C167	C	0.559312	-0.746586	0.000027
H168	H	0.492579	-0.743290	-0.050552
H169	H	0.521107	-0.687304	-0.050537
H170	H	0.549284	-0.740584	-0.084842
H171	H	0.538085	-0.733936	0.034324
H172	H	0.566260	-0.787228	0.000025
C173	C	0.724072	-0.042370	0.315802
C174	C	0.754072	-0.007574	0.280201
H175	H	0.750507	-0.068789	0.336798
H176	H	0.700887	-0.019194	0.343108
H177	H	0.700483	-0.062732	0.291642
H178	H	0.777657	0.012791	0.304362
H179	H	0.777267	-0.030752	0.252893
C180	C	0.556410	0.189987	0.809626
C181	C	0.590593	0.155825	0.849877
H182	H	0.529976	0.216398	0.830635
H183	H	0.579999	0.210353	0.785477
H184	H	0.536064	0.166376	0.785474
H185	H	0.610942	0.179435	0.874026
H186	H	0.567001	0.135457	0.874036
C187	C	-0.182121	-0.042454	0.050648
C188	C	-0.148398	-0.038877	0.000080
H189	H	-0.197472	-0.077931	0.050650
H190	H	-0.159243	-0.040016	0.084944
H191	H	-0.212524	-0.011846	0.050640
H192	H	-0.117992	-0.069483	0.000090
H193	H	-0.171277	-0.041321	-0.034225
C194	C	0.167907	0.280907	0.000042
C195	C	0.212737	0.235804	0.000042
H196	H	0.183254	0.316387	0.000046
H197	H	0.145039	0.278465	-0.034260
H198	H	0.145031	0.278461	0.034347
H199	H	0.235611	0.238247	-0.034265
H200	H	0.235615	0.238247	0.034348
C201	C	0.523816	-0.284667	0.000015
C202	C	0.512157	-0.341583	0.000011
H203	H	0.488820	-0.259716	0.000006
H204	H	0.545253	-0.277842	0.034322
H205	H	0.545273	-0.277843	-0.034286
H206	H	0.490703	-0.348409	0.034315
H207	H	0.490711	-0.348411	-0.034299
C208	C	0.442885	-0.077445	0.000064
C209	C	0.398061	-0.032337	0.000062
H210	H	0.427533	-0.112922	0.000075
H211	H	0.465755	-0.075012	-0.034241
H212	H	0.465762	-0.074999	0.034366
H213	H	0.375187	-0.034781	-0.034242
H214	H	0.375183	-0.034772	0.034371
H215	H	0.817806	-0.499645	0.000061
H216	H	0.763906	-0.658056	0.000054
H217	H	0.819097	-0.391900	0.000072
H218	H	0.769159	-0.219337	0.000071
C219	C	0.053485	0.237066	-0.050533
C220	C	0.088064	0.234311	0.000038
H221	H	0.028535	0.272063	-0.050541
H222	H	0.076957	0.235174	-0.084827
H223	H	0.031504	0.205834	-0.050520
H224	H	0.110047	0.265541	0.000022
H225	H	0.064589	0.236209	0.034341
C226	C	-0.056127	-0.083416	0.000081
C227	C	-0.023717	-0.037387	0.000080
H228	H	-0.031175	-0.118412	0.000078
H229	H	-0.079588	-0.081530	0.034384
H230	H	-0.079591	-0.081527	-0.034223
H231	H	-0.000256	-0.039273	0.034387
H232	H	-0.000246	-0.039274	-0.034226
H233	H	0.512280	-0.016146	0.000054
C234	C	0.816609	-0.123774	-0.050478
C235	C	0.785338	-0.105136	0.000089
H236	H	0.852085	-0.108420	-0.050475
H237	H	0.823562	-0.164408	-0.050476
H238	H	0.795391	-0.111125	-0.084779
H239	H	0.806555	-0.117789	0.034389
H240	H	0.778388	-0.064493	0.000092
H241	H	0.601677	0.144736	0.728731
C242	C	0.827214	-0.080665	0.524751
C243	C	0.793037	-0.046511	0.565016
H244	H	0.853655	-0.107077	0.545748
H245	H	0.803621	-0.101030	0.500608
H246	H	0.847551	-0.057049	0.500594
H247	H	0.772696	-0.070127	0.589170
H248	H	0.816632	-0.026144	0.589169
H249	H	0.138375	-0.072634	0.000103
H250	H	0.562709	0.183658	0.556223
H251	H	0.562700	0.183658	0.443901
H252	H	0.525555	-0.459814	0.000009
C253	C	0.823346	-0.743902	0.000054
C254	C	0.777306	-0.776298	0.000047
H255	H	0.858336	-0.768863	0.000059
H256	H	0.821471	-0.720440	-0.034246
H257	H	0.821459	-0.720441	0.034362
H258	H	0.779190	-0.799757	-0.034263
H259	H	0.779182	-0.799770	0.034350
C260	C	0.558039	-0.587321	-0.050540
C261	C	0.560802	-0.621907	0.000028
H262	H	0.523040	-0.562375	-0.050543
H263	H	0.589267	-0.565342	-0.050533
H264	H	0.559928	-0.610794	-0.084840
H265	H	0.558917	-0.598434	0.034328
H266	H	0.529566	-0.643888	0.000025
