data_functionalizedCrystal
_audit_creation_method	'MofGen! by Chris Wilmer'
_symmetry_space_group_name_H-M	'P1'
_symmetry_Int_Tables_number	1
_symmetry_cell_setting	triclinic
loop_
_symmetry_equiv_pos_as_xyz
  x,y,z
_cell_length_a	16.625547
_cell_length_b	19.805407
_cell_length_c	19.805399
_cell_angle_alpha	90.017803
_cell_angle_beta	89.985380
_cell_angle_gamma	90.001543
loop_
_atom_site_label
_atom_site_type_symbol
_atom_site_fract_x
_atom_site_fract_y
_atom_site_fract_z
Zn1	Zn	0.321078	1.034855	0.382749
Zn2	Zn	0.455915	1.034819	0.269586
Zn3	Zn	0.321094	0.921669	0.269577
Zn4	Zn	0.455866	0.921683	0.382736
O5	O	0.388488	0.978256	0.326162
O6	O	0.338978	1.129566	0.367746
O7	O	0.438058	1.019789	0.174868
O8	O	0.208259	0.936693	0.284591
O9	O	0.438043	1.129541	0.284606
O10	O	0.208248	1.019849	0.367737
O11	O	0.339005	0.936658	0.174861
O12	O	0.338958	0.826954	0.284579
O13	O	0.437959	0.936715	0.477455
O14	O	0.437974	0.826964	0.367716
O15	O	0.338931	1.019862	0.477464
O16	O	0.568741	1.019802	0.284594
O17	O	0.568705	0.936681	0.367725
C18	C	0.388463	0.802400	0.326145
C19	C	0.388472	0.727168	0.326155
C20	C	0.336980	0.691838	0.369511
C21	C	0.336984	0.621150	0.369514
C22	C	0.388485	0.585793	0.326163
C23	C	0.439979	0.621128	0.282801
C24	C	0.439970	0.691815	0.282795
C25	C	0.440015	0.336054	0.282822
C26	C	0.440021	0.265362	0.282832
C27	C	0.337029	0.265390	0.369540
C28	C	0.337021	0.336077	0.369535
C29	C	0.388511	0.371405	0.326171
C30	C	0.388505	0.448054	0.326168
C31	C	0.388496	0.509146	0.326169
C32	C	0.178179	0.978273	0.326164
C33	C	0.088558	0.978281	0.326165
C34	C	-0.239617	0.978316	0.326201
C35	C	-0.148309	0.978308	0.326193
C36	C	-0.075532	0.978299	0.326183
C37	C	0.015782	0.978290	0.326175
C38	C	0.597979	0.978258	0.326174
C39	C	0.687600	0.978320	0.326202
C40	C	0.388437	0.978294	0.502705
C41	C	0.388416	0.978311	0.577937
C42	C	0.388514	1.154799	0.326179
C43	C	0.388525	1.230031	0.326186
C44	C	0.388481	0.978258	0.150306
C45	C	0.388275	0.978372	0.075074
C46	C	0.336849	1.021606	0.613287
C47	C	0.336826	1.021613	0.683975
C48	C	0.388374	0.978327	0.719312
C49	C	0.439943	0.935027	0.683957
C50	C	0.439961	0.935017	0.613270
C51	C	0.439867	0.935065	0.969031
C52	C	0.439846	0.935080	1.039723
C53	C	0.336732	1.021661	1.039736
C54	C	0.336751	1.021651	0.969049
C55	C	0.388316	0.978349	0.933700
C56	C	0.388340	0.978341	0.857051
C57	C	0.388355	0.978338	0.795960
H58	H	0.481942	0.364811	0.247513
H59	H	0.481944	0.899755	0.584489
O60	O	0.490119	0.586858	0.240723
C61	C	0.627228	0.565201	0.207719
C62	C	0.570531	0.604064	0.255402
H63	H	0.692254	0.579088	0.219580
H64	H	0.613049	0.579087	0.153147
H65	H	0.618350	0.508614	0.215161
H66	H	0.579377	0.660661	0.248020
H67	H	0.584724	0.590122	0.309956
O68	O	0.490030	0.726212	0.240775
C69	C	0.598896	0.806000	0.231520
C70	C	0.542243	0.767100	0.279188
H71	H	0.641136	0.839057	0.262559
H72	H	0.561861	0.839121	0.196186
H73	H	0.635672	0.768577	0.200522
H74	H	0.505456	0.804475	0.310230
H75	H	0.579325	0.733969	0.314477
O76	O	0.287069	0.370526	0.411624
C77	C	0.241373	0.479435	0.450012
C78	C	0.298001	0.440507	0.402324
H79	H	0.250180	0.536021	0.442500
H80	H	0.255619	0.465611	0.504588
H81	H	0.176350	0.465485	0.438219
H82	H	0.363044	0.454436	0.414056
H83	H	0.283686	0.454334	0.347763
H84	H	0.481961	0.236577	0.247528
H85	H	0.294778	1.056901	0.940281
H86	H	0.295101	0.236616	0.404847
O87	O	0.490101	0.893075	0.718313
C88	C	0.598907	0.883969	0.798147
C89	C	0.542163	0.931556	0.759272
H90	H	0.641002	0.915062	0.831282
H91	H	0.635825	0.853033	0.760768
H92	H	0.561856	0.848574	0.831207
H93	H	0.579152	0.966993	0.726211
H94	H	0.505243	0.962445	0.796687
O95	O	0.490022	0.892973	0.934804
C96	C	0.592235	0.807041	0.942257
C97	C	0.535495	0.854696	0.981107
H98	H	0.629002	0.776071	0.979676
H99	H	0.634471	0.838057	0.909175
H100	H	0.555189	0.771680	0.909151
H101	H	0.572476	0.890067	1.014250
H102	H	0.493257	0.823638	1.014146
O103	O	0.286699	1.063677	0.579068
C104	C	0.184449	1.149583	0.586550
C105	C	0.241193	1.101963	0.625384
H106	H	0.147654	1.180560	0.623979
H107	H	0.142238	1.118539	0.553470
H108	H	0.221493	1.184939	0.553442
H109	H	0.204213	1.066597	0.658527
H110	H	0.283406	1.133048	0.658421
O111	O	0.286641	1.063572	0.718339
C112	C	0.177772	1.072692	0.798163
C113	C	0.234553	1.025098	0.759280
H114	H	0.135656	1.041606	0.831284
H115	H	0.140879	1.103613	0.760789
H116	H	0.214792	1.108102	0.831238
H117	H	0.197595	0.989648	0.726205
H118	H	0.271449	0.994225	0.796691
O119	O	0.286658	1.063657	1.074179
C120	C	0.240953	1.102076	1.183081
C121	C	0.297684	1.054471	1.144161
H122	H	0.249860	1.094675	1.239669
H123	H	0.175922	1.090193	1.169229
H124	H	0.255118	1.156642	1.169152
H125	H	0.283592	0.999888	1.158070
H126	H	0.362699	1.066411	1.158017
H127	H	0.295056	0.592387	0.404821
O128	O	0.286878	0.726077	0.411647
C129	C	0.184756	0.718635	0.497683
C130	C	0.241445	0.679779	0.449988
H131	H	0.148021	0.681220	0.528704
H132	H	0.142488	0.751694	0.466696
H133	H	0.221841	0.751763	0.532995
H134	H	0.204426	0.646613	0.414667
H135	H	0.283716	0.646761	0.481017
H136	H	0.481824	0.899828	1.068493
