data_functionalizedCrystal
_audit_creation_method	'MofGen! by Chris Wilmer'
_symmetry_space_group_name_H-M	'P1'
_symmetry_Int_Tables_number	1
_symmetry_cell_setting	triclinic
loop_
_symmetry_equiv_pos_as_xyz
  x,y,z
_cell_length_a	14.853566
_cell_length_b	10.540510
_cell_length_c	13.330367
_cell_angle_alpha	89.997867
_cell_angle_beta	89.995295
_cell_angle_gamma	84.073862
loop_
_atom_site_label
_atom_site_type_symbol
_atom_site_fract_x
_atom_site_fract_y
_atom_site_fract_z
O1	O	1.197277	0.165722	-0.083352
O2	O	0.934925	0.185466	-0.083367
O3	O	1.072100	-0.009181	-0.083359
O4	O	1.060101	0.360369	-0.083360
O5	O	1.072080	-0.009185	0.083488
O6	O	0.934905	0.185462	0.083480
O7	O	1.197256	0.165718	0.083496
Cu8	Cu	1.066079	0.175589	0.098722
Cu9	Cu	1.066103	0.175595	-0.098594
O10	O	1.060081	0.360365	0.083487
C11	C	0.901321	0.184570	0.000054
C12	C	0.801223	0.181890	0.000048
C13	C	0.377987	0.170557	-0.090883
C14	C	0.377986	0.170553	0.091020
C15	C	0.472034	0.173069	0.091017
C16	C	0.519063	0.174332	0.000063
C17	C	0.472043	0.173077	-0.090889
C18	C	0.519060	0.174337	0.181967
C19	C	0.613113	0.176855	0.181967
C20	C	0.660144	0.178108	0.091012
C21	C	0.613119	0.176852	0.000057
C22	C	0.660147	0.178115	-0.090898
C23	C	0.613125	0.176850	-0.181854
C24	C	0.519074	0.174331	-0.181845
C25	C	0.754194	0.180627	0.091002
C26	C	0.754203	0.180635	-0.090904
C27	C	1.071196	-0.056477	0.000063
C28	C	1.068521	-0.197397	0.000056
C29	C	1.163816	-0.415902	0.000444
C30	C	1.166669	-0.269338	0.000063
C31	C	1.018290	-0.241600	-0.095222
C32	C	1.016131	-0.388337	-0.095297
C33	C	1.014064	-0.388128	0.094439
C34	C	1.018720	-0.241839	0.095693
C35	C	1.230860	0.166614	0.000072
C36	C	1.330959	0.169294	0.000072
C37	C	1.060985	0.407661	0.000063
C38	C	1.063661	0.548581	0.000063
N39	N	1.066069	0.175585	0.237504
N40	N	1.066120	0.175589	-0.237375
C41	C	1.005359	0.261750	0.710123
C42	C	1.126871	0.089429	0.710098
C43	C	1.126861	0.089425	0.605080
C44	C	1.066099	0.175586	0.552578
C45	C	1.005348	0.261752	0.605095
C46	C	1.187617	0.003270	0.552556
C47	C	1.187610	0.003263	0.447531
C48	C	1.126843	0.089420	0.395027
C49	C	1.066089	0.175588	0.447550
C50	C	1.005328	0.261749	0.395048
C51	C	0.944569	0.347912	0.447569
C52	C	0.944582	0.347908	0.552591
C53	C	1.126830	0.089424	0.290005
C54	C	1.005318	0.261750	0.290020
H55	H	0.792475	0.181670	0.165057
Cl56	Cl	0.908083	-0.164872	0.104571
H57	H	1.237091	-0.066874	0.595306
Cl58	Cl	1.227329	-0.224694	0.105526
Cl59	Cl	0.318879	0.168930	-0.205222
Cl60	Cl	1.227725	-0.226141	-0.105564
Cl61	Cl	0.672219	0.178441	0.296310
H62	H	0.792488	0.181659	-0.164971
H63	H	1.202045	-0.458280	0.068774
H64	H	0.942722	-0.410524	-0.099618
Cl65	Cl	1.222528	-0.483710	-0.104447
H66	H	0.946035	-0.193416	-0.098770
H67	H	1.050476	-0.428929	-0.166515
H68	H	1.053190	-0.211126	-0.166124
Cl69	Cl	0.868192	0.456233	0.381556
Cl70	Cl	0.928923	0.370068	0.224026
H71	H	1.045246	-0.430656	0.166660
Cl72	Cl	0.672256	0.178446	-0.296192
H73	H	0.339689	0.169534	0.165071
Cl74	Cl	1.075141	-0.198276	0.204523
Cl75	Cl	1.203213	-0.018879	0.223986
H76	H	0.955887	0.331900	0.752888
Cl77	Cl	0.900293	-0.421076	0.095427
Cl78	Cl	0.459934	0.172765	0.296302
H79	H	0.895115	0.418060	0.595360
H80	H	1.237082	-0.066895	0.404775
Cl81	Cl	0.459959	0.172692	-0.296178
Cl82	Cl	1.203259	-0.018876	0.776098
