data_functionalizedCrystal
_audit_creation_method	'MofGen! by Chris Wilmer'
_symmetry_space_group_name_H-M	'P1'
_symmetry_Int_Tables_number	1
_symmetry_cell_setting	triclinic
loop_
_symmetry_equiv_pos_as_xyz
  x,y,z
_cell_length_a	16.793024
_cell_length_b	16.793047
_cell_length_c	33.586455
_cell_angle_alpha	113.253857
_cell_angle_beta	66.219990
_cell_angle_gamma	112.758327
loop_
_atom_site_label
_atom_site_type_symbol
_atom_site_fract_x
_atom_site_fract_y
_atom_site_fract_z
O1	O	0.005016	-0.570216	-0.583573
O2	O	-0.034529	-0.474528	-0.453458
O3	O	0.114723	-0.474535	-0.528082
O4	O	-0.144235	-0.570209	-0.508949
O5	O	0.108729	-0.346329	-0.530229
O6	O	-0.040523	-0.346322	-0.455605
O7	O	-0.000977	-0.442010	-0.585721
Zn8	Zn	-0.021701	-0.373810	-0.521004
Zn9	Zn	-0.013805	-0.542728	-0.518175
O10	O	-0.150229	-0.442003	-0.511097
C11	C	0.005100	-0.790970	-0.238461
C12	C	-0.040584	-0.395375	-0.435637
C13	C	-0.044693	-0.353446	-0.386631
C14	C	-0.039275	-0.401741	-0.363054
C15	C	-0.040566	-0.125547	-0.300731
C16	C	-0.044689	-0.223451	-0.321635
C17	C	-0.039266	-0.270752	-0.297563
C18	C	0.005118	-0.521142	-0.103554
C19	C	-0.046224	-0.263935	-0.366370
C20	C	-0.036476	-0.360146	-0.318399
C21	C	-0.030850	-0.408530	-0.294565
C22	C	-0.028014	-0.367522	-0.249895
C23	C	-0.030804	-0.278128	-0.229058
C24	C	-0.036430	-0.229743	-0.252892
C25	C	-0.027971	-0.237122	-0.184383
C26	C	-0.022345	-0.285507	-0.160550
C27	C	-0.019555	-0.374900	-0.181386
C28	C	-0.022391	-0.415909	-0.226057
C29	C	-0.019601	-0.505302	-0.246894
C30	C	-0.013975	-0.553687	-0.223060
C31	C	-0.011142	-0.512684	-0.178391
C32	C	-0.013932	-0.423291	-0.157554
C33	C	-0.005516	-0.561069	-0.154557
C34	C	-0.002726	-0.650463	-0.175394
C35	C	-0.005562	-0.691471	-0.220064
C36	C	-0.011185	-0.643081	-0.243897
C37	C	-0.022434	-0.546309	-0.291568
C38	C	-0.019644	-0.635702	-0.312405
C39	C	-0.014021	-0.684089	-0.288567
C40	C	-0.022480	-0.676711	-0.357076
C41	C	-0.028106	-0.628326	-0.380910
C42	C	-0.030896	-0.538933	-0.360073
C43	C	-0.028060	-0.497924	-0.315402
C44	C	-0.036522	-0.490548	-0.383907
C45	C	0.815184	-0.521162	-0.508596
C46	C	0.415541	-0.125553	-0.528781
C47	C	0.375032	-0.223457	-0.531493
C48	C	0.423813	-0.270761	-0.529101
C49	C	0.149318	-0.395376	-0.530584
C50	C	0.246774	-0.353455	-0.532364
C51	C	0.294574	-0.401748	-0.529976
C52	C	0.548961	-0.790984	-0.510398
C53	C	0.286104	-0.263940	-0.532530
C54	C	0.383336	-0.360149	-0.528302
C55	C	0.432207	-0.407971	-0.525810
C56	C	0.392316	-0.497392	-0.524993
C57	C	0.303554	-0.538991	-0.526667
C58	C	0.254683	-0.491169	-0.529159
C59	C	0.263666	-0.628421	-0.525851
C60	C	0.312537	-0.676243	-0.523359
C61	C	0.401299	-0.634644	-0.521685
C62	C	0.441190	-0.545223	-0.522502
C63	C	0.529952	-0.503624	-0.520828
C64	C	0.578823	-0.551446	-0.518336
C65	C	0.538939	-0.640864	-0.517520
C66	C	0.450177	-0.682463	-0.519194
C67	C	0.587810	-0.688687	-0.515028
C68	C	0.676572	-0.647088	-0.513354
C69	C	0.716463	-0.557666	-0.514172
C70	C	0.667586	-0.509847	-0.516662
C71	C	0.569840	-0.414195	-0.521644
C72	C	0.658602	-0.372596	-0.519970
C73	C	0.707476	-0.420426	-0.517480
C74	C	0.698493	-0.283174	-0.520788
C75	C	0.649622	-0.235352	-0.523280
C76	C	0.560860	-0.276951	-0.524954
C77	C	0.520969	-0.366372	-0.524136
C78	C	0.511989	-0.229129	-0.527446
C79	C	-0.040530	-0.395407	-0.935652
C80	C	0.005063	-0.791004	-0.738448
C81	C	0.009186	-0.693099	-0.717543
C82	C	0.003779	-0.645796	-0.741620
C83	C	0.005077	-0.521171	-0.603544
C84	C	0.009198	-0.563096	-0.652550
C85	C	0.003786	-0.514804	-0.676131
C86	C	-0.040516	-0.125574	-0.800747
C87	C	0.010719	-0.652613	-0.672809
C88	C	0.000994	-0.556406	-0.720789
C89	C	-0.004621	-0.508585	-0.744908
C90	C	-0.007444	-0.419162	-0.724369
C91	C	-0.004651	-0.377560	-0.679711
C92	C	0.000964	-0.425381	-0.655592
C93	C	-0.007471	-0.288129	-0.659174
C94	C	-0.013086	-0.240308	-0.683293
C95	C	-0.015878	-0.281910	-0.727951
C96	C	-0.013056	-0.371333	-0.748490
C97	C	-0.015848	-0.412935	-0.793148
C98	C	-0.021463	-0.365114	-0.817267
C99	C	-0.024282	-0.275694	-0.796731
C100	C	-0.021490	-0.234092	-0.752073
C101	C	-0.029897	-0.227873	-0.820850
C102	C	-0.032690	-0.269476	-0.865508
C103	C	-0.029867	-0.358899	-0.886047
C104	C	-0.024255	-0.406717	-0.861925
C105	C	-0.013028	-0.502367	-0.813685
C106	C	-0.015821	-0.543969	-0.858343
C107	C	-0.021433	-0.496140	-0.882464
C108	C	-0.012998	-0.633392	-0.878882
C109	C	-0.007383	-0.681213	-0.854763
C110	C	-0.004591	-0.639611	-0.810105
C111	C	-0.007414	-0.550188	-0.789566
C112	C	0.001024	-0.687432	-0.785986
O113	O	-0.000965	0.173549	-0.277957
O114	O	-0.040516	-0.085616	-0.325254
O115	O	0.108737	0.059592	-0.327284
O116	O	-0.150219	0.028341	-0.275927
O117	O	0.114753	0.055151	-0.263265
O118	O	-0.034500	-0.090057	-0.261234
O119	O	0.005051	0.169108	-0.213937
Zn120	Zn	-0.013769	0.038820	-0.227421
Zn121	Zn	-0.021696	0.044672	-0.311770
O122	O	-0.144202	0.023900	-0.211907
O123	O	-0.034458	-0.474571	0.046517
O124	O	0.005076	-0.570190	-0.083599
O125	O	-0.144170	-0.570237	-0.008972
O126	O	0.114787	-0.474523	-0.028110
O127	O	-0.150200	-0.442024	-0.011093
O128	O	-0.000954	-0.441976	-0.085720
O129	O	-0.040488	-0.346357	0.044396
Zn130	Zn	-0.021679	-0.373810	-0.020999
Zn131	Zn	-0.013734	-0.542737	-0.018204
O132	O	0.108757	-0.346309	-0.030231
C133	C	-0.850734	0.086244	-0.289716
C134	C	-0.450996	0.035117	-0.097351
C135	C	-0.410501	0.028587	-0.146852
C136	C	-0.459292	0.034683	-0.169840
C137	C	-0.184802	0.024283	-0.235878
C138	C	-0.282257	0.023363	-0.213592
C139	C	-0.330068	0.029423	-0.237088
C140	C	-0.584541	0.075410	-0.428242
C141	C	-0.321573	0.024104	-0.168302
C142	C	-0.418828	0.035176	-0.215083
C143	C	-0.467711	0.041476	-0.238329
C144	C	-0.427833	0.042022	-0.283580
C145	C	-0.339073	0.036269	-0.305586
C146	C	-0.290190	0.029970	-0.282340
C147	C	-0.299198	0.036812	-0.350842
C148	C	-0.348081	0.043111	-0.374088
C149	C	-0.436841	0.048864	-0.352082
C150	C	-0.476719	0.048318	-0.306830
C151	C	-0.565480	0.054071	-0.284825
C152	C	-0.614362	0.060370	-0.308071
C153	C	-0.574491	0.060913	-0.353321
C154	C	-0.485730	0.055160	-0.375326
C155	C	-0.623374	0.067212	-0.376567
C156	C	-0.712134	0.072965	-0.354561
C157	C	-0.752012	0.072419	-0.309309
C158	C	-0.703123	0.066123	-0.286065
C159	C	-0.605355	0.053528	-0.239569
C160	C	-0.694115	0.059281	-0.217564
C161	C	-0.743001	0.065577	-0.240813
C162	C	-0.733993	0.058735	-0.172312
C163	C	-0.685110	0.052436	-0.149066
C164	C	-0.596350	0.046683	-0.171072
C165	C	-0.556472	0.047229	-0.216323
C166	C	-0.547467	0.040383	-0.147826
O167	O	0.585213	0.169090	-0.504004
O168	O	0.494056	-0.090076	-0.525516
O169	O	0.488081	0.055124	-0.449918
O170	O	0.591189	0.023889	-0.579602
O171	O	0.359978	0.059584	-0.452885
O172	O	0.365953	-0.085616	-0.528483
O173	O	0.457110	0.173550	-0.506971
Zn174	Zn	0.391193	0.044675	-0.518198
Zn175	Zn	0.559974	0.038798	-0.514289
O176	O	0.463086	0.028349	-0.582569
C177	C	0.815354	-0.521094	-0.008709
C178	C	0.415547	-0.125494	-0.028771
C179	C	0.375059	-0.223405	-0.031498
C180	C	0.423859	-0.270708	-0.029121
C181	C	0.149365	-0.395355	-0.030599
C182	C	0.246820	-0.353421	-0.032381
C183	C	0.294640	-0.401713	-0.030008
C184	C	0.549171	-0.790955	-0.010537
C185	C	0.286131	-0.263897	-0.032533
C186	C	0.383402	-0.360104	-0.028335
C187	C	0.432293	-0.407926	-0.025859
C188	C	0.392422	-0.497356	-0.025055
C189	C	0.303660	-0.538965	-0.026727
C190	C	0.254769	-0.491143	-0.029204
C191	C	0.263791	-0.628403	-0.025925
C192	C	0.312683	-0.676224	-0.023448
C193	C	0.401445	-0.634615	-0.021775
C194	C	0.441316	-0.545185	-0.022579
C195	C	0.530078	-0.503576	-0.020906
C196	C	0.578969	-0.551398	-0.018429
C197	C	0.539104	-0.640825	-0.017627
C198	C	0.450342	-0.682434	-0.019300
C199	C	0.587995	-0.688646	-0.015150
C200	C	0.676757	-0.647037	-0.013477
C201	C	0.716628	-0.557607	-0.014281
C202	C	0.667731	-0.509789	-0.016757
C203	C	0.569946	-0.414138	-0.021709
C204	C	0.658708	-0.372530	-0.020036
C205	C	0.707602	-0.420359	-0.017561
C206	C	0.698579	-0.283100	-0.020840
C207	C	0.649688	-0.235278	-0.023317
C208	C	0.560926	-0.276887	-0.024990
C209	C	0.521055	-0.366317	-0.024186
C210	C	0.512035	-0.229066	-0.027467
O211	O	-0.620614	0.089309	0.052274
O212	O	-0.529507	0.043784	-0.078544
O213	O	-0.523494	0.194833	-0.006033
O214	O	-0.626628	-0.061740	-0.020236
O215	O	-0.395386	0.185419	-0.005549
O216	O	-0.401400	0.034370	-0.078059
O217	O	-0.492507	0.079895	0.052758
Zn218	Zn	-0.426614	0.055638	-0.012574
Zn219	Zn	-0.595401	0.068041	-0.013212
O220	O	-0.498521	-0.071154	-0.019752
C221	C	-0.437537	0.048335	0.402491
C222	C	-0.837226	0.099430	0.210091
C223	C	-0.739773	0.100339	0.187806
C224	C	-0.691967	0.094287	0.211308
C225	C	-0.571027	0.088563	0.071568
C226	C	-0.611521	0.095108	0.121070
C227	C	-0.562739	0.089011	0.144061
C228	C	-0.171338	0.037467	0.263967
C229	C	-0.700452	0.099593	0.142516
C230	C	-0.603213	0.088528	0.189308
C231	C	-0.554892	0.082255	0.212848
C232	C	-0.466098	0.076466	0.191141
C233	C	-0.425624	0.076949	0.145894
C234	C	-0.473945	0.083222	0.122354
C235	C	-0.336822	0.071163	0.124188
C236	C	-0.288502	0.064890	0.147728
C237	C	-0.328975	0.064407	0.192975
C238	C	-0.417770	0.070196	0.214682
C239	C	-0.458244	0.069713	0.259929
C240	C	-0.409923	0.063441	0.283469
C241	C	-0.321132	0.057655	0.261765
C242	C	-0.280658	0.058138	0.216518
C243	C	-0.272811	0.051382	0.285305
C244	C	-0.313285	0.050899	0.330552
C245	C	-0.402079	0.056688	0.352259
C246	C	-0.450397	0.062957	0.328716
C247	C	-0.547046	0.075500	0.281635
C248	C	-0.587520	0.075016	0.326882
C249	C	-0.539191	0.068747	0.350423
C250	C	-0.676314	0.080806	0.348589
C251	C	-0.724634	0.087078	0.325049
C252	C	-0.684160	0.087561	0.279802
C253	C	-0.595366	0.081772	0.258095
C254	C	-0.732481	0.093834	0.256262
O255	O	-0.040608	-1.085661	-0.825229
O256	O	-0.001018	-0.826491	-0.777938
O257	O	-0.150287	-0.971682	-0.775894
O258	O	0.108661	-0.940470	-0.827272
O259	O	-0.144253	-0.976123	-0.711878
O260	O	0.005016	-0.830932	-0.713922
O261	O	-0.034575	-1.090102	-0.761213
Zn262	Zn	-0.013821	-0.961222	-0.727403
Zn263	Zn	-0.021771	-0.955371	-0.811747
O264	O	0.114695	-0.944911	-0.763256
C265	C	0.026348	-0.135723	-0.395666
C266	C	-0.049775	-0.210057	-0.393259
H267	H	0.024160	-0.102464	-0.412269
H268	H	0.027009	-0.098361	-0.365887
H269	H	0.079502	-0.155933	-0.410481
H270	H	-0.102929	-0.189846	-0.378441
H271	H	-0.050444	-0.247425	-0.423043
H272	H	-0.020027	-0.251971	-0.124027
H273	H	-0.217624	0.025258	-0.300336
C274	C	-0.084789	-0.425204	-0.079821
C275	C	-0.010862	-0.378015	-0.108238
H276	H	-0.082906	-0.397255	-0.049375
H277	H	-0.139303	-0.424754	-0.081962
H278	H	-0.082285	-0.485605	-0.088851
H279	H	-0.013371	-0.317615	-0.099211
H280	H	0.043666	-0.378455	-0.106095
H281	H	-0.580066	0.039960	-0.110823
C282	C	0.001034	-0.303357	-0.592960
C283	C	-0.004475	-0.242239	-0.609871
H284	H	0.002864	-0.275027	-0.562518
H285	H	-0.050347	-0.354025	-0.593883
H286	H	0.054330	-0.322456	-0.611007
H287	H	-0.057775	-0.223145	-0.591826
H288	H	0.046910	-0.191555	-0.608944
H289	H	-0.315470	0.043557	-0.411085
C290	C	0.084535	-0.794524	-0.809388
C291	C	0.004142	-0.786134	-0.808654
H292	H	0.086458	-0.855458	-0.823382
H293	H	0.134660	-0.757300	-0.826065
H294	H	0.087000	-0.776517	-0.779214
H295	H	0.001680	-0.804135	-0.838829
H296	H	-0.045996	-0.823370	-0.791978
H297	H	-0.030255	-0.164038	-0.167345
C298	C	0.017596	-0.785340	-0.176566
C299	C	0.017717	-0.696516	-0.150433
H300	H	0.030222	-0.813768	-0.161157
H301	H	-0.040024	-0.817183	-0.181214
H302	H	0.062521	-0.785306	-0.205050
H303	H	-0.027213	-0.696550	-0.121951
H304	H	0.075345	-0.664665	-0.145780
C305	C	-0.534291	0.141529	0.427272
C306	C	-0.583869	0.068219	0.400366
H307	H	-0.561876	0.141205	0.458103
H308	H	-0.474258	0.137156	0.417675
H309	H	-0.533130	0.195944	0.424288
H310	H	-0.585024	0.013802	0.403347
H311	H	-0.643918	0.072583	0.409966
H312	H	0.417746	-0.755558	-0.018645
C313	C	-0.239968	-0.059848	-0.163255
C314	C	-0.267056	0.019805	-0.142107
H315	H	-0.206306	-0.062495	-0.147085
H316	H	-0.291825	-0.110095	-0.163479
H317	H	-0.203389	-0.060965	-0.193543
H318	H	-0.303641	0.020919	-0.111821
H319	H	-0.215192	0.070065	-0.141878
H320	H	0.710767	-0.684484	-0.506030
H321	H	-0.797237	0.091807	0.342798
H322	H	-0.011748	-0.757184	-0.305606
H323	H	-0.805083	0.098565	0.274011
C324	C	0.830246	-0.285556	-0.516878
C325	C	0.805449	-0.374509	-0.515630
H326	H	0.890726	-0.257213	-0.515733
H327	H	0.825815	-0.285325	-0.544143
H328	H	0.791021	-0.253801	-0.491598
H329	H	0.844670	-0.406267	-0.540912
H330	H	0.809888	-0.374746	-0.488361
H331	H	0.003251	-0.391359	-0.619081
C332	C	-0.023095	-0.801264	-0.424498
C333	C	-0.019403	-0.775381	-0.380073
H334	H	-0.021187	-0.862175	-0.438696
H335	H	-0.077632	-0.795357	-0.423872
H336	H	0.027040	-0.763822	-0.441055
H337	H	-0.069542	-0.812819	-0.363515
H338	H	0.035140	-0.781295	-0.380697
C339	C	0.318602	-0.829771	-0.059890
C340	C	0.268681	-0.774933	-0.022563
H341	H	0.291440	-0.890709	-0.059340
H342	H	0.319514	-0.824053	-0.087110
H343	H	0.378707	-0.811750	-0.058529
H344	H	0.208577	-0.792950	-0.023925
H345	H	0.267760	-0.780656	0.004664
C346	C	-0.035810	-0.105194	-0.185470
C347	C	-0.039504	-0.131076	-0.229894
H348	H	-0.037698	-0.044277	-0.171275
H349	H	-0.085945	-0.142622	-0.168912
H350	H	0.018728	-0.111117	-0.186098
H351	H	-0.094046	-0.125160	-0.229267
H352	H	0.010636	-0.093638	-0.246457
H353	H	-0.030422	-0.661858	-0.417434
H354	H	-0.038841	-0.524079	-0.420431
C355	C	0.782214	-0.110105	-0.522139
C356	C	0.693630	-0.136635	-0.524155
H357	H	0.809379	-0.049159	-0.522674
H358	H	0.781264	-0.115849	-0.494917
H359	H	0.816080	-0.147307	-0.547463
H360	H	0.659762	-0.099437	-0.498828
H361	H	0.694575	-0.130883	-0.551380
C362	C	0.155163	-0.207327	-0.495863
C363	C	0.231595	-0.210067	-0.533943
H364	H	0.121513	-0.174065	-0.496733
H365	H	0.118585	-0.266906	-0.495933
H366	H	0.173558	-0.179137	-0.469098
H367	H	0.213199	-0.238263	-0.560707
H368	H	0.268179	-0.150477	-0.533877
C369	C	-0.021621	-0.618196	-0.945077
C370	C	-0.016074	-0.679306	-0.928175
H371	H	-0.023518	-0.646543	-0.975508
H372	H	-0.074886	-0.599068	-0.927008
H373	H	0.029788	-0.567540	-0.944184
H374	H	-0.067487	-0.729960	-0.929065
H375	H	0.037196	-0.698448	-0.946249
C376	C	-0.809491	0.086703	0.412670
C377	C	-0.720986	0.080272	0.398530
H378	H	-0.837071	0.086363	0.443500
H379	H	-0.808321	0.141123	0.409697
H380	H	-0.843109	0.036972	0.394408
H381	H	-0.687366	0.130007	0.416791
H382	H	-0.722151	0.025845	0.401508
C383	C	0.673906	-0.713443	0.038790
C384	C	0.722963	-0.697457	-0.003576
H385	H	0.702434	-0.744554	0.044911
H386	H	0.671884	-0.657689	0.061609
H387	H	0.614134	-0.748941	0.038580
H388	H	0.782734	-0.661953	-0.003364
H389	H	0.724995	-0.753220	-0.026401
H390	H	0.245737	-0.223998	-0.033572
C391	C	0.131922	-0.626036	-0.529758
C392	C	0.156715	-0.537084	-0.531007
H393	H	0.071436	-0.654378	-0.530895
H394	H	0.171136	-0.657790	-0.555037
H395	H	0.136365	-0.626263	-0.502491
H396	H	0.152278	-0.536857	-0.558276
H397	H	0.117489	-0.505322	-0.505726
H398	H	0.780178	-0.386331	-0.016193
H399	H	0.191099	-0.662437	-0.527221
C400	C	0.267141	-0.783333	-0.482316
C401	C	0.268507	-0.774941	-0.522458
H402	H	0.239953	-0.844265	-0.481759
H403	H	0.327239	-0.765335	-0.480961
H404	H	0.233289	-0.746099	-0.457005
H405	H	0.302365	-0.812170	-0.547770
H406	H	0.208398	-0.792950	-0.523818
H407	H	-0.740818	0.102779	0.123104
C408	C	-0.176455	0.032284	-0.419940
C409	C	-0.201231	0.030466	-0.375129
H410	H	-0.115971	0.028370	-0.434934
H411	H	-0.215675	-0.017215	-0.435281
H412	H	-0.180901	0.086938	-0.419994
H413	H	-0.196792	-0.024191	-0.375075
H414	H	-0.162000	0.079969	-0.359783
C415	C	0.506025	-0.075599	-0.491013
C416	C	0.555972	-0.130419	-0.528336
H417	H	0.533173	-0.014659	-0.491560
H418	H	0.445929	-0.093638	-0.492379
H419	H	0.505113	-0.081312	-0.463788
H420	H	0.556878	-0.124711	-0.555562
H421	H	0.616084	-0.112373	-0.526975
C422	C	0.062310	-0.090148	-0.647615
C423	C	-0.016195	-0.141606	-0.660625
H424	H	0.060389	-0.029214	-0.633624
H425	H	0.066060	-0.112766	-0.626775
H426	H	0.113723	-0.093556	-0.673627
H427	H	-0.067607	-0.138203	-0.634613
H428	H	-0.019954	-0.118981	-0.681467
C429	C	-0.061865	-0.709227	-0.607717
C430	C	0.014258	-0.706488	-0.645915
H431	H	-0.059684	-0.742492	-0.591115
H432	H	-0.062518	-0.649648	-0.589030
H433	H	-0.115019	-0.737413	-0.617102
H434	H	0.067413	-0.678295	-0.636529
H435	H	0.014919	-0.766078	-0.664605
C436	C	0.013124	-0.136827	-0.889177
C437	C	-0.053114	-0.218996	-0.888264
H438	H	0.000517	-0.105668	-0.903228
H439	H	0.013037	-0.101378	-0.859049
H440	H	0.070740	-0.147712	-0.905881
H441	H	-0.110729	-0.208111	-0.871557
H442	H	-0.053036	-0.254452	-0.918397
H443	H	-0.005085	-0.754331	-0.871556
C444	C	0.695073	-0.128121	-0.064326
C445	C	0.693705	-0.136564	-0.024196
H446	H	0.722248	-0.067178	-0.064864
H447	H	0.728927	-0.165329	-0.089644
H448	H	0.634966	-0.146117	-0.065680
H449	H	0.753812	-0.118574	-0.022842
H450	H	0.659851	-0.099342	0.001129
C451	C	-0.353116	0.049357	-0.439740
C452	C	-0.441709	0.055764	-0.425274
H453	H	-0.325947	0.049726	-0.470575
H454	H	-0.319269	0.099071	-0.421588
H455	H	-0.354053	-0.005081	-0.436873
H456	H	-0.440772	0.110205	-0.428138
H457	H	-0.475565	0.006045	-0.443431
H458	H	0.771156	-0.249077	-0.019476
H459	H	-0.023718	-0.530163	-0.918978
H460	H	-0.023809	-0.160979	-0.735279
C461	C	0.506041	-0.075549	0.008991
C462	C	0.555997	-0.130346	-0.028342
H463	H	0.533175	-0.014602	0.008453
H464	H	0.445942	-0.093594	0.007628
H465	H	0.505140	-0.081277	0.036210
H466	H	0.556893	-0.124623	-0.055562
H467	H	0.616112	-0.112295	-0.026984
H468	H	0.417564	-0.755580	-0.518528
C469	C	0.150273	-0.536698	-0.071244
C470	C	0.156805	-0.537077	-0.031057
H471	H	0.089793	-0.565063	-0.072388
H472	H	0.167078	-0.476350	-0.072075
H473	H	0.189508	-0.568440	-0.096526
H474	H	0.117574	-0.505329	-0.005775
H475	H	0.139989	-0.597436	-0.030222
C476	C	-0.709273	0.177371	-0.387843
C477	C	-0.758320	0.093978	-0.379170
H478	H	-0.737786	0.190340	-0.403037
H479	H	-0.707285	0.222978	-0.359998
H480	H	-0.649489	0.175344	-0.406384
H481	H	-0.818103	0.096007	-0.360627
H482	H	-0.760319	0.048359	-0.407020
H483	H	0.771070	-0.249160	-0.519423
C484	C	-0.805724	-0.021826	-0.095582
C485	C	-0.729118	0.051830	-0.099119
H486	H	-0.832889	-0.022203	-0.064747
H487	H	-0.847707	-0.017223	-0.106316
H488	H	-0.788525	-0.076007	-0.113278
H489	H	-0.746319	0.106011	-0.081425
H490	H	-0.687128	0.047235	-0.088378
C491	C	-0.865708	0.070259	-0.171691
C492	C	-0.840939	0.072029	-0.216509
H493	H	-0.926157	0.074277	-0.156684
H494	H	-0.861352	0.015584	-0.171621
H495	H	-0.826418	0.119726	-0.156370
H496	H	-0.880225	0.022557	-0.231831
H497	H	-0.845302	0.126710	-0.216582
H498	H	-0.440845	0.083623	0.085362
C499	C	0.141055	-0.763284	-0.026536
C500	C	0.165824	-0.674325	-0.027769
H501	H	0.080570	-0.791635	-0.027672
H502	H	0.180276	-0.795021	-0.051820
H503	H	0.145507	-0.763524	0.000727
H504	H	0.161378	-0.674086	-0.055034
H505	H	0.126592	-0.642580	-0.002483
H506	H	-0.806568	0.063430	-0.154318
H507	H	-0.303725	0.071562	0.087197
H508	H	-0.208057	0.053400	0.198770
C509	C	-0.165066	0.060266	0.078901
C510	C	-0.190494	0.058508	0.123770
H511	H	-0.104558	0.056330	0.064113
H512	H	-0.204080	0.010759	0.063440
H513	H	-0.169302	0.114912	0.078723
H514	H	-0.186264	0.003859	0.123949
H515	H	-0.151468	0.108020	0.139236
C516	C	-0.249662	-0.056204	0.329246
C517	C	-0.262739	0.029720	0.352896
H518	H	-0.218453	-0.069274	0.343040
H519	H	-0.306628	-0.099575	0.330014
H520	H	-0.215020	-0.058028	0.298646
H521	H	-0.297387	0.031542	0.383496
H522	H	-0.205763	0.073102	0.352133
