data_functionalizedCrystal
_audit_creation_method	'MofGen! by Chris Wilmer'
_symmetry_space_group_name_H-M	'P1'
_symmetry_Int_Tables_number	1
_symmetry_cell_setting	triclinic
loop_
_symmetry_equiv_pos_as_xyz
  x,y,z
_cell_length_a	19.851628
_cell_length_b	23.196402
_cell_length_c	19.851628
_cell_angle_alpha	60.004489
_cell_angle_beta	90.002357
_cell_angle_gamma	60.008379
loop_
_atom_site_label
_atom_site_type_symbol
_atom_site_fract_x
_atom_site_fract_y
_atom_site_fract_z
Zr1	Zr	0.648976	0.631035	-0.088405
O2	O	0.541437	0.751276	-0.195949
O3	O	0.681933	0.510779	-0.055441
O4	O	0.681948	0.631029	-0.195962
O5	O	0.541421	0.631035	0.055423
O6	O	0.792797	0.631041	-0.195969
O7	O	0.541422	0.631026	-0.055428
O8	O	0.792769	0.415935	0.055399
O9	O	0.541448	0.846141	-0.195945
O10	O	0.778725	0.560255	-0.041382
O11	O	0.696000	0.560254	0.041349
O12	O	0.696018	0.701833	-0.124097
O13	O	0.613292	0.701831	-0.041367
Zr14	Zr	0.825766	0.631066	0.088378
Zr15	Zr	0.825767	0.631052	-0.088415
Zr16	Zr	0.648975	0.631049	0.088388
Zr17	Zr	0.648994	0.782332	-0.088399
Zr18	Zr	0.825748	0.479769	0.088372
O19	O	0.792809	0.751322	0.055414
O20	O	0.792811	0.751302	-0.195963
O21	O	0.541435	0.751296	0.055428
O22	O	0.933305	0.510824	0.195923
O23	O	0.933307	0.510805	-0.055455
O24	O	0.681931	0.510799	0.195937
O25	O	0.933321	0.631066	-0.055449
O26	O	0.792794	0.631071	0.195936
O27	O	0.681945	0.631060	0.195942
O28	O	0.933320	0.631075	0.055401
O29	O	0.681973	0.846155	-0.195953
O30	O	0.792768	0.415946	0.195926
O31	O	0.933294	0.415960	0.195918
O32	O	0.933295	0.415949	0.055391
O33	O	0.541447	0.846152	-0.055418
O34	O	0.681972	0.846166	-0.055426
O35	O	0.778724	0.560268	0.124071
O36	O	0.861450	0.560270	0.041340
O37	O	0.778742	0.701847	-0.041376
O38	O	0.696016	0.701846	0.041355
C39	C	0.737348	0.441801	-0.000022
C40	C	0.737341	0.377571	-0.000025
C41	C	0.798409	0.295153	0.061035
C42	C	0.798414	0.234793	0.061042
C43	C	0.737358	0.256855	-0.000022
C44	C	0.676280	0.339287	-0.061087
C45	C	0.676271	0.399645	-0.061088
C46	C	0.718345	0.201260	-0.074557
C47	C	0.718359	0.140901	-0.074556
C48	C	0.737381	0.070693	-0.000019
C49	C	0.756405	0.060842	0.074523
C50	C	0.756397	0.121200	0.074522
C51	C	0.737361	0.191413	-0.000027
C52	C	0.798458	-0.077178	0.061054
C53	C	0.798458	-0.137537	0.061062
C54	C	0.676327	-0.033040	-0.061074
C55	C	0.676324	0.027316	-0.061075
C56	C	0.737393	0.005243	-0.000012
C57	C	0.516232	0.631028	-0.000001
C58	C	0.441180	0.631021	0.000003
C59	C	0.304910	0.553845	0.045093
C60	C	0.237465	0.592436	0.077790
C61	C	0.303748	0.631042	-0.000007
C62	C	0.237458	0.592446	-0.032676
C63	C	0.170999	0.631056	-0.000017
C64	C	0.237292	0.669633	0.032735
C65	C	0.237296	0.669632	-0.077774
C66	C	0.169839	0.708279	-0.045097
C67	C	0.380223	0.631031	0.000000
C68	C	0.094523	0.631073	-0.000023
C69	C	0.958509	0.631073	-0.000026
C70	C	1.033562	0.631080	-0.000030
C71	C	0.737373	0.631033	-0.221155
C72	C	0.737373	0.631027	-0.296208
C73	C	0.737393	0.820300	-0.000005
C74	C	0.737401	0.884530	-0.000002
C75	C	0.782469	0.553851	-0.477369
C76	C	0.815173	0.592430	-0.454990
C77	C	0.737371	0.631059	-0.566391
C78	C	0.704707	0.592440	-0.455009
C79	C	0.737373	0.631039	-0.433639
C80	C	0.770120	0.669639	-0.545001
C81	C	0.659610	0.669638	-0.545018
C82	C	0.692295	0.708273	-0.522691
C83	C	0.737371	0.631068	-0.642865
C84	C	0.737374	0.631036	-0.357170
C85	C	0.737369	0.631068	0.221128
C86	C	0.737368	0.631074	0.296181
C87	C	0.958487	0.441823	-0.000034
C88	C	1.033532	0.377601	-0.000041
C89	C	0.737347	0.441818	0.221120
C90	C	0.737339	0.377594	0.296170
C91	C	0.958485	0.441840	0.221107
C92	C	1.033530	0.377624	0.296154
C93	C	0.516256	0.820261	-0.221134
C94	C	0.441212	0.884477	-0.296181
C95	C	0.516255	0.820278	0.000007
C96	C	0.441210	0.884500	0.000014
C97	C	0.737395	0.820283	-0.221147
C98	C	0.737403	0.884507	-0.296197
C99	C	1.025592	0.347434	-0.043231
C100	C	1.096098	0.287098	-0.043255
C101	C	1.174543	0.256927	-0.000082
C102	C	1.182481	0.287101	0.043110
C103	C	1.111976	0.347439	0.043128
C104	C	0.780516	0.347442	0.374602
C105	C	0.780505	0.287105	0.445127
C106	C	0.737321	0.256918	0.437218
C107	C	0.694138	0.287076	0.358778
C108	C	0.694145	0.347416	0.288255
C109	C	1.111961	0.347468	0.288212
C110	C	1.182479	0.287139	0.358719
C111	C	1.174565	0.256962	0.437168
C112	C	1.096126	0.287124	0.445108
C113	C	1.025609	0.347456	0.374602
C114	C	0.362781	0.914640	-0.288239
C115	C	0.292262	0.974988	-0.358746
C116	C	0.300176	1.005168	-0.437194
C117	C	0.378616	0.975003	-0.445135
C118	C	0.449133	0.914660	-0.374628
C119	C	0.449149	0.914674	0.043197
C120	C	0.378643	0.975025	0.043201
C121	C	0.300199	1.005199	0.000026
C122	C	0.292261	0.975023	-0.043163
C123	C	0.362766	0.914676	-0.043171
C124	C	0.780595	0.914675	-0.288262
C125	C	0.780619	0.975012	-0.358773
C126	C	0.737445	1.005184	-0.437219
C127	C	0.694252	0.975010	-0.445152
C128	C	0.694233	0.914670	-0.374642
H129	H	0.848181	-0.095152	0.110779
N130	N	0.354230	0.882107	-0.203633
H131	H	0.410798	0.839302	-0.160164
H132	H	0.323035	0.857118	-0.197101
N133	N	0.354188	0.882138	-0.089749
H134	H	0.323026	0.857108	-0.067091
H135	H	0.410776	0.839360	-0.083197
H136	H	0.659057	0.890113	-0.381115
N137	N	0.647560	0.379914	0.203677
H138	H	0.687146	0.369411	0.172475
H139	H	0.604099	0.440476	0.172554
H140	H	0.228382	0.999599	-0.078315
H141	H	0.737467	1.054317	-0.494626
H142	H	1.231992	0.207835	0.494572
N143	N	0.238082	0.712826	0.069428
H144	H	0.289128	0.712533	0.069228
H145	H	0.238207	0.683873	0.127984
H146	H	0.385050	0.999583	-0.509016
H147	H	0.626567	0.357246	-0.110805
H148	H	0.815673	0.262557	0.508989
N149	N	0.864263	0.271345	0.126906
H150	H	0.854992	0.322086	0.117644
H151	H	0.920299	0.237984	0.124206
H152	H	1.089695	0.262545	0.508990
H153	H	0.815682	0.372014	0.381057
N154	N	0.610468	0.116213	-0.126950
H155	H	0.578366	0.143591	-0.100317
H156	H	0.571852	0.120954	-0.165611
H157	H	1.118420	0.372030	0.224341
N158	N	0.224154	1.070276	0.000047
H159	H	0.190212	1.120353	-0.058429
H160	H	0.241158	1.084739	0.033999
H161	H	1.246342	0.262587	0.352239
N162	N	1.120549	0.379972	0.089714
H163	H	1.063986	0.422778	0.083177
H164	H	1.151737	0.404963	0.067030
H165	H	0.362735	0.488571	0.083281
N166	N	0.776923	-0.014877	0.154924
H167	H	0.788975	-0.011958	0.202142
H168	H	0.826943	-0.064495	0.162362
H169	H	0.236789	0.559814	0.143553
N170	N	1.267092	0.254541	0.089686
H171	H	1.261433	0.282802	0.117056
H172	H	1.298236	0.265040	0.050035
H173	H	0.112106	0.773606	-0.083232
N174	N	0.941017	0.379975	0.383174
H175	H	0.946712	0.351697	0.443571
H176	H	0.909879	0.369458	0.355806
N177	N	0.647687	1.007556	-0.529764
H178	H	0.654255	1.050361	-0.573221
H179	H	0.587299	1.032553	-0.536297
H180	H	0.961725	0.371998	-0.078398
N181	N	0.647577	0.254501	0.350257
H182	H	0.620223	0.282752	0.289870
H183	H	0.604168	0.264999	0.377641
N184	N	0.533725	0.882126	-0.383200
H185	H	0.528030	0.910404	-0.443598
H186	H	0.564853	0.821552	-0.355837
H187	H	0.513016	0.890111	0.078361
N188	N	0.207667	1.007514	-0.350171
H189	H	0.213361	0.979229	-0.289774
H190	H	0.176520	0.997013	-0.377551
N191	N	0.737319	0.191836	0.513286
H192	H	0.771230	0.177317	0.564169
H193	H	0.761873	0.141800	0.513247
H194	H	0.238003	0.702226	-0.143523
H195	H	0.385123	0.999585	0.078373
N196	N	0.776899	0.110585	0.154913
H197	H	0.774004	0.159477	0.143598
H198	H	0.834395	0.059723	0.191663
H199	H	0.815753	0.890118	-0.224394
N200	N	0.827211	1.007547	-0.350205
H201	H	0.854549	0.979279	-0.289810
H202	H	0.787575	1.068124	-0.377580
H203	H	0.797821	0.702252	-0.583689
N204	N	0.224115	1.070252	-0.513237
H205	H	0.173231	1.084774	-0.496295
H206	H	0.224146	1.049203	-0.547151
N207	N	0.236568	0.549218	-0.069282
H208	H	0.235815	0.501345	-0.027219
H209	H	0.287509	0.529175	-0.085405
N210	N	0.864281	0.145888	0.126902
H211	H	0.902965	0.141064	0.165585
H212	H	0.896306	0.118580	0.100186
N213	N	0.864326	-0.226436	0.126923
H214	H	0.903010	-0.231256	0.165601
H215	H	0.896350	-0.253746	0.100209
H216	H	0.820652	0.488583	-0.458951
H217	H	0.626613	-0.015076	-0.110793
H218	H	0.702871	0.148927	-0.135252
H219	H	0.626539	0.466756	-0.110809
N220	N	0.697821	0.276987	-0.154957
H221	H	0.685778	0.274066	-0.202176
H222	H	0.746179	0.280939	-0.154009
H223	H	0.880936	0.559802	-0.416197
H224	H	0.654166	0.773595	-0.541266
H225	H	0.593862	0.702237	-0.583810
H226	H	0.677080	0.559790	-0.416217
H227	H	1.231946	0.207796	-0.000102
N228	N	1.087526	0.254563	-0.089843
H229	H	1.027132	0.282830	-0.117180
H230	H	1.114898	0.193986	-0.050203
