data_functionalizedCrystal
_audit_creation_method	'MofGen! by Chris Wilmer'
_symmetry_space_group_name_H-M	'P1'
_symmetry_Int_Tables_number	1
_symmetry_cell_setting	triclinic
loop_
_symmetry_equiv_pos_as_xyz
  x,y,z
_cell_length_a	13.033289
_cell_length_b	13.032905
_cell_length_c	13.032268
_cell_angle_alpha	103.285392
_cell_angle_beta	90.908951
_cell_angle_gamma	74.797067
loop_
_atom_site_label
_atom_site_type_symbol
_atom_site_fract_x
_atom_site_fract_y
_atom_site_fract_z
Zn1	Zn	1.451210	0.335355	0.817668
Zn2	Zn	1.451078	0.490452	0.662592
Zn3	Zn	1.301863	0.329699	0.623263
Zn4	Zn	1.250969	0.535501	0.817588
O5	O	1.363780	0.422752	0.730278
O6	O	1.597441	0.339443	0.813589
O7	O	1.452529	0.447907	0.511149
O8	O	1.343029	0.179411	0.632626
O9	O	1.597344	0.453392	0.699656
O10	O	1.452753	0.183567	0.775454
O11	O	1.342901	0.329803	0.482255
O12	O	1.148863	0.373485	0.632548
O13	O	1.256287	0.530171	0.963824
O14	O	1.111472	0.524687	0.775318
O15	O	1.403403	0.383125	0.963883
O16	O	1.403179	0.647465	0.699578
O17	O	1.256159	0.680563	0.813453
C18	C	1.092247	0.453361	0.699657
C19	C	0.976076	0.466486	0.686586
C20	C	1.324157	0.703176	0.760801
C21	C	1.307297	0.823138	0.773904
C22	C	1.324183	0.462304	1.002828
C23	C	1.307309	0.479159	1.118973
C24	C	1.636373	0.392023	0.761018
C25	C	1.752536	0.378928	0.774118
C26	C	1.804277	0.429470	0.723586
C27	C	1.924338	0.415937	0.737124
C28	C	1.355150	0.984196	0.736994
C29	C	1.372578	0.860209	0.723451
C30	C	1.403552	1.141233	0.699645
C31	C	1.420422	1.021272	0.686547
C32	C	1.403294	0.383268	0.458786
C33	C	1.420414	0.366086	0.342632
C34	C	1.372576	0.413918	1.170783
C35	C	1.355137	0.431337	1.290824
H36	H	1.759692	0.482754	0.670297
C37	C	1.465506	0.321041	1.110659
H38	H	1.465040	0.321523	1.037866
H39	H	1.457897	0.252814	1.118882
H40	H	1.530921	0.331501	1.138131
H41	H	1.238515	0.547904	1.163485
C42	C	1.984556	0.343947	0.809116
H43	H	2.057348	0.344302	0.808778
H44	H	1.979194	0.271204	0.783946
H45	H	1.954283	0.371940	0.879050
C46	C	1.214370	0.904244	0.845803
H47	H	1.214841	0.976937	0.845472
H48	H	1.221984	0.894253	0.915738
H49	H	1.148950	0.891587	0.820540
C50	C	1.465498	0.779101	0.651544
H51	H	1.465015	0.706408	0.651864
H52	H	1.530921	0.791752	0.676788
H53	H	1.457867	0.789094	0.581605
C54	C	1.915866	0.538480	0.614593
H55	H	1.963900	0.568427	0.584641
H56	H	1.860824	0.596073	0.654908
H57	H	1.885742	0.495341	0.559801
C58	C	1.513337	0.940161	0.614645
H59	H	1.512854	0.867468	0.614965
H60	H	1.578760	0.952812	0.639888
H61	H	1.505705	0.950153	0.544706
H62	H	1.797124	0.325634	0.827398
H63	H	1.286368	1.044244	0.790214
C64	C	1.262208	0.524224	1.350946
H65	H	1.262684	0.523753	1.423741
H66	H	1.196791	0.513783	1.323477
H67	H	1.269836	0.592451	1.342723
C68	C	1.513347	0.273202	1.282514
H69	H	1.512882	0.273681	1.209720
H70	H	1.505735	0.204977	1.290739
H71	H	1.578763	0.283660	1.309985
