data_functionalizedCrystal
_audit_creation_method	'MofGen! by Chris Wilmer'
_symmetry_space_group_name_H-M	'P1'
_symmetry_Int_Tables_number	1
_symmetry_cell_setting	triclinic
loop_
_symmetry_equiv_pos_as_xyz
  x,y,z
_cell_length_a	15.995350
_cell_length_b	17.666332
_cell_length_c	15.995350
_cell_angle_alpha	90.004241
_cell_angle_beta	83.492375
_cell_angle_gamma	90.005705
loop_
_atom_site_label
_atom_site_type_symbol
_atom_site_fract_x
_atom_site_fract_y
_atom_site_fract_z
O1	O	1.110991	0.062880	0.107928
O2	O	1.610991	0.562880	0.607928
O3	O	0.867216	0.062896	0.121256
O4	O	1.367216	0.562896	0.621256
O5	O	0.995767	0.062887	-0.007296
O6	O	1.495767	0.562887	0.492704
O7	O	0.982440	0.062889	0.236479
O8	O	1.482440	0.562889	0.736479
O9	O	0.995745	-0.063010	-0.007303
O10	O	1.495745	0.436990	0.492697
O11	O	0.867193	-0.063001	0.121249
O12	O	1.367193	0.436999	0.621249
O13	O	1.110969	-0.063016	0.107921
O14	O	1.610969	0.436984	0.607921
Cu15	Cu	0.989079	-0.074504	0.114584
Cu16	Cu	1.489079	0.425496	0.614584
Cu17	Cu	0.989106	0.074383	0.114592
Cu18	Cu	1.489106	0.574383	0.614592
O19	O	0.982417	-0.063008	0.236473
O20	O	1.482417	0.436992	0.736473
C21	C	0.836010	-0.000051	0.120701
C22	C	1.336010	0.499949	0.620701
C23	C	0.743060	-0.000045	0.119049
C24	C	1.243060	0.499955	0.619049
N25	N	0.989066	-0.179224	0.114578
N26	N	1.489066	0.320776	0.614578
C27	C	0.405312	-0.000061	0.113117
C28	C	0.905312	0.499939	0.613117
C29	C	0.452746	-0.000342	0.021565
C30	C	0.952746	0.499658	0.521565
C31	C	0.549436	-0.000053	0.023217
C32	C	1.049436	0.499947	0.523217
C33	C	0.572873	-0.000053	0.116060
C34	C	1.072873	0.499947	0.616060
C35	C	0.531798	0.071837	0.161220
C36	C	1.031798	0.571837	0.661220
C37	C	0.435163	0.071892	0.158920
C38	C	0.935163	0.571892	0.658920
C39	C	0.434798	-0.071276	0.160804
C40	C	0.934798	0.428724	0.660804
C41	C	0.531743	-0.072221	0.160782
C42	C	1.031743	0.427779	0.660782
C43	C	0.667570	-0.000047	0.117727
C44	C	1.167570	0.499953	0.617727
C45	C	0.310614	-0.000062	0.111452
C46	C	0.810614	0.499938	0.611452
C47	C	1.046007	-0.218837	0.057683
C48	C	1.546007	0.281163	0.557683
C49	C	1.046012	-0.298085	0.057679
C50	C	1.546012	0.201915	0.557679
C51	C	0.989084	-0.337716	0.114584
C52	C	1.489084	0.162284	0.614584
C53	C	0.932132	-0.298093	0.171483
C54	C	1.432132	0.201907	0.671483
C55	C	0.932124	-0.218847	0.171480
C56	C	1.432124	0.281153	0.671480
N57	N	0.978426	-0.462133	0.188673
N58	N	1.478426	0.037867	0.688673
N59	N	0.978439	-0.537414	0.188673
N60	N	1.478439	-0.037414	0.688673
C61	C	0.989106	-0.576480	0.114596
C62	C	1.489106	-0.076480	0.614596
N63	N	0.999776	-0.537421	0.040516
N64	N	1.499776	-0.037421	0.540516
N65	N	0.999766	-0.462134	0.040517
N66	N	1.499766	0.037866	0.540517
C67	C	0.989087	-0.423645	0.114594
C68	C	1.489087	0.076355	0.614594
C69	C	1.046056	-0.702023	0.057692
C70	C	1.546056	-0.202023	0.557692
C71	C	1.046055	-0.781272	0.057687
C72	C	1.546055	-0.281272	0.557687
C73	C	0.932179	-0.781278	0.171499
C74	C	1.432179	-0.281278	0.671499
C75	C	0.932176	-0.702030	0.171497
C76	C	1.432176	-0.202030	0.671497
C77	C	0.989119	-0.662408	0.114594
C78	C	1.489119	-0.162408	0.614594
C79	C	1.142175	-0.000068	0.108476
C80	C	1.642175	0.499932	0.608476
C81	C	1.235125	-0.000069	0.110127
C82	C	1.735125	0.499931	0.610127
C83	C	0.995205	-0.000060	-0.038494
C84	C	1.495205	0.499940	0.461506
C85	C	0.993553	-0.000056	-0.131444
C86	C	1.493553	0.499944	0.368556
N87	N	0.989125	0.179103	0.114592
N88	N	1.489125	0.679103	0.614592
C89	C	0.987621	-0.000058	-0.469192
C90	C	1.487621	0.499942	0.030808
C91	C	0.896069	0.000230	-0.421758
C92	C	1.396069	0.500230	0.078242
C93	C	0.897721	-0.000054	-0.325068
C94	C	1.397721	0.499946	0.174932
C95	C	0.990564	-0.000056	-0.301631
C96	C	1.490564	0.499944	0.198369
C97	C	1.035707	-0.071951	-0.342713
C98	C	1.535707	0.428049	0.157287
C99	C	1.033408	-0.072011	-0.439349
C100	C	1.533408	0.427989	0.060651
C101	C	1.035324	0.071157	-0.439699
C102	C	1.535324	0.571157	0.060301
C103	C	1.035303	0.072107	-0.342753
C104	C	1.535303	0.572107	0.157247
C105	C	0.992231	-0.000058	-0.206934
C106	C	1.492231	0.499942	0.293066
C107	C	0.985956	-0.000061	-0.563890
C108	C	1.485956	0.499939	-0.063890
C109	C	0.982980	-0.000059	0.267671
C110	C	1.482980	0.499941	0.767671
C111	C	0.984631	-0.000059	0.360621
C112	C	1.484631	0.499941	0.860621
H113	H	0.434215	-0.051898	-0.015033
H114	H	0.934215	0.448102	0.484967
O115	O	0.870701	-0.176124	0.232852
O116	O	1.370701	0.323876	0.732852
H117	H	0.830004	-0.140036	0.197576
H118	H	1.330004	0.359964	0.697576
O119	O	1.107438	-0.659284	-0.003712
O120	O	1.607438	-0.159284	0.496288
H121	H	1.097865	-0.597523	0.005842
H122	H	1.597865	-0.097523	0.505842
H123	H	1.092420	-0.813526	0.011352
H124	H	1.592420	-0.313526	0.511352
H125	H	0.885824	-0.813545	0.217829
H126	H	1.385824	-0.313545	0.717829
O127	O	0.870770	-0.659296	0.232871
O128	O	1.370770	-0.159296	0.732871
H129	H	0.831189	-0.700165	0.272447
H130	H	1.331189	-0.200165	0.772447
H131	H	0.545924	0.074510	0.229429
H132	H	1.045924	0.574510	0.729429
O133	O	0.392719	-0.071924	0.250212
O134	O	0.892719	0.428076	0.750212
H135	H	0.441444	-0.070070	0.294364
H136	H	0.941444	0.429930	0.794364
H137	H	0.402915	0.075155	0.226136
H138	H	0.902915	0.575155	0.726136
O139	O	0.586354	0.068332	-0.024105
O140	O	1.086354	0.568332	0.475895
H141	H	0.631871	0.049549	-0.077634
H142	H	1.131871	0.549549	0.422366
O143	O	0.850700	0.068201	-0.287403
O144	O	1.350700	0.568201	0.212597
H145	H	0.826570	0.101709	-0.338244
H146	H	1.326570	0.601709	0.161756
O147	O	0.426804	0.067566	-0.026691
O148	O	0.926804	0.567566	0.473309
H149	H	0.398128	0.048192	-0.082988
H150	H	0.898128	0.548192	0.417012
H151	H	0.859486	0.051787	-0.440287
H152	H	1.359486	0.551787	0.059713
H153	H	0.559050	-0.125405	0.127815
H154	H	1.059050	0.374595	0.627815
H155	H	0.416864	0.125632	0.125993
H156	H	0.916864	0.625632	0.625993
H157	H	0.547108	-0.076563	0.228485
H158	H	1.047108	0.423437	0.728485
H159	H	0.861977	-0.051674	-0.297206
H160	H	1.361977	0.448326	0.202794
O161	O	1.124740	0.071800	-0.481759
O162	O	1.624740	0.571800	0.018241
H163	H	1.135716	0.124243	-0.519625
H164	H	1.635716	0.624243	-0.019625
H165	H	1.092372	-0.186578	0.011348
H166	H	1.592372	0.313422	0.511348
H167	H	1.005401	0.125649	-0.460236
H168	H	1.505401	0.625649	0.039764
H169	H	1.004334	-0.125451	-0.314334
H170	H	1.504334	0.374549	0.185666
O171	O	1.107437	-0.340826	-0.003679
O172	O	1.607437	0.159174	0.496321
H173	H	1.147036	-0.299960	-0.043241
H174	H	1.647036	0.200040	0.456759
H175	H	1.002297	0.125293	-0.315502
H176	H	1.502297	0.625293	0.184498
H177	H	0.577856	-0.051588	-0.012281
H178	H	1.077856	0.448412	0.487719
O179	O	1.126056	-0.075502	-0.323999
O180	O	1.626056	0.424498	0.176001
H181	H	1.156514	-0.126793	-0.353723
H182	H	1.656514	0.373207	0.146277
H183	H	0.859630	-0.051035	-0.441355
H184	H	1.359630	0.448965	0.058645
O185	O	0.870733	-0.340830	0.232866
O186	O	1.370733	0.159170	0.732866
H187	H	0.880312	-0.402591	0.223318
H188	H	1.380312	0.097409	0.723318
O189	O	0.989770	-0.143189	-0.463605
O190	O	1.489770	0.356811	0.036395
H191	H	0.970502	-0.177241	-0.406339
H192	H	1.470502	0.322759	0.093661
O193	O	0.569379	0.142713	0.119679
O194	O	1.069379	0.642713	0.619679
H195	H	0.617299	0.126919	0.066877
H196	H	1.117299	0.626919	0.566877
H197	H	0.414253	-0.125767	0.130871
H198	H	0.914253	0.374233	0.630871
H199	H	1.100623	-0.075275	-0.471597
H200	H	1.600623	0.424725	0.028403
O201	O	1.124990	0.077860	-0.322416
O202	O	1.624990	0.577860	0.177584
H203	H	1.139144	0.029155	-0.282508
H204	H	1.639144	0.529155	0.217492
