data_functionalizedCrystal
_audit_creation_method	'MofGen! by Chris Wilmer'
_symmetry_space_group_name_H-M	'P1'
_symmetry_Int_Tables_number	1
_symmetry_cell_setting	triclinic
loop_
_symmetry_equiv_pos_as_xyz
  x,y,z
_cell_length_a	29.839133
_cell_length_b	21.395362
_cell_length_c	21.395355
_cell_angle_alpha	89.956060
_cell_angle_beta	89.990124
_cell_angle_gamma	90.045483
loop_
_atom_site_label
_atom_site_type_symbol
_atom_site_fract_x
_atom_site_fract_y
_atom_site_fract_z
Zn1	Zn	-0.178715	0.957864	-0.354623
Zn2	Zn	0.321285	1.457864	0.145377
Zn3	Zn	-0.253830	0.957769	-0.249861
Zn4	Zn	0.246170	1.457769	0.250139
Zn5	Zn	-0.178736	0.853079	-0.249824
Zn6	Zn	0.321264	1.353079	0.250176
Zn7	Zn	-0.253839	0.853050	-0.354566
Zn8	Zn	0.246161	1.353050	0.145434
O9	O	-0.216280	0.905441	-0.302219
O10	O	0.283720	1.405441	0.197781
O11	O	-0.188667	1.045530	-0.340766
O12	O	0.311333	1.545530	0.159234
O13	O	-0.243874	0.943854	-0.162179
O14	O	0.256126	1.443854	0.337821
O15	O	-0.115866	0.867031	-0.263735
O16	O	0.384134	1.367031	0.236265
O17	O	-0.243853	1.045459	-0.263798
O18	O	0.256147	1.545459	0.236202
O19	O	-0.115851	0.944016	-0.340730
O20	O	0.384149	1.444016	0.159270
O21	O	-0.188702	0.866939	-0.162151
O22	O	0.311298	1.366939	0.337849
O23	O	-0.188711	0.765398	-0.263679
O24	O	0.311289	1.265398	0.236321
O25	O	-0.243869	0.866982	-0.442252
O26	O	0.256131	1.366982	0.057748
O27	O	-0.243889	0.765376	-0.340633
O28	O	0.256111	1.265376	0.159367
O29	O	-0.188675	0.943988	-0.442294
O30	O	0.311325	1.443988	0.057706
O31	O	-0.316699	0.943826	-0.263742
O32	O	0.183301	1.443826	0.236258
O33	O	-0.316705	0.866890	-0.340669
O34	O	0.183295	1.366890	0.159331
C35	C	-0.216304	0.742653	-0.302146
C36	C	0.283696	1.242653	0.197854
C37	C	-0.216325	0.673012	-0.302130
C38	C	0.283675	1.173012	0.197870
C39	C	-0.245094	0.640304	-0.342140
C40	C	0.254906	1.140304	0.157860
C41	C	-0.245083	0.574869	-0.342167
C42	C	0.254917	1.074869	0.157833
C43	C	-0.216308	0.542143	-0.302175
C44	C	0.283692	1.042143	0.197825
C45	C	-0.187533	0.574859	-0.262162
C46	C	0.312467	1.074859	0.237838
C47	C	-0.187541	0.640293	-0.262140
C48	C	0.312459	1.140293	0.237860
C49	C	-0.212688	0.438419	-0.245769
C50	C	0.287312	0.938419	0.254231
C51	C	-0.212683	0.372986	-0.245790
C52	C	0.287317	0.872986	0.254210
C53	C	-0.216278	0.340323	-0.302244
C54	C	0.283722	0.840323	0.197756
C55	C	-0.219889	0.373101	-0.358678
C56	C	0.280111	0.873101	0.141322
C57	C	-0.219897	0.438535	-0.358656
C58	C	0.280103	0.938535	0.141344
C59	C	-0.216295	0.471191	-0.302195
C60	C	0.283705	0.971191	0.197805
C61	C	-0.245037	0.236663	-0.342287
C62	C	0.254963	0.736663	0.157713
C63	C	-0.245023	0.171226	-0.342316
C64	C	0.254977	0.671226	0.157684
C65	C	-0.187475	0.171218	-0.262305
C66	C	0.312525	0.671218	0.237695
C67	C	-0.187487	0.236653	-0.262282
C68	C	0.312513	0.736653	0.237718
C69	C	-0.216270	0.269372	-0.302272
C70	C	0.283730	0.769372	0.197728
C71	C	-0.333003	0.905361	-0.302217
C72	C	0.166997	1.405361	0.197783
C73	C	-0.382937	0.905384	-0.302237
C74	C	0.117063	1.405384	0.197763
C75	C	-0.739481	0.945550	-0.342356
C76	C	-0.239481	1.445550	0.157644
C77	C	-0.551808	0.945491	-0.342355
C78	C	-0.051808	1.445491	0.157645
O79	O	-0.527507	0.979560	-0.376457
O80	O	-0.027507	1.479560	0.123543
N81	N	-0.528382	0.905434	-0.302236
N82	N	-0.028382	1.405434	0.197764
C83	C	-0.551877	0.865392	-0.262110
C84	C	-0.051877	1.365392	0.237890
O85	O	-0.527646	0.831325	-0.227982
O86	O	-0.027646	1.331325	0.272018
C87	C	-0.739550	0.865455	-0.262109
C88	C	-0.239550	1.365455	0.237891
C89	C	-0.762973	0.905510	-0.302235
C90	C	-0.262973	1.405510	0.197765
C91	C	-0.762905	0.985602	-0.382479
C92	C	-0.262905	1.485602	0.117521
C93	C	-0.809820	0.985614	-0.382481
C94	C	-0.309820	1.485614	0.117519
C95	C	-0.833312	0.945574	-0.342361
C96	C	-0.333312	1.445574	0.157639
C97	C	-0.809889	0.905522	-0.302238
C98	C	-0.309889	1.405522	0.197762
C99	C	-0.763044	0.825417	-0.221981
C100	C	-0.263044	1.325417	0.278019
C101	C	-0.809965	0.825437	-0.221983
C102	C	-0.309965	1.325437	0.278017
C103	C	-0.833388	0.865492	-0.262109
C104	C	-0.333388	1.365492	0.237891
C105	C	-0.880296	0.865494	-0.262119
C106	C	-0.380296	1.365494	0.237881
N107	N	-0.903722	0.905551	-0.302239
N108	N	-0.403722	1.405551	0.197761
C109	C	-0.880230	0.945591	-0.342359
C110	C	-0.380230	1.445591	0.157641
C111	C	-0.453347	0.865361	-0.262115
C112	C	0.046653	1.365361	0.237885
C113	C	-0.406429	0.865344	-0.262116
C114	C	0.093571	1.365344	0.237884
C115	C	-0.406363	0.945444	-0.342361
C116	C	0.093637	1.445444	0.157639
C117	C	-0.453282	0.945457	-0.342362
C118	C	0.046718	1.445457	0.157638
C119	C	-0.476773	0.905418	-0.302235
C120	C	0.023227	1.405418	0.197765
C121	C	-0.978756	0.945612	-0.342361
C122	C	-0.478756	1.445612	0.157639
C123	C	-1.025675	0.945619	-0.342362
C124	C	-0.525675	1.445619	0.157638
C125	C	-1.025737	0.865522	-0.262116
C126	C	-0.525737	1.365522	0.237884
C127	C	-0.978822	0.865513	-0.262117
C128	C	-0.478822	1.365513	0.237883
C129	C	-0.955332	0.905563	-0.302242
C130	C	-0.455332	1.405563	0.197758
O131	O	-0.904626	0.831448	-0.228031
O132	O	-0.404626	1.331448	0.271969
O133	O	-0.904470	0.979663	-0.376473
O134	O	-0.404470	1.479663	0.123527
C135	C	-0.692566	0.945538	-0.342354
C136	C	-0.192566	1.445538	0.157646
C137	C	-0.669142	0.905486	-0.302231
C138	C	-0.169142	1.405486	0.197769
C139	C	-0.692634	0.865446	-0.262110
C140	C	-0.192634	1.365446	0.237890
C141	C	-0.622224	0.905469	-0.302232
C142	C	-0.122224	1.405469	0.197768
C143	C	-0.598733	0.945509	-0.342353
C144	C	-0.098733	1.445509	0.157647
C145	C	-0.622159	0.985566	-0.382473
C146	C	-0.122159	1.485566	0.117527
C147	C	-0.669074	0.985578	-0.382475
C148	C	-0.169074	1.485578	0.117525
C149	C	-0.669208	0.825389	-0.221990
C150	C	-0.169208	1.325389	0.278010
C151	C	-0.622293	0.825380	-0.221992
C152	C	-0.122293	1.325380	0.278008
C153	C	-0.598801	0.865420	-0.262113
C154	C	-0.098801	1.365420	0.237887
C155	C	-0.099102	0.905538	-0.302234
C156	C	0.400898	1.405538	0.197766
C157	C	-0.049167	0.905579	-0.302241
C158	C	0.450833	1.405579	0.197759
C159	C	-0.216271	0.905493	-0.465642
C160	C	0.283729	1.405493	0.034358
C161	C	-0.216267	0.905515	-0.535283
C162	C	0.283733	1.405515	-0.035283
C163	C	-0.216257	1.068864	-0.302292
C164	C	0.283743	1.568864	0.197708
C165	C	-0.216247	1.138505	-0.302323
C166	C	0.283753	1.638505	0.197677
C167	C	-0.187527	0.945610	-0.568019
C168	C	0.312473	1.445610	-0.068019
C169	C	-0.187507	0.945610	-0.633455
C170	C	0.312493	1.445610	-0.133455
C171	C	-0.216237	0.905520	-0.666152
C172	C	0.283763	1.405520	-0.166152
C173	C	-0.244979	0.865417	-0.633408
C174	C	0.255021	1.365417	-0.133408
C175	C	-0.244994	0.865414	-0.567974
C176	C	0.255006	1.365414	-0.067974
C177	C	-0.256689	0.900545	-0.769824
C178	C	0.243311	1.400545	-0.269824
C179	C	-0.256674	0.900552	-0.835257
C180	C	0.243326	1.400552	-0.335257
C181	C	-0.216189	0.905524	-0.867973
C182	C	0.283811	1.405524	-0.367973
C183	C	-0.175717	0.910502	-0.835247
C184	C	0.324283	1.410502	-0.335247
C185	C	-0.175733	0.910499	-0.769813
C186	C	0.324267	1.410499	-0.269813
C187	C	-0.216223	0.905518	-0.737104
C188	C	0.283777	1.405518	-0.237104
C189	C	-0.187425	0.945620	-0.971661
C190	C	0.312575	1.445620	-0.471661
C191	C	-0.187405	0.945615	-1.037098
C192	C	0.312595	1.445615	-0.537098
C193	C	-0.244881	0.865425	-1.037050
C194	C	0.255119	1.365425	-0.537050
C195	C	-0.244897	0.865427	-0.971614
C196	C	0.255103	1.365427	-0.471614
C197	C	-0.216170	0.905528	-0.938924
C198	C	0.283830	1.405528	-0.438924
C199	C	-0.216257	0.905425	-0.139431
C200	C	0.283743	1.405425	0.360569
C201	C	-0.216134	0.905524	-0.069790
C202	C	0.283866	1.405524	0.430210
H203	H	-0.268450	0.144596	-0.374900
H204	H	0.231550	0.644596	0.125100
H205	H	-1.044873	0.832921	-0.229452
H206	H	-0.544873	1.332921	0.270548
C207	C	-0.380668	0.821270	-0.217985
C208	C	0.119332	1.321270	0.282015
N209	N	-0.361267	0.788072	-0.184743
N210	N	0.138733	1.288072	0.315257
C211	C	-0.276579	0.821315	-0.669376
C212	C	0.223421	1.321315	-0.169376
N213	N	-0.300380	0.788094	-0.696467
N214	N	0.199620	1.288094	-0.196467
H215	H	-0.688330	0.792784	-0.189318
H216	H	-0.188330	1.292784	0.310682
C217	C	-0.276735	0.538883	-0.386181
C218	C	0.223265	1.038883	0.113819
N219	N	-0.300575	0.511780	-0.419331
N220	N	0.199425	1.011780	0.080669
H221	H	-0.688141	1.018194	-0.415151
H222	H	-0.188141	1.518194	0.084849
H223	H	-0.959750	0.832890	-0.229449
H224	H	-0.459750	1.332890	0.270551
H225	H	-0.289648	0.896329	-0.743193
H226	H	0.210352	1.396329	-0.243193
H227	H	-0.829089	0.792833	-0.189305
H228	H	-0.329089	1.292833	0.310695
H229	H	-0.268398	0.832761	-0.541321
H230	H	0.231602	1.332761	-0.041321
H231	H	-0.164031	0.978269	-0.945043
H232	H	0.335969	1.478269	-0.445043
C233	C	-0.155821	0.135224	-0.218313
C234	C	0.344179	0.635224	0.281687
N235	N	-0.131977	0.108110	-0.185177
N236	N	0.368023	0.608110	0.314823
C237	C	-0.131214	0.915967	-0.733817
C238	C	0.368786	1.415967	-0.233817
N239	N	-0.097682	0.920081	-0.706706
N240	N	0.402318	1.420081	-0.206706
C241	C	-1.051439	0.989688	-0.386502
C242	C	-0.551439	1.489688	0.113498
N243	N	-1.070842	1.022883	-0.419746
N244	N	-0.570842	1.522883	0.080254
H245	H	-0.603024	1.018166	-0.415143
H246	H	-0.103024	1.518166	0.084857
H247	H	-0.222835	0.465220	-0.404607
H248	H	0.277165	0.965220	0.095393
C249	C	-0.276756	0.676291	-0.386132
C250	C	0.223244	1.176291	0.113868
N251	N	-0.300603	0.703397	-0.419268
N252	N	0.199397	1.203397	0.080732
H253	H	-0.222815	0.346508	-0.404648
H254	H	0.277185	0.846508	0.095352
C255	C	-0.155786	0.989725	-1.073107
C256	C	0.344214	1.489725	-0.573107
N257	N	-0.131970	1.022949	-1.100230
N258	N	0.368030	1.522949	-0.600230
C259	C	-0.276484	0.821326	-1.073013
C260	C	0.223516	1.321326	-0.573013
N261	N	-0.300288	0.788110	-1.100103
N262	N	0.199712	1.288110	-0.600103
C263	C	-0.276694	0.272655	-0.386284
C264	C	0.223306	0.772655	0.113716
N265	N	-0.300538	0.299763	-0.419424
N266	N	0.199462	0.799763	0.080576
H267	H	-0.268303	0.832781	-0.944961
H268	H	0.231697	1.332781	-0.444961
H269	H	-0.603224	0.792757	-0.189317
H270	H	-0.103224	1.292757	0.310683
C271	C	-0.301193	0.895075	-0.871249
C272	C	0.198807	1.395075	-0.371249
N273	N	-0.334727	0.890949	-0.898357
N274	N	0.165273	1.390949	-0.398357
H275	H	-0.959636	0.978226	-0.375034
H276	H	-0.459636	1.478226	0.124966
H277	H	-0.164101	0.978259	-0.660114
H278	H	0.335899	1.478259	-0.160114
C279	C	-0.479181	0.821307	-0.217974
C280	C	0.020819	1.321307	0.282026
N281	N	-0.498637	0.788123	-0.184729
N282	N	0.001363	1.288123	0.315271
C283	C	-0.155842	0.272633	-0.218262
C284	C	0.344158	0.772633	0.281738
N285	N	-0.132005	0.299733	-0.185104
N286	N	0.367995	0.799733	0.314896
C287	C	-0.155894	0.676273	-0.218121
C288	C	0.344106	1.176273	0.281879
N289	N	-0.132057	0.703374	-0.184963
N290	N	0.367943	1.203374	0.315037
H291	H	-0.164134	0.978263	-0.541407
H292	H	0.335866	1.478263	-0.041407
C293	C	-0.208708	0.336936	-0.183712
C294	C	0.291292	0.836936	0.316288
N295	N	-0.205712	0.309785	-0.136953
N296	N	0.294288	0.809785	0.363047
C297	C	-0.208735	0.474341	-0.183660
C298	C	0.291265	0.974341	0.316340
N299	N	-0.205758	0.501397	-0.136882
N300	N	0.294242	1.001397	0.363118
H301	H	-0.164102	0.548210	-0.229601
H302	H	0.335898	1.048210	0.270399
H303	H	-0.142751	0.914551	-0.861883
H304	H	0.357249	1.414551	-0.361883
H305	H	-0.828888	1.018235	-0.415152
H306	H	-0.328888	1.518235	0.084848
H307	H	-0.743782	1.018210	-0.415150
H308	H	-0.243782	1.518210	0.084850
H309	H	-0.472350	0.978070	-0.375040
H310	H	0.027650	1.478070	0.124960
C311	C	-0.380513	0.989492	-0.386490
C312	C	0.119487	1.489492	0.113510
N313	N	-0.361041	1.022671	-0.419723
N314	N	0.138959	1.522671	0.080277
H315	H	-0.743979	0.792801	-0.189306
H316	H	-0.243979	1.292801	0.310694
