data_functionalizedCrystal
_audit_creation_method	'MofGen! by Chris Wilmer'
_symmetry_space_group_name_H-M	'P1'
_symmetry_Int_Tables_number	1
_symmetry_cell_setting	triclinic
loop_
_symmetry_equiv_pos_as_xyz
  x,y,z
_cell_length_a	16.992694
_cell_length_b	19.188930
_cell_length_c	15.455313
_cell_angle_alpha	92.650876
_cell_angle_beta	87.142206
_cell_angle_gamma	86.906503
loop_
_atom_site_label
_atom_site_type_symbol
_atom_site_fract_x
_atom_site_fract_y
_atom_site_fract_z
O1	O	1.043326	0.145160	-0.072038
O2	O	1.543326	0.645160	0.427962
O3	O	0.815047	0.143535	-0.072064
O4	O	1.315047	0.643535	0.427936
O5	O	0.935773	0.043078	-0.072033
O6	O	1.435773	0.543078	0.427967
O7	O	0.922600	0.245617	-0.072069
O8	O	1.422600	0.745617	0.427931
O9	O	0.928870	0.048798	0.072227
O10	O	1.428870	0.548798	0.572227
O11	O	0.808144	0.149255	0.072197
O12	O	1.308144	0.649255	0.572197
O13	O	1.036422	0.150879	0.072222
O14	O	1.536422	0.650879	0.572222
Cu15	Cu	0.921653	0.150589	0.085382
Cu16	Cu	1.421653	0.650589	0.585382
Cu17	Cu	0.929817	0.143825	-0.085223
Cu18	Cu	1.429817	0.643825	0.414777
O19	O	0.915696	0.251336	0.072192
O20	O	1.415696	0.751336	0.572192
C21	C	0.782390	0.144306	0.000064
C22	C	1.282390	0.644306	0.500064
C23	C	0.695368	0.138072	0.000055
C24	C	1.195368	0.638072	0.500055
C25	C	0.644922	0.198212	0.000045
C26	C	1.144922	0.698212	0.500045
C27	C	0.563155	0.192351	0.000058
C28	C	1.063155	0.692351	0.500058
C29	C	0.531836	0.126351	0.000075
C30	C	1.031836	0.626351	0.500075
C31	C	0.582288	0.066208	0.000087
C32	C	1.082288	0.566208	0.500087
C33	C	0.664053	0.072069	0.000080
C34	C	1.164053	0.572069	0.500080
C35	C	0.288320	0.102059	0.000102
C36	C	0.788320	0.602059	0.500102
C37	C	0.206548	0.096203	0.000106
C38	C	0.706548	0.596203	0.500106
C39	C	0.187420	0.222347	0.000079
C40	C	0.687420	0.722347	0.500079
C41	C	0.269188	0.228202	0.000067
C42	C	0.769188	0.728202	0.500067
C43	C	0.319633	0.168059	0.000084
C44	C	0.819633	0.668059	0.500084
N45	N	0.448257	0.120360	0.000085
N46	N	0.948257	0.620360	0.500085
N47	N	0.403210	0.174051	0.000079
N48	N	0.903210	0.674051	0.500079
C49	C	0.931895	0.019902	0.000099
C50	C	1.431895	0.519902	0.500099
C51	C	0.930614	-0.057677	0.000107
C52	C	1.430614	0.442323	0.500107
C53	C	1.001452	-0.098455	0.000119
C54	C	1.501452	0.401545	0.500119
C55	C	1.000250	-0.171350	0.000105
C56	C	1.500250	0.328650	0.500105
C57	C	0.928204	-0.203463	0.000096
C58	C	1.428204	0.296537	0.500096
C59	C	0.857356	-0.162676	0.000079
C60	C	1.357356	0.337324	0.500079
C61	C	0.858561	-0.089783	0.000085
C62	C	1.358561	0.410217	0.500085
N63	N	0.870784	-0.312744	0.049185
N64	N	1.370784	0.187256	0.549185
N65	N	0.869644	-0.381990	0.049181
N66	N	1.369644	0.118010	0.549181
C67	C	0.924569	-0.423085	0.000078
C68	C	1.424569	0.076915	0.500078
N69	N	0.980688	-0.392319	-0.049011
N70	N	1.480688	0.107681	0.450989
N71	N	0.981830	-0.323067	-0.049004
N72	N	1.481830	0.176933	0.450996
C73	C	0.926889	-0.282503	0.000090
C74	C	1.426889	0.217497	0.500090
C75	C	0.994108	-0.542904	0.000074
C76	C	1.494108	-0.042904	0.500074
C77	C	0.992903	-0.615801	0.000054
C78	C	1.492903	-0.115801	0.500054
C79	C	0.850007	-0.607124	0.000038
C80	C	1.350007	-0.107124	0.500038
C81	C	0.851215	-0.534230	0.000048
C82	C	1.351215	-0.034230	0.500048
C83	C	0.923267	-0.502124	0.000070
C84	C	1.423267	-0.002124	0.500070
C85	C	1.069079	0.150109	0.000093
C86	C	1.569079	0.650109	0.500093
C87	C	1.156102	0.156342	0.000096
C88	C	1.656102	0.656342	0.500096
C89	C	0.919575	0.274513	0.000057
C90	C	1.419575	0.774513	0.500057
C91	C	0.920856	0.352092	0.000044
C92	C	1.420856	0.852092	0.500044
N93	N	0.915916	0.155346	0.205376
N94	N	1.415916	0.655346	0.705376
N95	N	0.935560	0.139063	-0.205217
N96	N	1.435560	0.639063	0.294783
C97	C	0.967222	0.112686	0.250783
C98	C	1.467222	0.612686	0.750783
C99	C	0.962891	0.116291	0.341590
C100	C	1.462891	0.616291	0.841590
C101	C	0.907257	0.162559	0.386988
C102	C	1.407257	0.662559	0.886988
C103	C	0.855945	0.205221	0.341574
C104	C	1.355945	0.705221	0.841574
C105	C	0.860273	0.201613	0.250769
C106	C	1.360273	0.701613	0.750769
C107	C	0.888576	0.178116	0.658564
C108	C	1.388576	0.678116	1.158564
C109	C	0.884253	0.181723	0.749376
C110	C	1.384253	0.681723	1.249376
C111	C	0.991199	0.092792	0.749385
C112	C	1.491199	0.592792	1.249385
C113	C	0.995525	0.089190	0.658578
C114	C	1.495525	0.589190	1.158578
C115	C	0.944211	0.131849	0.613173
C116	C	1.444211	0.631849	1.113173
N117	N	0.902830	0.166246	0.479807
N118	N	1.402830	0.666246	0.979807
N119	N	0.948634	0.128158	0.520355
N120	N	1.448634	0.628158	1.020355
H121	H	0.294682	0.281946	0.000043
H122	H	0.794682	0.781946	0.500043
Cl123	Cl	0.824071	0.231746	0.601489
Cl124	Cl	1.324071	0.731746	1.101489
Cl125	Cl	0.759434	-0.647488	0.000022
Cl126	Cl	1.259434	-0.147488	0.500022
Cl127	Cl	0.684286	0.281187	0.000018
Cl128	Cl	1.184286	0.781187	0.500018
H129	H	1.057937	-0.204558	0.000111
H130	H	1.557937	0.295442	0.500111
Cl131	Cl	0.762155	-0.482963	0.000037
Cl132	Cl	1.262155	0.017037	0.500037
Cl133	Cl	1.027391	0.062660	0.398674
Cl134	Cl	1.527391	0.562660	0.898674
H135	H	0.522084	0.241323	0.000049
H136	H	1.022084	0.741323	0.500049
H137	H	1.012529	0.075013	0.213826
H138	H	1.512529	0.575013	0.713826
Cl139	Cl	0.795768	0.255242	0.193687
Cl140	Cl	1.295768	0.755242	0.693687
H141	H	0.146339	0.271312	0.000067
H142	H	0.646339	0.771312	0.500067
H143	H	0.705127	0.023097	0.000088
H144	H	1.205127	0.523097	0.500088
Cl145	Cl	1.065467	0.031025	0.601506
Cl146	Cl	1.565467	0.531025	1.101506
H147	H	0.800874	-0.056581	0.000075
H148	H	1.300874	0.443419	0.500075
Cl149	Cl	0.167177	0.013226	0.000147
Cl150	Cl	0.667177	0.513226	0.500147
Cl151	Cl	0.351726	0.026450	0.000122
Cl152	Cl	0.851726	0.526450	0.500122
Cl153	Cl	1.055702	0.039164	0.806470
Cl154	Cl	1.555702	0.539164	1.306470
H155	H	0.838947	0.219403	0.786335
H156	H	1.338947	0.719403	1.286335
Cl157	Cl	0.786000	0.263385	0.398644
Cl158	Cl	1.286000	0.763385	0.898644
Cl159	Cl	0.766784	-0.203045	0.000061
Cl160	Cl	1.266784	0.296955	0.500061
Cl161	Cl	0.542915	-0.016764	0.000113
Cl162	Cl	1.042915	0.483236	0.500113
Cl163	Cl	1.092033	-0.058099	0.000122
Cl164	Cl	1.592033	0.441901	0.500122
H165	H	1.052778	-0.516763	0.000088
H166	H	1.552778	-0.016763	0.500088
H167	H	1.050591	-0.649002	0.000059
H168	H	1.550591	-0.149002	0.500059
