data_functionalizedCrystal
_audit_creation_method	'MofGen! by Chris Wilmer'
_symmetry_space_group_name_H-M	'P1'
_symmetry_Int_Tables_number	1
_symmetry_cell_setting	triclinic
loop_
_symmetry_equiv_pos_as_xyz
  x,y,z
_cell_length_a	17.038272
_cell_length_b	15.538191
_cell_length_c	14.750522
_cell_angle_alpha	72.474743
_cell_angle_beta	76.695267
_cell_angle_gamma	69.191825
loop_
_atom_site_label
_atom_site_type_symbol
_atom_site_fract_x
_atom_site_fract_y
_atom_site_fract_z
O1	O	-0.990377	-0.219003	0.079698
O2	O	-0.763650	-0.215833	0.079726
O3	O	-0.921148	-0.083825	0.079711
O4	O	-0.832879	-0.351011	0.079713
O5	O	-0.901654	-0.045776	-0.079943
O6	O	-0.744156	-0.177784	-0.079928
O7	O	-0.970882	-0.180953	-0.079956
Zn8	Zn	-0.854424	-0.173327	-0.105290
Zn9	Zn	-0.880109	-0.223459	0.105061
O10	O	-0.813384	-0.312961	-0.079941
C11	C	-0.725594	-0.193921	-0.000097
C12	C	-0.641247	-0.185306	-0.000086
C13	C	-0.920637	-0.030446	-0.000114
C14	C	-0.948146	0.071922	-0.000108
C15	C	-1.008939	-0.202866	-0.000131
C16	C	-1.093287	-0.211483	-0.000135
C17	C	-0.568695	-0.264429	-0.000086
C18	C	-0.489441	-0.256323	-0.000099
C19	C	-0.482740	-0.169094	-0.000106
C20	C	-0.555299	-0.089964	-0.000108
C21	C	-0.634551	-0.098069	-0.000102
C22	C	-0.245098	-0.140458	-0.000131
C23	C	-0.165838	-0.132359	-0.000135
C24	C	-0.099985	-0.298719	-0.000128
C25	C	-0.179242	-0.306818	-0.000116
C26	C	-0.251793	-0.227687	-0.000123
C27	C	-0.401731	-0.160807	-0.000116
C28	C	-0.332800	-0.235973	-0.000120
C29	C	-0.813896	-0.366341	-0.000114
C30	C	-0.786387	-0.468711	-0.000113
N31	N	-0.836900	-0.139114	-0.248849
C32	C	-0.674853	0.381611	-0.000094
C33	C	-0.700720	0.477805	-0.000099
C34	C	-0.846221	0.488592	-0.000117
C35	C	-0.820366	0.392396	-0.000107
C36	C	-0.734681	0.338913	-0.000097
C37	C	-0.880194	0.349697	-0.000110
C38	C	-0.854341	0.253511	-0.000105
C39	C	-0.768659	0.200022	-0.000097
C40	C	-0.708827	0.242726	-0.000092
C41	C	-0.965878	0.403183	-0.000127
C42	C	-1.025706	0.360485	-0.000130
C43	C	-0.999854	0.264295	-0.000118
C44	C	-0.914172	0.210807	-0.000110
C45	C	-1.059685	0.221591	-0.000123
C46	C	-1.033832	0.125405	-0.000118
C47	C	-0.888318	0.114620	-0.000105
C48	C	-0.946511	-0.353240	-0.600647
C49	C	-0.934253	-0.329253	-0.701148
C50	C	-0.873266	-0.210042	-0.701122
C51	C	-0.885514	-0.234023	-0.600619
C52	C	-0.922138	-0.305622	-0.550389
C53	C	-0.861142	-0.186404	-0.550361
C54	C	-0.873393	-0.210380	-0.449866
C55	C	-0.910018	-0.281974	-0.399630
C56	C	-0.934390	-0.329597	-0.449894
C57	C	-0.824524	-0.114801	-0.600593
C58	C	-0.800151	-0.067182	-0.550335
C59	C	-0.812397	-0.091162	-0.449839
C60	C	-0.849021	-0.162757	-0.399602
C61	C	-0.788025	-0.043539	-0.399574
C62	C	-0.800277	-0.067515	-0.299079
C63	C	-0.861273	-0.186732	-0.299107
N64	N	-0.897640	-0.257666	0.248620
H65	H	-0.574141	-0.335460	-0.000080
H66	H	-0.780428	-0.028740	-0.258158
H67	H	-1.082550	0.090640	-0.000121
Br68	Br	-0.619514	0.535753	-0.000106
Br69	Br	-0.910986	-0.283896	-0.230928
H70	H	-0.758214	0.014764	-0.440486
Br71	Br	-0.343550	-0.033064	-0.000144
Br72	Br	-0.984103	-0.426761	-0.381716
H73	H	-0.915986	0.532151	-0.000130
Br74	Br	-0.188330	-0.425207	-0.000096
Br75	Br	-0.750450	0.029986	-0.618512
Br76	Br	-0.390979	-0.363711	-0.000096
H77	H	-0.040907	-0.363142	-0.000123
H78	H	-0.549836	-0.018937	-0.000127
Br79	Br	-0.772031	0.042024	-0.000077
Br80	Br	-1.175965	0.294191	-0.000161
Br81	Br	-0.156745	-0.013965	-0.000164
H82	H	-0.976322	-0.411553	-0.559747
Br83	Br	-0.967344	-0.393879	-0.769354
H84	H	-0.693625	-0.033638	-0.000101
H85	H	-0.396263	-0.089778	-0.000148
H86	H	-0.919994	-0.301492	-0.317800
Br87	Br	-0.592540	0.170130	-0.000063
H88	H	-0.843450	-0.151743	-0.742033
H89	H	-0.747610	0.121703	-0.000098
Br90	Br	-0.558566	0.309015	-0.000066
H91	H	-0.986926	0.481502	-0.000122
Br92	Br	-1.141988	0.433079	-0.000155
Br93	Br	-0.807909	-0.082251	-0.736980
H94	H	-0.338259	-0.306993	-0.000120
