data_functionalizedCrystal
_audit_creation_method	'MofGen! by Chris Wilmer'
_symmetry_space_group_name_H-M	'P1'
_symmetry_Int_Tables_number	1
_symmetry_cell_setting	triclinic
loop_
_symmetry_equiv_pos_as_xyz
  x,y,z
_cell_length_a	31.640172
_cell_length_b	14.628931
_cell_length_c	14.628931
_cell_angle_alpha	60.000000
_cell_angle_beta	90.004023
_cell_angle_gamma	59.998250
loop_
_atom_site_label
_atom_site_type_symbol
_atom_site_fract_x
_atom_site_fract_y
_atom_site_fract_z
Zr1	Zr	0.407183	1.000467	-0.119845
O2	O	0.339693	1.191191	-0.265825
O3	O	0.427872	0.809756	-0.075094
O4	O	0.427872	1.000461	-0.265799
O5	O	0.339693	1.000486	0.075312
O6	O	0.497429	1.000442	-0.265779
O7	O	0.339693	1.000486	-0.075119
O8	O	0.497429	0.659306	0.075358
O9	O	0.339693	1.341623	-0.265825
O10	O	0.488605	0.888179	-0.055993
O11	O	0.436695	0.888194	0.056257
O12	O	0.436696	1.112725	-0.168274
O13	O	0.384786	1.112739	-0.056023
Zr14	Zr	0.518118	1.000438	0.120108
Zr15	Zr	0.518118	1.000437	-0.119813
Zr16	Zr	0.407183	1.000468	0.120076
Zr17	Zr	0.407183	1.240389	-0.119845
Zr18	Zr	0.518118	0.760516	0.120109
O19	O	0.497429	1.191149	0.075357
O20	O	0.497429	1.191148	-0.265780
O21	O	0.339693	1.191192	0.075312
O22	O	0.585607	0.809714	0.266089
O23	O	0.585608	0.809713	-0.075048
O24	O	0.427872	0.809757	0.266043
O25	O	0.585608	1.000419	-0.075049
O26	O	0.497429	1.000444	0.266063
O27	O	0.427872	1.000463	0.266043
O28	O	0.585608	1.000419	0.075383
O29	O	0.427872	1.341599	-0.265800
O30	O	0.497428	0.659306	0.266064
O31	O	0.585607	0.659282	0.266089
O32	O	0.585607	0.659282	0.075384
O33	O	0.339693	1.341623	-0.075120
O34	O	0.427872	1.341599	-0.075094
O35	O	0.488605	0.888180	0.168538
O36	O	0.540515	0.888166	0.056287
O37	O	0.488605	1.112711	-0.055994
O38	O	0.436696	1.112725	0.056257
C39	C	0.462650	0.700347	0.000132
C40	C	0.462650	0.598494	0.000132
C41	C	0.323887	1.000490	0.000092
C42	C	0.276792	1.000503	0.000078
C43	C	0.488401	0.553078	-0.055551
C44	C	0.488401	0.447807	-0.055552
C45	C	0.011882	0.883230	0.058764
C46	C	-0.165103	0.883208	0.058786
O47	O	-0.164944	0.783524	0.108672
N48	N	-0.214329	1.000417	0.000175
C49	C	-0.219308	1.117640	-0.058439
O50	O	-0.265238	1.217333	-0.108282
C51	C	-0.042323	1.117661	-0.058454
C52	C	0.006902	1.000444	0.000151
C53	C	0.061105	0.766022	0.117366
C54	C	0.105349	0.766029	0.117354
C55	C	0.100369	0.883244	0.058742
C56	C	0.051146	1.000451	0.000140
C57	C	-0.047302	1.234883	-0.117062
C58	C	-0.003051	1.234878	-0.117058
C59	C	0.046174	1.117661	-0.058452
C60	C	0.090409	1.117672	-0.058484
N61	N	0.139635	1.000463	0.000127
C62	C	0.144615	0.883248	0.058740
C63	C	-0.312225	1.117621	-0.058429
C64	C	-0.356471	1.117616	-0.058427
C65	C	-0.302263	0.883183	0.058800
C66	C	-0.258017	0.883189	0.058791
C67	C	-0.262999	1.000412	0.000182
C68	C	0.237527	0.883272	0.058711
C69	C	0.281772	0.883289	0.058691
C70	C	0.227560	1.117721	-0.058531
C71	C	0.183319	1.117705	-0.058516
C72	C	0.188306	1.000469	0.000113
O73	O	0.090290	1.217303	-0.108333
O74	O	0.190550	0.783570	0.108595
C75	C	-0.032361	0.883223	0.058775
C76	C	-0.081584	1.000431	0.000173
C77	C	-0.086564	1.117645	-0.058439
C78	C	-0.125830	1.000426	0.000175
C79	C	-0.120851	0.883211	0.058788
C80	C	-0.071625	0.766002	0.117399
C81	C	-0.027381	0.766009	0.117388
C82	C	-0.135790	1.234854	-0.117050
C83	C	-0.180031	1.234838	-0.117036
C84	C	-0.175051	1.117624	-0.058423
C85	C	0.601414	1.000415	0.000172
C86	C	0.648509	1.000402	0.000185
C87	C	0.462651	1.000451	-0.299973
C88	C	0.462651	1.000451	-0.401826
C89	C	0.462651	1.300558	0.000131
C90	C	0.462651	1.402411	0.000131
C91	C	0.436900	1.111841	-0.502934
C92	C	0.436900	1.111843	-0.608205
C93	C	0.462650	1.000453	0.300237
C94	C	0.462650	1.000454	0.402089
C95	C	0.601413	0.700309	0.000172
C96	C	0.648508	0.598443	0.000186
C97	C	0.462650	0.700348	0.300237
C98	C	0.462650	0.598495	0.402090
C99	C	0.601413	0.700310	0.300277
C100	C	0.648508	0.598445	0.402144
C101	C	0.323887	1.300595	-0.300013
C102	C	0.276793	1.402460	-0.401880
C103	C	0.323887	1.300595	0.000091
C104	C	0.276792	1.402461	0.000078
C105	C	0.462651	1.300557	-0.299973
C106	C	0.462651	1.402409	-0.401826
C107	C	0.643528	0.550613	-0.058427
C108	C	0.687775	0.454913	-0.058436
C109	C	0.737001	0.407038	0.000174
C110	C	0.741980	0.454877	0.058789
C111	C	0.697734	0.550583	0.058791
C112	C	0.697725	0.550600	0.391388
C113	C	0.741980	0.454900	0.487093
C114	C	0.737017	0.407040	0.593553
C115	C	0.687794	0.454894	0.604307
C116	C	0.643541	0.550599	0.508603
C117	C	0.227575	1.450316	-0.391124
C118	C	0.183320	1.546046	-0.486829
C119	C	0.188284	1.593912	-0.593289
C120	C	0.237506	1.546051	-0.604043
C121	C	0.281760	1.450330	-0.508339
C122	C	0.281772	1.450301	0.058681
C123	C	0.237526	1.546028	0.058664
C124	C	0.188300	1.593907	0.000050
C125	C	0.183321	1.546063	-0.058560
C126	C	0.227567	1.450344	-0.058549
C127	C	0.488400	0.553079	0.503198
C128	C	0.488401	0.447809	0.608470
H129	H	0.510449	0.592123	-0.103219
H130	H	0.321853	0.787832	0.106418
C131	C	0.682340	0.402219	0.721418
C132	C	0.731022	0.296928	0.826679
C133	C	0.725569	0.244236	0.943793
C134	C	0.671434	0.296837	0.955647
C135	C	0.622748	0.402134	0.850382
C136	C	0.628201	0.454825	0.733268
H137	H	0.771099	0.257984	0.817908
H138	H	0.761609	0.166288	1.021717
H139	H	0.667397	0.257832	1.042341
H140	H	0.582670	0.441077	0.859153
H141	H	0.592160	0.532773	0.655344
C142	C	0.407115	1.240683	-0.725377
C143	C	0.377287	1.369710	-0.737377
C144	C	0.347501	1.498555	-0.854553
C145	C	0.347543	1.498374	-0.959729
C146	C	0.377372	1.369342	-0.947732
C147	C	0.407158	1.240497	-0.830556
H148	H	0.377255	1.369849	-0.659517
H149	H	0.325420	1.594073	-0.863434
H150	H	0.325494	1.593752	-1.046469
H151	H	0.377404	1.369203	-1.025592
H152	H	0.429239	1.144979	-0.821675
H153	H	-0.396549	1.213066	-0.106164
C154	C	0.796132	0.402190	0.123270
C155	C	0.834009	0.415314	0.060454
C156	C	0.888162	0.362612	0.124944
C157	C	0.904438	0.296786	0.252250
C158	C	0.866560	0.283659	0.315072
C159	C	0.812407	0.336361	0.250583
H160	H	0.821961	0.464045	-0.033791
H161	H	0.916202	0.372330	0.078438
H162	H	0.944526	0.257773	0.299989
H163	H	0.878608	0.234928	0.409318
H164	H	0.784367	0.326643	0.297089
H165	H	0.510448	0.408751	0.695206
H166	H	0.510444	0.592136	0.511825
H167	H	0.603450	0.589592	-0.106168
C168	C	-0.141276	1.363801	-0.181540
C169	C	-0.118322	1.396047	-0.276623
C170	C	-0.123812	1.525004	-0.341125
C171	C	-0.152257	1.621716	-0.310545
C172	C	-0.175213	1.589474	-0.215457
C173	C	-0.169722	1.460516	-0.150954
H174	H	-0.097263	1.324452	-0.299265
H175	H	-0.106818	1.548872	-0.411516
H176	H	-0.156321	1.717178	-0.358293
H177	H	-0.196271	1.661068	-0.192815
H178	H	-0.186716	1.436648	-0.080564
H179	H	0.440606	0.441457	0.511442
H180	H	0.510445	0.408756	-0.103231
H181	H	0.683711	0.415974	-0.106167
H182	H	0.152276	1.671847	0.000050
H183	H	0.701777	0.589554	0.304711
H184	H	0.440601	0.441467	0.047801
H185	H	0.440606	0.559439	0.047807
C186	C	0.129170	1.598722	-0.123017
C187	C	0.080506	1.703993	-0.123003
C188	C	0.026354	1.756644	-0.187449
C189	C	0.020866	1.704025	-0.251908
C190	C	0.069532	1.598748	-0.251924
C191	C	0.123684	1.546097	-0.187479
H192	H	0.084567	1.742950	-0.075285
H193	H	-0.009672	1.834577	-0.187436
H194	H	-0.019221	1.743000	-0.299614
H195	H	0.065471	1.559791	-0.299643
H196	H	0.159709	1.468164	-0.187491
H197	H	0.414857	1.207203	-0.511560
C198	C	-0.008533	1.363828	-0.181534
C199	C	0.014423	1.396081	-0.276612
C200	C	0.008941	1.525029	-0.341088
C201	C	-0.019499	1.621723	-0.310487
C202	C	-0.042457	1.589472	-0.215404
C203	C	-0.036974	1.460525	-0.150927
H204	H	0.035477	1.324500	-0.299269
H205	H	0.025936	1.548902	-0.411475
H206	H	-0.023557	1.717178	-0.358216
H207	H	-0.063511	1.661053	-0.192747
H208	H	-0.053970	1.436651	-0.080541
C209	C	0.026763	0.637066	0.181864
C210	C	0.043029	0.540363	0.151274
C211	C	0.097172	0.411412	0.215756
C212	C	0.135049	0.379164	0.310828
C213	C	0.118784	0.475870	0.341423
C214	C	0.064641	0.604821	0.276941
H215	H	0.014990	0.564232	0.080892
H216	H	0.109212	0.339824	0.193108
H217	H	0.175129	0.283707	0.358562
H218	H	0.146824	0.452000	0.411805
H219	H	0.052601	0.676408	0.299589
H220	H	0.223524	1.411350	-0.304447
H221	H	0.484695	0.905084	-0.511177
H222	H	0.321851	1.411326	0.106418
C223	C	0.159493	0.637084	0.181837
C224	C	0.175761	0.540374	0.151255
C225	C	0.229903	0.411420	0.215748
C226	C	0.267777	0.379178	0.310821
C227	C	0.251510	0.475891	0.341408
C228	C	0.197368	0.604844	0.276916
H229	H	0.147723	0.564240	0.080872
H230	H	0.241945	0.339827	0.193105
H231	H	0.307856	0.283718	0.358562
H232	H	0.279547	0.452025	0.411792
H233	H	0.185326	0.676437	0.299559
C234	C	0.703217	0.603177	0.123283
C235	C	0.654555	0.708444	0.123306
C236	C	0.660043	0.761032	0.187801
C237	C	0.714192	0.708354	0.252275
C238	C	0.762858	0.603081	0.252254
C239	C	0.757370	0.550492	0.187759
H240	H	0.614467	0.747445	0.075577
H241	H	0.624017	0.838963	0.187816
H242	H	0.718255	0.747283	0.300018
H243	H	0.802946	0.564080	0.299984
H244	H	0.793396	0.472562	0.187744
H245	H	0.603467	0.589541	0.517376
C246	C	0.796120	0.402266	0.475244
C247	C	0.833996	0.257517	0.524927
C248	C	0.888134	0.204885	0.513075
C249	C	0.904395	0.297003	0.451540
C250	C	0.866518	0.441761	0.401853
C251	C	0.812380	0.494392	0.413705
H252	H	0.821960	0.189318	0.570482
H253	H	0.916173	0.097726	0.549856
H254	H	0.944471	0.258042	0.442766
H255	H	0.878555	0.509959	0.356297
H256	H	0.784341	0.601552	0.376924
C257	C	0.129181	1.598667	-0.474982
C258	C	0.112919	1.664420	-0.413445
C259	C	0.058782	1.717035	-0.401594
C260	C	0.020905	1.703897	-0.451280
C261	C	0.037165	1.638141	-0.512821
C262	C	0.091303	1.585526	-0.524672
H263	H	0.140959	1.674148	-0.376661
H264	H	0.046745	1.765711	-0.356037
H265	H	-0.019171	1.742845	-0.442507
H266	H	0.009126	1.628413	-0.549605
H267	H	0.103340	1.536850	-0.570229
H268	H	0.241595	0.787808	0.106454
H269	H	0.065169	0.670567	0.165101
H270	H	0.484698	0.905088	-0.393199
H271	H	-0.220112	1.330297	-0.164770
H272	H	0.152245	1.671854	-0.671209
H273	H	0.241590	1.584967	0.106395
H274	H	-0.217938	0.787741	0.106523
H275	H	0.440602	0.559448	0.393464
H276	H	-0.298215	0.787742	0.106518
H277	H	-0.087377	1.330334	-0.164783
C278	C	-0.066152	0.637065	0.181876
C279	C	-0.089127	0.604834	0.119051
C280	C	-0.083659	0.475905	0.183530
C281	C	-0.055216	0.379206	0.310833
C282	C	-0.032240	0.411435	0.373665
C283	C	-0.037708	0.540364	0.309186
H284	H	-0.110183	0.676418	0.024808
H285	H	-0.100668	0.452048	0.137017
H286	H	-0.051169	0.283765	0.358564
H287	H	-0.011183	0.339851	0.467908
H288	H	-0.020699	0.564221	0.355699
H289	H	-0.316290	1.213083	-0.106164
H290	H	0.143237	1.213152	-0.106252
H291	H	0.223514	1.213154	-0.106256
H292	H	0.773025	0.329107	0.000164
H293	H	0.223505	1.411395	-0.106268
H294	H	0.773055	0.329110	0.671473
H295	H	0.241542	1.585036	-0.690734
H296	H	0.321834	1.411366	-0.517110
