data_functionalizedCrystal
_audit_creation_method	'MofGen! by Chris Wilmer'
_symmetry_space_group_name_H-M	'P1'
_symmetry_Int_Tables_number	1
_symmetry_cell_setting	triclinic
loop_
_symmetry_equiv_pos_as_xyz
  x,y,z
_cell_length_a	17.640112
_cell_length_b	16.625546
_cell_length_c	16.625548
_cell_angle_alpha	90.011514
_cell_angle_beta	78.812981
_cell_angle_gamma	101.247770
loop_
_atom_site_label
_atom_site_type_symbol
_atom_site_fract_x
_atom_site_fract_y
_atom_site_fract_z
Zn1	Zn	1.208279	-0.071624	0.207119
Zn2	Zn	1.208221	-0.206435	0.072293
Zn3	Zn	1.076133	-0.098898	0.099508
Zn4	Zn	1.076068	-0.233722	0.234293
O5	O	1.142175	-0.152670	0.153303
O6	O	1.318882	-0.066673	0.166473
O7	O	1.190702	-0.192164	-0.036929
O8	O	1.093715	0.017563	0.113800
O9	O	1.318839	-0.165718	0.067417
O10	O	1.190802	0.037601	0.192861
O11	O	1.093658	-0.113157	-0.016935
O12	O	0.965515	-0.139616	0.140149
O13	O	1.093603	-0.212225	0.343521
O14	O	0.965466	-0.238671	0.239175
O15	O	1.190738	-0.093132	0.323557
O16	O	1.190639	-0.322898	0.093766
O17	O	1.093546	-0.342945	0.212786
C18	C	0.936811	-0.195065	0.195564
C19	C	0.848954	-0.213221	0.213663
C20	C	0.560023	-0.014724	0.015817
C21	C	0.477468	-0.031801	0.032834
C22	C	0.477473	-0.135089	0.135772
C23	C	0.560029	-0.118018	0.118766
C24	C	0.601297	-0.057835	0.058787
C25	C	0.601303	-0.161129	0.161737
C26	C	0.683851	-0.144062	0.144729
C27	C	0.725126	-0.083884	0.084751
C28	C	0.683846	-0.040768	0.041780
C29	C	0.560033	-0.221315	0.221711
C30	C	0.601307	-0.264426	0.264682
C31	C	0.683857	-0.247355	0.247678
C32	C	0.725132	-0.187177	0.187700
C33	C	0.725137	-0.290471	0.290650
C34	C	0.807686	-0.273404	0.273642
C35	C	0.807680	-0.170110	0.170693
C36	C	1.142101	-0.362176	0.153285
C37	C	1.142141	-0.451789	0.153289
C38	C	1.142279	-0.779936	0.153345
C39	C	1.142238	-0.688636	0.153332
C40	C	1.142209	-0.615865	0.153317
C41	C	1.142170	-0.524559	0.153305
C42	C	1.348342	-0.110110	0.110878
C43	C	1.436198	-0.091973	0.092799
C44	C	1.142170	-0.152680	0.363613
C45	C	1.142168	-0.152685	0.453235
C46	C	1.142272	0.057659	0.153335
C47	C	1.142313	0.147289	0.153348
C48	C	1.142165	-0.152689	0.526018
C49	C	1.142164	-0.152686	0.617326
C50	C	1.142168	-0.152679	0.690102
C51	C	1.142168	-0.152677	0.781416
C52	C	1.142174	-0.152677	0.943813
C53	C	1.142171	-0.152669	0.854192
H54	H	0.691524	-0.339477	0.339479
H55	H	0.492817	-0.235209	0.235557
H56	H	0.841292	-0.308508	0.308634
H57	H	0.841283	-0.121092	0.121864
H58	H	0.593626	0.034294	-0.033012
F59	F	0.433544	0.014084	-0.012910
F60	F	0.433543	-0.199145	0.199596
F61	F	0.557378	-0.328482	0.328505
H62	H	0.717449	0.008250	-0.007049
F63	F	0.812982	-0.065723	0.066646
