data_functionalizedCrystal
_audit_creation_method	'MofGen! by Chris Wilmer'
_symmetry_space_group_name_H-M	'P1'
_symmetry_Int_Tables_number	1
_symmetry_cell_setting	triclinic
loop_
_symmetry_equiv_pos_as_xyz
  x,y,z
_cell_length_a	18.050589
_cell_length_b	12.645331
_cell_length_c	12.645324
_cell_angle_alpha	90.021980
_cell_angle_beta	89.967769
_cell_angle_gamma	89.972800
loop_
_atom_site_label
_atom_site_type_symbol
_atom_site_fract_x
_atom_site_fract_y
_atom_site_fract_z
Zn1	Zn	-0.295624	-1.620646	-0.599442
Zn2	Zn	-0.419838	-1.620498	-0.422180
Zn3	Zn	-0.295664	-1.443363	-0.422186
Zn4	Zn	-0.419775	-1.443310	-0.599396
O5	O	-0.357725	-1.531954	-0.510801
O6	O	-0.312111	-1.768974	-0.575945
O7	O	-0.403409	-1.596960	-0.273834
O8	O	-0.191734	-1.466965	-0.445722
O9	O	-0.403370	-1.768865	-0.445711
O10	O	-0.191705	-1.597214	-0.575951
O11	O	-0.312179	-1.466820	-0.273838
O12	O	-0.312118	-1.295009	-0.445677
O13	O	-0.403263	-1.466874	-0.747749
O14	O	-0.403301	-1.294970	-0.575872
O15	O	-0.312050	-1.597163	-0.747783
O16	O	-0.523754	-1.596909	-0.445666
O17	O	-0.523708	-1.466730	-0.575866
C18	C	-0.357707	-1.256525	-0.510770
C19	C	-0.357718	-1.138695	-0.510783
C20	C	-0.550677	-1.531826	-0.510784
C21	C	-0.633223	-1.531869	-0.510811
C22	C	-0.357645	-1.532029	-0.787307
C23	C	-0.357610	-1.532061	-0.905137
C24	C	-0.832675	-1.461147	-0.581589
C25	C	-0.882126	-1.435301	-0.484854
C26	C	-0.784353	-1.531973	-0.510825
C27	C	-0.881985	-1.557870	-0.607571
C28	C	-0.930338	-1.532071	-0.510847
C29	C	-0.832716	-1.506077	-0.414039
C30	C	-0.832571	-1.628690	-0.536821
C31	C	-0.881999	-1.602882	-0.440020
C32	C	-0.700255	-1.531913	-0.510814
C33	C	-1.014435	-1.532131	-0.510847
C34	C	-0.164019	-1.532112	-0.510842
C35	C	-0.081474	-1.532179	-0.510859
C36	C	-0.357743	-1.808460	-0.510832
C37	C	-0.357751	-1.926290	-0.510846
C38	C	-0.300090	-0.971120	-0.429329
C39	C	-0.300239	-1.093679	-0.428970
C40	C	-0.435953	-1.094154	-0.480267
C41	C	-0.435639	-0.971556	-0.479711
C42	C	-0.337854	-0.971549	-0.623067
C43	C	-0.336106	-1.094155	-0.622443
C44	C	-0.300216	-1.614044	-0.950040
C45	C	-0.300366	-1.614395	-1.072600
C46	C	-0.435911	-1.561996	-1.073017
C47	C	-0.435598	-1.562560	-0.950419
C48	C	-0.337348	-1.420001	-0.950307
C49	C	-0.335602	-1.420633	-1.072915
C50	C	-0.357752	-1.531941	-0.235371
C51	C	-0.357577	-1.532115	-0.117542
H52	H	-0.811017	-1.401164	-0.641347
Br53	Br	-0.509476	-1.142730	-0.576128
H54	H	-0.903627	-1.579735	-0.689379
H55	H	-0.453115	-1.124806	-0.399108
Br56	Br	-0.463759	-0.923799	-0.342974
H57	H	-0.241901	-0.941671	-0.448251
H58	H	-0.242292	-1.595726	-1.102707
Br59	Br	-0.796800	-1.469481	-0.277646
H60	H	-0.313391	-1.122955	-0.345809
H61	H	-0.242225	-1.123795	-0.448097
Br62	Br	-0.917869	-1.702787	-0.340186
Br63	Br	-0.244425	-0.920082	-0.669323
Br64	Br	-0.407005	-1.318198	-0.901881
H65	H	-0.278534	-1.123274	-0.645454
H66	H	-0.375040	-1.124802	-0.686428
H67	H	-0.453346	-1.642999	-1.103757
H68	H	-0.379852	-0.942558	-0.683804
Br69	Br	-0.203122	-1.583293	-0.900958
Br70	Br	-0.322338	-1.751662	-0.898734
H71	H	-0.313790	-1.697446	-1.101942
H72	H	-0.903908	-1.353557	-0.462887
Br73	Br	-0.509671	-0.922119	-0.574346
H74	H	-0.452737	-1.644463	-0.921834
Br75	Br	-0.509324	-1.467332	-0.900896
Br76	Br	-0.509122	-1.465549	-1.121524
Br77	Br	-0.243774	-1.374501	-0.898801
Br78	Br	-0.239518	-1.383054	-1.121423
H79	H	-0.810790	-1.710416	-0.558835
H80	H	-0.313096	-0.940269	-0.346658
Br81	Br	-0.400143	-1.313453	-1.123897
