data_functionalizedCrystal
_audit_creation_method	'MofGen! by Chris Wilmer'
_symmetry_space_group_name_H-M	'P1'
_symmetry_Int_Tables_number	1
_symmetry_cell_setting	triclinic
loop_
_symmetry_equiv_pos_as_xyz
  x,y,z
_cell_length_a	17.699083
_cell_length_b	17.699104
_cell_length_c	16.176319
_cell_angle_alpha	90.001899
_cell_angle_beta	90.002310
_cell_angle_gamma	83.287267
loop_
_atom_site_label
_atom_site_type_symbol
_atom_site_fract_x
_atom_site_fract_y
_atom_site_fract_z
O1	O	-1.004084	-0.095698	0.068639
O2	O	-0.783706	-0.108150	0.068667
O3	O	-0.900113	0.008264	0.068637
O4	O	-0.887677	-0.212112	0.068669
O5	O	-0.900102	0.008243	-0.068856
O6	O	-0.783695	-0.108171	-0.068826
O7	O	-1.004072	-0.095719	-0.068854
Cu8	Cu	-0.893883	-0.101947	-0.081394
Cu9	Cu	-0.893896	-0.101922	0.081207
O10	O	-0.887666	-0.212133	-0.068824
C11	C	-0.755503	-0.107715	-0.000076
C12	C	-0.671485	-0.106376	-0.000066
C13	C	-0.899659	0.036450	-0.000111
C14	C	-0.898314	0.120467	-0.000117
C15	C	-0.959058	0.645338	-0.000137
C16	C	-0.960317	0.566395	-0.000139
C17	C	-0.891982	0.517777	-0.000129
C18	C	-0.822383	0.548107	-0.000126
C19	C	-0.821125	0.627049	-0.000130
C20	C	-0.827456	0.229741	-0.000112
C21	C	-0.828720	0.150794	-0.000105
C22	C	-0.966648	0.169086	-0.000121
C23	C	-0.965390	0.248029	-0.000125
C24	C	-0.895792	0.278352	-0.000126
C25	C	-0.894427	0.363951	-0.000125
C26	C	-0.893345	0.432179	-0.000124
C27	C	-1.032275	-0.096155	-0.000109
C28	C	-1.116293	-0.097493	-0.000114
C29	C	-0.622869	-0.174709	-0.000057
C30	C	-0.543926	-0.173447	-0.000067
C31	C	-0.513600	-0.103851	-0.000082
C32	C	-0.562222	-0.035513	-0.000094
C33	C	-0.641164	-0.036776	-0.000089
C34	C	-0.243859	-0.030418	-0.000115
C35	C	-0.164911	-0.029160	-0.000117
C36	C	-0.146621	-0.167088	-0.000094
C37	C	-0.225563	-0.168351	-0.000089
C38	C	-0.274178	-0.100014	-0.000105
C39	C	-0.359777	-0.101383	-0.000095
C40	C	-0.428002	-0.102480	-0.000086
C41	C	-0.888120	0.759681	-0.000091
C42	C	-0.889464	0.675663	-0.000131
N43	N	-0.893879	-0.101964	-0.195760
C44	C	-0.848085	-0.056059	-0.761150
C45	C	-0.848083	-0.056065	-0.674603
C46	C	-0.893899	-0.101916	-0.631335
C47	C	-0.939725	-0.147758	-0.674618
C48	C	-0.939730	-0.147747	-0.761164
C49	C	-0.939707	-0.147801	-0.325590
C50	C	-0.939696	-0.147809	-0.239039
C51	C	-0.848059	-0.056118	-0.239029
C52	C	-0.848064	-0.056107	-0.325575
C53	C	-0.893893	-0.101946	-0.368851
C54	C	-0.893896	-0.101938	-0.462695
C55	C	-0.893893	-0.101928	-0.537492
N56	N	-0.893906	-0.101899	0.195572
H57	H	-1.014705	0.684918	-0.000138
C58	C	-0.797651	-0.005688	-0.191428
H59	H	-0.770360	0.021613	-0.229593
H60	H	-0.828722	0.029183	-0.157660
H61	H	-0.762760	-0.036757	-0.157673
C62	C	-0.093142	-0.242259	-0.000087
H63	H	-0.041783	-0.231544	-0.000101
H64	H	-0.102317	-0.270795	0.047866
H65	H	-0.102328	-0.270810	-0.048034
H66	H	-1.016987	0.541708	-0.000145
H67	H	-0.977023	-0.185126	-0.360815
H68	H	-0.140223	0.027517	-0.000130
H69	H	-0.977043	-0.185075	-0.796399
H70	H	-0.283432	0.025227	-0.000129
H71	H	-0.680747	0.018868	-0.000096
C72	C	-1.040558	0.301504	-0.000140
H73	H	-1.082187	0.272136	-0.000152
H74	H	-1.042941	0.332686	0.047803
H75	H	-1.042926	0.332672	-0.048097
H76	H	-1.023319	0.144388	-0.000110
H77	H	-0.810772	-0.018725	-0.796373
H78	H	-0.977033	-0.185087	-0.639382
H79	H	-0.766743	0.508516	-0.000123
C80	C	-0.528865	0.041041	-0.000108
H81	H	-0.474887	0.032008	-0.000101
H82	H	-0.545563	0.069165	-0.048058
H83	H	-0.545560	0.069176	0.047842
H84	H	-0.770785	0.254420	-0.000102
C85	C	-0.753548	0.097315	-0.000102
H86	H	-0.711917	0.126680	-0.000112
H87	H	-0.751172	0.066143	0.047846
H88	H	-0.751177	0.066137	-0.048054
C89	C	-0.797676	-0.005644	-0.627002
H90	H	-0.770382	0.021656	-0.665166
H91	H	-0.828746	0.029227	-0.593234
H92	H	-0.762786	-0.036715	-0.593247
C93	C	-0.744572	0.660407	-0.000115
H94	H	-0.704054	0.620147	-0.000100
H95	H	-0.741208	0.690819	-0.048062
H96	H	-0.741221	0.690824	0.047838
H97	H	-0.647554	-0.231382	-0.000044
H98	H	-0.977008	-0.185149	-0.203812
C99	C	-0.490452	-0.248613	-0.000054
H100	H	-0.519819	-0.290242	-0.000035
H101	H	-0.459280	-0.250999	-0.048003
H102	H	-0.459273	-0.250977	0.047896
C103	C	-0.258917	-0.244906	-0.000076
H104	H	-0.218656	-0.285423	-0.000080
H105	H	-0.289331	-0.248261	0.047871
H106	H	-0.289333	-0.248269	-0.048029
C107	C	-0.797669	-0.005669	-0.373166
H108	H	-0.770384	0.021637	-0.334995
H109	H	-0.762784	-0.036722	-0.406935
H110	H	-0.828756	0.029209	-0.406918
