data_functionalizedCrystal
_audit_creation_method	'MofGen! by Chris Wilmer'
_symmetry_space_group_name_H-M	'P1'
_symmetry_Int_Tables_number	1
_symmetry_cell_setting	triclinic
loop_
_symmetry_equiv_pos_as_xyz
  x,y,z
_cell_length_a	14.446369
_cell_length_b	21.606444
_cell_length_c	21.606444
_cell_angle_alpha	59.990220
_cell_angle_beta	89.999503
_cell_angle_gamma	60.001538
loop_
_atom_site_label
_atom_site_type_symbol
_atom_site_fract_x
_atom_site_fract_y
_atom_site_fract_z
Zr1	Zr	0.891777	0.677479	-0.081313
O2	O	0.743970	0.806617	-0.180165
O3	O	0.937087	0.548346	-0.050995
O4	O	0.937090	0.677480	-0.180138
O5	O	0.743967	0.677481	0.050832
O6	O	1.089427	0.677474	-0.180134
O7	O	0.743967	0.677484	-0.051022
O8	O	1.089423	0.446478	0.050879
O9	O	0.743971	0.908477	-0.180182
O10	O	1.070100	0.601454	-0.038080
O11	O	0.956412	0.601457	0.037929
O12	O	0.956414	0.753495	-0.114120
O13	O	0.842726	0.753497	-0.038111
Zr14	Zr	1.134736	0.677466	0.081137
Zr15	Zr	1.134737	0.677470	-0.081307
Zr16	Zr	0.891776	0.677475	0.081131
Zr17	Zr	0.891778	0.839934	-0.081341
Zr18	Zr	1.134734	0.515011	0.081164
O19	O	1.089426	0.806599	0.050818
O20	O	1.089428	0.806604	-0.180156
O21	O	0.743968	0.806611	0.050810
O22	O	1.282543	0.548328	0.179988
O23	O	1.282545	0.548334	-0.050987
O24	O	0.937085	0.548341	0.179979
O25	O	1.282546	0.677464	-0.051008
O26	O	1.089423	0.677466	0.179961
O27	O	0.937086	0.677471	0.179958
O28	O	1.282545	0.677462	0.050845
O29	O	0.937091	0.908470	-0.180177
O30	O	1.089421	0.446475	0.180000
O31	O	1.282542	0.446468	0.180005
O32	O	1.282543	0.446471	0.050883
O33	O	0.743969	0.908474	-0.051060
O34	O	0.937090	0.908467	-0.051056
O35	O	1.070099	0.601451	0.113943
O36	O	1.183787	0.601448	0.037934
O37	O	1.070101	0.753489	-0.038106
O38	O	0.956413	0.753491	0.037903
C39	C	1.013255	0.474266	-0.000054
C40	C	1.013254	0.405299	-0.000043
C41	C	0.929328	0.429039	-0.056173
C42	C	0.929331	0.364249	-0.056188
C43	C	1.013256	0.275722	-0.000071
C44	C	1.097191	0.251983	0.056062
C45	C	1.097192	0.316771	0.056074
C46	C	1.097191	-0.009304	0.056015
C47	C	1.097181	-0.074093	0.056000
C48	C	0.929329	0.038174	-0.056248
C49	C	0.929330	0.102963	-0.056236
C50	C	1.013268	0.079219	-0.000106
C51	C	1.013265	0.149471	-0.000090
C52	C	1.013256	0.205470	-0.000082
C53	C	0.709350	0.677484	-0.000096
C54	C	0.606207	0.677488	-0.000098
C55	C	0.387840	0.773369	-0.047815
C56	C	0.495072	0.773434	-0.048083
C57	C	0.602884	0.629859	-0.035059
C58	C	0.495115	0.630468	-0.035409
C59	C	0.496477	0.628490	0.082640
C60	C	0.602447	0.630297	0.082509
C61	C	1.317162	0.677461	-0.000081
C62	C	1.420305	0.677458	-0.000078
C63	C	1.013258	0.677477	-0.203281
C64	C	1.013259	0.677479	-0.272243
C65	C	1.013258	0.880679	-0.000122
C66	C	1.013259	0.949646	-0.000134
C67	C	1.097182	0.677478	-0.304639
C68	C	1.097186	0.677472	-0.369432
C69	C	1.013260	0.677473	-0.401831
C70	C	0.929332	0.677472	-0.369429
C71	C	0.929334	0.677472	-0.304634
C72	C	0.929322	0.677471	-0.630739
C73	C	0.929325	0.677474	-0.695540
C74	C	1.097174	0.677471	-0.695537
C75	C	1.097176	0.677471	-0.630742
C76	C	1.013252	0.677465	-0.598344
C77	C	1.013251	0.677470	-0.528087
C78	C	1.013256	0.677474	-0.472090
C79	C	1.013255	0.677468	0.203104
C80	C	1.013254	0.677466	0.272066
C81	C	1.317161	0.474255	-0.000047
C82	C	1.420303	0.405285	-0.000033
C83	C	1.013253	0.474261	0.203138
C84	C	1.013252	0.405293	0.272112
C85	C	1.317159	0.474250	0.203146
C86	C	1.420301	0.405278	0.272122
C87	C	0.709354	0.880695	-0.203323
C88	C	0.606212	0.949667	-0.272298
C89	C	0.709352	0.880690	-0.000130
C90	C	0.606210	0.949661	-0.000144
C91	C	1.013260	0.880684	-0.203315
C92	C	1.013261	0.949652	-0.272288
C93	C	1.409397	0.372898	-0.039712
C94	C	1.506301	0.308103	-0.039714
C95	C	1.614110	0.275689	-0.000032
C96	C	1.625014	0.308082	0.039648
C97	C	1.528111	0.372881	0.039645
C98	C	1.072594	0.372902	0.344188
C99	C	1.072589	0.308108	0.409002
C100	C	1.013247	0.275702	0.401738
C101	C	0.953897	0.308100	0.329654
C102	C	0.953896	0.372897	0.264842
C103	C	1.528091	0.372887	0.264837
C104	C	1.625013	0.308089	0.329641
C105	C	1.614142	0.275680	0.401729
C106	C	1.506340	0.308077	0.409011
C107	C	1.409421	0.372878	0.344208
C108	C	0.498421	0.982066	-0.265014
C109	C	0.401500	1.046884	-0.329818
C110	C	0.412371	1.079297	-0.401905
C111	C	0.520173	1.046895	-0.409188
C112	C	0.617092	0.982083	-0.344385
C113	C	0.617116	0.982054	0.039528
C114	C	0.520212	1.046867	0.039512
C115	C	0.412403	1.079283	-0.000172
C116	C	0.401499	1.046887	-0.039849
C117	C	0.498401	0.982079	-0.039837
C118	C	1.072615	0.982038	-0.265000
C119	C	1.072638	1.046832	-0.329802
C120	C	1.013300	1.079244	-0.401891
C121	C	0.953945	1.046852	-0.409177
C122	C	0.953929	0.982055	-0.344377
H123	H	0.860986	0.175045	-0.101930
Br124	Br	0.873359	0.938118	-0.354282
Br125	Br	0.763417	0.938078	0.093390
Br126	Br	1.013332	1.167186	-0.489828
H127	H	0.905634	1.073253	-0.467881
Br128	Br	0.873366	0.264111	0.319808
H129	H	1.120918	0.399279	0.350117
Br130	Br	0.296197	0.835811	-0.148906
H131	H	1.693005	0.222925	-0.000035
Br132	Br	0.815437	0.677464	-0.413391
H133	H	1.120923	0.281737	0.467689
H134	H	0.521768	0.560099	-0.002887
Br135	Br	0.815416	0.549182	-0.132332
Br136	Br	1.211073	0.677476	-0.586778
H137	H	0.860989	0.383586	-0.101895
H138	H	1.321656	0.399243	0.350150
H139	H	0.529113	1.073233	0.071825
H140	H	1.165529	0.179897	0.101751
H141	H	1.165533	0.297436	0.101781
H142	H	0.333884	0.811010	-0.024484
Br143	Br	1.771336	0.264081	0.093502
H144	H	0.333508	1.132054	-0.000175
H145	H	0.860987	0.057502	-0.101954
Br146	Br	0.873356	0.416845	0.167026
Br147	Br	1.211087	-0.194243	0.132165
Br148	Br	0.490992	0.836120	-0.149787
Br149	Br	1.211099	-0.041536	0.132196
Br150	Br	0.255177	1.090887	-0.093701
H151	H	0.860997	0.677471	-0.278257
H152	H	0.444772	0.664317	-0.096278
Br153	Br	0.483636	0.938089	-0.167189
H154	H	0.446454	0.659177	0.111847
H155	H	0.704858	0.955704	-0.350325
H156	H	0.489505	0.955707	-0.072141
Br157	Br	1.153154	0.938064	-0.167173
Br158	Br	1.542877	0.416862	0.167013
H159	H	0.681151	0.559313	-0.001963
H160	H	0.493312	0.810993	-0.024816
Br161	Br	1.263096	0.416876	-0.093575
Br162	Br	1.491475	0.264153	-0.093568
H163	H	0.313732	1.073254	-0.323874
H164	H	1.165520	0.677482	-0.278267
H165	H	1.165513	0.677472	-0.721921
Br166	Br	0.606443	0.684997	-0.135550
H167	H	0.601928	0.665025	0.108627
H168	H	0.681604	0.560298	0.121068
Br169	Br	0.815417	0.677477	-0.739510
Br170	Br	1.542934	0.416821	0.093506
Br171	Br	1.153193	1.090781	-0.319894
Br172	Br	1.771301	0.264133	0.319740
Br173	Br	1.745689	0.187735	0.489670
H174	H	1.165523	0.677470	-0.395808
H175	H	0.523915	0.557837	0.118376
H176	H	0.860987	0.677469	-0.604366
Br177	Br	0.280824	1.167257	-0.489846
H178	H	1.013256	0.222940	0.454518
H179	H	1.497505	0.281680	0.467713
H180	H	0.529011	1.073294	-0.467889
