data_functionalizedCrystal
_audit_creation_method	'MofGen! by Chris Wilmer'
_symmetry_space_group_name_H-M	'P1'
_symmetry_Int_Tables_number	1
_symmetry_cell_setting	triclinic
loop_
_symmetry_equiv_pos_as_xyz
  x,y,z
_cell_length_a	12.759395
_cell_length_b	18.101395
_cell_length_c	12.759387
_cell_angle_alpha	89.967189
_cell_angle_beta	89.979491
_cell_angle_gamma	90.032641
loop_
_atom_site_label
_atom_site_type_symbol
_atom_site_fract_x
_atom_site_fract_y
_atom_site_fract_z
Zn1	Zn	1.606149	-0.294760	-0.593990
Zn2	Zn	1.605989	-0.418620	-0.418305
Zn3	Zn	1.430447	-0.294801	-0.418327
Zn4	Zn	1.430389	-0.418568	-0.593944
O5	O	1.518244	-0.356687	-0.506141
O6	O	1.753149	-0.311196	-0.570695
O7	O	1.582661	-0.402234	-0.271286
O8	O	1.453845	-0.191162	-0.441658
O9	O	1.753032	-0.402195	-0.441620
O10	O	1.582933	-0.191133	-0.570717
O11	O	1.453691	-0.311264	-0.271303
O12	O	1.283418	-0.311213	-0.441613
O13	O	1.453747	-0.402105	-0.740971
O14	O	1.283376	-0.402145	-0.570638
O15	O	1.582877	-0.311145	-0.741005
O16	O	1.582604	-0.522246	-0.441575
O17	O	1.453592	-0.522208	-0.570616
C18	C	1.245276	-0.356678	-0.506123
C19	C	1.128499	-0.356692	-0.506141
C20	C	1.128494	-0.451532	-0.640277
C21	C	1.073630	-0.498958	-0.707348
C22	C	0.963908	-0.498967	-0.707361
C23	C	0.909048	-0.451543	-0.640297
C24	C	0.963912	-0.404118	-0.573226
C25	C	1.073636	-0.404115	-0.573219
C26	C	0.963917	-0.309275	-0.439097
C27	C	1.073639	-0.309269	-0.439077
C28	C	0.909057	-0.261852	-0.372034
C29	C	0.963921	-0.214429	-0.304956
C30	C	1.073649	-0.214422	-0.304945
C31	C	1.128503	-0.261843	-0.372006
C32	C	1.518103	-0.549098	-0.506111
C33	C	1.518139	-0.631412	-0.506133
C34	C	1.518370	-0.930503	-0.506189
C35	C	1.437387	-0.899184	-0.587580
C36	C	1.437002	-0.813566	-0.587325
C37	C	1.518255	-0.782120	-0.506162
C38	C	1.488272	-0.813280	-0.395437
C39	C	1.487750	-0.898925	-0.395924
C40	C	1.629513	-0.898842	-0.534549
C41	C	1.628859	-0.813191	-0.536977
C42	C	1.518192	-0.698261	-0.506140
C43	C	1.518430	-1.014362	-0.506204
C44	C	1.792277	-0.356697	-0.506160
C45	C	1.909054	-0.356701	-0.506168
C46	C	1.518323	-0.356615	-0.780175
C47	C	1.518357	-0.356584	-0.896952
C48	C	1.518413	-0.163525	-0.506196
C49	C	1.518486	-0.081211	-0.506219
C50	C	1.652829	-0.261872	-0.897007
C51	C	1.720080	-0.214506	-0.951896
C52	C	1.720105	-0.214479	-1.061618
C53	C	1.652871	-0.261822	-1.116453
C54	C	1.585620	-0.309189	-1.061565
C55	C	1.585604	-0.309212	-0.951840
C56	C	1.451144	-0.403895	-1.061509
C57	C	1.451122	-0.403927	-0.951788
C58	C	1.383910	-0.451238	-1.116345
C59	C	1.316662	-0.498610	-1.061456
C60	C	1.316641	-0.498636	-0.951728
C61	C	1.383872	-0.451294	-0.896899
C62	C	1.518225	-0.356706	-0.233174
C63	C	1.518395	-0.356528	-0.116398
H64	H	1.217844	-0.261844	-0.372001
H65	H	0.819716	-0.261859	-0.372054
H66	H	0.919238	-0.537581	-0.761981
H67	H	1.407887	-0.791898	-0.370982
H68	H	1.652889	-0.261789	-1.205794
Cl69	Cl	1.142611	-0.154794	-0.220627
H70	H	1.544176	-0.919645	-0.333213
H71	H	0.919245	-0.175817	-0.250364
Cl72	Cl	1.804633	-0.154920	-1.130623
H73	H	1.383931	-0.451210	-1.205686
H74	H	1.545401	-0.792913	-0.333141
H75	H	1.118309	-0.537568	-0.761951
Cl76	Cl	0.771111	-0.451546	-0.640331
Cl77	Cl	1.309809	-0.782033	-0.558327
H78	H	1.383865	-0.451313	-0.807558
H79	H	1.455761	-0.792496	-0.669427
H80	H	1.689848	-0.919095	-0.475269
Cl81	Cl	1.266430	-0.451535	-0.640251
H82	H	1.261920	-0.537149	-1.106112
Cl83	Cl	1.232086	-0.558182	-0.882735
H84	H	1.656847	-0.920385	-0.613914
H85	H	1.455960	-0.919726	-0.669948
H86	H	1.406505	-0.918971	-0.371899
Cl87	Cl	1.310971	-0.932532	-0.558966
Cl88	Cl	1.726950	-0.780132	-0.452130
Cl89	Cl	1.663773	-0.781744	-0.662789
H90	H	1.652825	-0.261897	-0.807666
Cl91	Cl	1.804573	-0.154974	-0.882955
