data_functionalizedCrystal
_audit_creation_method	'MofGen! by Chris Wilmer'
_symmetry_space_group_name_H-M	'P1'
_symmetry_Int_Tables_number	1
_symmetry_cell_setting	triclinic
loop_
_symmetry_equiv_pos_as_xyz
  x,y,z
_cell_length_a	12.759401
_cell_length_b	14.908520
_cell_length_c	12.759393
_cell_angle_alpha	93.262473
_cell_angle_beta	89.981504
_cell_angle_gamma	93.320696
loop_
_atom_site_label
_atom_site_type_symbol
_atom_site_fract_x
_atom_site_fract_y
_atom_site_fract_z
Zn1	Zn	1.582067	-0.359100	-0.618083
Zn2	Zn	1.571798	-0.509987	-0.452530
Zn3	Zn	1.406366	-0.359147	-0.442425
Zn4	Zn	1.396199	-0.509917	-0.628166
O5	O	1.489108	-0.434538	-0.535301
O6	O	1.727726	-0.379125	-0.596130
O7	O	1.549811	-0.490026	-0.304171
O8	O	1.438226	-0.232897	-0.457278
O9	O	1.720181	-0.489981	-0.474499
O10	O	1.567313	-0.232862	-0.586332
O11	O	1.428268	-0.379205	-0.296748
O12	O	1.257997	-0.379138	-0.467055
O13	O	1.420898	-0.489862	-0.773847
O14	O	1.250528	-0.489908	-0.603519
O15	O	1.557454	-0.379058	-0.766438
O16	O	1.539952	-0.636222	-0.484277
O17	O	1.410940	-0.636171	-0.613317
C18	C	1.216142	-0.434521	-0.535286
C19	C	1.099364	-0.434536	-0.535305
C20	C	1.040634	-0.492306	-0.606257
C21	C	0.930909	-0.492318	-0.606269
C22	C	0.938654	-0.376786	-0.464369
C23	C	1.048377	-0.376771	-0.464363
C24	C	1.036161	-0.559010	-0.688179
C25	C	0.926436	-0.559022	-0.688191
C26	C	1.473257	-0.668930	-0.551010
C27	C	1.466573	-0.769204	-0.557766
C28	C	1.588489	-0.957621	-0.436200
C29	C	1.582212	-1.051837	-0.442544
C30	C	1.447746	-1.051854	-0.576803
C31	C	1.454024	-0.957638	-0.570459
C32	C	1.524397	-0.910524	-0.500154
C33	C	1.530668	-0.816307	-0.493805
C34	C	1.396208	-0.816325	-0.628069
C35	C	1.389931	-0.910541	-0.634413
C36	C	1.763140	-0.434555	-0.535317
C37	C	1.879916	-0.434563	-0.535324
C38	C	1.489187	-0.434447	-0.809328
C39	C	1.489221	-0.434408	-0.926102
C40	C	1.505049	-0.199231	-0.519553
C41	C	1.511842	-0.098957	-0.512842
C42	C	1.560336	-0.376707	-0.977108
C43	C	1.560363	-0.376674	-1.086830
C44	C	1.418158	-0.492052	-1.094531
C45	C	1.418126	-0.492079	-0.984811
C46	C	1.642440	-0.310097	-0.972663
C47	C	1.642467	-0.310064	-1.082385
C48	C	1.489093	-0.434563	-0.262335
C49	C	1.489280	-0.434348	-0.145545
H50	H	0.891935	-0.628875	-0.670947
N51	N	1.077317	-0.534325	-0.794348
H52	H	1.156475	-0.534310	-0.794386
H53	H	1.047836	-0.579697	-0.850041
H54	H	1.065707	-0.625345	-0.663346
N55	N	1.606567	-0.765483	-0.417986
H56	H	1.589206	-0.781940	-0.344011
H57	H	1.680504	-0.781832	-0.435570
H58	H	0.894118	-0.534082	-0.763869
N59	N	1.664375	-0.906798	-0.360366
H60	H	1.704022	-0.950931	-0.320809
H61	H	1.715581	-0.867642	-0.400536
N62	N	0.883657	-0.314500	-0.387842
H63	H	0.840961	-0.272741	-0.427814
H64	H	0.835704	-0.351194	-0.341566
H65	H	1.634405	-1.090179	-0.390468
N66	N	1.327074	-0.765531	-0.697056
H67	H	1.250922	-0.781999	-0.681772
H68	H	1.341812	-0.698712	-0.682336
N69	N	1.371856	-1.102676	-0.652632
H70	H	1.377610	-1.169508	-0.646945
H71	H	1.297922	-1.086281	-0.635105
N72	N	1.314034	-0.961358	-0.710239
H73	H	1.319781	-1.028191	-0.704556
H74	H	1.240104	-0.944957	-0.692706
N75	N	1.341387	-0.554279	-0.929793
H76	H	1.296349	-0.590801	-0.983636
H77	H	1.381275	-0.596057	-0.887045
H78	H	1.096192	-0.329723	-0.406594
H79	H	1.625378	-0.240231	-0.938218
N80	N	1.742491	-0.343298	-0.929680
H81	H	1.725397	-0.398304	-0.888796
H82	H	1.790917	-0.359296	-0.989642
N83	N	1.341467	-0.554240	-1.157852
H84	H	1.352270	-0.545463	-1.235099
H85	H	1.353432	-0.618682	-1.142990
N86	N	1.609833	-0.222136	-1.121597
H87	H	1.594047	-0.179673	-1.059843
H88	H	1.668614	-0.194418	-1.164328
N89	N	1.748569	-0.334856	-1.123517
H90	H	1.804441	-0.289577	-1.094131
H91	H	1.763630	-0.396781	-1.101296
