data_functionalizedCrystal
_audit_creation_method	'MofGen! by Chris Wilmer'
_symmetry_space_group_name_H-M	'P1'
_symmetry_Int_Tables_number	1
_symmetry_cell_setting	triclinic
loop_
_symmetry_equiv_pos_as_xyz
  x,y,z
_cell_length_a	10.654550
_cell_length_b	19.188930
_cell_length_c	9.130313
_cell_angle_alpha	89.990369
_cell_angle_beta	89.999724
_cell_angle_gamma	83.814856
loop_
_atom_site_label
_atom_site_type_symbol
_atom_site_fract_x
_atom_site_fract_y
_atom_site_fract_z
O1	O	1.665764	0.098062	-0.121709
O2	O	2.165764	0.598062	0.378291
O3	O	1.300088	0.107405	-0.121737
O4	O	1.800088	0.607405	0.378263
O5	O	1.493479	0.001147	-0.121693
O6	O	1.993479	0.501147	0.378307
O7	O	1.472374	0.204320	-0.121752
O8	O	1.972374	0.704320	0.378248
O9	O	1.493466	0.001143	0.121905
O10	O	1.993466	0.501143	0.621905
O11	O	1.300075	0.107401	0.121862
O12	O	1.800075	0.607401	0.621862
O13	O	1.665751	0.098059	0.121890
O14	O	2.165751	0.598059	0.621890
Cu15	Cu	1.482912	0.102730	0.144118
Cu16	Cu	1.982912	0.602730	0.644118
Cu17	Cu	1.482928	0.102734	-0.143965
Cu18	Cu	1.982928	0.602734	0.356035
O19	O	1.472361	0.204317	0.121847
O20	O	1.972361	0.704317	0.621847
C21	C	1.253298	0.106717	0.000059
C22	C	1.753298	0.606717	0.500059
C23	C	1.113898	0.104665	0.000049
C24	C	1.613898	0.604665	0.500049
C25	C	1.033089	0.167228	0.000035
C26	C	1.533089	0.667228	0.500035
C27	C	0.902109	0.165295	0.000061
C28	C	1.402109	0.665295	0.500061
C29	C	0.932761	0.038231	0.000109
C30	C	1.432761	0.538231	0.500109
C31	C	1.063738	0.040164	0.000094
C32	C	1.563738	0.540164	0.500094
C33	C	1.492789	-0.024870	0.000110
C34	C	1.992789	0.475130	0.500110
C35	C	1.490737	-0.102388	0.000123
C36	C	1.990737	0.397612	0.500123
C37	C	1.604213	-0.146570	0.000138
C38	C	2.104213	0.353430	0.500138
C39	C	1.602285	-0.219407	0.000115
C40	C	2.102285	0.280593	0.500115
C41	C	1.486876	-0.248058	0.000105
C42	C	1.986876	0.251942	0.500105
C43	C	1.373386	-0.203866	0.000081
C44	C	1.873386	0.296134	0.500081
C45	C	1.375316	-0.131032	0.000090
C46	C	1.875316	0.368968	0.500090
N47	N	1.398655	-0.356641	0.082999
N48	N	1.898655	0.143359	0.582999
N49	N	1.396828	-0.425831	0.082994
N50	N	1.896828	0.074169	0.582994
C51	C	1.481052	-0.467505	0.000075
C52	C	1.981052	0.032495	0.500075
N53	N	1.567190	-0.437375	-0.082821
N54	N	2.067190	0.062625	0.417179
N55	N	1.569020	-0.368178	-0.082809
N56	N	2.069020	0.131822	0.417191
C57	C	1.484770	-0.327034	0.000094
C58	C	1.984770	0.172966	0.500094
C59	C	1.592445	-0.590665	0.000063
C60	C	2.092445	-0.090665	0.500063
C61	C	1.590513	-0.663502	0.000030
C62	C	2.090513	-0.163502	0.500030
C63	C	1.361610	-0.647960	0.000011
C64	C	1.861610	-0.147960	0.500011
C65	C	1.363545	-0.575124	0.000029
C66	C	1.863545	-0.075124	0.500029
C67	C	1.478966	-0.546481	0.000062
C68	C	1.978966	-0.046481	0.500062
C69	C	1.712541	0.098746	0.000091
C70	C	2.212541	0.598746	0.500091
C71	C	1.851941	0.100799	0.000091
C72	C	2.351941	0.600799	0.500091
C73	C	1.473051	0.230334	0.000040
C74	C	1.973051	0.730334	0.500040
C75	C	1.475102	0.307852	0.000018
C76	C	1.975102	0.807852	0.500018
N77	N	1.482910	0.102727	0.346741
N78	N	1.982910	0.602727	0.846741
N79	N	1.482939	0.102731	-0.346588
N80	N	1.982939	0.602731	0.153412
C81	C	1.568572	0.055696	0.423412
C82	C	2.068572	0.555696	0.923412
C83	C	1.568584	0.055696	0.576749
C84	C	2.068584	0.555696	1.076749
C85	C	1.397268	0.149764	0.576730
C86	C	1.897268	0.649764	1.076730
C87	C	1.397251	0.149760	0.423396
C88	C	1.897251	0.649760	0.923396
H89	H	1.073924	0.219748	0.000010
H90	H	1.573924	0.719748	0.500010
H91	H	1.638336	0.017398	0.639171
H92	H	2.138336	0.517398	1.139171
Br93	Br	0.792442	0.250206	0.000050
Br94	Br	1.292442	0.750206	0.500050
H95	H	1.327528	0.188059	0.639158
H96	H	1.827528	0.688059	1.139158
Br97	Br	0.864678	-0.049301	0.000164
Br98	Br	1.364678	0.450699	0.500164
Br99	Br	1.280978	0.213587	0.319330
Br100	Br	1.780978	0.713587	0.819330
Br101	Br	1.173418	-0.044749	0.000131
Br102	Br	1.673418	0.455251	0.500131
Br103	Br	1.216757	-0.242748	0.000048
Br104	Br	1.716757	0.257252	0.500048
Br105	Br	1.760854	-0.107700	0.000143
Br106	Br	2.260854	0.392300	0.500143
H107	H	1.694693	-0.255386	0.000122
H108	H	2.194693	0.244614	0.500122
Br109	Br	1.749083	-0.551787	0.000123
Br110	Br	2.249083	-0.051787	0.500123
H111	H	1.267641	-0.671287	-0.000005
H112	H	1.767641	-0.171287	0.499995
Br113	Br	1.209534	-0.515159	0.000009
Br114	Br	1.709534	-0.015159	0.500009
H115	H	1.282908	-0.095058	0.000077
H116	H	1.782908	0.404942	0.500077
Br117	Br	1.684821	-0.008136	0.319386
Br118	Br	2.184821	0.491864	0.819386
H119	H	1.682922	-0.699475	0.000035
H120	H	2.182922	-0.199475	0.500035
