data_functionalizedCrystal
_audit_creation_method	'MofGen! by Chris Wilmer'
_symmetry_space_group_name_H-M	'P1'
_symmetry_Int_Tables_number	1
_symmetry_cell_setting	triclinic
loop_
_symmetry_equiv_pos_as_xyz
  x,y,z
_cell_length_a	18.050589
_cell_length_b	12.759401
_cell_length_c	12.759393
_cell_angle_alpha	90.020566
_cell_angle_beta	89.970454
_cell_angle_gamma	89.973571
loop_
_atom_site_label
_atom_site_type_symbol
_atom_site_fract_x
_atom_site_fract_y
_atom_site_fract_z
Zn1	Zn	-0.295659	-1.606168	-0.594017
Zn2	Zn	0.204341	-1.106168	-0.094017
Zn3	Zn	-0.419867	-1.606017	-0.418340
Zn4	Zn	0.080133	-1.106017	0.081660
Zn5	Zn	-0.295691	-1.430466	-0.418353
Zn6	Zn	0.204309	-0.930466	0.081647
Zn7	Zn	-0.419808	-1.430417	-0.593978
Zn8	Zn	0.080192	-0.930417	-0.093978
O9	O	-0.357756	-1.518267	-0.506172
O10	O	0.142244	-1.018267	-0.006172
O11	O	-0.312147	-1.753169	-0.570723
O12	O	0.187853	-1.253169	-0.070723
O13	O	-0.403433	-1.582688	-0.271320
O14	O	0.096567	-1.082688	0.228680
O15	O	-0.191762	-1.453857	-0.441677
O16	O	0.308238	-0.953857	0.058323
O17	O	-0.403402	-1.753058	-0.441654
O18	O	0.096598	-1.253058	0.058346
O19	O	-0.191739	-1.582944	-0.570736
O20	O	0.308261	-1.082944	-0.070736
O21	O	-0.312202	-1.453711	-0.271330
O22	O	0.187798	-0.953711	0.228670
O23	O	-0.312144	-1.283439	-0.441639
O24	O	0.187856	-0.783439	0.058361
O25	O	-0.403301	-1.453773	-0.741004
O26	O	0.096699	-0.953773	-0.241004
O27	O	-0.403332	-1.283402	-0.570670
O28	O	0.096668	-0.783402	-0.070670
O29	O	-0.312089	-1.582896	-0.741033
O30	O	0.187911	-1.082896	-0.241033
O31	O	-0.523784	-1.582640	-0.441617
O32	O	-0.023784	-1.082640	0.058383
O33	O	-0.523740	-1.453627	-0.570657
O34	O	-0.023740	-0.953627	-0.070657
C35	C	-0.357736	-1.245300	-0.506153
C36	C	0.142264	-0.745300	-0.006153
C37	C	-0.357745	-1.128523	-0.506169
C38	C	0.142255	-0.628523	-0.006169
C39	C	-0.310313	-1.073719	-0.573478
C40	C	0.189687	-0.573719	-0.073478
C41	C	-0.310318	-0.963995	-0.573484
C42	C	0.189682	-0.463995	-0.073484
C43	C	-0.405193	-0.963888	-0.438868
C44	C	0.094807	-0.463888	0.061132
C45	C	-0.405184	-1.073610	-0.438858
C46	C	0.094816	-0.573610	0.061142
C47	C	-0.550708	-1.518140	-0.506154
C48	C	-0.050708	-1.018140	-0.006154
C49	C	-0.633254	-1.518182	-0.506182
C50	C	-0.133254	-1.018182	-0.006182
C51	C	-0.832708	-1.448094	-0.576330
C52	C	-0.332708	-0.948094	-0.076330
C53	C	-0.882155	-1.422478	-0.480461
C54	C	-0.382155	-0.922478	0.019539
C55	C	-0.784385	-1.518285	-0.506196
C56	C	-0.284385	-1.018285	-0.006196
C57	C	-0.882019	-1.543953	-0.602075
C58	C	-0.382019	-1.043953	-0.102075
C59	C	-0.930370	-1.518383	-0.506217
C60	C	-0.430370	-1.018383	-0.006217
C61	C	-0.832744	-1.492619	-0.410276
C62	C	-0.332744	-0.992619	0.089724
C63	C	-0.832604	-1.614138	-0.531955
C64	C	-0.332604	-1.114138	-0.031955
C65	C	-0.882029	-1.588559	-0.436020
C66	C	-0.382029	-1.088559	0.063980
C67	C	-0.700286	-1.518226	-0.506185
C68	C	-0.200286	-1.018226	-0.006185
C69	C	-1.014466	-1.518442	-0.506218
C70	C	-0.514466	-1.018442	-0.006218
C71	C	-0.164051	-1.518423	-0.506212
C72	C	0.335949	-1.018423	-0.006212
C73	C	-0.081505	-1.518489	-0.506229
C74	C	0.418495	-1.018489	-0.006229
C75	C	-0.357685	-1.518346	-0.780205
C76	C	0.142315	-1.018346	-0.280205
C77	C	-0.357655	-1.518379	-0.896982
C78	C	0.142345	-1.018379	-0.396982
C79	C	-0.357770	-0.792300	-0.506188
C80	C	0.142230	-0.292300	-0.006188
C81	C	-0.357759	-0.909077	-0.506184
C82	C	0.142241	-0.409077	-0.006184
C83	C	-0.310153	-1.585619	-0.951860
C84	C	0.189847	-1.085619	-0.451860
C85	C	-0.310121	-1.585636	-1.061584
C86	C	0.189879	-1.085636	-0.561584
C87	C	-0.405098	-1.451172	-1.061542
C88	C	0.094902	-0.951172	-0.561542
C89	C	-0.405126	-1.451150	-0.951820
C90	C	0.094874	-0.951150	-0.451820
C91	C	-0.357774	-1.518249	-0.233204
C92	C	0.142226	-1.018249	0.266796
C93	C	-0.357595	-1.518419	-0.116428
C94	C	0.142405	-1.018419	0.383572
H95	H	-0.443817	-0.919165	-0.384067
H96	H	0.056183	-0.419165	0.115933
Br97	Br	-0.469551	-1.147994	-0.347489
Br98	Br	0.030449	-0.647994	0.152511
Br99	Br	-0.918428	-1.287442	-0.444146
Br100	Br	-0.418428	-0.787442	0.055854
H101	H	-0.810825	-1.695134	-0.553769
H102	H	-0.310825	-1.195134	-0.053769
H103	H	-0.443750	-1.396439	-1.106205
H104	H	0.056250	-0.896439	-0.606205
Br105	Br	-0.796823	-1.456348	-0.275104
Br106	Br	-0.296823	-0.956348	0.224896
Br107	Br	-0.796611	-1.349021	-0.675048
Br108	Br	-0.296611	-0.849021	-0.175048
Br109	Br	-0.918102	-1.580070	-0.737203
Br110	Br	-0.418102	-1.080070	-0.237203
H111	H	-0.271497	-1.640358	-0.907214
H112	H	0.228503	-1.140358	-0.407214
Br113	Br	-0.245930	-1.148241	-0.664826
Br114	Br	0.254070	-0.648241	-0.164826
H115	H	-0.903548	-1.647959	-0.376651
H116	H	-0.403548	-1.147959	0.123349
Br117	Br	-0.245657	-1.676902	-1.136059
Br118	Br	0.254343	-1.176902	-0.636059
H119	H	-0.271693	-0.919379	-0.628292
H120	H	0.228307	-0.419379	-0.128292
Br121	Br	-0.469591	-1.359880	-0.877335
Br122	Br	0.030409	-0.859880	-0.377335
