data_functionalizedCrystal
_audit_creation_method	'MofGen! by Chris Wilmer'
_symmetry_space_group_name_H-M	'P1'
_symmetry_Int_Tables_number	1
_symmetry_cell_setting	triclinic
loop_
_symmetry_equiv_pos_as_xyz
  x,y,z
_cell_length_a	16.120530
_cell_length_b	19.121063
_cell_length_c	16.120297
_cell_angle_alpha	84.820568
_cell_angle_beta	89.871860
_cell_angle_gamma	89.687057
loop_
_atom_site_label
_atom_site_type_symbol
_atom_site_fract_x
_atom_site_fract_y
_atom_site_fract_z
Zn1	Zn	1.228532	-0.355748	0.551587
Zn2	Zn	1.728532	0.144252	1.051587
Zn3	Zn	1.229542	-0.467532	0.417878
Zn4	Zn	1.729542	0.032468	0.917878
Zn5	Zn	1.097153	-0.343883	0.404937
Zn6	Zn	1.597153	0.156117	0.904937
Zn7	Zn	1.083532	-0.466885	0.549816
Zn8	Zn	1.583532	0.033115	1.049816
O9	O	1.159690	-0.408512	0.481054
O10	O	1.659690	0.091488	0.981054
O11	O	1.344754	-0.375813	0.540007
O12	O	1.844754	0.124187	1.040007
O13	O	1.218103	-0.446434	0.299571
O14	O	1.718103	0.053566	0.799571
O15	O	1.119859	-0.247198	0.419716
O16	O	1.619859	0.252802	0.919716
O17	O	1.345496	-0.457940	0.441771
O18	O	1.845496	0.042060	0.941771
O19	O	1.216382	-0.255916	0.527458
O20	O	1.716382	0.244084	1.027458
O21	O	1.120838	-0.355590	0.290063
O22	O	1.620838	0.144410	0.790063
O23	O	0.979258	-0.354963	0.417999
O24	O	1.479258	0.145037	0.917999
O25	O	1.096644	-0.456838	0.666641
O26	O	1.596644	0.043162	1.166641
O27	O	0.969251	-0.445332	0.524441
O28	O	1.469251	0.054668	1.024441
O29	O	1.203175	-0.375186	0.667942
O30	O	1.703175	0.124814	1.167942
O31	O	1.204895	-0.565705	0.440054
O32	O	1.704895	-0.065705	0.940054
O33	O	1.097623	-0.565230	0.536989
O34	O	1.597623	-0.065230	1.036989
C35	C	0.944155	-0.398790	0.469624
C36	C	1.444155	0.101210	0.969624
C37	C	0.851946	-0.394649	0.464754
C38	C	1.351946	0.105351	0.964754
C39	C	1.149912	-0.590946	0.489753
C40	C	1.649912	-0.090946	0.989753
C41	C	1.145804	-0.668997	0.493506
C42	C	1.645804	-0.168997	0.993506
C43	C	0.683119	-0.387072	0.455870
C44	C	1.183119	0.112928	0.955870
C45	C	0.637096	-0.430006	0.506302
C46	C	1.137096	0.069994	1.006302
C47	C	0.543155	-0.425790	0.501358
C48	C	1.043155	0.074210	1.001358
C49	C	0.777068	-0.391287	0.460812
C50	C	1.277068	0.108713	0.960812
C51	C	1.199763	-0.705893	0.444847
C52	C	1.699763	-0.205893	0.944847
C53	C	1.195904	-0.779230	0.448382
C54	C	1.695904	-0.279230	0.948382
C55	C	1.138080	-0.815670	0.500573
C56	C	1.638080	-0.315670	1.000573
C57	C	1.084118	-0.778769	0.549237
C58	C	1.584118	-0.278769	1.049237
C59	C	1.087982	-0.705433	0.545706
C60	C	1.587982	-0.205433	1.045706
C61	C	1.123621	-1.037085	0.513761
C62	C	1.623621	-0.537085	1.013761
C63	C	1.119760	-1.110426	0.517287
C64	C	1.619760	-0.610426	1.017287
C65	C	1.231547	-1.110882	0.416433
C66	C	1.731547	-0.610882	0.916433
C67	C	1.235403	-1.037545	0.412903
C68	C	1.735403	-0.537545	0.912903
C69	C	1.181443	-1.000650	0.461570
C70	C	1.681443	-0.500650	0.961570
C71	C	1.134132	-0.890632	0.504185
C72	C	1.634132	-0.390632	1.004185
C73	C	1.185396	-0.925690	0.457962
C74	C	1.685396	-0.425690	0.957962
C75	C	1.376067	-0.418272	0.492530
C76	C	1.876067	0.081728	0.992530
C77	C	1.468274	-0.422431	0.497420
C78	C	1.968274	0.077569	0.997420
C79	C	1.148278	-0.417263	0.698367
C80	C	1.648278	0.082737	1.198367
C81	C	1.143414	-0.420993	0.790973
C82	C	1.643414	0.079007	1.290973
C83	C	1.169527	-0.225367	0.472341
C84	C	1.669527	0.274633	0.972341
C85	C	1.173720	-0.147322	0.468628
C86	C	1.673720	0.352678	0.968628
C87	C	1.171108	-0.399746	0.264587
C88	C	1.671108	0.100254	0.764587
C89	C	1.176143	-0.395826	0.171981
C90	C	1.676143	0.104174	0.671981
C91	C	1.134506	-0.427785	0.960523
C92	C	1.634506	0.072215	1.460523
C93	C	1.185049	-0.389036	1.002436
C94	C	1.685049	0.110964	1.502436
C95	C	1.180092	-0.392815	1.096780
C96	C	1.680092	0.107185	1.596780
C97	C	1.139461	-0.424006	0.866171
C98	C	1.639461	0.075994	1.366171
H99	H	0.668246	-0.469929	0.553190
H100	H	1.168246	0.030071	1.053190
H101	H	1.087516	-0.463794	0.995491
H102	H	1.587516	0.036206	1.495491
H103	H	0.651970	-0.347152	0.408986
H104	H	1.151970	0.152848	0.908986
H105	H	1.246846	-0.676228	0.402345
H106	H	1.746846	-0.176228	0.902345
C107	C	1.070519	-0.930722	0.561584
C108	C	1.570519	-0.430722	1.061584
N109	N	1.022604	-0.960920	0.604814
N110	N	1.522604	-0.460920	1.104814
C111	C	1.298993	-0.997465	0.355467
C112	C	1.798993	-0.497465	0.855467
N113	N	1.346881	-0.967276	0.312195
N114	N	1.846881	-0.467276	0.812195
C115	C	1.255259	-0.819812	0.394848
C116	C	1.755259	-0.319812	0.894848
N117	N	1.299968	-0.850378	0.354521
N118	N	1.799968	-0.350378	0.854521
C119	C	1.290901	-1.151472	0.362905
C120	C	1.790901	-0.651472	0.862905
N121	N	1.335609	-1.182045	0.322587
N122	N	1.835609	-0.682045	0.822587
H123	H	1.079684	-1.007051	0.553387
H124	H	1.579684	-0.507051	1.053387
C125	C	1.056152	-1.150508	0.574708
C126	C	1.556152	-0.650508	1.074708
N127	N	1.008245	-1.180698	0.617957
N128	N	1.508245	-0.680698	1.117957
C129	C	1.248543	-0.340392	0.955195
C130	C	1.748543	0.159608	1.455195
N131	N	1.296368	-0.303758	0.919610
N132	N	1.796368	0.196242	1.419610
H133	H	1.044044	-0.675393	0.585330
H134	H	1.544044	-0.175393	1.085330
C135	C	1.020509	-0.818855	0.606644
C136	C	1.520509	-0.318855	1.106644
N137	N	0.972594	-0.849046	0.649881
N138	N	1.472594	-0.349046	1.149881
H139	H	1.232479	-0.896019	0.415471
H140	H	1.732479	-0.396019	0.915471
