data_functionalizedCrystal
_audit_creation_method	'MofGen! by Chris Wilmer'
_symmetry_space_group_name_H-M	'P1'
_symmetry_Int_Tables_number	1
_symmetry_cell_setting	triclinic
loop_
_symmetry_equiv_pos_as_xyz
  x,y,z
_cell_length_a	17.077404
_cell_length_b	16.959453
_cell_length_c	17.077396
_cell_angle_alpha	89.970905
_cell_angle_beta	89.981638
_cell_angle_gamma	90.022791
loop_
_atom_site_label
_atom_site_type_symbol
_atom_site_fract_x
_atom_site_fract_y
_atom_site_fract_z
Zn1	Zn	1.200044	-0.314724	-0.443815
Zn2	Zn	1.199947	-0.446912	-0.312548
Zn3	Zn	1.068776	-0.314747	-0.312566
Zn4	Zn	1.068739	-0.446860	-0.443774
O5	O	1.134377	-0.380811	-0.378176
O6	O	1.309878	-0.332272	-0.426412
O7	O	1.182521	-0.429411	-0.202703
O8	O	1.086245	-0.204133	-0.330001
O9	O	1.309807	-0.429390	-0.329971
O10	O	1.182687	-0.204116	-0.426430
O11	O	1.086150	-0.332310	-0.202717
O12	O	0.958924	-0.332260	-0.329961
O13	O	1.086183	-0.429301	-0.553627
O14	O	0.958897	-0.429323	-0.426359
O15	O	1.182652	-0.332221	-0.553657
O16	O	1.182486	-0.557516	-0.329931
O17	O	1.086088	-0.557478	-0.426342
C18	C	0.930429	-0.380789	-0.378158
C19	C	0.843179	-0.380798	-0.378169
C20	C	0.802227	-0.330319	-0.428463
C21	C	0.720246	-0.330324	-0.428467
C22	C	0.679219	-0.380813	-0.378180
C23	C	0.720177	-0.431294	-0.327881
C24	C	0.802156	-0.431285	-0.327874
C25	C	0.549307	-0.431312	-0.327900
C26	C	0.467323	-0.431323	-0.327908
C27	C	0.467397	-0.330351	-0.428493
C28	C	0.549376	-0.330342	-0.428486
C29	C	0.590328	-0.380824	-0.378188
C30	C	1.134294	-0.586177	-0.378147
C31	C	1.134330	-0.674034	-0.378161
C32	C	1.084116	-0.715317	-0.428322
C33	C	1.184584	-0.715304	-0.328017
C34	C	1.184623	-0.797850	-0.328031
C35	C	1.134408	-0.839133	-0.378193
C36	C	1.084155	-0.797870	-0.428340
C37	C	1.234881	-0.839119	-0.277891
C38	C	1.234922	-0.921670	-0.277903
C39	C	1.184703	-0.962955	-0.328062
C40	C	1.134447	-0.921687	-0.378210
C41	C	1.084233	-0.962970	-0.428372
C42	C	1.033972	-0.921703	-0.478517
C43	C	1.033936	-0.839155	-0.478498
C44	C	1.184740	-1.045503	-0.328080
C45	C	1.084272	-1.045523	-0.428389
C46	C	1.339121	-0.380834	-0.378194
C47	C	1.426371	-0.380844	-0.378202
C48	C	1.134424	-0.380753	-0.582920
C49	C	1.134444	-0.380728	-0.670170
C50	C	1.134481	-0.174643	-0.378222
C51	C	1.134525	-0.086786	-0.378242
C52	C	1.184677	-0.330174	-0.711177
C53	C	1.184687	-0.330148	-0.793158
C54	C	1.134467	-0.380680	-0.834130
C55	C	1.084228	-0.431236	-0.793117
C56	C	1.084215	-0.431257	-0.711138
C57	C	1.084259	-0.431188	-0.963987
C58	C	1.084273	-0.431168	-1.045972
C59	C	1.184731	-0.330079	-1.046007
C60	C	1.184719	-0.330100	-0.964028
C61	C	1.134481	-0.380658	-0.923021
C62	C	1.134374	-0.380812	-0.174228
C63	C	1.134506	-0.380614	-0.086979
H64	H	0.582778	-0.289234	-0.469439
N65	N	0.676075	-0.275863	-0.482697
H66	H	0.714505	-0.243876	-0.514551
H67	H	0.642057	-0.308075	-0.518972
H68	H	0.434050	-0.289245	-0.469447
H69	H	1.043381	-1.079130	-0.469237
H70	H	0.835625	-0.289207	-0.469415
H71	H	1.225666	-1.079098	-0.287258
H72	H	1.043335	-0.472377	-0.826483
N73	N	1.289034	-0.794603	-0.223782
H74	H	1.345121	-0.808905	-0.236030
H75	H	1.281315	-0.736060	-0.231397
N76	N	1.238749	-0.670782	-0.273924
H77	H	1.231101	-0.612226	-0.281525
H78	H	1.226575	-0.685258	-0.217852
H79	H	1.225594	-0.288984	-0.826542
N80	N	0.423069	-0.485779	-0.273674
H81	H	0.461450	-0.517755	-0.241805
H82	H	0.389047	-0.453558	-0.237413
H83	H	1.043302	-0.472415	-0.677751
N84	N	1.030106	-0.485651	-1.090183
H85	H	1.042249	-0.542140	-1.075917
H86	H	0.974045	-0.473296	-1.075903
H87	H	0.993016	-0.805551	-0.519325
N88	N	1.238854	-0.275681	-0.666989
H89	H	1.206974	-0.239056	-0.632973
H90	H	1.275194	-0.307884	-0.633026
H91	H	1.275847	-0.955262	-0.237071
H92	H	0.582648	-0.472419	-0.286940
H93	H	1.225617	-0.288957	-0.930671
H94	H	0.686767	-0.472400	-0.286933
H95	H	0.993091	-0.955327	-0.519362
N96	N	0.846330	-0.485726	-0.273625
H97	H	0.807902	-0.517713	-0.241769
H98	H	0.880349	-0.522343	-0.305506
N99	N	1.029902	-0.670816	-0.482400
H100	H	1.037491	-0.612256	-0.474778
H101	H	1.042087	-0.685191	-0.538478
N102	N	1.238920	-0.275550	-1.090230
H103	H	1.231307	-0.283200	-1.148381
H104	H	1.226734	-0.219100	-1.075910
H105	H	1.043338	-0.472345	-0.930601
