data_functionalizedCrystal
_audit_creation_method	'MofGen! by Chris Wilmer'
_symmetry_space_group_name_H-M	'P1'
_symmetry_Int_Tables_number	1
_symmetry_cell_setting	triclinic
loop_
_symmetry_equiv_pos_as_xyz
  x,y,z
_cell_length_a	20.919320
_cell_length_b	23.196402
_cell_length_c	23.196401
_cell_angle_alpha	90.011299
_cell_angle_beta	62.598472
_cell_angle_gamma	57.439805
loop_
_atom_site_label
_atom_site_type_symbol
_atom_site_fract_x
_atom_site_fract_y
_atom_site_fract_z
Zr1	Zr	0.700763	0.530764	-0.051084
O2	O	0.834332	0.434003	-0.138449
O3	O	0.567197	0.563677	-0.027552
O4	O	0.700764	0.558961	-0.143137
O5	O	0.700763	0.438741	0.072008
O6	O	0.700761	0.653833	-0.143139
O7	O	0.700765	0.438719	-0.022864
O8	O	0.461834	0.662269	0.063622
O9	O	0.939690	0.430306	-0.134753
O10	O	0.622131	0.644589	-0.013591
O11	O	0.622132	0.573804	0.057212
O12	O	0.779390	0.568252	-0.078875
O13	O	0.779391	0.497467	-0.008072
Zr14	Zr	0.700756	0.682110	0.100221
Zr15	Zr	0.700759	0.682074	-0.051088
Zr16	Zr	0.700760	0.530800	0.100224
Zr17	Zr	0.868797	0.524867	-0.045190
Zr18	Zr	0.532722	0.688007	0.094327
O19	O	0.834322	0.649197	0.076688
O20	O	0.834326	0.649146	-0.138453
O21	O	0.834328	0.434054	0.076693
O22	O	0.567187	0.778872	0.187585
O23	O	0.567191	0.778820	-0.027556
O24	O	0.567193	0.563728	0.187590
O25	O	0.700755	0.774133	-0.022871
O26	O	0.700755	0.653913	0.192273
O27	O	0.700758	0.559041	0.192275
O28	O	0.700754	0.774156	0.072000
O29	O	0.939687	0.550577	-0.134755
O30	O	0.461832	0.662298	0.183892
O31	O	0.461829	0.782569	0.183889
O32	O	0.461831	0.782540	0.063619
O33	O	0.939688	0.430334	-0.014482
O34	O	0.939685	0.550606	-0.014485
O35	O	0.622129	0.644623	0.128011
O36	O	0.622128	0.715408	0.057208
O37	O	0.779387	0.639070	-0.008075
O38	O	0.779388	0.568286	0.062728
C39	C	0.490574	0.613813	0.017195
C40	C	0.419239	0.616316	0.014693
C41	C	0.015796	0.632329	-0.001338
C42	C	0.082824	0.629972	0.001015
C43	C	0.116330	0.591849	0.039155
C44	C	0.082812	0.556074	0.074938
C45	C	0.015789	0.558426	0.072580
C46	C	0.318698	0.582894	0.048119
C47	C	0.385723	0.580545	0.050475
C48	C	0.385732	0.654443	-0.023449
C49	C	0.318704	0.656796	-0.025800
C50	C	0.285195	0.621018	0.009980
C51	C	0.184842	0.589441	0.041563
C52	C	0.216689	0.623421	0.007568
C53	C	0.700765	0.417172	0.024573
C54	C	0.700767	0.352937	0.024574
C55	C	0.700774	0.322752	-0.027694
C56	C	0.700766	0.262401	-0.027695
C57	C	0.700769	0.232228	0.024569
C58	C	0.700756	0.262423	0.076847
C59	C	0.700755	0.322777	0.076849
C60	C	0.753527	0.111006	0.042706
C61	C	0.753534	0.050650	0.042699
C62	C	0.700767	0.046078	0.024565
C63	C	0.648006	0.101864	0.006424
C64	C	0.648005	0.162218	0.006427
C65	C	0.700769	0.166785	0.024572
C66	C	0.700765	-0.049546	-0.027707
C67	C	0.700751	-0.109895	-0.027702
C68	C	0.700750	-0.109876	0.076837
C69	C	0.700755	-0.049523	0.076835
C70	C	0.700766	-0.019364	0.024560
C71	C	0.910945	0.599061	0.031941
C72	C	0.982280	0.596558	0.034444
C73	C	0.700763	0.606392	-0.164696
C74	C	0.700764	0.606376	-0.228931
C75	C	0.700754	0.795703	0.024564
C76	C	0.700752	0.859938	0.024563
C77	C	0.782849	0.566533	-0.293181
C78	C	0.782850	0.566551	-0.353536
C79	C	0.700761	0.606403	-0.349637
C80	C	0.618666	0.646255	-0.285375
C81	C	0.618667	0.646242	-0.225022
C82	C	0.637871	0.603360	-0.419160
C83	C	0.637874	0.603368	-0.479514
C84	C	0.700755	0.606448	-0.535785
C85	C	0.763648	0.609505	-0.531702
C86	C	0.763650	0.609492	-0.471348
C87	C	0.700751	0.606422	-0.415076
C88	C	0.782846	0.566621	-0.665482
C89	C	0.782844	0.566644	-0.725837
C90	C	0.618658	0.646344	-0.657673
C91	C	0.618662	0.646326	-0.597320
C92	C	0.700759	0.606460	-0.601229
C93	C	0.700756	0.606483	0.213833
C94	C	0.700755	0.606498	0.278067
C95	C	0.490569	0.803078	0.017191
C96	C	0.419232	0.869817	0.014687
C97	C	0.490571	0.613858	0.206460
C98	C	0.419235	0.616377	0.268192
C99	C	0.490565	0.803124	0.206455
C100	C	0.419227	0.869878	0.268186
C101	C	0.910953	0.409750	-0.157319
C102	C	0.982291	0.342997	-0.219049
C103	C	0.910950	0.409796	0.031946
C104	C	0.982287	0.343058	0.034449
C105	C	0.910948	0.599016	-0.157323
C106	C	0.982284	0.596497	-0.219055
C107	C	0.385733	0.864191	-0.023452
C108	C	0.318714	0.926893	-0.025818
C109	C	0.285190	0.995219	0.009959
C110	C	0.318695	1.000843	0.048099
C111	C	0.385718	0.938142	0.050461
C112	C	0.385733	0.654527	0.334145
C113	C	0.318714	0.656890	0.392155
C114	C	0.285194	0.621108	0.384210
C115	C	0.318703	0.582954	0.318250
C116	C	0.385725	0.580586	0.260242
C117	C	0.385726	0.938181	0.260217
C118	C	0.318706	1.000909	0.318214
C119	C	0.285184	0.995331	0.384180
C120	C	0.318692	0.927020	0.392147
C121	C	0.385715	0.864294	0.334151
C122	C	1.015801	0.274693	-0.211080
C123	C	1.082842	0.211965	-0.269077
C124	C	1.116368	0.217542	-0.335042
C125	C	1.082855	0.285853	-0.343010
C126	C	1.015820	0.348579	-0.285014
C127	C	1.015793	0.348683	0.072582
C128	C	1.082831	0.285981	0.074933
C129	C	1.116357	0.217654	0.039154
C130	C	1.082848	0.212030	0.001016
C131	C	1.015816	0.274731	-0.001338
C132	C	1.015783	0.632287	-0.211088
C133	C	1.082802	0.629935	-0.269087
C134	C	1.116325	0.591788	-0.335051
C135	C	1.082820	0.555997	-0.343017
C136	C	1.015798	0.558354	-0.285019
H137	H	0.413022	0.683571	-0.052581
H138	H	1.110155	0.156390	-0.028114
H139	H	0.413010	0.942736	0.206510
H140	H	0.291388	0.922490	0.445864
Br141	Br	0.825143	-0.025055	0.067312
Br142	Br	0.970311	0.441404	0.121144
H143	H	0.796441	0.114747	0.057529
H144	H	0.230615	1.046269	0.008030
H145	H	1.170900	0.589874	-0.382271
H146	H	1.110125	0.524938	-0.396733
Br147	Br	1.128307	0.119267	-0.258247
H148	H	0.110102	0.525029	0.105989
Br149	Br	0.194235	0.624328	0.462944
H150	H	0.849698	0.534074	-0.296370
H151	H	1.170952	0.166460	-0.382260
H152	H	-0.011485	0.663377	-0.032393
H153	H	0.814855	0.612009	-0.577520
H154	H	0.988531	0.529206	-0.291515
Br155	Br	0.507255	0.700388	-0.510118
H156	H	0.110113	0.659099	-0.028122
H157	H	0.291440	0.687962	0.445857
H158	H	0.700756	0.237855	0.119402
Br159	Br	0.273254	0.919243	-0.077581
Br160	Br	0.273259	0.708515	-0.077583
H161	H	0.988538	0.270141	-0.032388
Br162	Br	0.273226	0.534340	0.096681
H163	H	0.586667	0.600847	-0.373346
Br164	Br	0.849001	0.613640	-0.465806
H165	H	1.110102	0.290574	0.105991
H166	H	0.291391	1.056483	0.077227
Br167	Br	0.576401	0.237925	-0.018189
Br168	Br	0.970302	0.684064	-0.121572
H169	H	0.412984	0.942733	0.081522
Br170	Br	0.431199	0.528801	0.102238
Br171	Br	0.431217	0.771470	-0.072015
H172	H	0.413017	0.683665	0.340627
H173	H	0.189410	0.654458	-0.023489
H174	H	0.605042	0.098143	-0.008346
H175	H	1.110161	0.290385	-0.396726
Br176	Br	1.207330	0.132565	0.042356
H177	H	0.291401	0.553821	0.311792
Br178	Br	-0.029691	0.509872	0.121138
H179	H	0.412993	0.549523	0.206542
H180	H	0.988508	0.270138	-0.157373
H181	H	0.700770	-0.024987	-0.070271
H182	H	0.849690	0.534201	-0.778154
H183	H	0.291430	1.056525	0.311714
H184	H	1.110075	0.659079	-0.262588
H185	H	0.230609	1.046413	0.431398
Br186	Br	0.431170	0.771599	0.344979
Br187	Br	0.700774	0.221429	-0.098636
H188	H	0.212128	0.558403	0.072618
H189	H	0.700781	0.347307	-0.070259
H190	H	0.551821	0.678688	-0.172704
H191	H	0.700752	-0.134469	-0.070264
Br192	Br	0.700739	-0.150812	0.147773
H193	H	0.700754	-0.024947	0.119394
H194	H	0.849695	0.534161	-0.668665
Br195	Br	0.970346	0.441275	-0.295842
H196	H	0.700749	0.347355	0.119413
H197	H	0.551820	0.678793	-0.654497
Br198	Br	0.552528	0.599208	-0.485053
Br199	Br	0.894259	0.512476	-0.440746
H200	H	0.551829	0.678704	-0.282204
