data_functionalizedCrystal
_audit_creation_method	'MofGen! by Chris Wilmer'
_symmetry_space_group_name_H-M	'P1'
_symmetry_Int_Tables_number	1
_symmetry_cell_setting	triclinic
loop_
_symmetry_equiv_pos_as_xyz
  x,y,z
_cell_length_a	18.215407
_cell_length_b	13.897448
_cell_length_c	13.897441
_cell_angle_alpha	89.969401
_cell_angle_beta	89.977966
_cell_angle_gamma	90.018140
loop_
_atom_site_label
_atom_site_type_symbol
_atom_site_fract_x
_atom_site_fract_y
_atom_site_fract_z
Zn1	Zn	1.125125	-0.383973	-0.545415
Zn2	Zn	1.125044	-0.545294	-0.384116
Zn3	Zn	1.002053	-0.384016	-0.384129
Zn4	Zn	1.002039	-0.545229	-0.545365
O5	O	1.063565	-0.464628	-0.464756
O6	O	1.228098	-0.405382	-0.524033
O7	O	1.108701	-0.523946	-0.249136
O8	O	1.018418	-0.249029	-0.405551
O9	O	1.228039	-0.523904	-0.405528
O10	O	1.108839	-0.248997	-0.524046
O11	O	1.018340	-0.405456	-0.249146
O12	O	0.899066	-0.405392	-0.405502
O13	O	1.018394	-0.523792	-0.680353
O14	O	0.899056	-0.523834	-0.523962
O15	O	1.108825	-0.405318	-0.680390
O16	O	1.108687	-0.680267	-0.405480
O17	O	1.018316	-0.680219	-0.523949
C18	C	0.872359	-0.464611	-0.464729
C19	C	0.790560	-0.464628	-0.464740
C20	C	0.602380	-0.526397	-0.526344
C21	C	0.525521	-0.526400	-0.526356
C22	C	0.525502	-0.402876	-0.403190
C23	C	0.602359	-0.402869	-0.403183
C24	C	0.640796	-0.464635	-0.464759
C25	C	0.487080	-0.464645	-0.464777
C26	C	0.403747	-0.464648	-0.464790
C27	C	0.724135	-0.464631	-0.464748
C28	C	1.063511	-0.715242	-0.464728
C29	C	1.063556	-0.822456	-0.464749
C30	C	1.063633	-1.018751	-0.464809
C31	C	1.063588	-0.909519	-0.464778
C32	C	1.255518	-0.464645	-0.464785
C33	C	1.337317	-0.464653	-0.464797
C34	C	1.063617	-0.464543	-0.716349
C35	C	1.063639	-0.464506	-0.823563
C36	C	1.063639	-0.213035	-0.464805
C37	C	1.063670	-0.105821	-0.464826
C38	C	1.063659	-0.464441	-1.019859
C39	C	1.063646	-0.464480	-0.910626
C40	C	1.063555	-0.464643	-0.214142
C41	C	1.063676	-0.464408	-0.106928
H42	H	0.633639	-0.352568	-0.353033
N43	N	0.484040	-0.336286	-0.336758
H44	H	0.452163	-0.291634	-0.376021
H45	H	0.452181	-0.375529	-0.292016
H46	H	0.633673	-0.576689	-0.576485
H47	H	0.494246	-0.576692	-0.576506
