data_functionalizedCrystal
_audit_creation_method	'MofGen! by Chris Wilmer'
_symmetry_space_group_name_H-M	'P1'
_symmetry_Int_Tables_number	1
_symmetry_cell_setting	triclinic
loop_
_symmetry_equiv_pos_as_xyz
  x,y,z
_cell_length_a	12.759395
_cell_length_b	12.759394
_cell_length_c	10.685314
_cell_angle_alpha	94.335597
_cell_angle_beta	94.352497
_cell_angle_gamma	90.014682
loop_
_atom_site_label
_atom_site_type_symbol
_atom_site_fract_x
_atom_site_fract_y
_atom_site_fract_z
Zn1	Zn	1.560716	-0.463718	-0.713366
Zn2	Zn	1.574079	-0.625977	-0.502369
Zn3	Zn	1.398486	-0.450313	-0.502396
Zn4	Zn	1.385009	-0.639352	-0.713319
O5	O	1.479573	-0.544840	-0.607863
O6	O	1.709509	-0.485254	-0.685386
O7	O	1.562019	-0.591467	-0.325798
O8	O	1.420053	-0.305072	-0.530413
O9	O	1.719327	-0.604465	-0.530367
O10	O	1.539243	-0.314921	-0.685412
O11	O	1.433011	-0.462408	-0.325817
O12	O	1.249677	-0.475378	-0.530367
O13	O	1.397084	-0.627262	-0.889900
O14	O	1.239776	-0.614264	-0.685330
O15	O	1.526176	-0.498224	-0.889935
O16	O	1.548951	-0.774770	-0.530321
O17	O	1.410042	-0.784597	-0.685304
C18	C	1.206606	-0.544818	-0.607847
C19	C	1.089828	-0.544836	-0.607870
C20	C	1.079568	-0.420936	-0.769552
C21	C	1.019577	-0.359000	-0.850403
C22	C	0.909855	-0.359019	-0.850419
C23	C	0.860121	-0.420980	-0.769572
C24	C	0.920113	-0.482916	-0.688721
C25	C	1.029837	-0.482892	-0.688717
C26	C	0.930372	-0.606809	-0.527035
C27	C	1.040095	-0.606797	-0.527023
C28	C	0.880639	-0.668770	-0.446188
C29	C	0.940630	-0.730713	-0.365341
C30	C	1.050359	-0.730692	-0.365330
C31	C	1.100086	-0.668733	-0.446172
C32	C	1.479511	-0.817806	-0.607832
C33	C	1.479579	-0.934584	-0.607861
C34	C	1.624318	-0.924306	-0.446597
C35	C	1.696714	-0.974028	-0.365981
C36	C	1.696773	-1.083752	-0.366015
C37	C	1.624431	-1.143756	-0.446677
C38	C	1.552035	-1.094034	-0.527294
C39	C	1.551981	-0.984307	-0.527249
C40	C	1.407302	-1.104313	-0.688562
C41	C	1.407236	-0.994589	-0.688524
C42	C	1.334960	-1.164317	-0.769225
C43	C	1.262557	-1.114595	-0.849838
C44	C	1.262500	-1.004864	-0.849799
C45	C	1.334840	-0.944866	-0.769141
C46	C	1.753605	-0.544863	-0.607879
C47	C	1.870381	-0.544873	-0.607886
C48	C	1.479661	-0.270810	-0.607921
C49	C	1.479698	-0.154035	-0.607946
C50	C	1.458636	-0.565730	-0.936982
C51	C	1.449714	-0.574632	-1.077232
C52	C	1.500488	-0.523955	-0.280024
C53	C	1.509613	-0.514757	-0.139774
H54	H	1.060082	-0.308551	-0.916225
Cl55	Cl	1.359995	-0.664301	-1.160222
Cl56	Cl	1.125768	-0.808556	-0.263677
Cl57	Cl	1.334624	-1.302221	-0.768734
Cl58	Cl	1.217505	-0.420921	-0.769555
Cl59	Cl	0.834435	-0.281148	-0.952053
H60	H	1.203551	-0.964387	-0.915452
H61	H	1.624264	-0.834961	-0.446545
Cl62	Cl	1.787658	-0.898590	-0.264587
H63	H	1.567711	-0.456675	-1.086022
H64	H	1.203667	-1.163459	-0.915512
H65	H	0.900128	-0.781152	-0.299517
Cl66	Cl	0.742701	-0.668790	-0.446202
Cl67	Cl	1.238023	-0.668705	-0.446170
Cl68	Cl	0.722184	-0.420988	-0.769579
H69	H	1.755729	-1.124236	-0.300376
Cl70	Cl	1.624098	-1.281660	-0.446183
Cl71	Cl	1.335057	-0.806950	-0.769453
