data_functionalizedCrystal
_audit_creation_method	'MofGen! by Chris Wilmer'
_symmetry_space_group_name_H-M	'P1'
_symmetry_Int_Tables_number	1
_symmetry_cell_setting	triclinic
loop_
_symmetry_equiv_pos_as_xyz
  x,y,z
_cell_length_a	19.188930
_cell_length_b	19.188930
_cell_length_c	9.730223
_cell_angle_alpha	89.982832
_cell_angle_beta	89.990488
_cell_angle_gamma	83.144779
loop_
_atom_site_label
_atom_site_type_symbol
_atom_site_fract_x
_atom_site_fract_y
_atom_site_fract_z
O1	O	0.087167	0.926144	-0.114747
O2	O	0.587167	1.426144	0.385253
O3	O	0.098902	0.722832	-0.114655
O4	O	0.598902	1.222832	0.385345
O5	O	-0.008621	0.830355	-0.114677
O6	O	0.491379	1.330355	0.385323
O7	O	0.194690	0.818621	-0.114725
O8	O	0.694690	1.318621	0.385275
O9	O	-0.008624	0.830348	0.113903
O10	O	0.491376	1.330348	0.613903
O11	O	0.098899	0.722825	0.113925
O12	O	0.598899	1.222825	0.613925
O13	O	0.087165	0.926137	0.113833
O14	O	0.587165	1.426137	0.613833
Zn15	Zn	0.093031	0.824480	0.150171
Zn16	Zn	0.593031	1.324480	0.650171
Zn17	Zn	0.093035	0.824489	-0.150993
Zn18	Zn	0.593035	1.324489	0.349007
O19	O	0.194687	0.818614	0.113855
O20	O	0.694687	1.318614	0.613855
C21	C	0.098520	0.696818	-0.000353
C22	C	0.598520	1.196818	0.499647
C23	C	0.097380	0.619313	-0.000316
C24	C	0.597380	1.119313	0.499684
C25	C	0.160470	0.574389	-0.000353
C26	C	0.660470	1.074389	0.499647
C27	C	0.159399	0.501566	-0.000368
C28	C	0.659399	1.001566	0.499632
C29	C	0.095233	0.473669	-0.000374
C30	C	0.595233	0.973669	0.499626
C31	C	0.032133	0.518603	-0.000329
C32	C	0.532133	1.018603	0.499671
C33	C	0.033207	0.591425	-0.000301
C34	C	0.533207	1.091425	0.499699
N35	N	0.046187	0.365691	-0.078213
N36	N	0.546187	0.865691	0.421787
N37	N	0.045171	0.296513	-0.078243
N38	N	0.545171	0.796513	0.421757
C39	C	0.091994	0.254260	-0.000457
C40	C	0.591994	0.754260	0.499543
N41	N	0.139882	0.283799	0.077343
N42	N	0.639882	0.783799	0.577343
N43	N	0.140900	0.352984	0.077367
N44	N	0.640900	0.852984	0.577367
C45	C	0.094062	0.394707	-0.000404
C46	C	0.594062	0.894707	0.499596
C47	C	0.153928	0.130372	-0.000508
C48	C	0.653928	0.630372	0.499492
C49	C	0.152853	0.057547	-0.000514
C50	C	0.652853	0.557547	0.499486
C51	C	0.025586	0.074586	-0.000489
C52	C	0.525586	0.574586	0.499511
C53	C	0.026662	0.147409	-0.000469
C54	C	0.526662	0.647409	0.499531
C55	C	0.090835	0.175298	-0.000485
C56	C	0.590835	0.675298	0.499515
C57	C	-0.034634	0.829972	-0.000383
C58	C	0.465366	1.329972	0.499617
C59	C	-0.112138	0.828831	-0.000370
C60	C	0.387862	1.328831	0.499630
C61	C	-0.157062	0.891922	-0.000392
C62	C	0.342938	1.391922	0.499608
C63	C	-0.229886	0.890850	-0.000414
C64	C	0.270114	1.390850	0.499586
C65	C	-0.257782	0.826684	-0.000386
C66	C	0.242218	1.326684	0.499614
C67	C	-0.212849	0.763585	-0.000372
C68	C	0.287151	1.263585	0.499628
C69	C	-0.140026	0.764658	-0.000364
C70	C	0.359974	1.264658	0.499636
N71	N	-0.365788	0.777634	0.077427
N72	N	0.134212	1.277634	0.577427
N73	N	-0.434967	0.776619	0.077422
N74	N	0.065033	1.276619	0.577422
C75	C	-0.477191	0.823446	-0.000412
C76	C	0.022809	1.323446	0.499588
N77	N	-0.447625	0.871337	-0.078225
N78	N	0.052375	1.371337	0.421775
N79	N	-0.378440	0.872355	-0.078214
N80	N	0.121560	1.372355	0.421786
C81	C	-0.336745	0.825513	-0.000395
C82	C	0.163255	1.325513	0.499605
C83	C	-0.601079	0.885379	-0.000459
C84	C	-0.101079	1.385379	0.499541
C85	C	-0.673904	0.884305	-0.000489
C86	C	-0.173904	1.384305	0.499511
C87	C	-0.656865	0.757038	-0.000433
C88	C	-0.156865	1.257038	0.499567
C89	C	-0.584042	0.758114	-0.000417
C90	C	-0.084042	1.258114	0.499583
C91	C	-0.556154	0.822286	-0.000424
C92	C	-0.056154	1.322286	0.499576
C93	C	0.220700	0.818997	-0.000442
C94	C	0.720700	1.318997	0.499558
C95	C	0.298204	0.820138	-0.000464
C96	C	0.798204	1.320138	0.499536
C97	C	0.087546	0.952151	-0.000472
C98	C	0.587546	1.452151	0.499528
C99	C	0.088687	1.029656	-0.000518
C100	C	0.588687	1.529656	0.499482
N101	N	0.093028	0.824479	0.355707
N102	N	0.593028	1.324479	0.855707
N103	N	0.093032	0.824496	-0.356529
N104	N	0.593032	1.324496	0.143471
C105	C	0.045437	0.872106	0.427624
C106	C	0.545437	1.372106	0.927624
C107	C	0.045437	0.872113	0.571507
C108	C	0.545437	1.372113	1.071507
C109	C	0.140626	0.776864	0.571544
C110	C	0.640626	1.276864	1.071544
C111	C	0.140622	0.776854	0.427664
C112	C	0.640622	1.276854	0.927664
H113	H	-0.020111	0.495885	-0.000353
H114	H	0.479889	0.995885	0.499647
H115	H	-0.018171	0.628003	-0.000272
H116	H	0.481829	1.128003	0.499728
O117	O	0.191957	0.725485	0.350081
O118	O	0.691957	1.225485	0.850081
H119	H	0.225060	0.692377	0.424286
H120	H	0.725060	1.192377	0.924286
O121	O	-0.005892	0.923482	0.649079
O122	O	0.494108	1.423482	1.149079
H123	H	0.023421	0.957319	0.714600
H124	H	0.523421	1.457319	1.214600
O125	O	0.223137	0.160461	-0.000497
O126	O	0.723137	0.660461	0.499503
H127	H	0.266830	0.116984	-0.000498
H128	H	0.766830	0.616984	0.499502
O129	O	0.220904	0.009087	-0.000548
O130	O	0.720904	0.509087	0.499452
H131	H	0.265704	0.040718	-0.000566
H132	H	0.765704	0.540718	0.499434
O133	O	-0.043625	0.044510	-0.000496
O134	O	0.456375	0.544510	0.499504
H135	H	-0.033773	-0.013676	-0.000529
H136	H	0.466227	0.486324	0.499471
H137	H	-0.578372	0.937632	-0.000471
H138	H	-0.078372	1.437632	0.499529
H139	H	-0.547464	0.706738	-0.000391
H140	H	-0.047464	1.206738	0.499609
O141	O	-0.722360	0.952358	-0.000500
O142	O	-0.222360	1.452358	0.499500
H143	H	-0.712452	0.983090	-0.093661
H144	H	-0.212452	1.483090	0.406339
H145	H	0.006682	0.910884	0.369040
H146	H	0.506682	1.410884	0.869040
O147	O	-0.126986	0.961136	-0.000410
O148	O	0.373014	1.461136	0.499590
H149	H	-0.068800	0.951286	-0.000390
H150	H	0.431200	1.451286	0.499610
H151	H	-0.679578	0.704792	-0.000417
H152	H	-0.179578	1.204792	0.499583
H153	H	0.212725	0.597091	-0.000368
H154	H	0.712725	1.097091	0.499632
O155	O	-0.278354	0.958900	-0.000419
O156	O	0.221646	1.458900	0.499581
H157	H	-0.246727	1.003702	-0.000411
H158	H	0.253273	1.503702	0.499589
H159	H	-0.235567	0.711340	-0.000352
H160	H	0.264433	1.211340	0.499648
O161	O	0.191966	0.725505	0.649152
O162	O	0.691966	1.225505	1.149152
H163	H	0.183981	0.733518	0.761284
H164	H	0.683981	1.233518	1.261284
O165	O	-0.091569	0.696606	-0.000314
O166	O	0.408431	1.196606	0.499686
H167	H	-0.101450	0.665884	-0.093461
H168	H	0.398550	1.165884	0.406539
O169	O	0.227448	0.453098	-0.000422
O170	O	0.727448	0.953098	0.499578
H171	H	0.272251	0.484725	-0.000438
H172	H	0.772251	0.984725	0.499562
O173	O	-0.041386	0.195871	-0.000442
O174	O	0.458614	0.695871	0.499558
H175	H	-0.086186	0.164240	-0.000457
H176	H	0.413814	0.664240	0.499543
