data_functionalizedCrystal
_audit_creation_method	'MofGen! by Chris Wilmer'
_symmetry_space_group_name_H-M	'P1'
_symmetry_Int_Tables_number	1
_symmetry_cell_setting	triclinic
loop_
_symmetry_equiv_pos_as_xyz
  x,y,z
_cell_length_a	12.827892
_cell_length_b	18.215407
_cell_length_c	18.215399
_cell_angle_alpha	90.019833
_cell_angle_beta	89.976162
_cell_angle_gamma	89.984160
loop_
_atom_site_label
_atom_site_type_symbol
_atom_site_fract_x
_atom_site_fract_y
_atom_site_fract_z
Zn1	Zn	-0.416031	-1.125121	-0.416137
Zn2	Zn	-0.590790	-1.125049	-0.293079
Zn3	Zn	-0.416065	-1.002053	-0.293084
Zn4	Zn	-0.590732	-1.002039	-0.416104
O5	O	-0.503405	-1.063566	-0.354601
O6	O	-0.439223	-1.228095	-0.399825
O7	O	-0.567651	-1.108710	-0.190096
O8	O	-0.269825	-1.018414	-0.309423
O9	O	-0.567618	-1.228043	-0.309415
O10	O	-0.269800	-1.108831	-0.399829
O11	O	-0.439282	-1.018345	-0.190099
O12	O	-0.439225	-0.899067	-0.309392
O13	O	-0.567519	-1.018390	-0.519093
O14	O	-0.567552	-0.899057	-0.399774
O15	O	-0.439167	-1.108818	-0.519117
O16	O	-0.737019	-1.108696	-0.309383
O17	O	-0.736976	-1.018321	-0.399769
C18	C	-0.503387	-0.872359	-0.354580
C19	C	-0.503405	-0.790560	-0.354589
C20	C	-0.774915	-1.063520	-0.354588
C21	C	-0.891068	-1.063567	-0.354607
C22	C	-0.503333	-1.063610	-0.546554
C23	C	-0.503302	-1.063629	-0.628353
C24	C	-0.942839	-1.108341	-0.309931
C25	C	-1.062889	-1.108391	-0.309950
C26	C	-0.230835	-1.063632	-0.354630
C27	C	-0.114682	-1.063660	-0.354643
C28	C	-0.503424	-1.255518	-0.354623
C29	C	-0.503432	-1.337317	-0.354632
C30	C	-0.570329	-0.602380	-0.401592
C31	C	-0.570333	-0.525522	-0.401601
C32	C	-0.436499	-0.525503	-0.307627
C33	C	-0.436491	-0.602360	-0.307622
C34	C	-0.503413	-0.640797	-0.354603
C35	C	-0.503424	-0.487081	-0.354617
C36	C	-0.503427	-0.403747	-0.354627
C37	C	-0.503408	-0.724136	-0.354595
C38	C	-0.436407	-1.110732	-0.816561
C39	C	-0.436376	-1.110741	-0.893420
C40	C	-0.570036	-1.016579	-0.893383
C41	C	-0.570060	-1.016567	-0.816526
C42	C	-0.503247	-1.063648	-0.778117
C43	C	-0.503192	-1.063668	-0.931833
C44	C	-0.503160	-1.063678	-1.015167
C45	C	-0.503278	-1.063638	-0.694778
C46	C	-0.503401	-1.063563	-0.163395
C47	C	-0.503138	-1.063687	-0.081597
H48	H	-0.898288	-1.146639	-0.271671
H49	H	-1.070167	-1.025323	-0.392891
O50	O	-1.116156	-1.154122	-0.264408
C51	C	-1.224161	-1.143999	-0.274573
H52	H	-1.238932	-1.119830	-0.331345
H53	H	-1.255251	-1.104858	-0.230891
C54	C	-1.262049	-1.248150	-0.198266
C55	C	-1.280191	-1.218471	-0.267997
H56	H	-1.296613	-1.294087	-0.194207
H57	H	-1.189284	-1.254969	-0.191415
H58	H	-1.287957	-1.215525	-0.161872
H59	H	-1.254271	-1.251091	-0.304389
H60	H	-1.352953	-1.211659	-0.274854
O61	O	-0.371554	-0.488242	-0.261886
C62	C	-0.394276	-0.506975	-0.188509
H63	H	-0.434436	-0.562774	-0.186932
H64	H	-0.447966	-0.463702	-0.163663
C65	C	-0.242996	-0.441986	-0.145987
C66	C	-0.292313	-0.510522	-0.144050
H67	H	-0.180102	-0.444171	-0.118561
H68	H	-0.227689	-0.429363	-0.195422
H69	H	-0.287748	-0.405933	-0.125283
H70	H	-0.247566	-0.546572	-0.164762
H71	H	-0.307610	-0.523152	-0.094617
O72	O	-0.944324	-1.017982	-0.400294
C73	C	-1.007343	-1.059922	-0.447848
H74	H	-1.023541	-1.115726	-0.421936
H75	H	-0.965281	-1.067931	-0.502412
C76	C	-1.091225	-0.950995	-0.492912
C77	C	-1.111127	-1.019532	-0.461084
H78	H	-1.155242	-0.926080	-0.501080
H79	H	-1.048765	-0.922738	-0.460876
H80	H	-1.056171	-0.957679	-0.538379
H81	H	-1.146168	-1.012847	-0.415614
H82	H	-1.153595	-1.047786	-0.493112
O83	O	-0.635359	-0.639605	-0.447302
C84	C	-0.694438	-0.589212	-0.488765
H85	H	-0.651644	-0.534433	-0.491363
H86	H	-0.773760	-0.581016	-0.461726
C87	C	-0.762191	-0.686517	-0.563880
C88	C	-0.709625	-0.619238	-0.567077
H89	H	-0.771564	-0.705038	-0.612185
H90	H	-0.722391	-0.720468	-0.535944
H91	H	-0.828286	-0.679677	-0.541344
H92	H	-0.643526	-0.626080	-0.589604
H93	H	-0.749414	-0.585288	-0.595018
O94	O	-0.635086	-0.970889	-0.930616
C95	C	-0.739246	-0.986960	-0.911837
H96	H	-0.741430	-1.015239	-0.856037
H97	H	-0.774431	-1.024797	-0.955094
C98	C	-0.799865	-0.880469	-0.976799
C99	C	-0.802547	-0.915197	-0.908262
H100	H	-0.838914	-0.836203	-0.974597
H101	H	-0.729691	-0.869643	-0.989454
H102	H	-0.829184	-0.912008	-1.012840
H103	H	-0.773217	-0.883662	-0.872225
H104	H	-0.872718	-0.926016	-0.895602
O105	O	-0.635046	-0.970930	-0.779095
C106	C	-0.702571	-1.012810	-0.734649
H107	H	-0.665721	-1.068588	-0.723155
H108	H	-0.780008	-1.020882	-0.764257
C109	C	-0.766767	-0.903798	-0.675748
C110	C	-0.721503	-0.972303	-0.661625
H111	H	-0.778450	-0.878811	-0.630704
H112	H	-0.721277	-0.875582	-0.705694
H113	H	-0.831292	-0.910534	-0.700423
H114	H	-0.656973	-0.965566	-0.636958
H115	H	-0.766982	-1.000517	-0.631673
O116	O	-0.635189	-0.488172	-0.447322
C117	C	-0.575785	-0.443731	-0.494919
H118	H	-0.493487	-0.466908	-0.499561
H119	H	-0.572149	-0.385473	-0.472176
C120	C	-0.728060	-0.414113	-0.565661
C121	C	-0.626982	-0.442582	-0.571367
H122	H	-0.759641	-0.413400	-0.612817
H123	H	-0.768083	-0.444050	-0.533593
H124	H	-0.725016	-0.365566	-0.546706
H125	H	-0.630028	-0.491130	-0.590314
H126	H	-0.586960	-0.412652	-0.603441
O127	O	-0.371592	-1.156513	-0.930847
C128	C	-0.431072	-1.204049	-0.975297
H129	H	-0.510262	-1.178079	-0.986796
H130	H	-0.442565	-1.258582	-0.945690
C131	C	-0.276284	-1.249288	-1.034190
C132	C	-0.373544	-1.217388	-1.048318
H133	H	-0.240797	-1.257519	-1.079232
H134	H	-0.236210	-1.217264	-1.004241
H135	H	-0.285875	-1.294728	-1.009516
H136	H	-0.363951	-1.171944	-1.072984
H137	H	-0.413615	-1.249405	-1.078273
H138	H	-0.381993	-0.633639	-0.269358
O139	O	-0.371402	-1.156482	-0.779363
C140	C	-0.312418	-1.198053	-0.829780
H141	H	-0.308784	-1.167918	-0.884561
H142	H	-0.350683	-1.253940	-0.837960
C143	C	-0.205670	-1.245690	-0.732520
C144	C	-0.201199	-1.208674	-0.799801
H145	H	-0.137066	-1.252245	-0.714027
H146	H	-0.245410	-1.217685	-0.698553
H147	H	-0.237562	-1.292258	-0.739346
H148	H	-0.169319	-1.162104	-0.792973
H149	H	-0.161450	-1.236671	-0.833767
