data_functionalizedCrystal
_audit_creation_method	'MofGen! by Chris Wilmer'
_symmetry_space_group_name_H-M	'P1'
_symmetry_Int_Tables_number	1
_symmetry_cell_setting	triclinic
loop_
_symmetry_equiv_pos_as_xyz
  x,y,z
_cell_length_a	21.295412
_cell_length_b	16.625548
_cell_length_c	16.625546
_cell_angle_alpha	90.023536
_cell_angle_beta	90.028210
_cell_angle_gamma	90.016407
loop_
_atom_site_label
_atom_site_type_symbol
_atom_site_fract_x
_atom_site_fract_y
_atom_site_fract_z
Zn1	Zn	-0.355924	-1.232647	0.320995
Zn2	Zn	-0.250655	-1.232560	0.455833
Zn3	Zn	-0.250669	-1.097819	0.321020
Zn4	Zn	-0.355886	-1.097780	0.455791
O5	O	-0.303283	-1.165202	0.388410
O6	O	-0.341969	-1.345468	0.338888
O7	O	-0.162567	-1.214667	0.437977
O8	O	-0.264653	-1.115757	0.208184
O9	O	-0.264629	-1.345404	0.437953
O10	O	-0.341983	-1.214815	0.208166
O11	O	-0.162578	-1.115673	0.338931
O12	O	-0.264617	-0.984981	0.338891
O13	O	-0.443981	-1.115690	0.437882
O14	O	-0.341919	-0.984952	0.437907
O15	O	-0.444008	-1.214777	0.338848
O16	O	-0.264592	-1.214629	0.568660
O17	O	-0.341906	-1.115606	0.568629
C18	C	-0.303266	-0.955711	0.388398
C19	C	-0.303273	-0.866090	0.388413
C20	C	-0.303257	-1.165125	0.597901
C21	C	-0.303267	-1.165166	0.687522
C22	C	-0.467474	-1.165239	0.388358
C23	C	-0.537442	-1.165255	0.388335
C24	C	-1.036915	-1.216925	0.336640
C25	C	-0.971173	-1.216919	0.336660
C26	C	-0.938282	-1.165324	0.388229
C27	C	-0.971138	-1.113747	0.439797
C28	C	-1.036880	-1.113760	0.439782
N29	N	-0.835053	-1.094721	0.394435
N30	N	-0.772602	-1.094711	0.394444
C31	C	-0.740207	-1.165282	0.388279
N32	N	-0.772623	-1.235866	0.382088
N33	N	-0.835080	-1.235875	0.382074
C34	C	-0.866996	-1.165304	0.388252
C35	C	-0.636072	-1.216854	0.336740
C36	C	-0.570329	-1.216849	0.336765
C37	C	-0.570295	-1.113669	0.439898
C38	C	-0.636038	-1.113681	0.439877
C39	C	-0.668922	-1.165272	0.388294
C40	C	-0.139732	-1.165211	0.388403
C41	C	-0.069764	-1.165351	0.388198
C42	C	-0.303301	-1.375510	0.388422
C43	C	-0.303309	-1.465132	0.388427
C44	C	-0.303300	-0.537914	0.388418
C45	C	-0.303291	-0.629222	0.388414
C46	C	-0.303286	-0.701999	0.388416
C47	C	-0.303278	-0.793313	0.388411
C48	C	-0.303324	-1.165300	0.178101
C49	C	-0.303341	-1.165342	0.088480
C50	C	-0.303332	-1.165307	1.015697
C51	C	-0.303316	-1.165265	0.924389
C52	C	-0.303299	-1.165236	0.851612
C53	C	-0.303283	-1.165196	0.760298
H54	H	-1.063686	-1.258939	0.294641
C55	C	-0.672176	-1.056927	0.496571
C56	C	-0.636001	-1.000163	0.553288
C57	C	-0.672139	-0.943401	0.609982
C58	C	-0.744452	-0.943404	0.609958
C59	C	-0.780631	-1.000171	0.553239
C60	C	-0.744493	-1.056932	0.496545
H61	H	-0.582467	-1.000159	0.553308
H62	H	-0.645356	-0.901379	0.651969
H63	H	-0.771203	-0.901386	0.651925
H64	H	-0.834165	-1.000175	0.553219
H65	H	-0.771275	-1.098954	0.454558
H66	H	-0.944354	-1.071739	0.481786
C67	C	-0.935029	-1.273649	0.279938
C68	C	-0.971200	-1.330395	0.223199
C69	C	-0.935058	-1.387122	0.166475
C70	C	-0.862746	-1.387103	0.166491
C71	C	-0.826570	-1.330354	0.223232
C72	C	-0.862712	-1.273627	0.279955
H73	H	-1.024734	-1.330411	0.223185
H74	H	-0.961838	-1.429131	0.124471
H75	H	-0.835991	-1.429096	0.124500
H76	H	-0.773036	-1.330338	0.223245
H77	H	-0.835932	-1.231619	0.321959
H78	H	-1.063625	-1.071761	0.481768
H79	H	-0.543516	-1.071663	0.481889
H80	H	-0.543584	-1.258852	0.294783
H81	H	-0.662849	-1.258862	0.294737
