data_functionalizedCrystal
_audit_creation_method	'MofGen! by Chris Wilmer'
_symmetry_space_group_name_H-M	'P1'
_symmetry_Int_Tables_number	1
_symmetry_cell_setting	triclinic
loop_
_symmetry_equiv_pos_as_xyz
  x,y,z
_cell_length_a	14.519709
_cell_length_b	13.596369
_cell_length_c	9.065218
_cell_angle_alpha	89.986598
_cell_angle_beta	95.651951
_cell_angle_gamma	89.999709
loop_
_atom_site_label
_atom_site_type_symbol
_atom_site_fract_x
_atom_site_fract_y
_atom_site_fract_z
O1	O	1.225285	0.081680	-0.193397
O2	O	1.558618	0.415013	0.139937
O3	O	1.891951	0.748347	0.473270
O4	O	0.956974	0.081712	-0.216171
O5	O	1.290308	0.415045	0.117162
O6	O	1.623641	0.748379	0.450495
O7	O	1.096675	0.081670	0.009962
O8	O	1.430009	0.415004	0.343296
O9	O	1.763342	0.748337	0.676629
O10	O	1.085584	0.081722	-0.419530
O11	O	1.418917	0.415055	-0.086197
O12	O	1.752250	0.748388	0.247136
O13	O	1.096661	-0.081913	0.009974
O14	O	1.429994	0.251421	0.343308
O15	O	1.763328	0.584754	0.676641
O16	O	0.956960	-0.081871	-0.216159
O17	O	1.290294	0.251462	0.117174
O18	O	1.623627	0.584796	0.450507
O19	O	1.225270	-0.081903	-0.193385
O20	O	1.558604	0.251430	0.139949
O21	O	1.891937	0.584764	0.473282
Zn22	Zn	1.091113	-0.107859	-0.204770
Zn23	Zn	1.424446	0.225474	0.128563
Zn24	Zn	1.757780	0.558807	0.461896
Zn25	Zn	1.091132	0.107668	-0.204786
Zn26	Zn	1.424465	0.441002	0.128547
Zn27	Zn	1.757798	0.774335	0.461881
O28	O	1.085569	-0.081861	-0.419518
O29	O	1.418903	0.251472	-0.086185
O30	O	1.752236	0.584806	0.247148
C31	C	0.922600	-0.000076	-0.215104
C32	C	1.255933	0.333258	0.118229
C33	C	1.589266	0.666591	0.451563
C34	C	0.820195	-0.000065	-0.211923
C35	C	1.153529	0.333269	0.121410
C36	C	1.486862	0.666602	0.454743
C37	C	0.445214	-0.000111	-0.200214
C38	C	0.778547	0.333223	0.133119
C39	C	1.111880	0.666556	0.466452
C40	C	0.549545	-0.000098	-0.203466
C41	C	0.882879	0.333236	0.129868
C42	C	1.216212	0.666569	0.463201
C43	C	0.632701	-0.000087	-0.206068
C44	C	0.966034	0.333247	0.127265
C45	C	1.299368	0.666580	0.460598
C46	C	0.737039	-0.000076	-0.209321
C47	C	1.070373	0.333258	0.124013
C48	C	1.403706	0.666591	0.457346
N49	N	1.091107	-0.254951	-0.204758
N50	N	1.424440	0.078382	0.128575
N51	N	1.757774	0.411716	0.461908
C52	C	1.091130	-0.656242	-0.204788
C53	C	1.424464	-0.322909	0.128546
C54	C	1.757797	0.010425	0.461879
C55	C	1.091121	-0.544591	-0.204784
C56	C	1.424455	-0.211257	0.128549
C57	C	1.757788	0.122076	0.461882
C58	C	1.091119	-0.455600	-0.204774
C59	C	1.424453	-0.122267	0.128559
C60	C	1.757786	0.211067	0.461893
C61	C	1.091109	-0.343942	-0.204769
C62	C	1.424442	-0.010608	0.128565
C63	C	1.757776	0.322725	0.461898
C64	C	1.259645	-0.000113	-0.194452
C65	C	1.592978	0.333220	0.138881
C66	C	1.926312	0.666554	0.472215
C67	C	1.362050	-0.000118	-0.197633
C68	C	1.695383	0.333216	0.135701
C69	C	2.028716	0.666549	0.469034
C70	C	1.095602	-0.000125	0.064935
C71	C	1.428936	0.333208	0.398268
C72	C	1.762269	0.666541	0.731602
C73	C	1.092415	-0.000138	0.228718
C74	C	1.425748	0.333195	0.562051
C75	C	1.759081	0.666529	0.895385
N76	N	1.091145	0.254760	-0.204786
N77	N	1.424478	0.588093	0.128547
N78	N	1.757812	0.921427	0.461881
C79	C	1.086642	-0.000090	0.525509
C80	C	1.419976	0.333243	0.858842
C81	C	1.753309	0.666576	1.192176
C82	C	1.089830	-0.000152	0.361726
C83	C	1.423163	0.333181	0.695059
C84	C	1.756496	0.666515	1.028392
