data_functionalizedCrystal
_audit_creation_method	'MofGen! by Chris Wilmer'
_symmetry_space_group_name_H-M	'P1'
_symmetry_Int_Tables_number	1
_symmetry_cell_setting	triclinic
loop_
_symmetry_equiv_pos_as_xyz
  x,y,z
_cell_length_a	33.510554
_cell_length_b	33.509711
_cell_length_c	33.506470
_cell_angle_alpha	60.004186
_cell_angle_beta	60.008358
_cell_angle_gamma	59.994760
loop_
_atom_site_label
_atom_site_type_symbol
_atom_site_fract_x
_atom_site_fract_y
_atom_site_fract_z
O1	O	0.055430	-0.583081	0.487524
O2	O	0.020931	-0.453975	0.392819
O3	O	0.102693	-0.535652	0.392731
O4	O	-0.026332	-0.501404	0.487613
O5	O	0.129823	-0.508526	0.419767
O6	O	0.048062	-0.426850	0.419856
O7	O	0.082561	-0.555956	0.514561
Cu8	Cu	0.067789	-0.488926	0.469677
Cu9	Cu	0.035703	-0.521005	0.437703
O10	O	0.000799	-0.474279	0.514649
N11	N	0.090357	-0.466366	0.492168
N12	N	0.013139	-0.543569	0.415212
C13	C	0.143028	-0.279707	0.544737
C14	C	0.143165	-0.413746	0.678712
C15	C	0.143043	-0.413725	0.544739
C16	C	0.277090	-0.413694	0.544637
C17	C	0.157791	-0.323929	0.559462
C18	C	0.157869	-0.398994	0.634489
C19	C	0.232865	-0.398963	0.559407
C20	C	0.157801	-0.398982	0.559463
C21	C	0.124237	-0.223419	0.525994
C22	C	0.124262	-0.432490	0.525997
C23	C	0.176583	-0.380217	0.578205
C24	C	0.358938	-0.399566	0.501510
C25	C	0.410104	-0.416609	0.484423
C26	C	0.410135	-0.499402	0.515995
C27	C	0.358969	-0.482358	0.533084
C28	C	0.136554	-0.197822	0.475693
C29	C	0.119469	-0.146653	0.458657
C30	C	0.077755	-0.146680	0.542223
C31	C	0.094840	-0.197850	0.559260
C32	C	0.073954	-0.420144	0.538396
C33	C	0.056884	-0.437203	0.521352
C34	C	0.140427	-0.478952	0.479524
C35	C	0.157498	-0.461894	0.496561
C36	C	0.074158	-0.420182	0.760618
C37	C	0.057149	-0.437256	0.811786
C38	C	0.140732	-0.479014	0.811717
C39	C	0.157740	-0.461942	0.760547
C40	C	0.124452	-0.432525	0.734999
C41	C	0.333372	-0.432439	0.525839
C42	C	-0.020612	-0.577650	0.170305
C43	C	-0.020943	-0.788098	0.380897
C44	C	-0.020912	-0.577638	0.380991
C45	C	-0.231336	-0.577418	0.380585
C46	C	-0.129735	-0.611383	0.346870
C47	C	-0.054722	-0.611464	0.347017
C48	C	-0.073450	-0.630202	0.328195
C49	C	-0.087616	-0.712029	0.371239
C50	C	-0.070599	-0.763199	0.388315
C51	C	0.012191	-0.763282	0.356872
C52	C	-0.004828	-0.712113	0.339795
C53	C	-0.155381	-0.623711	0.397158
C54	C	-0.206547	-0.606601	0.414133
C55	C	-0.206417	-0.564839	0.330529
C56	C	-0.155251	-0.581949	0.313554
C57	C	-0.067051	-0.561160	0.334643
C58	C	-0.050026	-0.544131	0.351759
C59	C	-0.008343	-0.627704	0.393612
C60	C	-0.025368	-0.644736	0.376502
C61	C	-0.066922	-0.561168	0.246303
C62	C	-0.049794	-0.544141	0.195134
C63	C	-0.008048	-0.627719	0.195183
C64	C	-0.025175	-0.644745	0.246352
C65	C	-0.054614	-0.611468	0.271911
C66	C	-0.054732	-0.686488	0.346980
C67	C	-0.002117	-0.558258	0.114025
C68	C	-0.002879	-0.844379	0.399940
C69	C	-0.002504	-0.558243	0.399473
C70	C	-0.287615	-0.558285	0.398601
N71	N	0.434975	-0.466279	0.491900
O72	O	0.591199	-0.470749	0.375150
O73	O	0.591395	-0.565767	0.504116
O74	O	0.591311	-0.565550	0.422329
O75	O	0.591283	-0.470966	0.456937
O76	O	0.510024	-0.538522	0.449509
O77	O	0.510108	-0.538739	0.531297
O78	O	0.509913	-0.443721	0.402330
Cu79	Cu	0.502588	-0.488762	0.469295
Cu80	Cu	0.598719	-0.520726	0.437151
O81	O	0.509997	-0.443938	0.484117
N82	N	0.666332	-0.543209	0.414541
N83	N	0.090323	-0.121809	0.492157
O84	O	-0.026342	0.034503	0.487582
O85	O	0.102626	0.034543	0.392540
O86	O	0.020797	0.034507	0.392812
O87	O	0.055487	0.034539	0.487310
O88	O	0.047933	-0.046785	0.419900
O89	O	0.129763	-0.046749	0.419628
O90	O	0.000794	-0.046789	0.514670
Cu91	Cu	0.067756	-0.054192	0.469623
Cu92	Cu	0.035664	0.041946	0.437588
O93	O	0.082623	-0.046753	0.514399
N94	N	0.013091	0.109564	0.415054
N95	N	0.090671	-0.466416	0.836606
O96	O	0.086120	-0.583065	0.992910
O97	O	-0.008880	-0.454051	0.992954
O98	O	-0.008658	-0.535864	0.992931
O99	O	0.085897	-0.501252	0.992933
O100	O	0.018407	-0.508749	0.911642
O101	O	0.018185	-0.426936	0.911665
O102	O	0.113185	-0.555949	0.911621
Cu103	Cu	0.068156	-0.488967	0.904221
Cu104	Cu	0.036148	-0.521034	1.000355
O105	O	0.112963	-0.474136	0.911644
N106	N	0.013633	-0.543590	1.067970
C107	C	0.031262	-0.424144	0.393290
C108	C	0.132513	-0.525291	0.393180
C109	C	0.072229	-0.585787	0.514090
C110	C	-0.029022	-0.484640	0.514200
C111	C	0.550775	-0.565338	0.533954
C112	C	0.550672	-0.565070	0.432670
C113	C	0.550530	-0.444149	0.372492
C114	C	0.550635	-0.444418	0.473776
C115	C	0.132408	-0.005998	0.392963
C116	C	0.031106	-0.006142	0.393333
C117	C	-0.029021	-0.006147	0.514213
C118	C	0.072314	-0.006104	0.513878
C119	C	-0.008430	-0.424240	0.952316
C120	C	-0.008150	-0.525550	0.952271
C121	C	0.112735	-0.585760	0.952260
C122	C	0.112461	-0.484444	0.952286
H123	H	0.047048	-0.396226	0.739820
C124	C	0.592512	-0.646129	0.428003
C125	C	0.550688	-0.605183	0.422676
H126	H	0.592521	-0.670892	0.421830
H127	H	0.592549	-0.658072	0.460352
H128	H	0.620830	-0.637194	0.405431
H129	H	0.522370	-0.614118	0.445250
H130	H	0.550646	-0.593240	0.390322
C131	C	0.550559	-0.362367	0.442136
C132	C	0.550626	-0.404306	0.483766
H133	H	0.550558	-0.337605	0.448303
H134	H	0.522193	-0.351097	0.434417
H135	H	0.578886	-0.369956	0.415456
H136	H	0.522297	-0.396718	0.510445
H137	H	0.578995	-0.415578	0.491492
H138	H	0.169370	-0.005761	0.363053
H139	H	0.550467	-0.414317	0.335455
H140	H	0.142562	-0.622811	0.952240
H141	H	0.142166	-0.477036	0.952281
C142	C	-0.061342	-0.502268	0.910431
C143	C	-0.048238	-0.535526	0.952225
H144	H	-0.086093	-0.508425	0.910406
H145	H	-0.033541	-0.505912	0.882094
H146	H	-0.073286	-0.469910	0.910456
H147	H	-0.036291	-0.567884	0.952199
H148	H	-0.076045	-0.531886	0.980569
H149	H	0.016194	-0.427197	0.832639
H150	H	0.079744	-0.006095	0.543566
C151	C	0.176060	-0.192653	0.391376
C152	C	0.168864	-0.225927	0.439126
H153	H	0.196004	-0.210006	0.368803
H154	H	0.191680	-0.172689	0.386448
H155	H	0.145374	-0.172702	0.386493
H156	H	0.199550	-0.245876	0.444011
H157	H	0.153244	-0.245899	0.444056
H158	H	-0.134369	-0.571905	0.272603
C159	C	-0.026612	-0.006198	0.370895
C160	C	0.021087	-0.006172	0.353257
H161	H	-0.032793	-0.006225	0.346156
H162	H	-0.049159	0.022152	0.379786
H163	H	-0.030229	-0.034545	0.398702
H164	H	0.024702	0.022177	0.325453
H165	H	0.043640	-0.034525	0.344360
H166	H	0.338097	-0.358917	0.495611
H167	H	-0.066081	-0.477343	0.543993
C168	C	-0.100558	0.035634	0.567576
C169	C	-0.079019	-0.006158	0.554496
H170	H	-0.131423	0.035625	0.592448
H171	H	-0.104862	0.063974	0.539805
H172	H	-0.079999	0.035639	0.579354
H173	H	-0.099577	-0.006162	0.542715
H174	H	-0.074717	-0.034506	0.582273
C175	C	0.206737	-0.553985	0.827416
C176	C	0.177319	-0.511348	0.839804
H177	H	0.229321	-0.573950	0.844760
H178	H	0.224066	-0.545581	0.793281
H179	H	0.186774	-0.571344	0.835814
H180	H	0.197282	-0.493987	0.831403
H181	H	0.159989	-0.519751	0.873947
C182	C	0.220930	-0.454319	0.682081
C183	C	0.213027	-0.475512	0.732388
H184	H	0.255062	-0.462699	0.664699
H185	H	0.206547	-0.419800	0.673711
H186	H	0.206547	-0.466093	0.673715
H187	H	0.227408	-0.463735	0.740755
H188	H	0.227417	-0.510038	0.740761
C189	C	-0.010342	-0.380581	0.578022
C190	C	0.037419	-0.387819	0.570746
H191	H	-0.032897	-0.360622	0.597991
H192	H	-0.015242	-0.411251	0.593645
H193	H	-0.015281	-0.364954	0.547361
H194	H	0.042359	-0.403450	0.601406
H195	H	0.042321	-0.357143	0.555123
C196	C	0.224726	-0.518509	0.439888
C197	C	0.176965	-0.511276	0.447168
H198	H	0.247281	-0.538461	0.419911
H199	H	0.229670	-0.534138	0.470542
H200	H	0.229621	-0.487832	0.424266
H201	H	0.172069	-0.541952	0.462794
H202	H	0.172020	-0.495648	0.416509
C203	C	-0.010820	-0.398032	0.492351
C204	C	0.001584	-0.423633	0.534980
H205	H	-0.044961	-0.389652	0.500765
H206	H	0.006527	-0.417983	0.472384
H207	H	-0.002447	-0.369095	0.474997
H208	H	-0.006786	-0.452573	0.552332
H209	H	-0.015769	-0.403682	0.554954
C210	C	0.220764	-0.454279	0.504106
C211	C	0.212798	-0.475462	0.482935
H212	H	0.254904	-0.462655	0.495691
H213	H	0.206425	-0.466060	0.538628
H214	H	0.206372	-0.419755	0.492351
H215	H	0.227187	-0.509987	0.494693
H216	H	0.227144	-0.463684	0.448406
C217	C	0.343224	-0.542330	0.528777
C218	C	0.330873	-0.518499	0.559823
H219	H	0.325877	-0.564641	0.545284
H220	H	0.377357	-0.559617	0.519639
H221	H	0.334805	-0.518891	0.500357
H222	H	0.339296	-0.541937	0.588241
H223	H	0.296732	-0.501211	0.568968
C224	C	0.404939	-0.333057	0.454922
C225	C	0.438210	-0.380473	0.457675
H226	H	0.422292	-0.310749	0.438404
H227	H	0.385008	-0.331756	0.486978
H228	H	0.384958	-0.324506	0.437508
H229	H	0.458189	-0.389026	0.475092
H230	H	0.458149	-0.381775	0.425613
C231	C	0.038248	-0.151846	0.626538
C232	C	0.045445	-0.118571	0.578789
H233	H	0.018298	-0.134493	0.649112
H234	H	0.068929	-0.171793	0.631424
H235	H	0.022629	-0.171813	0.631464
H236	H	0.061068	-0.098606	0.573862
H237	H	0.014759	-0.098615	0.573901
H238	H	-0.038255	-0.387188	0.952329
H239	H	0.430973	-0.540048	0.521891
H240	H	0.079602	-0.622875	0.543835
H241	H	0.015562	-0.654800	0.417614
C242	C	0.124006	-0.255364	0.626857
C243	C	0.081319	-0.225970	0.614554
H244	H	0.115661	-0.272722	0.660996
H245	H	0.141356	-0.235383	0.618427
H246	H	0.143947	-0.277928	0.609497
H247	H	0.061379	-0.203404	0.631912
H248	H	0.063962	-0.245952	0.622990
C249	C	-0.154158	-0.757977	0.417785
C250	C	-0.106756	-0.791275	0.415051
H251	H	-0.176483	-0.775313	0.434315
H252	H	-0.155452	-0.738056	0.385723
H253	H	-0.162689	-0.737987	0.435179
H254	H	-0.098224	-0.811264	0.397654
H255	H	-0.105460	-0.811206	0.447119
C256	C	0.054581	-0.352444	0.339991
C257	C	0.021314	-0.374079	0.353132
H258	H	0.048436	-0.321535	0.315201
H259	H	0.086930	-0.372909	0.328088
H260	H	0.050933	-0.348210	0.367770
H261	H	0.024965	-0.378316	0.325353
H262	H	-0.011043	-0.353609	0.365033
C263	C	-0.092794	-0.463237	0.200233
C264	C	-0.063336	-0.488845	0.166991
H265	H	-0.101155	-0.429101	0.182857
H266	H	-0.075472	-0.471637	0.220233
H267	H	-0.121737	-0.471602	0.220149
H268	H	-0.034391	-0.480483	0.147078
H269	H	-0.080658	-0.480443	0.146982
C270	C	-0.092910	-0.463227	0.308642
C271	C	-0.063560	-0.488836	0.338145
H272	H	-0.101258	-0.429091	0.300231
H273	H	-0.121860	-0.471566	0.325954
H274	H	-0.075513	-0.471651	0.279727
H275	H	-0.080958	-0.480415	0.367061
H276	H	-0.034605	-0.480494	0.320832
H277	H	-0.090896	-0.534066	0.267110
C278	C	-0.001309	-0.693680	0.179415
C279	C	0.024302	-0.664300	0.167094
H280	H	0.018665	-0.716266	0.162076
H281	H	-0.030206	-0.673691	0.170970
H282	H	-0.009747	-0.711012	0.213555
H283	H	0.032737	-0.646965	0.132955
H284	H	0.053208	-0.684291	0.175536
C285	C	-0.054321	-0.712344	0.303859
C286	C	-0.011645	-0.700039	0.274502
H287	H	-0.045968	-0.746479	0.321239
H288	H	-0.071637	-0.703943	0.283851
H289	H	-0.074299	-0.694961	0.326401
H290	H	0.008331	-0.717420	0.251957
H291	H	0.005678	-0.708446	0.294512
C292	C	0.084752	-0.820887	0.321346
C293	C	0.067047	-0.791455	0.348980
H294	H	0.118616	-0.838282	0.316476
H295	H	0.080054	-0.800927	0.290583
H296	H	0.067597	-0.843418	0.338242
H297	H	0.084200	-0.768921	0.332082
H298	H	0.071749	-0.811416	0.379748
C299	C	0.550868	-0.588202	0.614215
C300	C	0.550849	-0.605610	0.583955
H301	H	0.550917	-0.613066	0.645082
H302	H	0.522506	-0.560446	0.618522
H303	H	0.579199	-0.579295	0.599565
H304	H	0.522516	-0.614514	0.598604
H305	H	0.579214	-0.633375	0.579650
H306	H	-0.090949	-0.534065	0.310634
C307	C	0.017547	-0.725639	0.419587
C308	C	-0.011815	-0.700030	0.390096
H309	H	0.025917	-0.759775	0.427976
H310	H	0.000153	-0.717237	0.448510
H311	H	0.046489	-0.717279	0.402272
H312	H	-0.040759	-0.708388	0.407413
H313	H	0.005579	-0.708437	0.361169
H314	H	0.021953	-0.691318	0.320042
C315	C	-0.149378	-0.654439	0.333768
C316	C	-0.142469	-0.683855	0.379127
H317	H	-0.183241	-0.637041	0.338637
H318	H	-0.137362	-0.674410	0.315028
H319	H	-0.132220	-0.631911	0.316882
H320	H	-0.159624	-0.706386	0.396012
H321	H	-0.154491	-0.663882	0.397875
H322	H	0.129496	-0.125810	0.417697
H323	H	-0.134607	-0.647683	0.424287
C324	C	0.191288	-0.574418	0.341696
C325	C	0.182538	-0.535140	0.352956
H326	H	0.222172	-0.580500	0.316866
H327	H	0.166424	-0.566687	0.330485
H328	H	0.191210	-0.602709	0.370101
H329	H	0.182613	-0.506848	0.324552
H330	H	0.207409	-0.542869	0.364165
C331	C	-0.201540	-0.649609	0.495071
C332	C	-0.234742	-0.620157	0.469414
H333	H	-0.218946	-0.657982	0.529199
H334	H	-0.181581	-0.632275	0.486729
H335	H	-0.181580	-0.678548	0.486691
H336	H	-0.254699	-0.591216	0.477791
H337	H	-0.254709	-0.637490	0.477760
H338	H	-0.227194	-0.540877	0.303400
