data_functionalizedCrystal
_audit_creation_method	'MofGen! by Chris Wilmer'
_symmetry_space_group_name_H-M	'P1'
_symmetry_Int_Tables_number	1
_symmetry_cell_setting	triclinic
loop_
_symmetry_equiv_pos_as_xyz
  x,y,z
_cell_length_a	15.944551
_cell_length_b	14.971486
_cell_length_c	13.448316
_cell_angle_alpha	90.001801
_cell_angle_beta	89.992444
_cell_angle_gamma	96.443566
loop_
_atom_site_label
_atom_site_type_symbol
_atom_site_fract_x
_atom_site_fract_y
_atom_site_fract_z
O1	O	0.109463	-1.186829	-0.082580
O2	O	0.609463	-0.686829	0.417420
O3	O	0.122572	-0.926415	-0.082607
O4	O	0.622572	-0.426415	0.417393
O5	O	-0.006250	-1.063733	-0.082584
O6	O	0.493750	-0.563733	0.417416
O7	O	0.238286	-1.049511	-0.082603
O8	O	0.738286	-0.549511	0.417397
O9	O	-0.006258	-1.063716	0.082800
O10	O	0.493742	-0.563716	0.582800
O11	O	0.122564	-0.926398	0.082777
O12	O	0.622564	-0.426398	0.582777
O13	O	0.109456	-1.186812	0.082804
O14	O	0.609456	-0.686812	0.582804
Cu15	Cu	0.116009	-1.056603	0.097891
Cu16	Cu	0.616009	-0.556603	0.597891
Cu17	Cu	0.116018	-1.056624	-0.097694
Cu18	Cu	0.616018	-0.556624	0.402306
O19	O	0.238278	-1.049494	0.082781
O20	O	0.738278	-0.549494	0.582781
C21	C	0.121982	-0.893082	0.000081
C22	C	0.621982	-0.393082	0.500081
C23	C	0.120225	-0.793787	0.000071
C24	C	0.620225	-0.293787	0.500071
C25	C	-0.037549	-1.063134	0.000108
C26	C	0.462451	-0.563134	0.500108
C27	C	-0.130797	-1.061364	0.000109
C28	C	0.369203	-0.561364	0.500109
N29	N	0.116002	-1.056595	0.235456
N30	N	0.616002	-0.556595	0.735456
C31	C	-0.345738	-0.972017	0.000086
C32	C	0.154262	-0.472017	0.500086
C33	C	-0.406720	-1.013498	0.081634
C34	C	0.093280	-0.513498	0.581634
C35	C	-0.301526	-1.058162	0.000101
C36	C	0.198474	-0.558162	0.500101
C37	C	-0.406696	-1.013536	-0.081421
C38	C	0.093304	-0.513536	0.418579
C39	C	-0.466441	-1.055062	0.000089
C40	C	0.033559	-0.555062	0.500089
C41	C	-0.361279	-1.099667	0.081717
C42	C	0.138721	-0.599667	0.581717
C43	C	-0.361248	-1.099692	-0.081412
C44	C	0.138752	-0.599692	0.418588
C45	C	-0.422212	-1.141236	0.000156
C46	C	0.077788	-0.641236	0.500156
C47	C	-0.206522	-1.059945	0.000109
C48	C	0.293478	-0.559945	0.500109
C49	C	-0.561444	-1.053286	0.000088
C50	C	-0.061444	-0.553286	0.500088
C51	C	0.269576	-1.050093	0.000087
C52	C	0.769576	-0.550093	0.500087
C53	C	0.362824	-1.051863	0.000080
C54	C	0.862824	-0.551863	0.500080
C55	C	0.110046	-1.220145	0.000113
C56	C	0.610046	-0.720145	0.500113
C57	C	0.111802	-1.319440	0.000117
C58	C	0.611802	-0.819440	0.500117
C59	C	0.195904	-0.736480	0.000067
C60	C	0.695904	-0.236480	0.500067
C61	C	0.194249	-0.643182	0.000082
C62	C	0.694249	-0.143182	0.500082
C63	C	0.116913	-0.607194	0.000094
C64	C	0.616913	-0.107194	0.500094
C65	C	0.041227	-0.664508	0.000102
C66	C	0.541227	-0.164508	0.500102
C67	C	0.042884	-0.757804	0.000094
C68	C	0.542884	-0.257804	0.500094
C69	C	0.037780	-0.470049	0.000116
C70	C	0.537780	0.029951	0.500116
C71	C	0.036123	-0.376747	0.000122
C72	C	0.536123	0.123253	0.500122
C73	C	0.189145	-0.355428	0.000104
C74	C	0.689145	0.144572	0.500104
C75	C	0.190801	-0.448724	0.000096
C76	C	0.690801	0.051276	0.500096
C77	C	0.115116	-0.506032	0.000101
C78	C	0.615116	-0.006032	0.500101
N79	N	0.116019	-1.056639	-0.235258
N80	N	0.616019	-0.556639	0.264742
C81	C	0.058983	-1.117419	0.287506
C82	C	0.558983	-0.617419	0.787506
C83	C	0.058982	-1.117425	0.391610
C84	C	0.558982	-0.617425	0.891610
C85	C	0.116005	-1.056610	0.443660
C86	C	0.616005	-0.556610	0.943660
C87	C	0.173027	-0.995780	0.391602
C88	C	0.673027	-0.495780	0.891602
C89	C	0.173023	-0.995771	0.287501
C90	C	0.673023	-0.495771	0.787501
C91	C	0.173033	-0.995805	0.608582
C92	C	0.673033	-0.495805	1.108582
C93	C	0.173038	-0.995815	0.712691
C94	C	0.673038	-0.495815	1.212691
C95	C	0.058992	-1.117459	0.712691
C96	C	0.558992	-0.617459	1.212691
C97	C	0.058988	-1.117449	0.608590
C98	C	0.558988	-0.617449	1.108590
C99	C	0.116011	-1.056620	0.556539
C100	C	0.616011	-0.556620	1.056539
H101	H	-0.312499	-0.900512	0.000160
H102	H	0.187501	-0.400512	0.500160
H103	H	-0.426804	-0.977096	-0.150369
H104	H	0.073196	-0.477096	0.349631
H105	H	0.258881	-0.765774	0.000056
H106	H	0.758881	-0.265774	0.500056
H107	H	0.219452	-0.946241	0.245122
H108	H	0.719452	-0.446241	0.745122
H109	H	0.219471	-0.946293	0.755065
H110	H	0.719471	-0.446293	1.255065
H111	H	0.219464	-0.946269	0.566206
H112	H	0.719464	-0.446269	1.066206
H113	H	0.012552	-1.166945	0.245134
H114	H	0.512552	-0.666945	0.745134
H115	H	-0.426866	-0.977055	0.150570
H116	H	0.073134	-0.477055	0.650570
H117	H	0.255875	-0.596526	0.000077
H118	H	0.755875	-0.096526	0.500077
H119	H	0.253775	-0.478022	0.000076
H120	H	0.753775	0.021978	0.500076
H121	H	0.250771	-0.308763	0.000103
H122	H	0.750771	0.191237	0.500103
H123	H	-0.026851	-0.347448	0.000133
H124	H	0.473149	0.152552	0.500133
H125	H	-0.341257	-1.136065	0.150735
H126	H	0.158743	-0.636065	0.650735
N127	N	-0.043851	-0.531863	0.000128
N128	N	0.456149	-0.031863	0.500128
H129	H	-0.093095	-0.494909	0.000134
H130	H	0.406905	0.005091	0.500134
H131	H	-0.046492	-0.571034	-0.061184
H132	H	0.453508	-0.071034	0.438816
N133	N	-0.002488	-1.183057	0.447751
N134	N	0.497512	-0.683057	0.947751
H135	H	-0.038598	-1.221595	0.398981
H136	H	0.461402	-0.721595	0.898981
H137	H	0.029768	-1.222584	0.490911
H138	H	0.529768	-0.722584	0.990911
N139	N	-0.002508	-1.183046	0.552445
N140	N	0.497492	-0.683046	1.052445
H141	H	-0.038633	-1.221581	0.601214
H142	H	0.461367	-0.721581	1.101214
H143	H	-0.039696	-1.148799	0.509266
H144	H	0.460304	-0.648799	1.009266
H145	H	-0.021741	-0.635199	0.000126
H146	H	0.478259	-0.135199	0.500126
N147	N	-0.038741	-0.819618	0.000106
N148	N	0.461259	-0.319618	0.500106
H149	H	-0.087986	-0.782664	0.000115
H150	H	0.412014	-0.282664	0.500115
H151	H	-0.041388	-0.858793	-0.061204
H152	H	0.458612	-0.358793	0.438796
H153	H	-0.455303	-1.212804	0.000210
H154	H	0.044697	-0.712804	0.500210
N155	N	-0.002511	-1.183071	0.768824
N156	N	0.497489	-0.683071	1.268824
H157	H	0.006139	-1.173848	0.842670
H158	H	0.506139	-0.673848	1.342670
H159	H	-0.062118	-1.172743	0.750639
H160	H	0.437882	-0.672743	1.250639
H161	H	0.219453	-0.946260	0.433988
H162	H	0.719453	-0.446260	0.933988
H163	H	-0.341080	-1.136104	-0.150351
H164	H	0.158920	-0.636104	0.349649
