data_functionalizedCrystal
_audit_creation_method	'MofGen! by Chris Wilmer'
_symmetry_space_group_name_H-M	'P1'
_symmetry_Int_Tables_number	1
_symmetry_cell_setting	triclinic
loop_
_symmetry_equiv_pos_as_xyz
  x,y,z
_cell_length_a	10.654562
_cell_length_b	14.519709
_cell_length_c	13.596369
_cell_angle_alpha	90.008809
_cell_angle_beta	89.991227
_cell_angle_gamma	95.914876
loop_
_atom_site_label
_atom_site_type_symbol
_atom_site_fract_x
_atom_site_fract_y
_atom_site_fract_z
O1	O	1.666589	-0.129582	-0.081876
O2	O	1.916589	0.120418	0.168124
O3	O	2.166589	0.370418	0.418124
O4	O	2.416589	0.620418	0.668124
O5	O	1.300994	-0.141911	-0.081866
O6	O	1.550994	0.108089	0.168134
O7	O	1.800994	0.358089	0.418134
O8	O	2.050994	0.608089	0.668134
O9	O	1.493485	-0.001558	-0.081844
O10	O	1.743485	0.248442	0.168156
O11	O	1.993485	0.498442	0.418156
O12	O	2.243485	0.748442	0.668156
O13	O	1.474099	-0.269934	-0.081899
O14	O	1.724099	-0.019934	0.168101
O15	O	1.974099	0.230066	0.418101
O16	O	2.224099	0.480066	0.668101
O17	O	1.493461	-0.001566	0.081739
O18	O	1.743461	0.248434	0.331739
O19	O	1.993461	0.498434	0.581739
O20	O	2.243461	0.748434	0.831739
O21	O	1.300971	-0.141918	0.081717
O22	O	1.550971	0.108082	0.331717
O23	O	1.800971	0.358082	0.581717
O24	O	2.050971	0.608082	0.831717
O25	O	1.666566	-0.129590	0.081706
O26	O	1.916566	0.120410	0.331706
O27	O	2.166566	0.370410	0.581706
O28	O	2.416566	0.620410	0.831706
Zn29	Zn	1.483765	-0.135755	0.107684
Zn30	Zn	1.733765	0.114245	0.357684
Zn31	Zn	1.983765	0.364245	0.607684
Zn32	Zn	2.233765	0.614245	0.857684
Zn33	Zn	1.483796	-0.135745	-0.107844
Zn34	Zn	1.733796	0.114255	0.142156
Zn35	Zn	1.983796	0.364255	0.392156
Zn36	Zn	2.233796	0.614255	0.642156
O37	O	1.474075	-0.269942	0.081684
O38	O	1.724075	-0.019942	0.331684
O39	O	1.974075	0.230058	0.581684
O40	O	2.224075	0.480058	0.831684
C41	C	1.254194	-0.141007	-0.000073
C42	C	1.504194	0.108993	0.249927
C43	C	1.754194	0.358993	0.499927
C44	C	2.004194	0.608993	0.749927
C45	C	1.114777	-0.138291	-0.000068
C46	C	1.364777	0.111709	0.249932
C47	C	1.614777	0.361709	0.499932
C48	C	1.864777	0.611709	0.749932
C49	C	1.049246	-0.137029	0.089094
C50	C	1.299246	0.112971	0.339094
C51	C	1.549246	0.362971	0.589094
C52	C	1.799246	0.612971	0.839094
C53	C	0.918248	-0.134484	0.089078
C54	C	1.168248	0.115516	0.339078
C55	C	1.418248	0.365516	0.589078
C56	C	1.668248	0.615516	0.839078
C57	C	0.918324	-0.134469	-0.089269
C58	C	1.168324	0.115531	0.160731
C59	C	1.418324	0.365531	0.410731
C60	C	1.668324	0.615531	0.660731
C61	C	1.049321	-0.137007	-0.089252
C62	C	1.299321	0.112993	0.160748
C63	C	1.549321	0.362993	0.410748
C64	C	1.799321	0.612993	0.660748
C65	C	1.049200	-0.137041	0.192061
C66	C	1.299200	0.112959	0.442061
C67	C	1.549200	0.362959	0.692061
C68	C	1.799200	0.612959	0.942061
C69	C	0.918202	-0.134497	0.192045
C70	C	1.168202	0.115503	0.442045
C71	C	1.418202	0.365503	0.692045
C72	C	1.668202	0.615503	0.942045
C73	C	1.492570	0.032802	-0.000048
C74	C	1.742570	0.282802	0.249952
C75	C	1.992570	0.532802	0.499952
C76	C	2.242570	0.782802	0.749952
C77	C	1.489862	0.135198	-0.000033
C78	C	1.739862	0.385198	0.249967
C79	C	1.989862	0.635198	0.499967
C80	C	2.239862	0.885198	0.749967
C81	C	1.479895	0.510145	-0.000006
C82	C	1.729895	0.760145	0.249994
C83	C	1.979895	1.010145	0.499994
C84	C	2.229895	1.260145	0.749994
C85	C	1.482663	0.405823	-0.000013
C86	C	1.732663	0.655823	0.249987
C87	C	1.982663	0.905823	0.499987
C88	C	2.232663	1.155823	0.749987
C89	C	1.484879	0.322675	-0.000018
C90	C	1.734879	0.572675	0.249982
C91	C	1.984879	0.822675	0.499982
C92	C	2.234879	1.072675	0.749982
C93	C	1.487647	0.218346	-0.000027
C94	C	1.737647	0.468346	0.249973
C95	C	1.987647	0.718346	0.499973
C96	C	2.237647	0.968346	0.749973
C97	C	1.713367	-0.130493	-0.000089
C98	C	1.963367	0.119507	0.249911
C99	C	2.213367	0.369507	0.499911
C100	C	2.463367	0.619507	0.749911
C101	C	1.852783	-0.133209	-0.000101
C102	C	2.102783	0.116791	0.249899
C103	C	2.352783	0.366791	0.499899
C104	C	2.602783	0.616791	0.749899
C105	C	1.474990	0.695698	-0.000079
C106	C	1.724990	0.945698	0.249921
C107	C	1.974990	1.195698	0.499921
C108	C	2.224990	1.445698	0.749921
C109	C	1.477698	0.593302	0.000004
C110	C	1.727698	0.843302	0.250004
C111	C	1.977698	1.093302	0.500004
C112	C	2.227698	1.343302	0.750004
N113	N	1.483752	-0.135762	0.254776
N114	N	1.733752	0.114238	0.504776
N115	N	1.983752	0.364238	0.754776
N116	N	2.233752	0.614238	1.004776
N117	N	1.483818	-0.135731	-0.254935
N118	N	1.733818	0.114269	-0.004935
N119	N	1.983818	0.364269	0.245065
N120	N	2.233818	0.614269	0.495065
C121	C	1.483759	-0.135764	0.343774
C122	C	1.733759	0.114236	0.593774
C123	C	1.983759	0.364236	0.843774
C124	C	2.233759	0.614236	1.093774
C125	C	1.483771	-0.135757	0.455425
C126	C	1.733771	0.114243	0.705425
C127	C	1.983771	0.364243	0.955425
C128	C	2.233771	0.614243	1.205425
C129	C	1.483787	-0.135747	0.544415
C130	C	1.733787	0.114253	0.794415
C131	C	1.983787	0.364253	1.044415
C132	C	2.233787	0.614253	1.294415
C133	C	1.483801	-0.135742	0.656074
C134	C	1.733801	0.114258	0.906074
C135	C	1.983801	0.364258	1.156074
C136	C	2.233801	0.614258	1.406074
H137	H	0.871298	-0.198235	0.231562
H138	H	1.121298	0.051765	0.481562
H139	H	1.371298	0.301765	0.731562
H140	H	1.621298	0.551765	0.981562
H141	H	1.102674	-0.138020	-0.161856
H142	H	1.352674	0.111980	0.088144
H143	H	1.602674	0.361980	0.338144
H144	H	1.852674	0.611980	0.588144
H145	H	1.078123	-0.204303	0.223997
H146	H	1.328123	0.045697	0.473997
H147	H	1.578123	0.295697	0.723997
H148	H	1.828123	0.545697	0.973997
H149	H	0.865013	-0.133423	-0.161880
H150	H	1.115013	0.116577	0.088120
H151	H	1.365013	0.366577	0.338120
H152	H	1.615013	0.616577	0.588120
H153	H	0.889256	-0.067240	0.224010
H154	H	1.139256	0.182760	0.474010
H155	H	1.389256	0.432760	0.724010
H156	H	1.639256	0.682760	0.974010
H157	H	1.096067	-0.073309	0.231616
H158	H	1.346067	0.176691	0.481616
H159	H	1.596067	0.426691	0.731616
H160	H	1.846067	0.676691	0.981616
