data_functionalizedCrystal
_audit_creation_method	'MofGen! by Chris Wilmer'
_symmetry_space_group_name_H-M	'P1'
_symmetry_Int_Tables_number	1
_symmetry_cell_setting	triclinic
loop_
_symmetry_equiv_pos_as_xyz
  x,y,z
_cell_length_a	10.489741
_cell_length_b	9.565339
_cell_length_c	14.044220
_cell_angle_alpha	89.997689
_cell_angle_beta	91.135974
_cell_angle_gamma	89.994586
loop_
_atom_site_label
_atom_site_type_symbol
_atom_site_fract_x
_atom_site_fract_y
_atom_site_fract_z
O1	O	1.707615	0.116177	-0.133831
O2	O	1.337693	0.116199	-0.146394
O3	O	1.517101	0.116175	-0.002090
O4	O	1.528207	0.116202	-0.278135
O5	O	1.517111	-0.116345	-0.002094
O6	O	1.337702	-0.116321	-0.146398
O7	O	1.707624	-0.116343	-0.133836
Zn8	Zn	1.522664	-0.153249	-0.140118
Zn9	Zn	1.522653	0.153106	-0.140112
O10	O	1.528216	-0.116318	-0.278139
C11	C	1.290070	-0.000058	-0.145447
C12	C	1.148152	-0.000050	-0.142609
N13	N	1.522682	-0.362329	-0.140121
C14	C	1.070700	-0.000072	-0.050792
C15	C	0.982968	0.114574	-0.094163
C16	C	0.983013	-0.114673	-0.094189
C17	C	1.062289	0.114691	-0.186017
C18	C	1.062343	-0.114659	-0.186031
C19	C	0.974645	0.000015	-0.229468
C20	C	1.605682	-0.453506	-0.073390
C21	C	1.488237	-0.546671	-0.054177
C22	C	1.640074	-0.546719	-0.159271
C23	C	1.405175	-0.453442	-0.120866
C24	C	1.557091	-0.453482	-0.225998
C25	C	1.439568	-0.546605	-0.206821
C26	C	1.755247	-0.000082	-0.134782
C27	C	1.897165	-0.000081	-0.137621
C28	C	1.512245	-0.000086	0.033255
C29	C	1.497745	-0.000086	0.138580
N30	N	1.522644	0.362185	-0.140101
C31	C	1.533072	-0.000055	-0.313485
C32	C	1.547572	-0.000045	-0.418810
C33	C	1.471237	-0.000065	0.331422
C34	C	1.574075	-0.000067	0.388354
C35	C	1.559325	-0.000055	0.495658
C36	C	1.485985	-0.000077	0.224108
H37	H	1.112734	0.000064	0.024687
H38	H	1.673194	0.000021	0.356506
H39	H	0.948097	-0.211598	-0.055325
H40	H	1.675795	-0.412626	-0.016928
O41	O	1.453695	-0.595454	0.032534
C42	C	1.541447	-0.548003	0.102677
H43	H	1.635884	-0.521874	0.068040
H44	H	1.557322	-0.633287	0.158364
H45	H	1.502096	-0.450481	0.138347
O46	O	1.286765	-0.404547	-0.101411
C47	C	1.288217	-0.257156	-0.101649
H48	H	1.389646	-0.218597	-0.087431
H49	H	1.223270	-0.216426	-0.043727
H50	H	1.252911	-0.217259	-0.173979
H51	H	1.369278	-0.587225	-0.263248
O52	O	1.353087	-0.000125	0.369564
C53	C	1.364480	-0.000084	0.469765
H54	H	1.461505	-0.044097	0.492199
H55	H	1.285938	-0.067594	0.500763
H56	H	1.355208	0.111469	0.497356
H57	H	0.948009	0.211493	-0.055312
O58	O	1.103894	0.230314	-0.232413
C59	C	1.173796	0.189417	-0.312484
H60	H	1.211650	0.078780	-0.301340
H61	H	1.257132	0.264224	-0.322190
H62	H	1.109135	0.192178	-0.378666
H63	H	1.586253	-0.412517	-0.298607
H64	H	1.739366	-0.587690	-0.175478
H65	H	0.932885	0.000085	-0.305027
H66	H	1.097330	-0.211583	-0.224850
