data_functionalizedCrystal
_audit_creation_method	'MofGen! by Chris Wilmer'
_symmetry_space_group_name_H-M	'P1'
_symmetry_Int_Tables_number	1
_symmetry_cell_setting	triclinic
loop_
_symmetry_equiv_pos_as_xyz
  x,y,z
_cell_length_a	21.295418
_cell_length_b	25.639239
_cell_length_c	21.295411
_cell_angle_alpha	89.980474
_cell_angle_beta	89.956262
_cell_angle_gamma	90.054499
loop_
_atom_site_label
_atom_site_type_symbol
_atom_site_fract_x
_atom_site_fract_y
_atom_site_fract_z
Zn1	Zn	0.962320	-0.207990	-0.356243
Zn2	Zn	1.212320	0.042010	-0.106243
Zn3	Zn	1.462320	0.292010	0.143757
Zn4	Zn	1.712320	0.542010	0.393757
Zn5	Zn	0.962207	-0.295410	-0.250972
Zn6	Zn	1.212207	-0.045410	-0.000972
Zn7	Zn	1.462207	0.204590	0.249028
Zn8	Zn	1.712207	0.454590	0.499028
Zn9	Zn	0.857043	-0.208014	-0.250953
Zn10	Zn	1.107043	0.041986	-0.000953
Zn11	Zn	1.357043	0.291986	0.249047
Zn12	Zn	1.607043	0.541986	0.499047
Zn13	Zn	0.856998	-0.295420	-0.356169
Zn14	Zn	1.106998	-0.045420	-0.106169
Zn15	Zn	1.356998	0.204580	0.143831
Zn16	Zn	1.606998	0.454580	0.393831
O17	O	0.909642	-0.251708	-0.303584
O18	O	1.159642	-0.001708	-0.053584
O19	O	1.409642	0.248292	0.196416
O20	O	1.659642	0.498292	0.446416
O21	O	1.050395	-0.219572	-0.342318
O22	O	1.300395	0.030428	-0.092318
O23	O	1.550395	0.280428	0.157682
O24	O	1.800395	0.530428	0.407682
O25	O	0.948229	-0.283822	-0.162880
O26	O	1.198229	-0.033822	0.087120
O27	O	1.448229	0.216178	0.337120
O28	O	1.698229	0.466178	0.587120
O29	O	0.871075	-0.134846	-0.264943
O30	O	1.121075	0.115154	-0.014943
O31	O	1.371075	0.365154	0.235057
O32	O	1.621075	0.615154	0.485057
O33	O	1.050312	-0.283799	-0.264976
O34	O	1.300312	-0.033799	-0.014976
O35	O	1.550312	0.216201	0.235024
O36	O	1.800312	0.466201	0.485024
O37	O	0.948421	-0.134828	-0.342299
O38	O	1.198421	0.115172	-0.092299
O39	O	1.448421	0.365172	0.157701
O40	O	1.698421	0.615172	0.407701
O41	O	0.870965	-0.219613	-0.162866
O42	O	1.120965	0.030387	0.087134
O43	O	1.370965	0.280387	0.337134
O44	O	1.620965	0.530387	0.587134
O45	O	0.768948	-0.219623	-0.264871
O46	O	1.018948	0.030377	-0.014871
O47	O	1.268948	0.280377	0.235129
O48	O	1.518948	0.530377	0.485129
O49	O	0.870997	-0.283816	-0.444268
O50	O	1.120997	-0.033816	-0.194268
O51	O	1.370997	0.216184	0.055732
O52	O	1.620997	0.466184	0.305732
O53	O	0.768914	-0.283840	-0.342172
O54	O	1.018914	-0.033840	-0.092172
O55	O	1.268914	0.216160	0.157828
O56	O	1.518914	0.466160	0.407828
O57	O	0.948377	-0.219582	-0.444322
O58	O	1.198377	0.030418	-0.194322
O59	O	1.448377	0.280418	0.055678
O60	O	1.698377	0.530418	0.305678
O61	O	0.948185	-0.368576	-0.264904
O62	O	1.198185	-0.118576	-0.014904
O63	O	1.448185	0.131424	0.235096
O64	O	1.698185	0.381424	0.485096
O65	O	0.870888	-0.368584	-0.342191
O66	O	1.120888	-0.118584	-0.092191
O67	O	1.370888	0.131416	0.157809
O68	O	1.620888	0.381416	0.407809
C69	C	0.746090	-0.251736	-0.303512
C70	C	0.996090	-0.001736	-0.053512
C71	C	1.246090	0.248264	0.196488
C72	C	1.496090	0.498264	0.446488
C73	C	0.676122	-0.251760	-0.303496
C74	C	0.926122	-0.001760	-0.053496
C75	C	1.176122	0.248240	0.196504
C76	C	1.426122	0.498240	0.446504
C77	C	0.643255	-0.285242	-0.343686
C78	C	0.893255	-0.035242	-0.093686
C79	C	1.143255	0.214758	0.156314
C80	C	1.393255	0.464758	0.406314
C81	C	0.577512	-0.285229	-0.343715
C82	C	0.827512	-0.035229	-0.093715
C83	C	1.077512	0.214771	0.156285
C84	C	1.327512	0.464771	0.406285
C85	C	0.544640	-0.251740	-0.303541
C86	C	0.794640	-0.001740	-0.053541
C87	C	1.044640	0.248260	0.196459
C88	C	1.294640	0.498260	0.446459
C89	C	0.577515	-0.218252	-0.263347
C90	C	0.827515	0.031748	-0.013347
C91	C	1.077515	0.281748	0.236653
C92	C	1.327515	0.531748	0.486653
C93	C	0.643257	-0.218262	-0.263325
C94	C	0.893257	0.031738	-0.013325
C95	C	1.143257	0.281738	0.236675
C96	C	1.393257	0.531738	0.486675
N97	N	0.441365	-0.247648	-0.248483
N98	N	0.691365	0.002352	0.001517
N99	N	0.941365	0.252352	0.251517
N100	N	1.191365	0.502352	0.501517
N101	N	0.378913	-0.247641	-0.248506
N102	N	0.628913	0.002359	0.001494
N103	N	0.878913	0.252359	0.251494
N104	N	1.128913	0.502359	0.501494
C105	C	0.346565	-0.251707	-0.303608
C106	C	0.596565	-0.001707	-0.053608
C107	C	0.846565	0.248293	0.196392
C108	C	1.096565	0.498293	0.446392
N109	N	0.379028	-0.255789	-0.358686
N110	N	0.629028	-0.005789	-0.108686
N111	N	0.879028	0.244211	0.141314
N112	N	1.129028	0.494211	0.391314
N113	N	0.441485	-0.255799	-0.358662
N114	N	0.691485	-0.005799	-0.108662
N115	N	0.941485	0.244201	0.141338
N116	N	1.191485	0.494201	0.391338
C117	C	0.473354	-0.251725	-0.303561
C118	C	0.723354	-0.001725	-0.053561
C119	C	0.973354	0.248275	0.196439
C120	C	1.223354	0.498275	0.446439
C121	C	0.242412	-0.285176	-0.343832
C122	C	0.492412	-0.035176	-0.093832
C123	C	0.742412	0.214824	0.156168
C124	C	0.992412	0.464824	0.406168
C125	C	0.176668	-0.285160	-0.343862
C126	C	0.426668	-0.035160	-0.093862
C127	C	0.676668	0.214840	0.156138
C128	C	0.926668	0.464840	0.406138
C129	C	0.176673	-0.218185	-0.263489
C130	C	0.426673	0.031815	-0.013489
C131	C	0.676673	0.281815	0.236511
C132	C	0.926673	0.531815	0.486511
C133	C	0.242415	-0.218199	-0.263465
C134	C	0.492415	0.031801	-0.013465
C135	C	0.742415	0.281801	0.236535
C136	C	0.992415	0.531801	0.486535
C137	C	0.275281	-0.251697	-0.303636
C138	C	0.525281	-0.001697	-0.053636
C139	C	0.775281	0.248303	0.196364
C140	C	1.025281	0.498303	0.446364
C141	C	0.909536	-0.387551	-0.303555
C142	C	1.159536	-0.137551	-0.053555
C143	C	1.409536	0.112449	0.196445
C144	C	1.659536	0.362449	0.446445
C145	C	0.909548	-0.445665	-0.303564
C146	C	1.159548	-0.195665	-0.053564
C147	C	1.409548	0.054335	0.196436
C148	C	1.659548	0.304335	0.446436
C149	C	0.949996	-0.806011	-0.263409
C150	C	1.199996	-0.556011	-0.013409
C151	C	1.449996	-0.306011	0.236591
C152	C	1.699996	-0.056011	0.486591
C153	C	0.950020	-0.860616	-0.263418
C154	C	1.200020	-0.610616	-0.013418
C155	C	1.450020	-0.360616	0.236582
C156	C	1.700020	-0.110616	0.486582
O157	O	0.984300	-0.888838	-0.229245
O158	O	1.234300	-0.638838	0.020755
O159	O	1.484300	-0.388838	0.270755
O160	O	1.734300	-0.138838	0.520755
N161	N	0.909753	-0.887947	-0.303626
N162	N	1.159753	-0.637947	-0.053626
N163	N	1.409753	-0.387947	0.196374
N164	N	1.659753	-0.137947	0.446374
C165	C	0.869463	-0.860672	-0.343833
C166	C	1.119463	-0.610672	-0.093833
C167	C	1.369463	-0.360672	0.156167
C168	C	1.619463	-0.110672	0.406167
O169	O	0.835215	-0.888934	-0.378034
O170	O	1.085215	-0.638934	-0.128034
O171	O	1.335215	-0.388934	0.121966
O172	O	1.585215	-0.138934	0.371966
C173	C	0.869442	-0.806069	-0.343827
C174	C	1.119442	-0.556069	-0.093827
C175	C	1.369442	-0.306069	0.156173
C176	C	1.619442	-0.056069	0.406173
C177	C	0.909708	-0.778740	-0.303612
C178	C	1.159708	-0.528740	-0.053612
C179	C	1.409708	-0.278740	0.196388
C180	C	1.659708	-0.028740	0.446388
C181	C	0.990259	-0.778683	-0.223198
C182	C	1.240259	-0.528683	0.026802
C183	C	1.490259	-0.278683	0.276802
C184	C	1.740259	-0.028683	0.526802
C185	C	0.990233	-0.724082	-0.223188
C186	C	1.240233	-0.474082	0.026812
C187	C	1.490233	-0.224082	0.276812
C188	C	1.740233	0.025918	0.526812
C189	C	0.949945	-0.696810	-0.263391
C190	C	1.199945	-0.446810	-0.013391
C191	C	1.449945	-0.196810	0.236609
C192	C	1.699945	0.053190	0.486609
C193	C	0.909682	-0.724139	-0.303603
C194	C	1.159682	-0.474139	-0.053603
C195	C	1.409682	-0.224139	0.196397
C196	C	1.659682	0.025861	0.446397
C197	C	0.829156	-0.778794	-0.384037
C198	C	1.079156	-0.528794	-0.134037
C199	C	1.329156	-0.278794	0.115963
C200	C	1.579156	-0.028794	0.365963
C201	C	0.829139	-0.724187	-0.384028
C202	C	1.079139	-0.474187	-0.134028
C203	C	1.329139	-0.224187	0.115972
C204	C	1.579139	0.025813	0.365972
C205	C	0.869404	-0.696858	-0.343812
C206	C	1.119404	-0.446858	-0.093812
C207	C	1.369404	-0.196858	0.156188
C208	C	1.619404	0.053142	0.406188
C209	C	0.869369	-0.642267	-0.343796
C210	C	1.119369	-0.392267	-0.093796
C211	C	1.369369	-0.142267	0.156204
C212	C	1.619369	0.107733	0.406204
N213	N	0.909636	-0.614935	-0.303588
N214	N	1.159636	-0.364935	-0.053588
N215	N	1.409636	-0.114935	0.196412
N216	N	1.659636	0.135065	0.446412
C217	C	0.949924	-0.642207	-0.263385
C218	C	1.199924	-0.392207	-0.013385
C219	C	1.449924	-0.142207	0.236615
C220	C	1.699924	0.107793	0.486615
C221	C	0.869510	-0.975343	-0.343842
C222	C	1.119510	-0.725343	-0.093842
C223	C	1.369510	-0.475343	0.156158
C224	C	1.619510	-0.225343	0.406158
C225	C	0.869527	-1.029945	-0.343845
C226	C	1.119527	-0.779945	-0.093845
C227	C	1.369527	-0.529945	0.156155
C228	C	1.619527	-0.279945	0.406155
C229	C	0.950086	-1.029885	-0.263431
C230	C	1.200086	-0.779885	-0.013431
C231	C	1.450086	-0.529885	0.236569
C232	C	1.700086	-0.279885	0.486569
C233	C	0.950065	-0.975282	-0.263425
C234	C	1.200065	-0.725282	-0.013425
C235	C	1.450065	-0.475282	0.236575
C236	C	1.700065	-0.225282	0.486575
C237	C	0.909778	-0.948011	-0.303634
C238	C	1.159778	-0.698011	-0.053634
C239	C	1.409778	-0.448011	0.196366
C240	C	1.659778	-0.198011	0.446366
C241	C	0.949868	-0.527542	-0.263369
C242	C	1.199868	-0.277542	-0.013369
C243	C	1.449868	-0.027542	0.236631
C244	C	1.699868	0.222458	0.486631
C245	C	0.949837	-0.472937	-0.263361
C246	C	1.199837	-0.222937	-0.013361
C247	C	1.449837	0.027063	0.236639
C248	C	1.699837	0.277063	0.486639
C249	C	0.869281	-0.473001	-0.343778
C250	C	1.119281	-0.223001	-0.093778
C251	C	1.369281	0.026999	0.156222
C252	C	1.619281	0.276999	0.406222
C253	C	0.869309	-0.527602	-0.343783
C254	C	1.119309	-0.277602	-0.093783
C255	C	1.369309	-0.027602	0.156217
C256	C	1.619309	0.222398	0.406217
C257	C	0.909607	-0.554871	-0.303577
C258	C	1.159607	-0.304871	-0.053577
C259	C	1.409607	-0.054871	0.196423
C260	C	1.659607	0.195129	0.446423
O261	O	0.835108	-0.614010	-0.377953
O262	O	1.085108	-0.364010	-0.127953
O263	O	1.335108	-0.114010	0.122047
O264	O	1.585108	0.135990	0.372047
O265	O	0.984172	-0.613939	-0.229195
O266	O	1.234172	-0.363939	0.020805
O267	O	1.484172	-0.113939	0.270805
O268	O	1.734172	0.136061	0.520805
C269	C	1.073832	-0.251681	-0.303657
C270	C	1.323832	-0.001681	-0.053657
C271	C	1.573832	0.248319	0.196343
C272	C	1.823832	0.498319	0.446343
C273	C	1.143801	-0.251670	-0.303688
C274	C	1.393801	-0.001670	-0.053688
C275	C	1.643801	0.248330	0.196312
C276	C	1.893801	0.498330	0.446312
C277	C	0.909694	-0.251697	-0.467774
C278	C	1.159694	-0.001697	-0.217774
C279	C	1.409694	0.248303	0.032226
C280	C	1.659694	0.498303	0.282226
C281	C	0.909717	-0.251693	-0.537743
C282	C	1.159717	-0.001693	-0.287743
C283	C	1.409717	0.248307	-0.037743
C284	C	1.659717	0.498307	0.212257
C285	C	0.909766	-0.115335	-0.303627
C286	C	1.159766	0.134665	-0.053627
C287	C	1.409766	0.384665	0.196373
C288	C	1.659766	0.634665	0.446373
C289	C	0.909818	-0.057221	-0.303645
C290	C	1.159818	0.192779	-0.053645
C291	C	1.409818	0.442779	0.196355
C292	C	1.659818	0.692779	0.446355
C293	C	0.950007	-0.218244	-0.570639
C294	C	1.200007	0.031756	-0.320639
C295	C	1.450007	0.281756	-0.070639
C296	C	1.700007	0.531756	0.179361
C297	C	0.950006	-0.218221	-0.636381
C298	C	1.200006	0.031779	-0.386381
C299	C	1.450006	0.281779	-0.136381
C300	C	1.700006	0.531779	0.113619
C301	C	0.909721	-0.251657	-0.669225
C302	C	1.159721	-0.001657	-0.419225
C303	C	1.409721	0.248343	-0.169225
C304	C	1.659721	0.498343	0.080775
C305	C	0.869424	-0.285108	-0.636321
C306	C	1.119424	-0.035108	-0.386321
C307	C	1.369424	0.214892	-0.136321
C308	C	1.619424	0.464892	0.113679
C309	C	0.869421	-0.285126	-0.570580
C310	C	1.119421	-0.035126	-0.320580
C311	C	1.369421	0.214874	-0.070580
C312	C	1.619421	0.464874	0.179420
N313	N	0.904857	-0.297396	-0.772441
N314	N	1.154857	-0.047396	-0.522441
N315	N	1.404857	0.202604	-0.272441
N316	N	1.654857	0.452604	-0.022441
N317	N	0.904863	-0.297377	-0.834892
N318	N	1.154863	-0.047377	-0.584892
N319	N	1.404863	0.202623	-0.334892
N320	N	1.654863	0.452623	-0.084892
C321	C	0.909725	-0.251604	-0.867300
C322	C	1.159725	-0.001604	-0.617300
C323	C	1.409725	0.248396	-0.367300
C324	C	1.659725	0.498396	-0.117300
N325	N	0.914594	-0.205848	-0.834897
N326	N	1.164594	0.044152	-0.584897
N327	N	1.414594	0.294152	-0.334897
N328	N	1.664594	0.544152	-0.084897
N329	N	0.914591	-0.205867	-0.772440
N330	N	1.164591	0.044133	-0.522440
N331	N	1.414591	0.294133	-0.272440
N332	N	1.664591	0.544133	-0.022440
C333	C	0.909719	-0.251641	-0.740511
C334	C	1.159719	-0.001641	-0.490511
C335	C	1.409719	0.248359	-0.240511
C336	C	1.659719	0.498359	0.009489
C337	C	0.950017	-0.218128	-0.971482
C338	C	1.200017	0.031872	-0.721482
C339	C	1.450017	0.281872	-0.471482
C340	C	1.700017	0.531872	-0.221482
C341	C	0.950011	-0.218104	-1.037225
C342	C	1.200011	0.031896	-0.787225
C343	C	1.450011	0.281896	-0.537225
C344	C	1.700011	0.531896	-0.287225
C345	C	0.869433	-0.284995	-1.037164
C346	C	1.119433	-0.034995	-0.787164
C347	C	1.369433	0.215005	-0.537164
C348	C	1.619433	0.465005	-0.287164
C349	C	0.869435	-0.285014	-0.971422
C350	C	1.119435	-0.035014	-0.721422
C351	C	1.369435	0.214986	-0.471422
C352	C	1.619435	0.464986	-0.221422
C353	C	0.909730	-0.251581	-0.938584
C354	C	1.159730	-0.001581	-0.688584
C355	C	1.409730	0.248419	-0.438584
C356	C	1.659730	0.498419	-0.188584
C357	C	0.909626	-0.251682	-0.140032
C358	C	1.159626	-0.001682	0.109968
C359	C	1.409626	0.248318	0.359968
C360	C	1.659626	0.498318	0.609968
C361	C	0.909726	-0.251539	-0.070065
C362	C	1.159726	-0.001539	0.179935
C363	C	1.409726	0.248461	0.429935
C364	C	1.659726	0.498461	0.679935
H365	H	0.550746	-0.312494	-0.376445
H366	H	0.800746	-0.062494	-0.126445
H367	H	1.050746	0.187506	0.123555
H368	H	1.300746	0.437506	0.373555
H369	H	0.982819	-0.190863	-1.064008
H370	H	1.232819	0.059137	-0.814008
H371	H	1.482819	0.309137	-0.564008
H372	H	1.732819	0.559137	-0.314008
H373	H	0.836698	-0.953141	-0.376584
H374	H	1.086698	-0.703141	-0.126584
H375	H	1.336698	-0.453141	0.123416
H376	H	1.586698	-0.203141	0.373416
H377	H	0.269176	-0.190937	-0.230734
H378	H	0.519176	0.059063	0.019266
H379	H	0.769176	0.309063	0.269266
H380	H	1.019176	0.559063	0.519266
H381	H	0.982818	-0.191020	-0.543907
H382	H	1.232818	0.058980	-0.293907
H383	H	1.482818	0.308980	-0.043907
H384	H	1.732818	0.558980	0.206093
H385	H	0.836609	-0.312363	-0.543796
H386	H	1.086609	-0.062363	-0.293796
H387	H	1.336609	0.187637	-0.043796
H388	H	1.586609	0.437637	0.206204
H389	H	0.796364	-0.801036	-0.416781
H390	H	1.046364	-0.551036	-0.166781
H391	H	1.296364	-0.301036	0.083219
H392	H	1.546364	-0.051036	0.333219
H393	H	0.149909	-0.190915	-0.230781
H394	H	0.399909	0.059085	0.019219
H395	H	0.649909	0.309085	0.269219
H396	H	0.899909	0.559085	0.519219
H397	H	0.149909	-0.312424	-0.376594
H398	H	0.399909	-0.062424	-0.126594
H399	H	0.649909	0.187576	0.123406
H400	H	0.899909	0.437576	0.373406
H401	H	0.836622	-0.312329	-0.663067
H402	H	1.086622	-0.062329	-0.413067
H403	H	1.336622	0.187671	-0.163067
H404	H	1.586622	0.437671	0.086933
H405	H	0.982824	-0.190902	-0.944744
H406	H	1.232824	0.059098	-0.694744
H407	H	1.482824	0.309098	-0.444744
H408	H	1.732824	0.559098	-0.194744
H409	H	0.269173	-0.312450	-0.376545
H410	H	0.519173	-0.062450	-0.126545
H411	H	0.769173	0.187550	0.123455
H412	H	1.019173	0.437550	0.373455
H413	H	0.836626	-0.312213	-1.063905
H414	H	1.086626	-0.062213	-0.813905
H415	H	1.336626	0.187787	-0.563905
H416	H	1.586626	0.437787	-0.313905
H417	H	0.982626	-0.450687	-0.230611
H418	H	1.232626	-0.200687	0.019389
H419	H	1.482626	0.049313	0.269389
H420	H	1.732626	0.299313	0.519389
H421	H	0.836630	-0.312254	-0.944637
H422	H	1.086630	-0.062254	-0.694637
H423	H	1.336630	0.187746	-0.444637
H424	H	1.586630	0.437746	-0.194637
H425	H	0.982893	-1.052099	-0.230698
H426	H	1.232893	-0.802099	0.019302
H427	H	1.482893	-0.552099	0.269302
H428	H	1.732893	-0.302099	0.519302
H429	H	0.982684	-0.549738	-0.230630
H430	H	1.232684	-0.299738	0.019370
H431	H	1.482684	-0.049738	0.269370
H432	H	1.732684	0.200262	0.519370
H433	H	0.836524	-0.549854	-0.376532
H434	H	1.086524	-0.299854	-0.126532
H435	H	1.336524	-0.049854	0.123468
H436	H	1.586524	0.200146	0.373468
H437	H	0.796333	-0.701986	-0.416773
H438	H	1.046333	-0.451986	-0.166773
H439	H	1.296333	-0.201986	0.083227
H440	H	1.546333	0.048014	0.333227
H441	H	0.670010	-0.312519	-0.376398
H442	H	0.920010	-0.062519	-0.126398
H443	H	1.170010	0.187481	0.123602
H444	H	1.420010	0.437481	0.373602
H445	H	1.023023	-0.701834	-0.190444
H446	H	1.273023	-0.451834	0.059556
H447	H	1.523023	-0.201834	0.309556
H448	H	1.773023	0.048166	0.559556
H449	H	0.836477	-0.450788	-0.376509
H450	H	1.086477	-0.200788	-0.126509
H451	H	1.336477	0.049212	0.123491
H452	H	1.586477	0.299212	0.373491
H453	H	1.023070	-0.800881	-0.190460
H454	H	1.273070	-0.550881	0.059540
H455	H	1.523070	-0.300881	0.309540
H456	H	1.773070	-0.050881	0.559540
H457	H	0.670017	-0.190995	-0.230596
H458	H	0.920017	0.059005	0.019404
H459	H	1.170017	0.309005	0.269404
H460	H	1.420017	0.559005	0.519404
H461	H	0.550747	-0.190983	-0.230639
H462	H	0.800747	0.059017	0.019361
H463	H	1.050747	0.309017	0.269361
H464	H	1.300747	0.559017	0.519361
H465	H	0.836733	-1.052191	-0.376587
H466	H	1.086733	-0.802191	-0.126587
H467	H	1.336733	-0.552191	0.123413
H468	H	1.586733	-0.302191	0.373413
H469	H	0.982853	-0.953034	-0.230679
H470	H	1.232853	-0.703034	0.019321
H471	H	1.482853	-0.453034	0.269321
H472	H	1.732853	-0.203034	0.519321
H473	H	0.982813	-0.190981	-0.663170
H474	H	1.232813	0.059019	-0.413170
H475	H	1.482813	0.309019	-0.163170
H476	H	1.732813	0.559019	0.086830
