data_functionalizedCrystal
_audit_creation_method	'MofGen! by Chris Wilmer'
_symmetry_space_group_name_H-M	'P1'
_symmetry_Int_Tables_number	1
_symmetry_cell_setting	triclinic
loop_
_symmetry_equiv_pos_as_xyz
  x,y,z
_cell_length_a	18.050589
_cell_length_b	18.050591
_cell_length_c	17.640968
_cell_angle_alpha	78.779299
_cell_angle_beta	78.773118
_cell_angle_gamma	90.027061
loop_
_atom_site_label
_atom_site_type_symbol
_atom_site_fract_x
_atom_site_fract_y
_atom_site_fract_z
Zn1	Zn	-0.210794	1.220238	-0.446869
Zn2	Zn	-0.360099	1.195024	-0.314696
Zn3	Zn	-0.235922	1.070935	-0.314711
Zn4	Zn	-0.334949	1.096000	-0.446845
O5	O	-0.285441	1.145549	-0.380780
O6	O	-0.230609	1.320818	-0.429339
O7	O	-0.364669	1.157521	-0.204085
O8	O	-0.128661	1.090803	-0.332258
O9	O	-0.340303	1.302294	-0.332233
O10	O	-0.110200	1.200495	-0.429354
O11	O	-0.273436	1.066354	-0.204096
O12	O	-0.249049	0.970335	-0.332235
O13	O	-0.297438	1.133523	-0.557461
O14	O	-0.321804	0.988750	-0.429313
O15	O	-0.206222	1.224799	-0.557478
O16	O	-0.460691	1.181826	-0.332209
O17	O	-0.442213	1.109074	-0.429298
C18	C	-0.285424	0.952596	-0.380774
C19	C	-0.285432	0.870053	-0.380790
C20	C	-0.325112	0.631250	-0.433509
C21	C	-0.356895	0.666905	-0.361361
C22	C	-0.285455	0.572932	-0.380788
C23	C	-0.253696	0.684358	-0.452932
C24	C	-0.285445	0.718918	-0.380793
C25	C	-0.317281	0.607493	-0.308603
C26	C	-0.214041	0.624951	-0.400222
C27	C	-0.245808	0.660575	-0.328025
C28	C	-0.285463	0.488834	-0.380787
C29	C	-0.285438	0.803014	-0.380786
C30	C	-0.478396	1.145457	-0.380767
C31	C	-0.560938	1.145491	-0.380788
C32	C	-0.750371	1.105973	-0.433566
C33	C	-0.813513	1.074165	-0.361439
C34	C	-0.712066	1.145565	-0.380798
C35	C	-0.796004	1.177412	-0.452933
C36	C	-0.858048	1.145638	-0.380814
C37	C	-0.774129	1.113714	-0.308633
C38	C	-0.756606	1.217002	-0.400176
C39	C	-0.819735	1.185210	-0.327999
C40	C	-0.627969	1.145522	-0.380790
C41	C	-0.942145	1.145679	-0.380815
C42	C	-0.091730	1.145665	-0.380811
C43	C	-0.009182	1.145715	-0.380824
C44	C	-0.246222	1.184769	-0.586952
C45	C	-0.229509	1.201483	-0.674810
C46	C	-0.285459	1.339256	-0.380787
C47	C	-0.285466	1.421802	-0.380790
C48	C	-0.412004	1.018865	-0.963719
C49	C	-0.396291	1.034585	-1.046275
C50	C	-0.301315	1.129623	-1.046283
C51	C	-0.317019	1.113908	-0.963725
C52	C	-0.372365	1.058529	-0.922450
C53	C	-0.277379	1.153573	-0.922456
C54	C	-0.293084	1.137861	-0.839905
C55	C	-0.348429	1.082486	-0.798624
C56	C	-0.388070	1.042818	-0.839899
C57	C	-0.222037	1.208956	-0.963733
C58	C	-0.182397	1.248620	-0.922464
C59	C	-0.198099	1.232905	-0.839912
C60	C	-0.253443	1.177530	-0.798630
C61	C	-0.158458	1.272574	-0.798636
C62	C	-0.174163	1.256862	-0.716086
C63	C	-0.269148	1.161819	-0.716080
C64	C	-0.324455	1.106524	-0.175410
C65	C	-0.340958	1.089955	-0.087552
H66	H	-0.226839	0.717667	-0.513940
H67	H	-0.212277	0.673634	-0.283391
C68	C	-0.389864	1.130610	-0.680359
C69	C	-0.365694	1.065213	-0.707882
H70	H	-0.400517	1.119946	-0.624339
H71	H	-0.434234	1.146971	-0.699024
H72	H	-0.351225	1.169263	-0.699038
H73	H	-0.404335	1.026562	-0.689207
H74	H	-0.321318	1.048842	-0.689209
C75	C	-0.141391	1.379231	-0.947878
C76	C	-0.121562	1.309491	-0.967838
H77	H	-0.103833	1.416809	-0.975894
H78	H	-0.145067	1.375545	-0.892814
H79	H	-0.188718	1.392640	-0.961404
H80	H	-0.074237	1.296078	-0.954307
H81	H	-0.117878	1.313175	-1.022914
H82	H	-0.849736	1.218713	-0.283330
C83	C	-0.170726	1.170704	-1.071713
C84	C	-0.240479	1.190494	-1.091656
H85	H	-0.133168	1.208286	-1.099721
H86	H	-0.157287	1.123395	-1.085252
H87	H	-0.174415	1.167024	-1.016641
H88	H	-0.236791	1.194168	-1.146728
H89	H	-0.253920	1.237816	-1.078123
C90	C	-0.790181	1.002733	-0.205871
C91	C	-0.760680	1.077294	-0.226263
H92	H	-0.781881	0.980251	-0.155019
H93	H	-0.765775	0.974816	-0.243373
H94	H	-0.842900	1.002569	-0.205378
H95	H	-0.707960	1.077458	-0.226761
H96	H	-0.785085	1.105219	-0.188752
C97	C	-0.738612	0.985905	-0.473240
C98	C	-0.709704	1.060679	-0.493721
H99	H	-0.713502	0.957942	-0.510373
H100	H	-0.791211	0.985248	-0.473330
H101	H	-0.730716	0.963812	-0.422132
H102	H	-0.717605	1.082774	-0.544827
H103	H	-0.657093	1.061339	-0.493640
C104	C	-0.480412	0.950466	-0.848174
C105	C	-0.448925	0.981960	-0.794521
H106	H	-0.517988	0.912907	-0.820158
H107	H	-0.441935	0.928185	-0.880365
H108	H	-0.502678	0.988948	-0.880380
H109	H	-0.426654	0.943480	-0.762318
H110	H	-0.487408	1.004241	-0.762317
H111	H	-0.457055	0.973751	-0.930110
C112	C	-0.740060	1.235497	-0.586253
C113	C	-0.809588	1.213741	-0.535275
H114	H	-0.748447	1.257926	-0.637086
H115	H	-0.710487	1.192335	-0.589779
H116	H	-0.714100	1.270997	-0.566472
H117	H	-0.835547	1.178237	-0.555053
H118	H	-0.839174	1.256909	-0.531752
C119	C	-0.491757	0.939054	-1.037973
C120	C	-0.439865	0.990978	-1.091639
H121	H	-0.518654	0.912133	-1.065981
H122	H	-0.526291	0.965268	-1.005772
H123	H	-0.465515	0.904539	-1.005780
H124	H	-0.466108	1.025497	-1.123829
H125	H	-0.405326	0.964764	-1.123854
C126	C	-0.027869	1.313667	-0.824075
C127	C	-0.097627	1.333448	-0.844011
H128	H	0.009683	1.351253	-0.852084
H129	H	-0.014426	1.266359	-0.837616
H130	H	-0.031555	1.309986	-0.769003
H131	H	-0.093942	1.337124	-0.899083
H132	H	-0.111073	1.380769	-0.830475
H133	H	-0.838405	1.013788	-0.345064
H134	H	-0.731710	1.277373	-0.416585
H135	H	-0.417287	0.685453	-0.344920
C136	C	-0.353350	0.485227	-0.226975
C137	C	-0.353642	0.562653	-0.226221
H138	H	-0.375805	0.457547	-0.176119
H139	H	-0.302764	0.470565	-0.240853
H140	H	-0.381296	0.475061	-0.264458
H141	H	-0.325691	0.572821	-0.188741
H142	H	-0.404238	0.577321	-0.212333
H143	H	-0.314199	1.116705	-0.682471
C144	C	-0.091940	1.249566	-0.623248
C145	C	-0.130598	1.300460	-0.670711
H146	H	-0.065052	1.276485	-0.595231
H147	H	-0.057397	1.223366	-0.655455
H148	H	-0.127158	1.214338	-0.586858
H149	H	-0.095379	1.335684	-0.707104
H150	H	-0.165143	1.326672	-0.638500
C151	C	-0.124957	0.569016	-0.490359
C152	C	-0.132535	0.599882	-0.422442
H153	H	-0.074638	0.553536	-0.504079
H154	H	-0.135999	0.605978	-0.532493
H155	H	-0.159087	0.526592	-0.480558
H156	H	-0.098409	0.642310	-0.432245
H157	H	-0.121484	0.562917	-0.380298
C158	C	-0.445226	0.634401	-0.473071
C159	C	-0.370444	0.613398	-0.493616
H160	H	-0.473213	0.623375	-0.510174
H161	H	-0.445905	0.687032	-0.473155
H162	H	-0.467279	0.607030	-0.421953
H163	H	-0.348388	0.640774	-0.544731
H164	H	-0.369761	0.560758	-0.493540
H165	H	-0.209254	1.221748	-1.030951
