data_functionalizedCrystal
_audit_creation_method	'MofGen! by Chris Wilmer'
_symmetry_space_group_name_H-M	'P1'
_symmetry_Int_Tables_number	1
_symmetry_cell_setting	triclinic
loop_
_symmetry_equiv_pos_as_xyz
  x,y,z
_cell_length_a	14.044202
_cell_length_b	14.044202
_cell_length_c	13.101050
_cell_angle_alpha	86.338627
_cell_angle_beta	93.662580
_cell_angle_gamma	93.192702
loop_
_atom_site_label
_atom_site_type_symbol
_atom_site_fract_x
_atom_site_fract_y
_atom_site_fract_z
O1	O	-1.281985	-0.225386	-0.085196
O2	O	-1.005313	-0.217070	-0.085208
O3	O	-1.139490	-0.082894	-0.085174
O4	O	-1.147808	-0.359563	-0.085230
O5	O	-1.129864	-0.092540	0.085253
O6	O	-0.995687	-0.226717	0.085219
O7	O	-1.272359	-0.235032	0.085231
Zn8	Zn	-1.132495	-0.232406	0.112284
Zn9	Zn	-1.145178	-0.219697	-0.112261
O10	O	-1.138182	-0.369209	0.085198
C11	C	-0.964878	-0.218257	0.000004
C12	C	-0.858735	-0.207408	0.000001
C13	C	-0.613279	-0.264507	-0.000001
C14	C	-0.664401	-0.187591	0.000013
C15	C	-0.772538	-0.198620	0.000006
C16	C	-0.505131	-0.253480	0.000006
C17	C	-1.131040	-0.052095	0.000044
C18	C	-1.120191	0.054048	0.000058
C19	C	-1.177291	0.299506	0.000035
C20	C	-1.100375	0.248383	0.000035
C21	C	-1.111403	0.140245	0.000048
C22	C	-1.166264	0.407653	0.000022
C23	C	-0.312794	-0.233844	0.000016
C24	C	-0.418938	-0.244686	0.000011
C25	C	-1.146630	0.599991	-0.000009
C26	C	-1.157471	0.493847	0.000011
N27	N	-1.123846	-0.241079	0.265531
C28	C	-1.112080	-0.252889	0.474570
C29	C	-1.165594	-0.199219	0.525459
C30	C	-1.159047	-0.205790	0.641776
C31	C	-1.118626	-0.246319	0.358243
N32	N	-1.153831	-0.211026	0.734493
H33	H	-0.626958	-0.113455	-0.000044
H34	H	-0.650723	-0.338633	-0.000018
O35	O	-1.275482	0.249908	0.000049
H36	H	-1.330133	0.304037	0.000041
O37	O	-1.002175	0.297979	0.000042
H38	H	-0.966765	0.280898	-0.069419
O39	O	-1.044897	-0.320304	0.532560
H40	H	-0.992319	-0.278976	0.581466
H41	H	-1.216326	-0.148337	0.481670
