data_functionalizedCrystal
_audit_creation_method	'MofGen! by Chris Wilmer'
_symmetry_space_group_name_H-M	'P1'
_symmetry_Int_Tables_number	1
_symmetry_cell_setting	triclinic
loop_
_symmetry_equiv_pos_as_xyz
  x,y,z
_cell_length_a	14.908780
_cell_length_b	14.908520
_cell_length_c	14.908308
_cell_angle_alpha	96.360765
_cell_angle_beta	89.787311
_cell_angle_gamma	96.789949
loop_
_atom_site_label
_atom_site_type_symbol
_atom_site_fract_x
_atom_site_fract_y
_atom_site_fract_z
Zn1	Zn	-1.325975	0.317687	0.605068
Zn2	Zn	-0.825975	0.817687	1.105068
Zn3	Zn	-1.325873	0.460338	0.462433
Zn4	Zn	-0.825873	0.960338	0.962433
Zn5	Zn	-1.184349	0.316700	0.445982
Zn6	Zn	-0.684349	0.816700	0.945982
Zn7	Zn	-1.165840	0.477723	0.604991
Zn8	Zn	-0.665840	0.977723	1.104991
O9	O	-1.250509	0.393112	0.529618
O10	O	-0.750509	0.893112	1.029618
O11	O	-1.452207	0.329747	0.593064
O12	O	-0.952207	0.829747	1.093064
O13	O	-1.314802	0.433595	0.334011
O14	O	-0.814802	0.933595	0.834011
O15	O	-1.210925	0.189742	0.460232
O16	O	-0.710925	0.689742	0.960232
O17	O	-1.452132	0.434552	0.488270
O18	O	-0.952132	0.934552	0.988270
O19	O	-1.314977	0.190467	0.577112
O20	O	-0.814977	0.690467	1.077112
O21	O	-1.210825	0.328065	0.321925
O22	O	-0.710825	0.828065	0.821925
O23	O	-1.055648	0.344922	0.460158
O24	O	-0.555648	0.844922	0.960158
O25	O	-1.179380	0.464183	0.731241
O26	O	-0.679380	0.964183	1.231241
O27	O	-1.042050	0.463226	0.576982
O28	O	-0.542050	0.963226	1.076982
O29	O	-1.297030	0.346605	0.731297
O30	O	-0.797030	0.846605	1.231297
O31	O	-1.296855	0.589733	0.488196
O32	O	-0.796855	1.089733	0.988196
O33	O	-1.179280	0.602506	0.592933
O34	O	-0.679280	1.102506	1.092933
C35	C	-1.016115	0.405854	0.516777
C36	C	-0.516115	0.905854	1.016777
C37	C	-0.915838	0.411328	0.511306
C38	C	-0.415838	0.911328	1.011306
C39	C	-0.727462	0.312652	0.610332
C40	C	-0.227462	0.812652	1.110332
C41	C	-0.633242	0.317792	0.605195
C42	C	-0.133242	0.817792	1.105195
C43	C	-0.633178	0.426745	0.495889
C44	C	-0.133178	0.926745	0.995889
C45	C	-0.727397	0.421604	0.501027
C46	C	-0.227397	0.921604	1.001027
C47	C	-0.774536	0.364557	0.558251
C48	C	-0.274536	0.864557	1.058251
C49	C	-0.868757	0.359422	0.563393
C50	C	-0.368757	0.859422	1.063393
C51	C	-0.868691	0.468369	0.454083
C52	C	-0.368691	0.968369	0.954083
C53	C	-0.774472	0.473509	0.448946
C54	C	-0.274472	0.973509	0.948946
C55	C	-1.236072	0.629072	0.542363
C56	C	-0.736072	1.129072	1.042363
C57	C	-1.229976	0.730014	0.547849
C58	C	-0.729976	1.230014	1.047849
C59	C	-0.485819	0.380313	0.542503
C60	C	0.014181	0.880313	1.042503
C61	C	-0.586097	0.374838	0.547976
C62	C	-0.086097	0.874838	1.047976
C63	C	-1.236152	0.407443	0.764917
C64	C	-0.736152	0.907443	1.264917
C65	C	-1.230033	0.413551	0.865187
C66	C	-0.730033	0.913551	1.365187
C67	C	-1.265027	0.156231	0.516846
C68	C	-0.765027	0.656231	1.016846
C69	C	-1.271213	0.055286	0.511403
C70	C	-0.771213	0.555286	1.011403
C71	C	-1.341065	0.906332	0.449196
C72	C	-0.841065	1.406332	0.949196
C73	C	-1.335341	1.001176	0.454348
C74	C	-0.835341	1.501176	0.954348
C75	C	-1.212808	1.014546	0.563311
C76	C	-0.712808	1.514546	1.063311
C77	C	-1.218532	0.919703	0.558158
C78	C	-0.718532	1.419703	1.058158
C79	C	-1.282662	0.865599	0.501098
C80	C	-0.782662	1.365599	1.001098
C81	C	-1.288381	0.770753	0.495941
C82	C	-0.788381	1.270753	0.995941
C83	C	-1.165853	0.784126	0.604908
C84	C	-0.665853	1.284126	1.104908
C85	C	-1.160129	0.878969	0.610060
C86	C	-0.660129	1.378969	1.110060
C87	C	-1.264867	0.378768	0.295235
C88	C	-0.764867	0.878768	0.795235
C89	C	-1.271176	0.372395	0.194961
C90	C	-0.771176	0.872395	0.694961
C91	C	-1.341044	0.302572	1.053664
C92	C	-0.841044	0.802572	1.553664
C93	C	-1.335299	0.308307	1.147877
C94	C	-0.835299	0.808307	1.647877
C95	C	-1.212793	0.430751	1.147826
C96	C	-0.712793	0.930751	1.647826
C97	C	-1.218538	0.425016	1.053613
C98	C	-0.718538	0.925016	1.553613
C99	C	-1.282667	0.360925	1.006536
C100	C	-0.782667	0.860925	1.506536
C101	C	-1.288417	0.355195	0.912322
C102	C	-0.788417	0.855195	1.412322
C103	C	-1.165907	0.477634	0.912273
C104	C	-0.665907	0.977634	1.412273
C105	C	-1.160161	0.483369	1.006485
C106	C	-0.660161	0.983369	1.506485
H107	H	-1.340597	0.726702	0.449477
H108	H	-0.840597	1.226702	0.949477
H109	H	-0.765842	0.266205	0.656931
H110	H	-0.265842	0.766205	1.156931
O111	O	-1.403428	0.853905	0.393747
O112	O	-0.903428	1.353905	0.893747
C113	C	-1.453729	0.910196	0.349016
C114	C	-0.953729	1.410196	0.849016
H115	H	-1.450496	0.979869	0.389811
H116	H	-0.950496	1.479869	0.889811
H117	H	-1.527057	0.878276	0.341845
H118	H	-1.027057	1.378276	0.841845
H119	H	-1.424312	0.917960	0.279222
H120	H	-0.924312	1.417960	0.779222
H121	H	-0.594918	0.275523	0.647602
H122	H	-0.094918	0.775523	1.147602
O123	O	-1.403430	0.240445	1.007901
O124	O	-0.903430	0.740445	1.507901
C125	C	-1.461837	0.285669	0.959368
C126	C	-0.961837	0.785669	1.459368
H127	H	-1.461291	0.358623	0.991925
H128	H	-0.961291	0.858623	1.491925
H129	H	-1.533345	0.248986	0.960328
H130	H	-1.033345	0.748986	1.460328
H131	H	-1.438106	0.285967	0.886607
H132	H	-0.938106	0.785967	1.386607
H133	H	-0.907028	0.510641	0.411682
H134	H	-0.407028	1.010641	0.911682
H135	H	-1.107948	0.535548	1.044829
H136	H	-0.607948	1.035548	1.544829
O137	O	-1.109320	0.534355	0.866405
O138	O	-0.609320	1.034355	1.366405
C139	C	-1.160413	0.586921	0.817908
C140	C	-0.660413	1.086921	1.317908
H141	H	-1.231603	0.550311	0.805805
H142	H	-0.731603	1.050311	1.305805
H143	H	-1.126959	0.597065	0.750304
H144	H	-0.626959	1.097065	1.250304
H145	H	-1.163991	0.655891	0.858397
H146	H	-0.663991	1.155891	1.358397
H147	H	-1.382833	0.260788	1.186244
H148	H	-0.882833	0.760788	1.686244
H149	H	-0.594783	0.473179	0.449289
H150	H	-0.094783	0.973179	0.949289
H151	H	-1.118295	0.750950	0.647168
H152	H	-0.618295	1.250950	1.147168
H153	H	-0.907136	0.312971	0.609989
H154	H	-0.407136	0.812971	1.109989
O155	O	-1.150568	0.492965	1.193706
O156	O	-0.650568	0.992965	1.693706
C157	C	-1.157995	0.485484	1.286963
C158	C	-0.657995	0.985484	1.786963
H159	H	-1.228659	0.452749	1.302039
H160	H	-0.728659	0.952749	1.802039
H161	H	-1.145506	0.556016	1.326117
H162	H	-0.645506	1.056016	1.826117
H163	H	-1.105825	0.441639	1.308144
H164	H	-0.605825	0.941639	1.808144
O165	O	-1.350794	0.293059	0.866558
O166	O	-0.850794	0.793059	1.366558
C167	C	-1.409212	0.338267	0.818021
C168	C	-0.909212	0.838267	1.318021
H169	H	-1.408683	0.411220	0.850576
H170	H	-0.908683	0.911220	1.350576
H171	H	-1.480713	0.301569	0.818979
H172	H	-0.980713	0.801569	1.318979
H173	H	-1.385479	0.338569	0.745261
H174	H	-0.885479	0.838569	1.245261
O175	O	-0.728622	0.529030	0.393495
O176	O	-0.228622	1.029030	0.893495
C177	C	-0.667400	0.593842	0.444965
C178	C	-0.167400	1.093842	0.944965
H179	H	-0.691127	0.602331	0.517865
H180	H	-0.191127	1.102331	1.017865
H181	H	-0.664050	0.661751	0.415947
H182	H	-0.164050	1.161751	0.915947
H183	H	-0.597517	0.569852	0.442704
H184	H	-0.097517	1.069852	0.942704
H185	H	-1.382900	1.034337	0.412086
H186	H	-0.882900	1.534337	0.912086
O187	O	-1.150544	1.067244	0.618660
O188	O	-0.650544	1.567244	1.118660
C189	C	-1.158038	1.159689	0.612095
C190	C	-0.658038	1.659689	1.112095
H191	H	-1.191113	1.166786	0.544827
H192	H	-0.691113	1.666786	1.044827
H193	H	-1.087912	1.199847	0.616412
H194	H	-0.587912	1.699847	1.116412
H195	H	-1.201148	1.187187	0.669734
H196	H	-0.701148	1.687187	1.169734
O197	O	-1.097952	0.931626	0.665540
O198	O	-0.597952	1.431626	1.165540
C199	C	-1.142397	0.987162	0.729656
C200	C	-0.642397	1.487162	1.229656
H201	H	-1.211880	0.995662	0.702420
H202	H	-0.711880	1.495662	1.202420
H203	H	-1.100878	1.056621	0.743322
H204	H	-0.600878	1.556621	1.243322
H205	H	-1.150374	0.954113	0.795070
H206	H	-0.650374	1.454113	1.295070
