data_functionalizedCrystal
_audit_creation_method	'MofGen! by Chris Wilmer'
_symmetry_space_group_name_H-M	'P1'
_symmetry_Int_Tables_number	1
_symmetry_cell_setting	triclinic
loop_
_symmetry_equiv_pos_as_xyz
  x,y,z
_cell_length_a	12.759401
_cell_length_b	13.031981
_cell_length_c	12.759393
_cell_angle_alpha	82.784016
_cell_angle_beta	89.980804
_cell_angle_gamma	97.192388
loop_
_atom_site_label
_atom_site_type_symbol
_atom_site_fract_x
_atom_site_fract_y
_atom_site_fract_z
Zn1	Zn	1.553150	-0.416060	-0.540807
Zn2	Zn	1.530727	-0.590871	-0.342784
Zn3	Zn	1.377444	-0.416111	-0.365140
Zn4	Zn	1.355135	-0.590796	-0.518435
O5	O	1.454114	-0.503460	-0.441791
O6	O	1.697195	-0.439259	-0.514546
O7	O	1.510346	-0.567741	-0.198722
O8	O	1.419472	-0.269839	-0.407161
O9	O	1.680721	-0.567692	-0.369059
O10	O	1.548562	-0.269802	-0.536223
O11	O	1.397729	-0.439345	-0.215146
O12	O	1.227465	-0.439273	-0.385468
O13	O	1.381449	-0.567565	-0.668430
O14	O	1.211074	-0.567614	-0.498093
O15	O	1.526930	-0.439187	-0.684867
O16	O	1.488714	-0.737126	-0.347366
O17	O	1.359707	-0.737071	-0.476416
C18	C	1.181149	-0.503442	-0.441779
C19	C	1.064370	-0.503459	-0.441795
C20	C	1.018071	-0.436705	-0.517638
C21	C	0.908346	-0.436716	-0.517644
C22	C	0.891226	-0.570243	-0.365959
C23	C	1.000951	-0.570227	-0.365950
C24	C	1.419385	-0.775024	-0.407060
C25	C	1.404624	-0.891200	-0.392237
C26	C	1.461873	-0.942893	-0.449549
C27	C	1.446619	-1.062968	-0.434230
C28	C	1.728145	-0.503478	-0.441805
C29	C	1.844920	-0.503486	-0.441810
C30	C	1.454203	-0.503362	-0.715837
C31	C	1.454240	-0.503321	-0.832619
C32	C	1.489007	-0.230835	-0.476681
C33	C	1.503876	-0.114658	-0.491549
C34	C	1.512918	-0.570099	-0.988675
C35	C	1.512886	-0.570148	-0.878944
C36	C	1.395615	-0.436447	-0.896030
C37	C	1.395641	-0.436404	-1.005758
C38	C	1.454095	-0.503481	-0.168821
C39	C	1.454299	-0.503228	-0.052078
H40	H	0.870655	-0.382356	-0.579401
H41	H	1.069705	-0.382335	-0.579393
H42	H	1.347859	-0.382040	-0.858304
H43	H	1.347902	-0.381948	-1.057383
H44	H	0.839577	-0.624604	-0.304210
H45	H	1.038647	-0.624587	-0.304184
H46	H	1.344313	-0.935838	-0.331835
H47	H	1.560679	-0.624512	-1.026384
H48	H	1.386303	-1.107602	-0.373823
H49	H	1.522177	-0.898258	-0.509961
H50	H	1.564183	-1.070026	-0.551965
H51	H	1.560619	-0.624601	-0.827325
