data_functionalizedCrystal
_audit_creation_method	'MofGen! by Chris Wilmer'
_symmetry_space_group_name_H-M	'P1'
_symmetry_Int_Tables_number	1
_symmetry_cell_setting	triclinic
loop_
_symmetry_equiv_pos_as_xyz
  x,y,z
_cell_length_a	12.594517
_cell_length_b	13.897449
_cell_length_c	12.594517
_cell_angle_alpha	90.007981
_cell_angle_beta	89.991203
_cell_angle_gamma	89.992087
loop_
_atom_site_label
_atom_site_type_symbol
_atom_site_fract_x
_atom_site_fract_y
_atom_site_fract_z
Zn1	Zn	0.423823	1.474655	0.601856
Zn2	Zn	0.601789	1.474616	0.423894
Zn3	Zn	0.423829	1.313380	0.423890
Zn4	Zn	0.601764	1.313357	0.601828
O5	O	0.512802	1.394002	0.512867
O6	O	0.447439	1.609632	0.578263
O7	O	0.578196	1.453221	0.274948
O8	O	0.274883	1.334800	0.447507
O9	O	0.578190	1.609603	0.447514
O10	O	0.274878	1.453288	0.578259
O11	O	0.447449	1.334762	0.274945
O12	O	0.447425	1.178396	0.447480
O13	O	0.578147	1.334760	0.750778
O14	O	0.578153	1.178379	0.578211
O15	O	0.447415	1.453265	0.750798
O16	O	0.750732	1.453199	0.447487
O17	O	0.750713	1.334723	0.578215
C18	C	0.512787	1.143388	0.512843
C19	C	0.512807	1.036174	0.512858
C20	C	0.235181	1.394051	0.512886
C21	C	0.116875	1.394071	0.512893
C22	C	0.512811	0.839879	0.512886
C23	C	0.512805	0.949111	0.512867
C24	C	0.047620	1.458510	0.584013
C25	C	-0.023161	1.482096	0.486913
C26	C	-0.023143	1.370515	0.609999
C27	C	0.047653	1.417704	0.415742
C28	C	0.047677	1.306082	0.538893
C29	C	-0.023072	1.329635	0.441726
C30	C	0.789343	1.393980	0.512872
C31	C	0.907648	1.394059	0.512909
C32	C	0.512777	1.394015	0.790488
C33	C	0.512767	1.394020	0.908793
C34	C	0.512817	1.645595	0.512892
C35	C	0.512823	1.752809	0.512903
C36	C	0.441689	1.458468	1.048821
C37	C	0.538785	1.482049	0.978008
C38	C	0.415682	1.370483	0.978034
C39	C	0.609955	1.417642	1.048766
C40	C	0.486787	1.306035	1.048798
C41	C	0.583949	1.329582	0.978018
C42	C	0.512836	1.393992	1.236326
C43	C	0.512808	1.394016	1.118021
H44	H	0.078659	1.513050	0.644076
H45	H	0.381639	1.513013	1.079908
O46	O	-0.060367	1.346629	0.707876
C47	C	-0.163905	1.235158	0.811569
C48	C	-0.121845	1.262100	0.700660
H49	H	-0.213601	1.166803	0.805777
H50	H	-0.215065	1.296301	0.843606
H51	H	-0.094114	1.222392	0.867453
H52	H	-0.191571	1.274851	0.644698
H53	H	-0.070654	1.200942	0.668711
H54	H	0.464759	1.231651	1.079918
O55	O	0.564855	1.570869	0.940952
C56	C	0.519448	1.739225	0.935039
C57	C	0.489798	1.638686	0.977049
H58	H	0.458794	1.794085	0.964225
H59	H	0.519888	1.738249	0.844527
H60	H	0.601671	1.759779	0.965325
H61	H	0.407570	1.618069	0.946842
H62	H	0.489431	1.639716	1.067560
O63	O	-0.060242	1.570917	0.460852
C64	C	-0.066243	1.739266	0.506283
C65	C	-0.024204	1.638727	0.535923
H66	H	-0.037105	1.794122	0.566949
H67	H	-0.156754	1.738283	0.505833
H68	H	-0.035930	1.759833	0.424067
H69	H	-0.054438	1.618098	0.618145
H70	H	0.066306	1.639765	0.536300
O71	O	0.707885	1.441671	1.085712
C72	C	0.811446	1.552757	1.189888
C73	C	0.700491	1.525655	1.148102
H74	H	0.805502	1.620648	1.240357
H75	H	0.867037	1.566334	1.120034
H76	H	0.843935	1.491301	1.240270
H77	H	0.667907	1.587075	1.097737
H78	H	0.644973	1.512043	1.218003
O79	O	-0.060056	1.264626	0.369989
C80	C	-0.213743	1.191137	0.289957
C81	C	-0.172001	1.264770	0.371255
H82	H	-0.304254	1.191243	0.290938
H83	H	-0.183426	1.116326	0.311406
H84	H	-0.184437	1.211380	0.207279
H85	H	-0.201289	1.244617	0.453961
H86	H	-0.202308	1.339561	0.349714
O87	O	0.655834	1.264550	0.941332
C88	C	0.787992	1.145931	0.986159
C89	C	0.706636	1.219556	1.027851
H90	H	0.829072	1.109518	1.056088
H91	H	0.849661	1.184331	0.935218
H92	H	0.745412	1.089387	0.936291
H93	H	0.749124	1.276119	1.077764
H94	H	0.644973	1.181088	1.078734
H95	H	0.333562	1.350578	0.946961
O96	O	0.084965	1.217419	0.565282
C97	C	0.190193	1.123867	0.687235
C98	C	0.148054	1.224334	0.657440
H99	H	0.241190	1.129422	0.761759
H100	H	0.240070	1.094222	0.619132
H101	H	0.120439	1.073563	0.702908
H102	H	0.217743	1.274711	0.641785
H103	H	0.098145	1.253900	0.725560
H104	H	0.078620	1.437714	0.333606
