data_functionalizedCrystal
_audit_creation_method	'MofGen! by Chris Wilmer'
_symmetry_space_group_name_H-M	'P1'
_symmetry_Int_Tables_number	1
_symmetry_cell_setting	triclinic
loop_
_symmetry_equiv_pos_as_xyz
  x,y,z
_cell_length_a	6.817900
_cell_length_b	14.125469
_cell_length_c	16.255661
_cell_angle_alpha	95.870770
_cell_angle_beta	103.488922
_cell_angle_gamma	100.398878
loop_
_atom_site_label
_atom_site_type_symbol
_atom_site_fract_x
_atom_site_fract_y
_atom_site_fract_z
V1	V	-4.010936	-0.133890	-0.263542
O2	O	-4.014854	0.005634	-0.258862
O3	O	-3.947073	-0.264713	-0.261416
O4	O	-3.962699	-0.132182	-0.378630
O5	O	-3.999120	-0.127814	-0.140837
V6	V	-4.496546	-0.117160	-0.248905
O7	O	-4.267615	-0.170589	-0.295650
O8	O	-4.690064	-0.080461	-0.216797
O9	O	-4.337203	0.013662	-0.251031
O10	O	-4.610025	-0.256684	-0.253585
O11	O	-4.625759	-0.123236	-0.371610
O12	O	-4.321576	-0.118869	-0.133818
C13	C	-3.788307	-0.296593	-0.257175
C14	C	-3.817379	-0.403545	-0.256204
C15	C	-3.870675	-0.599365	-0.254439
C16	C	-4.056174	-0.651697	-0.258011
C17	C	-4.085830	-0.760658	-0.257029
C18	C	-3.841011	-0.490394	-0.255421
C19	C	-3.808239	-0.127536	-0.406692
C20	C	-3.849981	-0.127004	-0.500774
C21	C	-3.761285	-0.120657	-0.723608
C22	C	-3.908049	-0.202574	-0.792883
C23	C	-3.926483	-0.126008	-0.673025
C24	C	-3.854120	-0.043154	-0.771390
C25	C	-4.000365	-0.125041	-0.839411
C26	C	-4.072720	-0.207998	-0.741070
C27	C	-4.018737	-0.048505	-0.719561
C28	C	-4.165635	-0.130445	-0.788817
C29	C	-3.883916	-0.126566	-0.577175
C30	C	-4.042948	-0.124491	-0.935261
C31	C	-4.159310	0.045538	-0.255270
C32	C	-4.109476	0.152488	-0.256246
C33	C	-4.139379	-0.123518	-0.105751
C34	C	-4.076875	-0.124044	-0.011668
H35	H	-3.734148	-0.636392	-0.250642
N36	N	-4.076751	0.033208	-0.679457
N37	N	-4.055111	0.045425	-0.600341
H38	H	-4.096065	0.103142	-0.572011
N39	N	-3.546421	-0.115606	-0.687897
N40	N	-3.462527	-0.181013	-0.712487
H41	H	-3.310782	-0.177450	-0.687267
N42	N	-4.227501	-0.605275	-0.262778
N43	N	-4.381959	-0.630500	-0.325401
H44	H	-4.502957	-0.597714	-0.328766
H45	H	-3.861701	-0.267711	-0.824809
H46	H	-4.164719	-0.277739	-0.727432
N47	N	-4.380614	-0.135654	-0.824394
N48	N	-4.438256	-0.068546	-0.861739
H49	H	-4.590084	-0.072230	-0.886873
N50	N	-3.738656	0.044216	-0.788673
N51	N	-3.545982	0.063050	-0.764508
H52	H	-3.464419	0.124743	-0.776725
