data_functionalizedCrystal
_audit_creation_method	'MofGen! by Chris Wilmer'
_symmetry_space_group_name_H-M	'P1'
_symmetry_Int_Tables_number	1
_symmetry_cell_setting	triclinic
loop_
_symmetry_equiv_pos_as_xyz
  x,y,z
_cell_length_a	17.699083
_cell_length_b	18.266242
_cell_length_c	17.699083
_cell_angle_alpha	89.992757
_cell_angle_beta	96.716985
_cell_angle_gamma	90.003008
loop_
_atom_site_label
_atom_site_type_symbol
_atom_site_fract_x
_atom_site_fract_y
_atom_site_fract_z
O1	O	1.004081	0.060780	-0.095712
O2	O	0.783702	0.060804	-0.108165
O3	O	0.900118	0.060785	0.008251
O4	O	0.887665	0.060799	-0.212128
O5	O	0.900098	-0.060977	0.008257
O6	O	0.783683	-0.060958	-0.108159
O7	O	1.004061	-0.060982	-0.095706
Zn8	Zn	0.893869	-0.080302	-0.101932
Zn9	Zn	0.893895	0.080124	-0.101940
O10	O	0.887646	-0.060963	-0.212122
C11	C	0.755495	-0.000074	-0.107716
C12	C	0.671477	-0.000065	-0.106377
N13	N	0.893856	-0.189789	-0.101926
C14	C	0.622856	-0.000061	-0.174710
C15	C	0.543913	-0.000070	-0.173448
C16	C	0.513592	-0.000079	-0.103852
C17	C	0.562219	-0.000085	-0.035513
C18	C	0.641161	-0.000081	-0.036776
C19	C	0.243856	-0.000104	-0.030418
C20	C	0.164908	-0.000106	-0.029160
C21	C	0.146608	-0.000093	-0.167090
C22	C	0.225550	-0.000089	-0.168353
C23	C	0.274170	-0.000099	-0.100015
C24	C	0.359769	-0.000090	-0.101384
C25	C	0.427995	-0.000083	-0.102481
C26	C	0.945422	-0.228107	-0.050402
C27	C	0.945427	-0.304752	-0.050399
C28	C	0.893873	-0.343076	-0.101932
C29	C	0.842298	-0.304750	-0.153459
C30	C	0.842290	-0.228106	-0.153456
N31	N	0.884116	-0.463404	-0.168921
N32	N	0.884129	-0.536212	-0.168921
C33	C	0.893894	-0.573999	-0.101943
N34	N	0.903662	-0.536227	-0.034962
N35	N	0.903653	-0.463412	-0.034962
C36	C	0.893876	-0.426183	-0.101941
C37	C	0.945468	-0.695423	-0.050411
C38	C	0.945468	-0.772070	-0.050407
C39	C	0.842342	-0.772066	-0.153474
C40	C	0.842339	-0.695421	-0.153472
C41	C	0.893906	-0.657104	-0.101941
C42	C	1.032268	-0.000103	-0.096156
C43	C	1.116286	-0.000107	-0.097494
C44	C	0.899662	-0.000096	0.036451
C45	C	0.898323	-0.000096	0.120469
N46	N	0.893913	0.189611	-0.101939
C47	C	0.888102	-0.000080	-0.240322
C48	C	0.889440	-0.000075	-0.324340
C49	C	0.966656	-0.000105	0.169090
C50	C	0.965394	-0.000098	0.248033
C51	C	0.895798	-0.000088	0.278354
C52	C	0.827459	-0.000078	0.229727
C53	C	0.828722	-0.000079	0.150785
C54	C	0.822364	-0.000071	0.548090
C55	C	0.821106	-0.000072	0.627038
C56	C	0.959036	-0.000091	0.645338
C57	C	0.960299	-0.000092	0.566396
C58	C	0.891961	-0.000077	0.517776
C59	C	0.893330	-0.000083	0.432177
C60	C	0.894427	-0.000088	0.363951
H61	H	0.647537	-0.000053	-0.231384
H62	H	0.800298	-0.196908	-0.195414
H63	H	0.680748	-0.000084	0.018868
H64	H	0.800364	-0.803269	-0.195430
H65	H	0.987455	-0.664224	-0.008450
C66	C	0.490430	-0.000068	-0.248616
C67	C	0.523780	-0.000056	-0.325171
C68	C	0.470297	-0.000058	-0.400343
C69	C	0.383463	-0.000073	-0.398960
C70	C	0.350108	-0.000085	-0.322402
C71	C	0.403592	-0.000083	-0.247231
H72	H	0.588064	-0.000046	-0.326197
H73	H	0.494988	-0.000049	-0.457016
H74	H	0.343871	-0.000074	-0.454607
H75	H	0.285825	-0.000096	-0.321376
H76	H	0.378900	-0.000092	-0.190558
C77	C	1.002193	-0.814224	0.006273
C78	C	1.058928	-0.772075	0.062936
C79	C	1.115654	-0.814232	0.119616
C80	C	1.115644	-0.898536	0.119633
C81	C	1.058906	-0.940690	0.062968
C82	C	1.002181	-0.898533	0.006288
H83	H	1.058937	-0.709664	0.062925
H84	H	1.157655	-0.783026	0.161563
H85	H	1.157636	-0.929743	0.161590
H86	H	1.058897	-1.003101	0.062978
H87	H	0.960180	-0.929739	-0.035659
C88	C	0.528869	-0.000094	0.041045
C89	C	0.442037	-0.000093	0.042439
C90	C	0.408689	-0.000098	0.118999
C91	C	0.462174	-0.000104	0.194165
C92	C	0.549011	-0.000104	0.192774
C93	C	0.582359	-0.000099	0.116214
H94	H	0.402440	-0.000089	-0.013206
H95	H	0.344406	-0.000097	0.120028
H96	H	0.437488	-0.000107	0.250839
H97	H	0.588608	-0.000109	0.248419
H98	H	0.646642	-0.000100	0.115185
C99	C	0.785589	-0.346902	-0.210148
C100	C	0.785631	-0.431207	-0.210191
C101	C	0.728917	-0.473359	-0.266880
C102	C	0.672161	-0.431205	-0.323524
C103	C	0.672116	-0.346896	-0.323483
C104	C	0.728830	-0.304744	-0.266795
H105	H	0.827648	-0.462416	-0.168258
H106	H	0.728950	-0.535770	-0.266910
H107	H	0.630177	-0.462408	-0.365489
H108	H	0.630100	-0.315687	-0.365417
H109	H	0.728797	-0.242333	-0.266765
H110	H	0.283434	-0.000113	0.025228
C111	C	1.040562	-0.000108	0.301516
C112	C	1.117117	-0.000124	0.268166
C113	C	1.192289	-0.000131	0.321649
C114	C	1.190906	-0.000122	0.408483
C115	C	1.114348	-0.000106	0.441838
C116	C	1.039177	-0.000099	0.388354
H117	H	1.118143	-0.000130	0.203882
H118	H	1.248962	-0.000142	0.296958
H119	H	1.246552	-0.000127	0.448075
H120	H	1.113322	-0.000099	0.506121
H121	H	0.982504	-0.000087	0.413046
H122	H	0.800353	-0.664221	-0.195430
H123	H	1.023330	-0.000118	0.144409
C124	C	1.002136	-0.185956	0.006285
C125	C	1.001031	-0.196509	0.092472
C126	C	1.057743	-0.154356	0.149161
C127	C	1.115560	-0.101649	0.119662
C128	C	1.116667	-0.091093	0.033470
C129	C	1.059955	-0.133247	-0.023218
H130	H	0.958230	-0.235528	0.114313
H131	H	1.056924	-0.162170	0.212965
H132	H	1.157542	-0.070444	0.161626
H133	H	1.159469	-0.052075	0.011630
H134	H	1.060775	-0.125433	-0.087023
H135	H	0.250232	-0.000079	-0.225025
H136	H	0.107012	-0.000089	-0.222734
H137	H	0.140225	-0.000114	0.027517
C138	C	0.747194	-0.000071	0.494614
C139	C	0.670641	-0.000072	0.527969
C140	C	0.595467	-0.000077	0.474489
C141	C	0.596845	-0.000081	0.387655
C142	C	0.673401	-0.000080	0.354296
C143	C	0.748575	-0.000075	0.407775
H144	H	0.669618	-0.000070	0.592253
H145	H	0.538796	-0.000078	0.499184
H146	H	0.541197	-0.000085	0.348066
H147	H	0.674423	-0.000083	0.290012
H148	H	0.805246	-0.000074	0.383080
H149	H	0.987419	-0.335955	-0.008441
H150	H	1.014680	-0.000099	0.684934
H151	H	1.016971	-0.000104	0.541714
H152	H	0.764429	-0.000065	0.651721
H153	H	0.770792	-0.000065	0.254420
H154	H	0.773078	-0.000072	0.111198
