data_functionalizedCrystal
_audit_creation_method	'MofGen! by Chris Wilmer'
_symmetry_space_group_name_H-M	'P1'
_symmetry_Int_Tables_number	1
_symmetry_cell_setting	triclinic
loop_
_symmetry_equiv_pos_as_xyz
  x,y,z
_cell_length_a	29.839134
_cell_length_b	29.839126
_cell_length_c	19.121063
_cell_angle_alpha	87.583433
_cell_angle_beta	87.537743
_cell_angle_gamma	89.968028
loop_
_atom_site_label
_atom_site_type_symbol
_atom_site_fract_x
_atom_site_fract_y
_atom_site_fract_z
Zn1	Zn	0.679162	-0.261784	0.279804
Zn2	Zn	0.675897	-0.189857	0.397245
Zn3	Zn	0.604035	-0.186651	0.279797
Zn4	Zn	0.600807	-0.264942	0.397204
O5	O	0.639975	-0.225808	0.338512
O6	O	0.741595	-0.252264	0.295402
O7	O	0.666349	-0.126565	0.381680
O8	O	0.616717	-0.193954	0.181513
O9	O	0.739197	-0.199419	0.381686
O10	O	0.671913	-0.249154	0.181518
O11	O	0.613552	-0.124209	0.295391
O12	O	0.540740	-0.197015	0.295351
O13	O	0.611216	-0.327389	0.381616
O14	O	0.538368	-0.254535	0.381609
O15	O	0.668783	-0.325070	0.295363
O16	O	0.663219	-0.202481	0.495524
O17	O	0.608051	-0.257645	0.495494
C18	C	0.523253	-0.225770	0.338476
C19	C	0.473319	-0.225765	0.338477
C20	C	0.117955	-0.195915	0.293531
C21	C	0.305629	-0.195887	0.293511
O22	O	0.330935	-0.170463	0.255237
N23	N	0.327874	-0.225788	0.338488
C24	C	0.303197	-0.255700	0.383470
O25	O	0.326424	-0.281136	0.421720
C26	C	0.115525	-0.255730	0.383486
C27	C	0.093282	-0.225824	0.338511
C28	C	0.095712	-0.166011	0.248560
C29	C	0.048797	-0.166017	0.248568
C30	C	0.024124	-0.195926	0.293548
C31	C	0.046366	-0.225829	0.338519
C32	C	0.090849	-0.285644	0.428464
C33	C	0.043928	-0.285649	0.428463
C34	C	0.021686	-0.255743	0.383488
C35	C	-0.025222	-0.255744	0.383507
N36	N	-0.047467	-0.225843	0.338530
C37	C	-0.022794	-0.195934	0.293550
C38	C	0.401728	-0.255682	0.383460
C39	C	0.448646	-0.255674	0.383457
C40	C	0.451074	-0.195861	0.293497
C41	C	0.404155	-0.195867	0.293504
C42	C	0.379483	-0.225781	0.338483
C43	C	-0.121321	-0.195947	0.293571
C44	C	-0.168241	-0.195954	0.293585
C45	C	-0.170665	-0.255769	0.383542
C46	C	-0.123749	-0.255760	0.383531
C47	C	-0.099078	-0.225848	0.338540
O48	O	-0.050557	-0.281157	0.421756
O49	O	-0.046029	-0.170509	0.255295
C50	C	0.164871	-0.195909	0.293523
C51	C	0.187113	-0.225812	0.338495
C52	C	0.162440	-0.255721	0.383475
C53	C	0.234031	-0.225805	0.338492
C54	C	0.258704	-0.195896	0.293512
C55	C	0.236459	-0.165994	0.248535
C56	C	0.189544	-0.166000	0.248543
C57	C	0.184685	-0.285623	0.428452
C58	C	0.231601	-0.285614	0.428441
C59	C	0.256274	-0.255705	0.383461
C60	C	0.640004	-0.342986	0.338485
C61	C	0.640016	-0.392920	0.338474
C62	C	0.612535	-0.701338	0.293473
C63	C	0.612549	-0.889010	0.293425
O64	O	0.589160	-0.912234	0.255233
N65	N	0.640041	-0.913702	0.338342
C66	C	0.667528	-0.891473	0.383278
O67	O	0.690908	-0.916782	0.421488
C68	C	0.667512	-0.703803	0.383330
C69	C	0.640022	-0.679113	0.338405
C70	C	0.585047	-0.676648	0.248552
C71	C	0.585046	-0.629733	0.248562
C72	C	0.612532	-0.607508	0.293493
C73	C	0.640020	-0.632197	0.338415
C74	C	0.694997	-0.681575	0.428269
C75	C	0.694989	-0.634654	0.428280
C76	C	0.667499	-0.609964	0.383354
C77	C	0.667505	-0.563057	0.383356
N78	N	0.640014	-0.538365	0.338438
C79	C	0.612527	-0.560590	0.293507
C80	C	0.667536	-0.990003	0.383247
C81	C	0.667541	-1.036921	0.383233
C82	C	0.612561	-1.034454	0.293380
C83	C	0.612559	-0.987535	0.293391
C84	C	0.640044	-0.965311	0.338329
C85	C	0.612527	-0.462065	0.293531
C86	C	0.612529	-0.415146	0.293543
C87	C	0.667507	-0.417617	0.383398
C88	C	0.667507	-0.464532	0.383384
C89	C	0.640013	-0.486755	0.338448
O90	O	0.690879	-0.539803	0.421532
O91	O	0.589143	-0.535274	0.255314
C92	C	0.612537	-0.748253	0.293463
C93	C	0.640025	-0.772943	0.338385
C94	C	0.667511	-0.750718	0.383316
C95	C	0.640029	-0.819861	0.338371
C96	C	0.612543	-0.842086	0.293440
C97	C	0.585051	-0.817394	0.248522
C98	C	0.585050	-0.770478	0.248532
C99	C	0.695003	-0.775410	0.428234
C100	C	0.695002	-0.822325	0.428219
C101	C	0.667516	-0.844550	0.383288
C102	C	0.757152	-0.225847	0.338549
C103	C	0.807086	-0.225863	0.338565
C104	C	0.634943	-0.230763	0.520993
C105	C	0.632831	-0.232898	0.599059
C106	C	0.639974	-0.109085	0.338488
C107	C	0.640054	-0.059146	0.338302
C108	C	0.645039	-0.220844	0.155319
C109	C	0.647197	-0.218729	0.077253
C110	C	0.660584	-0.205203	0.635727
C111	C	0.658601	-0.207214	0.709078
C112	C	0.628861	-0.236916	0.745760
C113	C	0.601107	-0.264614	0.709087
C114	C	0.603093	-0.262605	0.635737
C115	C	0.621429	-0.244418	0.967230
C116	C	0.619444	-0.246423	1.040585
C117	C	0.676939	-0.189024	1.040571
C118	C	0.678920	-0.187016	0.967220
C119	C	0.651167	-0.214715	0.930553
C120	C	0.626832	-0.238971	0.820737
C121	C	0.653199	-0.212662	0.855578
H122	H	0.023842	-0.310011	0.465088
H123	H	0.689931	-1.057019	0.419808
H124	H	0.466752	-0.280022	0.420088
H125	H	-0.105638	-0.280109	0.420159
H126	H	-0.190762	-0.280118	0.420166
Cl127	Cl	-0.196200	-0.158355	0.237042
Cl128	Cl	0.716315	-0.149680	0.921111
H129	H	0.699535	-0.166473	1.070433
Cl130	Cl	-0.090313	-0.158342	0.237012
H131	H	0.689918	-0.971913	0.419845
Cl132	Cl	0.729562	-0.747477	0.484723
H133	H	0.108951	-0.309997	0.465088
Cl134	Cl	0.161589	-0.128403	0.191998
Cl135	Cl	0.729554	-0.712603	0.484757
H136	H	0.684800	-0.181014	0.605865
H137	H	0.595232	-0.270618	1.070450
Cl138	Cl	0.693494	-0.172398	0.755172
H139	H	0.030691	-0.141664	0.211944
H140	H	0.590181	-1.052558	0.256794
Cl141	Cl	0.370718	-0.293290	0.440014
H142	H	0.164601	-0.309979	0.465080
H143	H	0.115796	-0.141656	0.211927
H144	H	0.580493	-0.285158	0.605883
H145	H	0.590139	-0.480153	0.256939
H146	H	0.256556	-0.141640	0.211913
H147	H	0.386049	-0.171516	0.256879
H148	H	0.249707	-0.309967	0.465071
Cl149	Cl	0.690586	-0.175325	0.809462
Cl150	Cl	0.586538	-0.279239	0.921144
Cl151	Cl	0.577969	-0.384110	0.237059
Cl152	Cl	0.563722	-0.301957	0.755202
Cl153	Cl	0.550482	-0.598701	0.192086
Cl154	Cl	0.550482	-0.704580	0.192068
Cl155	Cl	0.550489	-0.739447	0.192052
Cl156	Cl	0.589446	-0.276310	0.866858
Cl157	Cl	0.550498	-0.845343	0.192036
Cl158	Cl	0.729544	-0.606718	0.484779
H159	H	0.590174	-0.967436	0.256808
Cl160	Cl	0.702074	-0.495571	0.439850
Cl161	Cl	0.482100	-0.158262	0.236951
Cl162	Cl	0.702062	-0.389667	0.439877
H163	H	0.717392	-0.842424	0.464802
