data_functionalizedCrystal
_audit_creation_method	'MofGen! by Chris Wilmer'
_symmetry_space_group_name_H-M	'P1'
_symmetry_Int_Tables_number	1
_symmetry_cell_setting	triclinic
loop_
_symmetry_equiv_pos_as_xyz
  x,y,z
_cell_length_a	19.077236
_cell_length_b	25.639240
_cell_length_c	19.077271
_cell_angle_alpha	87.662821
_cell_angle_beta	90.072744
_cell_angle_gamma	92.325142
loop_
_atom_site_label
_atom_site_type_symbol
_atom_site_fract_x
_atom_site_fract_y
_atom_site_fract_z
Zn1	Zn	1.058265	-0.163493	-0.440512
Zn2	Zn	1.062887	-0.254299	-0.322981
Zn3	Zn	0.945478	-0.170516	-0.318288
Zn4	Zn	0.940707	-0.254543	-0.435722
O5	O	1.001834	-0.210713	-0.379376
O6	O	1.157212	-0.172497	-0.428890
O7	O	1.051243	-0.246022	-0.224025
O8	O	0.960502	-0.096416	-0.334542
O9	O	1.160608	-0.239212	-0.342541
O10	O	1.043365	-0.091256	-0.424339
O11	O	0.964983	-0.184467	-0.220577
O12	O	0.846511	-0.184704	-0.329897
O13	O	0.952370	-0.239628	-0.534691
O14	O	0.843006	-0.246438	-0.416175
O15	O	1.038739	-0.172734	-0.538210
O16	O	1.046617	-0.327500	-0.337896
O17	O	0.956852	-0.327679	-0.420726
C18	C	0.819261	-0.216360	-0.372007
C19	C	0.741155	-0.218788	-0.368871
C20	C	0.702690	-0.185245	-0.412424
C21	C	0.629301	-0.187524	-0.409472
C22	C	0.594378	-0.223349	-0.362970
C23	C	0.632848	-0.256893	-0.319412
C24	C	0.706236	-0.254611	-0.322362
C25	C	0.375083	-0.233891	-0.349318
C26	C	0.301690	-0.236171	-0.346373
C27	C	0.298148	-0.166801	-0.436432
C28	C	0.371537	-0.164524	-0.439381
C29	C	0.410001	-0.198067	-0.395820
N30	N	0.519363	-0.225680	-0.359953
N31	N	0.485015	-0.195732	-0.398835
C32	C	1.001737	-0.346560	-0.379317
C33	C	1.001759	-0.404673	-0.379318
C34	C	1.045000	-0.762304	-0.426215
C35	C	1.045021	-0.816907	-0.426230
O36	O	1.081670	-0.842827	-0.466043
N37	N	1.001929	-0.846947	-0.379448
C38	C	0.958809	-0.822380	-0.332651
O39	O	0.922157	-0.852945	-0.292861
C40	C	0.958786	-0.767778	-0.332640
C41	C	1.001885	-0.737741	-0.379421
C42	C	1.088096	-0.732268	-0.472993
C43	C	1.088077	-0.677668	-0.472977
C44	C	1.044962	-0.653105	-0.426183
C45	C	1.001866	-0.683142	-0.379405
C46	C	0.915663	-0.743212	-0.285848
C47	C	0.915643	-0.688606	-0.285841
C48	C	0.958742	-0.658569	-0.332622
C49	C	0.958732	-0.603979	-0.332595
N50	N	1.001823	-0.573940	-0.379378
C51	C	1.044938	-0.598503	-0.426172
C52	C	0.958860	-0.937048	-0.332679
C53	C	0.958887	-0.991650	-0.332686
C54	C	1.045098	-0.986173	-0.426267
C55	C	1.045074	-0.931571	-0.426255
C56	C	1.001952	-0.907009	-0.379462
C57	C	1.044895	-0.483840	-0.426134
C58	C	1.044874	-0.429236	-0.426111
C59	C	0.958661	-0.434718	-0.332534
C60	C	0.958684	-0.489317	-0.332554
C61	C	1.001803	-0.513877	-0.379359
O62	O	0.922099	-0.578024	-0.292804
O63	O	1.081577	-0.567932	-0.465962
C64	C	1.185120	-0.205044	-0.386774
C65	C	1.263225	-0.202628	-0.389926
C66	C	0.994507	-0.205425	-0.562660
C67	C	0.991385	-0.203172	-0.640765
C68	C	1.001950	-0.074334	-0.379451
C69	C	1.001999	-0.016217	-0.379483
C70	C	0.968990	-0.187052	-1.080220
C71	C	0.971927	-0.189167	-1.006833
C72	C	1.018303	-0.222276	-0.971933
C73	C	1.061749	-0.253268	-1.010425
C74	C	1.058815	-0.251149	-1.083812
C75	C	1.031897	-0.232045	-0.752644
C76	C	1.034826	-0.234162	-0.679252
C77	C	0.945005	-0.170061	-0.675664
C78	C	0.942072	-0.167948	-0.749052
C79	C	0.985521	-0.198937	-0.787538
N80	N	1.021305	-0.224440	-0.896919
N81	N	0.982522	-0.196770	-0.862551
C82	C	1.009173	-0.215941	-0.196806
C83	C	1.012432	-0.218043	-0.118707
H84	H	0.406391	-0.261204	-0.313848
H85	H	0.936552	-0.163932	-0.975499
F86	F	0.919630	-0.151813	-1.117356
H87	H	0.923559	-0.414710	-0.294433
H88	H	0.880566	-0.767659	-0.247754
H89	H	0.604408	-0.286060	-0.281546
F90	F	0.739851	-0.147117	-0.461922
H91	H	1.094191	-0.276384	-1.115147
F92	F	0.892680	-0.132734	-0.786188
F93	F	1.090946	-0.899608	-0.476046
F94	F	1.084185	-0.269405	-0.642111
F95	F	0.264524	-0.274312	-0.296890
F96	F	0.869744	-0.662469	-0.236036
H97	H	0.737553	-0.281925	-0.286896
F98	F	1.133945	-0.645707	-0.522772
F99	F	0.588368	-0.151824	-0.455829
H100	H	0.923799	-1.016101	-0.294585
H101	H	1.079973	-0.404782	-0.464206
H102	H	1.080002	-0.503830	-0.464252
H103	H	0.923595	-0.513774	-0.294455
H104	H	0.909632	-0.144830	-0.644321
H105	H	1.067274	-0.257281	-0.783970
H106	H	0.399966	-0.135353	-0.477250
F107	F	1.111111	-0.288501	-0.973281
H108	H	0.266823	-0.139492	-0.471896
F109	F	1.133986	-0.758401	-0.522805
F110	F	1.090984	-1.012324	-0.476070
H111	H	0.923747	-0.917053	-0.294569
