data_functionalizedCrystal
_audit_creation_method	'MofGen! by Chris Wilmer'
_symmetry_space_group_name_H-M	'P1'
_symmetry_Int_Tables_number	1
_symmetry_cell_setting	triclinic
loop_
_symmetry_equiv_pos_as_xyz
  x,y,z
_cell_length_a	15.944545
_cell_length_b	15.944551
_cell_length_c	13.330367
_cell_angle_alpha	90.003354
_cell_angle_beta	90.004904
_cell_angle_gamma	83.497455
loop_
_atom_site_label
_atom_site_type_symbol
_atom_site_fract_x
_atom_site_fract_y
_atom_site_fract_z
O1	O	1.114532	0.108304	0.083361
O2	O	1.614532	0.608304	0.583361
O3	O	0.869981	0.121665	0.083377
O4	O	1.369981	0.621665	0.583377
O5	O	0.998935	-0.007291	0.083360
O6	O	1.498935	0.492709	0.583360
O7	O	0.985578	0.237259	0.083378
O8	O	1.485578	0.737259	0.583378
O9	O	0.998915	-0.007288	-0.083488
O10	O	1.498915	0.492712	0.416512
O11	O	0.869962	0.121668	-0.083470
O12	O	1.369962	0.621668	0.416530
O13	O	1.114512	0.108306	-0.083486
O14	O	1.614512	0.608306	0.416514
Cu15	Cu	0.992235	0.114987	-0.098713
Cu16	Cu	1.492235	0.614987	0.401287
Cu17	Cu	0.992258	0.114984	0.098603
Cu18	Cu	1.492258	0.614984	0.598603
O19	O	0.985559	0.237262	-0.083469
O20	O	1.485559	0.737262	0.416531
C21	C	0.838677	0.121113	-0.000044
C22	C	1.338677	0.621113	0.499956
C23	C	0.745431	0.119453	-0.000038
C24	C	1.245431	0.619453	0.499962
C25	C	0.474798	0.034559	-0.000055
C26	C	0.974798	0.534559	0.499945
C27	C	0.525370	0.075489	-0.082319
C28	C	1.025370	0.575489	0.417681
C29	C	0.409787	0.113532	-0.000056
C30	C	0.909787	0.613532	0.499944
C31	C	0.525370	0.075508	0.082179
C32	C	1.025370	0.575508	0.582179
C33	C	0.574701	0.116437	-0.000046
C34	C	1.074701	0.616437	0.499954
C35	C	0.459131	0.154441	-0.082387
C36	C	0.959131	0.654441	0.417613
C37	C	0.459128	0.154448	0.082185
C38	C	0.959128	0.654448	0.582185
C39	C	0.509667	0.195436	-0.000099
C40	C	1.009667	0.695436	0.499901
C41	C	0.314785	0.111856	-0.000063
C42	C	0.814785	0.611856	0.499937
C43	C	0.669700	0.118119	-0.000046
C44	C	1.169700	0.618119	0.499954
C45	C	0.998370	-0.038583	-0.000064
C46	C	1.498370	0.461417	0.499936
C47	C	0.996708	-0.131829	-0.000065
C48	C	1.496708	0.368171	0.499935
C49	C	0.912803	-0.346684	-0.000045
C50	C	1.412803	0.153316	0.499955
C51	C	0.951756	-0.407701	-0.082314
C52	C	1.451756	0.092299	0.417686
C53	C	0.993701	-0.302555	-0.000057
C54	C	1.493701	0.197445	0.499943
C55	C	0.951795	-0.407687	0.082185
C56	C	1.451795	0.092313	0.582185
C57	C	0.990790	-0.467468	-0.000045
C58	C	1.490790	0.032532	0.499955
C59	C	1.032676	-0.362344	-0.082393
C60	C	1.532676	0.137656	0.417607
C61	C	1.032703	-0.362323	0.082179
C62	C	1.532703	0.137677	0.582179
C63	C	1.071715	-0.423322	-0.000109
C64	C	1.571715	0.076678	0.499891
C65	C	0.995375	-0.207553	-0.000064
C66	C	1.495375	0.292447	0.499936
C67	C	0.989122	-0.562469	-0.000044
C68	C	1.489122	-0.062469	0.499956
C69	C	1.145816	0.108859	-0.000063
C70	C	1.645816	0.608859	0.499937
C71	C	1.239062	0.110519	-0.000062
C72	C	1.739062	0.610519	0.499938
C73	C	0.986123	0.268555	-0.000043
C74	C	1.486123	0.768555	0.499957
C75	C	0.987785	0.361801	-0.000036
C76	C	1.487785	0.861801	0.499964
N77	N	0.992225	0.114989	-0.237494
N78	N	1.492225	0.614989	0.262506
C79	C	0.941284	0.064013	-0.290020
C80	C	1.441284	0.564013	0.209980
C81	C	1.043176	0.165961	-0.289997
C82	C	1.543176	0.665961	0.210003
C83	C	1.043186	0.165961	-0.395015
C84	C	1.543186	0.665961	0.104985
C85	C	0.992245	0.114985	-0.447541
C86	C	1.492245	0.614985	0.052459
C87	C	0.941294	0.064009	-0.395048
C88	C	1.441294	0.564009	0.104952
C89	C	1.094142	0.216929	-0.447515
C90	C	1.594142	0.716929	0.052485
C91	C	1.094155	0.216929	-0.552540
C92	C	1.594155	0.716929	-0.052540
C93	C	1.043209	0.165957	-0.605068
C94	C	1.543209	0.665957	-0.105068
C95	C	0.992255	0.114980	-0.552569
C96	C	1.492255	0.614980	-0.052569
C97	C	0.941314	0.064004	-0.605094
C98	C	1.441314	0.564004	-0.105094
C99	C	0.890356	0.013031	-0.552597
C100	C	1.390356	0.513031	-0.052597
C101	C	0.890348	0.013037	-0.447575
C102	C	1.390348	0.513037	0.052425
C103	C	1.043216	0.165952	-0.710089
C104	C	1.543216	0.665952	-0.210089
C105	C	0.941324	0.064000	-0.710122
C106	C	1.441324	0.564000	-0.210122
N107	N	0.992275	0.114976	0.237385
N108	N	1.492275	0.614976	0.737385
H109	H	0.459145	-0.033453	-0.000141
H110	H	0.959145	0.466547	0.499859
H111	H	1.135621	0.258425	-0.404741
H112	H	1.635621	0.758425	0.095259
H113	H	0.845655	-0.313375	-0.000123
H114	H	1.345655	0.186625	0.499877
O115	O	0.835415	-0.041958	-0.609243
O116	O	1.335415	0.458042	-0.109243
H117	H	0.790277	-0.001720	-0.657101
H118	H	1.290277	0.498280	-0.157101
O119	O	0.563692	0.031299	-0.174435
O120	O	1.063692	0.531299	0.325565
H121	H	0.536124	0.063447	-0.242658
H122	H	1.036124	0.563447	0.257342
O123	O	0.835453	-0.042003	-0.390957
O124	O	1.335453	0.457997	0.109043
H125	H	0.844036	-0.033464	-0.309105
H126	H	1.344036	0.466536	0.190895
O127	O	1.098122	0.220937	-0.233351
O128	O	1.598122	0.720937	0.266649
H129	H	1.079853	0.288061	-0.253514
H130	H	1.579853	0.788061	0.246486
H131	H	1.138922	-0.456483	-0.000160
H132	H	1.638922	0.043517	0.499840
O133	O	0.886371	0.008987	-0.233409
O134	O	1.386371	0.508987	0.266591
H135	H	0.894938	0.017531	-0.151555
H136	H	1.394938	0.517531	0.348445
H137	H	0.917532	-0.427807	-0.151860
H138	H	1.417532	0.072193	0.348140
O139	O	0.420774	0.198582	0.174312
O140	O	0.920774	0.698582	0.674312
H141	H	0.447429	0.165654	0.242501
H142	H	0.947429	0.665654	0.742501
H143	H	1.135648	0.258435	-0.595275
H144	H	1.635648	0.758435	-0.095275
O145	O	0.886392	0.008997	-0.766760
O146	O	1.386392	0.508997	-0.266760
H147	H	0.819257	0.027224	-0.746617
H148	H	1.319257	0.527224	-0.246617
O149	O	0.563682	0.031321	0.174305
O150	O	1.063682	0.531321	0.674305
H151	H	0.550006	-0.035403	0.174121
H152	H	1.050006	0.464597	0.674121
O153	O	1.077947	-0.335875	-0.174630
O154	O	1.577947	0.164125	0.325370
H155	H	1.078792	-0.266366	-0.173932
H156	H	1.578792	0.233634	0.326068
H157	H	1.066898	-0.342195	0.151730
H158	H	1.566898	0.157805	0.651730
H159	H	0.917576	-0.427764	0.151741
H160	H	1.417576	0.072236	0.651741
O161	O	0.530204	0.285590	-0.000155
O162	O	1.030204	0.785590	0.499845
H163	H	0.470704	0.329081	-0.000839
H164	H	0.970704	0.829081	0.499161
O165	O	1.098173	0.220916	-0.766720
O166	O	1.598173	0.720916	-0.266720
H167	H	1.079902	0.288045	-0.746575
H168	H	1.579902	0.788045	-0.246575
O169	O	0.420973	0.198572	-0.174626
O170	O	0.920973	0.698572	0.325374
H171	H	0.351563	0.196963	-0.173930
H172	H	0.851563	0.696963	0.326070
