data_functionalizedCrystal
_audit_creation_method	'MofGen! by Chris Wilmer'
_symmetry_space_group_name_H-M	'P1'
_symmetry_Int_Tables_number	1
_symmetry_cell_setting	triclinic
loop_
_symmetry_equiv_pos_as_xyz
  x,y,z
_cell_length_a	14.044220
_cell_length_b	17.699083
_cell_length_c	16.776229
_cell_angle_alpha	89.992455
_cell_angle_beta	89.997978
_cell_angle_gamma	88.235946
loop_
_atom_site_label
_atom_site_type_symbol
_atom_site_fract_x
_atom_site_fract_y
_atom_site_fract_z
O1	O	1.257290	0.182444	-0.066207
O2	O	0.981336	0.175860	-0.066227
O3	O	1.127109	0.069500	-0.066209
O4	O	1.111516	0.288803	-0.066224
O5	O	1.127090	0.069492	0.066367
O6	O	0.981317	0.175852	0.066350
O7	O	1.257271	0.182435	0.066370
Zn8	Zn	1.119290	0.179142	0.087409
Zn9	Zn	1.119316	0.179153	-0.087266
O10	O	1.111497	0.288795	0.066352
C11	C	1.126541	0.041261	0.000079
C12	C	1.124865	-0.042873	0.000079
C13	C	0.946018	0.172974	0.000059
C14	C	0.840812	0.164378	0.000052
C15	C	1.210431	-0.085591	0.000087
C16	C	1.208850	-0.164644	0.000080
C17	C	1.121702	-0.200976	0.000071
C18	C	1.036130	-0.158252	0.000061
C19	C	1.037712	-0.079201	0.000063
C20	C	1.029750	-0.477055	0.000054
C21	C	1.028175	-0.556112	0.000055
C22	C	1.200888	-0.562498	0.000071
C23	C	1.202470	-0.483447	0.000073
C24	C	1.116898	-0.440730	0.000059
C25	C	1.118613	-0.355012	0.000065
C26	C	1.119987	-0.286692	0.000070
C27	C	0.648187	0.148663	0.000069
C28	C	0.590414	0.209629	0.000068
C29	C	0.483230	0.200885	0.000077
C30	C	0.755381	0.157406	0.000059
C31	C	1.292588	0.185321	0.000082
C32	C	1.397794	0.193917	0.000085
C33	C	1.112066	0.317035	0.000062
C34	C	1.113742	0.401168	0.000057
N35	N	1.119280	0.179134	0.206620
N36	N	1.119334	0.179155	-0.206477
C37	C	1.183848	0.132061	0.248345
C38	C	1.183853	0.132061	0.331798
C39	C	1.119294	0.179138	0.373523
C40	C	1.054719	0.226214	0.331793
C41	C	1.054710	0.226210	0.248342
C42	C	1.054754	0.226231	0.668340
C43	C	1.054770	0.226233	0.751796
C44	C	1.183897	0.132082	0.751795
C45	C	1.183888	0.132078	0.668345
C46	C	1.119310	0.179150	0.626621
C47	C	1.119304	0.179149	0.536133
C48	C	1.119304	0.179144	0.464010
H49	H	1.278527	-0.199422	0.000087
H50	H	1.273434	-0.453869	0.000084
N51	N	0.937457	-0.430989	0.000044
H52	H	0.934268	-0.398047	-0.049105
H53	H	0.882069	-0.466055	0.000070
N54	N	0.985122	0.277003	0.796801
H55	H	0.994931	0.269863	0.855997
H56	H	0.995929	0.331434	0.782204
H57	H	1.270565	-0.597288	0.000079
H58	H	0.957205	-0.585691	0.000050
H59	H	0.965173	-0.187840	0.000049
H60	H	0.968035	-0.044420	0.000056
N61	N	0.985094	0.276996	0.376795
H62	H	0.944188	0.306816	0.337697
H63	H	0.943271	0.245180	0.411433
H64	H	0.617153	0.089906	0.000077
H65	H	0.621449	0.268391	0.000060
N66	N	0.985101	0.276995	0.623344
H67	H	0.944207	0.306818	0.662442
H68	H	1.021288	0.312918	0.588704
H69	H	1.236423	0.093728	0.214378
H70	H	1.236429	0.093729	0.365770
N71	N	1.253522	0.081305	0.623340
H72	H	1.294427	0.051482	0.662437
H73	H	1.217315	0.045383	0.588727
N74	N	1.253550	0.081308	0.796797
H75	H	1.243762	0.088449	0.855994
H76	H	1.242734	0.026878	0.782219
N77	N	0.985065	0.276977	0.203334
H78	H	0.944168	0.306802	0.242429
H79	H	1.021258	0.312898	0.168696
H80	H	1.281396	-0.056016	0.000099
