data_functionalizedCrystal
_audit_creation_method	'MofGen! by Chris Wilmer'
_symmetry_space_group_name_H-M	'P1'
_symmetry_Int_Tables_number	1
_symmetry_cell_setting	triclinic
loop_
_symmetry_equiv_pos_as_xyz
  x,y,z
_cell_length_a	12.594517
_cell_length_b	12.594516
_cell_length_c	14.908803
_cell_angle_alpha	86.709048
_cell_angle_beta	86.710256
_cell_angle_gamma	90.015485
loop_
_atom_site_label
_atom_site_type_symbol
_atom_site_fract_x
_atom_site_fract_y
_atom_site_fract_z
Zn1	Zn	1.592370	-0.458678	0.510151
Zn2	Zn	1.602579	-0.626354	0.359308
Zn3	Zn	1.424692	-0.448388	0.359306
Zn4	Zn	1.414358	-0.636611	0.510113
O5	O	1.508500	-0.542507	0.434719
O6	O	1.742669	-0.480935	0.490158
O7	O	1.587579	-0.594147	0.233066
O8	O	1.446987	-0.300808	0.379331
O9	O	1.750169	-0.604125	0.379334
O10	O	1.570179	-0.308368	0.490156
O11	O	1.456887	-0.463396	0.233065
O12	O	1.274377	-0.473342	0.379294
O13	O	1.429374	-0.621607	0.636360
O14	O	1.266784	-0.611628	0.490092
O15	O	1.560159	-0.490880	0.636388
O16	O	1.577559	-0.776659	0.379297
O17	O	1.439274	-0.784195	0.490093
C18	C	1.231961	-0.542482	0.434689
C19	C	1.113655	-0.542499	0.434698
C20	C	0.977727	-0.467216	0.374573
C21	C	1.042955	-0.446923	0.456893
C22	C	1.049998	-0.562745	0.352386
C23	C	0.968089	-0.522204	0.517127
C24	C	0.975130	-0.638068	0.412565
C25	C	1.040322	-0.617815	0.494942
C26	C	1.508431	-0.819048	0.434711
C27	C	1.508496	-0.937355	0.434737
C28	C	1.433279	-1.010743	0.494957
C29	C	1.412977	-1.075968	0.412638
C30	C	1.528895	-1.082930	0.517070
C31	C	1.488146	-1.001019	0.352375
C32	C	1.604105	-1.007979	0.456862
C33	C	1.583843	-1.073168	0.374487
C34	C	1.786118	-0.542534	0.434750
C35	C	1.904423	-0.542545	0.434763
C36	C	1.492475	-0.558536	0.670022
C37	C	1.485646	-0.565366	0.770294
C38	C	1.508597	-0.264889	0.434748
C39	C	1.508638	-0.146584	0.434760
C40	C	1.608996	-0.442050	0.958746
C41	C	1.602584	-0.448464	1.052961
C42	C	1.466403	-0.584601	1.052939
C43	C	1.472816	-0.578187	0.958724
C44	C	1.544116	-0.506911	0.911631
C45	C	1.550534	-0.500503	0.817415
C46	C	1.414348	-0.636634	0.817395
C47	C	1.407935	-0.643048	0.911609
C48	C	1.524456	-0.526566	1.200332
C49	C	1.531290	-0.519738	1.100060
H50	H	0.932423	-0.505005	0.586785
H51	H	1.369568	-0.983192	0.545808
C52	C	1.077376	-0.703852	0.563742
C53	C	1.042394	-0.698883	0.664090
C54	C	1.079450	-0.784914	0.732892
C55	C	1.151488	-0.875914	0.701345
C56	C	1.186474	-0.880886	0.600991
C57	C	1.149418	-0.794855	0.532190
H58	H	0.989063	-0.631517	0.687448
H59	H	1.053551	-0.781233	0.807180
H60	H	1.178920	-0.939599	0.752276
H61	H	1.239805	-0.948253	0.577634
H62	H	1.175317	-0.798537	0.457901
H63	H	1.667057	-0.384019	0.920402
C64	C	0.934780	-0.747191	0.387202
C65	C	0.968873	-0.789588	0.295106
C66	C	0.928522	-0.898711	0.269732
C67	C	0.854078	-0.965437	0.336454
C68	C	0.819981	-0.923041	0.428557
C69	C	0.860332	-0.813918	0.453931
H70	H	1.023984	-0.740192	0.245709
H71	H	0.953764	-0.930095	0.201551
H72	H	0.824208	-1.046216	0.317671
H73	H	0.764869	-0.972436	0.477954
H74	H	0.835090	-0.782534	0.522111
H75	H	1.332188	-1.105905	0.393943
H76	H	1.470856	-0.965352	0.282737
H77	H	1.647517	-1.100514	0.323512
H78	H	1.085795	-0.579849	0.282749
C79	C	1.552133	-1.131287	0.611117
C80	C	1.476890	-1.108976	0.692924
C81	C	1.500118	-1.157330	0.786972
C82	C	1.598589	-1.227995	0.799213
C83	C	1.673839	-1.250310	0.717403
C84	C	1.650611	-1.201956	0.623355
H85	H	1.403991	-1.056663	0.683865
H86	H	1.444413	-1.140811	0.847533
H87	H	1.615784	-1.263790	0.868833
H88	H	1.746738	-1.302623	0.726461
H89	H	1.706316	-1.218475	0.562793
C90	C	1.673956	-0.377120	1.104788
C91	C	1.752380	-0.298722	1.052984
C92	C	1.823755	-0.227373	1.104811
C93	C	1.816705	-0.234423	1.208443
C94	C	1.738277	-0.312824	1.260254
C95	C	1.666903	-0.384173	1.208426
H96	H	1.757602	-0.293501	0.976264
H97	H	1.881812	-0.169336	1.066457
H98	H	1.869540	-0.181606	1.246809
H99	H	1.733056	-0.318045	1.336974
H100	H	1.608846	-0.442210	1.246780
H101	H	1.684872	-0.978047	0.475596
H102	H	1.408353	-0.642631	1.091298
H103	H	1.349882	-0.701077	0.949965
H104	H	1.361520	-0.689451	0.779024
C105	C	1.083275	-0.337771	0.482231
C106	C	1.059342	-0.237056	0.423423
C107	C	1.099657	-0.127902	0.448754
C108	C	1.163906	-0.119463	0.532893
C109	C	1.187843	-0.220181	0.591707
C110	C	1.147527	-0.329335	0.566375
H111	H	1.011778	-0.243300	0.361133
H112	H	1.081938	-0.053344	0.405217
H113	H	1.193750	-0.038660	0.551645
H114	H	1.235407	-0.213937	0.653996
H115	H	1.165247	-0.403893	0.609913
H116	H	0.950107	-0.403491	0.323763
H117	H	1.608592	-0.442467	0.779074
