data_functionalizedCrystal
_audit_creation_method	'MofGen! by Chris Wilmer'
_symmetry_space_group_name_H-M	'P1'
_symmetry_Int_Tables_number	1
_symmetry_cell_setting	triclinic
loop_
_symmetry_equiv_pos_as_xyz
  x,y,z
_cell_length_a	6.817900
_cell_length_b	7.190339
_cell_length_c	7.076028
_cell_angle_alpha	96.846815
_cell_angle_beta	62.299348
_cell_angle_gamma	119.388276
loop_
_atom_site_label
_atom_site_type_symbol
_atom_site_fract_x
_atom_site_fract_y
_atom_site_fract_z
V1	V	4.285377	0.291705	-0.663512
V2	V	4.785377	0.791705	-0.163512
O3	O	4.178699	-0.017514	-0.652433
O4	O	4.678699	0.482486	-0.152433
O5	O	4.320979	0.581764	-0.657482
O6	O	4.820979	1.081764	-0.157482
O7	O	4.310598	0.285683	-0.953573
O8	O	4.810598	0.785683	-0.453573
O9	O	4.189153	0.280616	-0.354292
O10	O	4.689153	0.780616	0.145708
V11	V	4.748580	0.254900	-0.626708
V12	V	5.248580	0.754900	-0.126708
O13	O	4.591208	0.372439	-0.744245
O14	O	5.091208	0.872439	-0.244245
O15	O	4.892947	0.174165	-0.545976
O16	O	5.392947	0.674165	-0.045976
O17	O	4.489771	-0.035159	-0.632738
O18	O	4.989771	0.464841	-0.132738
O19	O	4.972654	0.564118	-0.637787
O20	O	5.472654	1.064118	-0.137787
O21	O	4.962201	0.265988	-0.935928
O22	O	5.462201	0.765988	-0.435928
O23	O	4.500153	0.260921	-0.336647
O24	O	5.000153	0.760921	0.163353
C25	C	4.184053	0.652525	-0.646640
C26	C	4.684053	1.152525	-0.146640
C27	C	4.297026	0.894100	-0.643592
C28	C	4.797026	1.394100	-0.143592
C29	C	4.303287	0.271768	-0.265888
C30	C	4.803287	0.771768	0.234112
C31	C	4.177751	0.274826	-0.024313
C32	C	4.677751	0.774826	0.475687
