data_functionalizedCrystal
_audit_creation_method	'MofGen! by Chris Wilmer'
_symmetry_space_group_name_H-M	'P1'
_symmetry_Int_Tables_number	1
_symmetry_cell_setting	triclinic
loop_
_symmetry_equiv_pos_as_xyz
  x,y,z
_cell_length_a	6.394989
_cell_length_b	14.971491
_cell_length_c	13.448316
_cell_angle_alpha	89.991393
_cell_angle_beta	90.003556
_cell_angle_gamma	94.943027
loop_
_atom_site_label
_atom_site_type_symbol
_atom_site_fract_x
_atom_site_fract_y
_atom_site_fract_z
O1	O	-0.272264	1.189889	-0.082728
O2	O	-0.304851	0.929842	-0.082720
O3	O	0.015497	1.063557	-0.082725
O4	O	-0.592612	1.056174	-0.082723
O5	O	0.015517	1.063539	0.082659
O6	O	-0.304831	0.929824	0.082664
O7	O	-0.272244	1.189871	0.082656
Cu8	Cu	-0.288536	1.059846	0.097761
Cu9	Cu	-0.288559	1.059867	-0.097825
O10	O	-0.592592	1.056157	0.082661
C11	C	-0.303382	0.896493	-0.000027
C12	C	-0.299009	0.797149	-0.000024
C13	C	-0.280150	0.369248	-0.090198
C14	C	-0.284252	0.462593	-0.090194
C15	C	-0.286306	0.509252	-0.000040
C16	C	-0.284237	0.462562	0.090116
C17	C	-0.280119	0.369219	0.090111
C18	C	-0.292824	0.657116	0.090120
C19	C	-0.296945	0.750465	0.090125
C20	C	-0.296957	0.750490	-0.090186
C21	C	-0.292839	0.657148	-0.090191
C22	C	-0.290774	0.610464	-0.000034
C23	C	0.093333	1.062088	-0.000037
C24	C	0.329579	1.057627	-0.000037
C25	C	-0.273713	1.223221	-0.000039
C26	C	-0.278086	1.322565	-0.000049
N27	N	-0.288518	1.059838	0.235325
N28	N	-0.288560	1.059882	-0.235389
C29	C	-0.146726	1.119067	0.287363
C30	C	-0.146725	1.119072	0.391466
C31	C	-0.288526	1.059853	0.443530
C32	C	-0.430325	1.000618	0.391484
C33	C	-0.430315	1.000609	0.287383
C34	C	-0.430339	1.000643	0.608464
C35	C	-0.430352	1.000654	0.712573
C36	C	-0.146749	1.119107	0.712548
C37	C	-0.146739	1.119097	0.608447
C38	C	-0.288540	1.059863	0.556408
H39	H	-0.285919	0.500599	-0.163603
O40	O	-0.568354	0.943128	0.441943
C41	C	-0.775190	0.960002	0.416505
H42	H	-0.775060	0.994472	0.340912
H43	H	-0.877786	0.893923	0.412952
H44	H	-0.839978	1.005252	0.475079
H45	H	-0.545820	0.952430	0.754957
O46	O	-0.299237	0.795918	-0.177704
C47	C	-0.482405	0.841802	-0.183109
H48	H	-0.543274	0.853080	-0.104835
H49	H	-0.444644	0.909265	-0.221267
H50	H	-0.607408	0.800167	-0.227597
H51	H	-0.291181	0.619160	-0.163602
H52	H	-0.278492	0.331265	-0.163612
H53	H	-0.278461	0.331210	0.163520
H54	H	-0.545773	0.952378	0.245014
H55	H	-0.298629	0.788451	0.163537
O56	O	-0.290916	0.611901	0.177786
C57	C	-0.293566	0.673098	0.257361
H58	H	-0.362578	0.736682	0.230933
H59	H	-0.393712	0.641579	0.320409
H60	H	-0.126558	0.690518	0.285087
H61	H	-0.031264	1.167293	0.244980
O62	O	-0.285956	0.507995	0.177629
C63	C	-0.107549	0.570069	0.183041
H64	H	-0.047902	0.586765	0.104768
H65	H	-0.151105	0.633880	0.221197
H66	H	0.020620	0.539759	0.227532
O67	O	-0.008933	1.176703	0.441862
C68	C	0.116240	1.228962	0.373587
H69	H	0.030602	1.230916	0.299373
H70	H	0.147784	1.300040	0.403642
H71	H	0.271551	1.198189	0.362537
H72	H	-0.545803	0.952406	0.566098
H73	H	-0.031289	1.167336	0.754923
O74	O	-0.008797	1.176654	0.558025
C75	C	0.116327	1.228952	0.626275
H76	H	0.118834	1.192265	0.700495
H77	H	0.283090	1.240718	0.596197
H78	H	0.048239	1.296161	0.637321
