data_functionalizedCrystal
_audit_creation_method	'MofGen! by Chris Wilmer'
_symmetry_space_group_name_H-M	'P1'
_symmetry_Int_Tables_number	1
_symmetry_cell_setting	triclinic
loop_
_symmetry_equiv_pos_as_xyz
  x,y,z
_cell_length_a	6.817900
_cell_length_b	17.982865
_cell_length_c	14.858572
_cell_angle_alpha	95.367744
_cell_angle_beta	104.524003
_cell_angle_gamma	102.450232
loop_
_atom_site_label
_atom_site_type_symbol
_atom_site_fract_x
_atom_site_fract_y
_atom_site_fract_z
V1	V	-4.033210	-0.105894	-0.290361
V2	V	-3.533210	0.394106	0.209639
O3	O	-4.025834	0.004595	-0.284423
O4	O	-3.525834	0.504595	0.215577
O5	O	-3.979649	-0.209495	-0.288770
O6	O	-3.479649	0.290505	0.211230
O7	O	-3.989918	-0.104482	-0.416817
O8	O	-3.489918	0.395518	0.083183
O9	O	-4.015494	-0.101146	-0.155489
O10	O	-3.515494	0.398854	0.344511
V11	V	-4.516845	-0.092653	-0.274181
V12	V	-4.016845	0.407347	0.225819
O13	O	-4.294223	-0.134940	-0.325853
O14	O	-3.794223	0.365060	0.174147
O15	O	-4.706029	-0.063607	-0.238690
O16	O	-4.206029	0.436393	0.261310
O17	O	-4.347199	0.010949	-0.275772
O18	O	-3.847199	0.510949	0.224228
O19	O	-4.641617	-0.203142	-0.280119
O20	O	-4.141617	0.296858	0.219881
O21	O	-4.651957	-0.097401	-0.409053
O22	O	-4.151957	0.402599	0.090947
O23	O	-4.336930	-0.094065	-0.147725
O24	O	-3.836930	0.405935	0.352275
C25	C	-3.823230	-0.234744	-0.284291
C26	C	-3.323230	0.265256	0.215709
C27	C	-3.860758	-0.319441	-0.283834
C28	C	-3.360758	0.180559	0.216166
C29	C	-4.047938	-0.828293	-0.195726
C30	C	-3.547938	-0.328293	0.304274
C31	C	-4.012677	-0.748713	-0.196169
C32	C	-3.512677	-0.248713	0.303831
C33	C	-4.038163	-0.719952	-0.281599
C34	C	-3.538163	-0.219952	0.218401
C35	C	-4.098894	-0.770775	-0.366591
C36	C	-3.598894	-0.270775	0.133409
C37	C	-4.134140	-0.850353	-0.366147
C38	C	-3.634140	-0.350353	0.133853
C39	C	-3.956751	-0.449844	-0.368383
C40	C	-3.456751	0.050156	0.131617
C41	C	-3.921505	-0.370260	-0.368821
C42	C	-3.421505	0.129740	0.131179
C43	C	-3.835288	-0.348205	-0.198405
C44	C	-3.335288	0.151795	0.301595
C45	C	-3.870534	-0.427783	-0.197961
C46	C	-3.370534	0.072217	0.302039
C47	C	-3.931251	-0.478599	-0.282953
C48	C	-3.431251	0.021401	0.217047
C49	C	-3.969481	-0.564888	-0.282472
C50	C	-3.469481	-0.064888	0.217528
C51	C	-3.999949	-0.633664	-0.282081
C52	C	-3.499949	-0.133664	0.217919
C53	C	-3.836327	-0.100788	-0.447627
C54	C	-3.336327	0.399212	0.052373
C55	C	-3.882181	-0.100319	-0.551008
C56	C	-3.382181	0.399681	-0.051008
C57	C	-4.050006	-0.098604	-0.929570
C58	C	-3.550006	0.401396	-0.429570
C59	C	-4.003303	-0.099081	-0.824243
C60	C	-3.503303	0.400919	-0.324243
C61	C	-3.966095	-0.099462	-0.740293
C62	C	-3.466095	0.400538	-0.240293
C63	C	-3.919389	-0.099938	-0.634958
C64	C	-3.419389	0.400062	-0.134958
C65	C	-4.166960	0.036194	-0.280248
C66	C	-3.666960	0.536194	0.219752
C67	C	-4.108670	0.120890	-0.280712
C68	C	-3.608670	0.620890	0.219288
C69	C	-4.153863	-0.097761	-0.116910
C70	C	-3.653863	0.402239	0.383090
C71	C	-4.087248	-0.098226	-0.013528
C72	C	-3.587248	0.401774	0.486472
H73	H	-3.849786	-0.451196	-0.128396
H74	H	-3.349786	0.048804	0.371604
H75	H	-4.183586	-0.891728	-0.435351
H76	H	-3.683586	-0.391728	0.064649
Cl77	Cl	-3.936326	-0.684832	-0.089324
Cl78	Cl	-3.436326	-0.184832	0.410676
Cl79	Cl	-4.032901	-0.513713	-0.475225
Cl80	Cl	-3.532901	-0.013713	0.024775
H81	H	-3.785835	-0.306820	-0.129201
H82	H	-3.285835	0.193180	0.370799
H83	H	-4.119630	-0.747351	-0.436149
H84	H	-3.619630	-0.247351	0.063851
Cl85	Cl	-4.015904	-0.864442	-0.088323
Cl86	Cl	-3.515904	-0.364442	0.411677
H87	H	-3.942270	-0.346846	-0.438392
H88	H	-3.442270	0.153154	0.061608
