data_functionalizedCrystal
_audit_creation_method	'MofGen! by Chris Wilmer'
_symmetry_space_group_name_H-M	'P1'
_symmetry_Int_Tables_number	1
_symmetry_cell_setting	triclinic
loop_
_symmetry_equiv_pos_as_xyz
  x,y,z
_cell_length_a	16.109301
_cell_length_b	14.586319
_cell_length_c	16.109304
_cell_angle_alpha	89.999019
_cell_angle_beta	96.537941
_cell_angle_gamma	90.000787
loop_
_atom_site_label
_atom_site_type_symbol
_atom_site_fract_x
_atom_site_fract_y
_atom_site_fract_z
O1	O	-1.103132	-0.076177	0.106866
O2	O	-0.861070	-0.076190	0.120165
O3	O	-0.988749	-0.076184	-0.007515
O4	O	-0.975453	-0.076183	0.234546
O5	O	-0.988741	0.076297	-0.007517
O6	O	-0.861061	0.076290	0.120163
O7	O	-1.103123	0.076304	0.106864
Cu8	Cu	-0.982091	0.090220	0.113514
Cu9	Cu	-0.982102	-0.090106	0.113516
O10	O	-0.975444	0.076297	0.234545
C11	C	-0.830091	0.000048	0.119626
C12	C	-0.737795	0.000043	0.118010
N13	N	-0.982090	0.217052	0.113511
C14	C	-0.988206	0.000055	-0.038491
C15	C	-0.986590	0.000048	-0.130786
C16	C	-1.134102	0.000064	0.107404
C17	C	-1.226398	0.000063	0.109019
C18	C	-0.515524	0.000053	0.190018
C19	C	-0.428803	0.000059	0.188494
C20	C	-0.448676	0.000055	0.037005
C21	C	-0.535395	0.000056	0.038530
C22	C	-0.568816	0.000050	0.115039
C23	C	-0.395377	0.000055	0.111990
C24	C	-0.301351	0.000062	0.110337
C25	C	-0.662848	0.000046	0.116693
N26	N	-0.982110	-0.216938	0.113511
C27	C	-1.038645	0.452061	0.056993
C28	C	-1.038647	0.548042	0.056991
C29	C	-0.925549	0.548046	0.170032
C30	C	-0.925543	0.452066	0.170029
C31	C	-0.982096	0.404077	0.113511
C32	C	-0.982104	0.596037	0.113512
C33	C	-0.982106	0.700104	0.113510
C34	C	-0.982093	0.300003	0.113512
C35	C	-0.982861	-0.083066	-0.343123
C36	C	-0.981335	-0.083065	-0.429843
C37	C	-0.981330	0.083178	-0.429842
C38	C	-0.982850	0.083176	-0.343122
C39	C	-0.983620	0.000052	-0.299766
C40	C	-0.980573	0.000054	-0.473205
C41	C	-0.978919	0.000056	-0.567231
C42	C	-0.985273	0.000050	-0.205734
C43	C	-0.975987	0.000057	0.265520
C44	C	-0.977603	0.000057	0.357816
H45	H	-0.385416	0.000064	0.249550
H46	H	-1.084693	0.412990	0.010972
C47	C	-0.980385	-0.173376	-0.476794
C48	C	-0.909285	-0.223536	-0.446307
C49	C	-0.908386	-0.306744	-0.489530
H50	H	-0.979324	-0.161603	-0.534657
H51	H	-1.029067	-0.207576	-0.468916
H52	H	-0.860616	-0.189344	-0.454191
H53	H	-0.910331	-0.235334	-0.388449
H54	H	-0.957067	-0.340944	-0.481652
H55	H	-0.907326	-0.294962	-0.547391
H56	H	-0.860149	-0.340792	-0.468845
C57	C	-0.983845	-0.173280	-0.296016
C58	C	-1.056207	-0.178161	-0.255612
C59	C	-1.057137	-0.261257	-0.212217
H60	H	-0.936037	-0.176807	-0.255778
H61	H	-0.983213	-0.222813	-0.334234
H62	H	-1.056830	-0.128641	-0.217398
H63	H	-1.104027	-0.174649	-0.295832
H64	H	-1.056505	-0.310791	-0.250435
H65	H	-1.009326	-0.264778	-0.171983
H66	H	-1.106237	-0.264584	-0.184804
H67	H	-0.983463	0.150864	-0.307820
H68	H	-0.421454	0.000065	-0.025285
H69	H	-0.879505	0.587129	0.216049
C70	C	-0.551650	0.000103	0.273167
C71	C	-0.486413	0.000133	0.338503
C72	C	-0.519657	0.000194	0.415113
H73	H	-0.585053	-0.053055	0.277035
H74	H	-0.585041	0.053298	0.276952
H75	H	-0.453035	-0.053057	0.334720
H76	H	-0.453004	0.053287	0.334662
H77	H	-0.553049	0.053389	0.418897
H78	H	-0.553060	-0.052965	0.418972
H79	H	-0.475399	0.000222	0.459452
H80	H	-0.578788	0.000056	-0.022530
C81	C	-0.980547	0.173328	-0.477074
C82	C	-0.979080	0.155542	-0.562303
C83	C	-0.978375	0.238568	-0.605839
H84	H	-0.932354	0.207553	-0.456614
H85	H	-1.029270	0.207484	-0.469263
H86	H	-0.930362	0.121401	-0.570110
H87	H	-1.027269	0.121331	-0.582788
H88	H	-1.027098	0.272723	-0.598028
H89	H	-0.930182	0.272786	-0.585372
H90	H	-0.977387	0.226511	-0.663672
C91	C	-1.100140	0.599974	-0.004407
C92	C	-1.149675	0.537400	-0.053886
C93	C	-1.206340	0.585205	-0.110451
H94	H	-1.070344	0.637422	-0.039106
H95	H	-1.134786	0.637393	0.025492
H96	H	-1.115034	0.499997	-0.083782
H97	H	-1.179489	0.499950	-0.019210
H98	H	-1.240985	0.622624	-0.080553
H99	H	-1.176537	0.622651	-0.145145
H100	H	-1.239961	0.542756	-0.144025
C101	C	-0.864239	0.400012	0.231531
C102	C	-0.877714	0.423331	0.313237
C103	C	-0.821265	0.375388	0.369909
H104	H	-0.808720	0.415707	0.222600
H105	H	-0.872337	0.335968	0.223489
H106	H	-0.869608	0.487361	0.321275
H107	H	-0.933221	0.407634	0.322195
H108	H	-0.829363	0.311345	0.361867
H109	H	-0.765750	0.391087	0.360970
H110	H	-0.830405	0.391198	0.425353
