data_functionalizedCrystal
_audit_creation_method	'MofGen! by Chris Wilmer'
_symmetry_space_group_name_H-M	'P1'
_symmetry_Int_Tables_number	1
_symmetry_cell_setting	triclinic
loop_
_symmetry_equiv_pos_as_xyz
  x,y,z
_cell_length_a	18.050589
_cell_length_b	12.827893
_cell_length_c	12.827885
_cell_angle_alpha	90.019462
_cell_angle_beta	89.970449
_cell_angle_gamma	89.971809
loop_
_atom_site_label
_atom_site_type_symbol
_atom_site_fract_x
_atom_site_fract_y
_atom_site_fract_z
Zn1	Zn	-0.295624	-1.597578	-0.590850
Zn2	Zn	0.204376	-1.097578	-0.090850
Zn3	Zn	-0.419832	-1.597433	-0.416111
Zn4	Zn	0.080168	-1.097433	0.083889
Zn5	Zn	-0.295660	-1.422819	-0.416124
Zn6	Zn	0.204340	-0.922819	0.083876
Zn7	Zn	-0.419777	-1.422766	-0.590811
Zn8	Zn	0.080223	-0.922766	-0.090811
O9	O	-0.357723	-1.510149	-0.503474
O10	O	0.142277	-1.010149	-0.003474
O11	O	-0.312109	-1.743795	-0.567682
O12	O	0.187891	-1.243795	-0.067682
O13	O	-0.403399	-1.574231	-0.269877
O14	O	0.096601	-1.074231	0.230123
O15	O	-0.191731	-1.446085	-0.439323
O16	O	0.308269	-0.946085	0.060677
O17	O	-0.403364	-1.743688	-0.439302
O18	O	0.096636	-1.243688	0.060698
O19	O	-0.191704	-1.574479	-0.567694
O20	O	0.308296	-1.074479	-0.067694
O21	O	-0.312170	-1.445943	-0.269886
O22	O	0.187830	-0.945943	0.230114
O23	O	-0.312117	-1.276576	-0.439286
O24	O	0.187883	-0.776576	0.060714
O25	O	-0.403269	-1.445994	-0.737053
O26	O	0.096731	-0.945994	-0.237053
O27	O	-0.403304	-1.276537	-0.567628
O28	O	0.096696	-0.776537	-0.067628
O29	O	-0.312055	-1.574428	-0.737081
O30	O	0.187945	-1.074428	-0.237081
O31	O	-0.523749	-1.574180	-0.439264
O32	O	-0.023749	-1.074180	0.060736
O33	O	-0.523709	-1.445853	-0.567615
O34	O	-0.023709	-0.945853	-0.067615
C35	C	-0.550675	-1.510023	-0.503457
C36	C	-0.050675	-1.010023	-0.003457
C37	C	-0.633221	-1.510065	-0.503484
C38	C	-0.133221	-1.010065	-0.003484
C39	C	-0.357709	-1.238639	-0.503454
C40	C	0.142291	-0.738639	-0.003454
C41	C	-0.357721	-1.122486	-0.503471
C42	C	0.142279	-0.622486	-0.003471
C43	C	-0.357652	-1.510221	-0.776045
C44	C	0.142348	-1.010221	-0.276045
C45	C	-0.357622	-1.510252	-0.892198
C46	C	0.142378	-1.010252	-0.392198
C47	C	-0.832677	-1.440349	-0.573257
C48	C	-0.332677	-0.940349	-0.073257
C49	C	-0.882124	-1.414872	-0.477900
C50	C	-0.382124	-0.914872	0.022100
C51	C	-0.784351	-1.510167	-0.503498
C52	C	-0.284351	-1.010167	-0.003498
C53	C	-0.881986	-1.535696	-0.598866
C54	C	-0.381986	-1.035696	-0.098866
C55	C	-0.930337	-1.510264	-0.503520
C56	C	-0.430337	-1.010264	-0.003520
C57	C	-0.832712	-1.484640	-0.408091
C58	C	-0.332712	-0.984640	0.091909
C59	C	-0.832569	-1.605508	-0.529120
C60	C	-0.332569	-1.105508	-0.029120
C61	C	-0.881994	-1.580067	-0.433698
C62	C	-0.381994	-1.080067	0.066302
C63	C	-0.700253	-1.510109	-0.503487
C64	C	-0.200253	-1.010109	-0.003487
C65	C	-1.014433	-1.510323	-0.503520
C66	C	-0.514433	-1.010323	-0.003520
C67	C	-0.164018	-1.510304	-0.503515
C68	C	0.335982	-1.010304	-0.003515
C69	C	-0.081472	-1.510370	-0.503532
C70	C	0.418528	-1.010370	-0.003532
C71	C	-0.357738	-1.782719	-0.503495
C72	C	0.142262	-1.282719	-0.003495
C73	C	-0.357745	-1.898872	-0.503504
C74	C	0.142255	-1.398872	-0.003504
C75	C	-0.402914	-1.070710	-0.566880
C76	C	0.097086	-0.570710	-0.066880
C77	C	-0.402927	-0.950659	-0.566899
C78	C	0.097073	-0.450659	-0.066899
C79	C	-0.312470	-1.446791	-0.943987
C80	C	0.187530	-0.946791	-0.443987
C81	C	-0.312438	-1.446822	-1.064038
C82	C	0.187562	-0.946822	-0.564038
C83	C	-0.357741	-1.510137	-0.231964
C84	C	0.142259	-1.010137	0.268036
C85	C	-0.357562	-1.510309	-0.115812
C86	C	0.142438	-1.010309	0.384188
H87	H	-0.811021	-1.381219	-0.632167
H88	H	-0.311021	-0.881219	-0.132167
C89	C	-0.260212	-1.373421	-1.124203
C90	C	0.239788	-0.873421	-0.624203
N91	N	-0.220876	-1.318132	-1.169522
N92	N	0.279124	-0.818132	-0.669522
C93	C	-0.409878	-1.583593	-0.952362
C94	C	0.090122	-1.083593	-0.452362
N95	N	-0.449261	-1.638804	-0.997676
N96	N	0.050739	-1.138804	-0.497676
H97	H	-0.811157	-1.462994	-0.327426
H98	H	-0.311157	-0.962994	0.172574
C99	C	-0.911530	-1.306005	-0.448627
C100	C	-0.411530	-0.806005	0.051373
N101	N	-0.933677	-1.224004	-0.426585
N102	N	-0.433677	-0.724004	0.073415
H103	H	-0.903512	-1.639152	-0.374645
H104	H	-0.403512	-1.139152	0.125355
C105	C	-0.305468	-0.959016	-0.430161
C106	C	0.194532	-0.459016	0.069839
N107	N	-0.266091	-1.004324	-0.374921
N108	N	0.233909	-0.504324	0.125079
H109	H	-0.396217	-1.564647	-1.071281
H110	H	0.103783	-1.064647	-0.571281
H111	H	-0.810788	-1.686071	-0.550818
H112	H	-0.310788	-1.186071	-0.050818
H113	H	-0.903630	-1.557249	-0.679509
H114	H	-0.403630	-1.057249	-0.179509
H115	H	-0.441593	-1.115259	-0.621158
H116	H	0.058407	-0.615259	-0.121158
H117	H	-0.441621	-0.906133	-0.621183
H118	H	0.058379	-0.406133	-0.121183
C119	C	-0.260272	-1.373368	-0.883823
C120	C	0.239728	-0.873368	-0.383823
N121	N	-0.220951	-1.318068	-0.838509
N122	N	0.279049	-0.818068	-0.338509
H123	H	-0.319036	-1.077937	-0.449201
H124	H	0.180964	-0.577937	0.050799
