data_functionalizedCrystal
_audit_creation_method	'MofGen! by Chris Wilmer'
_symmetry_space_group_name_H-M	'P1'
_symmetry_Int_Tables_number	1
_symmetry_cell_setting	triclinic
loop_
_symmetry_equiv_pos_as_xyz
  x,y,z
_cell_length_a	16.625548
_cell_length_b	21.295417
_cell_length_c	16.625539
_cell_angle_alpha	90.033373
_cell_angle_beta	90.020568
_cell_angle_gamma	90.031575
loop_
_atom_site_label
_atom_site_type_symbol
_atom_site_fract_x
_atom_site_fract_y
_atom_site_fract_z
Zn1	Zn	1.232635	-0.250590	0.455881
Zn2	Zn	1.565969	0.082743	0.789214
Zn3	Zn	1.899302	0.416077	1.122548
Zn4	Zn	1.232520	-0.355864	0.321036
Zn5	Zn	1.565853	-0.022530	0.654370
Zn6	Zn	1.899186	0.310803	0.987703
Zn7	Zn	1.097797	-0.250614	0.321061
Zn8	Zn	1.431131	0.082719	0.654395
Zn9	Zn	1.764464	0.416053	0.987728
Zn10	Zn	1.097749	-0.355827	0.455826
Zn11	Zn	1.431082	-0.022494	0.789159
Zn12	Zn	1.764415	0.310839	1.122493
O13	O	1.165175	-0.303224	0.388451
O14	O	1.498509	0.030110	0.721785
O15	O	1.831842	0.363443	1.055118
O16	O	1.345452	-0.264560	0.438006
O17	O	1.678786	0.068773	0.771339
O18	O	2.012119	0.402107	1.104673
O19	O	1.214620	-0.341927	0.208207
O20	O	1.547954	-0.008594	0.541540
O21	O	1.881287	0.324740	0.874874
O22	O	1.115753	-0.162522	0.338979
O23	O	1.449086	0.170812	0.672312
O24	O	1.782419	0.504145	1.005646
O25	O	1.345367	-0.341904	0.338936
O26	O	1.678701	-0.008571	0.672269
O27	O	2.012034	0.324763	1.005603
O28	O	1.214818	-0.162504	0.438030
O29	O	1.548151	0.170829	0.771364
O30	O	1.881484	0.504163	1.104697
O31	O	1.115640	-0.264601	0.208226
O32	O	1.448974	0.068732	0.541559
O33	O	1.782307	0.402066	0.874892
O34	O	0.984958	-0.264566	0.338926
O35	O	1.318292	0.068768	0.672259
O36	O	1.651625	0.402101	1.005593
O37	O	1.115670	-0.341842	0.568666
O38	O	1.449003	-0.008509	0.901999
O39	O	1.782337	0.324824	1.235332
O40	O	0.984923	-0.341866	0.437937
O41	O	1.318256	-0.008532	0.771270
O42	O	1.651589	0.324801	1.104604
O43	O	1.214771	-0.264525	0.568706
O44	O	1.548104	0.068808	0.902039
O45	O	1.881437	0.402142	1.235373
O46	O	1.214573	-0.443948	0.338883
O47	O	1.547907	-0.110615	0.672216
O48	O	1.881240	0.222719	1.005550
O49	O	1.115558	-0.443922	0.437912
O50	O	1.448891	-0.110588	0.771246
O51	O	1.782224	0.222745	1.104579
C52	C	0.955684	-0.303215	0.388429
C53	C	1.289018	0.030119	0.721762
C54	C	1.622351	0.363452	1.055095
C55	C	0.866063	-0.303226	0.388438
C56	C	1.199397	0.030107	0.721771
C57	C	1.532730	0.363441	1.055105
C58	C	0.537888	-0.303230	0.388473
C59	C	0.871221	0.030103	0.721806
C60	C	1.204554	0.363436	1.055139
C61	C	0.629196	-0.303227	0.388460
C62	C	0.962529	0.030106	0.721794
C63	C	1.295863	0.363439	1.055127
C64	C	0.701973	-0.303229	0.388455
C65	C	1.035306	0.030105	0.721788
C66	C	1.368639	0.363438	1.055121
C67	C	0.793287	-0.303225	0.388444
C68	C	1.126620	0.030108	0.721777
C69	C	1.459954	0.363442	1.055111
C70	C	1.165070	-0.466775	0.388407
C71	C	1.498403	-0.133442	0.721740
C72	C	1.831736	0.199891	1.055073
C73	C	1.165098	-0.536744	0.388414
C74	C	1.498431	-0.203410	0.721748
C75	C	1.831765	0.129923	1.055081
C76	C	1.216701	-0.569603	0.336903
C77	C	1.550035	-0.236270	0.670236
C78	C	1.883368	0.097064	1.003569
C79	C	1.216739	-0.635346	0.336921
C80	C	1.550073	-0.302012	0.670254
C81	C	1.883406	0.031321	1.003587
C82	C	1.165159	-0.668226	0.388442
C83	C	1.498493	-0.334893	0.721776
C84	C	1.831826	-0.001559	1.055109
C85	C	1.113552	-0.635359	0.439964
C86	C	1.446886	-0.302025	0.773297
C87	C	1.780219	0.031308	1.106631
C88	C	1.113522	-0.569617	0.439950
C89	C	1.446855	-0.236284	0.773283
C90	C	1.780188	0.097049	1.106617
N91	N	1.094624	-0.771493	0.394581
N92	N	1.427958	-0.438159	0.727915
N93	N	1.761291	-0.104826	1.061248
N94	N	1.094656	-0.833944	0.394590
N95	N	1.427989	-0.500611	0.727923
N96	N	1.761322	-0.167277	1.061257
C97	C	1.165250	-0.866301	0.388488
C98	C	1.498583	-0.532967	0.721822
C99	C	1.831916	-0.199634	1.055155
N100	N	1.235813	-0.833847	0.382362
N101	N	1.569146	-0.500513	0.715696
N102	N	1.902479	-0.167180	1.049029
N103	N	1.235780	-0.771389	0.382350
N104	N	1.569114	-0.438056	0.715683
N105	N	1.902447	-0.104723	1.049016
C106	C	1.165187	-0.739511	0.388463
C107	C	1.498520	-0.406178	0.721797
C108	C	1.831854	-0.072845	1.055130
C109	C	1.216898	-0.970446	0.336994
C110	C	1.550232	-0.637112	0.670327
C111	C	1.883565	-0.303779	1.003660
C112	C	1.216937	-1.036189	0.337017
C113	C	1.550271	-0.702856	0.670351
C114	C	1.883604	-0.369523	1.003684
C115	C	1.113743	-1.036201	0.440056
C116	C	1.447077	-0.702868	0.773390
C117	C	1.780410	-0.369534	1.106723
C118	C	1.113711	-0.970459	0.440037
C119	C	1.447045	-0.637125	0.773370
C120	C	1.780378	-0.303792	1.106704
C121	C	1.165288	-0.937585	0.388501
C122	C	1.498621	-0.604252	0.721834
C123	C	1.831954	-0.270918	1.055168
C124	C	1.375484	-0.303233	0.388474
C125	C	1.708817	0.030100	0.721808
C126	C	2.042151	0.363433	1.055141
C127	C	1.465105	-0.303237	0.388484
C128	C	1.798439	0.030096	0.721817
C129	C	2.131772	0.363429	1.055151
C130	C	1.165228	-0.303177	0.598760
C131	C	1.498561	0.030156	0.932094
C132	C	1.831894	0.363490	1.265427
C133	C	1.165250	-0.303157	0.688381
C134	C	1.498583	0.030176	1.021715
C135	C	1.831917	0.363510	1.355048
C136	C	1.165303	-0.139033	0.388514
C137	C	1.498637	0.194300	0.721847
C138	C	1.831970	0.527633	1.055180
C139	C	1.165358	-0.069065	0.388540
C140	C	1.498691	0.264268	0.721874
C141	C	1.832025	0.597601	1.055207
C142	C	1.165169	-0.303225	0.178960
C143	C	1.498503	0.030108	0.512294
C144	C	1.831836	0.363442	0.845627
C145	C	1.165303	-0.303068	0.089340
C146	C	1.498637	0.030266	0.422673
C147	C	1.831970	0.363599	0.756006
C148	C	1.165287	-0.303086	1.016557
C149	C	1.498621	0.030247	1.349891
C150	C	1.831954	0.363580	1.683224
C151	C	1.165275	-0.303108	0.925249
C152	C	1.498608	0.030225	1.258582
C153	C	1.831941	0.363559	1.591915
C154	C	1.165269	-0.303122	0.852472
C155	C	1.498602	0.030211	1.185806
C156	C	1.831936	0.363544	1.519139
C157	C	1.165256	-0.303143	0.761158
C158	C	1.498589	0.030191	1.094491
C159	C	1.831922	0.363524	1.427825
H160	H	1.258700	-0.542839	0.294941
H161	H	1.592033	-0.209506	0.628275
H162	H	1.925366	0.123827	0.961608
C163	C	1.273693	-1.072338	0.280343
C164	C	1.607026	-0.739005	0.613677
C165	C	1.940360	-0.405672	0.947010
H166	H	1.266329	-1.116200	0.287735
H167	H	1.599663	-0.782867	0.621068
H168	H	1.932996	-0.449533	0.954401
H169	H	1.261904	-1.061602	0.226159
H170	H	1.595237	-0.728269	0.559492
H171	H	1.928571	-0.394936	0.892825
H172	H	1.327863	-1.061521	0.292181
H173	H	1.661197	-0.728187	0.625515
H174	H	1.994530	-0.394854	0.958848
C175	C	1.056937	-0.934311	0.496690
C176	C	1.390270	-0.600978	0.830024
C177	C	1.723604	-0.267645	1.163357
H178	H	1.026217	-0.963308	0.527373
H179	H	1.359551	-0.629974	0.860707
H180	H	1.692884	-0.296641	1.194040
H181	H	1.087745	-0.908621	0.531846
H182	H	1.421078	-0.575287	0.865179
H183	H	1.754411	-0.241954	1.198512
H184	H	1.021809	-0.908712	0.465800
H185	H	1.355142	-0.575378	0.799133
H186	H	1.688475	-0.242045	1.132467
H187	H	1.071557	-0.662134	0.481915
H188	H	1.404891	-0.328801	0.815248
H189	H	1.738224	0.004533	1.148581
C190	C	1.057010	-1.072362	0.496733
C191	C	1.390344	-0.739028	0.830066
C192	C	1.723677	-0.405695	1.163400
H193	H	1.064416	-1.116222	0.489363
H194	H	1.397750	-0.782888	0.822696
H195	H	1.731083	-0.449555	1.156029
H196	H	1.068776	-1.061545	0.550915
H197	H	1.402109	-0.728212	0.884249
H198	H	1.735443	-0.394878	1.217582
H199	H	1.002832	-1.061635	0.484877
H200	H	1.336166	-0.728302	0.818211
H201	H	1.669499	-0.394969	1.151544
H202	H	1.258764	-0.662105	0.294974
H203	H	1.592097	-0.328772	0.628307
H204	H	1.925430	0.004562	0.961640
C205	C	1.273637	-0.934282	0.280317
C206	C	1.606970	-0.600949	0.613650
C207	C	1.940304	-0.267615	0.946983
H208	H	1.304386	-0.963270	0.249648
H209	H	1.637719	-0.629937	0.582982
H210	H	1.971052	-0.296604	0.916315
H211	H	1.242803	-0.908680	0.245149
H212	H	1.576137	-0.575346	0.578482
H213	H	1.909470	-0.242013	0.911815
H214	H	1.308740	-0.908593	0.311194
H215	H	1.642073	-0.575260	0.644527
H216	H	1.975407	-0.241926	0.977860
C217	C	1.056751	-0.533470	0.496611
C218	C	1.390085	-0.200137	0.829944
C219	C	1.723418	0.133196	1.163278
H220	H	1.026034	-0.562466	0.527297
H221	H	1.359367	-0.229132	0.860631
H222	H	1.692700	0.104201	1.193964
H223	H	1.087562	-0.507779	0.531763
H224	H	1.420895	-0.174446	0.865096
H225	H	1.754228	0.158888	1.198430
H226	H	1.021621	-0.507871	0.465722
H227	H	1.354954	-0.174538	0.799055
H228	H	1.688287	0.158795	1.132389
