data_functionalizedCrystal
_audit_creation_method	'MofGen! by Chris Wilmer'
_symmetry_space_group_name_H-M	'P1'
_symmetry_Int_Tables_number	1
_symmetry_cell_setting	triclinic
loop_
_symmetry_equiv_pos_as_xyz
  x,y,z
_cell_length_a	19.188925
_cell_length_b	17.699083
_cell_length_c	16.176319
_cell_angle_alpha	89.998611
_cell_angle_beta	89.993545
_cell_angle_gamma	83.212782
loop_
_atom_site_label
_atom_site_type_symbol
_atom_site_fract_x
_atom_site_fract_y
_atom_site_fract_z
O1	O	0.088295	1.003961	-0.068630
O2	O	0.588295	1.503961	0.431370
O3	O	0.099782	0.783567	-0.068657
O4	O	0.599782	1.283567	0.431343
O5	O	-0.007610	0.900126	-0.068638
O6	O	0.492390	1.400126	0.431362
O7	O	0.195687	0.887401	-0.068649
O8	O	0.695687	1.387401	0.431351
O9	O	-0.007617	0.900110	0.068855
O10	O	0.492383	1.400110	0.568855
O11	O	0.099775	0.783551	0.068836
O12	O	0.599775	1.283551	0.568836
O13	O	0.088288	1.003945	0.068863
O14	O	0.588288	1.503945	0.568863
Cu15	Cu	0.094031	0.893746	0.081404
Cu16	Cu	0.594031	1.393746	0.581404
Cu17	Cu	0.094039	0.893765	-0.081198
Cu18	Cu	0.594039	1.393765	0.418802
O19	O	0.195680	0.887386	0.068844
O20	O	0.695680	1.387386	0.568844
C21	C	0.099367	0.755362	0.000086
C22	C	0.599367	1.255362	0.500086
C23	C	0.098132	0.671346	0.000076
C24	C	0.598132	1.171346	0.500076
C25	C	-0.033625	0.899707	0.000108
C26	C	0.466375	1.399707	0.500108
C27	C	-0.111131	0.898472	0.000106
C28	C	0.388869	1.398472	0.500106
C29	C	0.161169	0.622641	0.000073
C30	C	0.661169	1.122641	0.500073
C31	C	0.160005	0.543699	0.000084
C32	C	0.660005	1.043699	0.500084
C33	C	0.095803	0.513464	0.000092
C34	C	0.595803	1.013464	0.500092
C35	C	0.032761	0.562176	0.000097
C36	C	0.532761	1.062176	0.500097
C37	C	0.033926	0.641116	0.000092
C38	C	0.533926	1.141116	0.500092
C39	C	0.028060	0.243819	0.000118
C40	C	0.528060	0.743819	0.500118
C41	C	0.026900	0.164872	0.000120
C42	C	0.526900	0.664872	0.500120
C43	C	0.154139	0.146402	0.000109
C44	C	0.654139	0.646402	0.500109
C45	C	0.155304	0.225342	0.000104
C46	C	0.655304	0.725342	0.500104
C47	C	0.092263	0.274047	0.000114
C48	C	0.592263	0.774047	0.500114
C49	C	0.093526	0.359644	0.000104
C50	C	0.593526	0.859644	0.500104
C51	C	0.094538	0.427868	0.000096
C52	C	0.594538	0.927868	0.500096
C53	C	-0.672834	0.958596	0.000093
C54	C	-0.172834	1.458596	0.500093
C55	C	-0.600010	0.959763	0.000100
C56	C	-0.100010	1.459763	0.500100
C57	C	-0.555152	0.891370	0.000092
C58	C	-0.055152	1.391370	0.500092
C59	C	-0.583124	0.821804	0.000096
C60	C	-0.083124	1.321804	0.500096
C61	C	-0.655947	0.820639	0.000097
C62	C	-0.155947	1.320639	0.500097
N63	N	-0.434525	0.841861	-0.046714
N64	N	0.065475	1.341861	0.453286
N65	N	-0.365346	0.842973	-0.046716
N66	N	0.134654	1.342973	0.453284
C67	C	-0.335739	0.894875	0.000091
C68	C	0.164261	1.394875	0.500091
N69	N	-0.377925	0.945637	0.046891
N70	N	0.122075	1.445637	0.546891
N71	N	-0.447110	0.944527	0.046890
N72	N	0.052890	1.444527	0.546890
C73	C	-0.476186	0.892625	0.000091
C74	C	0.023814	1.392625	0.500091
C75	C	-0.228811	0.965702	0.000101
C76	C	0.271189	1.465702	0.500101
C77	C	-0.155984	0.966866	0.000113
C78	C	0.344016	1.466866	0.500113
C79	C	-0.139100	0.828905	0.000101
C80	C	0.360900	1.328905	0.500101
C81	C	-0.211925	0.827743	0.000097
C82	C	0.288075	1.327743	0.500097
C83	C	-0.256776	0.896143	0.000093
C84	C	0.243224	1.396143	0.500093
C85	C	0.221695	0.887805	0.000096
C86	C	0.721695	1.387805	0.500096
C87	C	0.299201	0.889040	0.000093
C88	C	0.799201	1.389040	0.500093
C89	C	0.088703	1.032149	0.000118
C90	C	0.588703	1.532149	0.500118
C91	C	0.089938	1.116166	0.000123
C92	C	0.589938	1.616166	0.500123
N93	N	0.094025	0.893739	0.195769
N94	N	0.594025	1.393739	0.695769
N95	N	0.094040	0.893779	-0.195563
N96	N	0.594040	1.393779	0.304437
C97	C	0.046491	0.945366	0.239042
C98	C	0.546491	1.445366	0.739042
C99	C	0.046490	0.945370	0.325589
C100	C	0.546490	1.445370	0.825589
C101	C	0.094027	0.893749	0.368862
C102	C	0.594027	1.393749	0.868862
C103	C	0.141563	0.842116	0.325583
C104	C	0.641563	1.342116	0.825583
C105	C	0.141560	0.842109	0.239038
C106	C	0.641560	1.342109	0.739038
C107	C	0.141577	0.842142	0.674611
C108	C	0.641577	1.342142	1.174611
C109	C	0.141577	0.842154	0.761163
C110	C	0.641577	1.342154	1.261163
C111	C	0.046506	0.945403	0.761163
C112	C	0.546506	1.445403	1.261163
C113	C	0.046503	0.945396	0.674617
C114	C	0.546503	1.445396	1.174617
C115	C	0.094037	0.893760	0.631346
C116	C	0.594037	1.393760	1.131346
C117	C	0.094036	0.893756	0.537502
C118	C	0.594036	1.393756	1.037502
C119	C	0.094032	0.893757	0.462704
C120	C	0.594032	1.393757	0.962704
H121	H	0.213450	0.647251	0.000066
H122	H	0.713450	1.147251	0.500066
H123	H	-0.546596	0.766118	0.000092
H124	H	-0.046596	1.266118	0.500092
H125	H	0.211336	0.504046	0.000080
H126	H	0.711336	1.004046	0.500080
F127	F	0.192154	0.787173	0.371638
F128	F	0.692154	1.287173	0.871638
F129	F	0.223637	0.257516	0.000091
F130	F	0.723637	0.757516	0.500091
H131	H	0.180266	0.800068	0.203806
H132	H	0.680266	1.300068	0.703806
F133	F	-0.685709	0.746605	0.000097
F134	F	-0.185709	1.246605	0.500097
F135	F	0.221234	0.094561	0.000102
F136	F	0.721234	0.594561	0.500102
F137	F	-0.276547	1.038498	0.000099
F138	F	0.223453	1.538498	0.500099
F139	F	-0.126224	1.040901	0.000111
F140	F	0.373776	1.540901	0.500111
H141	H	-0.102577	0.773218	0.000102
H142	H	0.397423	1.273218	0.500102
F143	F	-0.241687	0.753711	0.000091
F144	F	0.258313	1.253711	0.500091
H145	H	-0.025384	0.140259	0.000128
H146	H	0.474616	0.640259	0.500128
H147	H	-0.023272	0.283465	0.000127
H148	H	0.476728	0.783465	0.500127
F149	F	0.192175	0.787209	0.807216
F150	F	0.692175	1.287209	1.307216
F151	F	-0.033167	0.692952	0.000099
F152	F	0.466833	1.192952	0.500099
F153	F	-0.035569	0.529995	0.000111
F154	F	0.464431	1.029995	0.500111
H155	H	0.007800	0.987445	0.796403
H156	H	0.507800	1.487445	1.296403
H157	H	0.007784	0.987405	0.203815
H158	H	0.507784	1.487405	0.703815
F159	F	-0.004102	1.000317	0.371643
F160	F	0.495898	1.500317	0.871643
H161	H	-0.709348	1.014293	0.000094
H162	H	-0.209348	1.514293	0.500094
F163	F	-0.570241	1.033797	0.000108
F164	F	-0.070241	1.533797	0.500108
H165	H	0.007796	0.987433	0.639387
H166	H	0.507796	1.487433	1.139387
H167	H	0.180281	0.800100	0.639387
H168	H	0.680281	1.300100	1.139387
