data_functionalizedCrystal
_audit_creation_method	'MofGen! by Chris Wilmer'
_symmetry_space_group_name_H-M	'P1'
_symmetry_Int_Tables_number	1
_symmetry_cell_setting	triclinic
loop_
_symmetry_equiv_pos_as_xyz
  x,y,z
_cell_length_a	21.295420
_cell_length_b	21.295417
_cell_length_c	21.395356
_cell_angle_alpha	90.027507
_cell_angle_beta	90.016531
_cell_angle_gamma	90.027953
loop_
_atom_site_label
_atom_site_type_symbol
_atom_site_fract_x
_atom_site_fract_y
_atom_site_fract_z
Zn1	Zn	0.962308	-0.250667	0.354256
Zn2	Zn	1.462308	0.249333	0.854256
Zn3	Zn	0.962227	-0.355932	0.249475
Zn4	Zn	1.462227	0.144068	0.749475
Zn5	Zn	0.857046	-0.250677	0.249492
Zn6	Zn	1.357046	0.249323	0.749492
Zn7	Zn	0.857002	-0.355899	0.354215
Zn8	Zn	1.357002	0.144101	0.854215
O9	O	0.909646	-0.303294	0.301859
O10	O	1.409646	0.196706	0.801859
O11	O	1.050387	-0.264640	0.340366
O12	O	1.550387	0.235360	0.840366
O13	O	0.948259	-0.341987	0.161799
O14	O	1.448259	0.158013	0.661799
O15	O	0.871062	-0.162587	0.263414
O16	O	1.371062	0.337413	0.763414
O17	O	1.050327	-0.341978	0.263384
O18	O	1.550327	0.158022	0.763384
O19	O	0.948397	-0.162579	0.340383
O20	O	1.448397	0.337421	0.840383
O21	O	0.870983	-0.264657	0.161812
O22	O	1.370983	0.235343	0.661812
O23	O	0.768951	-0.264626	0.263374
O24	O	1.268951	0.235374	0.763374
O25	O	0.870987	-0.341922	0.441898
O26	O	1.370987	0.158078	0.941898
O27	O	0.768919	-0.341932	0.340313
O28	O	1.268919	0.158068	0.840313
O29	O	0.948355	-0.264609	0.441928
O30	O	1.448355	0.235391	0.941928
O31	O	0.948216	-0.444017	0.263344
O32	O	1.448216	0.055983	0.763344
O33	O	0.870908	-0.443993	0.340296
O34	O	1.370908	0.056007	0.840296
C35	C	0.746094	-0.303277	0.301841
C36	C	1.246094	0.196723	0.801841
C37	C	0.676126	-0.303285	0.301848
C38	C	1.176126	0.196715	0.801848
C39	C	0.176668	-0.343621	0.341883
C40	C	0.676668	0.156379	0.841883
C41	C	0.242410	-0.343622	0.341876
C42	C	0.742410	0.156378	0.841876
C43	C	0.275287	-0.303308	0.301879
C44	C	0.775287	0.196692	0.801879
C45	C	0.242415	-0.263003	0.261874
C46	C	0.742415	0.236997	0.761874
C47	C	0.176674	-0.263008	0.261877
C48	C	0.676674	0.236992	0.761877
N49	N	0.378527	-0.248191	0.297167
N50	N	0.878527	0.251809	0.797167
N51	N	0.440979	-0.248188	0.297168
N52	N	0.940979	0.251812	0.797168
C53	C	0.473362	-0.303291	0.301866
C54	C	0.973362	0.196709	0.801866
N55	N	0.440933	-0.358398	0.306575
N56	N	0.940933	0.141602	0.806575
N57	N	0.378476	-0.358400	0.306578
N58	N	0.878476	0.141600	0.806578
C59	C	0.346572	-0.303298	0.301871
C60	C	0.846572	0.196702	0.801871
C61	C	0.577511	-0.343597	0.341858
C62	C	1.077511	0.156403	0.841858
C63	C	0.643254	-0.343598	0.341847
C64	C	1.143254	0.156402	0.841847
C65	C	0.643258	-0.262974	0.261848
C66	C	1.143258	0.237026	0.761848
C67	C	0.577516	-0.262978	0.261856
C68	C	1.077516	0.237022	0.761856
C69	C	0.544646	-0.303289	0.301864
C70	C	1.044646	0.196711	0.801864
C71	C	0.909566	-0.466846	0.301828
C72	C	1.409566	0.033154	0.801828
C73	C	0.909589	-0.536814	0.301835
C74	C	1.409589	-0.036814	0.801835
C75	C	0.949834	-0.569619	0.341941
C76	C	1.449834	-0.069619	0.841941
C77	C	0.949857	-0.635362	0.341957
C78	C	1.449857	-0.135362	0.841957
C79	C	0.909640	-0.668296	0.301855
C80	C	1.409640	-0.168296	0.801855
C81	C	0.869387	-0.635483	0.261745
C82	C	1.369387	-0.135483	0.761745
C83	C	0.869361	-0.569741	0.261735
C84	C	1.369361	-0.069741	0.761735
N85	N	0.904888	-0.771555	0.247021
N86	N	1.404888	-0.271555	0.747021
N87	N	0.904916	-0.834006	0.247032
N88	N	1.404916	-0.334006	0.747032
C89	C	0.909714	-0.866371	0.301883
C90	C	1.409714	-0.366371	0.801883
N91	N	0.914494	-0.833925	0.356723
N92	N	1.414494	-0.333925	0.856723
N93	N	0.914469	-0.771467	0.356712
N94	N	1.414469	-0.271467	0.856712
C95	C	0.909663	-0.739582	0.301861
C96	C	1.409663	-0.239582	0.801861
C97	C	0.949985	-0.970462	0.342010
C98	C	1.449985	-0.470462	0.842010
C99	C	0.950003	-1.036206	0.342026
C100	C	1.450003	-0.536206	0.842026
C101	C	0.869536	-1.036325	0.261809
C102	C	1.369536	-0.536325	0.761809
C103	C	0.869515	-0.970583	0.261798
C104	C	1.369515	-0.470583	0.761798
C105	C	0.909743	-0.937655	0.301897
C106	C	1.409743	-0.437655	0.801897
C107	C	1.073836	-0.303312	0.301878
C108	C	1.573836	0.196688	0.801878
C109	C	1.143804	-0.303319	0.301886
C110	C	1.643804	0.196681	0.801886
C111	C	0.909675	-0.303261	0.465283
C112	C	1.409675	0.196739	0.965283
C113	C	0.909687	-0.303247	0.534924
C114	C	1.409687	0.196753	1.034924
C115	C	0.909744	-0.139104	0.301905
C116	C	1.409744	0.360896	0.801905
C117	C	0.909785	-0.069136	0.301924
C118	C	1.409785	0.430864	0.801924
C119	C	0.909653	-0.303282	0.139072
C120	C	1.409653	0.196718	0.639072
C121	C	0.909763	-0.303118	0.069431
C122	C	1.409763	0.196882	0.569431
C123	C	0.949995	-0.343381	1.036714
C124	C	1.449995	0.156619	1.536714
C125	C	0.949984	-0.343401	0.971279
C126	C	1.449984	0.156599	1.471279
C127	C	0.909747	-0.303147	0.938562
C128	C	1.409747	0.196853	1.438562
C129	C	0.869507	-0.262882	0.971287
C130	C	1.369507	0.237118	1.471287
C131	C	0.869515	-0.262868	1.036721
C132	C	1.369515	0.237132	1.536721
C133	C	0.904798	-0.246455	0.834909
C134	C	1.404798	0.253545	1.334909
C135	C	0.904794	-0.246468	0.769476
C136	C	1.404794	0.253532	1.269476
C137	C	0.909719	-0.303192	0.736742
C138	C	1.409719	0.196808	1.236742
C139	C	0.914660	-0.359904	0.769448
C140	C	1.414660	0.140096	1.269448
C141	C	0.914668	-0.359889	0.834882
C142	C	1.414668	0.140111	1.334882
C143	C	0.909734	-0.303158	0.867610
C144	C	1.409734	0.196842	1.367610
C145	C	0.949941	-0.343479	0.633072
C146	C	1.449941	0.156521	1.133072
C147	C	0.949925	-0.343500	0.567636
C148	C	1.449925	0.156500	1.067636
C149	C	0.869452	-0.262976	0.567645
C150	C	1.369452	0.237024	1.067645
C151	C	0.869464	-0.262960	0.633081
C152	C	1.369464	0.237040	1.133081
C153	C	0.909712	-0.303211	0.665790
C154	C	1.409712	0.196789	1.165790
H155	H	0.550758	-0.230157	0.229288
H156	H	1.050758	0.269843	0.729288
H157	H	0.982624	-0.662078	0.374624
H158	H	1.482624	-0.162078	0.874624
Cl159	Cl	0.818825	-0.676885	0.211335
Cl160	Cl	1.318825	-0.176885	0.711335
H161	H	0.550747	-0.376421	0.374434
H162	H	1.050747	0.123579	0.874434
Cl163	Cl	0.684582	-0.212299	0.211559
Cl164	Cl	1.184582	0.287701	0.711559
H165	H	0.982767	-0.376158	1.063342
H166	H	1.482767	0.123842	1.563342
H167	H	0.836753	-0.230080	1.063359
H168	H	1.336753	0.269920	1.563359
H169	H	0.149909	-0.376448	0.374458
H170	H	0.649909	0.123552	0.874458
Cl171	Cl	0.898587	-0.175174	0.728366
Cl172	Cl	1.398587	0.324826	1.228366
H173	H	0.149917	-0.230188	0.229307
H174	H	0.649917	0.269812	0.729307
Cl175	Cl	0.818875	-0.212350	0.674212
Cl176	Cl	1.318875	0.287650	1.174212
Cl177	Cl	0.818976	-1.077722	0.211396
Cl178	Cl	1.318976	-0.577722	0.711396
H179	H	0.269173	-0.376441	0.374448
H180	H	0.769173	0.123559	0.874448
H181	H	0.670011	-0.376421	0.374415
H182	H	1.170011	0.123579	0.874415
H183	H	0.982589	-0.542812	0.374594
H184	H	1.482589	-0.042812	0.874594
H185	H	0.836588	-0.543030	0.229075
H186	H	1.336588	-0.043030	0.729075
Cl187	Cl	1.000553	-0.929064	0.392422
Cl188	Cl	1.500553	-0.429064	0.892422
Cl189	Cl	0.920854	-0.431218	0.728304
Cl190	Cl	1.420854	0.068782	1.228304
H191	H	0.836745	-0.230108	0.944645
H192	H	1.336745	0.269892	1.444645
H193	H	0.836746	-0.943871	0.229137
H194	H	1.336746	-0.443871	0.729137
H195	H	0.982755	-0.376180	0.944636
H196	H	1.482755	0.123820	1.444636
Cl197	Cl	0.898921	-0.175112	0.876054
Cl198	Cl	1.398921	0.324888	1.376054
H199	H	0.269187	-0.230181	0.229307
H200	H	0.769187	0.269819	0.729307
Cl201	Cl	1.000595	-1.077448	0.392458
Cl202	Cl	1.500595	-0.577448	0.892458
H203	H	0.918690	-0.406066	0.861509
H204	H	1.418690	0.093934	1.361509
Cl205	Cl	1.000536	-0.394080	0.674196
Cl206	Cl	1.500536	0.105920	1.174196
H207	H	0.982684	-0.376292	0.540999
H208	H	1.482684	0.123708	1.040999
H209	H	0.836688	-0.230202	0.541008
H210	H	1.336688	0.269798	1.041008
