data_functionalizedCrystal
_audit_creation_method	'MofGen! by Chris Wilmer'
_symmetry_space_group_name_H-M	'P1'
_symmetry_Int_Tables_number	1
_symmetry_cell_setting	triclinic
loop_
_symmetry_equiv_pos_as_xyz
  x,y,z
_cell_length_a	16.992694
_cell_length_b	17.038272
_cell_length_c	16.053802
_cell_angle_alpha	92.751609
_cell_angle_beta	87.249047
_cell_angle_gamma	90.889890
loop_
_atom_site_label
_atom_site_type_symbol
_atom_site_fract_x
_atom_site_fract_y
_atom_site_fract_z
O1	O	1.054593	0.163385	-0.069325
O2	O	0.826187	0.161558	-0.069350
O3	O	0.939032	0.048571	-0.069331
O4	O	0.941748	0.276372	-0.069344
O5	O	0.932819	0.054763	0.069527
O6	O	0.819974	0.167750	0.069508
O7	O	1.048380	0.169577	0.069533
Zn8	Zn	0.933190	0.169646	0.091567
Zn9	Zn	0.941376	0.161489	-0.091384
O10	O	0.935535	0.282564	0.069514
C11	C	0.793711	0.162304	0.000076
C12	C	0.706200	0.155293	0.000067
C13	C	0.660472	0.222933	0.000064
C14	C	0.578245	0.216342	0.000076
C15	C	0.541748	0.142110	0.000085
C16	C	0.587482	0.074465	0.000091
C17	C	0.669707	0.081057	0.000085
C18	C	0.296327	0.114789	0.000109
C19	C	0.214096	0.108201	0.000112
C20	C	0.204864	0.250079	0.000099
C21	C	0.287091	0.256665	0.000088
C22	C	0.332818	0.189020	0.000098
N23	N	0.457699	0.135371	0.000094
N24	N	0.416865	0.195760	0.000095
C25	C	0.933456	0.022384	0.000098
C26	C	0.926089	-0.064871	0.000097
C27	C	0.993729	-0.110741	0.000105
C28	C	0.986802	-0.192727	0.000096
C29	C	0.912235	-0.228840	0.000085
C30	C	0.844590	-0.182964	0.000075
C31	C	0.851518	-0.100981	0.000077
C32	C	0.887761	-0.476135	0.000071
C33	C	0.880838	-0.558124	0.000071
C34	C	1.023051	-0.567881	0.000091
C35	C	1.029972	-0.485895	0.000099
C36	C	0.962328	-0.440026	0.000084
C37	C	0.905153	-0.312643	0.000079
C38	C	0.969410	-0.356226	0.000084
C39	C	1.080856	0.168831	0.000105
C40	C	1.168367	0.175841	0.000109
C41	C	0.941111	0.308751	0.000084
C42	C	0.948478	0.396006	0.000079
N43	N	0.927609	0.175214	0.216427
N44	N	0.946963	0.155915	-0.216243
C45	C	0.975645	0.127157	0.260129
C46	C	0.971749	0.131060	0.347535
C47	C	0.919820	0.183023	0.391237
C48	C	0.871779	0.231082	0.347529
C49	C	0.875672	0.227175	0.260125
C50	C	0.902815	0.200067	0.652644
C51	C	0.898928	0.203972	0.740055
C52	C	0.998897	0.103948	0.740054
C53	C	1.002788	0.100050	0.652648
C54	C	0.954744	0.148105	0.608948
N55	N	0.915838	0.187015	0.480580
N56	N	0.958723	0.144109	0.519606
H57	H	0.706939	0.025977	0.000087
C58	C	0.346620	0.040384	0.000108
H59	H	0.400818	0.054936	0.000111
H60	H	0.337199	0.008000	-0.048314
H61	H	0.332881	0.012316	0.048538
C62	C	0.154566	0.324484	0.000092
H63	H	0.188080	0.369636	0.000080
H64	H	0.120137	0.327024	0.048515
H65	H	0.124461	0.322700	-0.048336
C66	C	1.059945	0.042928	0.604577
H67	H	1.055401	0.047501	0.546263
H68	H	1.047304	-0.009385	0.618889
H69	H	1.112414	0.055453	0.618914
H70	H	1.017934	0.084847	0.224552
H71	H	0.557760	0.014024	0.000110
C72	C	0.822836	0.280037	0.212049
H73	H	0.832586	0.270263	0.153735
H74	H	0.834239	0.333616	0.226361
H75	H	0.769078	0.268830	0.226383
H76	H	0.690181	0.283381	0.000056
C77	C	1.075751	-0.071019	0.000120
H78	H	1.070192	-0.015622	0.000128
H79	H	1.106001	-0.088616	-0.048299
H80	H	1.101661	-0.084306	0.048552
H81	H	1.041882	-0.230071	0.000105
C82	C	0.813354	-0.425689	0.000069
H83	H	0.767954	-0.458941	0.000074
H84	H	0.815260	-0.395658	-0.048351
H85	H	0.810936	-0.391351	0.048501
C86	C	1.051732	0.051085	0.788126
H87	H	1.041974	0.060847	0.846440
H88	H	1.105488	0.062281	0.773793
H89	H	1.040317	-0.002496	0.773810
H90	H	0.863697	0.239197	0.617070
C91	C	0.841759	0.261090	0.788126
H92	H	0.813685	0.289133	0.749583
H93	H	0.870703	0.297099	0.822235
H94	H	0.805599	0.232255	0.822211
C95	C	0.814661	0.288242	0.395600
H96	H	0.819227	0.283693	0.453914
H97	H	0.762180	0.275763	0.381287
H98	H	0.827349	0.340542	0.381262
C99	C	1.024596	0.078205	0.395603
H100	H	1.056089	0.046708	0.357057
H101	H	0.992584	0.045255	0.429712
H102	H	1.057736	0.110051	0.429687
C103	C	1.111996	-0.446176	0.000100
H104	H	1.151290	-0.485237	0.000095
H105	H	1.115492	-0.412238	0.048522
H106	H	1.119816	-0.416556	-0.048330
C107	C	0.173947	0.026545	0.000129
H108	H	0.118428	0.032310	0.000122
H109	H	0.187156	0.000640	0.048555
H110	H	0.191479	-0.003686	-0.048296
C111	C	1.097453	-0.618337	0.000096
H112	H	1.082651	-0.672337	0.000085
H113	H	1.125641	-0.604752	0.048519
H114	H	1.129966	-0.609060	-0.048332
H115	H	0.541016	0.271422	0.000072
H116	H	0.783876	-0.212375	0.000061
H117	H	0.316801	0.317112	0.000071
C118	C	0.798812	-0.597849	0.000045
H119	H	0.759517	-0.558790	0.000026
H120	H	0.790979	-0.627474	0.048464
H121	H	0.795334	-0.631782	-0.048387
H122	H	0.796438	-0.063634	0.000071
H123	H	1.030124	-0.326819	0.000074
H124	H	0.844440	-0.342056	0.000072
