data_functionalizedCrystal
_audit_creation_method	'MofGen! by Chris Wilmer'
_symmetry_space_group_name_H-M	'P1'
_symmetry_Int_Tables_number	1
_symmetry_cell_setting	triclinic
loop_
_symmetry_equiv_pos_as_xyz
  x,y,z
_cell_length_a	10.908925
_cell_length_b	9.730223
_cell_length_c	10.654550
_cell_angle_alpha	89.995747
_cell_angle_beta	72.285794
_cell_angle_gamma	89.992798
loop_
_atom_site_label
_atom_site_type_symbol
_atom_site_fract_x
_atom_site_fract_y
_atom_site_fract_z
O1	O	-1.702112	0.114395	0.193574
O2	O	-1.329123	0.114375	0.095695
O3	O	-1.524193	0.114377	0.329238
O4	O	-1.507042	0.114393	-0.039969
O5	O	-1.524180	-0.114203	0.329241
O6	O	-1.329110	-0.114205	0.095698
O7	O	-1.702099	-0.114185	0.193577
Zn8	Zn	-1.515603	-0.150487	0.144638
Zn9	Zn	-1.515619	0.150677	0.144634
O10	O	-1.507029	-0.114187	-0.039966
C11	C	-1.281357	0.000082	0.086549
C12	C	-1.139048	0.000074	0.059309
C13	C	-0.942072	0.000088	0.130568
C14	C	-1.089156	0.000075	0.158725
N15	N	-1.515601	-0.356023	0.144643
C16	C	-1.602007	-0.427948	0.248026
C17	C	-1.602020	-0.571831	0.248028
C18	C	-1.429215	-0.571851	0.041252
C19	C	-1.429197	-0.427971	0.041256
C20	C	-0.749865	0.000101	0.202724
C21	C	-0.892174	0.000089	0.229970
C22	C	-1.522927	0.000088	0.375764
C23	C	-1.519160	0.000090	0.514388
N24	N	-1.515631	0.356213	0.144641
C25	C	-1.508295	0.000106	-0.086491
C26	C	-1.512062	0.000113	-0.225116
C27	C	-1.634014	0.000096	0.618838
C28	C	-1.630466	0.000113	0.749088
C29	C	-1.397199	0.000110	0.670422
C30	C	-1.400749	0.000103	0.540175
H31	H	-1.072883	0.000086	-0.046646
O32	O	-1.685975	-0.358270	0.348589
C33	C	-1.762261	-0.452614	0.439821
H34	H	-1.709712	-0.555191	0.430289
H35	H	-1.780923	-0.411055	0.544003
H36	H	-1.857834	-0.467885	0.418947
H37	H	-1.358828	-0.369406	-0.042933
H38	H	-1.300793	0.000119	0.691435
O39	O	-1.741949	-0.000065	0.850661
C40	C	-1.746880	-0.118456	0.928354
H41	H	-1.645082	-0.157924	0.913722
H42	H	-1.793749	-0.091819	1.036586
H43	H	-1.805796	-0.201358	0.897579
H44	H	-1.307215	0.000102	0.455123
H45	H	-1.730431	0.000088	0.597849
O46	O	-0.971236	0.000264	0.356312
C47	C	-1.049426	0.118660	0.378055
H48	H	-1.056950	0.158131	0.279924
H49	H	-1.149531	0.092027	0.445624
H50	H	-1.005025	0.201557	0.426199
O51	O	-0.863010	0.000281	0.004226
C52	C	-0.784861	0.118690	-0.017514
H53	H	-0.777352	0.158158	0.080618
H54	H	-0.684745	0.092076	-0.085081
H55	H	-0.829289	0.201583	-0.065658
O56	O	-1.168266	0.000007	0.285052
C57	C	-1.297509	0.000035	0.285044
H58	H	-1.303380	-0.043238	0.187611
H59	H	-1.357510	-0.066333	0.369690
H60	H	-1.336147	0.109694	0.297823
O61	O	-1.685781	-0.641760	0.348540
C62	C	-1.616475	-0.725038	0.411568
H63	H	-1.515375	-0.681705	0.392641
H64	H	-1.667891	-0.726667	0.522091
H65	H	-1.610115	-0.834080	0.370939
O66	O	-1.345419	-0.641957	-0.059106
C67	C	-1.363942	-0.784374	-0.036929
H68	H	-1.465428	-0.804004	0.031141
H69	H	-1.350531	-0.839042	-0.134831
H70	H	-1.290848	-0.825238	0.010833
