data_functionalizedCrystal
_audit_creation_method	'MofGen! by Chris Wilmer'
_symmetry_space_group_name_H-M	'P1'
_symmetry_Int_Tables_number	1
_symmetry_cell_setting	triclinic
loop_
_symmetry_equiv_pos_as_xyz
  x,y,z
_cell_length_a	14.971506
_cell_length_b	19.188924
_cell_length_c	13.448316
_cell_angle_alpha	89.991325
_cell_angle_beta	89.992937
_cell_angle_gamma	83.382176
loop_
_atom_site_label
_atom_site_type_symbol
_atom_site_fract_x
_atom_site_fract_y
_atom_site_fract_z
O1	O	1.186452	0.091055	-0.082703
O2	O	0.925997	0.101937	-0.082705
O3	O	1.063744	-0.005135	-0.082692
O4	O	1.048705	0.198127	-0.082716
O5	O	1.063727	-0.005142	0.082692
O6	O	0.925980	0.101930	0.082679
O7	O	1.186435	0.091049	0.082680
Cu8	Cu	1.056206	0.096489	0.097781
Cu9	Cu	1.056226	0.096497	-0.097805
O10	O	1.048688	0.198121	0.082668
C11	C	0.892666	0.101444	-0.000013
C12	C	0.793378	0.099978	-0.000013
C13	C	0.354791	0.157287	-0.000029
C14	C	0.448084	0.158659	-0.000034
C15	C	0.505638	0.095750	-0.000022
C16	C	0.469895	0.031465	-0.000016
C17	C	0.376604	0.030094	-0.000019
C18	C	0.664343	0.034328	-0.000008
C19	C	0.757641	0.035698	-0.000004
C20	C	0.735823	0.162892	-0.000023
C21	C	0.642532	0.161521	-0.000026
C22	C	0.606795	0.097236	-0.000018
C23	C	1.063249	-0.031151	0.000001
C24	C	1.061791	-0.108661	0.000003
C25	C	1.061119	-0.145058	-0.090148
C26	C	1.059736	-0.217886	-0.090155
C27	C	1.059042	-0.254314	-0.000007
C28	C	1.059708	-0.217907	0.090156
C29	C	1.061083	-0.145081	0.090161
N30	N	1.107776	-0.373821	0.067089
N31	N	1.106473	-0.443003	0.067078
C32	C	1.054899	-0.473737	-0.000016
N33	N	1.004689	-0.432676	-0.067115
N34	N	1.005997	-0.363487	-0.067107
C35	C	1.057551	-0.333283	-0.000002
C36	C	1.052726	-0.589102	-0.090182
C37	C	1.051337	-0.661930	-0.090186
C38	C	1.051318	-0.661951	0.090128
C39	C	1.052698	-0.589124	0.090130
C40	C	1.053406	-0.552704	-0.000028
C41	C	1.219766	0.091541	-0.000014
C42	C	1.319054	0.093007	-0.000020
C43	C	1.049183	0.224137	-0.000027
C44	C	1.050641	0.301646	-0.000036
N45	N	1.056198	0.096483	0.235345
N46	N	1.056241	0.096497	-0.235369
C47	C	1.117211	0.049091	0.287391
C48	C	1.117217	0.049090	0.391494
C49	C	1.056213	0.096486	0.443550
C50	C	0.995193	0.143880	0.391496
C51	C	0.995184	0.143877	0.287395
C52	C	0.995218	0.143885	0.608477
C53	C	0.995228	0.143889	0.712585
C54	C	1.117251	0.049098	0.712575
C55	C	1.117242	0.049095	0.608474
C56	C	1.056223	0.096490	0.556428
H57	H	0.764924	0.215236	-0.000029
C58	C	0.928069	0.195978	0.769845
H59	H	0.891702	0.224185	0.723941
H60	H	0.960073	0.225106	0.810470
H61	H	0.890968	0.170761	0.810439
C62	C	1.058944	-0.257972	0.189319
H63	H	1.059533	-0.225861	0.243013
H64	H	1.110554	-0.291662	0.193070
H65	H	1.006253	-0.281102	0.193060
H66	H	1.166934	0.010508	0.754957
C67	C	0.337293	-0.040614	-0.000006
H68	H	0.384930	-0.077884	0.000010
H69	H	0.301361	-0.043792	-0.057680
H70	H	0.301346	-0.043793	0.057673
C71	C	0.533198	-0.037735	-0.000012
H72	H	0.498550	-0.076215	-0.000018
H73	H	0.570040	-0.039849	0.057660
H74	H	0.570048	-0.039839	-0.057693
C75	C	1.061882	-0.104999	-0.189317
H76	H	1.061275	-0.137110	-0.243009
H77	H	1.114562	-0.081863	-0.193068
H78	H	1.010261	-0.071313	-0.193061
C79	C	0.928102	0.196021	0.551228
H80	H	0.891778	0.224255	0.597138
H81	H	0.890967	0.170858	0.510631
H82	H	0.960166	0.225129	0.510606
H83	H	0.804500	-0.015528	-0.000002
C84	C	1.061823	-0.105039	0.189329
H85	H	1.062737	-0.056449	0.176419
H86	H	1.113738	-0.122258	0.226377
H87	H	1.009437	-0.111697	0.226364
C88	C	0.928073	0.196010	0.230145
H89	H	0.891748	0.224243	0.276055
H90	H	0.890940	0.170843	0.189551
H91	H	0.960132	0.225120	0.189520
C92	C	1.053452	-0.549086	0.189297
H93	H	1.052849	-0.581211	0.242987
H94	H	1.001843	-0.515396	0.193050
H95	H	1.106144	-0.525960	0.193043
C96	C	1.053494	-0.549036	-0.189349
H97	H	1.052882	-0.581145	-0.243043
H98	H	1.106179	-0.525907	-0.193096
H99	H	1.001878	-0.515345	-0.193093
H100	H	0.307936	0.208515	-0.000031
H101	H	0.477176	0.211002	-0.000050
H102	H	0.595673	0.212747	-0.000029
H103	H	1.166898	0.010500	0.433869
H104	H	1.166891	0.010499	0.245014
H105	H	0.635251	-0.018020	-0.000007
H106	H	1.059183	-0.247526	-0.163569
C107	C	1.050594	-0.701967	-0.189357
H108	H	1.051219	-0.669844	-0.243046
H109	H	0.997909	-0.725095	-0.193112
H110	H	1.102210	-0.735658	-0.193101
H111	H	1.050747	-0.691610	0.163529
C112	C	1.184344	-0.003039	0.551214
H113	H	1.220680	-0.031270	0.597119
H114	H	1.221468	0.022127	0.510585
H115	H	1.152273	-0.032149	0.510624
H116	H	0.945518	0.182468	0.433886
