data_functionalizedCrystal
_audit_creation_method	'MofGen! by Chris Wilmer'
_symmetry_space_group_name_H-M	'P1'
_symmetry_Int_Tables_number	1
_symmetry_cell_setting	triclinic
loop_
_symmetry_equiv_pos_as_xyz
  x,y,z
_cell_length_a	14.908571
_cell_length_b	16.120531
_cell_length_c	14.908308
_cell_angle_alpha	95.982173
_cell_angle_beta	89.824947
_cell_angle_gamma	90.206159
loop_
_atom_site_label
_atom_site_type_symbol
_atom_site_fract_x
_atom_site_fract_y
_atom_site_fract_z
Zn1	Zn	1.320044	0.434918	0.609928
Zn2	Zn	1.320971	0.566738	0.466341
Zn3	Zn	1.179289	0.418911	0.450104
Zn4	Zn	1.162056	0.565748	0.607942
O5	O	1.245590	0.496579	0.533579
O6	O	1.445580	0.459518	0.598508
O7	O	1.309776	0.540844	0.338040
O8	O	1.204784	0.304415	0.465340
O9	O	1.446261	0.556366	0.493015
O10	O	1.308197	0.316175	0.582763
O11	O	1.205683	0.432235	0.326110
O12	O	1.051590	0.431275	0.463414
O13	O	1.175414	0.554678	0.734353
O14	O	1.038929	0.539156	0.579378
O15	O	1.291487	0.458558	0.735812
O16	O	1.293066	0.683226	0.491090
O17	O	1.176312	0.682499	0.595123
C18	C	1.012741	0.483372	0.519419
C19	C	0.913125	0.477743	0.513384
C20	C	0.712800	0.579660	0.622649
C21	C	0.619201	0.574374	0.616982
C22	C	0.632327	0.461882	0.496387
C23	C	0.725926	0.467168	0.502054
C24	C	0.766159	0.526060	0.565187
C25	C	0.859759	0.531349	0.570849
C26	C	0.872883	0.418853	0.450259
C27	C	0.779285	0.413568	0.444592
C28	C	1.232943	0.713103	0.544674
C29	C	1.227613	0.805739	0.549456
C30	C	1.217885	0.975347	0.558205
C31	C	1.273331	1.016969	0.508904
C32	C	1.267919	1.111345	0.513772
C33	C	1.223297	0.880963	0.553338
C34	C	1.479348	0.509838	0.547794
C35	C	1.578961	0.515488	0.553852
C36	C	1.231425	0.508293	0.768706
C37	C	1.225388	0.513285	0.868903
C38	C	1.258278	1.279209	0.522443
C39	C	1.263606	1.186572	0.517650
C40	C	1.259755	0.484853	0.299366
C41	C	1.265979	0.479636	0.199168
C42	C	1.334911	0.422556	1.058704
C43	C	1.329242	0.427243	1.152848
C44	C	1.208378	0.527343	1.151337
C45	C	1.214047	0.522655	1.057193
C46	C	1.277316	0.470261	1.010880
C47	C	1.282989	0.465578	0.916734
C48	C	1.162121	0.565673	0.915224
C49	C	1.156453	0.570360	1.009368
H50	H	1.324864	0.981723	0.463040
N51	N	1.149615	1.022021	0.618942
H52	H	1.160441	1.010888	0.683444
H53	H	1.155409	1.083782	0.613771
N54	N	1.351230	0.409077	0.866778
H55	H	1.339807	0.349558	0.879261
H56	H	1.346049	0.413422	0.799900
N57	N	1.403155	0.366059	1.008746
H58	H	1.438785	0.336551	1.053330
H59	H	1.371285	0.323477	0.965492
H60	H	0.892515	0.579303	0.622253
H61	H	1.376139	0.388394	1.191783
N62	N	0.756202	0.643183	0.690728
H63	H	0.708196	0.676341	0.726268
H64	H	0.794504	0.613597	0.733122
N65	N	1.140125	0.583815	1.201315
H66	H	1.171920	0.626441	1.244582
H67	H	1.104497	0.613271	1.156691
N68	N	0.561648	0.632187	0.678957
H69	H	0.601342	0.670295	0.719808
H70	H	0.522778	0.666677	0.641816
H71	H	1.104939	0.613017	1.047089
N72	N	0.588926	0.398395	0.428269
H73	H	0.521535	0.403192	0.433392
H74	H	0.608412	0.409029	0.365531
H75	H	1.115226	0.604520	0.876276
H76	H	0.916338	0.375210	0.403467
N77	N	0.735888	0.350068	0.376484
H78	H	0.668497	0.354857	0.381606
H79	H	0.755372	0.360690	0.313741
