data_functionalizedCrystal
_audit_creation_method	'MofGen! by Chris Wilmer'
_symmetry_space_group_name_H-M	'P1'
_symmetry_Int_Tables_number	1
_symmetry_cell_setting	triclinic
loop_
_symmetry_equiv_pos_as_xyz
  x,y,z
_cell_length_a	14.908783
_cell_length_b	13.897441
_cell_length_c	14.908520
_cell_angle_alpha	86.734773
_cell_angle_beta	83.208414
_cell_angle_gamma	86.678177
loop_
_atom_site_label
_atom_site_type_symbol
_atom_site_fract_x
_atom_site_fract_y
_atom_site_fract_z
Zn1	Zn	1.363075	-0.646927	0.280577
Zn2	Zn	1.863075	-0.146927	0.780577
Zn3	Zn	1.354228	-0.494414	0.431967
Zn4	Zn	1.854228	0.005586	0.931967
Zn5	Zn	1.211695	-0.476829	0.289341
Zn6	Zn	1.711695	0.023171	0.789341
Zn7	Zn	1.202935	-0.646850	0.440623
Zn8	Zn	1.702935	-0.146850	0.940623
O9	O	1.282983	-0.566255	0.360627
O10	O	1.782983	-0.066255	0.860627
O11	O	1.488571	-0.634087	0.293369
O12	O	1.988571	-0.134087	0.793369
O13	O	1.335283	-0.357100	0.413092
O14	O	1.835283	0.142900	0.913092
O15	O	1.239144	-0.492065	0.161509
O16	O	1.739144	0.007935	0.661509
O17	O	1.482071	-0.522037	0.404594
O18	O	1.982071	-0.022037	0.904594
O19	O	1.350363	-0.617035	0.155071
O20	O	1.850363	-0.117035	0.655071
O21	O	1.230565	-0.344180	0.308305
O22	O	1.730565	0.155820	0.808305
O23	O	1.083863	-0.491991	0.316699
O24	O	1.583863	0.008009	0.816699
O25	O	1.224215	-0.781841	0.419347
O26	O	1.724215	-0.281841	0.919347
O27	O	1.077428	-0.616904	0.427845
O28	O	1.577428	-0.116904	0.927845
O29	O	1.341869	-0.781898	0.301763
O30	O	1.841869	-0.281898	0.801763
O31	O	1.326790	-0.521963	0.559784
O32	O	1.826790	-0.021963	1.059784
O33	O	1.215636	-0.633956	0.566144
O34	O	1.715636	-0.133956	1.066144
C35	C	1.047801	-0.552531	0.374163
C36	C	1.547801	-0.052531	0.874163
C37	C	0.947188	-0.546685	0.379975
C38	C	1.447188	-0.046685	0.879975
C39	C	0.764884	-0.652573	0.275237
C40	C	1.264884	-0.152573	0.775237
C41	C	0.670349	-0.647083	0.280695
C42	C	1.170349	-0.147083	0.780695
C43	C	0.663583	-0.530208	0.396345
C44	C	1.163583	-0.030208	0.896345
C45	C	0.758118	-0.535699	0.390887
C46	C	1.258118	-0.035699	0.890887
C47	C	0.808765	-0.596885	0.330332
C48	C	1.308765	-0.096885	0.830332
C49	C	0.903301	-0.602380	0.324879
C50	C	1.403301	-0.102380	0.824879
C51	C	0.896533	-0.485501	0.440523
C52	C	1.396533	0.014499	0.940523
C53	C	0.801999	-0.480010	0.445981
C54	C	1.301999	0.019990	0.945981
C55	C	1.283052	-0.817847	0.360543
C56	C	1.783052	-0.317847	0.860543
C57	C	1.283081	-0.925061	0.360507
C58	C	1.783081	-0.425061	0.860507
C59	C	1.283110	-1.121354	0.360445
C60	C	1.783110	-0.621354	0.860445
C61	C	1.283091	-1.012122	0.360482
C62	C	1.783091	-0.512122	0.860482
C63	C	1.519083	-0.580032	0.347039
C64	C	2.019083	-0.080032	0.847039
C65	C	1.619695	-0.585904	0.341248
C66	C	2.119695	-0.085904	0.841248
C67	C	1.269327	-0.579882	0.595806
C68	C	1.769327	-0.079882	1.095806
C69	C	1.263567	-0.585749	0.696412
C70	C	1.763567	-0.085749	1.196412
C71	C	1.282971	-0.315641	0.360642
C72	C	1.782971	0.184359	0.860642
C73	C	1.283131	-0.208423	0.360412
C74	C	1.783131	0.291577	0.860412
C75	C	1.296718	-0.552597	0.124528
C76	C	1.796718	-0.052597	0.624528
C77	C	1.302570	-0.546777	0.023916
C78	C	1.802570	-0.046777	0.523916
C79	C	1.368608	-0.480260	0.878771
C80	C	1.868608	0.019740	1.378771
C81	C	1.363200	-0.485770	0.973300
C82	C	1.863200	0.014230	1.473300
C83	C	1.247347	-0.602281	0.979998
C84	C	1.747347	-0.102281	1.479998
C85	C	1.252756	-0.596772	0.885470
C86	C	1.752756	-0.096772	1.385470
C87	C	1.313387	-0.535758	0.834860
C88	C	1.813387	-0.035758	1.334860
C89	C	1.318791	-0.530244	0.740330
C90	C	1.818791	-0.030244	1.240330
C91	C	1.202943	-0.646760	0.747030
C92	C	1.702943	-0.146760	1.247030
C93	C	1.197535	-0.652270	0.841558
C94	C	1.697535	-0.152270	1.341558
H95	H	0.806121	-0.702398	0.225935
H96	H	1.306121	-0.202398	0.725935
H97	H	0.622330	-0.480383	0.445635
H98	H	1.122330	0.019617	0.945635
C99	C	0.746276	-0.412710	0.512589
C100	C	1.246276	0.087290	1.012589
N101	N	0.704307	-0.362022	0.562761
N102	N	1.204307	0.137978	1.062761
C103	C	0.959011	-0.669681	0.258265
C104	C	1.459011	-0.169681	0.758265
N105	N	1.000971	-0.720372	0.208086
N106	N	1.500971	-0.220372	0.708086
H107	H	1.197990	-0.651962	1.021221
H108	H	1.697990	-0.151962	1.521221
H109	H	1.148173	-0.701948	0.882778
H110	H	1.648173	-0.201948	1.382778
C111	C	0.944810	-0.424241	0.501132
C112	C	1.444810	0.075759	1.001132
N113	N	0.981173	-0.378103	0.546784
N114	N	1.481173	0.121897	1.046784
C115	C	1.423944	-0.424714	1.021599
C116	C	1.923944	0.075286	1.521599
N117	N	1.469699	-0.378723	1.057978
N118	N	1.969699	0.121277	1.557978
H119	H	1.368157	-0.480561	0.699124
H120	H	1.868157	0.019439	1.199124
H121	H	1.417971	-0.430574	0.837564
H122	H	1.917971	0.069426	1.337564
H123	H	1.157976	-0.691948	0.711267
H124	H	1.657976	-0.191948	1.211267
H125	H	0.634625	-0.692428	0.235830
H126	H	1.134625	-0.192428	0.735830
