data_functionalizedCrystal
_audit_creation_method	'MofGen! by Chris Wilmer'
_symmetry_space_group_name_H-M	'P1'
_symmetry_Int_Tables_number	1
_symmetry_cell_setting	triclinic
loop_
_symmetry_equiv_pos_as_xyz
  x,y,z
_cell_length_a	17.019282
_cell_length_b	17.000371
_cell_length_c	15.500227
_cell_angle_alpha	92.601831
_cell_angle_beta	91.034464
_cell_angle_gamma	79.503272
loop_
_atom_site_label
_atom_site_type_symbol
_atom_site_fract_x
_atom_site_fract_y
_atom_site_fract_z
O1	O	1.039349	0.101639	0.005516
O2	O	1.539349	0.601639	0.505516
O3	O	0.809720	0.113703	-0.011599
O4	O	1.309720	0.613703	0.488401
O5	O	0.938793	-0.008157	-0.001973
O6	O	1.438793	0.491843	0.498027
O7	O	0.910277	0.223500	-0.004110
O8	O	1.410277	0.723500	0.495890
O9	O	0.930962	-0.000792	0.141332
O10	O	1.430962	0.499208	0.641332
O11	O	0.801890	0.121069	0.131705
O12	O	1.301890	0.621069	0.631705
O13	O	1.031519	0.109005	0.148821
O14	O	1.531519	0.609005	0.648821
Cu15	Cu	0.915989	0.115709	0.153348
Cu16	Cu	1.415989	0.615709	0.653348
Cu17	Cu	0.925250	0.106999	-0.016126
Cu18	Cu	1.425250	0.606999	0.483874
O19	O	0.902447	0.230865	0.139194
O20	O	1.402447	0.730865	0.639194
C21	C	0.776569	0.116785	0.057874
C22	C	1.276569	0.616785	0.557874
C23	C	0.689454	0.114985	0.051381
C24	C	1.189454	0.614985	0.551381
C25	C	0.644264	0.118153	0.126448
C26	C	1.144264	0.618153	0.626448
C27	C	0.562413	0.116449	0.120350
C28	C	1.062413	0.616449	0.620350
C29	C	0.525753	0.111583	0.039183
C30	C	1.025753	0.611583	0.539183
C31	C	0.570950	0.108413	-0.035889
C32	C	1.070950	0.608413	0.464111
C33	C	0.652800	0.110111	-0.029790
C34	C	1.152800	0.610111	0.470210
C35	C	0.278832	0.106250	0.016860
C36	C	0.778832	0.606250	0.516860
C37	C	0.196975	0.104555	0.010766
C38	C	0.696975	0.604555	0.510766
C39	C	0.188445	0.112589	0.167006
C40	C	0.688445	0.612589	0.667006
C41	C	0.270296	0.114292	0.173098
C42	C	0.770296	0.614292	0.673098
C43	C	0.315487	0.111117	0.098025
C44	C	0.815487	0.611117	0.598025
C45	C	0.442088	0.109844	0.032948
C46	C	0.942088	0.609844	0.532948
C47	C	0.399151	0.112851	0.104262
C48	C	0.899151	0.612851	0.604262
C49	C	0.936409	-0.034124	0.069794
C50	C	1.436409	0.465876	0.569794
C51	C	0.940964	-0.122471	0.070132
C52	C	1.440964	0.377529	0.570132
C53	C	0.870875	-0.154681	0.064904
C54	C	1.370875	0.345319	0.564904
C55	C	0.875159	-0.237693	0.065226
C56	C	1.375159	0.262307	0.565226
C57	C	0.949533	-0.288493	0.070769
C58	C	1.449533	0.211507	0.570769
C59	C	1.019627	-0.256277	0.076000
C60	C	1.519627	0.243723	0.576000
C61	C	1.015341	-0.173267	0.075685
C62	C	1.515341	0.326733	0.575685
C63	C	0.966085	-0.539595	0.071997
C64	C	1.466085	-0.039595	0.571997
C65	C	0.970365	-0.622611	0.072310
C66	C	1.470365	-0.122611	0.572310
C67	C	0.825896	-0.604021	0.061537
C68	C	1.325896	-0.104021	0.561537
C69	C	0.821618	-0.521010	0.061217
C70	C	1.321618	-0.021010	0.561217
C71	C	0.891711	-0.488801	0.066452
C72	C	1.391711	0.011199	0.566452
C73	C	0.953914	-0.373344	0.071096
C74	C	1.453914	0.126656	0.571096
C75	C	0.887329	-0.403951	0.066132
C76	C	1.387329	0.096049	0.566132
C77	C	1.064671	0.105923	0.079346
C78	C	1.564671	0.605923	0.579346
C79	C	1.151785	0.107722	0.085833
C80	C	1.651785	0.607722	0.585833
C81	C	0.904830	0.256832	0.067426
C82	C	1.404830	0.756832	0.567426
C83	C	0.900276	0.345178	0.067082
C84	C	1.400276	0.845178	0.567082
N85	N	0.909482	0.121836	0.272548
N86	N	1.409482	0.621836	0.772548
N87	N	0.931764	0.100866	-0.135325
N88	N	1.431764	0.600866	0.364675
C89	C	0.964191	0.070218	0.321905
C90	C	1.464191	0.570218	0.821905
C91	C	0.959276	0.074859	0.412111
C92	C	1.459276	0.574859	0.912111
C93	C	0.899655	0.131121	0.452959
C94	C	1.399655	0.631121	0.952959
C95	C	0.844941	0.182741	0.403595
C96	C	1.344941	0.682741	0.903595
C97	C	0.849853	0.178096	0.313390
C98	C	1.349853	0.678096	0.813390
C99	C	0.881961	0.147841	0.725106
C100	C	1.381961	0.647841	1.225106
C101	C	0.877055	0.152484	0.815318
C102	C	1.377055	0.652484	1.315318
C103	C	0.991390	0.044600	0.823827
C104	C	1.491390	0.544600	1.323827
C105	C	0.996300	0.039963	0.733620
C106	C	1.496300	0.539963	1.233620
C107	C	0.941583	0.091580	0.684264
C108	C	1.441583	0.591580	1.184264
C109	C	0.894632	0.135868	0.545164
C110	C	1.394632	0.635868	1.045164
C111	C	0.946603	0.086829	0.592061
C112	C	1.446603	0.586829	1.092061
H113	H	0.525626	0.119015	0.181477
H114	H	1.025626	0.619015	0.681477
H115	H	1.030932	-0.663972	0.076819
H116	H	1.530932	-0.163972	0.576819
Br117	Br	1.120563	-0.325218	0.083538
Br118	Br	1.620563	0.174782	0.583538
H119	H	0.412230	0.105882	-0.033138
H120	H	0.912230	0.605882	0.466862
Br121	Br	0.521204	0.101775	-0.146044
Br122	Br	1.021204	0.601775	0.353956
H123	H	0.837410	0.189871	0.684927
H124	H	1.337410	0.689871	1.184927
H125	H	0.674105	0.122122	0.192542
H126	H	1.174105	0.622122	0.692542
Br127	Br	1.033522	0.004803	0.479098
Br128	Br	1.533522	0.504803	0.979098
Br129	Br	0.786396	-0.335007	0.058616
Br130	Br	1.286396	0.164993	0.558616
H131	H	0.761055	-0.479653	0.056700
H132	H	1.261055	0.020347	0.556700
Br133	Br	0.769934	-0.085746	0.057372
Br134	Br	1.269934	0.414254	0.557372
Br135	Br	0.764019	0.259093	0.459027
Br136	Br	1.264019	0.759093	0.959027
Br137	Br	1.061214	-0.495895	0.079072
Br138	Br	1.561214	0.004105	0.579072
H139	H	1.012743	0.024407	0.288653
H140	H	1.512743	0.524407	0.788653
Br141	Br	0.730775	-0.647737	0.054432
Br142	Br	1.230775	-0.147737	0.554432
H143	H	0.828502	0.198302	0.848571
H144	H	1.328502	0.698302	1.348571
H145	H	0.818086	-0.263914	0.060962
H146	H	1.318086	0.236086	0.560962
Br147	Br	0.775597	0.248146	0.246405
Br148	Br	1.275597	0.748146	0.746405
Br149	Br	0.714132	0.105805	-0.131671
Br150	Br	1.214132	0.605805	0.368329
H151	H	1.072415	-0.147043	0.079943
H152	H	1.572415	0.352957	0.579943
H153	H	1.014469	-0.414715	0.075608
H154	H	1.514469	0.085285	0.575608
H155	H	1.044848	-0.005850	0.700364
H156	H	1.544848	0.494150	1.200364
Br157	Br	1.065644	-0.025449	0.890813
Br158	Br	1.565644	0.474551	1.390813
H159	H	0.151643	0.115172	0.228125
H160	H	0.651643	0.615172	0.728125
Br161	Br	0.813718	0.212223	0.600604
Br162	Br	1.313718	0.712223	1.100604
H163	H	0.167129	0.100595	-0.055332
H164	H	0.667129	0.600595	0.444668
H165	H	0.995144	0.041018	0.558799
H166	H	1.495144	0.541018	1.058799
H167	H	0.300140	0.118250	0.239192
H168	H	0.800140	0.618250	0.739192
H169	H	0.315617	0.103663	-0.044270
H170	H	0.815617	0.603663	0.455730
Br171	Br	0.448907	0.119449	0.214412
Br172	Br	0.948907	0.619449	0.714412
