data_functionalizedCrystal
_audit_creation_method	'MofGen! by Chris Wilmer'
_symmetry_space_group_name_H-M	'P1'
_symmetry_Int_Tables_number	1
_symmetry_cell_setting	triclinic
loop_
_symmetry_equiv_pos_as_xyz
  x,y,z
_cell_length_a	14.971486
_cell_length_b	14.971486
_cell_length_c	14.048226
_cell_angle_alpha	90.006995
_cell_angle_beta	89.991262
_cell_angle_gamma	83.614129
loop_
_atom_site_label
_atom_site_type_symbol
_atom_site_fract_x
_atom_site_fract_y
_atom_site_fract_z
O1	O	0.116569	1.186936	-0.079052
O2	O	0.616569	1.686936	0.420948
O3	O	0.130527	0.926535	-0.079078
O4	O	0.630527	1.426535	0.420922
O5	O	-0.006652	1.063715	-0.079057
O6	O	0.493348	1.563715	0.420943
O7	O	0.253748	1.049756	-0.079072
O8	O	0.753748	1.549756	0.420928
O9	O	-0.006668	1.063721	0.079264
O10	O	0.493332	1.563721	0.579264
O11	O	0.130511	0.926542	0.079244
O12	O	0.630511	1.426542	0.579244
O13	O	0.116552	1.186942	0.079270
O14	O	0.616552	1.686942	0.579270
Zn15	Zn	0.123529	1.056743	0.104394
Zn16	Zn	0.623529	1.556743	0.604394
Zn17	Zn	0.123551	1.056734	-0.104202
Zn18	Zn	0.623551	1.556734	0.395798
O19	O	0.253732	1.049762	0.079249
O20	O	0.753732	1.549762	0.579249
C21	C	0.129895	0.893214	0.000080
C22	C	0.629895	1.393214	0.500080
C23	C	0.128024	0.793917	0.000070
C24	C	0.628024	1.293917	0.500070
C25	C	0.208614	0.736692	0.000067
C26	C	0.708614	1.236692	0.500067
C27	C	0.206850	0.643392	0.000081
C28	C	0.706850	1.143392	0.500081
C29	C	0.124497	0.607320	0.000092
C30	C	0.624497	1.107320	0.500092
C31	C	0.043902	0.664552	0.000098
C32	C	0.543902	1.164552	0.500098
C33	C	0.045666	0.757850	0.000090
C34	C	0.545666	1.257850	0.500090
C35	C	0.040231	0.470090	0.000111
C36	C	0.540231	0.970090	0.500111
C37	C	0.038466	0.376786	0.000117
C38	C	0.538466	0.876786	0.500117
C39	C	0.201415	0.355632	0.000102
C40	C	0.701415	0.855632	0.500102
C41	C	0.203179	0.448930	0.000094
C42	C	0.703179	0.948930	0.500094
C43	C	0.122584	0.506156	0.000099
C44	C	0.622584	1.006156	0.500099
C45	C	-0.039985	1.063094	0.000103
C46	C	0.460015	1.563094	0.500103
C47	C	-0.139282	1.061223	0.000102
C48	C	0.360718	1.561223	0.500102
C49	C	-0.196507	1.141812	0.000111
C50	C	0.303493	1.641812	0.500111
C51	C	-0.289807	1.140049	0.000101
C52	C	0.210193	1.640049	0.500101
C53	C	-0.325879	1.057696	0.000089
C54	C	0.174121	1.557696	0.500089
C55	C	-0.268646	0.977101	0.000078
C56	C	0.231354	1.477101	0.500078
C57	C	-0.175349	0.978865	0.000081
C58	C	0.324651	1.478865	0.500081
C59	C	-0.463109	0.973430	0.000074
C60	C	0.036891	1.473430	0.500074
C61	C	-0.556413	0.971665	0.000073
C62	C	-0.056413	1.471665	0.500073
C63	C	-0.577567	1.134614	0.000094
C64	C	-0.077567	1.634614	0.500094
C65	C	-0.484269	1.136378	0.000097
C66	C	0.015731	1.636378	0.500097
C67	C	-0.427043	1.055782	0.000088
C68	C	0.072957	1.555782	0.500088
C69	C	0.287065	1.050384	0.000087
C70	C	0.787065	1.550384	0.500087
C71	C	0.386362	1.052254	0.000082
C72	C	0.886362	1.552254	0.500082
C73	C	0.117185	1.220263	0.000110
C74	C	0.617185	1.720263	0.500110
C75	C	0.119056	1.319561	0.000114
C76	C	0.619056	1.819561	0.500114
N77	N	0.123558	1.056729	-0.246562
N78	N	0.623558	1.556729	0.253438
C79	C	0.177971	1.110941	-0.703425
C80	C	0.677971	1.610941	-0.203425
C81	C	0.177976	1.110940	-0.603768
C82	C	0.677976	1.610940	-0.103768
C83	C	0.123529	1.056749	-0.553932
C84	C	0.623529	1.556749	-0.053932
C85	C	0.069066	1.002561	-0.603759
C86	C	0.569066	1.502561	-0.103759
C87	C	0.069057	1.002567	-0.703415
C88	C	0.569057	1.502567	-0.203415
C89	C	0.069092	1.002551	-0.396045
C90	C	0.569092	1.502551	0.103955
C91	C	0.069102	1.002544	-0.296382
C92	C	0.569102	1.502544	0.203618
C93	C	0.178011	1.110924	-0.296398
C94	C	0.678011	1.610924	0.203602
C95	C	0.178001	1.110930	-0.396054
C96	C	0.678001	1.610930	0.103946
C97	C	0.123540	1.056741	-0.445874
C98	C	0.623540	1.556741	0.054126
N99	N	0.123514	1.056755	0.246754
N100	N	0.623514	1.556755	0.746754
H101	H	-0.028593	0.347419	0.000127
H102	H	0.471407	0.847419	0.500127
H103	H	-0.019958	0.804443	0.000093
H104	H	0.480042	1.304443	0.500093
H105	H	0.270239	0.478296	0.000077
H106	H	0.770239	0.978296	0.500077
H107	H	0.024713	0.958443	-0.743978
H108	H	0.524713	1.458443	-0.243978
Br109	Br	0.251884	1.184481	-0.536158
Br110	Br	0.751884	1.684481	-0.036158
Br111	Br	-0.147562	1.253584	0.000140
Br112	Br	0.352438	1.753584	0.500140
Br113	Br	-0.605368	0.859899	0.000061
Br114	Br	-0.105368	1.359899	0.500061
Br115	Br	-0.367467	1.249425	0.000113
Br116	Br	0.132533	1.749425	0.500113
H117	H	-0.298024	0.910047	0.000062
H118	H	0.201976	1.410047	0.500062
Br119	Br	-0.004839	0.929026	-0.463658
Br120	Br	0.495161	1.429026	0.036342
H121	H	0.024730	0.958442	-0.563175
H122	H	0.524730	1.458442	-0.063175
Br123	Br	-0.385445	0.864048	0.000057
Br124	Br	0.114555	1.364048	0.500057
H125	H	-0.128756	0.913240	0.000074
H126	H	0.371244	1.413240	0.500074
Br127	Br	-0.435314	1.248144	0.000111
Br128	Br	0.064686	1.748144	0.500111
H129	H	-0.624165	1.200238	0.000099
H130	H	-0.124165	1.700238	0.500099
H131	H	0.222359	1.155044	-0.255829
H132	H	0.722359	1.655044	0.244171
H133	H	0.275675	0.766054	0.000057
H134	H	0.775675	1.266054	0.500057
H135	H	0.222313	1.155064	-0.743994
H136	H	0.722313	1.655064	-0.243994
Br137	Br	-0.004795	0.929001	-0.228748
Br138	Br	0.495205	1.429001	0.271252
H139	H	-0.023152	0.635175	0.000120
H140	H	0.476848	1.135175	0.500120
H141	H	0.272474	0.596802	0.000077
H142	H	0.772474	1.096802	0.500077
H143	H	-0.025399	0.516682	0.000116
H144	H	0.474601	1.016682	0.500116
H145	H	0.222341	1.155053	-0.436627
H146	H	0.722341	1.655053	0.063373
H147	H	0.267039	0.309033	0.000103
H148	H	0.767039	0.809033	0.500103
