data_functionalizedCrystal
_audit_creation_method	'MofGen! by Chris Wilmer'
_symmetry_space_group_name_H-M	'P1'
_symmetry_Int_Tables_number	1
_symmetry_cell_setting	triclinic
loop_
_symmetry_equiv_pos_as_xyz
  x,y,z
_cell_length_a	23.532407
_cell_length_b	23.532407
_cell_length_c	22.010155
_cell_angle_alpha	90.000423
_cell_angle_beta	89.996931
_cell_angle_gamma	97.151322
loop_
_atom_site_label
_atom_site_type_symbol
_atom_site_fract_x
_atom_site_fract_y
_atom_site_fract_z
O1	O	0.755264	-0.069127	-0.050455
O2	O	0.589400	-0.079130	-0.050474
O3	O	0.677334	0.008803	-0.050453
O4	O	0.667330	-0.157060	-0.050476
O5	O	0.677318	0.008790	0.050597
O6	O	0.589384	-0.079143	0.050576
O7	O	0.755248	-0.069140	0.050595
Cu8	Cu	0.672315	-0.074143	0.059812
Cu9	Cu	0.672333	-0.074127	-0.059691
O10	O	0.667314	-0.157073	0.050574
C11	C	0.568176	-0.078882	0.000049
C12	C	0.504959	-0.078116	0.000042
C13	C	0.105856	-0.125350	0.000063
C14	C	0.046456	-0.124638	0.000067
O15	O	0.009711	-0.168424	0.000083
N16	N	0.023830	-0.072362	0.000073
C17	C	0.060607	-0.020794	0.000082
O18	O	0.035908	0.023737	0.000088
C19	C	0.120006	-0.021506	0.000082
C20	C	0.142629	-0.073785	0.000070
C21	C	0.128479	-0.177625	0.000051
C22	C	0.187876	-0.178336	0.000046
C23	C	0.224649	-0.126772	0.000053
C24	C	0.202025	-0.074497	0.000065
C25	C	0.156783	0.030062	0.000096
C26	C	0.216185	0.029345	0.000097
C27	C	0.238808	-0.022934	0.000084
C28	C	0.298194	-0.023643	0.000067
N29	N	0.320820	-0.075920	0.000061
C30	C	0.284048	-0.127484	0.000054
C31	C	-0.064135	-0.019302	0.000082
C32	C	-0.123533	-0.018589	0.000077
C33	C	-0.137680	-0.122434	0.000063
C34	C	-0.078281	-0.123146	0.000064
C35	C	-0.041509	-0.071578	0.000076
C36	C	0.408784	-0.128974	0.000043
C37	C	0.468186	-0.129680	0.000035
C38	C	0.482329	-0.025836	0.000052
C39	C	0.422932	-0.025129	0.000057
C40	C	0.386160	-0.076702	0.000054
O41	O	0.334974	0.020119	0.000054
O42	O	0.308755	-0.172007	0.000055
C43	C	0.677071	0.030013	0.000074
C44	C	0.676305	0.093230	0.000078
C45	C	0.776472	-0.069388	0.000071
C46	C	0.839689	-0.070154	0.000073
C47	C	0.667577	-0.178283	0.000046
C48	C	0.668343	-0.241500	0.000037
N49	N	0.672305	-0.074153	0.143865
C50	C	0.723539	0.492333	0.000050
C51	C	0.722827	0.551733	0.000046
O52	O	0.766613	0.588478	0.000028
N53	N	0.670551	0.574359	0.000040
C54	C	0.618983	0.537582	0.000033
O55	O	0.574452	0.562281	0.000027
C56	C	0.619695	0.478182	0.000033
C57	C	0.671974	0.455560	0.000045
C58	C	0.775814	0.469710	0.000061
C59	C	0.776525	0.410313	0.000067
C60	C	0.724961	0.373540	0.000062
C61	C	0.672685	0.396164	0.000051
C62	C	0.568127	0.441406	0.000022
C63	C	0.568844	0.382004	0.000022
C64	C	0.621123	0.359381	0.000034
C65	C	0.621832	0.299995	0.000052
N66	N	0.674109	0.277368	0.000057
C67	C	0.725673	0.314141	0.000062
C68	C	0.617491	0.662324	0.000031
C69	C	0.616778	0.721722	0.000035
C70	C	0.720623	0.735869	0.000047
C71	C	0.721335	0.676470	0.000047
C72	C	0.669767	0.639698	0.000037
C73	C	0.727163	0.189405	0.000075
C74	C	0.727869	0.130003	0.000083
C75	C	0.624025	0.115860	0.000069
C76	C	0.623318	0.175257	0.000064
C77	C	0.674891	0.212029	0.000065
O78	O	0.578070	0.263215	0.000067
O79	O	0.770196	0.289433	0.000060
N80	N	0.672347	-0.074112	-0.143744
C81	C	0.711273	-0.035196	0.563653
C82	C	0.711275	-0.035192	0.627261
O83	O	0.744384	-0.002076	0.660160
N84	N	0.672333	-0.074115	0.659072
C85	C	0.633382	-0.113041	0.627272
O86	O	0.600259	-0.146148	0.660170
C87	C	0.633377	-0.113042	0.563665
C88	C	0.672326	-0.074120	0.531858
C89	C	0.750217	0.003723	0.531846
C90	C	0.750215	0.003719	0.468243
C91	C	0.711268	-0.035205	0.436447
C92	C	0.672324	-0.074125	0.468255
C93	C	0.594424	-0.151965	0.531866
C94	C	0.594422	-0.151962	0.468256
C95	C	0.633370	-0.113040	0.436448
C96	C	0.633374	-0.113054	0.372856
N97	N	0.672317	-0.074130	0.341045
C98	C	0.711263	-0.035206	0.372841
C99	C	0.633395	-0.113036	0.760850
C100	C	0.633402	-0.113039	0.824455
C101	C	0.711294	-0.035188	0.824440
C102	C	0.711290	-0.035189	0.760833
C103	C	0.672337	-0.074113	0.729039
C104	C	0.711256	-0.035220	0.239269
C105	C	0.711252	-0.035229	0.175660
C106	C	0.633358	-0.113077	0.175681
C107	C	0.633364	-0.113070	0.239284
C108	C	0.672315	-0.074136	0.271077
O109	O	0.600282	-0.146151	0.339916
O110	O	0.744376	-0.002100	0.339935
H111	H	-0.141947	0.023982	0.000078
O112	O	0.749028	0.002675	0.729889
C113	C	0.718702	0.037667	0.693141
H114	H	0.674024	0.014731	0.683596
H115	H	0.742521	0.046849	0.648419
H116	H	0.715038	0.079714	0.717691
H117	H	0.404512	0.017441	0.000058
H118	H	0.562708	-0.183658	0.557755
H119	H	0.574207	0.740136	0.000036
O120	O	0.567432	0.626547	0.000111
C121	C	0.564718	0.591776	0.052454
H122	H	0.609902	0.589014	0.069906
H123	H	0.543240	0.547014	0.040683
H124	H	0.538821	0.611181	0.089098
O125	O	0.556661	-0.189799	0.437304
C126	C	0.586955	-0.224796	0.400523
H127	H	0.631647	-0.201889	0.390986
H128	H	0.563129	-0.233930	0.355800
H129	H	0.590583	-0.266866	0.425042
O130	O	0.595603	-0.150908	0.144721
C131	C	0.625897	-0.185900	0.107934
H132	H	0.670592	-0.162996	0.098407
H133	H	0.602076	-0.195022	0.063206
H134	H	0.629518	-0.227977	0.132443
O135	O	0.788110	0.041558	0.562632
C136	C	0.822467	0.075913	0.520906
H137	H	0.822962	0.052560	0.475567
H138	H	0.868001	0.084831	0.539267
H139	H	0.804220	0.118129	0.514143
O140	O	-0.028497	0.030847	0.000057
C141	C	-0.061211	0.077135	0.000076
H142	H	-0.105625	0.062415	-0.019054
H143	H	-0.039105	0.113247	-0.029259
H144	H	-0.065356	0.093171	0.048557
H145	H	0.525555	0.459814	0.000009
O146	O	0.595537	-0.150910	0.730061
C147	C	0.561162	-0.185252	0.771783
H148	H	0.584515	-0.185769	0.817119
H149	H	0.552215	-0.230782	0.753414
H150	H	0.518962	-0.166976	0.778555
H151	H	0.601654	-0.144769	0.265183
O152	O	0.749148	0.002622	0.270052
C153	C	0.783506	0.036978	0.228328
H154	H	0.784009	0.013622	0.182992
H155	H	0.829038	0.045902	0.246695
H156	H	0.765255	0.079191	0.221559
H157	H	0.486602	-0.172255	0.000025
O158	O	0.134912	0.080897	0.000140
C159	C	0.180116	0.126249	0.000137
H160	H	0.220380	0.110505	0.019258
H161	H	0.167911	0.162763	0.029489
H162	H	0.188612	0.142151	-0.048338
H163	H	0.098544	-0.219617	0.000048
O164	O	-0.056403	-0.173980	0.000083
C165	C	-0.101604	-0.219335	0.000058
H166	H	-0.141871	-0.203604	0.019189
H167	H	-0.089398	-0.255861	0.029391
H168	H	-0.110093	-0.235217	-0.048424
H169	H	-0.167632	-0.164421	0.000060
H170	H	0.781929	0.035414	0.442349
H171	H	0.512280	0.016146	0.000056
H172	H	0.770443	0.111587	0.000094
O173	O	0.373151	-0.179124	0.000009
C174	C	0.405867	-0.225410	0.000011
H175	H	0.450283	-0.210684	-0.019117
H176	H	0.383764	-0.261514	-0.029335
H177	H	0.410009	-0.241460	0.048486
O178	O	0.749103	0.002705	0.855265
C179	C	0.740155	0.059037	0.839736
H180	H	0.718205	0.058855	0.793554
H181	H	0.783121	0.087304	0.837561
H182	H	0.711905	0.076502	0.875536
H183	H	0.601692	-0.144738	0.850348
O184	O	0.251963	0.079403	0.000025
C185	C	0.286736	0.082116	-0.052320
H186	H	0.289495	0.036933	-0.069777
H187	H	0.331499	0.103591	-0.040549
H188	H	0.267334	0.108017	-0.088960
H189	H	0.769159	0.219337	0.000073
H190	H	0.742971	-0.003534	0.149765
O191	O	0.827360	0.388437	0.000046
C192	C	0.872713	0.433640	0.000064
H193	H	0.856979	0.473904	-0.019069
H194	H	0.909239	0.421433	-0.029271
H195	H	0.888595	0.442136	0.048544
O196	O	0.825893	0.505448	-0.000040
C197	C	0.828603	0.540244	-0.052366
H198	H	0.799358	0.518337	-0.088952
H199	H	0.874521	0.547165	-0.069923
H200	H	0.814123	0.583365	-0.040535
H201	H	0.580748	0.193677	0.000071
O202	O	0.209752	-0.229171	0.000068
C203	C	0.164549	-0.274524	0.000050
H204	H	0.124283	-0.258788	0.019181
H205	H	0.176753	-0.311047	0.029387
H206	H	0.156057	-0.290410	-0.048430
O207	O	0.772133	0.654524	-0.000055
C208	C	0.803558	0.673361	-0.052379
H209	H	0.772985	0.685549	-0.088960
H210	H	0.827584	0.637511	-0.069946
H211	H	0.835514	0.712253	-0.040541
O212	O	0.770662	0.771678	0.000017
C213	C	0.758817	0.828954	0.000026
H214	H	0.714098	0.830978	-0.019106
H215	H	0.791705	0.856049	-0.029314
H216	H	0.761072	0.846150	0.048503
H217	H	0.526850	0.352066	0.000013
O218	O	0.573990	0.080053	0.000036
C219	C	0.585835	0.022777	0.000056
H220	H	0.630560	0.020751	-0.019065
H221	H	0.552957	-0.004321	-0.029289
H222	H	0.583566	0.005585	0.048535
