data_functionalizedCrystal
_audit_creation_method	'MofGen! by Chris Wilmer'
_symmetry_space_group_name_H-M	'P1'
_symmetry_Int_Tables_number	1
_symmetry_cell_setting	triclinic
loop_
_symmetry_equiv_pos_as_xyz
  x,y,z
_cell_length_a	19.188930
_cell_length_b	17.699083
_cell_length_c	16.176319
_cell_angle_alpha	90.001389
_cell_angle_beta	89.988074
_cell_angle_gamma	96.786101
loop_
_atom_site_label
_atom_site_type_symbol
_atom_site_fract_x
_atom_site_fract_y
_atom_site_fract_z
O1	O	0.088294	-1.003963	-0.068640
O2	O	0.588294	-0.503963	0.431360
O3	O	0.099782	-0.783569	-0.068668
O4	O	0.599782	-0.283569	0.431332
O5	O	-0.007610	-0.900126	-0.068637
O6	O	0.492390	-0.400126	0.431363
O7	O	0.195687	-0.887406	-0.068671
O8	O	0.695687	-0.387406	0.431329
O9	O	-0.007617	-0.900110	0.068856
O10	O	0.492383	-0.400110	0.568856
O11	O	0.099775	-0.783553	0.068825
O12	O	0.599775	-0.283553	0.568825
O13	O	0.088288	-1.003947	0.068853
O14	O	0.588288	-0.503947	0.568853
Cu15	Cu	0.094031	-0.893748	0.081393
Cu16	Cu	0.594031	-0.393748	0.581393
Cu17	Cu	0.094039	-0.893767	-0.081208
Cu18	Cu	0.594039	-0.393767	0.418792
O19	O	0.195680	-0.887390	0.068822
O20	O	0.695680	-0.387390	0.568822
C21	C	0.099367	-0.755365	0.000075
C22	C	0.599367	-0.255365	0.500075
C23	C	0.098132	-0.671348	0.000065
C24	C	0.598132	-0.171348	0.500065
C25	C	-0.033625	-0.899706	0.000112
C26	C	0.466375	-0.399706	0.500112
C27	C	-0.111131	-0.898469	0.000119
C28	C	0.388869	-0.398469	0.500119
C29	C	0.088703	-1.032151	0.000108
C30	C	0.588703	-0.532151	0.500108
C31	C	0.089938	-1.116167	0.000113
C32	C	0.589938	-0.616167	0.500113
C33	C	-0.155978	-0.966861	0.000131
C34	C	0.344022	-0.466861	0.500131
C35	C	-0.228804	-0.965699	0.000118
C36	C	0.271196	-0.465699	0.500118
C37	C	-0.256778	-0.896142	0.000108
C38	C	0.243222	-0.396142	0.500108
C39	C	-0.211921	-0.827741	0.000091
C40	C	0.288079	-0.327741	0.500091
C41	C	-0.139098	-0.828905	0.000096
C42	C	0.360902	-0.328905	0.500096
N43	N	-0.364845	-0.842968	0.046893
N44	N	0.135155	-0.342968	0.546893
N45	N	-0.434025	-0.841868	0.046890
N46	N	0.065975	-0.341868	0.546890
C47	C	-0.476191	-0.892632	0.000091
C48	C	0.023809	-0.392632	0.500091
N49	N	-0.446565	-0.944550	-0.046694
N50	N	0.053435	-0.444550	0.453306
N51	N	-0.377379	-0.945653	-0.046687
N52	N	0.122621	-0.445653	0.453313
C53	C	-0.335742	-0.894873	0.000102
C54	C	0.164258	-0.394873	0.500102
C55	C	-0.600004	-0.959769	0.000088
C56	C	-0.100004	-0.459769	0.500088
C57	C	-0.672830	-0.958604	0.000070
C58	C	-0.172830	-0.458604	0.500070
C59	C	-0.655946	-0.820644	0.000051
C60	C	-0.155946	-0.320644	0.500051
C61	C	-0.583121	-0.821811	0.000061
C62	C	-0.083121	-0.321811	0.500061
C63	C	-0.555155	-0.891375	0.000084
C64	C	-0.055155	-0.391375	0.500084
C65	C	0.221695	-0.887810	0.000071
C66	C	0.721695	-0.387810	0.500071
C67	C	0.299201	-0.889046	0.000059
C68	C	0.799201	-0.389046	0.500059
N69	N	0.094025	-0.893741	0.195758
N70	N	0.594025	-0.393741	0.695758
C71	C	0.161169	-0.622644	0.000055
C72	C	0.661169	-0.122644	0.500055
C73	C	0.160004	-0.543702	0.000065
C74	C	0.660004	-0.043702	0.500065
C75	C	0.095802	-0.513466	0.000081
C76	C	0.595802	-0.013466	0.500081
C77	C	0.032761	-0.562176	0.000093
C78	C	0.532761	-0.062176	0.500093
C79	C	0.033926	-0.641117	0.000088
C80	C	0.533926	-0.141117	0.500088
C81	C	0.028060	-0.243819	0.000115
C82	C	0.528060	0.256181	0.500115
C83	C	0.026900	-0.164873	0.000117
C84	C	0.526900	0.335127	0.500117
C85	C	0.154139	-0.146405	0.000092
C86	C	0.654139	0.353595	0.500092
C87	C	0.155304	-0.225345	0.000087
C88	C	0.655304	0.274655	0.500087
C89	C	0.092263	-0.274049	0.000104
C90	C	0.592263	0.225951	0.500104
C91	C	0.093526	-0.359646	0.000094
C92	C	0.593526	0.140354	0.500094
C93	C	0.094538	-0.427870	0.000085
C94	C	0.594538	0.072130	0.500085
N95	N	0.094039	-0.893781	-0.195574
N96	N	0.594039	-0.393781	0.304426
C97	C	0.046491	-0.945367	0.239036
C98	C	0.546491	-0.445367	0.739036
C99	C	0.046490	-0.945371	0.325584
C100	C	0.546490	-0.445371	0.825584
C101	C	0.094027	-0.893751	0.368851
C102	C	0.594027	-0.393751	0.868851
C103	C	0.141563	-0.842119	0.325567
C104	C	0.641563	-0.342119	0.825567
C105	C	0.141560	-0.842112	0.239022
C106	C	0.641560	-0.342112	0.739022
C107	C	0.141576	-0.842145	0.674595
C108	C	0.641576	-0.342145	1.174595
C109	C	0.141577	-0.842157	0.761147
C110	C	0.641577	-0.342157	1.261147
C111	C	0.046506	-0.945404	0.761157
C112	C	0.546506	-0.445404	1.261157
C113	C	0.046503	-0.945397	0.674612
C114	C	0.546503	-0.445397	1.174612
C115	C	0.094036	-0.893763	0.631335
C116	C	0.594036	-0.393763	1.131335
C117	C	0.094036	-0.893758	0.537491
C118	C	0.594036	-0.393758	1.037491
C119	C	0.094031	-0.893759	0.462694
C120	C	0.594031	-0.393759	0.962694
H121	H	-0.265325	-1.021394	0.000125
H122	H	0.234675	-0.521394	0.500125
H123	H	0.211335	-0.504050	0.000056
H124	H	0.711335	-0.004050	0.500056
C125	C	-0.187919	-0.691495	0.000065
C126	C	0.312081	-0.191495	0.500065
C127	C	-0.242667	-0.751282	0.000078
C128	C	0.257333	-0.251282	0.500078
H129	H	-0.206901	-0.644291	0.000048
H130	H	0.293099	-0.144291	0.500048
H131	H	-0.159878	-0.694809	0.048011
H132	H	0.340122	-0.194809	0.548011
H133	H	-0.159856	-0.694832	-0.047883
H134	H	0.340144	-0.194832	0.452117
H135	H	-0.270727	-0.747947	0.048029
H136	H	0.229273	-0.247947	0.548029
H137	H	-0.270720	-0.747966	-0.047873
H138	H	0.229280	-0.247966	0.452127
H139	H	-0.133213	-1.023506	0.000147
H140	H	0.366787	-0.523506	0.500147
C141	C	0.264124	-0.233892	-0.070615
C142	C	0.764124	0.266108	0.429385
C143	C	0.225880	-0.258573	0.000069
C144	C	0.725880	0.241427	0.500069
H145	H	0.307698	-0.254400	-0.070620
H146	H	0.807698	0.245600	0.429380
H147	H	0.238178	-0.250629	-0.118549
H148	H	0.738178	0.249371	0.381451
H149	H	0.272442	-0.179907	-0.070604
H150	H	0.772442	0.320093	0.429396
H151	H	0.217557	-0.312559	0.000055
H152	H	0.717557	0.187441	0.500055
H153	H	0.251831	-0.241841	0.048015
H154	H	0.751831	0.258159	0.548015
H155	H	-0.017406	-0.680771	0.000096
H156	H	0.482594	-0.180771	0.500096
H157	H	0.007796	-0.987433	0.639386
H158	H	0.507796	-0.487433	1.139386
H159	H	0.205470	-0.106741	0.000082
H160	H	0.705470	0.393259	0.500082
H161	H	-0.102582	-0.773210	0.000086
H162	H	0.397418	-0.273210	0.500086
C163	C	-0.624005	-1.096018	0.000086
C164	C	-0.124005	-0.596018	0.500086
C165	C	-0.569257	-1.036231	0.000093
C166	C	-0.069257	-0.536231	0.500093
H167	H	-0.605023	-1.143222	0.000081
H168	H	-0.105023	-0.643222	0.500081
H169	H	-0.652066	-1.092696	0.048028
H170	H	-0.152066	-0.592696	0.548028
H171	H	-0.652048	-1.092688	-0.047866
H172	H	-0.152048	-0.592688	0.452134
H173	H	-0.541217	-1.039558	0.048048
H174	H	-0.041217	-0.539558	0.548048
H175	H	-0.541184	-1.039555	-0.047854
H176	H	-0.041184	-0.539555	0.452146
C177	C	-0.098765	-0.191054	0.000162
C178	C	0.401235	0.308946	0.500162
C179	C	-0.043677	-0.131636	0.000142
C180	C	0.456323	0.368364	0.500142
H181	H	-0.142332	-0.170533	0.000182
H182	H	0.357668	0.329467	0.500182
H183	H	-0.095670	-0.221458	-0.047784
H184	H	0.404330	0.278542	0.452216
H185	H	-0.095658	-0.221460	0.048110
H186	H	0.404342	0.278540	0.548110
H187	H	-0.046780	-0.101233	-0.047809
H188	H	0.453220	0.398767	0.452191
H189	H	-0.046773	-0.101219	0.048093
H190	H	0.453227	0.398781	0.548093
H191	H	-0.709345	-1.014299	0.000076
H192	H	-0.209345	-0.514299	0.500076
H193	H	-0.678722	-0.764009	0.000039
H194	H	-0.178722	-0.264009	0.500039
H195	H	-0.546605	-0.766119	0.000056
H196	H	-0.046605	-0.266119	0.500056
C197	C	-0.047490	-1.047421	0.247749
C198	C	0.452510	-0.547421	0.747749
C199	C	-0.005766	-1.002109	0.191481
C200	C	0.494234	-0.502109	0.691481
H201	H	-0.079756	-1.082447	0.218390
H202	H	0.420244	-0.582447	0.718390
H203	H	-0.018457	-1.074549	0.281490
H204	H	0.481543	-0.574549	0.781490
H205	H	-0.072564	-1.015995	0.281519
H206	H	0.427436	-0.515995	0.781519
H207	H	0.019312	-1.033535	0.157715
H208	H	0.519312	-0.533535	0.657715
H209	H	-0.034803	-0.974979	0.157726
H210	H	0.465197	-0.474979	0.657726
H211	H	0.213450	-0.647256	0.000042
H212	H	0.713450	-0.147256	0.500042
H213	H	-0.023272	-0.283465	0.000129
H214	H	0.476728	0.216535	0.500129
H215	H	-0.019514	-0.537552	0.000118
H216	H	0.480486	-0.037552	0.500118
H217	H	0.007784	-0.987409	0.360820
H218	H	0.507784	-0.487409	0.860820
H219	H	0.007800	-0.987446	0.796402
H220	H	0.507800	-0.487446	1.296402
C221	C	0.262483	-0.797263	0.212337
C222	C	0.762483	-0.297263	0.712337
C223	C	0.193813	-0.785366	0.191445
C224	C	0.693813	-0.285366	0.691445
H225	H	0.294740	-0.762230	0.182960
H226	H	0.794740	-0.262230	0.682960
H227	H	0.269285	-0.789876	0.270064
H228	H	0.769285	-0.289876	0.770064
H229	H	0.269998	-0.847748	0.198139
H230	H	0.769998	-0.347748	0.698139
H231	H	0.186296	-0.734882	0.205648
H232	H	0.686296	-0.234882	0.705648
H233	H	0.187008	-0.792746	0.133704
H234	H	0.687008	-0.292746	0.633704
C235	C	0.235545	-0.740077	0.752448
C236	C	0.735545	-0.240077	1.252448
C237	C	0.193827	-0.785405	0.808709
C238	C	0.693827	-0.285405	1.308709
H239	H	0.267796	-0.705041	0.781813
H240	H	0.767796	-0.205041	1.281813
H241	H	0.260629	-0.771486	0.718682
H242	H	0.760629	-0.271486	1.218682
H243	H	0.206501	-0.712955	0.718703
H244	H	0.706501	-0.212955	1.218703
H245	H	0.222871	-0.812532	0.842450
H246	H	0.722871	-0.312532	1.342450
H247	H	0.168742	-0.753992	0.842489
H248	H	0.668742	-0.253992	1.342489
C249	C	0.236620	-0.825398	0.577258
C250	C	0.736620	-0.325398	1.077258
C251	C	0.193835	-0.785399	0.627036
C252	C	0.693835	-0.285399	1.127036
H253	H	0.268884	-0.790364	0.547893
H254	H	0.768884	-0.290364	1.047893
H255	H	0.261690	-0.856819	0.611011
H256	H	0.761690	-0.356819	1.111011
H257	H	0.208301	-0.856129	0.539101
H258	H	0.708301	-0.356129	1.039101
H259	H	0.222154	-0.754672	0.665198
H260	H	0.722154	-0.254672	1.165198
H261	H	0.168764	-0.753964	0.593280
H262	H	0.668764	-0.253964	1.093280
H263	H	0.180266	-0.800085	0.360800
H264	H	0.680266	-0.300085	0.860800
