data_functionalizedCrystal
_audit_creation_method	'MofGen! by Chris Wilmer'
_symmetry_space_group_name_H-M	'P1'
_symmetry_Int_Tables_number	1
_symmetry_cell_setting	triclinic
loop_
_symmetry_equiv_pos_as_xyz
  x,y,z
_cell_length_a	6.817900
_cell_length_b	13.167930
_cell_length_c	16.015572
_cell_angle_alpha	82.528611
_cell_angle_beta	104.485554
_cell_angle_gamma	105.754568
loop_
_atom_site_label
_atom_site_type_symbol
_atom_site_fract_x
_atom_site_fract_y
_atom_site_fract_z
V1	V	-3.996640	-0.042085	-0.272767
O2	O	-3.966969	0.107267	-0.255665
O3	O	-3.965442	-0.184668	-0.282356
O4	O	-3.927310	0.004742	-0.386504
O5	O	-4.005364	-0.083454	-0.150796
V6	V	-4.480751	-0.029677	-0.256787
O7	O	-4.256608	-0.069302	-0.307821
O8	O	-4.670979	-0.002460	-0.221733
O9	O	-4.288742	0.112906	-0.247198
O10	O	-4.627819	-0.179029	-0.273889
O11	O	-4.589423	0.011692	-0.378758
O12	O	-4.326874	-0.076504	-0.143050
C13	C	-3.815304	-0.220870	-0.281009
C14	C	-3.870944	-0.337136	-0.289607
C15	C	-3.919304	-0.585899	-0.149927
C16	C	-3.971581	-0.695142	-0.158002
C17	C	-4.027789	-0.664868	-0.313831
C18	C	-3.975512	-0.555625	-0.305756
C19	C	-3.921267	-0.516145	-0.223801
C20	C	-3.868976	-0.406899	-0.215727
C21	C	-3.925198	-0.376627	-0.371556
C22	C	-3.977475	-0.485871	-0.379630
C23	C	-3.766663	0.020743	-0.413859
C24	C	-3.791376	0.058086	-0.506915
C25	C	-4.119998	-0.273369	-0.911122
C26	C	-4.143220	-0.238246	-0.998555
C27	C	-4.044309	-0.056530	-0.959280
C28	C	-4.021068	-0.091638	-0.871841
C29	C	-4.058919	-0.200059	-0.847770
C30	C	-3.959989	-0.018328	-0.808489
C31	C	-3.936761	-0.053434	-0.721058
C32	C	-3.974613	-0.161850	-0.696979
C33	C	-4.035691	-0.235165	-0.760339
C34	C	-3.922153	0.090092	-0.832562
C35	C	-3.861074	0.163403	-0.769210
C36	C	-3.837831	0.128297	-0.681777
C37	C	-3.875683	0.019881	-0.657698
C38	C	-3.776753	0.201612	-0.618417
C39	C	-3.753525	0.166507	-0.530986
C40	C	-3.852455	-0.015224	-0.570267
C41	C	-4.102223	0.149101	-0.248543
C42	C	-4.025821	0.265369	-0.239951
C43	C	-4.150864	-0.092510	-0.115691
C44	C	-4.105390	-0.129848	-0.022633
H45	H	-3.875109	-0.553753	-0.083196
H46	H	-4.021656	-0.518031	-0.446355
H47	H	-3.745960	0.289888	-0.638030
H48	H	-4.066486	-0.323451	-0.740739
H49	H	-3.955703	-0.190431	-0.625787
C50	C	-4.087449	-0.708338	-0.403963
C51	C	-3.957728	-0.775792	-0.426513
C52	C	-4.017379	-0.819275	-0.516640
C53	C	-4.206750	-0.795304	-0.584219
C54	C	-4.336483	-0.727847	-0.561671
C55	C	-4.276832	-0.684364	-0.471543
H56	H	-3.817533	-0.793540	-0.376486
H57	H	-3.921341	-0.869212	-0.533331
H58	H	-4.250908	-0.827493	-0.650936
H59	H	-4.476678	-0.710099	-0.611698
H60	H	-4.372870	-0.634427	-0.454852
H61	H	-3.926787	-0.319820	-0.431709
C62	C	-3.819441	0.282661	-0.795695
C63	C	-3.648471	0.335152	-0.845947
C64	C	-3.606831	0.454413	-0.872430
C65	C	-3.736160	0.521182	-0.848661
C66	C	-3.907141	0.468691	-0.798405
C67	C	-3.948781	0.349431	-0.771922
H68	H	-3.552724	0.285725	-0.863546
H69	H	-3.480259	0.493269	-0.909633
H70	H	-3.705336	0.609466	-0.868265
H71	H	-4.002889	0.518118	-0.780807
H72	H	-4.075353	0.310574	-0.734719
C73	C	-4.210405	-0.318895	-1.068246
C74	C	-4.252037	-0.438150	-1.041763
C75	C	-4.319227	-0.518797	-1.111453
C76	C	-4.344785	-0.480189	-1.207625
C77	C	-4.303152	-0.360928	-1.234112
C78	C	-4.235961	-0.280281	-1.164422
H79	H	-4.233118	-0.466736	-0.970567
H80	H	-4.350047	-0.607082	-1.091845
H81	H	-4.394523	-0.539888	-1.259214
H82	H	-4.322070	-0.332342	-1.305308
H83	H	-4.205142	-0.191996	-1.184030
H84	H	-3.969980	-0.751934	-0.097845
H85	H	-3.883249	-0.103511	-0.550667
C86	C	-4.161614	-0.392633	-0.884631
C87	C	-4.332578	-0.445127	-0.834376
C88	C	-4.374190	-0.564384	-0.807882
C89	C	-4.244837	-0.631148	-0.831643
C90	C	-4.073861	-0.578654	-0.881901
C91	C	-4.032250	-0.459397	-0.908395
H92	H	-4.428343	-0.395705	-0.816785
H93	H	-4.500758	-0.603243	-0.770678
H94	H	-4.275640	-0.719429	-0.812031
H95	H	-3.978096	-0.628077	-0.899493
H96	H	-3.905682	-0.420538	-0.945599
H97	H	-4.013504	0.031746	-0.978891
H98	H	-3.824796	-0.374756	-0.148995
H99	H	-3.941038	0.118672	-0.903754
H100	H	-3.703789	0.226203	-0.479402
