data_functionalizedCrystal
_audit_creation_method	'MofGen! by Chris Wilmer'
_symmetry_space_group_name_H-M	'P1'
_symmetry_Int_Tables_number	1
_symmetry_cell_setting	triclinic
loop_
_symmetry_equiv_pos_as_xyz
  x,y,z
_cell_length_a	13.897449
_cell_length_b	13.897448
_cell_length_c	12.759387
_cell_angle_alpha	90.032712
_cell_angle_beta	90.024402
_cell_angle_gamma	90.018519
loop_
_atom_site_label
_atom_site_type_symbol
_atom_site_fract_x
_atom_site_fract_y
_atom_site_fract_z
Zn1	Zn	1.474712	-0.383943	0.594100
Zn2	Zn	1.474603	-0.545270	0.418415
Zn3	Zn	1.313399	-0.383993	0.418425
Zn4	Zn	1.313383	-0.545200	0.594042
O5	O	1.394024	-0.464602	0.506246
O6	O	1.609679	-0.405352	0.570815
O7	O	1.453180	-0.523927	0.271395
O8	O	1.334849	-0.249005	0.441758
O9	O	1.609599	-0.523878	0.441740
O10	O	1.453366	-0.248968	0.570825
O11	O	1.334744	-0.405438	0.271403
O12	O	1.178415	-0.405369	0.441701
O13	O	1.334823	-0.523758	0.741071
O14	O	1.178404	-0.523807	0.570726
O15	O	1.453351	-0.405283	0.741114
O16	O	1.453165	-0.680243	0.441683
O17	O	1.334717	-0.680191	0.570716
C18	C	1.143410	-0.464587	0.506209
C19	C	1.036196	-0.464604	0.506218
C20	C	0.949126	-0.464607	0.506236
C21	C	0.839894	-0.464614	0.506268
C22	C	1.393954	-0.715216	0.506215
C23	C	1.394012	-0.822430	0.506237
C24	C	1.394113	-1.018725	0.506303
C25	C	1.394054	-0.909492	0.506270
C26	C	1.645617	-0.464617	0.506283
C27	C	1.752831	-0.464624	0.506299
C28	C	1.394097	-0.464507	0.780279
C29	C	1.394128	-0.464467	0.897056
C30	C	1.394121	-0.213009	0.506299
C31	C	1.394163	-0.105795	0.506322
C32	C	1.394007	-0.464626	0.233278
C33	C	1.394163	-0.464395	0.116502
C34	C	1.517560	-0.341107	0.897120
C35	C	1.579289	-0.279413	0.952013
C36	C	1.579312	-0.279377	1.061735
C37	C	1.517598	-0.341041	1.116566
C38	C	1.455869	-0.402736	1.061673
C39	C	1.455854	-0.402766	0.951949
C40	C	1.332434	-0.526089	1.061609
C41	C	1.332414	-0.526130	0.951887
C42	C	1.270720	-0.587753	1.116440
C43	C	1.208994	-0.649453	1.061547
C44	C	1.208974	-0.649487	0.951819
C45	C	1.270685	-0.587825	0.896994
H46	H	1.517556	-0.341138	0.807779
C47	C	1.592795	-0.149595	1.185169
C48	C	1.647163	-0.211561	1.122079
H49	H	1.634684	-0.107725	1.222416
H50	H	1.556056	-0.186317	1.233517
H51	H	1.550783	-0.112706	1.142353
H52	H	1.689170	-0.248455	1.164895
H53	H	1.683918	-0.174835	1.073725
C54	C	1.362419	-0.612465	0.739844
C55	C	1.270673	-0.587855	0.776386
H56	H	1.362414	-0.612472	0.665386
H57	H	1.379057	-0.674704	0.764645
H58	H	1.408004	-0.566895	0.764708
H59	H	1.225089	-0.633429	0.751529
H60	H	1.254024	-0.525606	0.751575
C61	C	1.195490	-0.779271	0.828387
C62	C	1.141123	-0.717303	0.891475
H63	H	1.153600	-0.821133	0.791131
H64	H	1.237494	-0.816158	0.871196
H65	H	1.232237	-0.742543	0.780035
H66	H	1.104381	-0.754031	0.939832
H67	H	1.099102	-0.680412	0.848663
H68	H	1.629534	-0.229206	0.907358
H69	H	1.517614	-0.340999	1.205907
C70	C	1.203539	-0.654866	1.273579
C71	C	1.270742	-0.587717	1.237048
H72	H	1.203551	-0.654841	1.348038
H73	H	1.220186	-0.717112	1.248744
H74	H	1.141300	-0.638171	1.248742
H75	H	1.332982	-0.604416	1.261879
H76	H	1.254100	-0.525457	1.261893
C77	C	1.161933	-0.812767	1.095282
C78	C	1.141162	-0.717229	1.121814
H79	H	1.120051	-0.854608	1.132488
H80	H	1.226731	-0.826879	1.113286
H81	H	1.153087	-0.821611	1.022079
H82	H	1.150015	-0.708383	1.195017
H83	H	1.076349	-0.703113	1.103818
