data_functionalizedCrystal
_audit_creation_method	'MofGen! by Chris Wilmer'
_symmetry_space_group_name_H-M	'P1'
_symmetry_Int_Tables_number	1
_symmetry_cell_setting	triclinic
loop_
_symmetry_equiv_pos_as_xyz
  x,y,z
_cell_length_a	15.944499
_cell_length_b	15.944551
_cell_length_c	9.130307
_cell_angle_alpha	89.995755
_cell_angle_beta	89.995890
_cell_angle_gamma	83.488174
loop_
_atom_site_label
_atom_site_type_symbol
_atom_site_fract_x
_atom_site_fract_y
_atom_site_fract_z
O1	O	1.114548	0.108124	-0.121890
O2	O	0.869992	0.121525	-0.121874
O3	O	0.998948	-0.007451	-0.121870
O4	O	0.985592	0.237101	-0.121895
O5	O	0.998944	-0.007453	0.121729
O6	O	0.869988	0.121524	0.121725
O7	O	1.114544	0.108123	0.121709
Cu8	Cu	0.992265	0.114823	0.143959
Cu9	Cu	0.992270	0.114825	-0.144125
O10	O	0.985587	0.237099	0.121704
C11	C	0.838695	0.120976	-0.000073
C12	C	0.745447	0.119331	-0.000066
C13	C	0.453911	0.194263	-0.000096
C14	C	0.514942	0.155312	-0.120202
C15	C	0.409810	0.113355	-0.000100
C16	C	0.514924	0.155289	0.119968
C17	C	0.574719	0.116296	-0.000081
C18	C	0.469614	0.074382	-0.120304
C19	C	0.469589	0.074370	0.119973
C20	C	0.530603	0.035360	-0.000162
C21	C	0.314810	0.111663	-0.000112
C22	C	0.669718	0.117981	-0.000079
C23	C	0.998392	-0.038746	-0.000070
C24	C	0.996729	-0.131992	-0.000069
C25	C	0.912823	-0.346833	-0.000084
C26	C	0.951784	-0.407858	0.120023
C27	C	0.993722	-0.302717	-0.000080
C28	C	0.951807	-0.407840	-0.120147
C29	C	0.990811	-0.467629	-0.000097
C30	C	1.032705	-0.362514	0.120126
C31	C	1.032717	-0.362490	-0.120152
C32	C	1.071737	-0.423497	-0.000016
C33	C	0.995397	-0.207715	-0.000069
C34	C	0.989143	-0.562630	-0.000098
C35	C	1.145840	0.108672	-0.000096
C36	C	1.239089	0.110317	-0.000112
C37	C	0.986144	0.268394	-0.000099
C38	C	0.987806	0.361640	-0.000110
N39	N	0.992268	0.114822	0.346582
N40	N	0.992274	0.114820	-0.346748
C41	C	1.106505	0.000646	0.346576
C42	C	1.163629	-0.056440	0.423240
C43	C	1.163637	-0.056441	0.576573
C44	C	1.106514	0.000649	0.653247
C45	C	1.049390	0.057735	0.576583
C46	C	1.049389	0.057731	0.423246
C47	C	0.935150	0.171905	0.576588
C48	C	0.935145	0.171911	0.423255
C49	C	0.878027	0.228995	0.653262
C50	C	0.820906	0.286086	0.576598
C51	C	0.820900	0.286085	0.423255
C52	C	0.878021	0.228997	0.346591
H53	H	0.449470	0.040176	0.221523
O54	O	0.445880	0.033675	-0.241733
C55	C	0.469501	0.076165	-0.368014
H56	H	0.523532	0.114458	-0.340031
H57	H	0.413239	0.120297	-0.409430
C58	C	0.431958	-0.035793	-0.522181
C59	C	0.498324	0.011233	-0.487814
H60	H	0.449734	-0.075845	-0.596083
H61	H	0.416041	-0.064418	-0.437105
H62	H	0.385079	0.000993	-0.556686
H63	H	0.545198	-0.025551	-0.453293
H64	H	0.514250	0.039851	-0.572888
H65	H	0.774396	0.332561	0.639034
O66	O	0.765377	0.341621	0.349015
C67	C	0.714951	0.391987	0.449575
H68	H	0.749391	0.392953	0.558869
H69	H	0.652560	0.364675	0.465899
C70	C	0.655323	0.481409	0.255497
C71	C	0.697627	0.482601	0.389729
H72	H	0.644633	0.537303	0.218580
H73	H	0.689293	0.447475	0.187746
H74	H	0.603335	0.458645	0.269118
H75	H	0.749617	0.505355	0.376103
H76	H	0.663664	0.516542	0.457477
H77	H	0.534998	0.189523	0.221504
O78	O	0.832702	-0.307114	0.000315
C79	C	0.790352	-0.330105	0.127176
H80	H	0.838570	-0.352105	0.215245
H81	H	0.751097	-0.383487	0.099775
C82	C	0.672762	-0.226369	0.075634
C83	C	0.731984	-0.253383	0.183806
H84	H	0.636755	-0.179045	0.110564
H85	H	0.701292	-0.210881	-0.009838
H86	H	0.640058	-0.270861	0.052809
H87	H	0.764694	-0.208895	0.206616
H88	H	0.703458	-0.268862	0.269284
H89	H	0.917565	-0.427960	0.221568
H90	H	1.066892	-0.342530	0.221778
O91	O	1.219161	-0.111780	0.651209
C92	C	1.270992	-0.066765	0.739855
H93	H	1.237536	-0.001053	0.762820
H94	H	1.333067	-0.061028	0.680747
C95	C	1.330042	-0.194821	0.857308
C96	C	1.288948	-0.114114	0.885524
H97	H	1.341122	-0.224029	0.947161
H98	H	1.295125	-0.225149	0.797582
H99	H	1.381767	-0.190028	0.808048
H100	H	1.237220	-0.118908	0.934766
H101	H	1.323857	-0.083788	0.945262
O102	O	0.877928	0.229133	0.197644
C103	C	0.815246	0.291742	0.146412
H104	H	0.800590	0.341775	0.234765
H105	H	0.755562	0.261723	0.119225
C106	C	0.865197	0.271644	-0.100693
C107	C	0.847202	0.333100	0.007819
H108	H	0.884906	0.297154	-0.186187
H109	H	0.907426	0.229461	-0.066179
H110	H	0.815456	0.246634	-0.123331
H111	H	0.896945	0.358102	0.030469
H112	H	0.804982	0.375289	-0.026694
O113	O	1.151928	-0.463041	0.000312
C114	C	1.194258	-0.439918	0.127090
H115	H	1.146032	-0.418004	0.215203
H116	H	1.233370	-0.386438	0.099578
C117	C	1.312038	-0.543421	0.075493
C118	C	1.252807	-0.516512	0.183719
H119	H	1.348157	-0.590666	0.110423
H120	H	1.283522	-0.558997	-0.009923
H121	H	1.344623	-0.498847	0.052576
H122	H	1.220217	-0.561082	0.206621
H123	H	1.281319	-0.500945	0.269141
H124	H	1.066907	-0.342365	-0.221702
H125	H	0.535042	0.189537	-0.221742
H126	H	1.106511	0.000647	0.221724
O127	O	1.219150	-0.111974	0.348986
C128	C	1.269583	-0.162343	0.449534
H129	H	1.235150	-0.163312	0.558843
H130	H	1.331975	-0.135031	0.465824
C131	C	1.329198	-0.251760	0.255446
C132	C	1.286903	-0.252956	0.389698
H133	H	1.339885	-0.307653	0.218536
H134	H	1.295222	-0.217824	0.187704
H135	H	1.381186	-0.228996	0.269040
H136	H	1.234911	-0.275709	0.376100
H137	H	1.320870	-0.286898	0.457437
H138	H	0.563780	-0.031846	-0.000219
O139	O	0.910865	-0.431681	-0.241241
C140	C	0.827110	-0.392271	-0.240755
H141	H	0.823082	-0.332872	-0.170439
H142	H	0.783544	-0.437514	-0.193876
C143	C	0.804858	-0.441297	-0.484900
C144	C	0.799913	-0.368338	-0.398546
H145	H	0.788079	-0.426537	-0.582232
H146	H	0.861284	-0.467852	-0.485227
H147	H	0.768553	-0.478993	-0.445817
H148	H	0.836225	-0.330648	-0.437619
H149	H	0.743492	-0.341777	-0.398230
H150	H	0.420581	0.261409	-0.000219
H151	H	1.106517	0.000638	0.778099
H152	H	0.878033	0.228989	0.778114
