data_functionalizedCrystal
_audit_creation_method	'MofGen! by Chris Wilmer'
_symmetry_space_group_name_H-M	'P1'
_symmetry_Int_Tables_number	1
_symmetry_cell_setting	triclinic
loop_
_symmetry_equiv_pos_as_xyz
  x,y,z
_cell_length_a	14.519731
_cell_length_b	11.892113
_cell_length_c	12.837932
_cell_angle_alpha	93.957623
_cell_angle_beta	89.259278
_cell_angle_gamma	94.361005
loop_
_atom_site_label
_atom_site_type_symbol
_atom_site_fract_x
_atom_site_fract_y
_atom_site_fract_z
O1	O	1.241390	0.093998	0.141938
O2	O	0.974297	0.093999	0.157920
O3	O	1.101920	0.094000	-0.000985
O4	O	1.113767	0.093998	0.300843
O5	O	1.090346	-0.094007	-0.012837
O6	O	0.962723	-0.094008	0.146068
O7	O	1.229816	-0.094009	0.130086
Zn8	Zn	1.094432	-0.123859	0.136196
Zn9	Zn	1.109681	0.123849	0.151811
O10	O	1.102193	-0.094009	0.288992
C11	C	0.934086	-0.000004	0.151245
C12	C	0.831511	-0.000003	0.149001
N13	N	1.084031	-0.292912	0.125538
C14	C	1.192454	-0.529562	0.236672
C15	C	1.185191	-0.647904	0.229214
C16	C	1.062246	-0.647940	0.103158
C17	C	1.069510	-0.529598	0.110616
C18	C	1.134615	-0.470414	0.177377
C19	C	1.141873	-0.352070	0.184840
C20	C	1.018933	-0.352108	0.058779
C21	C	1.011670	-0.470449	0.051321
C22	C	0.748210	0.000001	0.147178
C23	C	0.643704	0.000002	0.144900
C24	C	0.560409	0.000001	0.143092
C25	C	0.455897	0.000004	0.140814
C26	C	1.270027	-0.000003	0.136761
C27	C	1.372602	0.000004	0.139005
C28	C	1.092131	-0.000001	-0.045539
C29	C	1.080197	0.000007	-0.160639
N30	N	1.120088	0.292903	0.162460
C31	C	0.980444	0.000005	-0.310676
C32	C	0.991652	0.000007	-0.202528
C33	C	1.157540	0.000008	-0.226907
C34	C	1.146332	0.000006	-0.335055
C35	C	1.057781	0.000003	-0.376935
C36	C	1.046573	-0.000007	-0.485086
C37	C	1.212460	0.000001	-0.509463
C38	C	1.223668	0.000003	-0.401315
C39	C	1.111981	-0.000006	0.333546
C40	C	1.123916	-0.000006	0.448646
H41	H	1.245457	-0.481373	0.291041
N42	N	1.247588	-0.711703	0.293148
H43	H	1.289936	-0.656249	0.336564
H44	H	1.208826	-0.760822	0.340641
N45	N	1.295881	-0.000011	-0.580929
H46	H	1.275347	-0.000017	-0.655797
H47	H	1.338352	0.069685	-0.562961
H48	H	1.295764	0.000001	-0.367201
H49	H	0.928676	0.000010	-0.148582
H50	H	1.229629	-0.000061	-0.192794
H51	H	0.971832	-0.303936	0.010502
N52	N	0.941457	-0.534286	-0.020687
H53	H	0.945633	-0.618231	-0.016417
H54	H	0.877443	-0.513621	0.000934
H55	H	1.009250	-0.696148	0.048794
H56	H	1.194881	-0.303883	0.239204
H57	H	0.974470	-0.000020	-0.519183
H58	H	0.908342	-0.000017	-0.344776
