data_functionalizedCrystal
_audit_creation_method	'MofGen! by Chris Wilmer'
_symmetry_space_group_name_H-M	'P1'
_symmetry_Int_Tables_number	1
_symmetry_cell_setting	triclinic
loop_
_symmetry_equiv_pos_as_xyz
  x,y,z
_cell_length_a	11.026607
_cell_length_b	17.699083
_cell_length_c	16.176319
_cell_angle_alpha	89.992304
_cell_angle_beta	89.993777
_cell_angle_gamma	95.934516
loop_
_atom_site_label
_atom_site_type_symbol
_atom_site_fract_x
_atom_site_fract_y
_atom_site_fract_z
O1	O	1.609234	0.316812	-0.068757
O2	O	1.256034	0.280737	-0.068757
O3	O	1.442613	0.189956	-0.068750
O4	O	1.422655	0.407592	-0.068765
O5	O	1.442587	0.189945	0.068743
O6	O	1.256009	0.280726	0.068736
O7	O	1.609208	0.316801	0.068736
Cu8	Cu	1.432606	0.298762	0.081290
Cu9	Cu	1.432636	0.298775	-0.081311
O10	O	1.422630	0.407582	0.068729
C11	C	1.441885	0.161655	-0.000003
C12	C	1.439740	0.077343	-0.000003
C13	C	1.210830	0.274076	-0.000010
C14	C	1.076175	0.254237	-0.000010
C15	C	1.549257	0.043769	-0.000002
C16	C	1.547234	-0.035453	-0.000009
C17	C	1.435692	-0.081099	-0.000012
C18	C	1.326166	-0.047520	-0.000015
C19	C	1.328190	0.031700	-0.000014
C20	C	1.318000	-0.367005	-0.000022
C21	C	1.315984	-0.446230	-0.000021
C22	C	1.537044	-0.434158	-0.000017
C23	C	1.539068	-0.354938	-0.000016
C24	C	1.429543	-0.321366	-0.000024
C25	C	1.431738	-0.235465	-0.000017
C26	C	1.433496	-0.166998	-0.000012
C27	C	1.002207	0.309017	-0.000014
C28	C	0.863034	0.288513	-0.000014
C29	C	1.654412	0.323461	-0.000013
C30	C	1.789068	0.343301	-0.000018
C31	C	1.423358	0.435882	-0.000020
C32	C	1.425503	0.520195	-0.000026
N33	N	1.432594	0.298754	0.195655
N34	N	1.432659	0.298779	-0.195677
C35	C	1.515235	0.258581	0.238923
C36	C	1.515242	0.258581	0.325470
C37	C	1.432611	0.298759	0.368748
C38	C	1.349960	0.338934	0.325475
C39	C	1.349949	0.338929	0.238929
C40	C	1.350002	0.338953	0.674503
C41	C	1.350022	0.338957	0.761054
C42	C	1.515294	0.258606	0.761044
C43	C	1.515283	0.258601	0.674498
C44	C	1.432629	0.298772	0.631232
C45	C	1.432622	0.298770	0.537388
C46	C	1.432623	0.298766	0.462591
H47	H	1.640088	0.080929	0.000005
C48	C	1.055845	0.392884	-0.000017
N49	N	1.096243	0.456055	-0.000019
H50	H	1.036466	0.192158	-0.000027
C51	C	0.842697	0.427173	-0.000025
N52	N	0.883092	0.490344	-0.000031
H53	H	1.282729	0.371676	0.796290
C54	C	1.259054	0.383121	0.373084
N55	N	1.190581	0.416404	0.408942
H56	H	1.582573	0.225887	0.639264
C57	C	1.606137	0.214380	0.191325
N58	N	1.674603	0.181084	0.155476
H59	H	1.582534	0.225868	0.360698
H60	H	0.823331	0.226431	-0.000031
C61	C	1.259046	0.383130	0.191335
N62	N	1.190576	0.416424	0.155489
C63	C	1.667713	-0.072380	0.000006
N64	N	1.758463	-0.100193	0.000021
H65	H	1.629897	-0.317776	-0.000010
C66	C	1.259237	0.383262	0.626922
N67	N	1.190924	0.416681	0.591081
H68	H	1.626225	-0.461501	-0.000015
C69	C	1.197518	-0.330086	-0.000035
N70	N	1.106765	-0.302276	-0.000048
C71	C	1.203468	-0.097733	-0.000011
N72	N	1.111050	-0.135553	-0.000002
H73	H	1.582592	0.225893	0.796280
C74	C	1.207712	0.068631	-0.000013
N75	N	1.116964	0.096445	-0.000015
H76	H	1.225148	-0.483393	-0.000021
