data_functionalizedCrystal
_audit_creation_method	'MofGen! by Chris Wilmer'
_symmetry_space_group_name_H-M	'P1'
_symmetry_Int_Tables_number	1
_symmetry_cell_setting	triclinic
loop_
_symmetry_equiv_pos_as_xyz
  x,y,z
_cell_length_a	10.654550
_cell_length_b	10.868271
_cell_length_c	10.654550
_cell_angle_alpha	90.004980
_cell_angle_beta	84.484931
_cell_angle_gamma	90.001065
loop_
_atom_site_label
_atom_site_type_symbol
_atom_site_fract_x
_atom_site_fract_y
_atom_site_fract_z
O1	O	1.667841	0.102230	0.176400
O2	O	2.167841	0.602230	0.676400
O3	O	1.302362	0.102253	0.193206
O4	O	1.802362	0.602253	0.693206
O5	O	1.493505	0.102233	0.002064
O6	O	1.993505	0.602233	0.502064
O7	O	1.476699	0.102250	0.367542
O8	O	1.976699	0.602250	0.867542
O9	O	1.493489	-0.102412	0.002056
O10	O	1.993489	0.397588	0.502056
O11	O	1.302346	-0.102392	0.193198
O12	O	1.802346	0.397608	0.693198
O13	O	1.667825	-0.102415	0.176392
O14	O	2.167825	0.397585	0.676392
Zn15	Zn	1.485083	-0.134895	0.184794
Zn16	Zn	1.985083	0.365105	0.684794
Zn17	Zn	1.485104	0.134733	0.184804
Zn18	Zn	1.985104	0.634733	0.684804
O19	O	1.476683	-0.102395	0.367534
O20	O	1.976683	0.397605	0.867534
C21	C	1.255556	-0.000067	0.191968
C22	C	1.755556	0.499933	0.691968
C23	C	1.116113	-0.000058	0.188276
C24	C	1.616113	0.499942	0.688276
C25	C	1.036628	-0.000057	0.300818
C26	C	1.536628	0.499943	0.800818
C27	C	0.905607	-0.000078	0.297341
C28	C	1.405607	0.499922	0.797341
C29	C	0.933570	-0.000098	0.068772
C30	C	1.433570	0.499902	0.568772
C31	C	1.064588	-0.000085	0.072250
C32	C	1.564588	0.499915	0.572250
N33	N	1.485078	-0.318909	0.184786
N34	N	1.985078	0.181091	0.684786
C35	C	1.485098	-0.569915	0.184801
C36	C	1.985098	-0.069915	0.684801
C37	C	1.485083	-0.430238	0.184797
C38	C	1.985083	0.069762	0.684797
C39	C	1.714631	-0.000092	0.177630
C40	C	2.214631	0.499908	0.677630
C41	C	1.854074	-0.000093	0.181322
C42	C	2.354074	0.499907	0.681322
N43	N	1.485119	0.318747	0.184802
N44	N	1.985119	0.818747	0.684802
C45	C	1.492263	-0.000089	-0.044738
C46	C	1.992263	0.499911	0.455262
C47	C	1.488571	-0.000086	-0.184181
C48	C	1.988571	0.499914	0.315819
C49	C	1.601112	-0.000093	-0.263667
C50	C	2.101112	0.499907	0.236333
C51	C	1.597636	-0.000078	-0.394688
C52	C	2.097636	0.499922	0.105312
C53	C	1.369066	-0.000055	-0.366725
C54	C	1.869066	0.499945	0.133275
C55	C	1.372544	-0.000061	-0.235706
C56	C	1.872544	0.499939	0.264294
C57	C	1.477925	-0.000071	0.414336
C58	C	1.977925	0.499929	0.914336
C59	C	1.481616	-0.000065	0.553779
C60	C	1.981616	0.499935	1.053779
H61	H	1.078574	-0.000044	0.395294
H62	H	1.578574	0.499956	0.895294
F63	F	0.821017	-0.000079	0.417124
F64	F	1.321017	0.499921	0.917124
H65	H	1.689279	-0.000080	-0.459401
H66	H	2.189279	0.499920	0.040599
F67	F	1.724598	-0.000118	-0.208835
F68	F	2.224598	0.499882	0.291165
H69	H	0.891602	-0.000127	-0.025693
H70	H	1.391602	0.499873	0.474307
F71	F	1.149188	-0.000095	-0.047539
F72	F	1.649188	0.499905	0.452461
H73	H	1.274601	-0.000036	-0.408693
H74	H	1.774601	0.499964	0.091307
H75	H	1.280893	-0.000052	-0.170985
H76	H	1.780893	0.499948	0.329015
