data_functionalizedCrystal
_audit_creation_method	'MofGen! by Chris Wilmer'
_symmetry_space_group_name_H-M	'P1'
_symmetry_Int_Tables_number	1
_symmetry_cell_setting	triclinic
loop_
_symmetry_equiv_pos_as_xyz
  x,y,z
_cell_length_a	15.297475
_cell_length_b	21.295417
_cell_length_c	15.296720
_cell_angle_alpha	80.361834
_cell_angle_beta	88.382886
_cell_angle_gamma	80.332118
loop_
_atom_site_label
_atom_site_type_symbol
_atom_site_fract_x
_atom_site_fract_y
_atom_site_fract_z
Zn1	Zn	1.253315	-0.489896	0.726513
Zn2	Zn	1.278561	-0.580536	0.580012
Zn3	Zn	1.132199	-0.454534	0.554760
Zn4	Zn	1.106789	-0.574348	0.701142
O5	O	1.192716	-0.524829	0.640607
O6	O	1.379239	-0.519309	0.728265
O7	O	1.280346	-0.551612	0.454090
O8	O	1.148333	-0.371150	0.577592
O9	O	1.397787	-0.585901	0.620632
O10	O	1.237317	-0.397130	0.703779
O11	O	1.172814	-0.459039	0.435537
O12	O	1.006253	-0.453039	0.552991
O13	O	1.105026	-0.575355	0.827080
O14	O	0.987585	-0.541066	0.660538
O15	O	1.212678	-0.513309	0.845720
O16	O	1.255707	-0.667790	0.596031
O17	O	1.129506	-0.663244	0.685025
C18	C	0.965136	-0.492545	0.601272
C19	C	0.867773	-0.478750	0.584465
C20	C	0.554602	-0.623422	0.760730
C21	C	0.646080	-0.636386	0.776518
C22	C	0.701507	-0.596978	0.728507
C23	C	0.665449	-0.544604	0.664703
C24	C	0.573963	-0.531641	0.648908
C25	C	0.720868	-0.505198	0.616685
C26	C	0.684809	-0.452823	0.552882
C27	C	0.593332	-0.439862	0.537090
C28	C	0.537904	-0.479270	0.585102
C29	C	0.812354	-0.518160	0.632480
C30	C	0.831715	-0.426380	0.520659
C31	C	0.740237	-0.413415	0.504870
C32	C	1.192609	-0.688359	0.640538
C33	C	1.192639	-0.758333	0.640552
C34	C	1.258392	-0.793558	0.594279
C35	C	1.258429	-0.859308	0.594306
C36	C	1.192700	-0.889827	0.640594
C37	C	1.126942	-0.854594	0.686877
C38	C	1.126911	-0.788847	0.686856
N39	N	1.114918	-0.982893	0.634027
N40	N	1.114951	-1.045351	0.634042
C41	C	1.192790	-1.087921	0.640661
N42	N	1.270600	-1.065673	0.647247
N43	N	1.270567	-1.003210	0.647228
C44	C	1.192726	-0.961119	0.640622
C45	C	1.258588	-1.194441	0.594415
C46	C	1.258626	-1.260193	0.594448
C47	C	1.127132	-1.255477	0.687013
C48	C	1.127101	-1.189727	0.686986
C49	C	1.192829	-1.159213	0.640682
C50	C	1.421184	-0.557239	0.680096
C51	C	1.518543	-0.571051	0.696923
C52	C	1.153201	-0.547586	0.869070
C53	C	1.136362	-0.557284	0.966428
C54	C	1.192843	-0.360665	0.640699
C55	C	1.192898	-0.290708	0.640738
C56	C	1.232127	-0.502121	0.413041
C57	C	1.249136	-0.492270	0.315713
C58	C	1.313098	-0.455410	1.279682
C59	C	1.328925	-0.446300	1.188211
C60	C	1.280785	-0.474045	1.132761
C61	C	1.216817	-0.510902	1.168791
C62	C	1.200994	-0.520017	1.260272
C63	C	1.168681	-0.538652	1.113350
C64	C	1.104713	-0.575509	1.149380
C65	C	1.088892	-0.584622	1.240852
C66	C	1.137031	-0.556877	1.296302
C67	C	1.184504	-0.529537	1.021869
C68	C	1.072400	-0.594144	1.002458
C69	C	1.056573	-0.603254	1.093930
H70	H	0.463414	-0.468716	0.572252
C71	C	1.034520	-0.691861	0.966850
C72	C	1.019482	-0.624645	0.941514
H73	H	1.001859	-0.710690	0.929218
H74	H	1.015939	-0.702560	1.026477
H75	H	1.095962	-0.707918	0.962024
H76	H	0.958040	-0.608588	0.946348
H77	H	1.038058	-0.613941	0.881873
H78	H	1.293675	-0.466626	1.058281
C79	C	0.943985	-0.578786	0.706341
C80	C	0.851984	-0.575725	0.702613
H81	H	0.968448	-0.614328	0.749639
H82	H	0.956762	-0.539926	0.721865
H83	H	0.969137	-0.584190	0.650048
H84	H	0.826831	-0.570317	0.758905
H85	H	0.839199	-0.614594	0.687094
C86	C	0.982552	-0.645912	1.225541
C87	C	0.986268	-0.643772	1.133542
H88	H	0.939152	-0.670930	1.249995
H89	H	0.967172	-0.603302	1.238334
H90	H	1.038810	-0.664966	1.250689
H91	H	0.930011	-0.624714	1.108394
H92	H	1.001642	-0.686390	1.120742
C93	C	1.031046	-0.542064	1.412942
C94	C	1.119633	-0.566892	1.396853
H95	H	1.020309	-0.548243	1.475018
H96	H	0.993234	-0.563867	1.385082
H97	H	1.019522	-0.497238	1.389648
H98	H	1.131156	-0.611719	1.420141
H99	H	1.157456	-0.545090	1.424724
H100	H	0.876845	-0.394291	0.481562
H101	H	0.509466	-0.655505	0.799809
H102	H	1.381010	-0.416293	1.158883
C103	C	1.094420	-1.125756	0.802652
C104	C	1.054816	-1.151002	0.737844
H105	H	1.049791	-1.101854	0.834056
H106	H	1.133551	-1.098173	0.775079
H107	H	1.126766	-1.160124	0.842784
H108	H	1.022475	-1.116634	0.697708
H109	H	1.015669	-1.178588	0.765418
H110	H	1.073426	-0.879448	0.724567
H111	H	1.236587	-0.499527	0.992543
H112	H	0.775992	-0.607537	0.741366
H113	H	0.675432	-0.679031	0.828465
H114	H	1.352292	-0.432829	1.324838
C115	C	0.621659	-0.350439	0.428150
C116	C	0.553695	-0.382294	0.466955
H117	H	0.597187	-0.314897	0.384856
H118	H	0.663123	-0.379534	0.400730
H119	H	0.650750	-0.335273	0.472550
H120	H	0.524608	-0.397464	0.422556
H121	H	0.512216	-0.353194	0.494375
H122	H	0.710865	-0.370771	0.452921
H123	H	1.036812	-0.614639	1.270186
H124	H	1.311976	-0.887995	0.556626
C125	C	1.388374	-0.804831	0.502793
C126	C	1.330649	-0.760020	0.543397
H127	H	1.432987	-0.784125	0.471388
H128	H	1.356050	-0.821757	0.462671
H129	H	1.415246	-0.838996	0.546786
H130	H	1.303772	-0.725858	0.499403
H131	H	1.362978	-0.743085	0.583522
C132	C	0.996940	-0.790790	0.778355
C133	C	1.054626	-0.750122	0.737717
H134	H	0.952311	-0.766880	0.809748
H135	H	1.029289	-0.825143	0.818491
H136	H	0.970087	-0.807921	0.734380
H137	H	1.081485	-0.732995	0.781692
H138	H	1.022273	-0.715757	0.697577
H139	H	1.312110	-1.169596	0.556715
C140	C	0.997158	-1.244207	0.778508
C141	C	1.054882	-1.289015	0.737898
H142	H	0.952558	-1.264917	0.809929
H143	H	0.970277	-1.210049	0.734523
H144	H	1.029492	-1.227274	0.818625
H145	H	1.022548	-1.305945	0.697776
H146	H	1.081765	-1.323184	0.781888
C147	C	1.388584	-1.258243	0.502932
C148	C	1.330907	-1.298916	0.543580
H149	H	1.433203	-1.282150	0.471523
H150	H	1.415444	-1.241116	0.546895
H151	H	1.356220	-1.223885	0.462799
H152	H	1.363270	-1.333271	0.583717
H153	H	1.304045	-1.316053	0.499612
