data_functionalizedCrystal
_audit_creation_method	'MofGen! by Chris Wilmer'
_symmetry_space_group_name_H-M	'P1'
_symmetry_Int_Tables_number	1
_symmetry_cell_setting	triclinic
loop_
_symmetry_equiv_pos_as_xyz
  x,y,z
_cell_length_a	16.625545
_cell_length_b	19.805407
_cell_length_c	19.805399
_cell_angle_alpha	89.980803
_cell_angle_beta	90.025578
_cell_angle_gamma	89.978292
loop_
_atom_site_label
_atom_site_type_symbol
_atom_site_fract_x
_atom_site_fract_y
_atom_site_fract_z
Zn1	Zn	-0.321103	-1.034740	0.382722
Zn2	Zn	-0.455940	-1.034656	0.269538
Zn3	Zn	-0.321116	-0.921554	0.269548
Zn4	Zn	-0.455888	-0.921519	0.382685
O5	O	-0.388512	-0.978117	0.326123
O6	O	-0.339006	-1.129445	0.367719
O7	O	-0.438083	-1.019633	0.174823
O8	O	-0.208282	-0.936618	0.284580
O9	O	-0.438070	-1.129384	0.284563
O10	O	-0.208272	-1.019775	0.367729
O11	O	-0.339028	-0.936537	0.174830
O12	O	-0.338978	-0.826833	0.284544
O13	O	-0.437982	-0.936559	0.477407
O14	O	-0.437994	-0.826808	0.367666
O15	O	-0.338955	-1.019741	0.477434
O16	O	-0.568766	-1.019599	0.284528
O17	O	-0.568728	-0.936478	0.367657
C18	C	-0.388483	-0.802261	0.326103
C19	C	-0.388489	-0.727029	0.326110
C20	C	-0.336997	-0.691718	0.369474
C21	C	-0.336999	-0.621029	0.369475
C22	C	-0.388499	-0.585654	0.326114
C23	C	-0.439994	-0.620970	0.282745
C24	C	-0.439987	-0.691658	0.282742
C25	C	-0.440023	-0.335897	0.282759
C26	C	-0.440028	-0.265205	0.282768
C27	C	-0.337036	-0.265269	0.369493
C28	C	-0.337029	-0.335956	0.369489
C29	C	-0.388520	-0.371266	0.326118
C30	C	-0.388516	-0.447915	0.326116
C31	C	-0.388508	-0.509007	0.326119
C32	C	-0.598003	-0.978044	0.326102
C33	C	-0.687624	-0.978074	0.326116
C34	C	-0.760406	-0.978101	0.326129
C35	C	-0.851715	-0.978140	0.326144
C36	C	-0.924491	-0.978175	0.326153
C37	C	-1.015806	-0.978214	0.326166
C38	C	-0.178203	-0.978210	0.326160
C39	C	-0.088582	-0.978249	0.326175
C40	C	-0.388461	-0.978155	0.502666
C41	C	-0.388440	-0.978172	0.577898
C42	C	-0.388536	-0.154660	0.326138
C43	C	-0.388531	-0.229892	0.326129
C44	C	-0.388504	-0.978119	0.150267
C45	C	-0.388299	-0.978234	0.075036
C46	C	-0.336874	-1.021486	0.613257
C47	C	-0.336851	-1.021493	0.683946
C48	C	-0.388398	-0.978188	0.719274
C49	C	-0.439965	-0.934870	0.683910
C50	C	-0.439984	-0.934860	0.613222
C51	C	-0.439890	-0.934908	0.968983
C52	C	-0.439869	-0.934922	1.039675
C53	C	-0.336757	-1.021541	1.039707
C54	C	-0.336776	-1.021531	0.969019
C55	C	-0.388340	-0.978210	0.933661
C56	C	-0.388364	-0.978202	0.857013
C57	C	-0.388379	-0.978199	0.795921
H58	H	-0.481951	-0.364638	0.247444
H59	H	-0.481922	-0.592162	0.247437
H60	H	-0.294768	-1.056812	1.068504
H61	H	-0.481846	-0.899656	1.068437
N62	N	-0.495520	-0.729747	0.235967
H63	H	-0.528147	-0.696612	0.208499
H64	H	-0.532875	-0.759080	0.263459
H65	H	-0.295062	-0.720516	0.404785
H66	H	-0.481889	-0.899643	0.940203
N67	N	-0.495545	-0.888146	0.722009
H68	H	-0.487707	-0.894722	0.772155
H69	H	-0.553141	-0.898641	0.709650
N70	N	-0.495566	-0.227050	0.235988
H71	H	-0.487756	-0.176912	0.242574
H72	H	-0.553170	-0.239393	0.246428
H73	H	-0.294901	-1.056751	0.584499
H74	H	-0.295071	-0.592282	0.404788
H75	H	-0.481966	-0.899582	0.584434
H76	H	-0.294863	-1.056765	0.712732
H77	H	-0.294804	-1.056796	0.940259
N78	N	-0.281488	-0.374111	0.416259
H79	H	-0.248866	-0.341015	0.443731
H80	H	-0.244129	-0.403439	0.388760
N81	N	-0.281490	-0.227177	0.416262
H82	H	-0.223863	-0.239492	0.405835
H83	H	-0.294156	-0.239506	0.464586
