data_functionalizedCrystal
_audit_creation_method	'MofGen! by Chris Wilmer'
_symmetry_space_group_name_H-M	'P1'
_symmetry_Int_Tables_number	1
_symmetry_cell_setting	triclinic
loop_
_symmetry_equiv_pos_as_xyz
  x,y,z
_cell_length_a	6.817900
_cell_length_b	14.858329
_cell_length_c	19.453114
_cell_angle_alpha	95.589746
_cell_angle_beta	101.709288
_cell_angle_gamma	104.519616
loop_
_atom_site_label
_atom_site_type_symbol
_atom_site_fract_x
_atom_site_fract_y
_atom_site_fract_z
V1	V	-4.012059	-0.129640	-0.219201
V2	V	-3.512059	0.370360	0.280799
O3	O	-3.994530	0.005233	-0.214822
O4	O	-3.494530	0.505233	0.285178
O5	O	-3.968795	-0.256095	-0.217900
O6	O	-3.468795	0.243905	0.282100
O7	O	-3.954911	-0.128083	-0.314711
O8	O	-3.454911	0.371917	0.185289
O9	O	-4.008510	-0.123665	-0.117340
O10	O	-3.508510	0.376335	0.382660
V11	V	-4.496155	-0.113456	-0.206993
V12	V	-3.996155	0.386544	0.293007
O13	O	-4.272060	-0.165141	-0.245979
O14	O	-3.772060	0.334859	0.254021
O15	O	-4.686351	-0.077955	-0.180215
O16	O	-4.186351	0.422045	0.319785
O17	O	-4.316212	0.013000	-0.208294
O18	O	-3.816212	0.513000	0.291706
O19	O	-4.631080	-0.248328	-0.211372
O20	O	-4.131080	0.251672	0.288628
O21	O	-4.617100	-0.119430	-0.308854
O22	O	-4.117100	0.380570	0.191146
O23	O	-4.330097	-0.115012	-0.111483
O24	O	-3.830097	0.384988	0.388517
C25	C	-3.815328	-0.286909	-0.214493
C26	C	-3.315328	0.213091	0.285507
C27	C	-3.861183	-0.390291	-0.214066
C28	C	-3.361183	0.109709	0.285934
C29	C	-3.898417	-0.474247	-0.213712
C30	C	-3.398417	0.025753	0.286288
C31	C	-3.945148	-0.579575	-0.213272
C32	C	-3.445148	-0.079575	0.286728
C33	C	-3.982409	-0.663525	-0.212922
C34	C	-3.482409	-0.163525	0.287078
C35	C	-4.029143	-0.768860	-0.212481
C36	C	-3.529143	-0.268860	0.287519
C37	C	-3.797617	-0.123615	-0.337985
C38	C	-3.297617	0.376385	0.162015
C39	C	-3.832209	-0.123179	-0.416066
C40	C	-3.332209	0.376821	0.083934
C41	C	-4.030433	-0.127642	-0.456330
C42	C	-3.530433	0.372358	0.043670
C43	C	-4.062936	-0.127232	-0.529697
C44	C	-3.562936	0.372768	-0.029697
C45	C	-3.897215	-0.122378	-0.562798
C46	C	-3.397215	0.377622	-0.062798
C47	C	-3.698961	-0.117909	-0.522524
C48	C	-3.198961	0.382091	-0.022524
C49	C	-3.666458	-0.118309	-0.449158
C50	C	-3.166458	0.381691	0.050842
N51	N	-3.839466	-0.171491	-0.681664
N52	N	-3.339466	0.328509	-0.181664
N53	N	-3.870356	-0.171113	-0.751358
N54	N	-3.370356	0.328887	-0.251358
C55	C	-3.995132	-0.121169	-0.783844
C56	C	-3.495132	0.378831	-0.283844
N57	N	-4.087888	-0.071630	-0.744005
N58	N	-3.587888	0.428370	-0.244005
N59	N	-4.057003	-0.072012	-0.674304
N60	N	-3.557003	0.427988	-0.174304
C61	C	-3.932438	-0.121942	-0.642350
C62	C	-3.432438	0.378058	-0.142350
C63	C	-4.228611	-0.125187	-0.903660
C64	C	-3.728611	0.374813	-0.403660
C65	C	-4.261105	-0.124771	-0.977027
C66	C	-3.761105	0.375229	-0.477027
C67	C	-3.897129	-0.115457	-0.969854
C68	C	-3.397129	0.384543	-0.469854
C69	C	-3.864636	-0.115863	-0.896488
C70	C	-3.364636	0.384137	-0.396488
C71	C	-4.030387	-0.120733	-0.863396
C72	C	-3.530387	0.379267	-0.363396
C73	C	-4.133021	0.043809	-0.211699
C74	C	-3.633021	0.543809	0.288301
C75	C	-4.066404	0.147190	-0.212131
C76	C	-3.566404	0.647190	0.287869
C77	C	-4.150733	-0.119483	-0.088206
C78	C	-3.650733	0.380517	0.411794
C79	C	-4.095379	-0.119915	-0.010123
C80	C	-3.595379	0.380085	0.489877
H81	H	-4.224361	-0.130871	-0.562487
H82	H	-3.724361	0.369129	-0.062487
O83	O	-4.453820	-0.129147	-1.016041
O84	O	-3.953820	0.370853	-0.516041
C85	C	-4.593119	-0.133505	-0.971094
C86	C	-4.093119	0.366495	-0.471094
H87	H	-4.531437	-0.162027	-0.921277
H88	H	-4.031437	0.337973	-0.421277
H89	H	-4.608028	-0.059987	-0.955448
H90	H	-4.108028	0.440013	-0.455448
C91	C	-4.884221	-0.164020	-1.071615
C92	C	-4.384221	0.335980	-0.571615
C93	C	-4.808472	-0.199058	-1.010430
C94	C	-4.308472	0.300942	-0.510430
H95	H	-5.017064	-0.204452	-1.095879
H96	H	-4.517064	0.295548	-0.595879
H97	H	-4.790374	-0.161080	-1.101897
H98	H	-4.290374	0.338920	-0.601897
H99	H	-4.896629	-0.102755	-1.058567
H100	H	-4.396629	0.397245	-0.558567
H101	H	-4.796041	-0.260316	-1.023479
H102	H	-4.296041	0.239684	-0.523479
H103	H	-4.902323	-0.202009	-0.980151
H104	H	-4.402323	0.297991	-0.480151
H105	H	-3.762190	-0.111496	-0.996803
H106	H	-3.262190	0.388504	-0.496803
H107	H	-4.363574	-0.129148	-0.876715
H108	H	-3.863574	0.370852	-0.376715
H109	H	-3.703227	-0.112239	-0.863705
H110	H	-3.203227	0.387761	-0.363705
H111	H	-4.165402	-0.131603	-0.429392
H112	H	-3.665402	0.368397	0.070608
H113	H	-3.564030	-0.113953	-0.549479
H114	H	-3.064030	0.386047	-0.049479
O115	O	-3.473881	-0.113847	-0.409985
O116	O	-2.973881	0.386153	0.090015
C117	C	-3.403594	-0.032872	-0.357651
C118	C	-2.903594	0.467128	0.142349
H119	H	-3.488203	0.021225	-0.375041
H120	H	-2.988203	0.521225	0.124959
H121	H	-3.437108	-0.052747	-0.305207
H122	H	-2.937108	0.447253	0.194793
C123	C	-3.063333	-0.057093	-0.326475
C124	C	-2.563333	0.442907	0.173525
C125	C	-3.167239	0.009354	-0.347838
C126	C	-2.667239	0.509354	0.152162
H127	H	-2.917537	-0.031047	-0.320419
H128	H	-2.417537	0.468953	0.179581
H129	H	-3.110687	-0.111649	-0.361732
H130	H	-2.610687	0.388351	0.138268
H131	H	-3.091283	-0.073649	-0.282774
H132	H	-2.591283	0.426351	0.217226
H133	H	-3.139309	0.025900	-0.391542
H134	H	-2.639309	0.525900	0.108458
H135	H	-3.119874	0.063914	-0.312588
H136	H	-2.619874	0.563914	0.187412
