data_functionalizedCrystal
_audit_creation_method	'MofGen! by Chris Wilmer'
_symmetry_space_group_name_H-M	'P1'
_symmetry_Int_Tables_number	1
_symmetry_cell_setting	triclinic
loop_
_symmetry_equiv_pos_as_xyz
  x,y,z
_cell_length_a	11.026623
_cell_length_b	13.101039
_cell_length_c	11.026607
_cell_angle_alpha	85.898113
_cell_angle_beta	71.413640
_cell_angle_gamma	85.902597
loop_
_atom_site_label
_atom_site_type_symbol
_atom_site_fract_x
_atom_site_fract_y
_atom_site_fract_z
O1	O	-1.732208	0.085215	0.528133
O2	O	-1.232208	0.585215	1.028133
O3	O	-1.365628	0.085216	0.467367
O4	O	-0.865628	0.585216	0.967367
O5	O	-1.518536	0.085211	0.314460
O6	O	-1.018536	0.585211	0.814460
O7	O	-1.579300	0.085219	0.681040
O8	O	-1.079300	0.585219	1.181040
O9	O	-1.507570	-0.085218	0.325454
O10	O	-1.007570	0.414782	0.825454
O11	O	-1.354662	-0.085214	0.478361
O12	O	-0.854662	0.414786	0.978361
O13	O	-1.721242	-0.085215	0.539127
O14	O	-1.221242	0.414785	1.039127
Zn15	Zn	-1.536211	-0.112274	0.510489
Zn16	Zn	-1.036211	0.387726	1.010489
Zn17	Zn	-1.550659	0.112274	0.496004
Zn18	Zn	-1.050659	0.612274	0.996004
O19	O	-1.568334	-0.085211	0.692034
O20	O	-1.068334	0.414789	1.192034
C21	C	-1.312485	0.000001	0.461654
C22	C	-0.812485	0.500001	0.961654
C23	C	-1.170472	0.000002	0.428236
C24	C	-0.670472	0.500002	0.928236
C25	C	-1.116822	0.000004	0.520505
C26	C	-0.616822	0.500004	1.020505
C27	C	-0.970044	0.000004	0.485968
C28	C	-0.470044	0.500004	0.985968
N29	N	-1.526360	-0.265522	0.520376
N30	N	-1.026360	0.234478	1.020376
C31	C	-1.512959	-0.474564	0.533840
C32	C	-1.012959	0.025436	1.033840
C33	C	-1.573916	-0.525442	0.472649
C34	C	-1.073916	-0.025442	0.972649
C35	C	-1.566459	-0.641760	0.480140
C36	C	-1.066459	-0.141760	0.980140
C37	C	-1.520414	-0.358236	0.526350
C38	C	-1.020414	0.141764	1.026350
C39	C	-0.774385	0.000001	0.544838
C40	C	-0.274385	0.500001	1.044838
C41	C	-0.916399	0.000007	0.578251
C42	C	-0.416399	0.500007	1.078251
C43	C	-1.501843	-0.000002	0.272297
C44	C	-1.001843	0.499998	0.772297
C45	C	-1.468427	0.000002	0.130283
C46	C	-0.968427	0.500002	0.630283
N47	N	-1.560518	0.265523	0.486109
N48	N	-1.060518	0.765523	0.986109
C49	C	-1.560696	0.000003	0.076634
C50	C	-1.060696	0.500003	0.576634
C51	C	-1.526161	0.000007	-0.070145
C52	C	-1.026161	0.500007	0.429855
C53	C	-1.585027	0.000005	0.734196
C54	C	-1.085027	0.500005	1.234196
C55	C	-1.618444	0.000008	0.876210
C56	C	-1.118444	0.500008	1.376210
H57	H	-1.179555	0.000000	0.625068
H58	H	-0.679555	0.500000	1.125068
H59	H	-1.665259	-0.000004	0.139368
H60	H	-1.165259	0.499996	0.639368
H61	H	-0.979126	0.000002	0.682822
H62	H	-0.479126	0.500002	1.182822
H63	H	-1.631703	-0.481641	0.414637
H64	H	-1.131703	0.018359	0.914637
H65	H	-1.421592	0.000014	-0.132876
H66	H	-0.921592	0.500014	0.367124
H67	H	-0.907316	0.000028	0.381396
H68	H	-0.407316	0.500028	0.881396
Br69	Br	-1.792738	0.000016	-0.019250
Br70	Br	-1.292738	0.500016	0.480750
Br71	Br	-1.065924	-0.000014	0.253951
Br72	Br	-0.565924	0.499986	0.753951
H73	H	-1.455178	-0.518360	0.591850
H74	H	-0.955178	-0.018360	1.091850
H75	H	-1.363864	0.000009	0.067548
H76	H	-0.863864	0.500009	0.567548
