data_functionalizedCrystal
_audit_creation_method	'MofGen! by Chris Wilmer'
_symmetry_space_group_name_H-M	'P1'
_symmetry_Int_Tables_number	1
_symmetry_cell_setting	triclinic
loop_
_symmetry_equiv_pos_as_xyz
  x,y,z
_cell_length_a	17.038272
_cell_length_b	16.992695
_cell_length_c	15.455313
_cell_angle_alpha	87.152573
_cell_angle_beta	92.868682
_cell_angle_gamma	90.889890
loop_
_atom_site_label
_atom_site_type_symbol
_atom_site_fract_x
_atom_site_fract_y
_atom_site_fract_z
O1	O	-1.051316	-0.167773	-0.072023
O2	O	-0.823516	-0.165057	-0.072048
O3	O	-0.936503	-0.052212	-0.072029
O4	O	-0.938330	-0.280618	-0.072042
O5	O	-0.930040	-0.058636	0.072232
O6	O	-0.817053	-0.171481	0.072213
O7	O	-1.044853	-0.174197	0.072238
Cu8	Cu	-0.930363	-0.173426	0.085398
Cu9	Cu	-0.938006	-0.165828	-0.085208
O10	O	-0.931867	-0.287043	0.072219
C11	C	-0.791002	-0.165800	0.000079
C12	C	-0.703747	-0.158432	0.000069
C13	C	-0.930922	-0.026055	0.000101
C14	C	-0.923911	0.061457	0.000100
C15	C	-1.077368	-0.173455	0.000109
C16	C	-1.164623	-0.180822	0.000113
C17	C	-0.657877	-0.226072	0.000066
C18	C	-0.575891	-0.219145	0.000078
C19	C	-0.539777	-0.144578	0.000088
C20	C	-0.585653	-0.076933	0.000094
C21	C	-0.667637	-0.083861	0.000088
C22	C	-0.292483	-0.120105	0.000113
C23	C	-0.210493	-0.113182	0.000116
C24	C	-0.200736	-0.255395	0.000102
C25	C	-0.282722	-0.262316	0.000091
C26	C	-0.328591	-0.194671	0.000102
C27	C	-0.455975	-0.137496	0.000098
C28	C	-0.412391	-0.201754	0.000098
C29	C	-0.937448	-0.313200	0.000087
C30	C	-0.944458	-0.400711	0.000082
N31	N	-0.924993	-0.178770	0.205392
C32	C	-0.991551	0.107185	0.000109
C33	C	-0.984960	0.189412	0.000100
C34	C	-0.910728	0.225909	0.000089
C35	C	-0.843083	0.180175	0.000078
C36	C	-0.849675	0.097950	0.000080
C37	C	-0.883406	0.471330	0.000074
C38	C	-0.876819	0.553561	0.000073
C39	C	-1.018696	0.562792	0.000094
C40	C	-1.025281	0.480565	0.000102
C41	C	-0.957637	0.434839	0.000086
N42	N	-0.903989	0.309958	0.000082
N43	N	-0.964377	0.350792	0.000087
N44	N	-0.943382	-0.160479	-0.205202
C45	C	-0.973013	-0.130849	0.250795
C46	C	-0.968959	-0.134898	0.341602
C47	C	-0.916890	-0.186872	0.387005
C48	C	-0.868865	-0.234795	0.341596
C49	C	-0.872915	-0.230741	0.250791
C50	C	-0.899407	-0.204348	0.658583
C51	C	-0.895362	-0.208399	0.749395
C52	C	-0.995456	-0.108501	0.749395
C53	C	-0.999505	-0.104456	0.658587
C54	C	-0.951477	-0.152375	0.613187
N55	N	-0.912747	-0.191014	0.479824
N56	N	-0.955617	-0.148229	0.520369
H57	H	-0.687274	-0.286792	0.000058
H58	H	-0.329819	-0.065023	0.000122
N59	N	-1.057915	0.238731	0.000119
H60	H	-1.042478	0.296358	0.000112
H61	H	-1.092444	0.228750	-0.053352
N62	N	-0.526412	-0.292104	0.000173
H63	H	-0.561729	-0.340393	0.000192
H64	H	-0.494528	-0.290002	-0.053271
H65	H	-0.426561	-0.076784	0.000130
N66	N	-0.839191	-0.264460	0.798357
H67	H	-0.800874	-0.233713	0.836046
H68	H	-0.869745	-0.303016	0.835967
H69	H	-0.312120	-0.323036	0.000073
N70	N	-1.055674	-0.048404	0.609622
H71	H	-1.050958	-0.053114	0.545207
H72	H	-1.111225	-0.061971	0.625493
N73	N	-0.546706	0.003494	0.000118
H74	H	-0.487809	-0.002380	0.000121
H75	H	-0.565555	0.035721	-0.053357
N76	N	-1.020761	-0.083219	0.390569
H77	H	-1.010294	-0.093670	0.454984
H78	H	-1.008918	-0.026042	0.374707
H79	H	-0.163381	-0.310467	0.000096
N80	N	-0.717115	-0.010907	0.000098
H81	H	-0.681799	0.037382	0.000104
H82	H	-0.753734	-0.008299	-0.053381
N83	N	-0.451341	-0.282176	0.000076
H84	H	-0.409845	-0.323980	0.000070
H85	H	-0.482758	-0.290534	0.053551
H86	H	-1.051998	0.077476	0.000123
N87	N	-1.105342	0.441193	0.000092
H88	H	-1.108847	0.404902	0.053567
H89	H	-1.147153	0.482681	0.000057
H90	H	-1.073768	0.600032	0.000105
H91	H	-1.034557	-0.069487	0.786368
N92	N	-1.029179	-0.074796	0.201827
H93	H	-1.058982	-0.045052	0.244372
H94	H	-0.998630	-0.036282	0.164161
N95	N	-0.796749	0.592925	0.000060
H96	H	-0.769283	0.578980	-0.053425
H97	H	-0.802905	0.651940	0.000098
H98	H	-0.828325	0.434109	0.000061
H99	H	-0.860302	-0.243367	0.621625
N100	N	-0.763017	0.219535	0.000060
H101	H	-0.769103	0.278563	0.000062
H102	H	-0.730797	0.200765	0.053535
H103	H	-0.826464	-0.277110	0.378569
N104	N	-0.821118	-0.282422	0.201816
H105	H	-0.787518	-0.315963	0.244356
H106	H	-0.855026	-0.317573	0.164126
N107	N	-0.776722	0.048625	0.000066
H108	H	-0.728696	0.084221	0.000059
H109	H	-0.773969	0.011928	0.053544
H110	H	-0.181092	-0.052458	0.000123
