data_functionalizedCrystal
_audit_creation_method	'MofGen! by Chris Wilmer'
_symmetry_space_group_name_H-M	'P1'
_symmetry_Int_Tables_number	1
_symmetry_cell_setting	triclinic
loop_
_symmetry_equiv_pos_as_xyz
  x,y,z
_cell_length_a	18.215407
_cell_length_b	18.215405
_cell_length_c	18.215399
_cell_angle_alpha	90.029420
_cell_angle_beta	90.017813
_cell_angle_gamma	90.018333
loop_
_atom_site_label
_atom_site_type_symbol
_atom_site_fract_x
_atom_site_fract_y
_atom_site_fract_z
Zn1	Zn	1.125077	-0.293100	0.416069
Zn2	Zn	1.625077	0.206900	0.916069
Zn3	Zn	1.124988	-0.416171	0.292999
Zn4	Zn	1.624988	0.083829	0.792999
Zn5	Zn	1.002010	-0.293111	0.293020
Zn6	Zn	1.502010	0.206889	0.793020
Zn7	Zn	1.001978	-0.416117	0.416028
Zn8	Zn	1.501978	0.083883	0.916028
O9	O	1.063513	-0.354625	0.354529
O10	O	1.563513	0.145375	0.854529
O11	O	1.228050	-0.309443	0.399751
O12	O	1.728050	0.190557	0.899751
O13	O	1.108651	-0.399874	0.190018
O14	O	1.608651	0.100126	0.690018
O15	O	1.018386	-0.190125	0.309369
O16	O	1.518386	0.309875	0.809369
O17	O	1.227984	-0.399863	0.309333
O18	O	1.727984	0.100137	0.809333
O19	O	1.108803	-0.190117	0.399772
O20	O	1.608803	0.309883	0.899772
O21	O	1.018299	-0.309462	0.190033
O22	O	1.518299	0.190538	0.690033
O23	O	0.899021	-0.309410	0.309330
O24	O	1.399021	0.190590	0.809330
O25	O	1.018332	-0.399771	0.519018
O26	O	1.518332	0.100229	1.019018
O27	O	0.898998	-0.399782	0.399703
O28	O	1.398998	0.100218	0.899703
O29	O	1.108772	-0.309391	0.519048
O30	O	1.608772	0.190609	1.019048
O31	O	1.108620	-0.519148	0.309294
O32	O	1.608620	-0.019148	0.809294
O33	O	1.018245	-0.519109	0.399683
O34	O	1.518245	-0.019109	0.899683
C35	C	0.872307	-0.354592	0.354515
C36	C	1.372307	0.145408	0.854515
C37	C	0.790508	-0.354596	0.354526
C38	C	1.290508	0.145404	0.854526
C39	C	0.525479	-0.307634	0.401685
C40	C	1.025479	0.192366	0.901685
C41	C	0.602338	-0.307622	0.401683
C42	C	1.102338	0.192378	0.901683
C43	C	0.602289	-0.401639	0.307389
C44	C	1.102289	0.098361	0.807389
C45	C	0.525431	-0.401654	0.307396
C46	C	1.025431	0.098346	0.807396
C47	C	0.487029	-0.354647	0.354543
C48	C	0.987029	0.145353	0.854543
C49	C	0.640745	-0.354620	0.354534
C50	C	1.140745	0.145380	0.854534
C51	C	0.724078	-0.354608	0.354531
C52	C	1.224078	0.145392	0.854531
C53	C	0.403690	-0.354661	0.354547
C54	C	0.903690	0.145339	0.854547
C55	C	1.063439	-0.545831	0.354498
C56	C	1.563439	-0.045831	0.854498
C57	C	1.063475	-0.627630	0.354509
C58	C	1.563475	-0.127630	0.854509
C59	C	1.110671	-0.892683	0.307542
C60	C	1.610671	-0.392683	0.807542
C61	C	1.110640	-0.815825	0.307526
C62	C	1.610640	-0.315825	0.807526
C63	C	1.016447	-0.815825	0.401566
C64	C	1.516447	-0.315825	0.901566
C65	C	1.016474	-0.892682	0.401578
C66	C	1.516474	-0.392682	0.901578
C67	C	1.063590	-0.931109	0.354568
C68	C	1.563590	-0.431109	0.854568
C69	C	1.063533	-0.777393	0.354538
C70	C	1.563533	-0.277393	0.854538
C71	C	1.063500	-0.694060	0.354520
C72	C	1.563500	-0.194060	0.854520
C73	C	1.063623	-1.014448	0.354584
C74	C	1.563623	-0.514448	0.854584
C75	C	1.255466	-0.354658	0.354544
C76	C	1.755466	0.145342	0.854544
C77	C	1.337265	-0.354672	0.354550
C78	C	1.837265	0.145328	0.854550
C79	C	1.063558	-0.354574	0.546482
C80	C	1.563558	0.145426	1.046482
C81	C	1.063577	-0.354552	0.628281
C82	C	1.563577	0.145448	1.128281
C83	C	1.063608	-0.162672	0.354577
C84	C	1.563608	0.337328	0.854577
C85	C	1.063648	-0.080873	0.354597
C86	C	1.563648	0.419127	0.854597
C87	C	1.063511	-0.354622	0.163323
C88	C	1.563511	0.145378	0.663323
C89	C	1.063635	-0.354436	0.081524
C90	C	1.563635	0.145564	0.581524
C91	C	1.110687	-0.307447	0.816492
C92	C	1.610687	0.192553	1.316492
C93	C	1.110695	-0.307426	0.893350
C94	C	1.610695	0.192574	1.393350
C95	C	1.016520	-0.401544	0.893308
C96	C	1.516520	0.098456	1.393308
C97	C	1.016508	-0.401561	0.816451
C98	C	1.516508	0.098439	1.316451
C99	C	1.063596	-0.354514	0.778045
C100	C	1.563596	0.145486	1.278045
C101	C	1.063616	-0.354475	0.931761
C102	C	1.563616	0.145525	1.431761
C103	C	1.063625	-0.354452	1.015095
C104	C	1.563625	0.145548	1.515095
C105	C	1.063586	-0.354535	0.694706
C106	C	1.563586	0.145465	1.194706
H107	H	0.494124	-0.439943	0.269006
H108	H	0.994124	0.060057	0.769006
H109	H	0.633641	-0.269339	0.440072
H110	H	1.133641	0.230661	0.940072
H111	H	1.149035	-0.923969	0.269263
H112	H	1.649035	-0.423969	0.769263
C113	C	0.644539	-0.453336	0.255522
C114	C	1.144539	0.046664	0.755522
N115	N	0.676361	-0.492271	0.216450
N116	N	1.176361	0.007729	0.716450
C117	C	0.483239	-0.255931	0.453554
C118	C	0.983239	0.244069	0.953554
N119	N	0.451425	-0.216989	0.492626
N120	N	0.951425	0.283011	0.992626
H121	H	0.978087	-0.784529	0.439842
H122	H	1.478087	-0.284529	0.939842
H123	H	1.149026	-0.269136	0.785223
H124	H	1.649026	0.230864	1.285223
H125	H	0.978185	-0.439849	0.924588
H126	H	1.478185	0.060151	1.424588
C127	C	1.162428	-0.773560	0.255789
C128	C	1.662428	-0.273560	0.755789
N129	N	1.201435	-0.741726	0.216816
N130	N	1.701435	-0.241726	0.716816
C131	C	0.964699	-0.453338	0.774157
C132	C	1.464699	0.046662	1.274157
N133	N	0.925677	-0.492333	0.742301
N134	N	1.425677	0.007667	1.242301
C135	C	0.964678	-0.934953	0.453312
C136	C	1.464678	-0.434953	0.953312
N137	N	0.925666	-0.966791	0.492275
N138	N	1.425666	-0.466791	0.992275
H139	H	1.149040	-0.269098	0.924651
H140	H	1.649040	0.230902	1.424651
