data_functionalizedCrystal
_audit_creation_method	'MofGen! by Chris Wilmer'
_symmetry_space_group_name_H-M	'P1'
_symmetry_Int_Tables_number	1
_symmetry_cell_setting	triclinic
loop_
_symmetry_equiv_pos_as_xyz
  x,y,z
_cell_length_a	23.532407
_cell_length_b	16.974800
_cell_length_c	22.610064
_cell_angle_alpha	86.351406
_cell_angle_beta	90.000603
_cell_angle_gamma	83.120189
loop_
_atom_site_label
_atom_site_type_symbol
_atom_site_fract_x
_atom_site_fract_y
_atom_site_fract_z
O1	O	0.072545	1.048579	-0.001019
O2	O	0.081798	0.818300	0.010009
O3	O	-0.005738	0.940383	0.004152
O4	O	0.160081	0.926495	0.004838
O5	O	-0.005725	0.940362	-0.094217
O6	O	0.081811	0.818279	-0.088359
O7	O	0.072558	1.048557	-0.099388
Zn8	Zn	0.077186	0.933414	-0.109491
Zn9	Zn	0.077169	0.933443	0.020113
O10	O	0.160093	0.926474	-0.093530
C11	C	0.081453	0.788834	-0.037764
C12	C	0.080401	0.701066	-0.033561
C13	C	0.079913	0.659825	-0.085209
C14	C	0.078915	0.577360	-0.081261
C15	C	0.078410	0.536135	-0.025666
C16	C	0.078897	0.577382	0.025985
C17	C	0.079891	0.659847	0.022037
C18	C	0.075435	0.289503	-0.008109
C19	C	0.074443	0.207032	-0.004164
C20	C	0.074460	0.207016	-0.111411
C21	C	0.075457	0.289481	-0.115354
C22	C	0.075940	0.330722	-0.063703
N23	N	0.077393	0.451842	-0.021630
N24	N	0.076954	0.415014	-0.067740
C25	C	-0.026948	0.940019	-0.045017
C26	C	-0.090169	0.938956	-0.044971
C27	C	-0.489058	1.004533	-0.048079
C28	C	-0.548462	1.003545	-0.048027
O29	O	-0.585008	1.064336	-0.050917
N30	N	-0.571324	0.930967	-0.044552
C31	C	-0.534780	0.859371	-0.041122
O32	O	-0.559681	0.797547	-0.038160
C33	C	-0.475378	0.860360	-0.041169
C34	C	-0.452519	0.932943	-0.044651
C35	C	-0.466198	1.077110	-0.051560
C36	C	-0.406799	1.078097	-0.051613
C37	C	-0.370259	1.006508	-0.048185
C38	C	-0.393119	0.933930	-0.044704
C39	C	-0.438835	0.788765	-0.037735
C40	C	-0.379429	0.789760	-0.037783
C41	C	-0.356570	0.862343	-0.041264
C42	C	-0.297180	0.863328	-0.041329
N43	N	-0.274318	0.935906	-0.044804
C44	C	-0.310857	1.007496	-0.048232
C45	C	-0.659530	0.857301	-0.041021
C46	C	-0.718931	0.856311	-0.040978
C47	C	-0.732608	1.000485	-0.047882
C48	C	-0.673206	1.001474	-0.047930
C49	C	-0.636667	0.929879	-0.044496
C50	C	-0.186114	1.009564	-0.048344
C51	C	-0.126708	1.010546	-0.048399
C52	C	-0.113036	0.866372	-0.041491
C53	C	-0.172436	0.865390	-0.041439
C54	C	-0.208974	0.936993	-0.044864
O55	O	-0.260599	0.802569	-0.038438
O56	O	-0.285948	1.069310	-0.051186
C57	C	0.181304	0.926838	-0.044360
C58	C	0.244525	0.927902	-0.044402
C59	C	0.072902	1.078023	-0.051613
C60	C	0.073954	1.165791	-0.055812
N61	N	0.077197	0.933401	-0.197943
C62	C	0.038415	0.987504	-0.609180
C63	C	0.038411	0.987508	-0.671101
O64	O	0.005445	1.033474	-0.705325
N65	N	0.077158	0.933442	-0.699482
C66	C	0.115907	0.879364	-0.665940
O67	O	0.148864	0.833377	-0.695767
C68	C	0.115908	0.879357	-0.604021
C69	C	0.077163	0.933431	-0.575643
C70	C	-0.000328	1.041573	-0.580802
C71	C	-0.000323	1.041570	-0.518886
C72	C	0.038425	0.987497	-0.485349
C73	C	0.077168	0.933428	-0.513727
C74	C	0.154655	0.825275	-0.570480
C75	C	0.154652	0.825272	-0.508557
C76	C	0.115907	0.879347	-0.480179
C77	C	0.115921	0.879352	-0.418274
N78	N	0.077174	0.933417	-0.389892
C79	C	0.038426	0.987490	-0.423430
C80	C	0.115902	0.879382	-0.795975
C81	C	0.115904	0.879393	-0.857893
C82	C	0.038406	0.987536	-0.863049
C83	C	0.038407	0.987528	-0.801130
C84	C	0.077155	0.933448	-0.767593
C85	C	0.038439	0.987479	-0.293402
C86	C	0.038449	0.987473	-0.231480
C87	C	0.115945	0.879328	-0.226330
C88	C	0.115937	0.879336	-0.288246
C89	C	0.077180	0.933415	-0.321781
O90	O	0.148868	0.833407	-0.384011
O91	O	0.005470	1.033462	-0.393595
N92	N	0.077154	0.933463	0.108564
H93	H	0.078508	0.543787	-0.123318
H94	H	0.186205	0.781231	-0.481254
H95	H	0.075865	0.323041	-0.160626
H96	H	0.006879	1.031514	-0.320699
C97	C	-0.762577	1.123062	-0.104314
C98	C	-0.772782	1.079179	-0.051645
H99	H	-0.787383	1.171638	-0.106637
H100	H	-0.723935	1.134046	-0.104838
H101	H	-0.769503	1.093267	-0.137187
H102	H	-0.765852	1.108973	-0.018772
H103	H	-0.811434	1.068197	-0.051115
H104	H	-0.031884	1.085605	-0.608103
C105	C	0.074575	0.215284	-0.217815
C106	C	0.073922	0.161685	-0.168184
H107	H	0.074245	0.187297	-0.252865
H108	H	0.041770	0.253740	-0.217428
H109	H	0.108159	0.241156	-0.216814
H110	H	0.040336	0.135817	-0.169183
H111	H	0.106731	0.123214	-0.168572
H112	H	-0.083275	0.808085	-0.038702
C113	C	0.078983	0.585687	0.131597
C114	C	0.078345	0.532070	0.087098
H115	H	0.078641	0.557713	0.169325
H116	H	0.112562	0.611559	0.128130
H117	H	0.046172	0.624144	0.127518
H118	H	0.111159	0.493617	0.091174
H119	H	0.044763	0.506185	0.090566
H120	H	0.006855	1.031563	-0.890366
C121	C	0.074526	0.215327	0.101453
C122	C	0.073891	0.161716	0.056951
H123	H	0.074184	0.187348	0.139180
H124	H	0.108103	0.241202	0.097989
H125	H	0.041713	0.253782	0.097377
H126	H	0.106706	0.123264	0.061025
H127	H	0.040310	0.135827	0.060416
C128	C	-0.260839	1.092131	-0.001725
C129	C	-0.226270	1.088271	-0.052111
H130	H	-0.285627	1.140724	-0.004053
H131	H	-0.282961	1.048778	0.000351
H132	H	-0.237374	1.089524	0.032698
H133	H	-0.249735	1.090872	-0.086533
H134	H	-0.204147	1.131637	-0.054192
H135	H	0.075827	0.323071	0.033949
C136	C	-0.614344	1.086241	-0.001421
C137	C	-0.648079	1.081257	-0.051751
H138	H	-0.598832	1.135496	-0.003782
H139	H	-0.637235	1.082867	0.033036
H140	H	-0.584079	1.043745	0.000609
H141	H	-0.678347	1.123749	-0.053778
H142	H	-0.625187	1.084639	-0.086217
H143	H	0.147495	0.835305	-0.199014
C144	C	-0.146204	1.152960	-0.055214
C145	C	-0.101583	1.090334	-0.052221
H146	H	-0.130693	1.202215	-0.057569
H147	H	-0.169089	1.149569	-0.089351
H148	H	-0.169087	1.149573	-0.020744
H149	H	-0.078703	1.093718	-0.086693
H150	H	-0.078689	1.093727	-0.018080
H151	H	0.080290	0.693424	0.064094
C152	C	0.079821	0.651519	-0.190820
C153	C	0.080465	0.705136	-0.146322
H154	H	0.080156	0.679493	-0.228549
H155	H	0.112626	0.613065	-0.186746
H156	H	0.046237	0.625647	-0.187348
H157	H	0.114051	0.731004	-0.149791
H158	H	0.047656	0.743604	-0.150398
C159	C	-0.426303	1.220503	-0.058426
C160	C	-0.381678	1.157884	-0.055432
H161	H	-0.410796	1.269761	-0.060779
H162	H	-0.449185	1.217109	-0.092565
H163	H	-0.449187	1.217111	-0.023958
H164	H	-0.358796	1.161272	-0.089903
H165	H	-0.358786	1.161279	-0.021290
C166	C	-0.540932	1.159635	-0.106080
C167	C	-0.506359	1.155809	-0.055329
H168	H	-0.565725	1.208222	-0.108407
H169	H	-0.517472	1.157012	-0.140251
H170	H	-0.563052	1.116272	-0.103995
H171	H	-0.484236	1.199170	-0.057416
H172	H	-0.529822	1.158440	-0.021150
H173	H	-0.737537	0.797207	-0.038153
C174	C	-0.651986	0.714690	-0.034201
C175	C	-0.619368	0.778596	-0.037258
H176	H	-0.627193	0.666103	-0.031882
H177	H	-0.675437	0.717312	-0.000024
H178	H	-0.675443	0.717310	-0.068631
H179	H	-0.595914	0.775979	-0.002826
H180	H	-0.595907	0.775973	-0.071439
H181	H	-0.457436	0.729661	-0.034896
H182	H	-0.349681	0.731458	-0.034986
H183	H	-0.191049	0.806287	-0.038621
C184	C	-0.038158	1.094368	-0.242806
C185	C	-0.004146	1.046912	-0.200288
H186	H	-0.064456	1.131057	-0.223549
H187	H	-0.014464	1.122620	-0.268305
H188	H	-0.058629	1.061609	-0.265392
H189	H	0.016329	1.079671	-0.177705
H190	H	-0.027843	1.018658	-0.174779
H191	H	-0.031875	1.085599	-0.495784
H192	H	0.006857	1.031560	-0.778028
C193	C	0.192505	0.772498	-0.846561
C194	C	0.158498	0.819956	-0.889082
H195	H	0.218796	0.735798	-0.865816
H196	H	0.212978	0.805248	-0.823979
H197	H	0.168802	0.744251	-0.821059
H198	H	0.182200	0.848208	-0.914582
H199	H	0.138023	0.787202	-0.911675
C200	C	0.193428	0.861601	-0.725501
C201	C	0.158505	0.819942	-0.759113
H202	H	0.219726	0.824904	-0.702744
H203	H	0.213894	0.894351	-0.751220
H204	H	0.170348	0.893791	-0.699734
H205	H	0.181584	0.787756	-0.784883
H206	H	0.138038	0.787179	-0.733391
H207	H	0.186205	0.781243	-0.593577
C208	C	0.192534	0.772432	-0.276926
C209	C	0.158524	0.819895	-0.319443
H210	H	0.218819	0.735727	-0.296184
H211	H	0.213014	0.805179	-0.254349
H212	H	0.168832	0.744192	-0.251418
H213	H	0.182225	0.848140	-0.344948
H214	H	0.138042	0.787144	-0.342030
