data_functionalizedCrystal
_audit_creation_method	'MofGen! by Chris Wilmer'
_symmetry_space_group_name_H-M	'P1'
_symmetry_Int_Tables_number	1
_symmetry_cell_setting	triclinic
loop_
_symmetry_equiv_pos_as_xyz
  x,y,z
_cell_length_a	6.817900
_cell_length_b	11.168129
_cell_length_c	14.858572
_cell_angle_alpha	93.498200
_cell_angle_beta	104.524003
_cell_angle_gamma	108.508637
loop_
_atom_site_label
_atom_site_type_symbol
_atom_site_fract_x
_atom_site_fract_y
_atom_site_fract_z
V1	V	-4.064039	-0.175499	-0.289968
V2	V	-3.564039	0.324501	0.210032
O3	O	-4.024496	0.007616	-0.284440
O4	O	-3.524496	0.507616	0.215560
O5	O	-4.040640	-0.347199	-0.287993
O6	O	-3.540640	0.152801	0.212007
O7	O	-4.020336	-0.173159	-0.416430
O8	O	-3.520336	0.326841	0.083570
O9	O	-4.044941	-0.167630	-0.155114
O10	O	-3.544941	0.332370	0.344886
V11	V	-4.543819	-0.153554	-0.273838
V12	V	-4.043819	0.346446	0.226162
O13	O	-4.333508	-0.223638	-0.325352
O14	O	-3.833508	0.276362	0.174648
O15	O	-4.724546	-0.105416	-0.238454
O16	O	-4.224546	0.394584	0.261546
O17	O	-4.344011	0.018146	-0.275813
O18	O	-3.844011	0.518146	0.224187
O19	O	-4.700758	-0.336669	-0.279366
O20	O	-4.200758	0.163331	0.220634
O21	O	-4.680314	-0.161424	-0.408692
O22	O	-4.180314	0.338576	0.091308
O23	O	-4.364315	-0.155895	-0.147376
O24	O	-3.864315	0.344105	0.352624
C25	C	-3.891571	-0.389045	-0.283421
C26	C	-3.391571	0.110955	0.216579
C27	C	-3.953757	-0.529414	-0.282649
C28	C	-3.453757	-0.029414	0.217351
C29	C	-3.937465	-0.574637	-0.201368
C30	C	-3.437465	-0.074637	0.298632
C31	C	-4.001737	-0.719716	-0.200568
C32	C	-3.501737	-0.219716	0.299432
C33	C	-3.865670	-0.167037	-0.447253
C34	C	-3.365670	0.332963	0.052747
C35	C	-3.911387	-0.166259	-0.550636
C36	C	-3.411387	0.333741	-0.050636
C37	C	-4.078712	-0.163417	-0.929204
C38	C	-3.578712	0.336583	-0.429204
C39	C	-4.032149	-0.164208	-0.823875
C40	C	-3.532149	0.335792	-0.323875
C41	C	-3.995051	-0.164839	-0.739924
C42	C	-3.495051	0.335161	-0.239924
C43	C	-3.948484	-0.165628	-0.634588
C44	C	-3.448484	0.334372	-0.134588
C45	C	-4.156423	0.059985	-0.280383
C46	C	-3.656423	0.559985	0.219617
C47	C	-4.073475	0.200353	-0.281161
C48	C	-3.573475	0.700353	0.218839
C49	C	-4.182324	-0.162021	-0.116548
C50	C	-3.682324	0.337979	0.383452
C51	C	-4.115845	-0.162792	-0.013164
C52	C	-3.615845	0.337208	0.486836
H53	H	-3.875945	-0.505949	-0.132373
H54	H	-3.375945	-0.005949	0.367627
N55	N	-4.030927	-0.615590	-0.369198
N56	N	-3.530927	-0.115590	0.130802
N57	N	-3.932139	-0.688299	-0.384131
N58	N	-3.432139	-0.188299	0.115869
H59	H	-3.986639	-0.749161	-0.445259
H60	H	-3.486639	-0.249161	0.054741
N61	N	-3.984355	-0.768595	-0.113272
N62	N	-3.484355	-0.268595	0.386728
N63	N	-4.036581	-0.886378	-0.112746
N64	N	-3.536581	-0.386378	0.387254
H65	H	-4.024304	-0.920903	-0.051091
H66	H	-3.524304	-0.420903	0.448909
N67	N	-4.090888	-0.750819	-0.368477
N68	N	-3.590888	-0.250819	0.131523
N69	N	-4.158314	-0.825905	-0.444246
N70	N	-3.658314	-0.325905	0.055754
H71	H	-4.170612	-0.791414	-0.505914
H72	H	-3.670612	-0.291414	-0.005914
