data_functionalizedCrystal
_audit_creation_method	'MofGen! by Chris Wilmer'
_symmetry_space_group_name_H-M	'P1'
_symmetry_Int_Tables_number	1
_symmetry_cell_setting	triclinic
loop_
_symmetry_equiv_pos_as_xyz
  x,y,z
_cell_length_a	16.120490
_cell_length_b	16.120531
_cell_length_c	18.215399
_cell_angle_alpha	92.866294
_cell_angle_beta	92.915256
_cell_angle_gamma	89.829344
loop_
_atom_site_label
_atom_site_type_symbol
_atom_site_fract_x
_atom_site_fract_y
_atom_site_fract_z
Zn1	Zn	1.254427	0.395681	0.489841
Zn2	Zn	1.247254	0.534738	0.372666
Zn3	Zn	1.115368	0.388638	0.360261
Zn4	Zn	1.108264	0.527625	0.489163
O5	O	1.181328	0.461670	0.427983
O6	O	1.369841	0.420051	0.479774
O7	O	1.229731	0.515387	0.268036
O8	O	1.139789	0.273210	0.372542
O9	O	1.364571	0.522215	0.393685
O10	O	1.241956	0.278384	0.467744
O11	O	1.132834	0.408048	0.258922
O12	O	0.998060	0.401151	0.371884
O13	O	1.127681	0.510093	0.592237
O14	O	0.992841	0.503264	0.466588
O15	O	1.235067	0.413154	0.592736
O16	O	1.222842	0.650156	0.393028
O17	O	1.120726	0.644931	0.478617
C18	C	0.965279	0.450672	0.417817
C19	C	0.872851	0.445987	0.413486
C20	C	0.659876	0.485966	0.450448
C21	C	0.703628	0.437441	0.405579
C22	C	0.797792	0.442198	0.409980
C23	C	0.565703	0.481211	0.446048
C24	C	1.170257	0.677716	0.437112
C25	C	1.165597	0.770145	0.441046
C26	C	1.157094	0.939375	0.448243
C27	C	1.205594	0.983127	0.407682
C28	C	1.200862	1.077292	0.411687
C29	C	1.161824	0.845201	0.444239
C30	C	1.398221	0.472712	0.438189
C31	C	1.490648	0.477417	0.442538
C32	C	1.181382	0.461616	0.619936
C33	C	1.181405	0.461592	0.701735
C34	C	1.192435	1.244781	0.418820
C35	C	1.197093	1.152352	0.414877
C36	C	1.181326	0.461667	0.236776
C37	C	1.181476	0.461465	0.154976
C38	C	1.237342	0.411068	0.890188
C39	C	1.237353	0.411044	0.967046
C40	C	1.125533	0.511992	0.966516
C41	C	1.125518	0.512010	0.889659
C42	C	1.181427	0.461550	0.851497
C43	C	1.181453	0.461507	1.005213
C44	C	1.181465	0.461482	1.088546
C45	C	1.181415	0.461574	0.768159
H46	H	0.670366	0.392326	0.363859
O47	O	1.103206	0.978951	0.493207
C48	C	1.021375	0.953693	0.472270
H49	H	1.022777	0.890536	0.441272
H50	H	0.990988	1.001189	0.435131
C51	C	0.969418	1.024829	0.579511
C52	C	0.971140	0.947255	0.541445
H53	H	0.938429	1.020861	0.622181
H54	H	1.024549	1.041848	0.593617
H55	H	0.944098	1.064401	0.548555
H56	H	0.996469	0.907687	0.572399
H57	H	0.916012	0.930229	0.527347
H58	H	0.693136	0.531078	0.492163
O59	O	1.259482	0.943494	0.362747
C60	C	1.341315	0.968780	0.383647
H61	H	1.344308	0.992883	0.443634
H62	H	1.360594	1.020237	0.347328
C63	C	1.396941	0.864726	0.300828
C64	C	1.400619	0.894324	0.374507
H65	H	1.433524	0.818800	0.295187
H66	H	1.341809	0.847692	0.286745
H67	H	1.413005	0.907614	0.270570
H68	H	1.384545	0.851439	0.404762
H69	H	1.455750	0.911349	0.388595
H70	H	1.282865	0.369977	0.859119
H71	H	1.282883	0.369935	0.998545
O72	O	1.071309	0.560988	1.003705
C73	C	1.083297	0.550133	1.079837
H74	H	1.148870	0.526163	1.092211
H75	H	1.036250	0.503337	1.097458
C76	C	0.990828	0.663312	1.107285
C77	C	1.071369	0.633878	1.122483
H78	H	0.983467	0.714968	1.133592
H79	H	0.982748	0.670624	1.055993
H80	H	0.951631	0.624308	1.121969
H81	H	1.110563	0.672877	1.107791
H82	H	1.079455	0.626575	1.173774
H83	H	1.079980	0.553118	0.858156
