data_functionalizedCrystal
_audit_creation_method	'MofGen! by Chris Wilmer'
_symmetry_space_group_name_H-M	'P1'
_symmetry_Int_Tables_number	1
_symmetry_cell_setting	triclinic
loop_
_symmetry_equiv_pos_as_xyz
  x,y,z
_cell_length_a	10.654550
_cell_length_b	16.776229
_cell_length_c	10.654550
_cell_angle_alpha	90.006473
_cell_angle_beta	84.484931
_cell_angle_gamma	90.003878
loop_
_atom_site_label
_atom_site_type_symbol
_atom_site_fract_x
_atom_site_fract_y
_atom_site_fract_z
O1	O	1.667846	0.066228	0.176402
O2	O	1.302367	0.066243	0.193208
O3	O	1.493509	0.066230	0.002066
O4	O	1.476703	0.066241	0.367544
O5	O	1.493484	-0.066346	0.002054
O6	O	1.302342	-0.066333	0.193196
O7	O	1.667820	-0.066348	0.176390
Zn8	Zn	1.485077	-0.087390	0.184791
Zn9	Zn	1.485111	0.087285	0.184807
O10	O	1.476678	-0.066335	0.367532
C11	C	1.255556	-0.000043	0.191968
C12	C	1.116113	-0.000038	0.188276
N13	N	1.485063	-0.206601	0.184779
C14	C	1.036628	-0.000037	0.300818
C15	C	0.905607	-0.000051	0.297341
C16	C	0.933570	-0.000063	0.068772
C17	C	1.064588	-0.000055	0.072250
C18	C	1.569727	-0.248324	0.100177
C19	C	1.569734	-0.331776	0.100176
C20	C	1.485082	-0.373504	0.184785
C21	C	1.400409	-0.331776	0.269391
C22	C	1.400396	-0.248325	0.269385
C23	C	1.400454	-0.668323	0.269416
C24	C	1.400475	-0.751779	0.269418
C25	C	1.569792	-0.751774	0.100207
C26	C	1.569779	-0.668323	0.100201
C27	C	1.485102	-0.626602	0.184803
C28	C	1.485094	-0.536114	0.184801
C29	C	1.485095	-0.463991	0.184793
C30	C	1.714631	-0.000060	0.177630
C31	C	1.854074	-0.000060	0.181322
C32	C	1.492263	-0.000057	-0.044738
C33	C	1.488571	-0.000056	-0.184181
N34	N	1.485134	0.206496	0.184809
C35	C	1.601112	-0.000060	-0.263667
C36	C	1.597636	-0.000050	-0.394688
C37	C	1.369066	-0.000035	-0.366725
C38	C	1.372544	-0.000040	-0.235706
C39	C	1.477925	-0.000046	0.414336
C40	C	1.481616	-0.000042	0.553779
H41	H	0.840894	-0.000052	0.388984
H42	H	1.689279	-0.000052	-0.459401
H43	H	1.274601	-0.000024	-0.408693
O44	O	1.713738	0.000039	-0.213465
C45	C	1.722613	0.068709	-0.138525
H46	H	1.623913	0.091602	-0.106752
H47	H	1.773425	0.053262	-0.052314
H48	H	1.777676	0.116789	-0.195907
O49	O	1.263096	-0.000071	-0.158665
C50	C	1.159943	-0.000043	-0.232234
H51	H	1.190954	-0.025143	-0.329733
H52	H	1.081011	-0.038528	-0.184602
H53	H	1.124451	0.063564	-0.241855
H54	H	1.638666	-0.214355	0.031284
H55	H	0.891602	-0.000082	-0.025693
H56	H	1.331477	-0.365755	0.338277
H57	H	1.331453	-0.214355	0.338275
H58	H	1.129309	-0.000058	-0.019401
O59	O	1.086473	-0.000062	0.413628
C60	C	0.988215	-0.000045	0.512213
H61	H	0.898922	-0.025152	0.476226
H62	H	1.016292	-0.038531	0.593144
H63	H	0.969976	0.063558	0.546989
O64	O	1.651938	-0.372213	0.017830
C65	C	1.630446	-0.351849	-0.106695
H66	H	1.582020	-0.291267	-0.106998
H67	H	1.724320	-0.348982	-0.167650
H68	H	1.567622	-0.398830	-0.146130
O69	O	1.652056	-0.627913	0.017891
C70	C	1.726806	-0.682635	-0.056765
H71	H	1.675317	-0.742128	-0.058657
H72	H	1.745090	-0.658531	-0.156888
H73	H	1.820456	-0.691494	-0.015119
H74	H	1.638737	-0.785752	0.031316
H75	H	1.331537	-0.785753	0.338319
H76	H	1.331510	-0.634360	0.338304
