data_functionalizedCrystal
_audit_creation_method	'MofGen! by Chris Wilmer'
_symmetry_space_group_name_H-M	'P1'
_symmetry_Int_Tables_number	1
_symmetry_cell_setting	triclinic
loop_
_symmetry_equiv_pos_as_xyz
  x,y,z
_cell_length_a	19.077105
_cell_length_b	12.759394
_cell_length_c	19.076919
_cell_angle_alpha	92.274121
_cell_angle_beta	90.076224
_cell_angle_gamma	87.711291
loop_
_atom_site_label
_atom_site_type_symbol
_atom_site_fract_x
_atom_site_fract_y
_atom_site_fract_z
Zn1	Zn	1.058327	-0.508276	-0.440432
Zn2	Zn	1.062986	-0.677203	-0.322930
Zn3	Zn	0.945543	-0.494202	-0.318225
Zn4	Zn	0.940807	-0.676569	-0.435682
O5	O	1.001916	-0.589062	-0.379317
O6	O	1.157277	-0.536840	-0.428802
O7	O	1.051338	-0.647302	-0.223974
O8	O	0.960536	-0.349050	-0.334454
O9	O	1.160700	-0.660950	-0.342473
O10	O	1.043398	-0.359391	-0.424239
O11	O	0.965054	-0.512852	-0.220517
O12	O	0.846582	-0.512238	-0.329849
O13	O	0.952465	-0.659870	-0.534644
O14	O	0.843103	-0.646222	-0.416144
O15	O	1.038806	-0.536225	-0.538133
O16	O	1.046746	-0.824137	-0.337868
O17	O	0.956982	-0.823671	-0.420707
C18	C	0.819346	-0.577635	-0.371971
C19	C	0.741242	-0.572772	-0.368845
C20	C	0.702757	-0.640344	-0.412235
C21	C	0.629370	-0.635761	-0.409302
C22	C	0.594467	-0.563612	-0.362974
C23	C	0.632957	-0.496033	-0.319582
C24	C	0.706343	-0.500611	-0.322520
C25	C	0.375178	-0.542424	-0.349381
C26	C	0.301786	-0.537853	-0.346444
C27	C	0.298204	-0.677581	-0.436166
C28	C	0.371592	-0.682157	-0.439096
C29	C	0.410075	-0.614574	-0.395707
N30	N	0.519453	-0.558928	-0.359972
N31	N	0.485088	-0.619253	-0.398713
C32	C	1.001874	-0.862026	-0.379298
C33	C	1.001920	-0.978807	-0.379316
C34	C	1.095456	-0.979246	-0.293126
C35	C	1.142242	-1.034328	-0.250040
C36	C	1.142282	-1.144054	-0.250061
C37	C	1.095533	-1.198699	-0.293174
C38	C	1.048747	-1.143617	-0.336260
C39	C	1.048710	-1.033889	-0.336233
C40	C	0.955216	-1.143178	-0.422453
C41	C	0.955171	-1.033453	-0.422429
C42	C	0.908467	-1.197824	-0.465566
C43	C	0.861676	-1.142741	-0.508649
C44	C	0.861637	-1.033009	-0.508626
C45	C	0.908385	-0.978370	-0.465515
C46	C	1.185198	-0.600535	-0.386692
C47	C	1.263302	-0.605424	-0.389835
C48	C	0.994587	-0.599547	-0.562597
C49	C	0.991465	-0.604015	-0.640701
C50	C	1.001976	-0.315035	-0.379352
C51	C	1.002002	-0.198260	-0.379367
C52	C	1.034948	-0.541742	-0.679212
C53	C	1.032006	-0.545935	-0.752598
C54	C	0.985582	-0.612408	-0.787471
C55	C	0.942093	-0.674683	-0.748955
C56	C	0.945033	-0.670484	-0.675570
C57	C	0.971966	-0.631866	-1.006753
C58	C	0.969031	-0.636063	-1.080143
C59	C	1.058943	-0.507313	-1.083780
C60	C	1.061881	-0.503124	-1.010394
C61	C	1.018390	-0.565395	-0.971884
N62	N	0.982574	-0.616698	-0.862484
N63	N	1.021395	-0.561098	-0.896873
C64	C	1.009256	-0.578545	-0.196751
C65	C	1.012515	-0.573790	-0.118654
H66	H	0.273371	-0.479088	-0.308723
H67	H	1.072754	-0.487616	-0.650823
O68	O	1.106994	-0.438457	-0.976629
C69	C	1.144756	-0.384410	-1.026358
H70	H	1.113881	-0.381961	-1.077510
H71	H	1.197803	-0.426672	-1.036309
C72	C	1.193979	-0.274599	-0.935314
C73	C	1.156054	-0.271584	-0.998137
H74	H	1.200952	-0.205004	-0.917906
H75	H	1.168540	-0.311014	-0.901810
H76	H	1.238180	-0.309822	-0.943614
H77	H	1.111851	-0.236373	-0.989834
H78	H	1.181486	-0.235160	-1.031639
H79	H	1.067416	-0.495228	-0.783950
H80	H	0.909617	-0.721182	-0.644215
H81	H	1.094350	-0.456614	-1.115143
O82	O	1.187754	-1.197401	-0.208143
C83	C	1.229022	-1.125650	-0.170102
H84	H	1.200316	-1.045528	-0.166471
H85	H	1.281337	-1.118710	-0.198017
C86	C	1.277464	-1.263286	-0.100202
C87	C	1.242204	-1.164880	-0.095737
H88	H	1.285598	-1.287486	-0.054332
H89	H	1.249663	-1.311627	-0.125833
H90	H	1.321056	-1.257490	-0.123467
H91	H	1.198610	-1.170680	-0.072480
H92	H	1.269998	-1.116540	-0.070101
H93	H	1.180306	-0.989826	-0.214939
O94	O	0.924026	-0.700746	-1.114059
C95	C	0.962312	-0.773523	-1.158126
H96	H	1.018537	-0.782232	-1.138235
H97	H	0.962522	-0.744363	-1.213842
C98	C	0.858842	-0.869947	-1.182298
C99	C	0.927897	-0.880651	-1.157864
H100	H	0.837612	-0.936028	-1.182139
H101	H	0.833047	-0.820915	-1.152612
H102	H	0.859027	-0.845645	-1.228726
H103	H	0.927710	-0.904940	-1.111434
H104	H	0.953691	-0.929690	-1.187542
O105	O	0.412448	-0.476732	-0.307164
C106	C	0.365902	-0.412055	-0.265658
H107	H	0.313686	-0.451686	-0.261077
H108	H	0.357073	-0.333319	-0.291176
C109	C	0.461651	-0.345555	-0.197663
C110	C	0.397521	-0.394235	-0.192032
H111	H	0.481155	-0.334558	-0.152247
H112	H	0.493010	-0.389126	-0.225627
H113	H	0.454285	-0.279947	-0.218930
H114	H	0.404889	-0.459847	-0.170773
H115	H	0.366163	-0.350674	-0.164062
O116	O	0.929685	-0.692445	-0.969458
C117	C	0.888066	-0.751987	-1.015977
H118	H	0.914762	-0.760442	-1.069442
H119	H	0.834403	-0.710596	-1.021650
C120	C	0.846242	-0.851132	-0.921239
C121	C	0.879034	-0.861525	-0.986904
H122	H	0.840667	-0.918698	-0.903305
H123	H	0.874279	-0.811015	-0.889898
H124	H	0.801526	-0.816636	-0.925976
H125	H	0.923751	-0.896008	-0.982166
H126	H	0.851003	-0.901650	-1.018245
O127	O	0.599164	-0.425853	-0.274560
C128	C	0.648872	-0.367212	-0.236880
H129	H	0.700038	-0.368548	-0.267762
H130	H	0.658798	-0.402993	-0.183781
C131	C	0.557798	-0.251372	-0.187804
C132	C	0.620640	-0.253006	-0.225737
H133	H	0.540383	-0.180926	-0.180927
H134	H	0.524308	-0.290881	-0.213188
H135	H	0.566078	-0.281195	-0.143559
H136	H	0.612357	-0.223196	-0.269984
H137	H	0.654127	-0.213489	-0.200361
H138	H	0.737676	-0.445582	-0.287190
O139	O	0.591910	-0.701444	-0.451345
C140	C	0.551057	-0.764273	-0.409555
H141	H	0.542188	-0.723357	-0.355908
H142	H	0.579637	-0.843432	-0.402871
C143	C	0.490700	-0.831502	-0.511290
C144	C	0.479801	-0.781243	-0.445402
H145	H	0.446747	-0.841974	-0.533404
H146	H	0.518224	-0.789175	-0.539446
H147	H	0.514519	-0.897461	-0.505712
H148	H	0.455991	-0.715279	-0.450983
H149	H	0.452271	-0.823559	-0.417248
H150	H	0.904292	-0.728803	-0.777355
H151	H	0.400005	-0.740911	-0.476820
H152	H	0.731170	-0.699099	-0.449959
H153	H	1.095419	-0.889901	-0.293096
H154	H	0.266864	-0.732601	-0.471492
O155	O	1.095647	-1.305284	-0.293091
C156	C	1.146982	-1.342185	-0.245836
H157	H	1.158470	-1.277241	-0.205170
H158	H	1.197091	-1.366362	-0.275804
C159	C	1.105740	-1.517329	-0.258617
C160	C	1.119845	-1.437566	-0.208666
H161	H	1.089003	-1.576167	-0.235690
H162	H	1.071156	-1.492470	-0.290455
H163	H	1.147500	-1.537464	-0.283585
H164	H	1.078083	-1.417423	-0.183705
H165	H	1.154421	-1.462424	-0.176822
O166	O	0.908566	-1.304421	-0.465705
C167	C	0.923868	-1.345986	-0.533799
H168	H	0.953297	-1.286271	-0.564087
H169	H	0.872890	-1.364125	-0.562208
C170	C	0.933549	-1.520897	-0.491688
C171	C	0.969699	-1.447557	-0.528887
H172	H	0.961816	-1.583553	-0.488660
H173	H	0.923236	-1.492895	-0.445812
H174	H	0.891068	-1.536001	-0.515368
H175	H	1.012173	-1.432445	-0.505203
H176	H	0.980019	-1.475559	-0.574759
H177	H	0.823620	-1.187243	-0.543752
H178	H	0.823541	-0.988168	-0.543715
H179	H	0.908353	-0.889026	-0.465488
