data_functionalizedCrystal
_audit_creation_method	'MofGen! by Chris Wilmer'
_symmetry_space_group_name_H-M	'P1'
_symmetry_Int_Tables_number	1
_symmetry_cell_setting	triclinic
loop_
_symmetry_equiv_pos_as_xyz
  x,y,z
_cell_length_a	11.792241
_cell_length_b	10.723024
_cell_length_c	9.198806
_cell_angle_alpha	90.003648
_cell_angle_beta	90.003330
_cell_angle_gamma	84.330643
loop_
_atom_site_label
_atom_site_type_symbol
_atom_site_fract_x
_atom_site_fract_y
_atom_site_fract_z
O1	O	-0.159192	-1.656767	-0.120884
O2	O	0.340808	-1.156767	0.379116
O3	O	-0.174430	-1.293574	-0.120889
O4	O	0.325570	-0.793574	0.379111
O5	O	-0.001660	-1.483984	-0.120876
O6	O	0.498340	-0.983984	0.379124
O7	O	-0.331962	-1.466357	-0.120897
O8	O	0.168038	-0.966357	0.379103
O9	O	-0.001659	-1.483969	0.120909
O10	O	0.498341	-0.983969	0.620909
O11	O	-0.174430	-1.293559	0.120896
O12	O	0.325570	-0.793559	0.620896
O13	O	-0.159192	-1.656751	0.120901
O14	O	0.340808	-1.156751	0.620901
Cu15	Cu	-0.166811	-1.475154	0.142976
Cu16	Cu	0.333189	-0.975154	0.642976
Cu17	Cu	-0.166811	-1.475172	-0.142963
Cu18	Cu	0.333189	-0.975172	0.357037
O19	O	-0.331962	-1.466341	0.120889
O20	O	0.168038	-0.966341	0.620889
C21	C	0.040634	-1.482869	0.000016
C22	C	0.540634	-0.982869	0.500016
C23	C	0.166655	-1.479555	0.000015
C24	C	0.666655	-0.979555	0.500015
C25	C	-0.173321	-1.247070	0.000003
C26	C	0.326679	-0.747070	0.500003
C27	C	-0.170003	-1.108524	0.000002
C28	C	0.329997	-0.608524	0.500002
C29	C	-0.374255	-1.467456	-0.000007
C30	C	0.125745	-0.967456	0.499993
C31	C	-0.500276	-1.470770	-0.000015
C32	C	-0.000276	-0.970770	0.499985
C33	C	0.397380	-1.473461	-0.000010
C34	C	0.897380	-0.973461	0.499990
C35	C	0.268988	-1.476847	0.000004
C36	C	0.768988	-0.976847	0.500004
C37	C	-0.160301	-1.703256	0.000006
C38	C	0.339699	-1.203256	0.500006
C39	C	-0.163619	-1.841801	-0.000002
C40	C	0.336381	-1.341801	0.499998
N41	N	-0.166810	-1.475150	0.344090
N42	N	0.333190	-0.975150	0.844090
C43	C	-0.266676	-1.033286	-0.000005
C44	C	0.233324	-0.533286	0.499995
C45	C	-0.263249	-0.890091	-0.000007
C46	C	0.236751	-0.390091	0.499993
N47	N	-0.166803	-1.475185	-0.344077
N48	N	0.333197	-0.975185	0.155923
C49	C	-0.093948	-1.555099	0.416292
C50	C	0.406052	-1.055099	0.916292
C51	C	-0.093944	-1.555118	0.583704
C52	C	0.406056	-1.055118	1.083704
H53	H	-0.351978	-1.074882	-0.000002
H54	H	0.148022	-0.574882	0.499998
H55	H	-0.229182	-1.406713	0.406213
H56	H	0.270818	-0.906713	0.906213
H57	H	-0.346009	-0.825440	-0.000019
H58	H	0.153991	-0.325440	0.499981
H59	H	-0.080854	-0.906445	-0.000005
H60	H	0.419146	-0.406445	0.499995
H61	H	-0.031567	-1.623528	0.354171
H62	H	0.468433	-1.123528	0.854171
Cl63	Cl	0.002363	-1.660807	0.679562
Cl64	Cl	0.502363	-1.160807	1.179562
H65	H	-0.084701	-1.066928	-0.000030
H66	H	0.415299	-0.566928	0.499970
H67	H	-0.229190	-1.406739	0.593841
H68	H	0.270810	-0.906739	1.093841
