data_functionalizedCrystal
_audit_creation_method	'MofGen! by Chris Wilmer'
_symmetry_space_group_name_H-M	'P1'
_symmetry_Int_Tables_number	1
_symmetry_cell_setting	triclinic
loop_
_symmetry_equiv_pos_as_xyz
  x,y,z
_cell_length_a	18.101398
_cell_length_b	18.050589
_cell_length_c	18.101389
_cell_angle_alpha	89.985984
_cell_angle_beta	89.975673
_cell_angle_gamma	90.023488
loop_
_atom_site_label
_atom_site_type_symbol
_atom_site_fract_x
_atom_site_fract_y
_atom_site_fract_z
Zn1	Zn	1.132136	-0.295831	-0.418861
Zn2	Zn	1.382136	-0.045831	-0.168861
Zn3	Zn	1.632136	0.204169	0.081139
Zn4	Zn	1.882136	0.454169	0.331139
Zn5	Zn	1.132038	-0.420005	-0.295029
Zn6	Zn	1.382038	-0.170005	-0.045029
Zn7	Zn	1.632038	0.079995	0.204971
Zn8	Zn	1.882038	0.329995	0.454971
Zn9	Zn	1.008295	-0.295823	-0.295023
Zn10	Zn	1.258295	-0.045823	-0.045023
Zn11	Zn	1.508295	0.204177	0.204977
Zn12	Zn	1.758295	0.454177	0.454977
Zn13	Zn	1.008252	-0.419974	-0.418818
Zn14	Zn	1.258252	-0.169974	-0.168818
Zn15	Zn	1.508252	0.080026	0.081182
Zn16	Zn	1.758252	0.330026	0.331182
O17	O	1.070180	-0.357908	-0.356933
O18	O	1.320180	-0.107908	-0.106933
O19	O	1.570180	0.142092	0.143067
O20	O	1.820180	0.392092	0.393067
O21	O	1.235756	-0.312320	-0.402456
O22	O	1.485756	-0.062320	-0.152456
O23	O	1.735756	0.187680	0.097544
O24	O	1.985756	0.437680	0.347544
O25	O	1.115600	-0.403542	-0.191396
O26	O	1.365600	-0.153542	0.058604
O27	O	1.615600	0.096458	0.308604
O28	O	1.865600	0.346458	0.558604
O29	O	1.024782	-0.191900	-0.311465
O30	O	1.274782	0.058100	-0.061465
O31	O	1.524782	0.308100	0.188535
O32	O	1.774782	0.558100	0.438535
O33	O	1.235684	-0.403550	-0.311477
O34	O	1.485684	-0.153550	-0.061477
O35	O	1.735684	0.096450	0.188523
O36	O	1.985684	0.346450	0.438523
O37	O	1.115767	-0.191905	-0.402449
O38	O	1.365767	0.058095	-0.152449
O39	O	1.615767	0.308095	0.097551
O40	O	1.865767	0.558095	0.347551
O41	O	1.024687	-0.312306	-0.191391
O42	O	1.274687	-0.062306	0.058609
O43	O	1.524687	0.187694	0.308609
O44	O	1.774687	0.437694	0.558609
O45	O	0.904656	-0.312276	-0.311423
O46	O	1.154656	-0.062276	-0.061423
O47	O	1.404656	0.187724	0.188577
O48	O	1.654656	0.437724	0.438577
O49	O	1.024708	-0.403496	-0.522457
O50	O	1.274708	-0.153496	-0.272457
O51	O	1.524708	0.096504	-0.022457
O52	O	1.774708	0.346504	0.227543
O53	O	0.904625	-0.403488	-0.402375
O54	O	1.154625	-0.153488	-0.152375
O55	O	1.404625	0.096512	0.097625
O56	O	1.654625	0.346512	0.347625
O57	O	1.115725	-0.312289	-0.522489
O58	O	1.365725	-0.062289	-0.272489
O59	O	1.615725	0.187711	-0.022489
O60	O	1.865725	0.437711	0.227511
O61	O	1.115558	-0.523926	-0.311435
O62	O	1.365558	-0.273926	-0.061435
O63	O	1.615558	-0.023926	0.188565
O64	O	1.865558	0.226074	0.438565
O65	O	1.024613	-0.523902	-0.402382
O66	O	1.274613	-0.273902	-0.152382
O67	O	1.524613	-0.023902	0.097618
O68	O	1.774613	0.226098	0.347618
C69	C	0.877770	-0.357878	-0.356894
C70	C	1.127770	-0.107878	-0.106894
C71	C	1.377770	0.142122	0.143106
C72	C	1.627770	0.392122	0.393106
C73	C	0.795455	-0.357883	-0.356895
C74	C	1.045455	-0.107883	-0.106895
C75	C	1.295455	0.142117	0.143105
C76	C	1.545455	0.392117	0.393105
C77	C	0.496364	-0.357930	-0.356957
C78	C	0.746364	-0.107930	-0.106957
C79	C	0.996364	0.142070	0.143043
C80	C	1.246364	0.392070	0.393043
C81	C	0.527685	-0.300254	-0.300012
C82	C	0.777685	-0.050254	-0.050012
C83	C	1.027685	0.199746	0.199988
C84	C	1.277685	0.449746	0.449988
C85	C	0.613303	-0.300409	-0.299769
C86	C	0.863303	-0.050409	-0.049769
C87	C	1.113303	0.199591	0.200231
C88	C	1.363303	0.449591	0.450231
C89	C	0.644747	-0.357906	-0.356927
C90	C	0.894747	-0.107906	-0.106927
C91	C	1.144747	0.142094	0.143073
C92	C	1.394747	0.392094	0.393073
C93	C	0.613633	-0.436133	-0.335608
C94	C	0.863633	-0.186133	-0.085608
C95	C	1.113633	0.063867	0.164392
C96	C	1.363633	0.313867	0.414392
C97	C	0.527988	-0.435813	-0.335212
C98	C	0.777988	-0.185813	-0.085212
C99	C	1.027988	0.064187	0.164788
C100	C	1.277988	0.314187	0.414788
C101	C	0.527978	-0.338057	-0.435355
C102	C	0.777978	-0.088057	-0.185355
C103	C	1.027978	0.161943	0.064645
C104	C	1.277978	0.411943	0.314645
C105	C	0.613629	-0.336315	-0.434927
C106	C	0.863629	-0.086315	-0.184927
C107	C	1.113629	0.163685	0.065073
C108	C	1.363629	0.413685	0.315073
C109	C	0.728606	-0.357897	-0.356910
C110	C	0.978606	-0.107897	-0.106910
C111	C	1.228606	0.142103	0.143090
C112	C	1.478606	0.392103	0.393090
C113	C	0.412505	-0.357943	-0.356972
C114	C	0.662505	-0.107943	-0.106972
C115	C	0.912505	0.142057	0.143028
C116	C	1.162505	0.392057	0.393028
C117	C	1.070091	-0.550860	-0.356921
C118	C	1.320091	-0.300860	-0.106921
C119	C	1.570091	-0.050860	0.143079
C120	C	1.820091	0.199140	0.393079
C121	C	1.070120	-0.633406	-0.356940
C122	C	1.320120	-0.383406	-0.106940
C123	C	1.570120	-0.133406	0.143060
C124	C	1.820120	0.116594	0.393060
C125	C	1.020713	-0.832871	-0.406380
C126	C	1.270713	-0.582871	-0.156380
C127	C	1.520713	-0.332871	0.093620
C128	C	1.770713	-0.082871	0.343620
C129	C	1.002661	-0.882299	-0.338801
C130	C	1.252661	-0.632299	-0.088801
C131	C	1.502661	-0.382299	0.161199
C132	C	1.752661	-0.132299	0.411199
C133	C	1.070193	-0.784537	-0.356950
C134	C	1.320193	-0.534537	-0.106950
C135	C	1.570193	-0.284537	0.143050
C136	C	1.820193	-0.034537	0.393050
C137	C	1.088281	-0.882191	-0.424536
C138	C	1.338281	-0.632191	-0.174536
C139	C	1.588281	-0.382191	0.075464
C140	C	1.838281	-0.132191	0.325464
C141	C	1.070262	-0.930522	-0.356965
C142	C	1.320262	-0.680522	-0.106965
C143	C	1.570262	-0.430522	0.143035
C144	C	1.820262	-0.180522	0.393035
C145	C	1.052106	-0.832877	-0.289335
C146	C	1.302106	-0.582877	-0.039335
C147	C	1.552106	-0.332877	0.210665
C148	C	1.802106	-0.082877	0.460665
C149	C	1.137757	-0.832765	-0.375116
C150	C	1.387757	-0.582765	-0.125116
C151	C	1.637757	-0.332765	0.124884
C152	C	1.887757	-0.082765	0.374884
C153	C	1.119731	-0.882170	-0.307491
C154	C	1.369731	-0.632170	-0.057491
C155	C	1.619731	-0.382170	0.192509
C156	C	1.869731	-0.132170	0.442509
C157	C	1.070151	-0.700438	-0.356942
C158	C	1.320151	-0.450438	-0.106942
C159	C	1.570151	-0.200438	0.143058
C160	C	1.820151	0.049562	0.393058
C161	C	1.070304	-1.014618	-0.356965
C162	C	1.320304	-0.764618	-0.106965
C163	C	1.570304	-0.514618	0.143035
C164	C	1.820304	-0.264618	0.393035
C165	C	1.263342	-0.357939	-0.356972
C166	C	1.513342	-0.107939	-0.106972
C167	C	1.763342	0.142061	0.143028
C168	C	2.013342	0.392061	0.393028
C169	C	1.345656	-0.357952	-0.356989
C170	C	1.595656	-0.107952	-0.106989
C171	C	1.845656	0.142048	0.143011
C172	C	2.095656	0.392048	0.393011
C173	C	1.070223	-0.357890	-0.550095
C174	C	1.320223	-0.107890	-0.300095
C175	C	1.570223	0.142110	-0.050095
C176	C	1.820223	0.392110	0.199905
C177	C	1.070241	-0.357882	-0.632409
C178	C	1.320241	-0.107882	-0.382409
C179	C	1.570241	0.142118	-0.132409
C180	C	1.820241	0.392118	0.117591
C181	C	1.070290	-0.164203	-0.356961
C182	C	1.320290	0.085797	-0.106961
C183	C	1.570290	0.335797	0.143039
C184	C	1.820290	0.585797	0.393039
C185	C	1.070337	-0.081657	-0.356974
C186	C	1.320337	0.168343	-0.106974
C187	C	1.570337	0.418343	0.143026
C188	C	1.820337	0.668343	0.393026
C189	C	1.070284	-0.357742	-0.931500
C190	C	1.320284	-0.107742	-0.681500
C191	C	1.570284	0.142258	-0.431500
C192	C	1.820284	0.392258	-0.181500
C193	C	1.012822	-0.414945	-0.900155
C194	C	1.262822	-0.164945	-0.650155
C195	C	1.512822	0.085055	-0.400155
C196	C	1.762822	0.335055	-0.150155
C197	C	1.012977	-0.415210	-0.814536
C198	C	1.262977	-0.165210	-0.564536
C199	C	1.512977	0.084790	-0.314536
C200	C	1.762977	0.334790	-0.064536
C201	C	1.070262	-0.357811	-0.783117
C202	C	1.320262	-0.107811	-0.533117
C203	C	1.570262	0.142189	-0.283117
C204	C	1.820262	0.392189	-0.033117
C205	C	1.148289	-0.379062	-0.814225
C206	C	1.398289	-0.129062	-0.564225
C207	C	1.648289	0.120938	-0.314225
C208	C	1.898289	0.370938	-0.064225
C209	C	1.147969	-0.379437	-0.899870
C210	C	1.397969	-0.129437	-0.649870
C211	C	1.647969	0.120563	-0.399870
C212	C	1.897969	0.370563	-0.149870
C213	C	1.050399	-0.279163	-0.899918
C214	C	1.300399	-0.029163	-0.649918
C215	C	1.550399	0.220837	-0.399918
C216	C	1.800399	0.470837	-0.149918
C217	C	1.048663	-0.279616	-0.814267
C218	C	1.298663	-0.029616	-0.564267
C219	C	1.548663	0.220384	-0.314267
C220	C	1.798663	0.470384	-0.064267
C221	C	1.070255	-0.357849	-0.699258
C222	C	1.320255	-0.107849	-0.449258
C223	C	1.570255	0.142151	-0.199258
C224	C	1.820255	0.392151	0.050742
C225	C	1.070297	-0.357706	-1.015360
C226	C	1.320297	-0.107706	-0.765360
C227	C	1.570297	0.142294	-0.515360
C228	C	1.820297	0.392294	-0.265360
C229	C	1.070180	-0.357873	-0.164522
C230	C	1.320180	-0.107873	0.085478
C231	C	1.570180	0.142127	0.335478
C232	C	1.820180	0.392127	0.585478
C233	C	1.070305	-0.357672	-0.082209
C234	C	1.320305	-0.107672	0.167791
C235	C	1.570305	0.142328	0.417791
C236	C	1.820305	0.392328	0.667791
H237	H	0.634341	-0.242399	-0.313131
H238	H	0.884341	0.007601	-0.063131
H239	H	1.134341	0.257601	0.186869
H240	H	1.384341	0.507601	0.436869
H241	H	0.955117	-0.401912	-0.793503
H242	H	1.205117	-0.151912	-0.543503
H243	H	1.455117	0.098088	-0.293503
H244	H	1.705117	0.348088	-0.043503
Cl245	Cl	1.108573	-0.210321	-0.781259
Cl246	Cl	1.358573	0.039679	-0.531259
Cl247	Cl	1.608573	0.289679	-0.281259
Cl248	Cl	1.858573	0.539679	-0.031259
H249	H	0.978808	-0.811224	-0.448122
H250	H	1.228808	-0.561224	-0.198122
H251	H	1.478808	-0.311224	0.051878
H252	H	1.728808	-0.061224	0.301878
Cl253	Cl	0.914492	-0.915890	-0.315079
Cl254	Cl	1.164492	-0.665890	-0.065079
Cl255	Cl	1.414492	-0.415890	0.184921
Cl256	Cl	1.664492	-0.165890	0.434921
H257	H	1.192234	-0.339582	-0.920607
H258	H	1.442234	-0.089582	-0.670607
H259	H	1.692234	0.160418	-0.420607
H260	H	1.942234	0.410418	-0.170607
H261	H	1.161604	-0.903680	-0.265648
H262	H	1.411604	-0.653680	-0.015648
H263	H	1.661604	-0.403680	0.234352
H264	H	1.911604	-0.153680	0.484352
Cl265	Cl	0.495922	-0.210415	-0.320411
Cl266	Cl	0.745922	0.039585	-0.070411
Cl267	Cl	0.995922	0.289585	0.179589
Cl268	Cl	1.245922	0.539585	0.429589
Cl269	Cl	1.225903	-0.799146	-0.398867
Cl270	Cl	1.475903	-0.549146	-0.148867
Cl271	Cl	1.725903	-0.299146	0.101133
Cl272	Cl	1.975903	-0.049146	0.351133
Cl273	Cl	1.216169	-0.316760	-0.782811
Cl274	Cl	1.466169	-0.066760	-0.532811
Cl275	Cl	1.716169	0.183240	-0.282811
Cl276	Cl	1.966169	0.433240	-0.032811
H277	H	1.036768	-0.811305	-0.232168
H278	H	1.286768	-0.561305	0.017832
H279	H	1.536768	-0.311305	0.267832
H280	H	1.786768	-0.061305	0.517832
Cl281	Cl	1.111859	-0.915638	-0.512771
Cl282	Cl	1.361859	-0.665638	-0.262771
Cl283	Cl	1.611859	-0.415638	-0.012771
Cl284	Cl	1.861859	-0.165638	0.237229
Cl285	Cl	0.646692	-0.462609	-0.248076
Cl286	Cl	0.896692	-0.212609	0.001924
Cl287	Cl	1.146692	0.037391	0.251924
Cl288	Cl	1.396692	0.287391	0.501924
Cl289	Cl	0.496706	-0.402913	-0.500864
Cl290	Cl	0.746706	-0.152913	-0.250864
Cl291	Cl	0.996706	0.097087	-0.000864
Cl292	Cl	1.246706	0.347087	0.249136
H293	H	0.506136	-0.313242	-0.242258
H294	H	0.756136	-0.063242	0.007742
H295	H	1.006136	0.186758	0.257742
H296	H	1.256136	0.436758	0.507742
Cl297	Cl	0.644888	-0.320686	-0.210078
Cl298	Cl	0.894888	-0.070686	0.039922
Cl299	Cl	1.144888	0.179314	0.289922
Cl300	Cl	1.394888	0.429314	0.539922
H301	H	0.994491	-0.259803	-0.921503
H302	H	1.244491	-0.009803	-0.671503
H303	H	1.494491	0.240197	-0.421503
H304	H	1.744491	0.490197	-0.171503
Cl305	Cl	1.032845	-0.504313	-0.933448
Cl306	Cl	1.282845	-0.254313	-0.683448
Cl307	Cl	1.532845	-0.004313	-0.433448
Cl308	Cl	1.782845	0.245687	-0.183448
Cl309	Cl	0.497089	-0.461831	-0.246726
Cl310	Cl	0.747089	-0.211831	0.003274
Cl311	Cl	0.997089	0.038169	0.253274
Cl312	Cl	1.247089	0.288169	0.503274
H313	H	0.954788	-0.401782	-0.920740
H314	H	1.204788	-0.151782	-0.670740
H315	H	1.454788	0.098218	-0.420740
H316	H	1.704788	0.348218	-0.170740
Cl317	Cl	0.495994	-0.504407	-0.396449
Cl318	Cl	0.745994	-0.254407	-0.146449
Cl319	Cl	0.995994	-0.004407	0.103551
Cl320	Cl	1.245994	0.245593	0.353551
H321	H	0.634000	-0.480257	-0.375787
H322	H	0.884000	-0.230257	-0.125787
H323	H	1.134000	0.019743	0.124213
H324	H	1.384000	0.269743	0.374213
Cl325	Cl	1.033289	-0.505128	-0.782915
Cl326	Cl	1.283289	-0.255128	-0.532915
Cl327	Cl	1.533289	-0.005128	-0.282915
Cl328	Cl	1.783289	0.244872	-0.032915
Cl329	Cl	0.494673	-0.251518	-0.465281
Cl330	Cl	0.744673	-0.001518	-0.215281
Cl331	Cl	0.994673	0.248482	0.034719
Cl332	Cl	1.244673	0.498482	0.284719
Cl333	Cl	1.173992	-0.468124	-0.930733
Cl334	Cl	1.423992	-0.218124	-0.680733
Cl335	Cl	1.673992	0.031876	-0.430733
Cl336	Cl	1.923992	0.281876	-0.180733
H337	H	0.991242	-0.263592	-0.793934
H338	H	1.241242	-0.013592	-0.543934
H339	H	1.491242	0.236408	-0.293934
H340	H	1.741242	0.486408	-0.043934
H341	H	1.165437	-0.435894	-0.792787
H342	H	1.415437	-0.185894	-0.542787
H343	H	1.665437	0.064106	-0.292787
H344	H	1.915437	0.314106	-0.042787
H345	H	0.633970	-0.278749	-0.451002
H346	H	0.883970	-0.028749	-0.201002
H347	H	1.133970	0.221251	0.048998
H348	H	1.383970	0.471251	0.298998
Cl349	Cl	0.646673	-0.396451	-0.503946
Cl350	Cl	0.896673	-0.146451	-0.253946
Cl351	Cl	1.146673	0.103549	-0.003946
Cl352	Cl	1.396673	0.353549	0.246054
H353	H	1.092252	-0.236544	-0.920191
H354	H	1.342252	0.013456	-0.670191
H355	H	1.592252	0.263456	-0.420191
H356	H	1.842252	0.513456	-0.170191
