data_functionalizedCrystal
_audit_creation_method	'MofGen! by Chris Wilmer'
_symmetry_space_group_name_H-M	'P1'
_symmetry_Int_Tables_number	1
_symmetry_cell_setting	triclinic
loop_
_symmetry_equiv_pos_as_xyz
  x,y,z
_cell_length_a	14.519709
_cell_length_b	10.654545
_cell_length_c	12.996460
_cell_angle_alpha	89.994208
_cell_angle_beta	89.998766
_cell_angle_gamma	84.081612
loop_
_atom_site_label
_atom_site_type_symbol
_atom_site_fract_x
_atom_site_fract_y
_atom_site_fract_z
O1	O	0.129506	1.666603	-0.085559
O2	O	0.141852	1.301005	-0.085564
O3	O	0.001491	1.493498	-0.085552
O4	O	0.269867	1.474111	-0.085571
O5	O	0.001499	1.493473	0.085582
O6	O	0.141860	1.300981	0.085570
O7	O	0.129514	1.666578	0.085575
Cu8	Cu	0.135688	1.483777	0.101198
Cu9	Cu	0.135678	1.483807	-0.101187
O10	O	0.269875	1.474086	0.085563
C11	C	0.140950	1.254204	0.000003
C12	C	0.138241	1.114786	0.000001
C13	C	0.136970	1.049280	0.093287
C14	C	0.134409	0.918286	0.093287
C15	C	0.134394	0.918313	-0.093292
C16	C	0.136948	1.049307	-0.093291
C17	C	-0.032870	1.492582	0.000015
C18	C	-0.135265	1.489874	0.000016
C19	C	-0.510212	1.479907	-0.000011
C20	C	-0.405890	1.482675	-0.000003
C21	C	-0.322742	1.484890	0.000003
C22	C	-0.218413	1.487659	0.000009
C23	C	0.304236	1.475002	-0.000006
C24	C	0.406631	1.477710	-0.000014
C25	C	0.130416	1.713380	0.000006
C26	C	0.133125	1.852798	0.000001
N27	N	0.135694	1.483766	0.243545
N28	N	0.135665	1.483828	-0.243534
C29	C	0.135696	1.483772	0.336651
C30	C	0.135690	1.483783	0.453457
C31	C	0.135680	1.483799	0.546555
C32	C	0.135675	1.483812	0.663367
H33	H	0.133374	0.864956	0.169250
C34	C	0.132982	0.846278	-0.195909
C35	C	0.051287	0.770309	-0.221558
C36	C	0.049879	0.698275	-0.324177
C37	C	0.130166	0.702211	-0.401146
C38	C	0.211867	0.778183	-0.375499
C39	C	0.213275	0.850217	-0.272880
H40	H	-0.008151	0.767393	-0.164579
H41	H	-0.010601	0.642035	-0.343163
H42	H	0.129124	0.648887	-0.477111
H43	H	0.271306	0.781099	-0.432478
H44	H	0.273756	0.906457	-0.253894
C45	C	0.138383	1.121307	0.195908
C46	C	0.060201	1.225449	0.221575
C47	C	0.061611	1.297471	0.324200
C48	C	0.141203	1.265350	0.401156
C49	C	0.219390	1.161203	0.375490
C50	C	0.217980	1.089181	0.272866
H51	H	0.001277	1.249231	0.164606
H52	H	0.003731	1.374568	0.343199
H53	H	0.142247	1.318665	0.477125
H54	H	0.278314	1.137421	0.432460
H55	H	0.275860	1.012085	0.253867
H56	H	0.137981	1.102643	-0.169260
