data_functionalizedCrystal
_audit_creation_method	'MofGen! by Chris Wilmer'
_symmetry_space_group_name_H-M	'P1'
_symmetry_Int_Tables_number	1
_symmetry_cell_setting	triclinic
loop_
_symmetry_equiv_pos_as_xyz
  x,y,z
_cell_length_a	14.421503
_cell_length_b	16.109301
_cell_length_c	16.109301
_cell_angle_alpha	83.461481
_cell_angle_beta	90.002868
_cell_angle_gamma	89.995091
loop_
_atom_site_label
_atom_site_type_symbol
_atom_site_fract_x
_atom_site_fract_y
_atom_site_fract_z
O1	O	0.077056	-1.103137	-0.106856
O2	O	0.327056	-0.853137	0.143144
O3	O	0.577056	-0.603137	0.393144
O4	O	0.827056	-0.353137	0.643144
O5	O	0.077071	-0.861075	-0.120155
O6	O	0.327071	-0.611075	0.129845
O7	O	0.577071	-0.361075	0.379845
O8	O	0.827071	-0.111075	0.629845
O9	O	0.077054	-0.988756	0.007526
O10	O	0.327054	-0.738756	0.257526
O11	O	0.577054	-0.488756	0.507526
O12	O	0.827054	-0.238756	0.757526
O13	O	0.077073	-0.975456	-0.234536
O14	O	0.327073	-0.725456	0.015464
O15	O	0.577073	-0.475456	0.265464
O16	O	0.827073	-0.225456	0.515464
O17	O	-0.077170	-0.988734	0.007507
O18	O	0.172830	-0.738734	0.257507
O19	O	0.422830	-0.488734	0.507507
O20	O	0.672830	-0.238734	0.757507
O21	O	-0.077152	-0.861054	-0.120174
O22	O	0.172848	-0.611054	0.129826
O23	O	0.422848	-0.361054	0.379826
O24	O	0.672848	-0.111054	0.629826
O25	O	-0.077167	-1.103116	-0.106875
O26	O	0.172833	-0.853116	0.143125
O27	O	0.422833	-0.603116	0.393125
O28	O	0.672833	-0.353116	0.643125
Cu29	Cu	-0.091242	-0.982083	-0.113526
Cu30	Cu	0.158758	-0.732083	0.136474
Cu31	Cu	0.408758	-0.482083	0.386474
Cu32	Cu	0.658758	-0.232083	0.636474
Cu33	Cu	0.091145	-0.982108	-0.113504
Cu34	Cu	0.341145	-0.732108	0.136496
Cu35	Cu	0.591145	-0.482108	0.386496
Cu36	Cu	0.841145	-0.232108	0.636496
O37	O	-0.077150	-0.975435	-0.234555
O38	O	0.172850	-0.725435	0.015445
O39	O	0.422850	-0.475435	0.265445
O40	O	0.672850	-0.225435	0.515445
C41	C	-0.000039	-0.830090	-0.119626
C42	C	0.249961	-0.580090	0.130374
C43	C	0.499961	-0.330090	0.380374
C44	C	0.749961	-0.080090	0.630374
C45	C	-0.000033	-0.737794	-0.118011
C46	C	0.249967	-0.487794	0.131989
C47	C	0.499967	-0.237794	0.381989
C48	C	0.749967	0.012206	0.631989
N49	N	-0.219523	-0.982071	-0.113541
N50	N	0.030477	-0.732071	0.136459
N51	N	0.280477	-0.482071	0.386459
N52	N	0.530477	-0.232071	0.636459
C53	C	-0.000058	-0.988206	0.038491
C54	C	0.249942	-0.738206	0.288491
C55	C	0.499942	-0.488206	0.538491
C56	C	0.749942	-0.238206	0.788491
C57	C	-0.000060	-0.986591	0.130786
C58	C	0.249940	-0.736591	0.380786
C59	C	0.499940	-0.486591	0.630786
C60	C	0.749940	-0.236591	0.880786
C61	C	-0.469169	-0.923021	-0.172554
C62	C	-0.219169	-0.673021	0.077446
C63	C	0.030831	-0.423021	0.327446
C64	C	0.280831	-0.173021	0.577446
C65	C	-0.530974	-0.998143	-0.188671
C66	C	-0.280974	-0.748143	0.061329
C67	C	-0.030974	-0.498143	0.311329
C68	C	0.219026	-0.248143	0.561329
C69	C	-0.408684	-0.982092	-0.113521
C70	C	-0.158684	-0.732092	0.136479
C71	C	0.091316	-0.482092	0.386479
C72	C	0.341316	-0.232092	0.636479
C73	C	-0.530972	-0.906990	-0.097424
C74	C	-0.280972	-0.656990	0.152576
C75	C	-0.030972	-0.406990	0.402576
C76	C	0.219028	-0.156990	0.652576
C77	C	-0.591406	-0.982104	-0.113504
C78	C	-0.341406	-0.732104	0.136496
C79	C	-0.091406	-0.482104	0.386496
C80	C	0.158594	-0.232104	0.636496
C81	C	-0.469129	-1.057251	-0.129675
C82	C	-0.219129	-0.807251	0.120325
C83	C	0.030871	-0.557251	0.370325
C84	C	0.280871	-0.307251	0.620325
C85	C	-0.469122	-0.966048	-0.038396
C86	C	-0.219122	-0.716048	0.211604
C87	C	0.030878	-0.466048	0.461604
C88	C	0.280878	-0.216048	0.711604
C89	C	-0.530900	-1.041224	-0.054481
C90	C	-0.280900	-0.791224	0.195519
C91	C	-0.030900	-0.541224	0.445519
C92	C	0.219100	-0.291224	0.695519
C93	C	-0.303423	-0.982083	-0.113534
C94	C	-0.053423	-0.732083	0.136466
C95	C	0.196577	-0.482083	0.386466
C96	C	0.446577	-0.232083	0.636466
C97	C	-0.696665	-0.982122	-0.113491
C98	C	-0.446665	-0.732122	0.136509
C99	C	-0.196665	-0.482122	0.386509
C100	C	0.053335	-0.232122	0.636509
N101	N	0.219427	-0.982126	-0.113482
N102	N	0.469427	-0.732126	0.136518
N103	N	0.719427	-0.482126	0.386518
N104	N	0.969427	-0.232126	0.636518
C105	C	-0.000056	-1.134101	-0.107404
C106	C	0.249944	-0.884101	0.142596
C107	C	0.499944	-0.634101	0.392596
C108	C	0.749944	-0.384101	0.642596
C109	C	-0.000055	-1.226397	-0.109019
C110	C	0.249945	-0.976397	0.140981
C111	C	0.499945	-0.726397	0.390981
C112	C	0.749945	-0.476397	0.640981
C113	C	-0.000038	-0.515522	-0.190018
C114	C	0.249962	-0.265522	0.059982
C115	C	0.499962	-0.015522	0.309982
C116	C	0.749962	0.234478	0.559982
C117	C	-0.000044	-0.428801	-0.188494
C118	C	0.249956	-0.178801	0.061506
C119	C	0.499956	0.071199	0.311506
C120	C	0.749956	0.321199	0.561506
C121	C	-0.000053	-0.448676	-0.037006
C122	C	0.249947	-0.198676	0.212994
C123	C	0.499947	0.051324	0.462994
C124	C	0.749947	0.301324	0.712994
C125	C	-0.000053	-0.535394	-0.038530
C126	C	0.249947	-0.285394	0.211470
C127	C	0.499947	-0.035394	0.461470
C128	C	0.749947	0.214606	0.711470
C129	C	-0.000041	-0.568815	-0.115039
C130	C	0.249959	-0.318815	0.134961
C131	C	0.499959	-0.068815	0.384961
C132	C	0.749959	0.181185	0.634961
C133	C	-0.000047	-0.395376	-0.111990
C134	C	0.249953	-0.145376	0.138010
C135	C	0.499953	0.104624	0.388010
C136	C	0.749953	0.354624	0.638010
C137	C	-0.000053	-0.301350	-0.110337
C138	C	0.249947	-0.051350	0.139663
C139	C	0.499947	0.198650	0.389663
C140	C	0.749947	0.448650	0.639663
C141	C	-0.000037	-0.662847	-0.116693
C142	C	0.249963	-0.412847	0.133307
C143	C	0.499963	-0.162847	0.383307
C144	C	0.749963	0.087153	0.633307
C145	C	-0.000036	-0.975984	-0.265521
C146	C	0.249964	-0.725984	-0.015521
C147	C	0.499964	-0.475984	0.234479
C148	C	0.749964	-0.225984	0.484479
C149	C	-0.000029	-0.977600	-0.357816
C150	C	0.249971	-0.727600	-0.107816
C151	C	0.499971	-0.477600	0.142184
C152	C	0.749971	-0.227600	0.392184
C153	C	-0.000049	-1.058599	0.353059
C154	C	0.249951	-0.808599	0.603059
C155	C	0.499951	-0.558599	0.853059
C156	C	0.749951	-0.308599	1.103059
C157	C	-0.000042	-1.057075	0.439779
C158	C	0.249958	-0.807075	0.689779
C159	C	0.499958	-0.557075	0.939779
C160	C	0.749958	-0.307075	1.189779
C161	C	-0.000036	-0.905586	0.419905
C162	C	0.249964	-0.655586	0.669905
C163	C	0.499964	-0.405586	0.919905
C164	C	0.749964	-0.155586	1.169905
C165	C	-0.000037	-0.907111	0.333186
C166	C	0.249963	-0.657111	0.583186
C167	C	0.499963	-0.407111	0.833186
C168	C	0.749963	-0.157111	1.083186
C169	C	-0.000049	-0.983620	0.299766
C170	C	0.249951	-0.733620	0.549766
C171	C	0.499951	-0.483620	0.799766
C172	C	0.749951	-0.233620	1.049766
C173	C	-0.000040	-0.980571	0.473205
C174	C	0.249960	-0.730571	0.723205
C175	C	0.499960	-0.480571	0.973205
C176	C	0.749960	-0.230571	1.223205
C177	C	-0.000031	-0.978918	0.567231
C178	C	0.249969	-0.728918	0.817231
C179	C	0.499969	-0.478918	1.067231
C180	C	0.749969	-0.228918	1.317231
C181	C	-0.000055	-0.985273	0.205734
C182	C	0.249945	-0.735273	0.455734
C183	C	0.499945	-0.485273	0.705734
C184	C	0.749945	-0.235273	0.955734
H185	H	-0.442064	-0.873118	-0.222517
H186	H	-0.192064	-0.623118	0.027483
H187	H	0.057936	-0.373118	0.277483
H188	H	0.307936	-0.123118	0.527483
Br189	Br	-0.000038	-1.158837	0.512103
Br190	Br	0.249962	-0.908837	0.762103
Br191	Br	0.499962	-0.658837	1.012103
Br192	Br	0.749962	-0.408837	1.262103
H193	H	-0.000044	-0.385413	-0.249550
H194	H	0.249956	-0.135413	0.000450
H195	H	0.499956	0.114587	0.250450
H196	H	0.749956	0.364587	0.500450
Br197	Br	-0.000018	-0.801758	0.465267
Br198	Br	0.249982	-0.551758	0.715267
Br199	Br	0.499982	-0.301758	0.965267
Br200	Br	0.749982	-0.051758	1.215267
Br201	Br	-0.000069	-0.607728	0.063234
Br202	Br	0.249931	-0.357728	0.313234
Br203	Br	0.499931	-0.107728	0.563234
Br204	Br	0.749931	0.142272	0.813234
H205	H	-0.000033	-0.846050	0.289792
H206	H	0.249967	-0.596050	0.539792
H207	H	0.499967	-0.346050	0.789792
H208	H	0.749967	-0.096050	1.039792
H209	H	-0.558143	-1.011724	-0.252195
H210	H	-0.308143	-0.761724	-0.002195
H211	H	-0.058143	-0.511724	0.247805
H212	H	0.191857	-0.261724	0.497805
Br213	Br	-0.424050	-1.163144	-0.152477
Br214	Br	-0.174050	-0.913144	0.097523
Br215	Br	0.075950	-0.663144	0.347523
Br216	Br	0.325950	-0.413144	0.597523
H217	H	-0.441932	-0.952443	0.025108
H218	H	-0.191932	-0.702443	0.275108
H219	H	0.058068	-0.452443	0.525108
H220	H	0.308068	-0.202443	0.775108
Br221	Br	-0.576255	-0.801125	-0.074743
Br222	Br	-0.326255	-0.551125	0.175257
Br223	Br	-0.076255	-0.301125	0.425257
Br224	Br	0.173745	-0.051125	0.675257
Br225	Br	-0.575800	-1.124579	0.028744
Br226	Br	-0.325800	-0.874579	0.278744
Br227	Br	-0.075800	-0.624579	0.528744
Br228	Br	0.174200	-0.374579	0.778744
H229	H	-0.000035	-0.542730	-0.252317
H230	H	0.249965	-0.292730	-0.002317
H231	H	0.499965	-0.042730	0.247683
H232	H	0.749965	0.207270	0.497683
H233	H	-0.000068	-0.421454	0.025285
H234	H	0.249932	-0.171454	0.275285
H235	H	0.499932	0.078546	0.525285
H236	H	0.749932	0.328546	0.775285
H237	H	-0.000057	-1.120897	0.325851
H238	H	0.249943	-0.870897	0.575851
H239	H	0.499943	-0.620897	0.825851
H240	H	0.749943	-0.370897	1.075851
