data_functionalizedCrystal
_audit_creation_method	'MofGen! by Chris Wilmer'
_symmetry_space_group_name_H-M	'P1'
_symmetry_Int_Tables_number	1
_symmetry_cell_setting	triclinic
loop_
_symmetry_equiv_pos_as_xyz
  x,y,z
_cell_length_a	11.026607
_cell_length_b	14.519709
_cell_length_c	10.065875
_cell_angle_alpha	98.804604
_cell_angle_beta	79.302338
_cell_angle_gamma	96.133081
loop_
_atom_site_label
_atom_site_type_symbol
_atom_site_fract_x
_atom_site_fract_y
_atom_site_fract_z
O1	O	1.628737	0.375708	-0.113512
O2	O	1.275335	0.331718	-0.113511
O3	O	1.461404	0.221020	-0.113499
O4	O	1.442668	0.486407	-0.113524
O5	O	1.425923	0.242237	0.113487
O6	O	1.239855	0.352935	0.113475
O7	O	1.593256	0.396926	0.113475
Zn8	Zn	1.410922	0.378299	0.149514
Zn9	Zn	1.457669	0.350345	-0.149550
O10	O	1.407187	0.507624	0.113463
C11	C	1.212366	0.334211	-0.000018
C12	C	1.077600	0.310019	-0.000017
C13	C	1.442790	0.197125	-0.000006
C14	C	1.440173	0.094312	-0.000005
C15	C	1.003940	0.376818	-0.000024
C16	C	0.864652	0.351815	-0.000024
C17	C	1.430544	-0.282174	-0.000040
C18	C	1.433218	-0.177425	-0.000030
C19	C	1.435358	-0.093934	-0.000021
C20	C	1.438033	0.010822	-0.000014
C21	C	1.656225	0.394432	-0.000022
C22	C	1.790993	0.418624	-0.000031
C23	C	1.425802	0.531519	-0.000034
C24	C	1.428420	0.634330	-0.000043
N25	N	1.379027	0.397378	0.353617
N26	N	1.489574	0.331260	-0.353654
C27	C	1.446564	0.356976	0.421401
C28	C	1.422027	0.371668	0.578566
H29	H	1.043996	0.452517	-0.000024
H30	H	0.824606	0.276108	-0.000052
C31	C	0.972575	0.525810	-0.000087
C32	C	0.845052	0.520821	-0.000073
H33	H	1.005948	0.588900	-0.000130
H34	H	0.986767	0.503380	0.079077
H35	H	1.011496	0.488543	-0.079234
H36	H	0.806129	0.558082	0.079080
H37	H	0.830850	0.543262	-0.079245
C38	C	0.896019	0.202836	-0.000020
C39	C	1.023539	0.207824	-0.000015
H40	H	0.862652	0.139742	-0.000028
H41	H	0.857089	0.240077	0.079130
H42	H	0.881838	0.225293	-0.079181
H43	H	1.037720	0.185373	0.079152
H44	H	1.062482	0.170569	-0.079173
H45	H	1.565562	0.285786	0.588030
H46	H	1.522548	0.311504	0.363081
C47	C	1.344759	0.523823	0.622823
C48	C	1.319434	0.433051	0.657275
H49	H	1.281418	0.561713	0.671410
H50	H	1.422220	0.549326	0.646166
H51	H	1.347793	0.521990	0.527529
H52	H	1.316410	0.434882	0.752568
H53	H	1.241952	0.407542	0.633942
C54	C	1.162252	0.421139	0.397931
C55	C	1.276440	0.458755	0.432339
H56	H	1.098919	0.459030	0.446536
H57	H	1.165290	0.419327	0.302652
H58	H	1.145099	0.359554	0.421293
H59	H	1.293598	0.520339	0.408968
H60	H	1.273404	0.460578	0.527639
