data_functionalizedCrystal
_audit_creation_method	'MofGen! by Chris Wilmer'
_symmetry_space_group_name_H-M	'P1'
_symmetry_Int_Tables_number	1
_symmetry_cell_setting	triclinic
loop_
_symmetry_equiv_pos_as_xyz
  x,y,z
_cell_length_a	17.640112
_cell_length_b	21.295417
_cell_length_c	17.640968
_cell_angle_alpha	101.234808
_cell_angle_beta	87.860920
_cell_angle_gamma	101.256239
loop_
_atom_site_label
_atom_site_type_symbol
_atom_site_fract_x
_atom_site_fract_y
_atom_site_fract_z
Zn1	Zn	1.247775	-0.018088	0.195079
Zn2	Zn	1.747775	0.481912	0.695079
Zn3	Zn	1.221981	-0.147966	0.068087
Zn4	Zn	1.721981	0.352034	0.568087
Zn5	Zn	1.095099	-0.059037	0.093722
Zn6	Zn	1.595099	0.440963	0.593722
Zn7	Zn	1.120723	-0.139680	0.220669
Zn8	Zn	1.620723	0.360320	0.720669
O9	O	1.171395	-0.091193	0.144389
O10	O	1.671395	0.408807	0.644389
O11	O	1.350625	-0.021647	0.156795
O12	O	1.850625	0.478353	0.656795
O13	O	1.183631	-0.156775	-0.034787
O14	O	1.683631	0.343225	0.465213
O15	O	1.115423	0.034499	0.107185
O16	O	1.615423	0.534499	0.607185
O17	O	1.331674	-0.117068	0.063494
O18	O	1.831674	0.382932	0.563494
O19	O	1.227593	0.064584	0.181652
O20	O	1.727593	0.564584	0.681652
O21	O	1.090412	-0.091439	-0.015953
O22	O	1.590412	0.408561	0.484047
O23	O	0.992227	-0.083404	0.132000
O24	O	1.492227	0.416596	0.632000
O25	O	1.159096	-0.102945	0.323549
O26	O	1.659096	0.397055	0.823549
O27	O	1.011052	-0.142652	0.225268
O28	O	1.511052	0.357348	0.725268
O29	O	1.252440	-0.013612	0.304748
O30	O	1.752440	0.486388	0.804748
O31	O	1.208478	-0.234971	0.088309
O32	O	1.708478	0.265029	0.588309
O33	O	1.134084	-0.228883	0.200410
O34	O	1.634084	0.271117	0.700410
C35	C	0.974084	-0.116573	0.184193
C36	C	1.474084	0.383427	0.684193
C37	C	0.889678	-0.127442	0.201239
C38	C	1.389678	0.372558	0.701239
C39	C	1.171287	-0.254765	0.144367
C40	C	1.671287	0.245235	0.644367
C41	C	1.171315	-0.324729	0.144369
C42	C	1.671315	0.175271	0.644369
C43	C	0.563037	-0.008607	0.014897
C44	C	1.063037	0.491393	0.514897
C45	C	0.483727	-0.018831	0.030925
C46	C	0.983727	0.481169	0.530925
C47	C	0.503351	-0.080669	0.127878
C48	C	1.003351	0.419331	0.627878
C49	C	0.582665	-0.070447	0.111861
C50	C	1.082665	0.429553	0.611861
C51	C	0.612502	-0.034416	0.055369
C52	C	1.112502	0.465584	0.555369
C53	C	0.632129	-0.096257	0.152332
C54	C	1.132129	0.403743	0.652332
C55	C	0.711436	-0.086038	0.136313
C56	C	1.211436	0.413962	0.636313
C57	C	0.741279	-0.050011	0.079823
C58	C	1.241279	0.449989	0.579823
C59	C	0.691809	-0.024198	0.039350
C60	C	1.191809	0.475802	0.539350
C61	C	0.602290	-0.132291	0.208820
C62	C	1.102290	0.367709	0.708820
C63	C	0.651755	-0.158101	0.249291
C64	C	1.151755	0.341899	0.749291
C65	C	0.731064	-0.147879	0.233277
C66	C	1.231064	0.352121	0.733277
C67	C	0.760907	-0.111851	0.176786
C68	C	1.260907	0.388149	0.676786
C69	C	0.780534	-0.173691	0.273749
C70	C	1.280534	0.326309	0.773749
C71	C	0.859841	-0.163473	0.257730
C72	C	1.359841	0.336527	0.757730
C73	C	0.840214	-0.101633	0.160767
C74	C	1.340214	0.398367	0.660767
C75	C	1.210105	-0.360729	0.086039
C76	C	1.710105	0.139271	0.586039
C77	C	1.210144	-0.426464	0.086049
C78	C	1.710144	0.073536	0.586049
C79	C	1.171378	-0.456199	0.144384
C80	C	1.671378	0.043801	0.644384
C81	C	1.132586	-0.420189	0.202724
C82	C	1.632586	0.079811	0.702724
C83	C	1.132555	-0.354454	0.202717
C84	C	1.632555	0.145546	0.702717
N85	N	1.106115	-0.566893	0.163575
N86	N	1.606115	-0.066893	0.663575
N87	N	1.106146	-0.629339	0.163577
N88	N	1.606146	-0.129339	0.663577
C89	C	1.171472	-0.654254	0.144410
C90	C	1.671472	-0.154254	0.644410
N91	N	1.236764	-0.614366	0.125225
N92	N	1.736764	-0.114366	0.625225
N93	N	1.236731	-0.551916	0.125220
N94	N	1.736731	-0.051916	0.625220
C95	C	1.171408	-0.527477	0.144398
C96	C	1.671408	-0.027477	0.644398
C97	C	1.210308	-0.761531	0.086087
C98	C	1.710308	-0.261531	0.586087
C99	C	1.210349	-0.827266	0.086102
C100	C	1.710349	-0.327266	0.586102
C101	C	1.132784	-0.820991	0.202775
C102	C	1.632784	-0.320991	0.702775
C103	C	1.132750	-0.755256	0.202763
C104	C	1.632750	-0.255256	0.702763
C105	C	1.171510	-0.725531	0.144415
C106	C	1.671510	-0.225531	0.644415
C107	C	1.369475	-0.065714	0.104431
C108	C	1.869475	0.434286	0.604431
C109	C	1.453885	-0.054856	0.087403
C110	C	1.953885	0.445144	0.587403
C111	C	1.211503	-0.052786	0.342475
C112	C	1.711503	0.447214	0.842475
C113	C	1.228595	-0.036419	0.426887
C114	C	1.728595	0.463581	0.926887
C115	C	1.171527	0.073024	0.144424
C116	C	1.671527	0.573024	0.644424
C117	C	1.171584	0.143004	0.144438
C118	C	1.671584	0.643004	0.644438
C119	C	1.131486	-0.129399	-0.052935
C120	C	1.631486	0.370601	0.447065
C121	C	1.114541	-0.145569	-0.137376
C122	C	1.614541	0.354431	0.362624
C123	C	1.041841	-0.215148	0.753447
C124	C	1.541841	0.284852	1.253447
C125	C	1.057917	-0.199759	0.832762
C126	C	1.557917	0.300241	1.332762
C127	C	1.155108	-0.106745	0.813176
C128	C	1.655108	0.393255	1.313176
C129	C	1.139037	-0.122124	0.733858
C130	C	1.639037	0.377876	1.233858
C131	C	1.082403	-0.176327	0.704000
C132	C	1.582403	0.323673	1.204000
C133	C	1.179600	-0.083303	0.684411
C134	C	1.679600	0.416697	1.184411
C135	C	1.163533	-0.098683	0.605099
C136	C	1.663533	0.401317	1.105099
C137	C	1.106903	-0.152885	0.575235
C138	C	1.606903	0.347115	1.075235
C139	C	1.066336	-0.191707	0.624689
C140	C	1.566336	0.308293	1.124689
C141	C	1.236237	-0.029103	0.714269
C142	C	1.736237	0.470897	1.214269
C143	C	1.276800	0.009719	0.664822
C144	C	1.776800	0.509719	1.164822
C145	C	1.260729	-0.005659	0.585510
C146	C	1.760729	0.494341	1.085510
C147	C	1.204100	-0.059860	0.555646
C148	C	1.704100	0.440140	1.055646
C149	C	1.301296	0.033164	0.536056
C150	C	1.801296	0.533164	1.036056
C151	C	1.285229	0.017784	0.456745
C152	C	1.785229	0.517784	0.956745
C153	C	1.188033	-0.075241	0.476334
C154	C	1.688033	0.424759	0.976334
H155	H	0.864510	-0.072281	0.114778
H156	H	1.364510	0.427719	0.614778
H157	H	1.100967	-0.325141	0.250217
H158	H	1.600967	0.174859	0.750217
Br159	Br	0.848910	-0.036148	0.058075
Br160	Br	1.348910	0.463852	0.558075
Br161	Br	1.002860	-0.252451	0.899869
Br162	Br	1.502860	0.247549	1.399869
H163	H	1.201222	-0.062614	0.837497
H164	H	1.701222	0.437386	1.337497
Br165	Br	1.080181	-0.861336	0.281952
Br166	Br	1.580181	-0.361336	0.781952
H167	H	1.101160	-0.725943	0.250258
H168	H	1.601160	-0.225943	0.750258
Br169	Br	1.262906	-0.721187	0.006901
Br170	Br	1.762906	-0.221187	0.506901
H171	H	1.141897	-0.119366	0.452027
H172	H	1.641897	0.380634	0.952027
H173	H	1.241941	-0.856576	0.038603
H174	H	1.741941	-0.356576	0.538603
Br175	Br	0.964970	-0.288704	0.712920
Br176	Br	1.464970	0.211296	1.212920
H177	H	0.716105	0.005154	-0.006639
H178	H	1.216105	0.505154	0.493361
Br179	Br	0.603539	0.040301	-0.061763
Br180	Br	1.103539	0.540301	0.438237
H181	H	1.249319	-0.016583	0.778850
H182	H	1.749319	0.483417	1.278850
Br183	Br	1.085101	-0.173765	0.467596
Br184	Br	1.585101	0.326235	0.967596
Br185	Br	1.262720	-0.320387	0.006862
Br186	Br	1.762720	0.179613	0.506862
H187	H	1.241734	-0.455781	0.038549
H188	H	1.741734	0.044219	0.538549
H189	H	0.756228	-0.203033	0.319739
H190	H	1.256228	0.296967	0.819739
H191	H	1.020201	-0.235832	0.600381
H192	H	1.520201	0.264168	1.100381
Br193	Br	1.079982	-0.460539	0.281899
Br194	Br	1.579982	0.039461	0.781899
Br195	Br	1.353661	0.083275	0.705350
Br196	Br	1.853661	0.583275	1.205350
Br197	Br	0.494656	-0.146172	0.230547
Br198	Br	0.994656	0.353828	0.730547
Br199	Br	1.378164	0.106715	0.576585
Br200	Br	1.878164	0.606715	1.076585
H201	H	0.443455	0.002194	-0.002031
H202	H	0.943455	0.502194	0.497969
Br203	Br	0.611252	-0.207010	0.325944
Br204	Br	1.111252	0.292990	0.825944
Br205	Br	0.926976	-0.198505	0.312652
Br206	Br	1.426976	0.301495	0.812652
H207	H	0.479046	-0.110007	0.173871
H208	H	0.979046	0.389993	0.673871
Br209	Br	1.340283	0.070466	0.389632
Br210	Br	1.840283	0.570466	0.889632
