data_functionalizedCrystal
_audit_creation_method	'MofGen! by Chris Wilmer'
_symmetry_space_group_name_H-M	'P1'
_symmetry_Int_Tables_number	1
_symmetry_cell_setting	triclinic
loop_
_symmetry_equiv_pos_as_xyz
  x,y,z
_cell_length_a	11.792241
_cell_length_b	10.489741
_cell_length_c	10.868271
_cell_angle_alpha	89.995151
_cell_angle_beta	89.999893
_cell_angle_gamma	84.366295
loop_
_atom_site_label
_atom_site_type_symbol
_atom_site_fract_x
_atom_site_fract_y
_atom_site_fract_z
O1	O	1.507380	0.174832	-0.102202
O2	O	1.840713	0.508166	0.231131
O3	O	2.174047	0.841499	0.564465
O4	O	1.177088	0.192851	-0.102231
O5	O	1.510421	0.526184	0.231103
O6	O	1.843754	0.859517	0.564436
O7	O	1.349749	-0.001782	-0.102208
O8	O	1.683083	0.331551	0.231125
O9	O	2.016416	0.664885	0.564458
O10	O	1.334718	0.369465	-0.102224
O11	O	1.668051	0.702798	0.231109
O12	O	2.001385	1.036132	0.564442
O13	O	1.349735	-0.001790	0.102436
O14	O	1.683068	0.331544	0.435770
O15	O	2.016402	0.664877	0.769103
O16	O	1.177073	0.192843	0.102414
O17	O	1.510407	0.526176	0.435747
O18	O	1.843740	0.859510	0.769081
O19	O	1.507366	0.174825	0.102443
O20	O	1.840699	0.508158	0.435776
O21	O	2.174032	0.841491	0.769109
Zn22	Zn	1.342217	0.183833	0.134920
Zn23	Zn	1.675551	0.517166	0.468253
Zn24	Zn	2.008884	0.850499	0.801587
Zn25	Zn	1.342236	0.183843	-0.134708
Zn26	Zn	1.675569	0.517176	0.198625
Zn27	Zn	2.008903	0.850509	0.531959
O28	O	1.334704	0.369457	0.102420
O29	O	1.668037	0.702791	0.435754
O30	O	2.001370	1.036124	0.769087
C31	C	1.134786	0.191715	0.000088
C32	C	1.468120	0.525048	0.333421
C33	C	1.801453	0.858382	0.666755
C34	C	1.008764	0.188327	0.000077
C35	C	1.342097	0.521661	0.333411
C36	C	1.675430	0.854994	0.666744
C37	C	0.778035	0.182098	0.000113
C38	C	1.111368	0.515431	0.333446
C39	C	1.444701	0.848765	0.666780
C40	C	0.906429	0.185559	0.000093
C41	C	1.239762	0.518893	0.333427
C42	C	1.573096	0.852226	0.666760
C43	C	1.348607	-0.049314	0.000113
C44	C	1.681940	0.284020	0.333447
C45	C	2.015274	0.617353	0.666780
C46	C	1.345210	-0.190931	0.000111
C47	C	1.678544	0.142402	0.333444
C48	C	2.011877	0.475735	0.666777
C49	C	1.235351	-0.258697	0.000092
C50	C	1.568684	0.074636	0.333426
C51	C	1.902017	0.407969	0.666759
C52	C	1.287240	-0.351000	0.100997
C53	C	1.620574	-0.017667	0.434330
C54	C	1.953907	0.315666	0.767664
C55	C	1.287281	-0.350967	-0.100767
C56	C	1.620614	-0.017634	0.232567
C57	C	1.953947	0.315699	0.565900
C58	C	1.397145	-0.281369	0.101099
C59	C	1.730479	0.051964	0.434432
C60	C	2.063812	0.385297	0.767766
C61	C	1.397170	-0.281327	-0.100755
C62	C	1.730504	0.052006	0.232578
C63	C	2.063837	0.385340	0.565911
C64	C	1.449140	-0.373603	0.000174
C65	C	1.782473	-0.040269	0.333508
C66	C	2.115806	0.293064	0.666841
C67	C	1.549667	0.175960	0.000121
C68	C	1.883000	0.509294	0.333455
C69	C	2.216334	0.842627	0.666788
C70	C	1.675690	0.179348	0.000124
C71	C	2.009023	0.512681	0.333457
C72	C	2.342356	0.846015	0.666791
C73	C	1.335846	0.416989	0.000096
C74	C	1.669180	0.750322	0.333430
C75	C	2.002513	1.083656	0.666763
C76	C	1.339243	0.558607	0.000091
C77	C	1.672576	0.891940	0.333424
C78	C	2.005909	1.225274	0.666757
N79	N	1.342213	0.183825	0.318934
N80	N	1.675546	0.517158	0.652268
N81	N	2.008879	0.850492	0.985601
N82	N	1.342250	0.183840	-0.318722
N83	N	1.675583	0.517174	0.014611
N84	N	2.008916	0.850507	0.347945
C85	C	1.342230	0.183840	0.569940
C86	C	1.675563	0.517173	0.903274
C87	C	2.008897	0.850507	1.236607
C88	C	1.342217	0.183835	0.430263
C89	C	1.675550	0.517169	0.763596
C90	C	2.008883	0.850502	1.096929
H91	H	1.145025	-0.208738	0.000186
H92	H	1.478358	0.124595	0.333519
H93	H	1.811692	0.457928	0.666853
F94	F	1.457886	-0.240949	-0.212255
F95	F	1.791219	0.092384	0.121079
F96	F	2.124553	0.425717	0.454412
F97	F	1.226505	-0.391256	-0.212264
F98	F	1.559839	-0.057923	0.121070
F99	F	1.893172	0.275411	0.454403
H100	H	1.539547	-0.423335	0.000238
H101	H	1.872880	-0.090002	0.333571
H102	H	2.206214	0.243332	0.666905
H103	H	1.240750	-0.381857	0.186297
H104	H	1.574084	-0.048523	0.519630
H105	H	1.907417	0.284810	0.852964
F106	F	1.457847	-0.241286	0.212726
F107	F	1.791180	0.092047	0.546059
F108	F	2.124513	0.425380	0.879393
