data_functionalizedCrystal
_audit_creation_method	'MofGen! by Chris Wilmer'
_symmetry_space_group_name_H-M	'P1'
_symmetry_Int_Tables_number	1
_symmetry_cell_setting	triclinic
loop_
_symmetry_equiv_pos_as_xyz
  x,y,z
_cell_length_a	10.654545
_cell_length_b	10.654543
_cell_length_c	16.776229
_cell_angle_alpha	89.990384
_cell_angle_beta	89.996768
_cell_angle_gamma	95.517374
loop_
_atom_site_label
_atom_site_type_symbol
_atom_site_fract_x
_atom_site_fract_y
_atom_site_fract_z
O1	O	1.667841	-0.176353	-0.066274
O2	O	1.302361	-0.193165	-0.066276
O3	O	1.493508	-0.002019	-0.066277
O4	O	1.476693	-0.367499	-0.066273
O5	O	1.493491	-0.002052	0.066300
O6	O	1.302344	-0.193198	0.066300
O7	O	1.667823	-0.176386	0.066303
Zn8	Zn	1.485081	-0.184798	0.087351
Zn9	Zn	1.485104	-0.184753	-0.087324
O10	O	1.476676	-0.367532	0.066303
C11	C	1.255554	-0.191948	0.000012
C12	C	1.116111	-0.188259	0.000010
C13	C	1.050597	-0.186540	0.072278
C14	C	0.919577	-0.183052	0.072278
C15	C	0.919597	-0.183007	-0.072264
C16	C	1.050615	-0.186486	-0.072263
C17	C	1.492267	0.044763	0.000010
C18	C	1.488578	0.184206	0.000003
C19	C	1.714630	-0.177603	0.000013
C20	C	1.854073	-0.181292	0.000009
N21	N	1.485074	-0.184827	0.206562
C22	C	1.601122	0.263694	0.000001
C23	C	1.597649	0.394715	-0.000014
C24	C	1.369078	0.366748	-0.000021
C25	C	1.372553	0.235729	-0.000012
C26	C	1.477924	0.585687	0.000006
C27	C	1.481630	0.446246	-0.000020
N28	N	1.485120	-0.184714	-0.206535
C29	C	1.408289	-0.107845	0.751733
C30	C	1.408286	-0.107855	0.668281
C31	C	1.485109	-0.184743	0.626562
C32	C	1.561948	-0.261615	0.668299
C33	C	1.561957	-0.261597	0.751750
C34	C	1.561916	-0.261689	0.331752
C35	C	1.561899	-0.261704	0.248296
C36	C	1.408246	-0.107947	0.248283
C37	C	1.408254	-0.107929	0.331733
C38	C	1.485098	-0.184796	0.373464
C39	C	1.485102	-0.184782	0.463952
C40	C	1.485099	-0.184765	0.536075
H41	H	1.103959	-0.187882	-0.131116
H42	H	1.624521	-0.324191	0.785727
H43	H	1.103919	-0.187983	0.131128
H44	H	0.866242	-0.181653	0.131126
H45	H	1.345693	-0.045324	0.365697
H46	H	1.689293	0.459429	-0.000017
O47	O	1.263339	0.158326	-0.000045
C48	C	1.291289	0.031639	-0.000018
H49	H	1.389987	0.025772	-0.025112
H50	H	1.219635	-0.027083	-0.038510
H51	H	1.286845	-0.006216	0.063587
O52	O	0.855884	-0.181520	-0.142445
C53	C	0.766792	-0.288073	-0.146758
H54	H	0.796988	-0.365020	-0.105747
H55	H	0.760851	-0.324464	-0.210676
H56	H	0.670498	-0.260897	-0.127341
O57	O	1.256484	0.417009	0.000008
C58	C	1.277547	0.549694	-0.000018
H59	H	1.375286	0.579603	0.025082
H60	H	1.203234	0.590552	0.038470
H61	H	1.271153	0.586223	-0.063623
H62	H	1.345725	-0.045241	0.785694
H63	H	1.695597	0.221748	0.000011
H64	H	1.345679	-0.045355	0.214296
O65	O	1.333532	-0.033153	0.627866
C66	C	1.265746	0.034729	0.682583
H67	H	1.258874	-0.017187	0.742078
H68	H	1.166921	0.043426	0.658476
H69	H	1.316627	0.132837	0.691439
O70	O	1.636652	-0.336425	0.207892
C71	C	1.704459	-0.404288	0.262618
H72	H	1.711348	-0.352354	0.322095
H73	H	1.803276	-0.412990	0.238495
H74	H	1.653584	-0.502395	0.271516
O75	O	1.636761	-0.336162	0.627813
C76	C	1.763934	-0.302564	0.648202
H77	H	1.775207	-0.201386	0.671120
H78	H	1.825775	-0.310472	0.593319
H79	H	1.793658	-0.368662	0.696654
H80	H	1.624487	-0.324279	0.365719
