data_functionalizedCrystal
_audit_creation_method	'MofGen! by Chris Wilmer'
_symmetry_space_group_name_H-M	'P1'
_symmetry_Int_Tables_number	1
_symmetry_cell_setting	triclinic
loop_
_symmetry_equiv_pos_as_xyz
  x,y,z
_cell_length_a	21.295420
_cell_length_b	21.295412
_cell_length_c	21.295418
_cell_angle_alpha	90.028980
_cell_angle_beta	89.974349
_cell_angle_gamma	89.976352
loop_
_atom_site_label
_atom_site_type_symbol
_atom_site_fract_x
_atom_site_fract_y
_atom_site_fract_z
Zn1	Zn	0.962362	-0.355921	0.250654
Zn2	Zn	1.462362	0.144079	0.750654
Zn3	Zn	0.962272	-0.250650	0.355923
Zn4	Zn	1.462272	0.249350	0.855923
Zn5	Zn	0.857088	-0.250666	0.250668
Zn6	Zn	1.357088	0.249334	0.750668
Zn7	Zn	0.857061	-0.355881	0.355886
Zn8	Zn	1.357061	0.144119	0.855886
O9	O	0.909696	-0.303279	0.303283
O10	O	1.409696	0.196721	0.803283
O11	O	1.050440	-0.341966	0.264628
O12	O	1.550440	0.158034	0.764628
O13	O	0.948293	-0.162562	0.341981
O14	O	1.448293	0.337438	0.841981
O15	O	0.871101	-0.264652	0.162577
O16	O	1.371101	0.235348	0.662577
O17	O	1.050374	-0.264624	0.341968
O18	O	1.550374	0.235376	0.841968
O19	O	0.948446	-0.341982	0.162567
O20	O	1.448446	0.158018	0.662567
O21	O	0.871014	-0.162574	0.264651
O22	O	1.371014	0.337426	0.764651
O23	O	0.768995	-0.264613	0.264616
O24	O	1.268995	0.235387	0.764616
O25	O	0.871056	-0.443976	0.341906
O26	O	1.371056	0.056024	0.841906
O27	O	0.768975	-0.341914	0.341919
O28	O	1.268975	0.158086	0.841919
O29	O	0.948420	-0.444005	0.264592
O30	O	1.448420	0.055995	0.764592
O31	O	0.948267	-0.264585	0.444007
O32	O	1.448267	0.235415	0.944007
O33	O	0.870968	-0.341898	0.443981
O34	O	1.370968	0.158102	0.943981
C35	C	0.746144	-0.303261	0.303266
C36	C	1.246144	0.196739	0.803266
C37	C	0.676176	-0.303268	0.303274
C38	C	1.176176	0.196732	0.803274
C39	C	0.176724	-0.343491	0.343609
C40	C	0.676724	0.156509	0.843609
C41	C	0.242467	-0.343484	0.343609
C42	C	0.742467	0.156516	0.843609
C43	C	0.275337	-0.303299	0.303297
C44	C	0.775337	0.196701	0.803297
C45	C	0.242459	-0.263106	0.262993
C46	C	0.742459	0.236894	0.762993
C47	C	0.176717	-0.263109	0.262999
C48	C	0.676717	0.236891	0.762999
N49	N	0.378574	-0.298565	0.248180
N50	N	0.878574	0.201435	0.748180
N51	N	0.441026	-0.298565	0.248177
N52	N	0.941026	0.201435	0.748177
C53	C	0.473411	-0.303286	0.303279
C54	C	0.973411	0.196714	0.803279
N55	N	0.440986	-0.308018	0.358386
N56	N	0.940986	0.191982	0.858386
N57	N	0.378529	-0.308021	0.358389
N58	N	0.878529	0.191979	0.858389
C59	C	0.346622	-0.303291	0.303287
C60	C	0.846622	0.196709	0.803287
C61	C	0.577567	-0.343466	0.343584
C62	C	1.077567	0.156534	0.843584
C63	C	0.643311	-0.343455	0.343585
C64	C	1.143311	0.156545	0.843585
C65	C	0.643301	-0.263080	0.262964
C66	C	1.143301	0.236920	0.762964
C67	C	0.577559	-0.263088	0.262968
C68	C	1.077559	0.236912	0.762968
C69	C	0.544696	-0.303284	0.303277
C70	C	1.044696	0.196716	0.803277
C71	C	0.909745	-0.467470	0.303244
C72	C	1.409745	0.032530	0.803244
C73	C	0.909766	-0.537438	0.303227
C74	C	1.409766	-0.037438	0.803227
C75	C	0.869538	-0.570301	0.262957
C76	C	1.369538	-0.070301	0.762957
C77	C	0.869535	-0.636043	0.262945
C78	C	1.369535	-0.136043	0.762945
C79	C	0.909773	-0.668920	0.303197
C80	C	1.409773	-0.168920	0.803197
C81	C	0.950004	-0.636049	0.343475
C82	C	1.450004	-0.136049	0.843475
C83	C	0.950001	-0.570308	0.343490
C84	C	1.450001	-0.070308	0.843490
N85	N	0.964878	-0.772159	0.308006
N86	N	1.464878	-0.272159	0.808006
N87	N	0.964879	-0.834610	0.307988
N88	N	1.464879	-0.334610	0.807988
C89	C	0.909784	-0.866995	0.303155
C90	C	1.409784	-0.366995	0.803155
N91	N	0.854687	-0.834569	0.298328
N92	N	1.354687	-0.334569	0.798328
N93	N	0.854687	-0.772112	0.298343
N94	N	1.354687	-0.272112	0.798343
C95	C	0.909781	-0.740206	0.303185
C96	C	1.409781	-0.240206	0.803185
C97	C	0.869550	-0.971144	0.262870
C98	C	1.369550	-0.471144	0.762870
C99	C	0.869547	-1.036888	0.262863
C100	C	1.369547	-0.536888	0.762863
C101	C	0.950021	-1.036892	0.343389
C102	C	1.450021	-0.536892	0.843389
C103	C	0.950019	-0.971150	0.343400
C104	C	1.450019	-0.471150	0.843400
C105	C	0.909784	-0.938280	0.303137
C106	C	1.409784	-0.438280	0.803137
C107	C	1.073886	-0.303298	0.303300
C108	C	1.573886	0.196702	0.803300
C109	C	1.143854	-0.303306	0.303308
C110	C	1.643854	0.196694	0.803308
C111	C	0.909622	-0.303249	0.466834
C112	C	1.409622	0.196751	0.966834
C113	C	0.909648	-0.303258	0.536803
C114	C	1.409648	0.196742	1.036803
C115	C	0.909683	-0.139728	0.303276
C116	C	1.409683	0.360272	0.803276
C117	C	0.909784	-0.069760	0.303116
C118	C	1.409784	0.430240	0.803116
C119	C	0.909787	-0.303323	0.139093
C120	C	1.409787	0.196677	0.639093
C121	C	0.909826	-0.303342	0.069124
C122	C	1.409826	0.196658	0.569124
C123	C	0.950096	-0.263124	1.036253
C124	C	1.450096	0.236876	1.536253
C125	C	0.950072	-0.263109	0.970511
C126	C	1.450072	0.236891	1.470511
C127	C	0.909784	-0.303323	0.937642
C128	C	1.409784	0.196677	1.437642
C129	C	0.869506	-0.343544	0.970521
C130	C	1.369506	0.156456	1.470521
C131	C	0.869527	-0.343554	1.036262
C132	C	1.369527	0.156446	1.536262
N133	N	0.904894	-0.358406	0.834390
N134	N	1.404894	0.141594	1.334390
N135	N	0.904879	-0.358396	0.771939
N136	N	1.404879	0.141604	1.271939
C137	C	0.909719	-0.303297	0.739567
C138	C	1.409719	0.196703	1.239567
N139	N	0.914588	-0.248208	0.772006
N140	N	1.414588	0.251792	1.272006
N141	N	0.914607	-0.248219	0.834464
N142	N	1.414607	0.251781	1.334464
C143	C	0.909757	-0.303318	0.866357
C144	C	1.409757	0.196682	1.366357
C145	C	0.949966	-0.263059	0.635411
C146	C	1.449966	0.236941	1.135411
C147	C	0.949937	-0.263043	0.569667
C148	C	1.449937	0.236957	1.069667
C149	C	0.869374	-0.343484	0.569678
C150	C	1.369374	0.156516	1.069678
C151	C	0.869399	-0.343495	0.635421
C152	C	1.369399	0.156505	1.135421
C153	C	0.909698	-0.303283	0.668283
C154	C	1.409698	0.196717	1.168283
H155	H	0.550809	-0.376195	0.376407
H156	H	1.050809	0.123805	0.876407
H157	H	0.982728	-0.230290	0.542903
H158	H	1.482728	0.269710	1.042903
H159	H	0.982866	-0.230357	0.943742
H160	H	1.482866	0.269643	1.443742
N161	N	0.828447	-0.937553	0.221759
N162	N	1.328447	-0.437553	0.721759
N163	N	0.828450	-0.878856	0.221777
N164	N	1.328450	-0.378856	0.721777
H165	H	0.799420	-0.855133	0.192744
H166	H	1.299420	-0.355133	0.692744
N167	N	0.991120	-0.669620	0.384585
N168	N	1.491120	-0.169620	0.884585
N169	N	1.027043	-0.640266	0.420534
N170	N	1.527043	-0.140266	0.920534
H171	H	1.056084	-0.663974	0.449569
H172	H	1.556084	-0.163974	0.949569
N173	N	0.991268	-0.222051	1.069810
N174	N	1.491268	0.277949	1.569810
N175	N	1.027224	-0.186146	1.040448
N176	N	1.527224	0.313854	1.540448
H177	H	1.056303	-0.157138	1.064148
H178	H	1.556303	0.342862	1.564148
H179	H	0.836702	-0.376286	0.943756
H180	H	1.336702	0.123714	1.443756
H181	H	0.982762	-0.543551	0.376282
H182	H	1.482762	-0.043551	0.876282
H183	H	0.269235	-0.376210	0.376427
H184	H	0.769235	0.123790	0.876427
H185	H	0.982779	-0.230316	0.662169
H186	H	1.482779	0.269684	1.162169
N187	N	0.828214	-0.384562	0.536119
N188	N	1.328214	0.115438	1.036119
N189	N	0.770132	-0.380333	0.543509
N190	N	1.270132	0.119667	1.043509
H191	H	0.741059	-0.409344	0.519806
H192	H	1.241059	0.090656	1.019806
H193	H	0.550796	-0.230367	0.230149
H194	H	1.050796	0.269633	0.730149
N195	N	0.828383	-0.384639	1.069833
N196	N	1.328383	0.115361	1.569833
N197	N	0.792409	-0.420539	1.040482
N198	N	1.292409	0.079461	1.540482
H199	H	0.763351	-0.449557	1.064191
H200	H	1.263351	0.050443	1.564191
N201	N	0.143170	-0.384544	0.384798
N202	N	0.643170	0.115456	0.884798
N203	N	0.150497	-0.380264	0.442876
N204	N	0.650497	0.119736	0.942876
H205	H	0.126800	-0.409257	0.471969
H206	H	0.626800	0.090743	0.971969
H207	H	0.836608	-0.376246	0.662185
H208	H	1.336608	0.123754	1.162185
N209	N	0.828442	-1.070449	0.221727
N210	N	1.328442	-0.570449	0.721727
N211	N	0.792523	-1.041089	0.185785
N212	N	1.292523	-0.541089	0.685785
H213	H	0.763491	-1.064792	0.156732
H214	H	1.263491	-0.564792	0.656732
H215	H	0.836778	-0.662806	0.230149
H216	H	1.336778	-0.162806	0.730149
N217	N	0.276041	-0.222058	0.221823
N218	N	0.776041	0.277942	0.721823
N219	N	0.334738	-0.222060	0.221823
N220	N	0.834738	0.277940	0.721823
H221	H	0.358456	-0.193066	0.192748
H222	H	0.858456	0.306934	0.692748
N223	N	0.676880	-0.384504	0.384763
N224	N	1.176880	0.115496	0.884763
N225	N	0.647527	-0.420387	0.420749
N226	N	1.147527	0.079613	0.920749
H227	H	0.671234	-0.449379	0.449833
H228	H	1.171234	0.050621	0.949833
N229	N	0.143128	-0.222072	0.221825
N230	N	0.643128	0.277928	0.721825
N231	N	0.084431	-0.222086	0.221831
N232	N	0.584431	0.277914	0.721831
H233	H	0.060706	-0.193105	0.192750
H234	H	0.560706	0.306895	0.692750
H235	H	0.670063	-0.230358	0.230143
H236	H	1.170063	0.269642	0.730143
H237	H	0.836773	-0.543542	0.230174
H238	H	1.336773	-0.043542	0.730174
N239	N	0.991117	-0.937587	0.384539
N240	N	1.491117	-0.437587	0.884539
N241	N	1.027038	-0.966946	0.420479
N242	N	1.527038	-0.466946	0.920479
H243	H	1.056064	-0.943243	0.449537
H244	H	1.556064	-0.443243	0.949537
H245	H	0.982785	-1.063660	0.376162
H246	H	1.482785	-0.563660	0.876162
