data_functionalizedCrystal
_audit_creation_method	'MofGen! by Chris Wilmer'
_symmetry_space_group_name_H-M	'P1'
_symmetry_Int_Tables_number	1
_symmetry_cell_setting	triclinic
loop_
_symmetry_equiv_pos_as_xyz
  x,y,z
_cell_length_a	10.723024
_cell_length_b	8.559649
_cell_length_c	7.088929
_cell_angle_alpha	84.674985
_cell_angle_beta	83.718137
_cell_angle_gamma	102.876733
loop_
_atom_site_label
_atom_site_type_symbol
_atom_site_fract_x
_atom_site_fract_y
_atom_site_fract_z
O1	O	-0.027906	-2.103422	-0.158957
O2	O	0.036470	-1.638923	-0.158966
O3	O	-0.178393	-1.881888	-0.158954
O4	O	0.186957	-1.860458	-0.158969
O5	O	-0.207166	-1.914357	0.159022
O6	O	0.007698	-1.671392	0.159011
O7	O	-0.056678	-2.135892	0.159020
Cu8	Cu	-0.027117	-1.906607	0.188049
Cu9	Cu	0.006909	-1.868208	-0.187995
O10	O	0.158185	-1.892927	0.159008
C11	C	0.026962	-1.595681	0.000021
C12	C	0.041484	-1.418460	0.000018
C13	C	-0.239119	-1.896563	0.000032
C14	C	-0.377194	-1.891897	0.000025
C15	C	-0.047170	-2.179133	0.000028
C16	C	-0.061691	-2.356353	0.000019
C17	C	-0.466115	-2.027846	0.000025
C18	C	-0.608824	-2.023026	0.000018
C19	C	0.218911	-1.878252	0.000017
C20	C	0.356987	-1.882917	0.000012
N21	N	-0.051052	-1.933626	0.452538
N22	N	0.030832	-1.841202	-0.452485
H23	H	-0.436593	-2.147807	0.000039
C24	C	-0.539856	-1.725674	0.000010
N25	N	-0.462150	-1.607239	0.000004
C26	C	0.145466	-1.711787	0.437208
N27	N	0.231809	-1.614307	0.354113
H28	H	-0.406717	-1.771936	0.000010
C29	C	-0.165692	-2.063047	0.562853
N30	N	-0.252039	-2.160523	0.645944
H31	H	-0.685189	-2.139411	0.000026
H32	H	-0.161133	-1.438759	0.000013
H33	H	0.140934	-1.336043	0.000003
