data_functionalizedCrystal
_audit_creation_method	'MofGen! by Chris Wilmer'
_symmetry_space_group_name_H-M	'P1'
_symmetry_Int_Tables_number	1
_symmetry_cell_setting	triclinic
loop_
_symmetry_equiv_pos_as_xyz
  x,y,z
_cell_length_a	23.532407
_cell_length_b	23.532409
_cell_length_c	10.868271
_cell_angle_alpha	89.997933
_cell_angle_beta	90.001021
_cell_angle_gamma	82.849119
loop_
_atom_site_label
_atom_site_type_symbol
_atom_site_fract_x
_atom_site_fract_y
_atom_site_fract_z
O1	O	0.755260	0.069135	-0.102161
O2	O	0.589397	0.079138	-0.102196
O3	O	0.677329	-0.008795	-0.102179
O4	O	0.667327	0.157068	-0.102178
O5	O	0.677322	-0.008798	0.102466
O6	O	0.589389	0.079135	0.102449
O7	O	0.755253	0.069132	0.102484
Zn8	Zn	0.672320	0.074133	0.134958
Zn9	Zn	0.672329	0.074137	-0.134670
O10	O	0.667320	0.157065	0.102467
C11	C	0.677071	-0.030013	0.000140
C12	C	0.676304	-0.093230	0.000131
C13	C	0.568177	0.078882	0.000122
C14	C	0.504960	0.078116	0.000108
C15	C	0.105857	0.125349	0.000164
C16	C	0.046457	0.124638	0.000172
O17	O	0.009713	0.168424	0.000217
N18	N	0.023830	0.072362	0.000169
C19	C	0.060608	0.020794	0.000172
O20	O	0.035908	-0.023737	0.000172
C21	C	0.120007	0.021506	0.000173
C22	C	0.142630	0.073785	0.000163
C23	C	0.128481	0.177625	0.000155
C24	C	0.187877	0.178336	0.000146
C25	C	0.224649	0.126772	0.000145
C26	C	0.202026	0.074496	0.000153
C27	C	0.156783	-0.030062	0.000185
C28	C	0.216185	-0.029345	0.000187
C29	C	0.238808	0.022934	0.000177
C30	C	0.298195	0.023643	0.000142
N31	N	0.320821	0.075920	0.000145
C32	C	0.284049	0.127484	0.000146
C33	C	-0.064135	0.019302	0.000171
C34	C	-0.123533	0.018589	0.000161
C35	C	-0.137679	0.122434	0.000163
C36	C	-0.078280	0.123146	0.000165
C37	C	-0.041508	0.071578	0.000174
C38	C	0.408785	0.128974	0.000124
C39	C	0.468187	0.129680	0.000109
C40	C	0.482329	0.025836	0.000114
C41	C	0.422932	0.025129	0.000122
C42	C	0.386161	0.076702	0.000132
O43	O	0.334973	-0.020119	0.000103
O44	O	0.308757	0.172007	0.000162
C45	C	0.673049	-0.366473	-0.111427
C46	C	0.673761	-0.307073	-0.111427
O47	O	0.674152	-0.276346	-0.206294
N48	N	0.674109	-0.277372	0.000127
C49	C	0.673752	-0.307076	0.111688
O50	O	0.674114	-0.276359	0.206573
C51	C	0.673044	-0.366476	0.111687
C52	C	0.672690	-0.396172	0.000126
C53	C	0.672696	-0.396169	-0.222979
C54	C	0.671983	-0.455565	-0.222978
C55	C	0.671624	-0.485265	-0.111426
C56	C	0.671977	-0.455568	0.000126
C57	C	0.672691	-0.396179	0.223247
C58	C	0.671984	-0.455583	0.223236
C59	C	0.671629	-0.485279	0.111675
C60	C	0.670906	-0.544663	0.111679
N61	N	0.670557	-0.574364	0.000126
C62	C	0.670916	-0.544664	-0.111427
C63	C	0.675239	-0.182333	0.111682
C64	C	0.675942	-0.122934	0.111685
C65	C	0.675952	-0.122935	-0.111431
C66	C	0.675245	-0.182334	-0.111432
C67	C	0.674890	-0.212033	0.000128
C68	C	0.669419	-0.669400	-0.111417
C69	C	0.668704	-0.728801	-0.111407
C70	C	0.668697	-0.728795	0.111708
C71	C	0.669409	-0.669399	0.111698
C72	C	0.669772	-0.639703	0.000126
O73	O	0.670516	-0.575428	0.206498
O74	O	0.670562	-0.575389	-0.206296
C75	C	0.776472	0.069388	0.000163
C76	C	0.839689	0.070154	0.000169
C77	C	0.667579	0.178283	0.000145
C78	C	0.668345	0.241500	0.000146
N79	N	0.672318	0.074129	0.318972
N80	N	0.672336	0.074136	-0.318684
C81	C	0.672326	0.074136	0.569978
C82	C	0.672320	0.074134	0.430301
H83	H	0.378853	0.170970	0.000136
C84	C	-0.168034	0.210726	0.105374
C85	C	-0.178107	0.179117	0.000175
H86	H	-0.192991	0.245718	0.105373
H87	H	-0.174858	0.189272	0.176723
H88	H	-0.129420	0.218633	0.105356
H89	H	-0.216720	0.171206	0.000197
H90	H	-0.171287	0.200575	-0.071193
C91	C	0.167909	0.280907	0.000169
C92	C	0.212739	0.235804	0.000157
H93	H	0.183256	0.316386	0.000188
H94	H	0.145038	0.278471	-0.071193
H95	H	0.145036	0.278456	0.071536
H96	H	0.235610	0.238253	-0.071215
H97	H	0.235619	0.238241	0.071526
C98	C	0.526788	0.190729	0.105277
C99	C	0.493058	0.187147	0.000090
H100	H	0.542144	0.226204	0.105256
H101	H	0.503914	0.188299	0.176635
H102	H	0.557188	0.160118	0.105262
H103	H	0.462655	0.217757	0.000110
H104	H	0.515934	0.189584	-0.071286
C105	C	0.719161	-0.609278	0.241180
C106	C	0.669788	-0.636758	0.234333
H107	H	0.719394	-0.589130	0.316891
H108	H	0.752091	-0.636977	0.236551
H109	H	0.719474	-0.583084	0.174749
H110	H	0.669476	-0.662956	0.300759
H111	H	0.636849	-0.609056	0.238974
H112	H	0.671695	-0.479761	0.314084
H113	H	0.098546	0.219617	0.000161
C114	C	0.625486	-0.242461	-0.240876
C115	C	0.674856	-0.214978	-0.234057
H116	H	0.625245	-0.262610	-0.316586
H117	H	0.625178	-0.268650	-0.174448
H118	H	0.592551	-0.214760	-0.236240
H119	H	0.707791	-0.242680	-0.238684
H120	H	0.675169	-0.188787	-0.300503
H121	H	-0.141947	-0.023982	0.000150
H122	H	-0.034198	-0.022693	0.000168
C123	C	0.722460	-0.336063	0.352684
C124	C	0.673087	-0.363543	0.345874
H125	H	0.722703	-0.315912	0.428390
H126	H	0.755390	-0.363761	0.348041
H127	H	0.722765	-0.309870	0.286247
H128	H	0.672784	-0.389738	0.412306
H129	H	0.640149	-0.335841	0.350529
H130	H	0.676243	-0.098742	-0.202263
C131	C	0.072023	-0.077279	0.000193
C132	C	0.131926	-0.087530	0.000195
H133	H	0.056679	-0.112761	0.000192
H134	H	0.059382	-0.056068	0.071550
H135	H	0.059381	-0.056065	-0.071179
H136	H	0.144567	-0.108741	0.071572
H137	H	0.144571	-0.108751	-0.071169
C138	C	-0.019700	0.184200	-0.105044
C139	C	-0.053418	0.180614	0.000156
H140	H	-0.004357	0.219682	-0.105050
H141	H	0.010704	0.153600	-0.105029
H142	H	-0.042583	0.181758	-0.176400
H143	H	-0.030534	0.183051	0.071513
H144	H	-0.083826	0.211222	0.000153
C145	C	0.667620	-0.819858	0.210750
C146	C	0.668312	-0.761450	0.234323
H147	H	0.667390	-0.840018	0.286449
H148	H	0.634288	-0.825064	0.164930
H149	H	0.700718	-0.834104	0.164900
H150	H	0.635211	-0.747203	0.280166
H151	H	0.701647	-0.756241	0.280162
C152	C	0.246527	-0.117639	-0.105013
C153	C	0.256606	-0.086031	0.000186
H154	H	0.271484	-0.152631	-0.105018
H155	H	0.207918	-0.125541	-0.104995
H156	H	0.253355	-0.096182	-0.176370
H157	H	0.249775	-0.107486	0.071544
H158	H	0.295225	-0.078130	0.000180
C159	C	0.442885	-0.077445	0.000111
C160	C	0.398061	-0.032337	0.000120
H161	H	0.427532	-0.112922	0.000124
H162	H	0.465751	-0.075006	-0.071256
H163	H	0.465764	-0.075005	0.071473
H164	H	0.375184	-0.034775	-0.071247
H165	H	0.375185	-0.034778	0.071494
C166	C	0.579669	-0.019171	0.000125
C167	C	0.522757	-0.030842	0.000123
H168	H	0.604627	-0.054162	0.000146
H169	H	0.586491	0.002273	-0.071241
H170	H	0.586487	0.002285	0.071487
H171	H	0.515938	-0.052294	-0.071244
H172	H	0.515932	-0.052294	0.071497
H173	H	0.669715	-0.645229	-0.202270
H174	H	0.668414	-0.752977	-0.202257
H175	H	0.672990	-0.371995	-0.313823
C176	C	0.672096	-0.449586	-0.443510
C177	C	0.671619	-0.488206	-0.345611
H178	H	0.671882	-0.469736	-0.519221
H179	H	0.639154	-0.421902	-0.438899
H180	H	0.705584	-0.430933	-0.438814
H181	H	0.638129	-0.506855	-0.350302
H182	H	0.704566	-0.515900	-0.350225
C183	C	0.675859	-0.128914	0.332220
C184	C	0.676324	-0.090295	0.234316
H185	H	0.676101	-0.108765	0.407929
H186	H	0.642368	-0.147554	0.327565
H187	H	0.708799	-0.156609	0.327573
H188	H	0.643382	-0.062602	0.238958
H189	H	0.709818	-0.071645	0.238973
C190	C	0.625458	-0.242451	0.241118
C191	C	0.674832	-0.214971	0.234323
H192	H	0.625209	-0.262599	0.316829
H193	H	0.592529	-0.214752	0.236452
H194	H	0.625158	-0.268645	0.174687
H195	H	0.675130	-0.188773	0.300749
H196	H	0.707770	-0.242673	0.239000
