data_functionalizedCrystal
_audit_creation_method	'MofGen! by Chris Wilmer'
_symmetry_space_group_name_H-M	'P1'
_symmetry_Int_Tables_number	1
_symmetry_cell_setting	triclinic
loop_
_symmetry_equiv_pos_as_xyz
  x,y,z
_cell_length_a	13.897449
_cell_length_b	21.295417
_cell_length_c	13.897441
_cell_angle_alpha	90.032897
_cell_angle_beta	90.026069
_cell_angle_gamma	90.027787
loop_
_atom_site_label
_atom_site_type_symbol
_atom_site_fract_x
_atom_site_fract_y
_atom_site_fract_z
Zn1	Zn	-1.474635	0.250590	-0.545503
Zn2	Zn	-1.474500	0.355869	-0.384198
Zn3	Zn	-1.313324	0.250618	-0.384206
Zn4	Zn	-1.313277	0.355825	-0.545436
O5	O	-1.393934	0.303226	-0.464836
O6	O	-1.609598	0.264563	-0.524130
O7	O	-1.453083	0.341937	-0.249217
O8	O	-1.334798	0.162525	-0.405635
O9	O	-1.609499	0.341911	-0.405620
O10	O	-1.453312	0.162505	-0.524139
O11	O	-1.334667	0.264609	-0.249224
O12	O	-1.178336	0.264567	-0.405569
O13	O	-1.334718	0.341836	-0.680426
O14	O	-1.178301	0.341863	-0.524023
O15	O	-1.453267	0.264520	-0.680476
O16	O	-1.453037	0.443953	-0.405555
O17	O	-1.334587	0.443921	-0.524015
C18	C	-1.143319	0.303213	-0.464790
C19	C	-1.036105	0.303223	-0.464794
C20	C	-0.949036	0.303225	-0.464806
C21	C	-0.839803	0.303228	-0.464830
C22	C	-1.393819	0.466777	-0.464798
C23	C	-1.393858	0.536745	-0.464814
C24	C	-1.394002	0.303170	-0.716429
C25	C	-1.394031	0.303146	-0.823643
C26	C	-0.645527	0.303236	-0.464870
C27	C	-0.752741	0.303234	-0.464855
C28	C	-1.455833	1.036199	-0.403345
C29	C	-1.455797	0.970457	-0.403319
C30	C	-1.394062	0.937585	-0.464935
C31	C	-1.332340	0.970461	-0.526563
C32	C	-1.332371	1.036202	-0.526581
N33	N	-1.386568	0.834328	-0.549334
N34	N	-1.386544	0.771876	-0.549315
C35	C	-1.393964	0.739510	-0.464884
N36	N	-1.401427	0.771955	-0.380472
N37	N	-1.401456	0.834412	-0.380492
C38	C	-1.394021	0.866299	-0.464922
C39	C	-1.455638	0.635356	-0.403226
C40	C	-1.455595	0.569613	-0.403199
C41	C	-1.332143	0.569618	-0.526452
C42	C	-1.332181	0.635361	-0.526471
C43	C	-1.393933	0.668226	-0.464859
C44	C	-1.394072	1.139035	-0.464907
C45	C	-1.394123	1.069067	-0.464969
C46	C	-1.394058	0.303104	-1.019938
C47	C	-1.394040	0.303129	-0.910706
C48	C	-1.393921	0.303236	-0.214221
C49	C	-1.394079	0.303082	-0.107008
H50	H	-1.506050	0.943690	-0.353135
O51	O	-1.515466	0.667347	-0.343301
C52	C	-1.528505	0.741574	-0.213028
C53	C	-1.460652	0.705404	-0.280863
H54	H	-1.484215	0.772342	-0.162516
H55	H	-1.578936	0.772353	-0.257288
H56	H	-1.572605	0.706765	-0.169016
H57	H	-1.416491	0.740168	-0.324889
H58	H	-1.410285	0.674615	-0.236548
H59	H	-1.505843	0.542851	-0.353011
O60	O	-1.516019	1.068113	-0.343687
C61	C	-1.646437	1.142181	-0.331058
C62	C	-1.578285	1.106090	-0.398693
H63	H	-1.696783	1.172904	-0.375501
H64	H	-1.690601	1.107375	-0.287101
H65	H	-1.602325	1.173015	-0.280484
H66	H	-1.622322	1.075256	-0.449324
H67	H	-1.534118	1.140930	-0.442582
H68	H	-1.282072	0.943693	-0.576730
O69	O	-1.272263	0.537597	-0.586275
C70	C	-1.217457	0.436322	-0.640827
C71	C	-1.285341	0.472510	-0.573047
H72	H	-1.227993	0.383693	-0.630142
H73	H	-1.234358	0.449153	-0.718649
H74	H	-1.139705	0.449335	-0.623822
H75	H	-1.363115	0.459516	-0.589966
H76	H	-1.268357	0.459676	-0.495245
O77	O	-1.272212	0.667195	-0.586432
C78	C	-1.149722	0.660261	-0.708637
C79	C	-1.217610	0.624131	-0.640796
H80	H	-1.105544	0.625459	-0.752593
H81	H	-1.193947	0.690974	-0.759193
H82	H	-1.099368	0.691104	-0.664292
H83	H	-1.267978	0.593253	-0.685063
H84	H	-1.173325	0.593457	-0.590238
O85	O	-1.272397	1.068036	-0.586541
C86	C	-1.149905	1.061104	-0.708745
C87	C	-1.217790	1.024973	-0.640902
H88	H	-1.105724	1.026303	-0.752699
H89	H	-1.194132	1.091815	-0.759302
H90	H	-1.099554	1.091950	-0.664400
H91	H	-1.268155	0.994092	-0.685169
H92	H	-1.173503	0.994302	-0.590342
