data_functionalizedCrystal
_audit_creation_method	'MofGen! by Chris Wilmer'
_symmetry_space_group_name_H-M	'P1'
_symmetry_Int_Tables_number	1
_symmetry_cell_setting	triclinic
loop_
_symmetry_equiv_pos_as_xyz
  x,y,z
_cell_length_a	16.959454
_cell_length_b	10.686220
_cell_length_c	10.686551
_cell_angle_alpha	90.308082
_cell_angle_beta	94.404578
_cell_angle_gamma	85.598365
loop_
_atom_site_label
_atom_site_type_symbol
_atom_site_fract_x
_atom_site_fract_y
_atom_site_fract_z
Zn1	Zn	-0.192706	-1.972261	0.562392
Zn2	Zn	0.307294	-1.472261	1.062392
Zn3	Zn	-0.335773	-1.956011	0.352638
Zn4	Zn	0.164227	-1.456011	0.852638
Zn5	Zn	-0.212926	-1.746376	0.368710
Zn6	Zn	0.287074	-1.246376	0.868710
Zn7	Zn	-0.334171	-1.762442	0.578415
Zn8	Zn	0.165829	-1.262442	1.078415
O9	O	-0.268894	-1.859272	0.465539
O10	O	0.231106	-1.359272	0.965539
O11	O	-0.203892	-2.145648	0.521135
O12	O	0.296108	-1.645648	1.021135
O13	O	-0.328610	-1.914679	0.179225
O14	O	0.171390	-1.414679	0.679225
O15	O	-0.099628	-1.776417	0.394423
O16	O	0.400372	-1.276417	0.894423
O17	O	-0.309003	-2.133710	0.367030
O18	O	0.190997	-1.633710	0.867030
O19	O	-0.084773	-1.942373	0.536720
O20	O	0.415227	-1.442373	1.036720
O21	O	-0.238355	-1.760661	0.191033
O22	O	0.261645	-1.260661	0.691033
O23	O	-0.236801	-1.572964	0.409960
O24	O	0.263199	-1.072964	0.909960
O25	O	-0.306273	-1.803798	0.751835
O26	O	0.193727	-1.303798	1.251835
O27	O	-0.325880	-1.584768	0.564030
O28	O	0.174120	-1.084768	1.064030
O29	O	-0.202339	-1.957951	0.740063
O30	O	0.297661	-1.457951	1.240063
O31	O	-0.446176	-1.930257	0.382567
O32	O	0.053824	-1.430257	0.882567
O33	O	-0.444999	-1.788042	0.548445
O34	O	0.055001	-1.288042	1.048445
C35	C	-0.283361	-1.533350	0.490478
C36	C	0.216639	-1.033350	0.990478
C37	C	-0.289568	-1.393921	0.501177
C38	C	0.210432	-0.893921	1.001177
C39	C	-0.474266	-1.859166	0.465525
C40	C	0.025734	-1.359166	0.965525
C41	C	-0.562118	-1.859238	0.465553
C42	C	-0.062118	-1.359238	0.965553
C43	C	-0.251872	-1.884480	0.792738
C44	C	0.248128	-1.384480	1.292738
C45	C	-0.244618	-1.895221	0.932171
C46	C	0.255382	-1.395221	1.432171
C47	C	-0.933005	-1.785337	0.551894
C48	C	-0.433005	-1.285337	1.051894
C49	C	-0.934158	-1.933567	0.379285
C50	C	-0.434158	-1.433567	0.879285
C51	C	-0.851615	-1.933522	0.379276
C52	C	-0.351615	-1.433522	0.879276
C53	C	-0.809763	-1.859382	0.465577
C54	C	-0.309763	-1.359382	0.965577
C55	C	-0.850454	-1.785287	0.551886
C56	C	-0.350454	-1.285287	1.051886
C57	C	-0.810918	-2.007607	0.292961
C58	C	-0.310918	-1.507607	0.792961
C59	C	-0.728369	-2.007564	0.292948
C60	C	-0.228369	-1.507564	0.792948
C61	C	-0.686515	-1.933430	0.379256
C62	C	-0.186515	-1.433430	0.879256
C63	C	-0.727212	-1.859333	0.465569
C64	C	-0.227212	-1.359333	0.965569
C65	C	-0.685360	-1.785193	0.551870
C66	C	-0.185360	-1.285193	1.051870
C67	C	-0.726054	-1.711101	0.638190
C68	C	-0.226054	-1.211101	1.138190
C69	C	-0.808600	-1.711153	0.638193
C70	C	-0.308600	-1.211153	1.138193
C71	C	-0.603970	-1.933378	0.379252
C72	C	-0.103970	-1.433378	0.879252
C73	C	-0.602809	-1.785143	0.551862
C74	C	-0.102809	-1.285143	1.051862
C75	C	-0.062717	-1.859416	0.465577
C76	C	0.437283	-1.359416	0.965577
C77	C	0.025143	-1.859477	0.465593
C78	C	0.525143	-1.359477	0.965593
C79	C	-0.254371	-2.186468	0.440502
C80	C	0.245629	-1.686468	0.940502
C81	C	-0.248182	-2.325899	0.429834
C82	C	0.251818	-1.825899	0.929834
C83	C	-0.285790	-1.834236	0.139606
C84	C	0.214210	-1.334236	0.639606
C85	C	-0.292810	-1.823737	0.000156
C86	C	0.207190	-1.323737	0.500156
H87	H	-0.568738	-1.724774	0.622143
H88	H	-0.068738	-1.224774	1.122143
H89	H	-0.197809	-1.964650	0.980643
H90	H	0.302191	-1.464650	1.480643
C91	C	-0.343858	-1.328489	0.594755
C92	C	0.156142	-0.828489	1.094755
N93	N	-0.384747	-1.279205	0.665239
N94	N	0.115253	-0.779205	1.165239
H95	H	-0.339621	-1.754322	0.951689
H96	H	0.160379	-1.254322	1.451689
H97	H	-0.841741	-1.650830	0.708469
H98	H	-0.341741	-1.150830	1.208469
H99	H	-0.695241	-2.067894	0.222664
H100	H	-0.195241	-1.567894	0.722664
H101	H	-0.966141	-1.725017	0.622177
H102	H	-0.466141	-1.225017	1.122177
C103	C	-0.980199	-2.015103	0.284348
C104	C	-0.480199	-1.515103	0.784348
N105	N	-1.014880	-2.076518	0.212837
N106	N	-0.514880	-1.576518	0.712837
C107	C	-0.856961	-2.089135	0.198020
C108	C	-0.356961	-1.589135	0.698020
N109	N	-0.891645	-2.150542	0.126504
N110	N	-0.391645	-1.650542	0.626504
C111	C	-0.680007	-1.629549	0.733117
C112	C	-0.180007	-1.129549	1.233117
N113	N	-0.645320	-1.568127	0.804614
N114	N	-0.145320	-1.068127	1.304614
C115	C	-0.559210	-2.014875	0.284308
C116	C	-0.059210	-1.514875	0.784308
N117	N	-0.525497	-2.076267	0.212794
N118	N	-0.025497	-1.576267	0.712794
C119	C	-0.193892	-1.391326	0.336264
C120	C	0.306108	-0.891326	0.836264
N121	N	-0.152998	-1.440614	0.265789
N122	N	0.347002	-0.940614	0.765789
