data_functionalizedCrystal
_audit_creation_method	'MofGen! by Chris Wilmer'
_symmetry_space_group_name_H-M	'P1'
_symmetry_Int_Tables_number	1
_symmetry_cell_setting	triclinic
loop_
_symmetry_equiv_pos_as_xyz
  x,y,z
_cell_length_a	15.537862
_cell_length_b	12.837942
_cell_length_c	11.892095
_cell_angle_alpha	85.697431
_cell_angle_beta	87.651802
_cell_angle_gamma	108.953313
loop_
_atom_site_label
_atom_site_type_symbol
_atom_site_fract_x
_atom_site_fract_y
_atom_site_fract_z
O1	O	1.225981	0.334386	-0.093971
O2	O	0.962104	0.218580	-0.093980
O3	O	1.088191	0.425183	-0.093969
O4	O	1.099894	0.127783	-0.093983
O5	O	1.077676	0.407977	0.094037
O6	O	0.951589	0.201374	0.094026
O7	O	1.215466	0.317180	0.094035
Zn8	Zn	1.081858	0.256545	0.123881
Zn9	Zn	1.095712	0.279215	-0.123826
O10	O	1.089379	0.110577	0.094024
C11	C	0.922837	0.197860	0.000022
C12	C	0.821498	0.161768	0.000018
C13	C	1.078980	0.453713	0.000033
C14	C	1.067190	0.564353	0.000031
C15	C	1.254733	0.337900	0.000030
C16	C	1.356073	0.373993	0.000026
C17	C	1.501568	0.520291	0.000026
C18	C	1.406344	0.486365	0.000030
C19	C	1.401012	0.295501	0.000026
C20	C	1.496238	0.329410	0.000028
C21	C	1.546508	0.441806	0.000027
C22	C	1.541177	0.250926	0.000028
C23	C	1.636395	0.284834	0.000025
C24	C	1.686672	0.397225	0.000020
C25	C	1.641725	0.475714	0.000023
C26	C	1.490905	0.138531	0.000021
C27	C	1.535845	0.060047	0.000022
C28	C	1.631064	0.093953	0.000026
C29	C	1.681341	0.206345	0.000022
C30	C	1.676010	0.015464	0.000023
C31	C	1.771227	0.049372	0.000019
C32	C	1.776558	0.240252	0.000018
C33	C	1.098590	0.082047	0.000019
C34	C	1.110381	-0.028592	0.000014
N35	N	1.072410	0.241076	0.292934
C36	C	1.208934	0.858656	0.000012
C37	C	1.197860	0.962615	0.000010
C38	C	1.033970	0.876232	0.000016
C39	C	1.045044	0.772273	0.000018
C40	C	1.132528	0.763491	0.000018
C41	C	1.143601	0.659529	0.000029
C42	C	0.979712	0.573150	0.000027
C43	C	0.968638	0.677108	0.000024
N44	N	1.105166	0.294694	-0.292879
C45	C	1.170905	0.402390	0.529591
C46	C	1.164308	0.391573	0.647932
C47	C	1.052615	0.208628	0.647960
C48	C	1.059212	0.219446	0.529619
C49	C	1.118360	0.316329	0.470438
C50	C	1.124961	0.327142	0.352095
C51	C	1.013264	0.144202	0.352125
C52	C	1.006667	0.133385	0.470466
H53	H	1.817491	0.331776	0.000024
H54	H	1.207094	0.461653	0.696091
H55	H	0.917496	0.495650	0.000040
C56	C	0.987558	0.102071	0.713071
H57	H	0.991160	0.107957	0.792022
H58	H	0.926842	0.091877	0.693692
H59	H	1.004549	0.040635	0.693681
H60	H	1.413374	0.110928	0.000021
H61	H	1.494902	-0.031466	0.000018
H62	H	0.958508	0.054506	0.518665
C63	C	1.791409	0.434533	0.000014
H64	H	1.814911	0.512711	0.000004
H65	H	1.808306	0.400961	0.065573
H66	H	1.815628	0.412956	-0.065559
H67	H	1.260078	1.040099	0.000002
H68	H	1.635066	-0.076047	0.000013
C69	C	0.955473	0.049524	0.287055
H70	H	0.967872	0.069838	0.208099
H71	H	0.970306	-0.015445	0.306457
H72	H	0.892588	0.035780	0.306454
C73	C	1.697029	0.599349	0.000017
H74	H	1.656630	0.641241	0.000011
H75	H	1.730627	0.610551	0.065572
H76	H	1.737942	0.622532	-0.065560
C77	C	1.305159	0.848987	0.000021
H78	H	1.349079	0.920556	0.000015
H79	H	1.309216	0.804230	0.065583
H80	H	1.316553	0.816228	-0.065549
H81	H	1.807818	-0.014539	0.000030
H82	H	0.962744	0.883405	0.000004
H83	H	1.542501	0.611814	0.000032
C84	C	1.239826	0.649860	0.000028
H85	H	1.235481	0.574316	0.000042
H86	H	1.275345	0.690638	-0.065535
H87	H	1.268014	0.678649	0.065597
C88	C	1.356913	0.572705	0.000031
H89	H	1.400493	0.644497	0.000036
H90	H	1.323543	0.569441	-0.065529
H91	H	1.316217	0.557450	0.065603
C92	C	0.872412	0.686773	0.000020
H93	H	0.828494	0.615205	0.000016
H94	H	0.861019	0.719541	0.065577
H95	H	0.868352	0.731523	-0.065556
C96	C	1.345710	0.171873	0.000034
H97	H	1.282565	0.162917	0.000044
H98	H	1.363882	0.144204	-0.065524
H99	H	1.356555	0.132227	0.065609
H100	H	1.173125	0.406028	0.303911
C101	C	1.235966	0.508951	0.464489
H102	H	1.266314	0.558660	0.516668
H103	H	1.279708	0.491349	0.418311
H104	H	1.202006	0.542600	0.418336
