data_functionalizedCrystal
_audit_creation_method	'MofGen! by Chris Wilmer'
_symmetry_space_group_name_H-M	'P1'
_symmetry_Int_Tables_number	1
_symmetry_cell_setting	triclinic
loop_
_symmetry_equiv_pos_as_xyz
  x,y,z
_cell_length_a	14.853566
_cell_length_b	26.809956
_cell_length_c	14.853567
_cell_angle_alpha	90.000742
_cell_angle_beta	83.634672
_cell_angle_gamma	90.013216
loop_
_atom_site_label
_atom_site_type_symbol
_atom_site_fract_x
_atom_site_fract_y
_atom_site_fract_z
O1	O	1.196381	0.041442	0.117697
O2	O	0.933921	0.041450	0.131719
O3	O	1.072162	0.041447	-0.006522
O4	O	1.058140	0.041445	0.255938
O5	O	1.072119	-0.041512	-0.006522
O6	O	0.933878	-0.041509	0.131719
O7	O	1.196338	-0.041517	0.117696
Zn8	Zn	1.065102	-0.054685	0.124708
Zn9	Zn	1.065158	0.054618	0.124708
O10	O	1.058098	-0.041514	0.255938
C11	C	0.900311	-0.000029	0.131084
C12	C	0.800227	-0.000025	0.129181
C13	C	0.377066	0.045187	0.121130
C14	C	0.377041	-0.045258	0.121130
C15	C	0.471075	-0.045257	0.122918
C16	C	0.518108	-0.000033	0.123813
C17	C	0.471108	0.045190	0.122920
C18	C	0.518081	-0.090479	0.123819
C19	C	0.612121	-0.090479	0.125608
C20	C	0.659157	-0.045254	0.126497
C21	C	0.612151	-0.000030	0.125603
C22	C	0.659185	0.045194	0.126498
C23	C	0.612181	0.090419	0.125598
C24	C	0.518144	0.090415	0.123809
C25	C	0.753194	-0.045250	0.128286
C26	C	0.753227	0.045197	0.128288
N27	N	1.065070	-0.129281	0.124707
C28	C	1.119890	-0.473909	0.179477
C29	C	1.119919	-0.682787	0.179477
O30	O	1.166505	-0.709793	0.226034
N31	N	1.065179	-0.708908	0.124699
C32	C	1.010433	-0.682806	0.069913
O33	O	0.963881	-0.709816	0.023315
C34	C	1.010409	-0.473929	0.069910
C35	C	1.065146	-0.447811	0.124698
C36	C	1.174622	-0.447791	0.234260
C37	C	1.174611	-0.395574	0.234263
C38	C	1.119867	-0.369476	0.179484
C39	C	1.065134	-0.395595	0.124701
C40	C	0.955668	-0.447829	0.015120
C41	C	0.955669	-0.395606	0.015122
C42	C	1.010405	-0.369488	0.069910
C43	C	1.010378	-0.317280	0.069925
N44	N	1.065118	-0.291160	0.124702
C45	C	1.119862	-0.317257	0.179482
C46	C	1.010448	-0.792469	0.069920
C47	C	1.010452	-0.844688	0.069922
C48	C	1.119940	-0.844665	0.179485
C49	C	1.119930	-0.792445	0.179487
C50	C	1.065187	-0.766348	0.124698
C51	C	1.119833	-0.207599	0.179485
C52	C	1.119814	-0.155379	0.179486
C53	C	1.010330	-0.155406	0.069921
C54	C	1.010346	-0.207622	0.069923
C55	C	1.065104	-0.233718	0.124708
O56	O	0.963824	-0.290242	0.023384
O57	O	1.166422	-0.290238	0.226059
C58	C	1.119901	-0.526125	0.179474
C59	C	1.065169	-0.552244	0.124691
C60	C	1.010424	-0.526146	0.069912
C61	C	1.065173	-0.604463	0.124693
C62	C	1.119917	-0.630561	0.179473
C63	C	1.174657	-0.604440	0.234250
C64	C	1.174645	-0.552223	0.234254
C65	C	0.955685	-0.552267	0.015134
C66	C	0.955700	-0.604483	0.015136
C67	C	1.010444	-0.630581	0.069916
C68	C	1.229948	-0.000037	0.118332
C69	C	1.330032	-0.000037	0.120235
C70	C	1.071505	-0.000031	-0.040111
C71	C	1.069601	-0.000026	-0.140194
N72	N	1.065197	0.129214	0.124702
C73	C	0.979435	-0.000033	-0.552728
C74	C	1.143668	-0.000038	-0.574009
C75	C	1.145458	-0.000035	-0.479976
C76	C	1.064236	-0.000032	-0.422313
C77	C	0.981223	-0.000032	-0.458685
C78	C	1.228470	-0.000040	-0.443597
C79	C	1.230263	-0.000038	-0.349558
C80	C	1.149040	-0.000031	-0.291894
C81	C	1.066023	-0.000031	-0.328271
C82	C	0.984801	-0.000027	-0.270608
C83	C	0.901784	-0.000023	-0.306984
C84	C	0.899999	-0.000025	-0.401021
C85	C	1.150824	-0.000029	-0.197856
C86	C	0.986588	-0.000026	-0.176566
C87	C	1.058754	-0.000035	0.289526
C88	C	1.060658	-0.000036	0.389610
H89	H	1.164387	-0.134115	0.224106
Br90	Br	0.881367	-0.516856	-0.059203
H91	H	1.209796	-0.000044	-0.620963
Br92	Br	0.787344	-0.000016	-0.450393
H93	H	0.965870	-0.865949	0.025319
H94	H	1.294597	-0.000047	-0.490552
H95	H	1.219206	-0.469034	0.278868
Br96	Br	0.454355	0.151786	0.122546
H97	H	0.650488	0.127241	0.126333
H98	H	0.911845	-0.000028	-0.582349
Br99	Br	0.817053	0.106576	0.129492
Br100	Br	0.936035	-0.119977	-0.004416
Br101	Br	1.194150	-0.243007	0.253836
H102	H	1.297861	-0.000041	-0.319950
Br103	Br	0.816979	-0.106621	0.129517
Br104	Br	0.936049	-0.243070	-0.004422
H105	H	0.338792	0.082008	0.120394
Br106	Br	0.936129	-0.757059	-0.004426
Br107	Br	1.248926	-0.516785	0.308621
Br108	Br	0.313207	-0.106631	0.119930
H109	H	1.219187	-0.374313	0.278874
H110	H	0.479778	-0.127298	0.123097
Br111	Br	0.675903	-0.151854	0.126829
H112	H	1.164501	-0.771183	0.224101
H113	H	1.219227	-0.625698	0.278858
H114	H	0.920446	-0.000021	-0.129622
H115	H	1.218415	-0.000036	-0.168244
H116	H	0.911118	-0.625744	-0.029477
Br117	Br	1.194237	-0.880094	0.253826
Br118	Br	0.791558	-0.000025	-0.228717
Br119	Br	0.881381	-0.360192	-0.059249
H120	H	0.911097	-0.469085	-0.029496
