data_functionalizedCrystal
_audit_creation_method	'MofGen! by Chris Wilmer'
_symmetry_space_group_name_H-M	'P1'
_symmetry_Int_Tables_number	1
_symmetry_cell_setting	triclinic
loop_
_symmetry_equiv_pos_as_xyz
  x,y,z
_cell_length_a	6.817900
_cell_length_b	16.256275
_cell_length_c	16.256277
_cell_angle_alpha	95.347190
_cell_angle_beta	103.500353
_cell_angle_gamma	103.500333
loop_
_atom_site_label
_atom_site_type_symbol
_atom_site_fract_x
_atom_site_fract_y
_atom_site_fract_z
V1	V	-4.026905	-0.117778	-0.264177
O2	O	-4.014314	0.004956	-0.258838
O3	O	-3.978519	-0.232858	-0.262668
O4	O	-3.978523	-0.116276	-0.379257
O5	O	-4.014311	-0.112434	-0.141441
V6	V	-4.510529	-0.103062	-0.249460
O7	O	-4.287942	-0.150061	-0.296458
O8	O	-4.699689	-0.070779	-0.217179
O9	O	-4.335709	0.012018	-0.250969
O10	O	-4.640517	-0.225796	-0.254799
O11	O	-4.640521	-0.108406	-0.372195
O12	O	-4.335705	-0.104564	-0.134380
C13	C	-3.823522	-0.260902	-0.258577
C14	C	-3.865248	-0.354983	-0.258111
C15	C	-4.156196	-0.586814	-0.261385
C16	C	-4.122483	-0.651960	-0.329025
C17	C	-3.941549	-0.527229	-0.257242
C18	C	-4.049597	-0.629721	-0.188787
C19	C	-4.015264	-0.693611	-0.256399
C20	C	-3.907316	-0.591145	-0.324946
C21	C	-3.834421	-0.568892	-0.184646
C22	C	-3.800567	-0.634012	-0.252300
C23	C	-3.899089	-0.431381	-0.257728
C24	C	-4.057711	-0.789457	-0.255919
C25	C	-3.823526	-0.112189	-0.407297
C26	C	-3.865252	-0.111721	-0.501378
C27	C	-4.156197	-0.114987	-0.733207
C28	C	-4.049625	-0.042354	-0.776111
C29	C	-3.941549	-0.110842	-0.673622
C30	C	-4.122421	-0.182590	-0.798346
C31	C	-4.015264	-0.109996	-0.840003
C32	C	-3.834396	-0.038157	-0.715278
C33	C	-3.907250	-0.178457	-0.737518
C34	C	-3.800519	-0.105804	-0.780390
C35	C	-3.899088	-0.111328	-0.577775
C36	C	-4.057705	-0.109503	-0.935848
C37	C	-4.154048	0.040058	-0.255057
C38	C	-4.091560	0.134138	-0.255529
C39	C	-4.154044	-0.108654	-0.106335
C40	C	-4.091557	-0.109117	-0.012253
H41	H	-4.244648	-0.688006	-0.390063
H42	H	-4.110196	0.015194	-0.793355
H43	H	-4.306073	-0.118785	-0.712327
N44	N	-4.344274	-0.560632	-0.266297
N45	N	-4.438400	-0.573010	-0.209313
H46	H	-4.571226	-0.554518	-0.212784
N47	N	-3.831547	-0.569687	-0.397233
N48	N	-3.809720	-0.627125	-0.448346
H49	H	-3.756216	-0.611971	-0.499400
H50	H	-4.244617	-0.243622	-0.834389
H51	H	-3.650477	-0.654729	-0.248473
H52	H	-3.712316	-0.532828	-0.123607
N53	N	-4.125635	-0.651342	-0.116602
N54	N	-4.291599	-0.635622	-0.108409
H55	H	-4.345312	-0.650887	-0.057430
N56	N	-3.681211	0.038485	-0.670191
N57	N	-3.512826	0.034131	-0.622156
H58	H	-3.404639	0.088259	-0.590312
H59	H	-3.650385	-0.101895	-0.801094
H60	H	-3.846744	-0.236011	-0.720259
