data_functionalizedCrystal
_audit_creation_method	'MofGen! by Chris Wilmer'
_symmetry_space_group_name_H-M	'P1'
_symmetry_Int_Tables_number	1
_symmetry_cell_setting	triclinic
loop_
_symmetry_equiv_pos_as_xyz
  x,y,z
_cell_length_a	19.188930
_cell_length_b	19.188930
_cell_length_c	15.186229
_cell_angle_alpha	89.991143
_cell_angle_beta	89.982767
_cell_angle_gamma	83.144779
loop_
_atom_site_label
_atom_site_type_symbol
_atom_site_fract_x
_atom_site_fract_y
_atom_site_fract_z
O1	O	0.926144	0.087167	-0.073521
O2	O	1.176144	0.337167	0.176479
O3	O	1.426144	0.587167	0.426479
O4	O	1.676144	0.837167	0.676479
O5	O	0.722832	0.098901	-0.073462
O6	O	0.972832	0.348901	0.176538
O7	O	1.222832	0.598901	0.426538
O8	O	1.472832	0.848901	0.676538
O9	O	0.830355	-0.008622	-0.073476
O10	O	1.080355	0.241378	0.176524
O11	O	1.330355	0.491378	0.426524
O12	O	1.580355	0.741378	0.676524
O13	O	0.818621	0.194689	-0.073507
O14	O	1.068621	0.444689	0.176493
O15	O	1.318621	0.694689	0.426493
O16	O	1.568621	0.944689	0.676493
O17	O	0.830348	-0.008623	0.072981
O18	O	1.080348	0.241377	0.322981
O19	O	1.330348	0.491377	0.572981
O20	O	1.580348	0.741377	0.822981
O21	O	0.722825	0.098899	0.072995
O22	O	0.972825	0.348899	0.322995
O23	O	1.222825	0.598899	0.572995
O24	O	1.472825	0.848899	0.822995
O25	O	0.926137	0.087165	0.072936
O26	O	1.176137	0.337165	0.322936
O27	O	1.426137	0.587165	0.572936
O28	O	1.676137	0.837165	0.822936
Zn29	Zn	0.824480	0.093032	0.096219
Zn30	Zn	1.074480	0.343032	0.346219
Zn31	Zn	1.324480	0.593032	0.596219
Zn32	Zn	1.574480	0.843032	0.846219
Zn33	Zn	0.824489	0.093034	-0.096745
Zn34	Zn	1.074489	0.343034	0.153255
Zn35	Zn	1.324489	0.593034	0.403255
Zn36	Zn	1.574489	0.843034	0.653255
O37	O	0.818614	0.194688	0.072950
O38	O	1.068614	0.444688	0.322950
O39	O	1.318614	0.694688	0.572950
O40	O	1.568614	0.944688	0.822950
C41	C	0.696818	0.098520	-0.000226
C42	C	0.946818	0.348520	0.249774
C43	C	1.196818	0.598520	0.499774
C44	C	1.446818	0.848520	0.749774
C45	C	0.619313	0.097380	-0.000203
C46	C	0.869313	0.347380	0.249797
C47	C	1.119313	0.597380	0.499797
C48	C	1.369313	0.847380	0.749797
C49	C	0.574389	0.160470	-0.000226
C50	C	0.824389	0.410470	0.249774
C51	C	1.074389	0.660470	0.499774
C52	C	1.324389	0.910470	0.749774
C53	C	0.501566	0.159399	-0.000236
C54	C	0.751566	0.409399	0.249764
C55	C	1.001566	0.659399	0.499764
C56	C	1.251566	0.909399	0.749764
C57	C	0.473669	0.095233	-0.000239
C58	C	0.723669	0.345233	0.249761
C59	C	0.973669	0.595233	0.499761
C60	C	1.223669	0.845233	0.749761
C61	C	0.518603	0.032133	-0.000211
C62	C	0.768603	0.282133	0.249789
C63	C	1.018603	0.532133	0.499789
C64	C	1.268603	0.782133	0.749789
C65	C	0.591425	0.033207	-0.000193
C66	C	0.841425	0.283207	0.249807
C67	C	1.091425	0.533207	0.499807
C68	C	1.341425	0.783207	0.749807
N69	N	0.365691	0.046186	-0.050113
N70	N	0.615691	0.296186	0.199887
N71	N	0.865691	0.546186	0.449887
N72	N	1.115691	0.796186	0.699887
N73	N	0.296513	0.045171	-0.050132
N74	N	0.546513	0.295171	0.199868
N75	N	0.796513	0.545171	0.449868
N76	N	1.046513	0.795171	0.699868
C77	C	0.254260	0.091994	-0.000293
C78	C	0.504260	0.341994	0.249707
C79	C	0.754260	0.591994	0.499707
C80	C	1.004260	0.841994	0.749707
N81	N	0.283799	0.139883	0.049556
N82	N	0.533799	0.389883	0.299556
N83	N	0.783799	0.639883	0.549556
N84	N	1.033799	0.889883	0.799556
N85	N	0.352983	0.140900	0.049571
N86	N	0.602983	0.390900	0.299571
N87	N	0.852983	0.640900	0.549571
N88	N	1.102983	0.890900	0.799571
C89	C	0.394707	0.094062	-0.000259
C90	C	0.644707	0.344062	0.249741
C91	C	0.894707	0.594062	0.499741
C92	C	1.144707	0.844062	0.749741
C93	C	0.130372	0.153928	-0.000325
C94	C	0.380372	0.403928	0.249675
C95	C	0.630372	0.653928	0.499675
C96	C	0.880372	0.903928	0.749675
C97	C	0.057547	0.152853	-0.000329
C98	C	0.307547	0.402853	0.249671
C99	C	0.557547	0.652853	0.499671
C100	C	0.807547	0.902853	0.749671
C101	C	0.074586	0.025586	-0.000314
C102	C	0.324586	0.275586	0.249686
C103	C	0.574586	0.525586	0.499686
C104	C	0.824586	0.775586	0.749686
C105	C	0.147409	0.026662	-0.000301
C106	C	0.397409	0.276662	0.249699
C107	C	0.647409	0.526662	0.499699
C108	C	0.897409	0.776662	0.749699
C109	C	0.175298	0.090835	-0.000311
C110	C	0.425298	0.340835	0.249689
C111	C	0.675298	0.590835	0.499689
C112	C	0.925298	0.840835	0.749689
C113	C	0.829972	-0.034634	-0.000245
C114	C	1.079972	0.215366	0.249755
C115	C	1.329972	0.465366	0.499755
C116	C	1.579972	0.715366	0.749755
C117	C	0.828831	-0.112138	-0.000237
C118	C	1.078831	0.137862	0.249763
C119	C	1.328831	0.387862	0.499763
C120	C	1.578831	0.637862	0.749763
C121	C	0.891922	-0.157062	-0.000251
C122	C	1.141922	0.092938	0.249749
C123	C	1.391922	0.342938	0.499749
C124	C	1.641922	0.592938	0.749749
C125	C	0.890850	-0.229886	-0.000265
C126	C	1.140850	0.020114	0.249735
C127	C	1.390850	0.270114	0.499735
C128	C	1.640850	0.520114	0.749735
C129	C	0.826684	-0.257782	-0.000247
C130	C	1.076684	-0.007782	0.249753
C131	C	1.326684	0.242218	0.499753
C132	C	1.576684	0.492218	0.749753
C133	C	0.763585	-0.212849	-0.000238
C134	C	1.013585	0.037151	0.249762
C135	C	1.263585	0.287151	0.499762
C136	C	1.513585	0.537151	0.749762
C137	C	0.764658	-0.140026	-0.000233
C138	C	1.014658	0.109974	0.249767
C139	C	1.264658	0.359974	0.499767
C140	C	1.514658	0.609974	0.749767
N141	N	0.777634	-0.365788	0.049609
N142	N	1.027634	-0.115788	0.299609
N143	N	1.277634	0.134212	0.549609
N144	N	1.527634	0.384212	0.799609
N145	N	0.776619	-0.434966	0.049606
N146	N	1.026619	-0.184966	0.299606
N147	N	1.276619	0.065034	0.549606
N148	N	1.526619	0.315034	0.799606
C149	C	0.823446	-0.477191	-0.000264
C150	C	1.073446	-0.227191	0.249736
C151	C	1.323446	0.022809	0.499736
C152	C	1.573446	0.272809	0.749736
N153	N	0.871337	-0.447625	-0.050121
N154	N	1.121337	-0.197625	0.199879
N155	N	1.371337	0.052375	0.449879
N156	N	1.621337	0.302375	0.699879
N157	N	0.872355	-0.378440	-0.050114
N158	N	1.122355	-0.128440	0.199886
N159	N	1.372355	0.121560	0.449886
N160	N	1.622355	0.371560	0.699886
C161	C	0.825513	-0.336745	-0.000253
C162	C	1.075513	-0.086745	0.249747
C163	C	1.325513	0.163255	0.499747
C164	C	1.575513	0.413255	0.749747
C165	C	0.885379	-0.601079	-0.000294
C166	C	1.135379	-0.351079	0.249706
C167	C	1.385379	-0.101079	0.499706
C168	C	1.635379	0.148921	0.749706
C169	C	0.884305	-0.673904	-0.000314
C170	C	1.134305	-0.423904	0.249686
C171	C	1.384305	-0.173904	0.499686
C172	C	1.634305	0.076096	0.749686
C173	C	0.757038	-0.656865	-0.000278
C174	C	1.007038	-0.406865	0.249722
C175	C	1.257038	-0.156865	0.499722
C176	C	1.507038	0.093135	0.749722
C177	C	0.758114	-0.584042	-0.000267
C178	C	1.008114	-0.334042	0.249733
C179	C	1.258114	-0.084042	0.499733
C180	C	1.508114	0.165958	0.749733
C181	C	0.822286	-0.556154	-0.000271
C182	C	1.072286	-0.306154	0.249729
C183	C	1.322286	-0.056154	0.499729
C184	C	1.572286	0.193846	0.749729
C185	C	0.952151	0.087546	-0.000303
C186	C	1.202151	0.337546	0.249697
C187	C	1.452151	0.587546	0.499697
C188	C	1.702151	0.837546	0.749697
C189	C	1.029656	0.088687	-0.000332
C190	C	1.279656	0.338687	0.249668
C191	C	1.529656	0.588687	0.499668
C192	C	1.779656	0.838687	0.749668
C193	C	0.818997	0.220700	-0.000283
C194	C	1.068997	0.470700	0.249717
C195	C	1.318997	0.720700	0.499717
C196	C	1.568997	0.970700	0.749717
C197	C	0.820138	0.298204	-0.000297
C198	C	1.070138	0.548204	0.249703
C199	C	1.320138	0.798204	0.499703
C200	C	1.570138	1.048204	0.749703
N201	N	0.824479	0.093030	0.227911
N202	N	1.074479	0.343030	0.477911
N203	N	1.324479	0.593030	0.727911
N204	N	1.574479	0.843030	0.977911
N205	N	0.824496	0.093030	-0.228438
N206	N	1.074496	0.343030	0.021562
N207	N	1.324496	0.593030	0.271562
N208	N	1.574496	0.843030	0.521562
C209	C	0.872106	0.045435	0.453628
C210	C	1.122106	0.295435	0.703628
C211	C	1.372106	0.545435	0.953628
C212	C	1.622106	0.795435	1.203628
C213	C	0.872108	0.045434	0.545818
C214	C	1.122108	0.295434	0.795818
C215	C	1.372108	0.545434	1.045818
C216	C	1.622108	0.795434	1.295818
C217	C	0.776864	0.140628	0.545839
C218	C	1.026864	0.390628	0.795839
C219	C	1.276864	0.640628	1.045839
C220	C	1.526864	0.890628	1.295839
C221	C	0.776859	0.140626	0.453651
C222	C	1.026859	0.390626	0.703651
C223	C	1.276859	0.640626	0.953651
C224	C	1.526859	0.890626	1.203651
C225	C	0.824484	0.093030	0.407548
C226	C	1.074484	0.343030	0.657548
C227	C	1.324484	0.593030	0.907548
C228	C	1.574484	0.843030	1.157548
C229	C	0.824491	0.093031	0.591925
C230	C	1.074491	0.343031	0.841925
C231	C	1.324491	0.593031	1.091925
C232	C	1.574491	0.843031	1.341925
C233	C	0.824493	0.093029	0.691882
C234	C	1.074493	0.343029	0.941882
C235	C	1.324493	0.593029	1.191882
C236	C	1.574493	0.843029	1.441882
C237	C	0.824481	0.093030	0.307585
C238	C	1.074481	0.343030	0.557585
C239	C	1.324481	0.593030	0.807585
C240	C	1.574481	0.843030	1.057585
H241	H	0.495885	-0.020111	-0.000226
H242	H	0.745885	0.229889	0.249774
H243	H	0.995885	0.479889	0.499774
H244	H	1.245885	0.729889	0.749774
Br245	Br	0.976479	-0.290866	-0.000288
Br246	Br	1.226479	-0.040866	0.249712
Br247	Br	1.476479	0.209134	0.499712
Br248	Br	1.726479	0.459134	0.749712
H249	H	0.738076	0.179383	0.416130
H250	H	0.988076	0.429383	0.666130
H251	H	1.238076	0.679383	0.916130
H252	H	1.488076	0.929383	1.166130
Br253	Br	0.972468	-0.563226	-0.000291
Br254	Br	1.222468	-0.313226	0.249709
Br255	Br	1.472468	-0.063226	0.499709
Br256	Br	1.722468	0.186774	0.749709
H257	H	0.051874	-0.026659	-0.000371
H258	H	0.301874	0.223341	0.249629
H259	H	0.551874	0.473341	0.499629
H260	H	0.801874	0.723341	0.749629
Br261	Br	0.612235	0.247561	-0.000238
Br262	Br	0.862235	0.497561	0.249762
Br263	Br	1.112235	0.747561	0.499762
Br264	Br	1.362235	0.997561	0.749762
H265	H	0.628003	-0.018171	-0.000174
H266	H	0.878003	0.231829	0.249826
H267	H	1.128003	0.481829	0.499826
H268	H	1.378003	0.731829	0.749826
H269	H	0.738090	0.179380	0.583385
H270	H	0.988090	0.429380	0.833385
H271	H	1.238090	0.679380	1.083385
H272	H	1.488090	0.929380	1.333385
Br273	Br	-0.003424	0.238485	-0.000353
Br274	Br	0.246576	0.488485	0.249647
Br275	Br	0.496576	0.738485	0.499647
Br276	Br	0.746576	0.988485	0.749647
Br277	Br	0.168225	0.241017	-0.000333
Br278	Br	0.418225	0.491017	0.249667
Br279	Br	0.668225	0.741017	0.499667
Br280	Br	0.918225	0.991017	0.749667
Br281	Br	0.440585	0.245028	-0.000262
Br282	Br	0.690585	0.495028	0.249738
Br283	Br	0.940585	0.745028	0.499738
Br284	Br	1.190585	0.995028	0.749738
H285	H	0.935683	-0.710481	-0.000330
H286	H	1.185683	-0.460481	0.249670
H287	H	1.435683	-0.210481	0.499670
H288	H	1.685683	0.039519	0.749670
Br289	Br	0.936738	-0.019160	0.391062
Br290	Br	1.186738	0.230840	0.641062
Br291	Br	1.436738	0.480840	0.891062
Br292	Br	1.686738	0.730840	1.141062
Br293	Br	0.208382	-0.058966	-0.000271
Br294	Br	0.458382	0.191034	0.249729
Br295	Br	0.708382	0.441034	0.499729
Br296	Br	0.958382	0.691034	0.749729
Br297	Br	0.669953	-0.694717	-0.000262
Br298	Br	0.919953	-0.444717	0.249738
Br299	Br	1.169953	-0.194717	0.499738
Br300	Br	1.419953	0.055283	0.749738
H301	H	0.910885	0.006677	0.583333
H302	H	1.160885	0.256677	0.833333
H303	H	1.410885	0.506677	1.083333
H304	H	1.660885	0.756677	1.333333
H305	H	0.944176	-0.134360	-0.000258
H306	H	1.194176	0.115640	0.249742
H307	H	1.444176	0.365640	0.499742
H308	H	1.694176	0.615640	0.749742
H309	H	0.711340	-0.235567	-0.000225
H310	H	0.961340	0.014433	0.249775
H311	H	1.211340	0.264433	0.499775
H312	H	1.461340	0.514433	0.749775
Br313	Br	0.679028	-0.079054	-0.000216
Br314	Br	0.929028	0.170946	0.249784
Br315	Br	1.179028	0.420946	0.499784
Br316	Br	1.429028	0.670946	0.749784
H317	H	0.706738	-0.547464	-0.000251
H318	H	0.956738	-0.297464	0.249749
H319	H	1.206738	-0.047464	0.499749
H320	H	1.456738	0.202536	0.749749
