data_functionalizedCrystal
_audit_creation_method	'MofGen! by Chris Wilmer'
_symmetry_space_group_name_H-M	'P1'
_symmetry_Int_Tables_number	1
_symmetry_cell_setting	triclinic
loop_
_symmetry_equiv_pos_as_xyz
  x,y,z
_cell_length_a	10.685980
_cell_length_b	13.897447
_cell_length_c	10.686551
_cell_angle_alpha	85.594025
_cell_angle_beta	81.591741
_cell_angle_gamma	94.386237
loop_
_atom_site_label
_atom_site_type_symbol
_atom_site_fract_x
_atom_site_fract_y
_atom_site_fract_z
Zn1	Zn	1.995765	-0.216203	-0.866700
Zn2	Zn	2.495765	0.283797	-0.366700
Zn3	Zn	1.979324	-0.390948	-0.654433
Zn4	Zn	2.479324	0.109052	-0.154433
Zn5	Zn	1.767189	-0.243050	-0.638164
Zn6	Zn	2.267189	0.256950	-0.138164
Zn7	Zn	1.783448	-0.390855	-0.850343
Zn8	Zn	2.283448	0.109145	-0.350343
O9	O	1.881432	-0.310264	-0.752410
O10	O	2.381432	0.189736	-0.252410
O11	O	2.171219	-0.228187	-0.852196
O12	O	2.671219	0.271813	-0.352196
O13	O	1.937499	-0.382604	-0.474643
O14	O	2.437499	0.117396	0.025357
O15	O	1.797587	-0.104500	-0.668516
O16	O	2.297587	0.395500	-0.168516
O17	O	2.159140	-0.356572	-0.696245
O18	O	2.659140	0.143428	-0.196245
O19	O	1.965521	-0.084776	-0.836420
O20	O	2.465521	0.415224	-0.336420
O21	O	1.781645	-0.273944	-0.462690
O22	O	2.281645	0.226056	0.037310
O23	O	1.591711	-0.273853	-0.652656
O24	O	2.091711	0.226147	-0.152656
O25	O	1.825297	-0.356412	-1.030145
O26	O	2.325297	0.143588	-0.530145
O27	O	1.603656	-0.382444	-0.808543
O28	O	2.103656	0.117556	-0.308543
O29	O	1.981286	-0.228096	-1.042162
O30	O	2.481286	0.271904	-0.542162
O31	O	1.953264	-0.525924	-0.680385
O32	O	2.453264	-0.025924	-0.180385
O33	O	1.809355	-0.525855	-0.824319
O34	O	2.309355	-0.025855	-0.324319
C35	C	1.551625	-0.331052	-0.727060
C36	C	2.051625	0.168948	-0.227060
C37	C	1.410535	-0.339967	-0.716245
C38	C	1.910535	0.160033	-0.216245
C39	C	1.881326	-0.560887	-0.752373
C40	C	2.381326	-0.060887	-0.252373
C41	C	1.881400	-0.668094	-0.752408
C42	C	2.381400	-0.168094	-0.252408
C43	C	1.881464	-0.755158	-0.752442
C44	C	2.381464	-0.255158	-0.252442
C45	C	1.881555	-0.864383	-0.752481
C46	C	2.381555	-0.364383	-0.252481
C47	C	2.212526	-0.289395	-0.777860
C48	C	2.712526	0.210605	-0.277860
C49	C	2.353618	-0.280502	-0.788705
C50	C	2.853618	0.219498	-0.288705
C51	C	1.906939	-0.289249	-1.083500
C52	C	2.406939	0.210751	-0.583500
C53	C	1.917809	-0.280294	-1.224590
C54	C	2.417809	0.219706	-0.724590
C55	C	1.881574	-0.058659	-0.752478
C56	C	2.381574	0.441341	-0.252478
C57	C	1.881635	0.048560	-0.752507
C58	C	2.381635	0.548560	-0.252507
C59	C	1.856096	-0.331123	-0.422614
C60	C	2.356096	0.168877	0.077386
C61	C	1.845473	-0.339791	-0.281543
C62	C	2.345473	0.160209	0.218457
H63	H	1.988059	-0.222507	-1.283770
H64	H	2.488059	0.277493	-0.783770
H65	H	1.351318	-0.397701	-0.645925
H66	H	1.851318	0.102299	-0.145925
N67	N	1.432037	-0.204030	-0.881854
N68	N	1.932037	0.295970	-0.381854
H69	H	1.525093	-0.208289	-0.876644
H70	H	2.025093	0.291711	-0.376644
H71	H	1.415918	-0.214853	-0.970721
H72	H	1.915918	0.285147	-0.470721
N73	N	1.752422	-0.416353	-1.203160
N74	N	2.252422	0.083647	-0.703160
H75	H	1.757583	-0.412117	-1.110098
H76	H	2.257583	0.087883	-0.610098
H77	H	1.663531	-0.405604	-1.219303
H78	H	2.163531	0.094396	-0.719303
