data_functionalizedCrystal
_audit_creation_method	'MofGen! by Chris Wilmer'
_symmetry_space_group_name_H-M	'P1'
_symmetry_Int_Tables_number	1
_symmetry_cell_setting	triclinic
loop_
_symmetry_equiv_pos_as_xyz
  x,y,z
_cell_length_a	21.295420
_cell_length_b	25.639240
_cell_length_c	21.295411
_cell_angle_alpha	90.021594
_cell_angle_beta	89.975307
_cell_angle_gamma	89.958587
loop_
_atom_site_label
_atom_site_type_symbol
_atom_site_fract_x
_atom_site_fract_y
_atom_site_fract_z
Zn1	Zn	0.962300	0.208235	-0.355914
Zn2	Zn	1.462300	0.708235	0.144086
Zn3	Zn	0.962179	0.295655	-0.250639
Zn4	Zn	1.462179	0.795655	0.249361
Zn5	Zn	0.857023	0.208232	-0.250659
Zn6	Zn	1.357023	0.708232	0.249341
Zn7	Zn	0.856969	0.295638	-0.355871
Zn8	Zn	1.356969	0.795638	0.144129
O9	O	0.909618	0.251940	-0.303271
O10	O	1.409618	0.751940	0.196729
O11	O	1.050373	0.219839	-0.341959
O12	O	1.550373	0.719839	0.158041
O13	O	0.948202	0.284064	-0.162552
O14	O	1.448202	0.784064	0.337448
O15	O	0.871061	0.135068	-0.264647
O16	O	1.371061	0.635068	0.235353
O17	O	1.050284	0.284066	-0.264614
O18	O	1.550284	0.784066	0.235386
O19	O	0.948408	0.135069	-0.341978
O20	O	1.448408	0.635069	0.158022
O21	O	0.870944	0.219835	-0.162567
O22	O	1.370944	0.719835	0.337433
O23	O	0.768927	0.219819	-0.264605
O24	O	1.268927	0.719819	0.235395
O25	O	0.870970	0.284038	-0.443966
O26	O	1.370970	0.784038	0.056034
O27	O	0.768887	0.284036	-0.341904
O28	O	1.268887	0.784036	0.158096
O29	O	0.948356	0.219823	-0.443998
O30	O	1.448356	0.719823	0.056002
O31	O	0.948150	0.368818	-0.264572
O32	O	1.448150	0.868818	0.235428
O33	O	0.870853	0.368806	-0.341885
O34	O	1.370853	0.868806	0.158115
C35	C	0.746066	0.251926	-0.303253
C36	C	1.246066	0.751926	0.196747
C37	C	0.676098	0.251932	-0.303260
C38	C	1.176098	0.751932	0.196740
C39	C	0.176636	0.285439	-0.343481
C40	C	0.676636	0.785439	0.156519
C41	C	0.242379	0.285439	-0.343474
C42	C	0.742379	0.785439	0.156526
C43	C	0.275259	0.251952	-0.303290
C44	C	0.775259	0.751952	0.196710
C45	C	0.242391	0.218471	-0.263098
C46	C	0.742391	0.718471	0.236902
C47	C	0.176650	0.218476	-0.263102
C48	C	0.676650	0.718476	0.236898
N49	N	0.378512	0.206173	-0.298558
N50	N	0.878512	0.706173	0.201442
N51	N	0.440963	0.206170	-0.298558
N52	N	0.940963	0.706170	0.201442
C53	C	0.473333	0.251937	-0.303277
C54	C	0.973333	0.751937	0.196723
N55	N	0.440893	0.297709	-0.308008
N56	N	0.940893	0.797709	0.191992
N57	N	0.378436	0.297711	-0.308010
N58	N	0.878436	0.797711	0.191990
C59	C	0.346544	0.251944	-0.303282
C60	C	0.846544	0.751944	0.196718
C61	C	0.577479	0.285419	-0.343456
C62	C	1.077479	0.785419	0.156544
C63	C	0.643223	0.285420	-0.343445
C64	C	1.143223	0.785420	0.156555
C65	C	0.643234	0.218447	-0.263072
C66	C	1.143234	0.718447	0.236928
C67	C	0.577491	0.218450	-0.263080
C68	C	1.077491	0.718450	0.236920
C69	C	0.544618	0.251936	-0.303275
C70	C	1.044618	0.751936	0.196725
C71	C	0.909499	0.387783	-0.303236
C72	C	1.409499	0.887783	0.196764
C73	C	0.909506	0.445897	-0.303242
C74	C	1.409506	0.945897	0.196758
C75	C	0.949919	0.806253	-0.263058
C76	C	1.449919	1.306253	0.236942
C77	C	0.949939	0.860858	-0.263064
C78	C	1.449939	1.360858	0.236936
O79	O	0.984216	0.889089	-0.228879
O80	O	1.484216	1.389089	0.271121
N81	N	0.909669	0.888179	-0.303285
N82	N	1.409669	1.388179	0.196715
C83	C	0.869381	0.860893	-0.343506
C84	C	1.369381	1.360893	0.156494
O85	O	0.835131	0.889146	-0.377718
O86	O	1.335131	1.389146	0.122282
C87	C	0.869366	0.806290	-0.343503
C88	C	1.369366	1.306290	0.156497
C89	C	0.909634	0.778972	-0.303275
C90	C	1.409634	1.278972	0.196725
C91	C	0.990185	0.778935	-0.222834
C92	C	1.490185	1.278935	0.277166
C93	C	0.990165	0.724334	-0.222828
C94	C	1.490165	1.224334	0.277172
C95	C	0.949879	0.697052	-0.263045
C96	C	1.449879	1.197052	0.236955
C97	C	0.909614	0.724371	-0.303269
C98	C	1.409614	1.224371	0.196731
C99	C	0.829082	0.779005	-0.383727
C100	C	1.329082	1.279005	0.116273
C101	C	0.829070	0.724398	-0.383721
C102	C	1.329070	1.224398	0.116279
C103	C	0.869338	0.697080	-0.343493
C104	C	1.369338	1.197080	0.156507
C105	C	0.869308	0.642489	-0.343479
C106	C	1.369308	1.142489	0.156521
N107	N	0.909578	0.615167	-0.303259
N108	N	1.409578	1.115167	0.196741
C109	C	0.949863	0.642449	-0.263041
C110	C	1.449863	1.142449	0.236959
C111	C	0.869418	0.975564	-0.343511
C112	C	1.369418	1.475564	0.156489
C113	C	0.869430	1.030166	-0.343512
C114	C	1.369430	1.530166	0.156488
C115	C	0.949988	1.030127	-0.263070
C116	C	1.449988	1.530127	0.236930
C117	C	0.949973	0.975524	-0.263067
C118	C	1.449973	1.475524	0.236933
C119	C	0.909688	0.948243	-0.303290
C120	C	1.409688	1.448243	0.196710
C121	C	0.949817	0.527784	-0.263030
C122	C	1.449817	1.027784	0.236970
C123	C	0.949792	0.473179	-0.263025
C124	C	1.449792	0.973179	0.236975
C125	C	0.869236	0.473223	-0.343468
C126	C	1.369236	0.973223	0.156532
C127	C	0.869259	0.527823	-0.343471
C128	C	1.369259	1.027823	0.156529
C129	C	0.909555	0.555103	-0.303250
C130	C	1.409555	1.055103	0.196750
O131	O	0.835050	0.614222	-0.377649
O132	O	1.335050	1.114222	0.122351
O133	O	0.984114	0.614189	-0.228841
O134	O	1.484114	1.114189	0.271159
C135	C	1.073808	0.251955	-0.303289
C136	C	1.573808	0.751955	0.196711
C137	C	1.143776	0.251961	-0.303297
C138	C	1.643776	0.751961	0.196703
C139	C	0.909670	0.251929	-0.467461
C140	C	1.409670	0.751929	0.032539
C141	C	0.909692	0.251924	-0.537429
C142	C	1.409692	0.751924	-0.037429
C143	C	0.909731	1.115567	-0.303308
C144	C	1.409731	1.615567	0.196692
C145	C	0.909718	1.057453	-0.303297
C146	C	1.409718	1.557453	0.196703
C147	C	0.949986	0.218486	-0.570313
C148	C	1.449986	0.718486	-0.070313
C149	C	0.949985	0.218463	-0.636056
C150	C	1.449985	0.718463	-0.136056
C151	C	0.909697	0.251888	-0.668912
C152	C	1.409697	0.751888	-0.168912
C153	C	0.869396	0.285329	-0.636020
C154	C	1.369396	0.785329	-0.136020
C155	C	0.869394	0.285347	-0.570278
C156	C	1.369394	0.785347	-0.070278
N157	N	0.904828	0.297626	-0.772127
N158	N	1.404828	0.797626	-0.272127
N159	N	0.904834	0.297608	-0.834579
N160	N	1.404834	0.797608	-0.334579
C161	C	0.909701	0.251835	-0.866986
C162	C	1.409701	0.751835	-0.366986
N163	N	0.914574	0.206081	-0.834584
N164	N	1.414574	0.706081	-0.334584
N165	N	0.914571	0.206100	-0.772126
N166	N	1.414571	0.706100	-0.272126
C167	C	0.909695	0.251872	-0.740197
C168	C	1.409695	0.751872	-0.240197
C169	C	0.949996	0.218370	-0.971156
C170	C	1.449996	0.718370	-0.471156
C171	C	0.949990	0.218346	-1.036900
C172	C	1.449990	0.718346	-0.536900
C173	C	0.869405	0.285216	-1.036863
C174	C	1.369405	0.785216	-0.536863
C175	C	0.869407	0.285235	-0.971120
C176	C	1.369407	0.785235	-0.471120
C177	C	0.909706	0.251813	-0.938271
C178	C	1.409706	0.751813	-0.438271
C179	C	0.909602	0.251913	-0.139719
C180	C	1.409602	0.751913	0.360281
C181	C	0.909702	0.251771	-0.069751
C182	C	1.409702	0.751771	0.430249
H183	H	0.149896	0.191212	-0.230379
H184	H	0.649896	0.691212	0.269621
H185	H	0.836434	0.451001	-0.376211
H186	H	1.336434	0.951001	0.123789
H187	H	1.022956	0.702095	-0.190073
H188	H	1.522956	1.202095	0.309927
H189	H	0.836600	0.312467	-0.944345
H190	H	1.336600	0.812467	-0.444345
O191	O	0.830121	0.554283	-0.382605
O192	O	1.330121	1.054283	0.117395
C193	C	0.794547	0.518491	-0.418086
C194	C	1.294547	1.018491	0.081914
H195	H	0.820313	0.479544	-0.420277
H196	H	1.320313	0.979544	0.079723
H197	H	0.787818	0.534250	-0.467681
H198	H	1.287818	1.034250	0.032319
H199	H	0.746746	0.512739	-0.394991
H200	H	1.246746	1.012739	0.105009
O201	O	0.989123	0.948931	-0.224081
O202	O	1.489123	1.448931	0.275919
C203	C	1.029769	0.917313	-0.259953
C204	C	1.529769	1.417313	0.240047
H205	H	1.007543	0.909129	-0.307636
H206	H	1.507543	1.409129	0.192364
H207	H	1.038212	0.878921	-0.234314
H208	H	1.538212	1.378921	0.265686
H209	H	1.076418	0.938322	-0.266915
H210	H	1.576418	1.438322	0.233085
H211	H	0.836592	0.312542	-0.662775
H212	H	1.336592	0.812542	-0.162775
O213	O	0.989192	0.185845	-1.068748
O214	O	1.489192	0.685845	-0.568748
C215	C	1.024747	0.156343	-1.025654
C216	C	1.524747	0.656343	-0.525654
H217	H	1.026903	0.177773	-0.978792
H218	H	1.526903	0.677773	-0.478792
H219	H	1.074350	0.150768	-1.044670
H220	H	1.574350	0.650768	-0.544670
H221	H	1.001739	0.116632	-1.018653
H222	H	1.501739	0.616632	-0.518653
H223	H	0.982793	1.052350	-0.230325
H224	H	1.482793	1.552350	0.269675
H225	H	0.269166	0.191206	-0.230379
H226	H	0.769166	0.691206	0.269621
H227	H	0.149875	0.312707	-0.376209
H228	H	0.649875	0.812707	0.123791
O229	O	0.989117	0.185953	-0.939145
O230	O	1.489117	0.685953	-0.439145
C231	C	0.980470	0.193133	-0.874067
C232	C	1.480470	0.693133	-0.374067
H233	H	0.959810	0.233483	-0.865080
H234	H	1.459810	0.733483	-0.365080
H235	H	1.027626	0.189602	-0.849104
H236	H	1.527626	0.689602	-0.349104
H237	H	0.946981	0.162122	-0.855394
H238	H	1.446981	0.662122	-0.355394
H239	H	0.669976	0.312685	-0.376166
H240	H	1.169976	0.812685	0.123834
O241	O	0.830376	1.056677	-0.382674
O242	O	1.330376	1.556677	0.117326
C243	C	0.844088	1.043283	-0.445422
C244	C	1.344088	1.543283	0.054578
H245	H	0.894372	1.028232	-0.448644
H246	H	1.394372	1.528232	0.051356
H247	H	0.838659	1.079181	-0.476526
H248	H	1.338659	1.579181	0.023474
H249	H	0.810323	1.011606	-0.461838
H250	H	1.310323	1.511606	0.038162
O251	O	0.989162	0.186055	-0.668077
O252	O	1.489162	0.686055	-0.168077
C253	C	1.029796	0.215824	-0.706103
C254	C	1.529796	0.715824	-0.206103
H255	H	1.007548	0.255440	-0.715938
H256	H	1.507548	0.755440	-0.215938
H257	H	1.038260	0.194520	-0.752339
H258	H	1.538260	0.694520	-0.252339
H259	H	1.076438	0.221584	-0.680784
H260	H	1.576438	0.721584	-0.180784
O261	O	0.790057	0.805590	-0.422842
O262	O	1.290057	1.305590	0.077158
C263	C	0.825890	0.837115	-0.463548
C264	C	1.325890	1.337115	0.036452
H265	H	0.873603	0.845274	-0.441384
H266	H	1.373603	1.345274	0.058616
H267	H	0.800253	0.875526	-0.471980
H268	H	1.300253	1.375526	0.028020
H269	H	0.832789	0.816040	-0.510194
H270	H	1.332789	1.316040	-0.010194
H271	H	0.836608	0.953354	-0.376264
H272	H	1.336608	1.453354	0.123736
O273	O	0.274378	0.317887	-0.382544
O274	O	0.774378	0.817887	0.117456
C275	C	0.312434	0.288157	-0.423269
C276	C	0.812434	0.788157	0.076731
H277	H	0.322297	0.248509	-0.401146
H278	H	0.822297	0.748509	0.098854
H279	H	0.358654	0.309455	-0.431658
H280	H	0.858654	0.809455	0.068342
H281	H	0.287125	0.282466	-0.469932
H282	H	0.787125	0.782466	0.030068
H283	H	0.550712	0.312685	-0.376185
H284	H	1.050712	0.812685	0.123815
H285	H	0.670004	0.191182	-0.230351
H286	H	1.170004	0.691182	0.269649
O287	O	0.545665	0.185875	-0.224030
O288	O	1.045665	0.685875	0.275970
C289	C	0.588780	0.156327	-0.188549
C290	C	1.088780	0.656327	0.311451
H291	H	0.635657	0.154544	-0.214333
H292	H	1.135657	0.654544	0.285667
H293	H	0.569814	0.115125	-0.181925
H294	H	1.069814	0.615125	0.318075
H295	H	0.595733	0.175415	-0.140698
H296	H	1.095733	0.675415	0.359302
H297	H	0.796266	0.702189	-0.416478
H298	H	1.296266	1.202189	0.083522
H299	H	1.022994	0.801142	-0.190085
H300	H	1.522994	1.301142	0.309915
H301	H	0.982799	0.191270	-0.543571
H302	H	1.482799	0.691270	-0.043571
H303	H	0.836579	0.312576	-0.543504
H304	H	1.336579	0.812576	-0.043504
H305	H	0.836596	0.312426	-1.063613
H306	H	1.336596	0.812426	-0.563613
H307	H	0.982583	0.450938	-0.230265
H308	H	1.482583	0.950938	0.269735
O309	O	0.988978	0.554197	-0.223898
O310	O	1.488978	1.054197	0.276102
C311	C	1.024518	0.518367	-0.188409
C312	C	1.524518	1.018367	0.311591
H313	H	0.998717	0.479469	-0.186210
H314	H	1.498717	0.979469	0.313790
H315	H	1.031262	0.534151	-0.138817
H316	H	1.531262	1.034151	0.361183
H317	H	1.072315	0.512509	-0.211502
H318	H	1.572315	1.012509	0.288498
