data_functionalizedCrystal
_audit_creation_method	'MofGen! by Chris Wilmer'
_symmetry_space_group_name_H-M	'P1'
_symmetry_Int_Tables_number	1
_symmetry_cell_setting	triclinic
loop_
_symmetry_equiv_pos_as_xyz
  x,y,z
_cell_length_a	16.109301
_cell_length_b	10.967829
_cell_length_c	14.586319
_cell_angle_alpha	77.868327
_cell_angle_beta	89.998857
_cell_angle_gamma	84.100378
loop_
_atom_site_label
_atom_site_type_symbol
_atom_site_fract_x
_atom_site_fract_y
_atom_site_fract_z
O1	O	1.104076	0.160394	-0.101528
O2	O	1.604076	0.660394	0.398472
O3	O	0.862131	0.180354	-0.104694
O4	O	1.362131	0.680354	0.395306
O5	O	0.988683	-0.011278	-0.074408
O6	O	1.488683	0.488722	0.425592
O7	O	0.977524	0.352026	-0.131814
O8	O	1.477524	0.852026	0.368186
O9	O	0.988674	-0.011281	0.078073
O10	O	1.488674	0.488719	0.578073
O11	O	0.862122	0.180352	0.047787
O12	O	1.362122	0.680352	0.547787
O13	O	1.104067	0.160391	0.050953
O14	O	1.604067	0.660391	0.550953
Cu15	Cu	0.983094	0.170371	0.063293
Cu16	Cu	1.483094	0.670371	0.563293
Cu17	Cu	0.983104	0.170374	-0.117034
Cu18	Cu	1.483104	0.670374	0.382966
O19	O	0.977515	0.352024	0.020667
O20	O	1.477515	0.852024	0.520667
C21	C	0.831147	0.179544	-0.028328
C22	C	1.331147	0.679544	0.471672
C23	C	0.738838	0.177120	-0.027949
C24	C	1.238838	0.677120	0.472051
C25	C	0.987866	-0.057769	0.009176
C26	C	1.487866	0.442231	0.509176
C27	C	0.985435	-0.196293	0.031058
C28	C	1.485435	0.303707	0.531058
C29	C	0.430463	0.282906	-0.044649
C30	C	0.930463	0.782906	0.455351
C31	C	0.517196	0.285196	-0.045016
C32	C	1.017196	0.785196	0.454984
C33	C	0.535730	0.057830	-0.009102
C34	C	1.035730	0.557830	0.490898
C35	C	0.448998	0.055542	-0.008742
C36	C	0.948998	0.555542	0.491258
C37	C	0.396366	0.168084	-0.026511
C38	C	0.896366	0.668084	0.473489
C39	C	0.569832	0.172661	-0.027238
C40	C	1.069832	0.672661	0.472762
C41	C	0.663873	0.175143	-0.027636
C42	C	1.163873	0.675143	0.472364
C43	C	0.302319	0.165603	-0.026115
C44	C	0.802319	0.665603	0.473885
C45	C	0.984355	-0.258043	-0.038177
C46	C	1.484355	0.241957	0.461823
C47	C	0.981843	-0.401215	-0.015563
C48	C	1.481843	0.098785	0.484437
C49	C	1.135051	0.161201	-0.025416
C50	C	1.635051	0.661201	0.474584
C51	C	1.227360	0.163625	-0.025800
C52	C	1.727360	0.663625	0.474200
C53	C	0.978332	0.398514	-0.062919
C54	C	1.478332	0.898514	0.437081
C55	C	0.980763	0.537038	-0.084808
C56	C	1.480763	1.037038	0.415192
N57	N	0.983092	0.170368	0.190125
N58	N	1.483092	0.670368	0.690125
N59	N	0.983112	0.170368	-0.243865
N60	N	1.483112	0.670368	0.256135
C61	C	1.039148	0.085542	0.438538
C62	C	1.539148	0.585542	0.938538
C63	C	1.039151	0.085539	0.534519
C64	C	1.539151	0.585539	1.034519
C65	C	0.927050	0.255198	0.507715
C66	C	1.427050	0.755198	1.007715
C67	C	0.927044	0.255194	0.411736
C68	C	1.427044	0.755194	0.911736
C69	C	0.983098	0.170367	0.377150
C70	C	1.483098	0.670367	0.877150
C71	C	0.983106	0.170368	0.569110
C72	C	1.483106	0.670368	1.069110
C73	C	0.983109	0.170366	0.673178
C74	C	1.483109	0.670366	1.173178
C75	C	0.983095	0.170368	0.273076
C76	C	1.483095	0.670368	0.773076
H77	H	0.387612	0.374545	-0.059118
H78	H	0.887612	0.874545	0.440882
H79	H	0.980901	-0.454336	0.060459
H80	H	1.480901	0.045664	0.560459
H81	H	0.985288	-0.204915	-0.114194
H82	H	1.485288	0.295085	0.385806
F83	F	1.098804	-0.004742	0.401732
F84	F	1.598804	0.495258	0.901732
H85	H	0.544953	0.378695	-0.059786
H86	H	1.044953	0.878695	0.440214
H87	H	0.421237	-0.037965	0.006026
H88	H	0.921237	0.462035	0.506026
F89	F	1.098805	-0.004747	0.599851
F90	F	1.598805	0.495253	1.099851
H91	H	0.981690	-0.409839	-0.160830
H92	H	1.481690	0.090161	0.339170
F93	F	0.984205	-0.265726	0.130420
F94	F	1.484205	0.234274	0.630420
H95	H	0.881398	0.324270	0.361750
H96	H	1.381398	0.824270	0.861750
F97	F	0.867399	0.345476	0.544531
F98	F	1.367399	0.845476	1.044531
F99	F	0.591751	-0.061938	0.009815
F100	F	1.091751	0.438062	0.509815
