data_functionalizedCrystal
_audit_creation_method	'MofGen! by Chris Wilmer'
_symmetry_space_group_name_H-M	'P1'
_symmetry_Int_Tables_number	1
_symmetry_cell_setting	triclinic
loop_
_symmetry_equiv_pos_as_xyz
  x,y,z
_cell_length_a	27.731994
_cell_length_b	26.210047
_cell_length_c	16.109301
_cell_angle_alpha	90.003078
_cell_angle_beta	96.958992
_cell_angle_gamma	90.002872
loop_
_atom_site_label
_atom_site_type_symbol
_atom_site_fract_x
_atom_site_fract_y
_atom_site_fract_z
O1	O	0.641361	0.042358	-0.098700
O2	O	0.974695	0.375691	0.234634
O3	O	1.308028	0.709025	0.567967
O4	O	0.500627	0.042375	-0.113789
O5	O	0.833961	0.375708	0.219545
O6	O	1.167294	0.709042	0.552878
O7	O	0.574861	0.042361	0.014836
O8	O	0.908194	0.375694	0.348169
O9	O	1.241527	0.709028	0.681503
O10	O	0.567128	0.042372	-0.227324
O11	O	0.900462	0.375706	0.106009
O12	O	1.233795	0.709039	0.439342
O13	O	0.574846	-0.042497	0.014816
O14	O	0.908180	0.290836	0.348149
O15	O	1.241513	0.624169	0.681483
O16	O	0.500613	-0.042483	-0.113809
O17	O	0.833946	0.290850	0.219525
O18	O	1.167280	0.624184	0.552858
O19	O	0.641347	-0.042500	-0.098720
O20	O	0.974680	0.290833	0.234614
O21	O	1.308014	0.624167	0.567947
Cu22	Cu	0.570979	-0.050240	-0.106266
Cu23	Cu	0.904312	0.283094	0.227067
Cu24	Cu	1.237645	0.616427	0.560401
Cu25	Cu	0.570996	0.050115	-0.106242
Cu26	Cu	0.904329	0.383448	0.227091
Cu27	Cu	1.237662	0.716781	0.560424
O28	O	0.567114	-0.042486	-0.227344
O29	O	0.900447	0.290847	0.105989
O30	O	1.233781	0.624181	0.439322
C31	C	0.482612	-0.000052	-0.113489
C32	C	0.815945	0.333282	0.219844
C33	C	1.149278	0.666615	0.553178
C34	C	0.428951	-0.000045	-0.112556
C35	C	0.762285	0.333288	0.220777
C36	C	1.095618	0.666621	0.554111
C37	C	0.096200	-0.046321	-0.106692
C38	C	0.429534	0.287012	0.226641
C39	C	0.762867	0.620345	0.559975
C40	C	-0.105473	-0.046327	-0.103146
C41	C	0.227861	0.287006	0.230187
C42	C	0.561194	0.620339	0.563520
O43	O	-0.131554	-0.085666	-0.102661
O44	O	0.201779	0.247667	0.230672
O45	O	0.535113	0.581000	0.564005
N46	N	-0.130681	-0.000071	-0.102695
N47	N	0.202652	0.333262	0.230638
N48	N	0.535985	0.666595	0.563972
C49	C	-0.105469	0.046189	-0.103125
C50	C	0.227865	0.379523	0.230209
C51	C	0.561198	0.712856	0.563542
O52	O	-0.131537	0.085533	-0.102651
O53	O	0.201796	0.418866	0.230682
O54	O	0.535130	0.752200	0.564016
C55	C	0.096204	0.046195	-0.106665
C56	C	0.429537	0.379528	0.226669
C57	C	0.762871	0.712862	0.560002
C58	C	0.121410	-0.000064	-0.107124
C59	C	0.454743	0.333269	0.226209
C60	C	0.788076	0.666602	0.559542
C61	C	0.121406	-0.092577	-0.107151
C62	C	0.454740	0.240757	0.226182
C63	C	0.788073	0.574090	0.559516
C64	C	0.171821	-0.092575	-0.108042
C65	C	0.505154	0.240758	0.225291
C66	C	0.838488	0.574092	0.558625
C67	C	0.197030	-0.046318	-0.108474
C68	C	0.530364	0.287016	0.224859
C69	C	0.863697	0.620349	0.558193
C70	C	0.171824	-0.000062	-0.108015
C71	C	0.505158	0.333271	0.225318
C72	C	0.838491	0.666604	0.558651
C73	C	0.121416	0.092455	-0.107088
C74	C	0.454750	0.425789	0.226245
C75	C	0.788083	0.759122	0.559578
C76	C	0.171838	0.092452	-0.107971
C77	C	0.505171	0.425786	0.225362
C78	C	0.838505	0.759119	0.558695
C79	C	0.197044	0.046193	-0.108431
C80	C	0.530377	0.379527	0.224902
C81	C	0.863710	0.712860	0.558236
C82	C	0.247449	0.046197	-0.109338
C83	C	0.580782	0.379530	0.223995
C84	C	0.914115	0.712864	0.557328
N85	N	0.272657	-0.000059	-0.109790
N86	N	0.605991	0.333274	0.223544
N87	N	0.939324	0.666608	0.556877
C88	C	0.247448	-0.046316	-0.109358
C89	C	0.580782	0.287017	0.223976
C90	C	0.914115	0.620350	0.557309
C91	C	-0.211350	0.046183	-0.101268
C92	C	0.121984	0.379517	0.232065
C93	C	0.455317	0.712850	0.565399
C94	C	-0.261768	0.046182	-0.100384
C95	C	0.071566	0.379515	0.232949
C96	C	0.404899	0.712849	0.566282
C97	C	-0.261768	-0.046335	-0.100404
C98	C	0.071565	0.286998	0.232929
C99	C	0.404899	0.620332	0.566262
C100	C	-0.211350	-0.046333	-0.101294
C101	C	0.121984	0.287000	0.232039
C102	C	0.455317	0.620333	0.565373
C103	C	-0.186141	-0.000073	-0.101719
C104	C	0.147193	0.333261	0.231614
C105	C	0.480526	0.666594	0.564948
C106	C	0.353323	-0.046309	-0.111229
C107	C	0.686656	0.287025	0.222104
C108	C	1.019990	0.620358	0.555437
C109	C	0.403742	-0.046303	-0.112124
C110	C	0.737075	0.287031	0.221209
C111	C	1.070409	0.620364	0.554543
C112	C	0.403738	0.046214	-0.112099
C113	C	0.737072	0.379547	0.221234
C114	C	1.070405	0.712881	0.554567
C115	C	0.353323	0.046208	-0.111209
C116	C	0.686657	0.379542	0.222124
C117	C	1.019990	0.712875	0.555457
C118	C	0.328117	-0.000057	-0.110772
C119	C	0.661451	0.333276	0.222562
C120	C	0.994784	0.666609	0.555895
O121	O	0.273562	0.085515	-0.109815
O122	O	0.606895	0.418849	0.223519
O123	O	0.940228	0.752182	0.556852
O124	O	0.273527	-0.085654	-0.109813
O125	O	0.606860	0.247679	0.223520
O126	O	0.940194	0.581013	0.556854
C127	C	0.045786	-0.046323	-0.105801
C128	C	0.379119	0.287010	0.227532
C129	C	0.712452	0.620343	0.560866
C130	C	0.020580	-0.000068	-0.105342
C131	C	0.353913	0.333265	0.227991
C132	C	0.687247	0.666599	0.561324
C133	C	0.045789	0.046189	-0.105775
C134	C	0.379122	0.379522	0.227559
C135	C	0.712456	0.712856	0.560892
C136	C	-0.029838	-0.000069	-0.104459
C137	C	0.303495	0.333264	0.228874
C138	C	0.636829	0.666597	0.562208
C139	C	-0.055047	-0.046327	-0.104027
C140	C	0.278286	0.287007	0.229307
C141	C	0.611619	0.620340	0.562640
C142	C	-0.029838	-0.092583	-0.104478
C143	C	0.303495	0.240751	0.228855
C144	C	0.636828	0.574084	0.562189
C145	C	0.020576	-0.092581	-0.105369
C146	C	0.353910	0.240753	0.227964
C147	C	0.687243	0.574086	0.561298
C148	C	0.020580	0.092445	-0.105323
C149	C	0.353913	0.425779	0.228010
C150	C	0.687247	0.759112	0.561343
C151	C	-0.029835	0.092439	-0.104433
C152	C	0.303498	0.425773	0.228900
C153	C	0.636832	0.759106	0.562233
C154	C	-0.055044	0.046182	-0.104001
C155	C	0.278289	0.379516	0.229332
C156	C	0.611623	0.712849	0.562666
N157	N	0.570970	-0.120824	-0.106282
N158	N	0.904304	0.212510	0.227051
N159	N	1.237637	0.545843	0.560385
C160	C	0.603863	-0.473344	-0.049300
C161	C	0.937196	-0.140011	0.284033
C162	C	1.270529	0.193323	0.617367
C163	C	0.603873	-0.687003	-0.049288
C164	C	0.937207	-0.353669	0.284045
C165	C	1.270540	-0.020336	0.617378
O166	O	0.631821	-0.714630	-0.000844
O167	O	0.965154	-0.381297	0.332489
O168	O	1.298488	-0.047963	0.665823
N169	N	0.570998	-0.713718	-0.106224
N170	N	0.904332	-0.380384	0.227109
N171	N	1.237665	-0.047051	0.560443
C172	C	0.538116	-0.687015	-0.163163
C173	C	0.871449	-0.353681	0.170170
C174	C	1.204783	-0.020348	0.503504
O175	O	0.510151	-0.714640	-0.211584
O176	O	0.843484	-0.381307	0.121749
O177	O	1.176817	-0.047973	0.455083
C178	C	0.538103	-0.473357	-0.163170
C179	C	0.871437	-0.140024	0.170163
C180	C	1.204770	0.193310	0.503497
C181	C	0.570984	-0.446645	-0.106236
C182	C	0.904317	-0.113311	0.227097
C183	C	1.237651	0.220022	0.560430
C184	C	0.636740	-0.446632	0.007630
C185	C	0.970074	-0.113298	0.340963
C186	C	1.303407	0.220035	0.674296
C187	C	0.636739	-0.393220	0.007623
C188	C	0.970072	-0.059887	0.340956
C189	C	1.303406	0.273446	0.674290
C190	C	0.603860	-0.366521	-0.049313
C191	C	0.937194	-0.033188	0.284020
C192	C	1.270527	0.300146	0.617354
C193	C	0.570983	-0.393233	-0.106243
C194	C	0.904316	-0.059900	0.227091
C195	C	1.237649	0.273433	0.560424
C196	C	0.505219	-0.446655	-0.220104
C197	C	0.838553	-0.113322	0.113229
C198	C	1.171886	0.220012	0.446562
C199	C	0.505218	-0.393237	-0.220100
C200	C	0.838552	-0.059904	0.113234
C201	C	1.171885	0.273429	0.446567
C202	C	0.538099	-0.366525	-0.163166
C203	C	0.871432	-0.033192	0.170167
C204	C	1.204765	0.300142	0.503501
C205	C	0.538103	-0.313123	-0.163185
C206	C	0.871436	0.020211	0.170148
C207	C	1.204769	0.353544	0.503481
N208	N	0.570978	-0.286408	-0.106250
N209	N	0.904311	0.046926	0.227083
N210	N	1.237645	0.380259	0.560417
C211	C	0.603857	-0.313107	-0.049314
C212	C	0.937190	0.020226	0.284020
C213	C	1.270523	0.353560	0.617353
C214	C	0.538126	-0.799188	-0.163156
C215	C	0.871459	-0.465855	0.170177
C216	C	1.204792	-0.132521	0.503510
C217	C	0.538129	-0.852602	-0.163156
C218	C	0.871463	-0.519269	0.170178
C219	C	1.204796	-0.185935	0.503511
C220	C	0.603886	-0.852586	-0.049280
C221	C	0.937219	-0.519253	0.284053
C222	C	1.270553	-0.185920	0.617387
C223	C	0.603884	-0.799171	-0.049285
C224	C	0.937218	-0.465838	0.284048
C225	C	1.270551	-0.132505	0.617382
C226	C	0.571001	-0.772473	-0.106221
C227	C	0.904334	-0.439140	0.227113
C228	C	1.237667	-0.105806	0.560446
C229	C	0.603852	-0.200939	-0.049332
C230	C	0.937185	0.132394	0.284001
C231	C	1.270519	0.465728	0.617335
C232	C	0.603849	-0.147523	-0.049346
C233	C	0.937182	0.185810	0.283987
C234	C	1.270516	0.519144	0.617321
C235	C	0.538091	-0.147543	-0.163218
C236	C	0.871424	0.185790	0.170115
C237	C	1.204757	0.519123	0.503448
C238	C	0.538095	-0.200955	-0.163208
C239	C	0.871428	0.132379	0.170125
C240	C	1.204762	0.465712	0.503459
C241	C	0.570977	-0.227651	-0.106258
C242	C	0.904311	0.105682	0.227076
C243	C	1.237644	0.439015	0.560409
O244	O	0.510166	-0.285463	-0.211598
O245	O	0.843499	0.047871	0.121735
O246	O	1.176833	0.381204	0.455068
O247	O	0.631811	-0.285473	-0.000887
O248	O	0.965144	0.047861	0.332446
O249	O	1.298477	0.381194	0.665779
C250	C	0.603864	-0.526755	-0.049294
C251	C	0.937197	-0.193422	0.284040
C252	C	1.270531	0.139911	0.617373
C253	C	0.570986	-0.553468	-0.106223
C254	C	0.904320	-0.220134	0.227110
C255	C	1.237653	0.113199	0.560443
C256	C	0.538108	-0.526769	-0.163159
C257	C	0.871441	-0.193435	0.170174
C258	C	1.204774	0.139898	0.503507
C259	C	0.570990	-0.606882	-0.106223
C260	C	0.904323	-0.273549	0.227111
C261	C	1.237657	0.059785	0.560444
C262	C	0.603869	-0.633581	-0.049287
C263	C	0.937202	-0.300248	0.284047
C264	C	1.270536	0.033086	0.617380
C265	C	0.636744	-0.606866	0.007649
C266	C	0.970077	-0.273533	0.340982
C267	C	1.303411	0.059801	0.674316
C268	C	0.636743	-0.553455	0.007643
C269	C	0.970076	-0.220121	0.340976
C270	C	1.303409	0.113212	0.674309
C271	C	0.505233	-0.553483	-0.220095
C272	C	0.838566	-0.220150	0.113238
C273	C	1.171899	0.113183	0.446572
C274	C	0.505237	-0.606895	-0.220084
C275	C	0.838570	-0.273562	0.113249
C276	C	1.171904	0.059772	0.446582
C277	C	0.538116	-0.633594	-0.163148
C278	C	0.871449	-0.300261	0.170185
C279	C	1.204782	0.033072	0.503518
C280	C	0.659363	-0.000072	-0.099019
C281	C	0.992696	0.333261	0.234314
C282	C	1.326030	0.666595	0.567647
C283	C	0.713023	-0.000075	-0.099952
C284	C	1.046357	0.333258	0.233381
C285	C	1.379690	0.666592	0.566714
C286	C	0.574540	-0.000068	0.045797
C287	C	0.907873	0.333265	0.379130
C288	C	1.241207	0.666598	0.712464
C289	C	0.573601	-0.000069	0.138080
C290	C	0.906934	0.333264	0.471414
C291	C	1.240268	0.666598	0.804747
N292	N	0.571008	0.120699	-0.106219
N293	N	0.904341	0.454032	0.227114
N294	N	1.237675	0.787365	0.560447
C295	C	0.567434	-0.000056	-0.258305
C296	C	0.900768	0.333278	0.075028
C297	C	1.234101	0.666611	0.408361
C298	C	0.568373	-0.000052	-0.350589
C299	C	0.901707	0.333282	-0.017255
C300	C	1.235040	0.666615	0.316078
C301	C	0.615466	-0.000066	0.360885
C302	C	0.948800	0.333267	0.694218
C303	C	1.282133	0.666601	1.027552
C304	C	0.614580	-0.000062	0.447594
C305	C	0.947913	0.333272	0.780927
C306	C	1.281247	0.666605	1.114261
C307	C	0.526505	-0.000053	0.426600
C308	C	0.859838	0.333280	0.759933
C309	C	1.193172	0.666614	1.093266
C310	C	0.527392	-0.000054	0.339892
C311	C	0.860725	0.333280	0.673226
C312	C	1.194058	0.666613	1.006559
C313	C	0.571874	-0.000063	0.307038
C314	C	0.905207	0.333271	0.640371
C315	C	1.238540	0.666604	0.973704
C316	C	0.570101	-0.000058	0.480454
C317	C	0.903434	0.333276	0.813787
C318	C	1.236768	0.666609	1.147121
C319	C	0.569140	-0.000053	0.574468
C320	C	0.902473	0.333280	0.907801
C321	C	1.235807	0.666614	1.241135
C322	C	0.572835	-0.000066	0.213018
C323	C	0.906168	0.333267	0.546351
C324	C	1.239502	0.666600	0.879684
H325	H	0.332806	-0.083983	-0.110880
H326	H	0.666139	0.249351	0.222453
H327	H	0.999472	0.582684	0.555786
F328	F	0.638878	-0.881011	0.011316
F329	F	0.972212	-0.547678	0.344649
F330	F	1.305545	-0.214345	0.677982
F331	F	-0.184527	0.095424	-0.101721
F332	F	0.148807	0.428757	0.231612
F333	F	0.482140	0.762090	0.564945
H334	H	-0.050373	-0.130247	-0.104130
H335	H	0.282960	0.203086	0.229203
H336	H	0.616294	0.536420	0.562536
F337	F	0.430565	-0.095540	-0.112616
F338	F	0.763898	0.237793	0.220717
F339	F	1.097231	0.571127	0.554051
H340	H	0.041094	-0.130250	-0.105743
H341	H	0.374428	0.203084	0.227590
H342	H	0.707761	0.536417	0.560923
F343	F	0.638849	-0.229344	0.011281
F344	F	0.972183	0.103990	0.344614
F345	F	1.305516	0.437323	0.677947
F346	F	0.503139	-0.881026	-0.223762
F347	F	0.836473	-0.547693	0.109571
F348	F	1.169806	-0.214359	0.442905
F349	F	0.479167	-0.000043	0.461574
F350	F	0.812500	0.333290	0.794907
F351	F	1.145833	0.666624	1.128241
F352	F	0.047403	0.141681	-0.105782
F353	F	0.380736	0.475015	0.227552
F354	F	0.714070	0.808348	0.560885
H355	H	0.511347	-0.777454	-0.209522
H356	H	0.844680	-0.444120	0.123811
H357	H	1.178014	-0.110787	0.457145
H358	H	0.491891	-0.000049	0.296047
H359	H	0.825224	0.333284	0.629380
H360	H	1.158558	0.666617	0.962714
H361	H	0.630626	-0.125775	-0.002984
H362	H	0.963959	0.207558	0.330350
H363	H	1.297293	0.540891	0.663683
F364	F	0.094602	0.141691	-0.106597
F365	F	0.427935	0.475025	0.226736
F366	F	0.761268	0.808358	0.560069
F367	F	0.671733	-0.364796	0.068223
F368	F	1.005066	-0.031463	0.401556
F369	F	1.338399	0.301871	0.734890
F370	F	0.198664	0.141691	-0.108421
F371	F	0.531998	0.475024	0.224912
F372	F	0.865331	0.808357	0.558245
H373	H	0.192339	-0.130244	-0.108411
H374	H	0.525673	0.203090	0.224922
H375	H	0.859006	0.536423	0.558255
H376	H	0.100886	-0.130247	-0.106797
H377	H	0.434220	0.203086	0.226536
H378	H	0.767553	0.536420	0.559869
H379	H	0.332799	0.083876	-0.110849
H380	H	0.666132	0.417210	0.222485
H381	H	0.999466	0.750543	0.555818
H382	H	0.650078	-0.000063	0.491434
H383	H	0.983411	0.333270	0.824767
H384	H	1.316744	0.666603	1.158101
H385	H	-0.190831	-0.084001	-0.101669
H386	H	0.142503	0.249332	0.231664
H387	H	0.475836	0.582665	0.564998
H388	H	0.424273	0.083876	-0.112455
H389	H	0.757606	0.417209	0.220879
H390	H	1.090939	0.750542	0.554212
H391	H	-0.282302	-0.084000	-0.100054
H392	H	0.051031	0.249334	0.233279
H393	H	0.384365	0.582667	0.566612
H394	H	-0.050353	0.130112	-0.104066
H395	H	0.282980	0.463445	0.229268
H396	H	0.616313	0.796779	0.562601
H397	H	-0.282287	0.083851	-0.100023
H398	H	0.051047	0.417184	0.233310
H399	H	0.384380	0.750518	0.566643
H400	H	0.663514	-0.468366	0.053998
H401	H	0.996848	-0.135032	0.387331
H402	H	1.330181	0.198301	0.720664
H403	H	0.630658	-0.777425	-0.002925
H404	H	0.963992	-0.444092	0.330409
H405	H	1.297325	-0.110759	0.663742
H406	H	0.478458	-0.531749	-0.266458
H407	H	0.811791	-0.198416	0.066875
H408	H	1.145125	0.134918	0.400208
F409	F	0.470223	-0.475075	-0.280700
F410	F	0.803556	-0.141741	0.052634
F411	F	1.136889	0.191592	0.385967
H412	H	0.511325	-0.222704	-0.209576
H413	H	0.844659	0.110629	0.123757
H414	H	1.177992	0.443962	0.457090
F415	F	0.470217	-0.364827	-0.280699
F416	F	0.803550	-0.031493	0.052635
F417	F	1.136883	0.301840	0.385968
F418	F	0.662808	-0.000075	0.325921
F419	F	0.996141	0.333258	0.659255
F420	F	1.329474	0.666592	0.992588
F421	F	0.503101	-0.119120	-0.223813
F422	F	0.836434	0.214213	0.109520
F423	F	1.169768	0.547547	0.442853
F424	F	0.671738	-0.635291	0.068242
F425	F	1.005071	-0.301957	0.401576
F426	F	1.338404	0.031376	0.734909
F427	F	0.671739	-0.525032	0.068240
F428	F	1.005072	-0.191698	0.401573
F429	F	1.338405	0.141635	0.734907
F430	F	0.470241	-0.635319	-0.280689
F431	F	0.803574	-0.301986	0.052644
F432	F	1.136907	0.031348	0.385978
