data_functionalizedCrystal
_audit_creation_method	'MofGen! by Chris Wilmer'
_symmetry_space_group_name_H-M	'P1'
_symmetry_Int_Tables_number	1
_symmetry_cell_setting	triclinic
loop_
_symmetry_equiv_pos_as_xyz
  x,y,z
_cell_length_a	17.699083
_cell_length_b	10.540539
_cell_length_c	16.176319
_cell_angle_alpha	89.995366
_cell_angle_beta	89.998611
_cell_angle_gamma	83.904253
loop_
_atom_site_label
_atom_site_type_symbol
_atom_site_fract_x
_atom_site_fract_y
_atom_site_fract_z
O1	O	1.005122	0.160521	-0.068627
O2	O	0.784880	0.181405	-0.068653
O3	O	0.900026	-0.013836	-0.068638
O4	O	0.889976	0.355761	-0.068642
O5	O	0.900010	-0.013848	0.068855
O6	O	0.784864	0.181392	0.068840
O7	O	1.005106	0.160508	0.068866
Cu8	Cu	0.894984	0.170949	0.081407
Cu9	Cu	0.895003	0.170964	-0.081194
O10	O	0.889960	0.355749	0.068852
C11	C	0.756670	0.180650	0.000090
C12	C	0.672637	0.178405	0.000080
C13	C	0.624761	0.293007	0.000079
C14	C	0.545804	0.290890	0.000090
C15	C	0.514725	0.174170	0.000095
C16	C	0.562607	0.059559	0.000098
C17	C	0.641562	0.061677	0.000094
C18	C	0.244188	0.051014	0.000119
C19	C	0.165226	0.048904	0.000121
C20	C	0.148430	0.280227	0.000115
C21	C	0.227386	0.282345	0.000110
C22	C	0.275261	0.167735	0.000118
C23	C	0.360875	0.170032	0.000108
C24	C	0.429112	0.171872	0.000099
C25	C	0.899264	-0.061131	0.000107
C26	C	0.897009	-0.202038	0.000102
C27	C	0.810610	-0.383885	-0.000217
C28	C	0.812896	-0.237308	0.000093
C29	C	0.937479	-0.264443	0.078622
C30	C	0.934609	-0.410935	0.078688
C31	C	0.936338	-0.411471	-0.077667
C32	C	0.937113	-0.264503	-0.078705
C33	C	1.033316	0.161263	0.000122
C34	C	1.117349	0.163508	0.000126
C35	C	0.890722	0.403044	0.000105
C36	C	0.892977	0.543951	0.000104
N37	N	0.894976	0.170938	0.195773
N38	N	0.895016	0.170965	-0.195559
C39	C	0.945978	0.084521	0.239043
C40	C	0.945982	0.084519	0.325591
C41	C	0.894987	0.170942	0.368865
C42	C	0.843979	0.257364	0.325588
C43	C	0.843972	0.257358	0.239043
C44	C	0.844005	0.257387	0.674617
C45	C	0.844017	0.257389	0.761168
C46	C	0.946015	0.084549	0.761164
C47	C	0.946008	0.084543	0.674619
C48	C	0.894998	0.170959	0.631349
C49	C	0.894993	0.170958	0.537505
C50	C	0.894994	0.170951	0.462708
H51	H	0.781052	-0.194117	-0.056194
H52	H	0.909121	-0.442520	-0.137180
H53	H	0.777512	-0.413492	0.055768
O54	O	1.001005	-0.008664	0.372265
H55	H	1.036475	-0.068741	0.327633
H56	H	0.506826	0.384211	0.000088
O57	O	0.770419	-0.181212	0.074773
H58	H	0.748169	-0.258794	0.110812
H59	H	0.987548	0.014180	0.796403
O60	O	0.295817	-0.072598	0.000129
H61	H	0.284695	-0.128461	-0.055912
H62	H	0.802488	0.327767	0.796401
O63	O	1.000975	-0.008719	0.192382
H64	H	0.968772	-0.070338	0.152966
O65	O	0.766590	-0.420972	-0.074790
H66	H	0.802942	-0.491241	-0.112423
O67	O	0.529087	-0.066334	0.000113
H68	H	0.548273	-0.121396	-0.055922
H69	H	0.650060	0.388054	0.000074
H70	H	0.252686	0.377390	0.000102
O71	O	0.788966	0.350570	0.192365
H72	H	0.753512	0.410676	0.236995
H73	H	0.907501	-0.223097	-0.136792
O74	O	0.894970	-0.447590	0.156421
H75	H	0.836403	-0.398135	0.157786
H76	H	0.998438	-0.241403	-0.083439
H77	H	0.987536	0.014174	0.639387
H78	H	0.109440	0.373548	0.000113
H79	H	0.139925	-0.046149	0.000127
O80	O	0.693206	-0.061927	0.000092
H81	H	0.658331	-0.143448	0.000089
H82	H	0.802453	0.327727	0.360828
O83	O	1.014732	-0.475957	0.083436
H84	H	1.055356	-0.402726	0.085682
O85	O	1.016816	-0.475489	-0.078371
H86	H	1.015860	-0.580546	-0.080736
O87	O	0.788997	0.350600	0.627951
H88	H	0.753546	0.410704	0.672586
H89	H	0.999250	-0.243219	0.081549
H90	H	0.909354	-0.221335	0.137047
