data_functionalizedCrystal
_audit_creation_method	'MofGen! by Chris Wilmer'
_symmetry_space_group_name_H-M	'P1'
_symmetry_Int_Tables_number	1
_symmetry_cell_setting	triclinic
loop_
_symmetry_equiv_pos_as_xyz
  x,y,z
_cell_length_a	21.295419
_cell_length_b	21.295419
_cell_length_c	21.295411
_cell_angle_alpha	89.995824
_cell_angle_beta	90.025287
_cell_angle_gamma	89.981383
loop_
_atom_site_label
_atom_site_type_symbol
_atom_site_fract_x
_atom_site_fract_y
_atom_site_fract_z
Zn1	Zn	-0.962480	-0.250403	-0.356000
Zn2	Zn	-0.962435	-0.355655	-0.250758
Zn3	Zn	-0.857203	-0.250434	-0.250744
Zn4	Zn	-0.857225	-0.355668	-0.355988
O5	O	-0.909836	-0.303040	-0.303372
O6	O	-1.050563	-0.264346	-0.342050
O7	O	-0.948447	-0.341704	-0.162666
O8	O	-0.871178	-0.162340	-0.264706
O9	O	-1.050530	-0.341674	-0.264729
O10	O	-0.948525	-0.162317	-0.342037
O11	O	-0.871134	-0.264398	-0.162656
O12	O	-0.769117	-0.264412	-0.264694
O13	O	-0.871215	-0.341697	-0.444079
O14	O	-0.769133	-0.341727	-0.342016
O15	O	-0.948546	-0.264359	-0.444088
O16	O	-0.948468	-0.443746	-0.264717
O17	O	-0.871171	-0.443756	-0.342030
C18	C	-0.746284	-0.303075	-0.303353
C19	C	-0.676316	-0.303105	-0.303359
C20	C	-0.643489	-0.262907	-0.343682
C21	C	-0.577747	-0.262892	-0.343684
C22	C	-0.544833	-0.303087	-0.303369
C23	C	-0.577668	-0.343287	-0.263038
C24	C	-0.643409	-0.343297	-0.263033
N25	N	-0.441585	-0.358167	-0.298465
N26	N	-0.379134	-0.358157	-0.298473
C27	C	-0.346759	-0.303060	-0.303380
N28	N	-0.379194	-0.247974	-0.308291
N29	N	-0.441651	-0.247985	-0.308286
C30	C	-0.473548	-0.303081	-0.303369
C31	C	-0.242646	-0.262843	-0.343707
C32	C	-0.176903	-0.262827	-0.343704
C33	C	-0.176825	-0.343227	-0.263062
C34	C	-0.242568	-0.343238	-0.263061
C35	C	-0.275474	-0.303046	-0.303387
C36	C	-0.909834	-0.466591	-0.303387
C37	C	-0.909891	-0.536559	-0.303415
C38	C	-0.909888	-0.303026	-0.467563
C39	C	-0.909910	-0.303021	-0.537531
C40	C	-0.074026	-0.303013	-0.303389
C41	C	-0.143994	-0.303021	-0.303388
C42	C	-0.909854	-0.138850	-0.303371
C43	C	-0.909862	-0.068881	-0.303371
C44	C	-0.869599	-0.036026	-0.263109
C45	C	-0.869598	0.029717	-0.263117
C46	C	-0.909872	0.062601	-0.303379
C47	C	-0.950137	0.029737	-0.343648
C48	C	-0.950132	-0.036004	-0.343644
N49	N	-0.964983	0.165835	-0.308219
N50	N	-0.964985	0.228286	-0.308220
C51	C	-0.909887	0.260676	-0.303395
N52	N	-0.854785	0.228255	-0.298558
N53	N	-0.854783	0.165797	-0.298554
C54	C	-0.909881	0.133886	-0.303388
C55	C	-0.869620	0.364817	-0.263140
C56	C	-0.869618	0.430561	-0.263151
C57	C	-0.950163	0.430580	-0.343680
C58	C	-0.950159	0.364838	-0.343671
C59	C	-0.909889	0.331960	-0.303398
C60	C	-0.950174	-0.262749	-0.570403
C61	C	-0.950173	-0.262722	-0.636146
C62	C	-0.909915	-0.302977	-0.669013
C63	C	-0.869643	-0.343252	-0.636133
C64	C	-0.869640	-0.343274	-0.570392
N65	N	-0.905086	-0.358047	-0.772246
N66	N	-0.905092	-0.358024	-0.834697
C67	C	-0.909919	-0.302914	-0.867088
N68	N	-0.914752	-0.247825	-0.834669
N69	N	-0.914750	-0.247848	-0.772211
C70	C	-0.909913	-0.302958	-0.740299
C71	C	-0.950184	-0.262609	-0.971246
C72	C	-0.950179	-0.262580	-1.036990
C73	C	-0.869652	-0.343117	-1.036976
C74	C	-0.869654	-0.343139	-0.971234
C75	C	-0.909923	-0.302886	-0.938373
C76	C	-0.909820	-0.303008	-0.139821
C77	C	-0.909919	-0.302836	-0.069853
H78	H	-0.150176	-0.230089	-0.376539
H79	H	-0.836862	-0.376027	-0.662898
H80	H	-0.836827	0.338047	-0.230350
C81	C	-0.833851	0.130489	-0.227366
C82	C	-0.825341	0.065843	-0.218856
H83	H	-0.806526	0.152789	-0.200043
H84	H	-0.876141	0.141267	-0.218163
H85	H	-0.824647	0.141255	-0.269661
H86	H	-0.834550	0.055077	-0.176561
H87	H	-0.783041	0.055061	-0.228054
C88	C	-0.985886	-0.136771	-0.379392
C89	C	-0.994394	-0.072124	-0.387900
H90	H	-1.013210	-0.159069	-0.406717
H91	H	-0.995088	-0.147536	-0.337102
H92	H	-0.943591	-0.147550	-0.388598
H93	H	-1.036689	-0.061344	-0.378689
H94	H	-0.985197	-0.061354	-0.430200
C95	C	-0.860899	-0.427840	-0.897319
C96	C	-0.825399	-0.387413	-0.935096
H97	H	-0.833573	-0.455170	-0.875008
H98	H	-0.888317	-0.451903	-0.922984
H99	H	-0.884873	-0.403862	-0.868340
H100	H	-0.801428	-0.411391	-0.964079
H101	H	-0.797969	-0.363348	-0.909429
C102	C	-0.663585	-0.449847	-0.232206
C103	C	-0.679498	-0.387490	-0.218712
H104	H	-0.685869	-0.477131	-0.204847
H105	H	-0.619727	-0.455589	-0.226433
H106	H	-0.674376	-0.459115	-0.274489
H107	H	-0.668702	-0.378221	-0.176431
H108	H	-0.723365	-0.381746	-0.224480
H109	H	-0.982960	-0.229924	-0.662916
H110	H	-0.150028	-0.375954	-0.230237
C111	C	-0.316622	-0.254234	-0.428395
C112	C	-0.278824	-0.218662	-0.388027
H113	H	-0.338952	-0.226958	-0.455757
H114	H	-0.345580	-0.278175	-0.404381
H115	H	-0.290966	-0.281688	-0.452431
H116	H	-0.304481	-0.191211	-0.363987
H117	H	-0.249863	-0.194711	-0.412043
H118	H	-0.836850	-0.376067	-0.543628
H119	H	-0.982949	0.338086	-0.376453
H120	H	-0.836828	0.457313	-0.230368
H121	H	-0.269296	-0.375974	-0.230229
H122	H	-0.670277	-0.230180	-0.376518
H123	H	-0.836807	-0.062790	-0.230316
H124	H	-0.551014	-0.230155	-0.376518
H125	H	-0.982971	-0.229829	-0.944489
H126	H	-0.982952	0.457354	-0.376464
C127	C	-1.029743	0.023154	-0.423250
C128	C	-0.994404	0.065880	-0.387908
H129	H	-1.057067	0.045468	-0.450580
H130	H	-1.053813	-0.002479	-0.395828
H131	H	-1.002313	-0.002495	-0.447320
H132	H	-1.021834	0.091527	-0.363835
H133	H	-0.970332	0.091525	-0.415335
H134	H	-0.550866	-0.376013	-0.230213
C135	C	-1.029787	-0.182990	-1.030396
C136	C	-0.994442	-0.218311	-1.073126
H137	H	-1.057116	-0.155663	-1.052707
H138	H	-1.002366	-0.158923	-1.004737
H139	H	-1.053858	-0.210430	-1.004771
H140	H	-0.970368	-0.190870	-1.098747
H141	H	-1.021867	-0.242379	-1.098795
C142	C	-1.029771	-0.183140	-0.577025
C143	C	-0.994431	-0.218497	-0.534283
H144	H	-1.057089	-0.155818	-0.554724
H145	H	-1.053847	-0.210554	-0.602680
H146	H	-1.002341	-0.159062	-0.602653
H147	H	-1.021861	-0.242578	-0.508659
H148	H	-0.970353	-0.191079	-0.508618
H149	H	-0.836866	-0.375887	-1.063736
