data_functionalizedCrystal
_audit_creation_method	'MofGen! by Chris Wilmer'
_symmetry_space_group_name_H-M	'P1'
_symmetry_Int_Tables_number	1
_symmetry_cell_setting	triclinic
loop_
_symmetry_equiv_pos_as_xyz
  x,y,z
_cell_length_a	6.817900
_cell_length_b	9.582860
_cell_length_c	16.015572
_cell_angle_alpha	76.189886
_cell_angle_beta	104.485554
_cell_angle_gamma	111.206767
loop_
_atom_site_label
_atom_site_type_symbol
_atom_site_fract_x
_atom_site_fract_y
_atom_site_fract_z
V1	V	-4.003263	-0.060387	-0.269347
O2	O	-3.950086	0.153916	-0.264383
O3	O	-3.994506	-0.264976	-0.267348
O4	O	-3.926564	0.006805	-0.386890
O5	O	-4.018499	-0.119746	-0.144013
V6	V	-4.485422	-0.042583	-0.254375
O7	O	-4.267516	-0.099440	-0.302189
O8	O	-4.671367	-0.003529	-0.221533
O9	O	-4.270973	0.162006	-0.256374
O10	O	-4.655995	-0.256885	-0.259339
O11	O	-4.587583	0.016777	-0.379709
O12	O	-4.338915	-0.109774	-0.136832
C13	C	-3.850066	-0.316921	-0.263058
C14	C	-3.924004	-0.483749	-0.262208
C15	C	-3.763398	0.029764	-0.415545
C16	C	-3.782234	0.083346	-0.511636
C17	C	-4.163022	-0.392251	-0.888905
C18	C	-4.180716	-0.341854	-0.979193
C19	C	-4.053206	-0.081114	-0.954685
C20	C	-4.035491	-0.131490	-0.864393
C21	C	-4.090405	-0.287060	-0.831511
C22	C	-3.962873	-0.026298	-0.806999
C23	C	-3.945171	-0.076671	-0.716715
C24	C	-4.000085	-0.232235	-0.683826
C25	C	-4.072703	-0.337432	-0.741227
C26	C	-3.907974	0.129271	-0.839884
C27	C	-3.835357	0.234463	-0.782489
C28	C	-3.817639	0.184091	-0.692203
C29	C	-3.872554	0.028527	-0.659314
C30	C	-3.745022	0.289289	-0.634802
C31	C	-3.727319	0.238917	-0.544518
C32	C	-3.854851	-0.021845	-0.569030
C33	C	-4.078756	0.213942	-0.260661
C34	C	-3.984056	0.380772	-0.261517
C35	C	-4.165424	-0.132741	-0.108172
C36	C	-4.125826	-0.186316	-0.012081
H37	H	-3.985674	-0.273246	-0.610310
H38	H	-4.239844	-0.427525	-1.025922
O39	O	-3.908302	-0.172971	-0.537081
C40	C	-4.135770	-0.386385	-0.453751
C41	C	-4.075477	-0.215205	-0.489799
H42	H	-4.270966	-0.420590	-0.415531
H43	H	-3.990595	-0.412648	-0.408713
H44	H	-4.190478	-0.452671	-0.510383
H45	H	-4.020813	-0.148805	-0.433223
H46	H	-4.220703	-0.189060	-0.534862
H47	H	-3.922361	0.170280	-0.913399
H48	H	-4.117392	-0.464112	-0.714452
O49	O	-3.691373	0.440449	-0.666638
C50	C	-3.414329	0.683561	-0.669191
C51	C	-3.474804	0.512406	-0.633060
H52	H	-3.239220	0.741784	-0.642072
H53	H	-3.519390	0.734130	-0.648728
H54	H	-3.439585	0.701459	-0.743580
H55	H	-3.449539	0.494373	-0.558670
H56	H	-3.369748	0.461921	-0.653590
H57	H	-4.207712	-0.518931	-0.862130
O58	O	-3.782013	0.385526	-0.814579
C59	C	-3.752881	0.578693	-0.942805
C60	C	-3.813328	0.407571	-0.906583
H61	H	-3.778219	0.596570	-1.017195
H62	H	-3.577798	0.637030	-0.915704
H63	H	-3.858029	0.629163	-0.922324
H64	H	-3.708327	0.356968	-0.927050
H65	H	-3.988452	0.349342	-0.933680
O66	O	-3.999862	0.069949	-0.986775
C67	C	-3.970730	0.263116	-1.115001
C68	C	-4.031177	0.091995	-1.078779
H69	H	-3.996068	0.280993	-1.189391
H70	H	-3.795646	0.321454	-1.087900
H71	H	-4.075878	0.313586	-1.094520
H72	H	-3.926175	0.041391	-1.099246
H73	H	-4.206300	0.033766	-1.105876
H74	H	-3.668188	0.324574	-0.497786
