data_functionalizedCrystal
_audit_creation_method	'MofGen! by Chris Wilmer'
_symmetry_space_group_name_H-M	'P1'
_symmetry_Int_Tables_number	1
_symmetry_cell_setting	triclinic
loop_
_symmetry_equiv_pos_as_xyz
  x,y,z
_cell_length_a	12.645330
_cell_length_b	13.032831
_cell_length_c	13.032268
_cell_angle_alpha	90.886977
_cell_angle_beta	82.848687
_cell_angle_gamma	97.177187
loop_
_atom_site_label
_atom_site_type_symbol
_atom_site_fract_x
_atom_site_fract_y
_atom_site_fract_z
Zn1	Zn	-0.715929	-1.498478	0.780858
Zn2	Zn	-0.215929	-0.998478	1.280858
Zn3	Zn	-0.873876	-1.520220	0.608884
Zn4	Zn	-0.373876	-1.020220	1.108884
Zn5	Zn	-0.671644	-1.348336	0.587098
Zn6	Zn	-0.171644	-0.848336	1.087098
Zn7	Zn	-0.868144	-1.326468	0.759009
Zn8	Zn	-0.368144	-0.826468	1.259009
O9	O	-0.782398	-1.423375	0.683962
O10	O	-0.282398	-0.923375	1.183962
O11	O	-0.757814	-1.645282	0.776307
O12	O	-0.257814	-1.145282	1.276307
O13	O	-0.830915	-1.515670	0.462076
O14	O	-0.330915	-1.015670	0.962076
O15	O	-0.529182	-1.368306	0.612827
O16	O	-0.029182	-0.868306	1.112827
O17	O	-0.873856	-1.661256	0.649958
O18	O	-0.373856	-1.161256	1.149958
O19	O	-0.561718	-1.478614	0.755182
O20	O	-0.061718	-0.978614	1.255182
O21	O	-0.682336	-1.389388	0.446071
O22	O	-0.182336	-0.889388	0.946071
O23	O	-0.676778	-1.201515	0.591641
O24	O	-0.176778	-0.701515	1.091641
O25	O	-0.864087	-1.331034	0.905824
O26	O	-0.364087	-0.831034	1.405824
O27	O	-0.821146	-1.185448	0.717943
O28	O	-0.321146	-0.685448	1.217943
O29	O	-0.752256	-1.457409	0.921877
O30	O	-0.252256	-0.957409	1.421877
O31	O	-1.021452	-1.494465	0.628771
O32	O	-0.521452	-0.994465	1.128771
O33	O	-1.017241	-1.352116	0.739067
O34	O	-0.517241	-0.852116	1.239067
C35	C	-0.743535	-1.156164	0.650057
C36	C	-0.243535	-0.656164	1.150057
C37	C	-0.726938	-1.041847	0.635577
C38	C	-0.226938	-0.541847	1.135577
C39	C	-1.057816	-1.423302	0.683938
C40	C	-0.557816	-0.923302	1.183938
C41	C	-1.175658	-1.423360	0.683974
C42	C	-0.675658	-0.923360	1.183974
C43	C	-0.812472	-1.389357	0.952210
C44	C	-0.312472	-0.889357	1.452210
C45	C	-0.825288	-1.374860	1.066522
C46	C	-0.325288	-0.874860	1.566522
C47	C	-1.340692	-1.334105	0.753648
C48	C	-0.840692	-0.834105	1.253648
C49	C	-1.218045	-1.333733	0.753341
C50	C	-0.718045	-0.833733	1.253341
C51	C	-1.203807	-1.407793	0.571873
C52	C	-0.703807	-0.907793	1.071873
C53	C	-1.326389	-1.407248	0.572295
C54	C	-0.826389	-0.907248	1.072295
C55	C	-1.361707	-1.528779	0.725584
C56	C	-0.861707	-1.028779	1.225584
C57	C	-1.239270	-1.527810	0.727870
C58	C	-0.739270	-1.027810	1.227870
C59	C	-0.505912	-1.423474	0.684012
C60	C	-0.005912	-0.923474	1.184012
C61	C	-0.388090	-1.423516	0.684033
C62	C	0.111910	-0.923516	1.184033
C63	C	-0.821414	-1.691630	0.718000
C64	C	-0.321414	-1.191630	1.218000
C65	C	-0.838040	-1.805944	0.732505
C66	C	-0.338040	-1.305944	1.232505
C67	C	-0.791061	-0.982971	0.691519
C68	C	-0.291061	-0.482971	1.191519
C69	C	-0.773908	-0.864818	0.676555
C70	C	-0.273908	-0.364818	1.176555
C71	C	-0.752374	-1.457320	0.416765
C72	C	-0.252374	-0.957320	0.916765
C73	C	-0.739288	-1.472016	0.302479
C74	C	-0.239288	-0.972016	0.802479
C75	C	-0.775669	-1.430925	1.125428
C76	C	-0.275669	-0.930925	1.625428
C77	C	-0.788914	-1.415944	1.243575
C78	C	-0.288914	-0.915944	1.743575
H79	H	-1.199591	-1.341878	0.836032
H80	H	-0.699591	-0.841878	1.336032
H81	H	-1.159066	-1.332138	0.537955
H82	H	-0.659066	-0.832138	1.037955
Br83	Br	-1.146325	-1.203199	0.705654
Br84	Br	-0.646325	-0.703199	1.205654
H85	H	-0.659337	-1.004781	0.576608
H86	H	-0.159337	-0.504781	1.076608
Br87	Br	-0.950699	-0.867701	0.830827
Br88	Br	-0.450699	-0.367701	1.330827
H89	H	-0.723380	-1.490012	1.088392
H90	H	-0.223380	-0.990012	1.588392
H91	H	-0.686993	-1.531105	1.265449
H92	H	-0.186993	-1.031105	1.765449
Br93	Br	-1.369408	-1.204364	0.706481
Br94	Br	-0.869408	-0.704364	1.206481
H95	H	-0.841195	-1.356842	1.280605
H96	H	-0.341195	-0.856842	1.780605
Br97	Br	-0.903735	-1.044739	0.789813
Br98	Br	-0.403735	-0.544739	1.289813
H99	H	-0.706302	-0.827756	0.617582
H100	H	-0.206302	-0.327756	1.117582
Br101	Br	-0.912427	-1.276360	1.128238
Br102	Br	-0.412427	-0.776360	1.628238
Br103	Br	-1.409223	-1.347335	0.891882
Br104	Br	-0.909223	-0.847335	1.391882
Br105	Br	-1.377710	-1.512313	0.481654
Br106	Br	-0.877710	-1.012313	0.981654
Br107	Br	-1.350546	-1.279682	0.516296
Br108	Br	-0.850546	-0.779682	1.016296
H109	H	-1.405172	-1.545671	0.806666
H110	H	-0.905172	-1.045671	1.306666
Br111	Br	-1.210990	-1.547800	0.865492
Br112	Br	-0.710990	-1.047800	1.365492
Br113	Br	-1.157338	-1.513908	0.482045
Br114	Br	-0.657338	-1.013908	0.982045
H115	H	-1.392760	-1.595223	0.675049
H116	H	-0.892760	-1.095223	1.175049
Br117	Br	-1.193164	-1.642855	0.651351
Br118	Br	-0.693164	-1.142855	1.151351
