data_functionalizedCrystal
_audit_creation_method	'MofGen! by Chris Wilmer'
_symmetry_space_group_name_H-M	'P1'
_symmetry_Int_Tables_number	1
_symmetry_cell_setting	triclinic
loop_
_symmetry_equiv_pos_as_xyz
  x,y,z
_cell_length_a	10.489741
_cell_length_b	16.992695
_cell_length_c	15.455313
_cell_angle_alpha	87.152573
_cell_angle_beta	87.289477
_cell_angle_gamma	92.396302
loop_
_atom_site_label
_atom_site_type_symbol
_atom_site_fract_x
_atom_site_fract_y
_atom_site_fract_z
O1	O	1.708930	-0.107286	-0.072173
O2	O	2.208930	0.392714	0.427827
O3	O	1.338638	-0.117677	-0.072166
O4	O	1.838638	0.382323	0.427834
O5	O	1.522299	0.001669	-0.072162
O6	O	2.022299	0.501669	0.427838
O7	O	1.525269	-0.226632	-0.072176
O8	O	2.025269	0.273368	0.427824
O9	O	1.511794	-0.005127	0.072100
O10	O	2.011794	0.494873	0.572100
O11	O	1.328133	-0.124473	0.072096
O12	O	1.828133	0.375527	0.572096
O13	O	1.698425	-0.114083	0.072089
O14	O	2.198425	0.385917	0.572089
Cu15	Cu	1.512320	-0.119898	0.085265
Cu16	Cu	2.012320	0.380102	0.585265
Cu17	Cu	1.524744	-0.111861	-0.085341
Cu18	Cu	2.024744	0.388139	0.414659
O19	O	1.514764	-0.233428	0.072086
O20	O	2.014764	0.266572	0.572086
C21	C	1.513227	0.027505	-0.000031
C22	C	2.013227	0.527505	0.499969
C23	C	1.501832	0.114614	-0.000031
C24	C	2.001832	0.614614	0.499969
C25	C	1.285785	-0.120290	-0.000034
C26	C	1.785785	0.379710	0.499966
C27	C	1.143951	-0.117942	-0.000031
C28	C	1.643951	0.382058	0.499969
C29	C	1.751278	-0.111469	-0.000045
C30	C	2.251278	0.388531	0.499955
C31	C	1.893112	-0.113816	-0.000053
C32	C	2.393112	0.386184	0.499947
C33	C	1.967858	-0.189753	-0.000049
C34	C	2.467858	0.310247	0.499951
C35	C	2.062044	-0.150531	-0.071172
C36	C	2.562044	0.349469	0.428828
C37	C	2.051651	-0.157213	0.071059
C38	C	2.551651	0.342787	0.571059
C39	C	1.985434	-0.074560	-0.071235
C40	C	2.485434	0.425440	0.428765
C41	C	1.975028	-0.081256	0.071059
C42	C	2.475028	0.418744	0.571059
C43	C	2.069182	-0.041978	-0.000081
C44	C	2.569182	0.458022	0.499919
C45	C	1.523836	-0.259264	-0.000047
C46	C	2.023836	0.240736	0.499953
C47	C	1.535232	-0.346373	-0.000053
C48	C	2.035232	0.153627	0.499947
N49	N	1.503591	-0.125551	0.205260
N50	N	2.003591	0.374449	0.705260
C51	C	1.611782	0.164233	-0.000033
C52	C	2.111782	0.664233	0.499967
C53	C	1.601067	0.246081	-0.000041
C54	C	2.101067	0.746081	0.499959
C55	C	1.480402	0.278307	-0.000041
C56	C	1.980402	0.778307	0.499959
C57	C	1.370445	0.228681	-0.000043
C58	C	1.870445	0.728681	0.499957
C59	C	1.381161	0.146835	-0.000041
C60	C	1.881161	0.646835	0.499959
C61	C	1.435990	0.522156	-0.000052
C62	C	1.935990	1.022156	0.499948
C63	C	1.425282	0.604008	-0.000052
C64	C	1.925282	1.104008	0.499948
C65	C	1.655906	0.621402	-0.000051
C66	C	2.155906	1.121402	0.499949
C67	C	1.666611	0.539554	-0.000044
C68	C	2.166611	1.039554	0.499956
C69	C	1.556654	0.489935	-0.000050
C70	C	2.056654	0.989935	0.499950
N71	N	1.469448	0.361968	-0.000047
N72	N	1.969448	0.861968	0.499953
N73	N	1.567610	0.406276	-0.000051
N74	N	2.067610	0.906276	0.499949
N75	N	1.533482	-0.106202	-0.205337
N76	N	2.033482	0.393798	0.294663
C77	C	1.581647	-0.074868	0.250656
C78	C	2.081647	0.425132	0.750656
C79	C	1.575058	-0.079150	0.341464
C80	C	2.075058	0.420850	0.841464
C81	C	1.490418	-0.134120	0.386874
C82	C	1.990418	0.365880	0.886874
C83	C	1.412353	-0.184805	0.341472
C84	C	1.912353	0.315195	0.841472
C85	C	1.418936	-0.180519	0.250666
C86	C	1.918936	0.319481	0.750666
C87	C	1.462000	-0.152601	0.658455
C88	C	1.962000	0.347399	1.158455
C89	C	1.455425	-0.156885	0.749268
C90	C	1.955425	0.343115	1.249268
C91	C	1.618130	-0.051228	0.749253
C92	C	2.118130	0.448772	1.249253
C93	C	1.624711	-0.046950	0.658445
C94	C	2.124711	0.453050	1.158445
C95	C	1.546641	-0.097633	0.613051
C96	C	2.046641	0.402367	1.113051
N97	N	1.483684	-0.138500	0.479694
N98	N	1.983684	0.361500	0.979694
N99	N	1.553369	-0.093248	0.520232
N100	N	2.053369	0.406752	1.020232
H101	H	1.923647	-0.252184	-0.000124
H102	H	2.423647	0.247816	0.499876
H103	H	2.100238	-0.179830	-0.131304
H104	H	2.600238	0.320170	0.368696
N105	N	1.321058	-0.244089	0.390453
N106	N	1.821058	0.255911	0.890453
H107	H	1.370634	-0.280899	0.428111
H108	H	1.870634	0.219101	0.928111
H109	H	1.272624	-0.275490	0.347862
H110	H	1.772624	0.224510	0.847862
H111	H	1.355373	-0.221789	0.213706
H112	H	1.855373	0.278211	0.713706
H113	H	1.690600	0.286478	-0.000040
H114	H	2.190600	0.786478	0.499960
N115	N	1.741931	0.129481	-0.000029
N116	N	2.241931	0.629481	0.499971
H117	H	1.732040	0.070103	-0.000024
H118	H	2.232040	0.570103	0.499976
H119	H	1.786508	0.145074	0.053451
H120	H	2.286508	0.645074	0.553451
N121	N	1.377805	-0.207276	0.609514
N122	N	1.877805	0.292724	1.109514
H123	H	1.432838	-0.240530	0.571822
H124	H	1.932838	0.259470	1.071822
H125	H	1.320976	-0.175131	0.571906
H126	H	1.820976	0.324869	1.071906
H127	H	1.291628	0.106435	-0.000040
H128	H	1.791628	0.606435	0.499960
H129	H	1.956196	-0.039623	-0.131437
H130	H	2.456196	0.460377	0.368563
H131	H	2.113163	0.020516	-0.000112
H132	H	2.613163	0.520516	0.499888
N133	N	1.672915	-0.015563	0.201684
N134	N	2.172915	0.484437	0.701684
H135	H	1.665240	-0.020533	0.137269
H136	H	2.165240	0.479467	0.637269
H137	H	1.763230	-0.025905	0.217533
H138	H	2.263230	0.474095	0.717533
H139	H	1.638617	-0.037879	0.378424
H140	H	2.138617	0.462121	0.878424
H141	H	1.936807	-0.051986	0.131197
H142	H	2.436807	0.448014	0.631197
H143	H	1.272197	0.254926	-0.000049
H144	H	1.772197	0.754926	0.499951
H145	H	1.693631	-0.002189	0.621473
H146	H	2.193631	0.497811	1.121473
N147	N	2.090598	-0.203538	0.150709
N148	N	2.590598	0.296462	0.650709
H149	H	2.053518	-0.259351	0.150636
H150	H	2.553518	0.240649	0.650636
H151	H	2.057526	-0.177887	0.204390
H152	H	2.557526	0.322113	0.704390
N153	N	1.796756	0.504797	-0.000038
N154	N	2.296756	1.004797	0.499962
H155	H	1.864786	0.548651	-0.000040
H156	H	2.364786	1.048651	0.499960
H157	H	1.810124	0.473732	-0.053516
H158	H	2.310124	0.973732	0.446484
N159	N	1.702328	0.003434	0.798212
N160	N	2.202328	0.503434	1.298212
H161	H	1.685318	-0.007620	0.862628
H162	H	2.185318	0.492380	1.362628
H163	H	1.683067	0.059929	0.782352
H164	H	2.183067	0.559929	1.282352
N165	N	1.774497	0.674918	-0.000043
N166	N	2.274497	1.174918	0.499957
H167	H	1.749404	0.731657	-0.000044
H168	H	2.249404	1.231657	0.499956
H169	H	1.830620	0.666926	-0.053523
H170	H	2.330620	1.166926	0.446477
N171	N	1.295131	0.638768	-0.000053
N172	N	1.795131	1.138768	0.499947
H173	H	1.227098	0.594917	-0.000060
H174	H	1.727098	1.094917	0.499940
H175	H	1.289569	0.674867	-0.053533
H176	H	1.789569	1.174867	0.446467
N177	N	1.317399	0.468645	-0.000055
N178	N	1.817399	0.968645	0.499945
H179	H	1.239335	0.501482	-0.000051
H180	H	1.739335	1.001482	0.499949
H181	H	1.312924	0.431791	0.053425
H182	H	1.812924	0.931791	0.553425
N183	N	1.364144	-0.216184	0.798249
N184	N	1.864144	0.283816	1.298249
H185	H	1.315688	-0.247643	0.755714
H186	H	1.815688	0.252357	1.255714
H187	H	1.301939	-0.187593	0.835950
H188	H	1.801939	0.312407	1.335950
