data_functionalizedCrystal
_audit_creation_method	'MofGen! by Chris Wilmer'
_symmetry_space_group_name_H-M	'P1'
_symmetry_Int_Tables_number	1
_symmetry_cell_setting	triclinic
loop_
_symmetry_equiv_pos_as_xyz
  x,y,z
_cell_length_a	10.654541
_cell_length_b	27.732048
_cell_length_c	9.130307
_cell_angle_alpha	89.991788
_cell_angle_beta	89.999822
_cell_angle_gamma	83.563292
loop_
_atom_site_label
_atom_site_type_symbol
_atom_site_fract_x
_atom_site_fract_y
_atom_site_fract_z
O1	O	1.664985	0.067880	-0.121772
O2	O	1.299234	0.074349	-0.121787
O3	O	1.493469	0.000788	-0.121751
O4	O	1.470750	0.141440	-0.121808
O5	O	1.493463	0.000787	0.121848
O6	O	1.299228	0.074348	0.121812
O7	O	1.664979	0.067879	0.121827
Cu8	Cu	1.482103	0.071113	0.144062
Cu9	Cu	1.482110	0.071114	-0.144022
O10	O	1.470744	0.141439	0.121791
C11	C	1.252453	0.073873	0.000011
C12	C	1.113069	0.072453	0.000007
C13	C	1.081401	0.160415	-0.000047
C14	C	1.000086	0.203726	-0.000079
C15	C	0.869124	0.202389	-0.000080
C16	C	0.819476	0.157735	-0.000044
C17	C	0.900791	0.114423	-0.000012
C18	C	1.031754	0.115766	-0.000015
C19	C	0.932459	0.026463	0.000053
C20	C	1.063421	0.027799	0.000043
C21	C	0.882811	-0.018191	0.000089
C22	C	0.964126	-0.061504	0.000111
C23	C	1.095095	-0.060164	0.000110
C24	C	1.144736	-0.015512	0.000076
C25	C	1.492989	-0.017222	0.000052
C26	C	1.491553	-0.070886	0.000064
C27	C	1.597293	-0.409043	-0.000007
C28	C	1.591965	-0.610736	-0.000027
O29	O	1.688656	-0.641390	-0.000088
N30	N	1.476791	-0.630576	-0.000031
C31	C	1.362942	-0.599990	-0.000038
O32	O	1.264858	-0.621494	-0.000056
C33	C	1.368271	-0.398299	-0.000028
C34	C	1.483452	-0.378461	-0.000010
C35	C	1.712464	-0.389205	0.000010
C36	C	1.713795	-0.338785	0.000023
C37	C	1.599954	-0.308203	0.000020
C38	C	1.484783	-0.328041	0.000003
C39	C	1.254423	-0.367713	-0.000046
C40	C	1.255766	-0.317288	-0.000047
C41	C	1.370947	-0.297450	-0.000029
C42	C	1.372273	-0.247038	0.000013
N43	N	1.487446	-0.227198	0.000016
C44	C	1.601287	-0.257780	0.000019
C45	C	1.360152	-0.705882	-0.000041
C46	C	1.358819	-0.756305	-0.000041
C47	C	1.587843	-0.767046	-0.000032
C48	C	1.589174	-0.716623	-0.000022
C49	C	1.475325	-0.686041	-0.000037
C50	C	1.604073	-0.151893	0.000048
C51	C	1.605394	-0.101468	0.000068
C52	C	1.376371	-0.090731	0.000052
C53	C	1.375050	-0.141151	0.000040
C54	C	1.488911	-0.171732	0.000034
O55	O	1.275633	-0.216356	0.000057
O56	O	1.699357	-0.236267	0.000005
C57	C	1.595962	-0.459463	-0.000020
C58	C	1.480790	-0.479301	-0.000036
C59	C	1.366950	-0.448719	-0.000040
C60	C	1.479458	-0.529724	-0.000036
C61	C	1.593298	-0.560306	-0.000033
C62	C	1.708472	-0.540466	-0.000030
C63	C	1.709803	-0.490045	-0.000017
C64	C	1.251777	-0.468560	-0.000043
C65	C	1.250455	-0.518981	-0.000054
C66	C	1.364296	-0.549563	-0.000051
C67	C	1.711760	0.068354	0.000025
C68	C	1.851144	0.069774	0.000020
C69	C	1.471224	0.159450	-0.000016
C70	C	1.472660	0.213113	-0.000037
N71	N	1.482107	0.071112	0.346685
N72	N	1.482116	0.071111	-0.346645
C73	C	1.654171	0.005994	0.346706
C74	C	1.740211	-0.026564	0.423384
C75	C	1.740224	-0.026565	0.576717
C76	C	1.654184	0.005996	0.653377
C77	C	1.568144	0.038554	0.576699
C78	C	1.568143	0.038551	0.423362
C79	C	1.396076	0.103669	0.576678
C80	C	1.396067	0.103673	0.423344
C81	C	1.310037	0.136229	0.653337
C82	C	1.224000	0.168790	0.576660
C83	C	1.223992	0.168790	0.423317
C84	C	1.310027	0.136230	0.346667
H85	H	0.776174	-0.019277	0.000096
C86	C	1.833681	-0.061967	0.340418
C87	C	1.909010	-0.090488	0.440389
C88	C	1.995115	-0.123111	0.364021
H89	H	1.885724	-0.044447	0.280584
H90	H	1.788942	-0.082278	0.280647
H91	H	1.953747	-0.070179	0.500135
H92	H	1.857003	-0.108018	0.500226
H93	H	1.950375	-0.143422	0.304250
H94	H	2.047148	-0.105587	0.304191
H95	H	2.046228	-0.142469	0.431840
H96	H	1.040524	0.240082	-0.000105
H97	H	1.188035	0.161508	-0.000078
C98	C	0.781039	0.249464	-0.000193
C99	C	0.852540	0.288857	-0.000258
C100	C	0.771441	0.332230	-0.000383
H101	H	0.729259	0.250841	0.084728
H102	H	0.729315	0.250792	-0.085180
H103	H	0.904242	0.287530	0.084720
H104	H	0.904318	0.287496	-0.085172
H105	H	0.719717	0.333557	-0.085369
H106	H	0.719664	0.333601	0.084540
H107	H	0.819942	0.358962	-0.000440
H108	H	0.712838	0.156650	-0.000027
C109	C	1.833432	-0.061969	0.660059
C110	C	1.767126	-0.091802	0.748082
C111	C	1.852944	-0.124426	0.824864
H112	H	1.885391	-0.044448	0.719982
H113	H	1.884655	-0.081391	0.592500
H114	H	1.715925	-0.072383	0.815632
H115	H	1.715172	-0.109334	0.688195
H116	H	1.904167	-0.143848	0.757306
H117	H	1.904899	-0.106901	0.884779
H118	H	1.807968	-0.144675	0.884586
H119	H	0.923691	-0.097857	0.000139
H120	H	1.682964	-0.700475	-0.000009
C121	C	1.125352	-0.540487	-0.000377
C122	C	1.056627	-0.524976	-0.125730
C123	C	0.941389	-0.544781	-0.126101
H124	H	1.078360	-0.530035	0.084467
H125	H	1.140796	-0.574899	-0.000467
H126	H	1.041179	-0.490571	-0.125626
H127	H	1.103581	-0.535427	-0.210593
H128	H	0.956833	-0.579193	-0.126191
H129	H	0.894409	-0.534328	-0.041253
H130	H	0.894750	-0.534263	-0.211157
H131	H	1.161296	-0.095434	0.000142
H132	H	1.680536	-0.791955	-0.000029
H133	H	1.251370	-0.014417	0.000058
H134	H	1.801165	-0.565374	-0.000021
C135	C	1.130449	0.204157	0.659624
C136	C	1.055078	0.232664	0.559661
C137	C	0.968871	0.265245	0.636038
H138	H	1.175070	0.224484	0.719443
H139	H	1.078457	0.186589	0.719409
H140	H	1.107063	0.250231	0.499901
H141	H	1.010429	0.212350	0.499838
H142	H	0.916879	0.247677	0.695824
H143	H	1.013503	0.285569	0.695856
H144	H	0.917714	0.284588	0.568226
H145	H	1.281260	-0.157304	0.000066
H146	H	1.283685	-0.065822	0.000054
C147	C	1.236400	-0.672763	0.000033
C148	C	1.135266	-0.700938	0.000074
C149	C	1.021248	-0.670449	0.000171
H150	H	1.231966	-0.652854	-0.084889
H151	H	1.232086	-0.652882	0.085018
H152	H	1.139578	-0.720810	-0.084902
H153	H	1.139659	-0.720846	0.084991
H154	H	1.016934	-0.650568	0.085156
H155	H	1.016826	-0.650541	-0.084753
H156	H	0.952614	-0.689560	0.000212
H157	H	1.807587	-0.322638	0.000031
H158	H	1.699192	-0.085319	0.000086
H159	H	1.654189	0.005989	0.778229
C160	C	1.130432	0.204062	0.339994
C161	C	1.054052	0.178038	0.252007
C162	C	0.967839	0.210515	0.175251
H163	H	1.175049	0.224359	0.280049
H164	H	1.079125	0.223444	0.407568
H165	H	1.105353	0.158664	0.184441
H166	H	1.009406	0.157742	0.311916
H167	H	0.916531	0.229897	0.242825
H168	H	1.012467	0.230811	0.115314
H169	H	0.915997	0.192862	0.115553
H170	H	1.803594	-0.473898	-0.000002
H171	H	1.696790	-0.176787	0.000037
H172	H	1.805172	-0.414100	0.000007
H173	H	1.265028	-0.772452	-0.000030
H174	H	1.160631	-0.383856	-0.000070
C175	C	1.132059	-0.284142	-0.000289
C176	C	1.062648	-0.293169	-0.125607
C177	C	0.948679	-0.262651	-0.125867
H178	H	1.149160	-0.251255	-0.000357
H179	H	1.084716	-0.290213	0.084608
H180	H	1.109981	-0.287095	-0.210483
H181	H	1.045513	-0.326051	-0.125566
H182	H	0.901336	-0.268721	-0.040970
H183	H	0.965793	-0.229765	-0.125931
H184	H	0.901565	-0.268774	-0.210886
H185	H	1.159072	-0.443664	-0.000049
H186	H	1.654180	0.005995	0.221854
H187	H	1.310045	0.136226	0.778189
H188	H	1.310033	0.136229	0.221815
