data_functionalizedCrystal
_audit_creation_method	'MofGen! by Chris Wilmer'
_symmetry_space_group_name_H-M	'P1'
_symmetry_Int_Tables_number	1
_symmetry_cell_setting	triclinic
loop_
_symmetry_equiv_pos_as_xyz
  x,y,z
_cell_length_a	19.121275
_cell_length_b	19.121073
_cell_length_c	16.959447
_cell_angle_alpha	87.595601
_cell_angle_beta	87.574323
_cell_angle_gamma	89.928405
loop_
_atom_site_label
_atom_site_type_symbol
_atom_site_fract_x
_atom_site_fract_y
_atom_site_fract_z
Zn1	Zn	1.059778	-0.324794	0.411565
Zn2	Zn	1.393111	0.008539	0.744898
Zn3	Zn	1.726445	0.341872	1.078232
Zn4	Zn	1.054689	-0.442038	0.285245
Zn5	Zn	1.388022	-0.108705	0.618578
Zn6	Zn	1.721355	0.224629	0.951911
Zn7	Zn	0.942552	-0.319823	0.284794
Zn8	Zn	1.275886	0.013510	0.618127
Zn9	Zn	1.609219	0.346843	0.951461
Zn10	Zn	0.937504	-0.436994	0.422770
Zn11	Zn	1.270837	-0.103661	0.756103
Zn12	Zn	1.604170	0.229672	1.089436
O13	O	0.998631	-0.380912	0.351093
O14	O	1.331964	-0.047579	0.684427
O15	O	1.665297	0.285754	1.017760
O16	O	1.157205	-0.344538	0.390308
O17	O	1.490538	-0.011205	0.723641
O18	O	1.823871	0.322129	1.056974
O19	O	1.039797	-0.425856	0.174576
O20	O	1.373130	-0.092523	0.507910
O21	O	1.706463	0.240810	0.841243
O22	O	0.962345	-0.222379	0.296733
O23	O	1.295679	0.110954	0.630066
O24	O	1.629012	0.444287	0.963399
O25	O	1.153465	-0.430676	0.297501
O26	O	1.486799	-0.097343	0.630834
O27	O	1.820132	0.235990	0.964167
O28	O	1.048471	-0.226031	0.389871
O29	O	1.381804	0.107302	0.723204
O30	O	1.715137	0.440635	1.056537
O31	O	0.957411	-0.336066	0.174245
O32	O	1.290744	-0.002732	0.507579
O33	O	1.624077	0.330601	0.840912
O34	O	0.843781	-0.331175	0.307598
O35	O	1.177114	0.002158	0.640931
O36	O	1.510448	0.335491	0.974264
O37	O	0.953741	-0.422080	0.531892
O38	O	1.287074	-0.088747	0.865225
O39	O	1.620407	0.244586	1.198559
O40	O	0.840072	-0.417260	0.408968
O41	O	1.173405	-0.083927	0.742301
O42	O	1.506738	0.249406	1.075634
O43	O	1.043575	-0.339647	0.523660
O44	O	1.376908	-0.006314	0.856993
O45	O	1.710242	0.327019	1.190327
O46	O	1.034901	-0.539472	0.308366
O47	O	1.368234	-0.206139	0.641699
O48	O	1.701568	0.127194	0.975032
O49	O	0.948806	-0.535767	0.409404
O50	O	1.282139	-0.202433	0.742738
O51	O	1.615472	0.130900	1.076071
C52	C	0.816490	-0.373132	0.359450
C53	C	1.149823	-0.039798	0.692783
C54	C	1.483156	0.293535	1.026117
C55	C	0.738568	-0.369820	0.363045
C56	C	1.071902	-0.036486	0.696378
C57	C	1.405235	0.296847	1.029711
C58	C	0.700014	-0.413039	0.316335
C59	C	1.033347	-0.079705	0.649668
C60	C	1.366681	0.253628	0.983002
C61	C	0.626798	-0.409927	0.319723
C62	C	0.960132	-0.076594	0.653056
C63	C	1.293465	0.256740	0.986390
C64	C	0.592139	-0.363592	0.369817
C65	C	0.925472	-0.030259	0.703150
C66	C	1.258805	0.303074	1.036483
C67	C	0.630698	-0.320372	0.416532
C68	C	0.964031	0.012962	0.749865
C69	C	1.297365	0.346295	1.083198
C70	C	0.703912	-0.323487	0.413147
C71	C	1.037245	0.009846	0.746481
C72	C	1.370579	0.343179	1.079814
C73	C	0.371177	-0.351948	0.382460
C74	C	0.704510	-0.018615	0.715794
C75	C	1.037844	0.314718	1.049127
C76	C	0.297958	-0.348834	0.385839
C77	C	0.631291	-0.015501	0.719173
C78	C	0.964625	0.317832	1.052506
C79	C	0.294063	-0.438391	0.289031
C80	C	0.627397	-0.105058	0.622365
C81	C	0.960730	0.228276	0.955698
C82	C	0.367279	-0.441499	0.285648
C83	C	0.700612	-0.108166	0.618981
C84	C	1.033946	0.225167	0.952315
C85	C	0.405832	-0.398281	0.332366
C86	C	0.739165	-0.064948	0.665699
C87	C	1.072498	0.268385	0.999032
C88	C	0.517301	-0.360409	0.373279
C89	C	0.850634	-0.027076	0.706613
C90	C	1.183968	0.306258	1.039946
C91	C	0.480668	-0.401469	0.328907
C92	C	0.814002	-0.068135	0.662240
C93	C	1.147335	0.265198	0.995574
C94	C	0.990772	-0.563057	0.360166
C95	C	1.324106	-0.229724	0.693499
C96	C	1.657439	0.103609	1.026833
C97	C	0.987475	-0.640983	0.364071
C98	C	1.320808	-0.307649	0.697404
C99	C	1.654141	0.025684	1.030738
C100	C	0.966596	-1.081617	0.388855
C101	C	1.299930	-0.748284	0.722188
C102	C	1.633263	-0.414950	1.055522
C103	C	0.969695	-1.008398	0.385177
C104	C	1.303028	-0.675065	0.718510
C105	C	1.636361	-0.341731	1.051844
C106	C	1.016103	-0.973698	0.330767
C107	C	1.349436	-0.640365	0.664101
C108	C	1.682769	-0.307032	0.997434
C109	C	1.059420	-1.012222	0.280037
C110	C	1.392754	-0.678888	0.613371
C111	C	1.726087	-0.345555	0.946704
C112	C	1.056325	-1.085439	0.283720
C113	C	1.389658	-0.752106	0.617053
C114	C	1.722991	-0.418773	0.950386
C115	C	1.027697	-0.752724	0.317023
C116	C	1.361030	-0.419390	0.650357
C117	C	1.694363	-0.086057	0.983690
C118	C	1.030787	-0.679501	0.313343
C119	C	1.364121	-0.346167	0.646677
C120	C	1.697454	-0.012834	0.980010
C121	C	0.941062	-0.675682	0.418484
C122	C	1.274396	-0.342349	0.751818
C123	C	1.607729	-0.009015	1.085151
C124	C	0.937968	-0.748901	0.422159
C125	C	1.271301	-0.415568	0.755492
C126	C	1.604635	-0.082235	1.088825
C127	C	0.981288	-0.787418	0.371432
C128	C	1.314621	-0.454085	0.704765
C129	C	1.647955	-0.120752	1.038098
C130	C	1.019270	-0.898857	0.327005
C131	C	1.352603	-0.565523	0.660338
C132	C	1.685936	-0.232190	0.993672
C133	C	0.978124	-0.862259	0.375198
C134	C	1.311458	-0.528925	0.708531
C135	C	1.644791	-0.195592	1.041865
C136	C	1.181483	-0.388724	0.342705
C137	C	1.514816	-0.055391	0.676038
C138	C	1.848150	0.277942	1.009371
C139	C	1.259404	-0.392053	0.339130
C140	C	1.592737	-0.058720	0.672463
C141	C	1.926070	0.274613	1.005796
C142	C	0.998662	-0.380856	0.557257
C143	C	1.331996	-0.047522	0.890591
C144	C	1.665329	0.285811	1.223924
C145	C	0.998676	-0.380831	0.645112
C146	C	1.332009	-0.047498	0.978446
C147	C	1.665343	0.285835	1.311779
C148	C	1.006539	-0.198057	0.342002
C149	C	1.339872	0.135276	0.675335
C150	C	1.673206	0.468610	1.008668
C151	C	1.009909	-0.120135	0.338127
C152	C	1.343242	0.213198	0.671461
C153	C	1.676576	0.546532	1.004794
C154	C	0.998642	-0.380920	0.145727
C155	C	1.331975	-0.047587	0.479060
C156	C	1.665308	0.285747	0.812394
C157	C	0.998772	-0.380753	0.057856
C158	C	1.332106	-0.047419	0.391190
C159	C	1.665439	0.285914	0.724523
C160	C	0.951990	-0.423680	1.020869
C161	C	1.285323	-0.090347	1.354202
C162	C	1.618657	0.242987	1.687536
C163	C	1.045535	-0.337842	1.012292
C164	C	1.378869	-0.004509	1.345625
C165	C	1.712202	0.328825	1.678959
C166	C	1.045516	-0.337856	0.929748
C167	C	1.378850	-0.004523	1.263081
C168	C	1.712183	0.328811	1.596414
C169	C	0.998734	-0.380784	0.892760
C170	C	1.332067	-0.047450	1.226094
C171	C	1.665400	0.285883	1.559427
C172	C	0.951971	-0.423697	0.938317
C173	C	1.285304	-0.090364	1.271651
C174	C	1.618637	0.242970	1.604984
C175	C	1.092283	-0.294949	0.884185
C176	C	1.425617	0.038385	1.217518
C177	C	1.758950	0.371718	1.550851
C178	C	1.092266	-0.294962	0.801635
C179	C	1.425600	0.038372	1.134968
C180	C	1.758933	0.371705	1.468302
C181	C	1.045480	-0.337886	0.764646
C182	C	1.378813	-0.004553	1.097980
C183	C	1.712147	0.328781	1.431313
C184	C	0.998714	-0.380801	0.810208
C185	C	1.332048	-0.047467	1.143542
C186	C	1.665381	0.285866	1.476875
C187	C	0.951932	-0.423728	0.773221
C188	C	1.285265	-0.090395	1.106554
C189	C	1.618599	0.242939	1.439888
C190	C	0.905163	-0.466639	0.818782
C191	C	1.238496	-0.133306	1.152115
C192	C	1.571829	0.200027	1.485448
C193	C	0.905184	-0.466621	0.901328
C194	C	1.238518	-0.133288	1.234662
C195	C	1.571851	0.200045	1.567995
C196	C	1.045458	-0.337904	0.682100
C197	C	1.378792	-0.004571	1.015433
C198	C	1.712125	0.328763	1.348766
C199	C	0.951913	-0.423745	0.690669
C200	C	1.285246	-0.090412	1.024003
C201	C	1.618579	0.242922	1.357336
H202	H	0.602472	-0.282648	0.457323
H203	H	0.935806	0.050685	0.790656
H204	H	1.269139	0.384018	1.123990
H205	H	0.395494	-0.479229	0.244855
H206	H	0.728827	-0.145896	0.578188
H207	H	1.062160	0.187438	0.911522
Cl208	Cl	1.077609	-0.855228	0.258605
Cl209	Cl	1.410942	-0.521895	0.591939
Cl210	Cl	1.744275	-0.188561	0.925272
Cl211	Cl	1.104349	-0.283884	1.058791
Cl212	Cl	1.437682	0.049449	1.392125
Cl213	Cl	1.771016	0.382782	1.725458
H214	H	0.913810	-0.458696	0.660560
H215	H	1.247144	-0.125362	0.993894
H216	H	1.580477	0.207971	1.327227
H217	H	0.508891	-0.439197	0.288125
H218	H	0.842224	-0.105864	0.621458
H219	H	1.175558	0.227469	0.954791
Cl220	Cl	1.104253	-0.283968	0.624827
Cl221	Cl	1.437587	0.049366	0.958161
Cl222	Cl	1.770920	0.382699	1.291494
Cl223	Cl	1.151096	-0.240992	0.930686
Cl224	Cl	1.484429	0.092341	1.264020
Cl225	Cl	1.817763	0.425675	1.597353
Cl226	Cl	0.846357	-0.520607	0.772273
Cl227	Cl	1.179690	-0.187274	1.105607
Cl228	Cl	1.513023	0.146060	1.438940
Cl229	Cl	0.879634	-0.792519	0.490573
Cl230	Cl	1.212967	-0.459185	0.823906
Cl231	Cl	1.546300	-0.125852	1.157240
H232	H	0.867109	-0.501560	0.938431
H233	H	1.200443	-0.168226	1.271764
H234	H	1.533776	0.165107	1.605098
Cl235	Cl	1.082155	-0.801136	0.253250
Cl236	Cl	1.415489	-0.467802	0.586583
Cl237	Cl	1.748822	-0.134469	0.919917
Cl238	Cl	1.151058	-0.241014	0.744366
Cl239	Cl	1.484392	0.092319	1.077700
Cl240	Cl	1.817725	0.425652	1.411033
H241	H	0.913910	-0.458615	1.057968
H242	H	1.247243	-0.125282	1.391301
H243	H	1.580576	0.208051	1.724635
H244	H	0.905794	-0.644315	0.459785
H245	H	1.239127	-0.310982	0.793118
H246	H	1.572461	0.022352	1.126452
Cl247	Cl	0.473722	-0.302163	0.436254
Cl248	Cl	0.807056	0.031170	0.769587
Cl249	Cl	1.140389	0.364504	1.102921
H250	H	0.735302	-0.288293	0.451183
H251	H	1.068636	0.045040	0.784516
H252	H	1.401969	0.378373	1.117850
Cl253	Cl	0.743579	-0.471289	0.253355
Cl254	Cl	1.076912	-0.137956	0.586688
Cl255	Cl	1.410246	0.195377	0.920021
Cl256	Cl	1.117766	-0.968599	0.211640
Cl257	Cl	1.451100	-0.635266	0.544974
Cl258	Cl	1.784433	-0.301932	0.878307
H259	H	0.595411	-0.445120	0.281687
H260	H	0.928744	-0.111787	0.615020
H261	H	1.262077	0.221546	0.948353
H262	H	0.262666	-0.473578	0.250998
H263	H	0.595999	-0.140244	0.584331
H264	H	0.929332	0.193089	0.917664
H265	H	0.269740	-0.311097	0.426630
H266	H	0.603074	0.022236	0.759963
H267	H	0.936407	0.355569	1.093296
Cl268	Cl	1.089124	-0.635879	0.244927
Cl269	Cl	1.422458	-0.302545	0.578261
Cl270	Cl	1.755791	0.030788	0.911594
Cl271	Cl	0.419634	-0.297617	0.441192
Cl272	Cl	0.752967	0.035717	0.774526
Cl273	Cl	1.086301	0.369050	1.107859
H274	H	0.940342	-0.890514	0.419501
H275	H	1.273675	-0.557181	0.752835
H276	H	1.607008	-0.223848	1.086168
Cl277	Cl	0.915244	-0.959978	0.448955
Cl278	Cl	1.248577	-0.626645	0.782288
Cl279	Cl	1.581911	-0.293312	1.115621
Cl280	Cl	0.908247	-1.125232	0.457255
Cl281	Cl	1.241580	-0.791899	0.790588
Cl282	Cl	1.574914	-0.458565	1.123921
H283	H	1.091596	-1.116800	0.242414
H284	H	1.424930	-0.783467	0.575747
H285	H	1.758263	-0.450133	0.909080
