data_functionalizedCrystal
_audit_creation_method	'MofGen! by Chris Wilmer'
_symmetry_space_group_name_H-M	'P1'
_symmetry_Int_Tables_number	1
_symmetry_cell_setting	triclinic
loop_
_symmetry_equiv_pos_as_xyz
  x,y,z
_cell_length_a	19.805407
_cell_length_b	12.645330
_cell_length_c	19.805399
_cell_angle_alpha	89.978279
_cell_angle_beta	89.980427
_cell_angle_gamma	90.017692
loop_
_atom_site_label
_atom_site_type_symbol
_atom_site_fract_x
_atom_site_fract_y
_atom_site_fract_z
Zn1	Zn	1.034777	-0.422064	-0.382747
Zn2	Zn	1.034709	-0.599342	-0.269571
Zn3	Zn	0.921591	-0.422093	-0.269572
Zn4	Zn	0.921572	-0.599286	-0.382717
O5	O	0.978162	-0.510696	-0.326152
O6	O	1.129484	-0.445592	-0.367746
O7	O	1.019683	-0.575865	-0.174854
O8	O	0.936642	-0.273742	-0.284598
O9	O	1.129434	-0.575837	-0.284596
O10	O	1.019799	-0.273721	-0.367747
O11	O	0.936576	-0.445641	-0.174855
O12	O	0.826872	-0.445587	-0.284569
O13	O	0.936609	-0.575741	-0.477438
O14	O	0.826858	-0.575769	-0.367696
O15	O	1.019780	-0.445537	-0.477460
O16	O	1.019664	-0.747682	-0.284567
O17	O	0.936543	-0.747641	-0.367695
C18	C	0.802306	-0.510676	-0.326130
C19	C	0.727074	-0.510693	-0.326137
C20	C	0.691740	-0.578581	-0.369351
C21	C	0.621052	-0.578583	-0.369361
C22	C	0.585699	-0.510701	-0.326152
C23	C	0.621037	-0.442805	-0.282935
C24	C	0.691725	-0.442799	-0.282930
C25	C	0.335964	-0.442829	-0.282958
C26	C	0.265272	-0.442843	-0.282965
C27	C	0.265292	-0.578613	-0.369388
C28	C	0.335979	-0.578606	-0.369383
C29	C	0.371311	-0.510707	-0.326169
C30	C	0.447960	-0.510705	-0.326160
C31	C	0.509051	-0.510708	-0.326157
C32	C	0.978113	-0.786126	-0.326142
C33	C	0.978154	-0.903956	-0.326161
C34	C	0.926078	-1.071538	-0.378618
C35	C	0.925811	-0.948979	-0.378450
C36	C	0.958847	-0.948544	-0.254828
C37	C	0.958530	-1.071142	-0.255147
C38	C	1.049854	-1.071047	-0.344457
C39	C	1.049415	-0.948440	-0.346017
C40	C	1.154705	-0.510717	-0.326174
C41	C	1.229937	-0.510726	-0.326184
C42	C	0.978200	-0.510629	-0.502695
C43	C	0.978216	-0.510601	-0.577927
C44	C	0.978230	-0.234191	-0.326176
C45	C	0.978259	-0.116361	-0.326186
C46	C	1.021524	-0.442800	-0.613283
C47	C	1.021531	-0.442770	-0.683972
C48	C	0.978233	-0.510546	-0.719302
C49	C	0.934920	-0.578349	-0.683941
C50	C	0.934910	-0.578374	-0.613253
C51	C	0.934958	-0.578250	-0.969014
C52	C	0.934973	-0.578223	-1.039706
C53	C	1.021579	-0.442646	-1.039732
C54	C	1.021570	-0.442671	-0.969045
C55	C	0.978255	-0.510470	-0.933690
C56	C	0.978247	-0.510501	-0.857041
C57	C	0.978244	-0.510521	-0.795949
C58	C	0.978163	-0.510686	-0.150296
C59	C	0.978278	-0.510416	-0.075064
H60	H	0.937890	-0.918829	-0.431342
C61	C	0.582184	-0.653260	-0.416894
H62	H	0.535023	-0.643535	-0.410716
H63	H	0.593752	-0.724465	-0.406908
H64	H	0.593793	-0.637834	-0.462389
H65	H	0.994887	-1.100796	-0.214749
C66	C	0.887273	-0.652953	-0.574358
H67	H	0.893463	-0.643253	-0.527199
H68	H	0.897159	-0.724179	-0.585935
H69	H	0.841800	-0.637418	-0.585936
H70	H	0.907057	-0.917931	-0.239071
C71	C	0.730626	-0.653257	-0.416876
H72	H	0.777786	-0.643541	-0.410679
H73	H	0.719065	-0.637844	-0.462372
H74	H	0.719023	-0.724466	-0.406886
C75	C	0.374864	-0.653272	-0.416914
H76	H	0.343696	-0.693698	-0.442658
H77	H	0.402423	-0.699406	-0.390974
H78	H	0.402455	-0.612766	-0.446448
C79	C	0.226424	-0.653291	-0.416930
H80	H	0.179262	-0.643568	-0.410753
H81	H	0.237992	-0.724496	-0.406946
H82	H	0.238034	-0.637862	-0.462425
C83	C	1.104706	-0.907038	-0.298188
H84	H	1.147184	-0.935165	-0.311372
H85	H	1.094819	-0.928370	-0.253266
H86	H	1.106231	-0.832029	-0.300428
H87	H	0.938046	-1.100955	-0.431684
H88	H	0.236489	-0.387559	-0.247779
C89	C	1.102377	-1.110200	-0.292875
H90	H	1.145535	-1.082552	-0.304176
H91	H	1.103989	-1.185268	-0.293640
H92	H	1.090010	-1.086918	-0.248981
H93	H	1.067466	-1.101895	-0.395589
H94	H	0.906193	-1.099832	-0.239669
H95	H	0.364723	-0.387549	-0.247765
H96	H	0.720492	-0.387512	-0.247744
C97	C	0.582151	-0.368140	-0.235404
H98	H	0.534991	-0.377875	-0.241591
H99	H	0.593748	-0.296931	-0.245383
H100	H	0.593716	-0.383571	-0.189908
H101	H	0.873332	-1.102438	-0.366668
H102	H	1.056785	-0.387612	-0.584522
H103	H	1.056846	-0.387437	-1.068527
C104	C	0.887292	-0.652903	-0.722799
H105	H	0.861493	-0.693280	-0.691616
H106	H	0.913176	-0.699087	-0.750374
H107	H	0.857812	-0.612332	-0.750372
C108	C	0.887343	-0.652777	-1.078572
H109	H	0.893561	-0.643058	-1.125734
H110	H	0.841867	-0.637260	-1.066985
H111	H	0.897232	-0.724014	-1.066981
C112	C	1.069174	-0.368194	-0.722861
H113	H	1.094965	-0.327843	-0.691696
H114	H	1.043301	-0.321987	-0.750436
H115	H	1.098659	-0.408750	-0.750438
H116	H	1.056830	-0.387484	-0.940283
C117	C	0.854113	-0.909476	-0.362088
H118	H	0.825036	-0.968356	-0.355512
H119	H	0.837847	-0.867753	-0.398507
H120	H	0.855220	-0.867960	-0.322136
H121	H	0.899699	-0.633472	-0.940236
H122	H	0.995649	-0.919382	-0.214695
H123	H	1.063974	-0.919294	-0.398514
