data_functionalizedCrystal
_audit_creation_method	'MofGen! by Chris Wilmer'
_symmetry_space_group_name_H-M	'P1'
_symmetry_Int_Tables_number	1
_symmetry_cell_setting	triclinic
loop_
_symmetry_equiv_pos_as_xyz
  x,y,z
_cell_length_a	29.839134
_cell_length_b	29.839131
_cell_length_c	29.839125
_cell_angle_alpha	90.017709
_cell_angle_beta	90.021980
_cell_angle_gamma	90.036281
loop_
_atom_site_label
_atom_site_type_symbol
_atom_site_fract_x
_atom_site_fract_y
_atom_site_fract_z
Zn1	Zn	0.686720	-0.178978	0.254125
Zn2	Zn	0.686652	-0.254090	0.178995
Zn3	Zn	0.611602	-0.178968	0.178995
Zn4	Zn	0.611550	-0.254075	0.254083
O5	O	0.649131	-0.216528	0.216549
O6	O	0.749578	-0.188952	0.244176
O7	O	0.676690	-0.244127	0.116128
O8	O	0.621617	-0.116102	0.188978
O9	O	0.749528	-0.244137	0.188979
O10	O	0.676805	-0.116109	0.244176
O11	O	0.621551	-0.188935	0.116127
O12	O	0.548728	-0.188921	0.188938
O13	O	0.621528	-0.244111	0.316956
O14	O	0.548690	-0.244101	0.244105
O15	O	0.676755	-0.188937	0.316987
O16	O	0.676639	-0.316955	0.188938
O17	O	0.621462	-0.316944	0.244105
C18	C	0.532408	-0.216509	0.216517
C19	C	0.482474	-0.216511	0.216514
C20	C	0.172820	-0.245303	0.245240
C21	C	-0.014853	-0.245315	0.245260
O22	O	-0.039127	-0.269774	0.269665
N23	N	-0.038311	-0.216544	0.216583
C24	C	-0.014848	-0.187766	0.187902
O25	O	-0.039107	-0.163291	0.163514
C26	C	0.172824	-0.187751	0.187884
C27	C	0.196280	-0.216527	0.216560
C28	C	0.196276	-0.274076	0.273913
C29	C	0.243191	-0.274075	0.273906
C30	C	0.266651	-0.245299	0.245226
C31	C	0.243195	-0.216526	0.216553
C32	C	0.196286	-0.158971	0.159205
C33	C	0.243207	-0.158969	0.159204
C34	C	0.266663	-0.187745	0.187880
C35	C	0.313570	-0.187749	0.187865
N36	N	0.337029	-0.216520	0.216542
C37	C	0.313569	-0.245295	0.245222
C38	C	-0.113379	-0.187776	0.187912
C39	C	-0.160297	-0.187780	0.187916
C40	C	-0.160298	-0.245329	0.245275
C41	C	-0.113380	-0.245327	0.245269
C42	C	-0.089921	-0.216547	0.216589
C43	C	0.412095	-0.245290	0.245205
C44	C	0.459014	-0.245287	0.245194
C45	C	0.459012	-0.187736	0.187837
C46	C	0.412096	-0.187740	0.187846
C47	C	0.388639	-0.216519	0.216534
O48	O	0.337873	-0.163299	0.163477
O49	O	0.337836	-0.269759	0.269613
C50	C	0.125905	-0.245304	0.245247
C51	C	0.102449	-0.216531	0.216574
C52	C	0.125909	-0.187755	0.187893
C53	C	0.055531	-0.216535	0.216577
C54	C	0.032071	-0.245310	0.245258
C55	C	0.055529	-0.274082	0.273934
C56	C	0.102445	-0.274080	0.273927
C57	C	0.102451	-0.158984	0.159217
C58	C	0.055535	-0.158989	0.159226
C59	C	0.032075	-0.187764	0.187906
C60	C	0.649050	-0.333250	0.216527
C61	C	0.649056	-0.383185	0.216533
C62	C	0.677914	-0.692821	0.187866
C63	C	0.677969	-0.880494	0.187883
O64	O	0.702441	-0.904753	0.163493
N65	N	0.649224	-0.903970	0.216583
C66	C	0.620465	-0.880524	0.245283
O67	O	0.596020	-0.904798	0.269698
C68	C	0.620412	-0.692852	0.245268
C69	C	0.649156	-0.669379	0.216563
C70	C	0.706656	-0.669348	0.159164
C71	C	0.706640	-0.622433	0.159158
C72	C	0.677882	-0.598990	0.187854
C73	C	0.649140	-0.622463	0.216557
C74	C	0.591656	-0.669407	0.273969
C75	C	0.591646	-0.622486	0.273964
C76	C	0.620390	-0.599013	0.245259
C77	C	0.620367	-0.552106	0.245248
N78	N	0.649112	-0.528630	0.216548
C79	C	0.677869	-0.552072	0.187851
C80	C	0.620494	-0.979055	0.245289
C81	C	0.620507	-1.025973	0.245292
C82	C	0.678012	-1.025939	0.187893
C83	C	0.677996	-0.979021	0.187887
C84	C	0.649239	-0.955579	0.216589
C85	C	0.677834	-0.453547	0.187841
C86	C	0.677814	-0.406627	0.187836
C87	C	0.620311	-0.406664	0.245237
C88	C	0.620329	-0.453580	0.245240
C89	C	0.649094	-0.477020	0.216540
O90	O	0.595912	-0.527818	0.269629
O91	O	0.702318	-0.527791	0.163447
C92	C	0.677930	-0.739737	0.187872
C93	C	0.649188	-0.763210	0.216574
C94	C	0.620430	-0.739767	0.245271
C95	C	0.649200	-0.810128	0.216578
C96	C	0.677958	-0.833570	0.187881
C97	C	0.706703	-0.810094	0.159181
C98	C	0.706687	-0.763179	0.159175
C99	C	0.591685	-0.763243	0.273971
C100	C	0.591703	-0.810158	0.273974
C101	C	0.620461	-0.833601	0.245277
C102	C	0.766309	-0.216547	0.216582
C103	C	0.816244	-0.216555	0.216596
C104	C	0.649143	-0.216524	0.333728
C105	C	0.649148	-0.216522	0.383662
C106	C	0.649225	-0.099349	0.216582
C107	C	0.649265	-0.049415	0.216595
C108	C	0.649145	-0.216499	0.099827
C109	C	0.649227	-0.216374	0.049893
C110	C	0.677935	-0.187718	0.693325
C111	C	0.677957	-0.187680	0.880998
O112	O	0.702399	-0.163232	0.905279
N113	N	0.649208	-0.216402	0.904448
C114	C	0.620449	-0.245133	0.880976
O115	O	0.595993	-0.269559	0.905228
C116	C	0.620424	-0.245169	0.693304
C117	C	0.649179	-0.216448	0.669857
C118	C	0.706687	-0.158999	0.669877
C119	C	0.706683	-0.159011	0.622962
C120	C	0.677927	-0.187741	0.599494
C121	C	0.649175	-0.216460	0.622941
C122	C	0.591663	-0.273898	0.669833
C123	C	0.591659	-0.273903	0.622912
C124	C	0.620414	-0.245183	0.599465
C125	C	0.620415	-0.245202	0.552558
N126	N	0.649164	-0.216480	0.529108
C127	C	0.677920	-0.187749	0.552576
C128	C	0.620464	-0.245113	0.979507
C129	C	0.620471	-0.245105	1.026425
C130	C	0.677979	-0.187650	1.026443
C131	C	0.677974	-0.187661	0.979524
C132	C	0.649214	-0.216391	0.956057
C133	C	0.677910	-0.187776	0.454050
C134	C	0.677904	-0.187792	0.407130
C135	C	0.620395	-0.245244	0.407116
C136	C	0.620401	-0.245230	0.454032
C137	C	0.649161	-0.216493	0.477497
O138	O	0.595982	-0.269633	0.528248
O139	O	0.702366	-0.163320	0.528316
C140	C	0.677939	-0.187706	0.740240
C141	C	0.649187	-0.216425	0.763688
C142	C	0.620431	-0.245155	0.740219
C143	C	0.649194	-0.216417	0.810605
C144	C	0.677950	-0.187686	0.834074
C145	C	0.706699	-0.158964	0.810624
C146	C	0.706695	-0.158976	0.763708
C147	C	0.591682	-0.273877	0.763669
C148	C	0.591689	-0.273864	0.810585
C149	C	0.620445	-0.245133	0.834053
H150	H	0.121547	-0.135551	0.135861
H151	H	0.036441	-0.135556	0.135871
H152	H	-0.179407	-0.268759	0.268628
H153	H	0.568274	-0.297256	0.829671
O154	O	-0.090577	-0.273325	0.273062
C155	C	-0.037618	-0.333968	0.279000
C156	C	-0.063419	-0.302295	0.247470
H157	H	-0.015648	-0.357392	0.258322
H158	H	-0.062429	-0.354567	0.299489
H159	H	-0.015652	-0.313367	0.302538
H160	H	-0.085385	-0.322862	0.223905
H161	H	-0.038583	-0.281695	0.227013
H162	H	0.568229	-0.603402	0.297337
H163	H	0.568292	-0.829266	0.297349
H164	H	0.730097	-0.135623	0.603875
O165	O	0.266045	-0.131075	0.131321
C166	C	0.318965	-0.124936	0.070650
C167	C	0.293139	-0.156573	0.102207
H168	H	0.340869	-0.145539	0.047098
H169	H	0.340986	-0.101483	0.091291
H170	H	0.294131	-0.104361	0.050178
H171	H	0.317941	-0.177177	0.122686
H172	H	0.271111	-0.179997	0.081541
H173	H	0.177197	-0.135539	0.135854
O174	O	0.705846	-0.159689	1.049263
C175	C	0.711926	-0.099044	1.102266
C176	C	0.680322	-0.130677	1.076441
H177	H	0.691303	-0.075585	1.124253
H178	H	0.732464	-0.078479	1.077471
H179	H	0.735414	-0.119674	1.124218
H180	H	0.656807	-0.110081	1.054489
H181	H	0.659815	-0.151243	1.101261
H182	H	0.596895	-0.387570	0.268600
O183	O	0.706023	-1.048653	0.160041
C184	C	0.782478	-1.062933	0.138367
C185	C	0.750797	-1.037181	0.169924
H186	H	0.818684	-1.053675	0.146352
H187	H	0.774661	-1.053719	0.102123
H188	H	0.777541	-1.100499	0.143284
H189	H	0.755716	-0.999609	0.165046
H190	H	0.758622	-1.046433	0.206156
O191	O	0.705869	-0.159925	0.476890
C192	C	0.766559	-0.153878	0.529850
C193	C	0.734914	-0.185466	0.504020
H194	H	0.790056	-0.174516	0.551784
H195	H	0.745983	-0.130382	0.551842
H196	H	0.787085	-0.133347	0.505018
H197	H	0.714381	-0.206027	0.528820
H198	H	0.755516	-0.208933	0.482021
H199	H	0.701402	-0.959912	0.164514
O200	O	0.705780	-0.383895	0.159937
C201	C	0.762798	-0.388823	0.102986
C202	C	0.731158	-0.414620	0.134564
H203	H	0.783318	-0.413652	0.082457
H204	H	0.786298	-0.366838	0.123612
H205	H	0.742176	-0.366875	0.079488
H206	H	0.751745	-0.436592	0.158068
H207	H	0.707657	-0.436577	0.113910
H208	H	0.596925	-0.472692	0.268615
H209	H	0.392998	-0.164309	0.164496
O210	O	0.592597	-1.048841	0.273131
C211	C	0.567148	-1.121129	0.298605
C212	C	0.598770	-1.095289	0.267043
H213	H	0.572135	-1.158687	0.293701
H214	H	0.530916	-1.111973	0.290676
H215	H	0.575007	-1.111853	0.334832
H216	H	0.590951	-1.104552	0.230806
H217	H	0.634992	-1.104448	0.275011
H218	H	0.701258	-0.472626	0.164472
O219	O	0.481875	-0.159798	0.160022
C220	C	0.554161	-0.134309	0.134585
C221	C	0.528324	-0.165967	0.166113
H222	H	0.591719	-0.139293	0.139493
H223	H	0.544996	-0.098087	0.142546
H224	H	0.544890	-0.142134	0.098350
H225	H	0.537580	-0.158183	0.202359
H226	H	0.537491	-0.202180	0.158114
O227	O	0.125157	-0.302046	0.301827
C228	C	0.120186	-0.359145	0.358701
C229	C	0.094413	-0.327488	0.327132
H230	H	0.095341	-0.379730	0.379161
H231	H	0.142162	-0.338577	0.382259
H232	H	0.142140	-0.382586	0.338026
H233	H	0.072434	-0.304040	0.347770
H234	H	0.072465	-0.348084	0.303572
H235	H	0.262285	-0.297506	0.297258
O236	O	0.592512	-0.956356	0.273182
C237	C	0.535491	-0.961353	0.330127
C238	C	0.567153	-0.987112	0.298557
H239	H	0.514986	-0.986207	0.350658
H240	H	0.511977	-0.939431	0.309495
H241	H	0.556095	-0.939346	0.353624
H242	H	0.546585	-1.009143	0.275054
H243	H	0.590667	-1.009006	0.319217
O244	O	0.734501	-0.599615	0.131229
C245	C	0.740589	-0.546651	0.070588
C246	C	0.708981	-0.572466	0.102183
H247	H	0.719969	-0.524687	0.047103
H248	H	0.761135	-0.571452	0.050050
H249	H	0.764070	-0.524677	0.091246
H250	H	0.685473	-0.594441	0.081559
H251	H	0.688466	-0.547640	0.122722
H252	H	0.036420	-0.297513	0.297286
O253	O	0.734606	-0.692046	0.131242
C254	C	0.791654	-0.687046	0.074323
C255	C	0.760016	-0.661289	0.105920
H256	H	0.812213	-0.662190	0.053849
H257	H	0.771073	-0.709025	0.050779
H258	H	0.815121	-0.708996	0.094977
H259	H	0.736542	-0.639315	0.085302
H260	H	0.780625	-0.639339	0.129465
O261	O	0.563721	-0.692132	0.301898
C262	C	0.506673	-0.687193	0.358818
C263	C	0.538295	-0.661402	0.327216
H264	H	0.486100	-0.662359	0.379289
H265	H	0.527267	-0.709116	0.382365
H266	H	0.483217	-0.709202	0.338168
H267	H	0.561756	-0.639369	0.347830
H268	H	0.517673	-0.639508	0.303668
O269	O	0.734636	-0.832940	0.131358
C270	C	0.760144	-0.905212	0.105944
C271	C	0.728488	-0.879393	0.137471
H272	H	0.755178	-0.942773	0.110869
H273	H	0.796365	-0.895978	0.113888
H274	H	0.752300	-0.895995	0.069707
H275	H	0.736291	-0.888596	0.173719
H276	H	0.692276	-0.888629	0.129489
H277	H	0.730093	-0.744071	0.135801
H278	H	0.568268	-0.744160	0.297340
O279	O	0.592500	-0.273022	1.049129
C280	C	0.535477	-0.330026	1.044146
C281	C	0.567127	-0.298427	1.018380
H282	H	0.514961	-0.350581	1.019296
H283	H	0.511973	-0.309416	1.066095
H284	H	0.556091	-0.353499	1.066126
H285	H	0.546548	-0.274948	0.996375
H286	H	0.590631	-0.319066	0.996459
H287	H	0.701321	-0.164403	0.388042
H288	H	0.478110	-0.268721	0.268545
O289	O	0.734666	-0.131075	0.692601
C290	C	0.791692	-0.074077	0.687651
C291	C	0.760030	-0.105685	0.661866
H292	H	0.812200	-0.053534	0.662814
H293	H	0.815202	-0.094681	0.709606
H294	H	0.771088	-0.050594	0.709629
H295	H	0.780598	-0.129174	0.639865
H296	H	0.736519	-0.085053	0.639940
O297	O	0.592517	-0.273219	0.384330
C298	C	0.570642	-0.349636	0.369965
C299	C	0.602247	-0.318007	0.395793
H300	H	0.578491	-0.385854	0.379230
H301	H	0.575589	-0.344743	0.332400
H302	H	0.534424	-0.341722	0.379165
H303	H	0.638477	-0.325902	0.386630
H304	H	0.597262	-0.322906	0.433352
O305	O	0.592588	-0.273048	0.956666
C306	C	0.586485	-0.333739	0.903717
C307	C	0.618103	-0.302122	0.929545
H308	H	0.607101	-0.357259	0.881791
H309	H	0.563010	-0.313143	0.881718
H310	H	0.565932	-0.354242	0.928551
H311	H	0.638684	-0.281612	0.904743
H312	H	0.641548	-0.322743	0.951550
O313	O	-0.183025	-0.159852	0.159991
C314	C	-0.197404	-0.137949	0.083608
C315	C	-0.171634	-0.169602	0.115183
H316	H	-0.188211	-0.145826	0.047374
H317	H	-0.188142	-0.101729	0.091526
H318	H	-0.234968	-0.142880	0.088552
H319	H	-0.134065	-0.164711	0.110257
H320	H	-0.180933	-0.205810	0.107258
O321	O	-0.090545	-0.159882	0.160026
C322	C	-0.037630	-0.153741	0.099350
C323	C	-0.063450	-0.185379	0.130913
H324	H	-0.015725	-0.174343	0.075799
H325	H	-0.015612	-0.130282	0.119987
H326	H	-0.062470	-0.133172	0.078878
H327	H	-0.038643	-0.205976	0.151392
H328	H	-0.085475	-0.208808	0.110251
O329	O	0.705918	-0.159718	0.956819
C330	C	0.762978	-0.102751	0.961802
C331	C	0.731347	-0.134369	0.987568
H332	H	0.783553	-0.082255	0.986652
H333	H	0.742391	-0.079228	0.939849
H334	H	0.786431	-0.123389	0.939826
H335	H	0.707888	-0.113767	1.009569
H336	H	0.751962	-0.157893	1.009494
H337	H	0.568248	-0.297285	0.688916
O338	O	0.563711	-0.301860	0.600186
C339	C	0.506660	-0.358834	0.605124
C340	C	0.538291	-0.327200	0.630915
H341	H	0.486093	-0.379322	0.629957
H342	H	0.527248	-0.382363	0.583179
H343	H	0.483201	-0.338209	0.583137
H344	H	0.561756	-0.347789	0.652926
H345	H	0.517675	-0.303669	0.652832
O346	O	0.592536	-0.273177	0.476833
C347	C	0.586436	-0.333792	0.529826
C348	C	0.618050	-0.302184	0.504027
H349	H	0.607051	-0.357245	0.551826
H350	H	0.565890	-0.354363	0.505014
H351	H	0.562955	-0.313142	0.551762
H352	H	0.641558	-0.322799	0.482091
H353	H	0.638565	-0.281611	0.528864
H354	H	0.177180	-0.297509	0.297271
O355	O	0.734568	-0.131006	0.833445
C356	C	0.740654	-0.070362	0.886450
C357	C	0.709047	-0.101990	0.860622
H358	H	0.720033	-0.046902	0.908436
H359	H	0.761197	-0.049800	0.861655
H360	H	0.764138	-0.090996	0.908402
H361	H	0.685536	-0.081391	0.838669
H362	H	0.688536	-0.122554	0.885441
H363	H	0.730110	-0.135588	0.744622
O364	O	0.563732	-0.301829	0.740945
C365	C	0.506673	-0.358795	0.745890
C366	C	0.538312	-0.327166	0.771677
H367	H	0.486106	-0.379280	0.770726
H368	H	0.527254	-0.382327	0.723941
H369	H	0.483214	-0.338165	0.723907
H370	H	0.561778	-0.347759	0.793685
H371	H	0.517703	-0.303632	0.793598
H372	H	0.393001	-0.268723	0.268566
