data_functionalizedCrystal
_audit_creation_method	'MofGen! by Chris Wilmer'
_symmetry_space_group_name_H-M	'P1'
_symmetry_Int_Tables_number	1
_symmetry_cell_setting	triclinic
loop_
_symmetry_equiv_pos_as_xyz
  x,y,z
_cell_length_a	19.188930
_cell_length_b	12.837942
_cell_length_c	11.295483
_cell_angle_alpha	85.469583
_cell_angle_beta	85.894762
_cell_angle_gamma	91.013140
loop_
_atom_site_label
_atom_site_type_symbol
_atom_site_fract_x
_atom_site_fract_y
_atom_site_fract_z
O1	O	0.939272	-0.122351	-0.099413
O2	O	1.439272	0.377649	0.400587
O3	O	0.737152	-0.139773	-0.099331
O4	O	1.237152	0.360227	0.400669
O5	O	0.833730	0.019820	-0.099363
O6	O	1.333730	0.519820	0.400637
O7	O	0.842694	-0.281944	-0.099381
O8	O	1.342694	0.218056	0.400619
O9	O	0.825246	0.005824	0.098691
O10	O	1.325246	0.505824	0.598691
O11	O	0.728668	-0.153769	0.098722
O12	O	1.228668	0.346231	0.598722
O13	O	0.930788	-0.136347	0.098641
O14	O	1.430788	0.363653	0.598641
Cu15	Cu	0.828954	-0.146336	0.116765
Cu16	Cu	1.328954	0.353664	0.616765
Cu17	Cu	0.838987	-0.129784	-0.117456
Cu18	Cu	1.338987	0.370216	0.382544
O19	O	0.834210	-0.295940	0.098672
O20	O	1.334210	0.204060	0.598672
C21	C	0.706860	-0.146208	-0.000294
C22	C	1.206860	0.353792	0.499706
C23	C	0.629238	-0.144517	-0.000263
C24	C	1.129238	0.355483	0.499737
N25	N	0.821902	-0.157977	0.281504
N26	N	1.321902	0.342023	0.781504
C27	C	0.826460	0.051429	-0.000336
C28	C	1.326460	0.551429	0.499664
C29	C	0.817429	0.166465	-0.000334
C30	C	1.317429	0.666465	0.499666
C31	C	0.590738	-0.238158	-0.000287
C32	C	1.090738	0.261842	0.499713
C33	C	0.517806	-0.236566	-0.000300
C34	C	1.017806	0.263434	0.499700
C35	C	0.483377	-0.141327	-0.000313
C36	C	0.983377	0.358673	0.499687
C37	C	0.521886	-0.047674	-0.000282
C38	C	1.021886	0.452326	0.499718
C39	C	0.594817	-0.049269	-0.000257
C40	C	1.094817	0.450731	0.499743
N41	N	0.373293	-0.063762	-0.067762
N42	N	0.873293	0.436238	0.432238
N43	N	0.304013	-0.062253	-0.067789
N44	N	0.804013	0.437747	0.432211
C45	C	0.263642	-0.136516	-0.000385
C46	C	0.763642	0.363484	0.499615
N47	N	0.295170	-0.212359	0.067031
N48	N	0.795170	0.287641	0.567031
N49	N	0.364458	-0.213870	0.067051
N50	N	0.864458	0.286130	0.567051
C51	C	0.404297	-0.139587	-0.000339
C52	C	0.904297	0.360413	0.499661
C53	C	0.146060	-0.228437	-0.000422
C54	C	0.646060	0.271563	0.499578
C55	C	0.073126	-0.226842	-0.000428
C56	C	0.573126	0.273158	0.499572
C57	C	0.077209	-0.037947	-0.000421
C58	C	0.577209	0.462053	0.499579
C59	C	0.150141	-0.039545	-0.000403
C60	C	0.650141	0.460455	0.499597
C61	C	0.184562	-0.134793	-0.000410
C62	C	0.684562	0.365207	0.499590
C63	C	0.961081	-0.129912	-0.000399
C64	C	1.461081	0.370088	0.499601
C65	C	1.038703	-0.131602	-0.000438
C66	C	1.538703	0.368398	0.499562
C67	C	0.841481	-0.327548	-0.000358
C68	C	1.341481	0.172452	0.499642
C69	C	0.850512	-0.442584	-0.000367
C70	C	1.350512	0.057416	0.499633
C71	C	0.926000	0.407920	-0.000402
C72	C	1.426000	0.907920	0.499598
C73	C	0.917518	0.516007	-0.000401
C74	C	1.417518	1.016007	0.499599
C75	C	0.791984	0.490729	-0.000338
C76	C	1.291984	0.990729	0.499662
C77	C	0.800466	0.382642	-0.000340
C78	C	1.300466	0.882642	0.499660
C79	C	0.867476	0.341242	-0.000370
C80	C	1.367476	0.841242	0.499630
C81	C	0.875957	0.233152	-0.000363
C82	C	1.375957	0.733152	0.499637
C83	C	0.750424	0.207876	-0.000309
C84	C	1.250424	0.707876	0.499691
C85	C	0.741942	0.315963	-0.000307
C86	C	1.241942	0.815963	0.499693
N87	N	0.846044	-0.118135	-0.282195
N88	N	1.346044	0.381865	0.217805
C89	C	0.896804	-0.034279	0.530769
C90	C	1.396804	0.465721	1.030769
C91	C	0.891480	-0.043084	0.655434
C92	C	1.391480	0.456916	1.155434
C93	C	0.805927	-0.184385	0.655502
C94	C	1.305927	0.315615	1.155502
C95	C	0.811251	-0.175580	0.530837
C96	C	1.311251	0.324420	1.030837
C97	C	0.856691	-0.100526	0.468475
C98	C	1.356691	0.399474	0.968475
C99	C	0.862019	-0.091727	0.343807
C100	C	1.362019	0.408273	0.843807
C101	C	0.776462	-0.233023	0.343877
C102	C	1.276462	0.266977	0.843877
C103	C	0.771139	-0.241827	0.468543
C104	C	1.271139	0.258173	0.968543
H105	H	0.618760	-0.315716	-0.000294
H106	H	1.118760	0.184284	0.499706
H107	H	0.737428	0.524458	-0.000326
H108	H	1.237428	1.024458	0.499674
H109	H	0.734140	-0.302932	0.519332
H110	H	1.234140	0.197068	1.019332
H111	H	0.687384	0.349687	-0.000287
H112	H	1.187384	0.849687	0.499713
H113	H	0.743802	-0.286968	0.293143
H114	H	1.243802	0.213032	0.793143
H115	H	0.049181	0.039604	-0.000505
H116	H	0.549181	0.539604	0.499495
H117	H	0.899020	-0.030617	0.293033
H118	H	1.399020	0.469383	0.793033
C119	C	0.686046	0.134528	-0.000283
C120	C	1.186046	0.634528	0.499717
H121	H	0.700693	0.064225	-0.000296
H122	H	1.200693	0.564225	0.499704
H123	H	0.655907	0.142172	0.068792
H124	H	1.155907	0.642172	0.568792
H125	H	0.661827	0.151927	-0.069348
H126	H	1.161827	0.651927	0.430652
H127	H	0.174087	-0.305995	-0.000410
H128	H	0.674087	0.194005	0.499590
H129	H	0.933808	0.026826	0.479993
H130	H	1.433808	0.526826	0.979993
H131	H	0.486453	-0.312823	-0.000317
H132	H	0.986453	0.187177	0.499683
C133	C	0.999704	0.362370	-0.000426
C134	C	1.499704	0.862370	0.499574
H135	H	0.996372	0.288446	-0.000413
H136	H	1.496372	0.788446	0.499587
H137	H	1.027065	0.390152	-0.069498
H138	H	1.527065	0.890152	0.430502
H139	H	1.021140	0.380398	0.068642
H140	H	1.521140	0.880398	0.568642
C141	C	0.484018	0.057087	-0.000302
C142	C	0.984018	0.557087	0.499698
H143	H	0.435070	0.044627	-0.000334
H144	H	0.935070	0.544627	0.499666
H145	H	0.493830	0.090754	0.068768
H146	H	0.993830	0.590754	0.568768
H147	H	0.499788	0.100508	-0.069372
H148	H	0.999788	0.600508	0.430628
C149	C	0.935605	0.029785	0.723955
C150	C	1.435605	0.529785	1.223955
H151	H	0.963432	0.075738	0.668955
H152	H	1.463432	0.575738	1.168955
H153	H	0.905550	0.069393	0.772611
H154	H	1.405550	0.569393	1.272611
H155	H	0.965069	-0.010824	0.772559
H156	H	1.465069	0.489176	1.272559
C157	C	0.755946	-0.266932	0.724114
C158	C	1.255946	0.233068	1.224114
H159	H	0.758525	-0.262687	0.807282
H160	H	1.258525	0.237313	1.307282
H161	H	0.709485	-0.254415	0.703720
H162	H	1.209485	0.245585	1.203720
H163	H	0.769006	-0.334630	0.703683
H164	H	1.269006	0.165370	1.203683
H165	H	0.041780	-0.303100	-0.000441
H166	H	0.541780	0.196900	0.499559
C167	C	0.637169	0.053741	-0.000244
C168	C	1.137169	0.553741	0.499756
H169	H	0.606222	0.110693	-0.000260
H170	H	1.106222	0.610693	0.499740
H171	H	0.662733	0.052167	0.068826
H172	H	1.162733	0.552167	0.568826
H173	H	0.668676	0.061922	-0.069314
H174	H	1.168676	0.561922	0.430686
H175	H	0.181488	0.036708	-0.000390
H176	H	0.681488	0.536708	0.499610
H177	H	0.930520	0.199445	-0.000383
H178	H	1.430520	0.699445	0.499617
H179	H	0.965175	0.570294	-0.000431
H180	H	1.465175	1.070294	0.499569
