data_functionalizedCrystal
_audit_creation_method	'MofGen! by Chris Wilmer'
_symmetry_space_group_name_H-M	'P1'
_symmetry_Int_Tables_number	1
_symmetry_cell_setting	triclinic
loop_
_symmetry_equiv_pos_as_xyz
  x,y,z
_cell_length_a	19.902436
_cell_length_b	23.196402
_cell_length_c	23.196401
_cell_angle_alpha	60.008822
_cell_angle_beta	90.014541
_cell_angle_gamma	59.997492
loop_
_atom_site_label
_atom_site_type_symbol
_atom_site_fract_x
_atom_site_fract_y
_atom_site_fract_z
Zr1	Zr	0.647320	0.630934	-0.075582
O2	O	0.540006	0.751211	-0.167636
O3	O	0.680214	0.510665	-0.047366
O4	O	0.680185	0.630932	-0.167632
O5	O	0.540062	0.630942	0.047500
O6	O	0.790764	0.630920	-0.167624
O7	O	0.540035	0.630944	-0.047371
O8	O	0.790817	0.415785	0.047509
O9	O	0.540009	0.846078	-0.167632
O10	O	0.776771	0.560121	-0.035323
O11	O	0.694267	0.560129	0.035473
O12	O	0.694232	0.701728	-0.106124
O13	O	0.611728	0.701735	-0.035328
Zr14	Zr	0.823722	0.630913	0.075739
Zr15	Zr	0.823680	0.630916	-0.075570
Zr16	Zr	0.647362	0.630931	0.075727
Zr17	Zr	0.647324	0.782236	-0.075576
Zr18	Zr	0.823717	0.479611	0.075732
O19	O	0.790827	0.751182	0.047523
O20	O	0.790767	0.751186	-0.167619
O21	O	0.540066	0.751208	0.047506
O22	O	0.931036	0.510636	0.167793
O23	O	0.930976	0.510639	-0.047349
O24	O	0.680274	0.510661	0.167775
O25	O	0.930980	0.630904	-0.047344
O26	O	0.790857	0.630915	0.167788
O27	O	0.680278	0.630926	0.167781
O28	O	0.931007	0.630903	0.047528
O29	O	0.680192	0.846064	-0.167622
O30	O	0.790850	0.415783	0.167779
O31	O	0.931033	0.415769	0.167789
O32	O	0.931000	0.415770	0.047518
O33	O	0.540042	0.846076	-0.047362
O34	O	0.680225	0.846062	-0.047352
O35	O	0.776810	0.560119	0.106280
O36	O	0.859314	0.560112	0.035485
O37	O	0.776775	0.701718	-0.035316
O38	O	0.694271	0.701725	0.035479
C39	C	0.735515	0.441667	0.000070
C40	C	0.735513	0.377435	0.000067
C41	C	0.514921	0.630946	0.000063
C42	C	0.440051	0.630953	0.000058
C43	C	0.778573	0.347261	-0.036890
C44	C	0.778581	0.286900	-0.036884
C45	C	0.735513	0.256727	0.000069
C46	C	0.692450	0.286905	0.037035
C47	C	0.692450	0.347259	0.037034
C48	C	0.663357	0.194705	-0.005210
C49	C	0.663354	0.134356	-0.005214
C50	C	0.735514	0.070572	0.000076
C51	C	0.807675	0.067153	0.005357
C52	C	0.807675	0.127507	0.005356
C53	C	0.735508	0.191283	0.000075
C54	C	0.778587	-0.025053	-0.036876
C55	C	0.778597	-0.085419	-0.036866
C56	C	0.692458	-0.085407	0.037049
C57	C	0.692456	-0.025048	0.037042
C58	C	0.735518	0.005128	0.000076
C59	C	0.168049	0.630913	0.000085
C60	C	0.144473	0.720241	-0.044364
C61	C	0.222311	0.720297	-0.044610
C62	C	0.302992	0.630934	0.000072
C63	C	0.300571	0.586572	-0.032500
C64	C	0.222343	0.587144	-0.032829
C65	C	0.223361	0.585307	0.077126
C66	C	0.300282	0.586986	0.077007
C67	C	0.379259	0.630940	0.000064
C68	C	0.091784	0.630904	0.000090
C69	C	0.956121	0.630901	0.000094
C70	C	1.030991	0.630894	0.000099
C71	C	0.735468	0.630926	-0.189186
C72	C	0.735450	0.630927	-0.253421
C73	C	0.735527	0.820180	0.000086
C74	C	0.735529	0.884412	0.000089
C75	C	0.692370	0.704842	-0.320551
C76	C	0.692391	0.704843	-0.380906
C77	C	0.735481	0.630925	-0.374127
C78	C	0.778571	0.557001	-0.306984
C79	C	0.778555	0.557002	-0.246631
C80	C	0.729360	0.574298	-0.441447
C81	C	0.729369	0.574300	-0.501801
C82	C	0.735533	0.630919	-0.560275
C83	C	0.741670	0.687550	-0.558395
C84	C	0.741655	0.687551	-0.498041
C85	C	0.735503	0.630916	-0.439566
C86	C	0.692473	0.704840	-0.692852
C87	C	0.692500	0.704838	-0.753207
C88	C	0.778674	0.556994	-0.679282
C89	C	0.778653	0.556998	-0.618930
C90	C	0.735548	0.630923	-0.625719
C91	C	0.735574	0.630920	0.189343
C92	C	0.735592	0.630919	0.253577
C93	C	0.956115	0.441645	0.000086
C94	C	1.030982	0.377405	0.000088
C95	C	0.735568	0.441664	0.189335
C96	C	0.735583	0.377431	0.253566
C97	C	0.956168	0.441642	0.189350
C98	C	1.031053	0.377402	0.253587
C99	C	0.514874	0.820205	-0.189193
C100	C	0.439989	0.884445	-0.253430
C101	C	0.514927	0.820202	0.000071
C102	C	0.440059	0.884441	0.000069
C103	C	0.735474	0.820183	-0.189178
C104	C	0.735458	0.884415	-0.253410
C105	C	1.023054	0.347243	-0.036878
C106	C	1.093393	0.286891	-0.036890
C107	C	1.171660	0.256700	0.000069
C108	C	1.179587	0.286868	0.037036
C109	C	1.109248	0.347223	0.037043
C110	C	0.778678	0.347262	0.320697
C111	C	0.778690	0.286917	0.381056
C112	C	0.735611	0.256738	0.374282
C113	C	0.692512	0.286913	0.307144
C114	C	0.692496	0.347262	0.246787
C115	C	1.109294	0.347230	0.246799
C116	C	1.179663	0.286877	0.307151
C117	C	1.171791	0.256694	0.374290
C118	C	1.093542	0.286872	0.381077
C119	C	1.023174	0.347227	0.320726
C120	C	0.361748	0.914624	-0.246642
C121	C	0.291378	0.974995	-0.306994
C122	C	0.299251	1.005182	-0.374133
C123	C	0.377500	0.975001	-0.380920
C124	C	0.447868	0.914635	-0.320569
C125	C	0.447988	0.914610	0.037028
C126	C	0.377648	0.974978	0.037023
C127	C	0.299382	1.005172	0.000063
C128	C	0.291455	0.975001	-0.036901
C129	C	0.361793	0.914638	-0.036900
C130	C	0.778545	0.914575	-0.246613
C131	C	0.778546	0.974921	-0.306960
C132	C	0.735455	1.005110	-0.374103
C133	C	0.692368	0.974944	-0.380898
C134	C	0.692372	0.914595	-0.320552
H135	H	0.813648	0.262328	-0.066980
N136	N	0.825023	0.882023	-0.174200
H137	H	0.852318	0.910290	-0.179062
H138	H	0.868332	0.821433	-0.147549
H139	H	0.959332	0.371824	-0.066982
H140	H	0.735458	1.054250	-0.423235
H141	H	0.511573	0.890063	-0.326104
N142	N	0.645893	1.007509	-0.453318
H143	H	0.652431	1.050318	-0.490510
H144	H	0.585648	1.032519	-0.458917
H145	H	0.227672	0.999559	-0.301454
N146	N	0.645891	0.784575	-0.327876
H147	H	0.685396	0.787863	-0.304465
H148	H	0.602535	0.787829	-0.304510
H149	H	0.813632	0.999475	-0.301413
H150	H	0.241947	1.054336	-0.423269
N151	N	0.645896	0.882070	-0.327888
H152	H	0.618599	0.910358	-0.379581
H153	H	0.602589	0.892585	-0.304466
H154	H	0.813640	0.371827	-0.066988
N155	N	0.646063	0.254350	0.299842
H156	H	0.585791	0.300390	0.273181
H157	H	0.652687	0.211528	0.348291
H158	H	0.104547	0.755130	-0.100851
N159	N	0.825193	0.254368	0.453461
H160	H	0.818670	0.211559	0.490675
H161	H	0.802587	0.300465	0.459047
H162	H	0.657384	0.262334	0.067123
N163	N	0.735647	0.191637	0.439386
H164	H	0.701822	0.177090	0.424914
H165	H	0.711165	0.212692	0.468407
H166	H	1.243371	0.262313	0.301612
H167	H	0.243285	0.519504	0.110400
N168	N	0.885498	0.123824	0.011052
H169	H	0.931213	0.074263	0.014403
H170	H	0.901557	0.120174	0.054667
N171	N	0.645964	0.379841	0.174382
H172	H	0.618664	0.351574	0.179256
H173	H	0.685467	0.369359	0.147695
H174	H	0.657375	0.765035	-0.698381
H175	H	1.087144	0.262287	0.435750
N176	N	0.938785	0.379756	0.328048
H177	H	0.907657	0.440342	0.304659
H178	H	0.944549	0.351413	0.379752
H179	H	0.357750	0.521790	0.112913
H180	H	0.355322	0.890050	-0.191979
H181	H	1.115720	0.371796	0.192136
N182	N	0.645995	0.007513	0.076891
H183	H	0.652529	0.050326	0.071283
H184	H	0.668624	-0.038579	0.128577
H185	H	0.242114	1.054324	0.000068
N186	N	1.247518	0.191603	0.000055
H187	H	1.247543	0.141529	0.021082
H188	H	1.298266	0.177116	0.029065
H189	H	0.384118	0.999534	0.067127
H190	H	0.657391	-0.109973	0.067137
H191	H	0.746654	0.733660	-0.496513
N192	N	0.353226	0.882099	-0.076760
H193	H	0.380491	0.821515	-0.042863
H194	H	0.380465	0.892650	-0.113955
N195	N	0.885510	-0.001634	0.011062
H196	H	0.874566	-0.039353	0.010265
H197	H	0.929940	-0.032982	0.056754
H198	H	0.383901	0.999586	-0.435592
N199	N	0.825032	0.007497	-0.076742
H200	H	0.852319	-0.020785	-0.100149
H201	H	0.868345	-0.003004	-0.042807
H202	H	0.511710	0.890031	0.067131
N203	N	0.825141	0.379804	0.328022
H204	H	0.785627	0.440391	0.304624
H205	H	0.868490	0.369237	0.304647
N206	N	1.264005	0.254301	0.076896
H207	H	1.307354	0.211489	0.071280
H208	H	1.270542	0.229296	0.128582
H209	H	0.813730	0.496808	-0.564268
N210	N	0.207037	1.007557	-0.076751
H211	H	0.163687	1.050367	-0.071131
H212	H	0.200532	0.961459	-0.057333
H213	H	0.657307	0.765035	-0.435574
N214	N	1.247691	0.191596	0.439380
H215	H	1.298448	0.177065	0.424885
H216	H	1.247664	0.141555	0.468402
N217	N	0.646040	0.784555	-0.825623
H218	H	0.685563	0.787838	-0.852285
H219	H	0.618729	0.831348	-0.820717
N220	N	0.825048	-0.117971	-0.076725
H221	H	0.852324	-0.089692	-0.100142
H222	H	0.785483	-0.107468	-0.113877
N223	N	0.585530	0.138038	-0.010879
H224	H	0.541042	0.190462	-0.056561
H225	H	0.567014	0.135959	0.030244
N226	N	0.585524	0.263498	-0.010914
H227	H	0.539811	0.256511	-0.014266
H228	H	0.569465	0.317231	-0.054530
H229	H	0.657383	0.371828	0.067129
H230	H	0.221039	0.755280	-0.022932
H231	H	0.220521	0.755314	-0.101439
N232	N	0.092598	0.766684	-0.015573
H233	H	0.040417	0.769229	-0.017599
H234	H	0.078208	0.823814	-0.044860
N235	N	0.173911	0.628902	-0.107920
H236	H	0.203479	0.646767	-0.140497
H237	H	0.117368	0.678111	-0.121866
H238	H	0.241697	0.521605	-0.002548
H239	H	0.302107	0.617383	-0.088652
N240	N	0.375833	0.499538	0.008312
H241	H	0.412311	0.488001	0.048404
H242	H	0.407151	0.491101	-0.024166
H243	H	0.299913	0.619331	0.101340
N244	N	0.175277	0.623160	0.113174
H245	H	0.117145	0.670260	0.079924
H246	H	0.202467	0.643538	0.126750
N247	N	1.117806	0.379749	0.076918
H248	H	1.178062	0.351459	0.100329
H249	H	1.090514	0.369240	0.114077
H250	H	0.746685	0.733657	-0.606007
H251	H	0.813760	0.496808	-0.673761
H252	H	0.724335	0.528192	-0.393839
N253	N	0.722766	0.513211	-0.503818
H254	H	0.669513	0.520751	-0.497104
H255	H	0.770695	0.456180	-0.464774
N256	N	0.825052	0.477274	-0.299667
H257	H	0.818524	0.488488	-0.348087
H258	H	0.802438	0.444996	-0.272994
H259	H	1.086923	0.262336	-0.066992
N260	N	0.825024	0.477276	-0.174220
H261	H	0.852329	0.430447	-0.179080
H262	H	0.785464	0.474060	-0.147589
