data_functionalizedCrystal
_audit_creation_method	'MofGen! by Chris Wilmer'
_symmetry_space_group_name_H-M	'P1'
_symmetry_Int_Tables_number	1
_symmetry_cell_setting	triclinic
loop_
_symmetry_equiv_pos_as_xyz
  x,y,z
_cell_length_a	11.169417
_cell_length_b	19.805405
_cell_length_c	11.169409
_cell_angle_alpha	89.962829
_cell_angle_beta	89.980487
_cell_angle_gamma	90.027975
loop_
_atom_site_label
_atom_site_type_symbol
_atom_site_fract_x
_atom_site_fract_y
_atom_site_fract_z
Zn1	Zn	1.834826	-0.269386	-0.678492
Zn2	Zn	2.334826	0.230614	-0.178492
Zn3	Zn	1.834658	-0.382595	-0.477792
Zn4	Zn	2.334658	0.117405	0.022208
Zn5	Zn	1.634112	-0.269428	-0.477828
Zn6	Zn	2.134112	0.230572	0.022172
Zn7	Zn	1.634062	-0.382541	-0.678438
Zn8	Zn	2.134062	0.117459	-0.178438
O9	O	1.734414	-0.325987	-0.578138
O10	O	2.234414	0.174013	-0.078138
O11	O	2.002753	-0.284408	-0.651877
O12	O	2.502753	0.215592	-0.151877
O13	O	1.808005	-0.367623	-0.309847
O14	O	2.308005	0.132377	0.190153
O15	O	1.660828	-0.174706	-0.504484
O16	O	2.160828	0.325294	-0.004484
O17	O	2.002630	-0.367583	-0.504423
O18	O	2.502630	0.132417	-0.004423
O19	O	1.808292	-0.174675	-0.651911
O20	O	2.308292	0.325325	-0.151911
O21	O	1.660665	-0.284480	-0.309873
O22	O	2.160665	0.215520	0.190127
O23	O	1.466155	-0.284427	-0.504432
O24	O	1.966155	0.215573	-0.004432
O25	O	1.660743	-0.367490	-0.846395
O26	O	2.160743	0.132510	-0.346395
O27	O	1.466119	-0.367531	-0.651819
O28	O	1.966119	0.132469	-0.151819
O29	O	1.808243	-0.284356	-0.846435
O30	O	2.308243	0.215644	-0.346435
O31	O	1.807957	-0.477304	-0.504371
O32	O	2.307957	0.022696	-0.004371
O33	O	1.660580	-0.477264	-0.651785
O34	O	2.160580	0.022736	-0.151785
C35	C	1.422589	-0.325978	-0.578124
C36	C	1.922589	0.174022	-0.078124
C37	C	1.289189	-0.325991	-0.578147
C38	C	1.789189	0.174009	-0.078147
C39	C	1.734277	-0.501843	-0.578094
C40	C	2.234277	-0.001843	-0.078094
C41	C	1.734329	-0.577075	-0.578116
C42	C	2.234329	-0.077075	-0.078116
C43	C	1.811068	-0.612345	-0.654942
C44	C	2.311068	-0.112345	-0.154942
C45	C	1.811111	-0.683034	-0.654964
C46	C	2.311111	-0.183034	-0.154964
C47	C	1.734420	-0.718451	-0.578154
C48	C	2.234420	-0.218451	-0.078154
C49	C	1.657673	-0.683176	-0.501325
C50	C	2.157673	-0.183176	-0.001325
C51	C	1.657625	-0.612489	-0.501309
C52	C	2.157625	-0.112489	-0.001309
C53	C	1.657866	-0.968249	-0.501386
C54	C	2.157866	-0.468249	-0.001386
C55	C	1.657923	-1.038941	-0.501405
C56	C	2.157923	-0.538941	-0.001405
C57	C	1.811352	-1.038794	-0.655041
C58	C	2.311352	-0.538794	-0.155041
C59	C	1.811304	-0.968107	-0.655025
C60	C	2.311304	-0.468107	-0.155025
C61	C	1.734552	-0.932838	-0.578201
C62	C	2.234552	-0.432838	-0.078201
C63	C	1.734505	-0.856190	-0.578180
C64	C	2.234505	-0.356190	-0.078180
C65	C	1.734473	-0.795098	-0.578168
C66	C	2.234473	-0.295098	-0.078168
C67	C	2.047456	-0.325997	-0.578152
C68	C	2.547456	0.174003	-0.078152
C69	C	2.180856	-0.326001	-0.578158
C70	C	2.680856	0.173999	-0.078158
C71	C	1.734506	-0.325912	-0.891180
C72	C	2.234506	0.174088	-0.391180
C73	C	1.734546	-0.325880	-1.024580
C74	C	2.234546	0.174120	-0.524580
C75	C	1.734584	-0.149445	-0.578208
C76	C	2.234584	0.350555	-0.078208
C77	C	1.734657	-0.074213	-0.578237
C78	C	2.234657	0.425787	-0.078237
C79	C	1.734391	-0.326013	-0.266313
C80	C	2.234391	0.173987	0.233687
C81	C	1.734585	-0.325855	-0.132914
C82	C	2.234585	0.174145	0.367086
H83	H	1.873523	-0.583513	-0.717484
H84	H	2.373523	-0.083513	-0.217484
F85	F	1.576171	-0.930723	-0.419632
F86	F	2.076171	-0.430723	0.080368
H87	H	1.873843	-1.067518	-0.717599
H88	H	2.373843	-0.567518	-0.217599
F89	F	1.892932	-0.930417	-0.736773
F90	F	2.392932	-0.430417	-0.236773
H91	H	1.873609	-0.711747	-0.717514
H92	H	2.373609	-0.211747	-0.217514
F93	F	1.576293	-1.076634	-0.419650
F94	F	2.076293	-0.576634	0.080350
H95	H	1.595225	-0.712018	-0.438789
H96	H	2.095225	-0.212018	0.061211
F97	F	1.575947	-0.574953	-0.419542
F98	F	2.075947	-0.074953	0.080458
