data_functionalizedCrystal
_audit_creation_method	'MofGen! by Chris Wilmer'
_symmetry_space_group_name_H-M	'P1'
_symmetry_Int_Tables_number	1
_symmetry_cell_setting	triclinic
loop_
_symmetry_equiv_pos_as_xyz
  x,y,z
_cell_length_a	17.077404
_cell_length_b	18.101395
_cell_length_c	17.077396
_cell_angle_alpha	89.971698
_cell_angle_beta	89.982756
_cell_angle_gamma	90.031329
loop_
_atom_site_label
_atom_site_type_symbol
_atom_site_fract_x
_atom_site_fract_y
_atom_site_fract_z
Zn1	Zn	1.199992	-0.294819	-0.443848
Zn2	Zn	1.449992	-0.044819	-0.193848
Zn3	Zn	1.699992	0.205181	0.056152
Zn4	Zn	1.949992	0.455181	0.306152
Zn5	Zn	1.199886	-0.418670	-0.312585
Zn6	Zn	1.449886	-0.168670	-0.062585
Zn7	Zn	1.699886	0.081330	0.187415
Zn8	Zn	1.949886	0.331330	0.437415
Zn9	Zn	1.068729	-0.294847	-0.312596
Zn10	Zn	1.318729	-0.044847	-0.062596
Zn11	Zn	1.568729	0.205153	0.187404
Zn12	Zn	1.818729	0.455153	0.437404
Zn13	Zn	1.068673	-0.418624	-0.443808
Zn14	Zn	1.318673	-0.168624	-0.193808
Zn15	Zn	1.568673	0.081376	0.056192
Zn16	Zn	1.818673	0.331376	0.306192
O17	O	1.134320	-0.356740	-0.378209
O18	O	1.384320	-0.106740	-0.128209
O19	O	1.634320	0.143260	0.121791
O20	O	1.884320	0.393260	0.371791
O21	O	1.309825	-0.311256	-0.426448
O22	O	1.559825	-0.061256	-0.176448
O23	O	1.809825	0.188744	0.073552
O24	O	2.059825	0.438744	0.323552
O25	O	1.182466	-0.402275	-0.202739
O26	O	1.432466	-0.152275	0.047261
O27	O	1.682466	0.097725	0.297261
O28	O	1.932466	0.347725	0.547261
O29	O	1.086210	-0.191210	-0.330029
O30	O	1.336210	0.058790	-0.080029
O31	O	1.586210	0.308790	0.169971
O32	O	1.836210	0.558790	0.419971
O33	O	1.309747	-0.402248	-0.330009
O34	O	1.559747	-0.152248	-0.080009
O35	O	1.809747	0.097752	0.169991
O36	O	2.059747	0.347752	0.419991
O37	O	1.182648	-0.191190	-0.426459
O38	O	1.432648	0.058810	-0.176459
O39	O	1.682648	0.308810	0.073541
O40	O	1.932648	0.558810	0.323541
O41	O	1.086106	-0.311303	-0.202748
O42	O	1.336106	-0.061303	0.047252
O43	O	1.586106	0.188697	0.297252
O44	O	1.836106	0.438697	0.547252
O45	O	0.958875	-0.311259	-0.329990
O46	O	1.208875	-0.061259	-0.079990
O47	O	1.458875	0.188741	0.170010
O48	O	1.708875	0.438741	0.420010
O49	O	1.086114	-0.402170	-0.553660
O50	O	1.336114	-0.152170	-0.303660
O51	O	1.586114	0.097830	-0.053660
O52	O	1.836114	0.347830	0.196340
O53	O	0.958834	-0.402197	-0.426391
O54	O	1.208834	-0.152197	-0.176391
O55	O	1.458834	0.097803	0.073609
O56	O	1.708834	0.347803	0.323609
O57	O	1.182594	-0.311211	-0.553690
O58	O	1.432594	-0.061211	-0.303690
O59	O	1.682594	0.188789	-0.053690
O60	O	1.932594	0.438789	0.196310
O61	O	1.182412	-0.522296	-0.329970
O62	O	1.432412	-0.272296	-0.079970
O63	O	1.682412	-0.022296	0.170030
O64	O	1.932412	0.227704	0.420030
O65	O	1.086011	-0.522263	-0.426379
O66	O	1.336011	-0.272263	-0.176379
O67	O	1.586011	-0.022263	0.073621
O68	O	1.836011	0.227737	0.323621
C69	C	0.930372	-0.356726	-0.378188
C70	C	1.180372	-0.106726	-0.128188
C71	C	1.430372	0.143274	0.121812
C72	C	1.680372	0.393274	0.371812
C73	C	0.843123	-0.356738	-0.378197
C74	C	1.093123	-0.106738	-0.128197
C75	C	1.343123	0.143262	0.121803
C76	C	1.593123	0.393262	0.371803
C77	C	0.802131	-0.404162	-0.428312
C78	C	1.052131	-0.154162	-0.178312
C79	C	1.302131	0.095838	0.071688
C80	C	1.552131	0.345838	0.321688
C81	C	0.720151	-0.404163	-0.428325
C82	C	0.970151	-0.154163	-0.178325
C83	C	1.220151	0.095837	0.071675
C84	C	1.470151	0.345837	0.321675
C85	C	0.679163	-0.356745	-0.378218
C86	C	0.929163	-0.106745	-0.128218
C87	C	1.179163	0.143255	0.121782
C88	C	1.429163	0.393255	0.371782
C89	C	0.720160	-0.309317	-0.328100
C90	C	0.970160	-0.059317	-0.078100
C91	C	1.220160	0.190683	0.171900
C92	C	1.470160	0.440683	0.421900
C93	C	0.802139	-0.309312	-0.328092
C94	C	1.052139	-0.059312	-0.078092
C95	C	1.302139	0.190688	0.171908
C96	C	1.552139	0.440688	0.421908
C97	C	0.549290	-0.309331	-0.328119
C98	C	0.799290	-0.059331	-0.078119
C99	C	1.049290	0.190669	0.171881
C100	C	1.299290	0.440669	0.421881
C101	C	0.467305	-0.309337	-0.328126
C102	C	0.717305	-0.059337	-0.078126
C103	C	0.967305	0.190663	0.171874
C104	C	1.217305	0.440663	0.421874
C105	C	0.467302	-0.404183	-0.428352
C106	C	0.717302	-0.154183	-0.178352
C107	C	0.967302	0.095817	0.071648
C108	C	1.217302	0.345817	0.321648
C109	C	0.549281	-0.404178	-0.428344
C110	C	0.799281	-0.154178	-0.178344
C111	C	1.049281	0.095822	0.071656
C112	C	1.299281	0.345822	0.321656
C113	C	0.590272	-0.356750	-0.378225
C114	C	0.840272	-0.106750	-0.128225
C115	C	1.090272	0.143250	0.121775
C116	C	1.340272	0.393250	0.371775
C117	C	1.134215	-0.549150	-0.378186
C118	C	1.384215	-0.299150	-0.128186
C119	C	1.634215	-0.049150	0.121814
C120	C	1.884215	0.200850	0.371814
C121	C	1.134242	-0.631464	-0.378203
C122	C	1.384242	-0.381464	-0.128203
C123	C	1.634242	-0.131464	0.121797
C124	C	1.884242	0.118536	0.371797
C125	C	1.134414	-0.930555	-0.378245
C126	C	1.384414	-0.680555	-0.128245
C127	C	1.634414	-0.430555	0.121755
C128	C	1.884414	-0.180555	0.371755
C129	C	1.073902	-0.899240	-0.439054
C130	C	1.323902	-0.649240	-0.189054
C131	C	1.573902	-0.399240	0.060946
C132	C	1.823902	-0.149240	0.310946
C133	C	1.073614	-0.813622	-0.438863
C134	C	1.323614	-0.563622	-0.188863
C135	C	1.573614	-0.313622	0.061137
C136	C	1.823614	-0.063622	0.311137
C137	C	1.134329	-0.782173	-0.378225
C138	C	1.384329	-0.532173	-0.128225
C139	C	1.634329	-0.282173	0.121775
C140	C	1.884329	-0.032173	0.371775
C141	C	1.111935	-0.813326	-0.295495
C142	C	1.361935	-0.563326	-0.045495
C143	C	1.611935	-0.313326	0.204505
C144	C	1.861935	-0.063326	0.454505
C145	C	1.111545	-0.898971	-0.295859
C146	C	1.361545	-0.648971	-0.045859
C147	C	1.611545	-0.398971	0.204141
C148	C	1.861545	-0.148971	0.454141
C149	C	1.217453	-0.898898	-0.399437
C150	C	1.467453	-0.648898	-0.149437
C151	C	1.717453	-0.398898	0.100563
C152	C	1.967453	-0.148898	0.350563
C153	C	1.216965	-0.813247	-0.401252
C154	C	1.466965	-0.563247	-0.151252
C155	C	1.716965	-0.313247	0.098748
C156	C	1.966965	-0.063247	0.348748
C157	C	1.134282	-0.698313	-0.378208
C158	C	1.384282	-0.448313	-0.128208
C159	C	1.634282	-0.198313	0.121792
C160	C	1.884282	0.051687	0.371792
C161	C	1.134459	-1.014415	-0.378256
C162	C	1.384459	-0.764415	-0.128256
C163	C	1.634459	-0.514415	0.121744
C164	C	1.884459	-0.264415	0.371744
C165	C	1.339064	-0.356754	-0.378231
C166	C	1.589064	-0.106754	-0.128231
C167	C	1.839064	0.143246	0.121769
C168	C	2.089064	0.393246	0.371769
C169	C	1.426314	-0.356760	-0.378241
C170	C	1.676314	-0.106760	-0.128241
C171	C	1.926314	0.143240	0.121759
C172	C	2.176314	0.393240	0.371759
C173	C	1.134360	-0.356682	-0.582954
C174	C	1.384360	-0.106682	-0.332954
C175	C	1.634360	0.143318	-0.082954
C176	C	1.884360	0.393318	0.167046
C177	C	1.134376	-0.356658	-0.670203
C178	C	1.384376	-0.106658	-0.420203
C179	C	1.634376	0.143342	-0.170203
C180	C	1.884376	0.393342	0.079797
C181	C	1.134447	-0.163578	-0.378250
C182	C	1.384447	0.086422	-0.128250
C183	C	1.634447	0.336422	0.121750
C184	C	1.884447	0.586422	0.371750
C185	C	1.134501	-0.081264	-0.378267
C186	C	1.384501	0.168736	-0.128267
C187	C	1.634501	0.418736	0.121733
C188	C	1.884501	0.668736	0.371733
C189	C	1.084217	-0.309283	-0.711197
C190	C	1.334217	-0.059283	-0.461197
C191	C	1.584217	0.190717	-0.211197
C192	C	1.834217	0.440717	0.038803
C193	C	1.084230	-0.309266	-0.793178
C194	C	1.334230	-0.059266	-0.543178
C195	C	1.584230	0.190734	-0.293178
C196	C	1.834230	0.440734	-0.043178
C197	C	1.134407	-0.356621	-0.834163
C198	C	1.384407	-0.106621	-0.584163
C199	C	1.634407	0.143379	-0.334163
C200	C	1.884407	0.393379	-0.084163
C201	C	1.184568	-0.404001	-0.793163
C202	C	1.434568	-0.154001	-0.543163
C203	C	1.684568	0.095999	-0.293163
C204	C	1.934568	0.345999	-0.043163
C205	C	1.184551	-0.404021	-0.711184
C206	C	1.434551	-0.154021	-0.461184
C207	C	1.684551	0.095979	-0.211184
C208	C	1.934551	0.345979	0.038816
C209	C	1.184602	-0.403955	-0.964033
C210	C	1.434602	-0.153955	-0.714033
C211	C	1.684602	0.096045	-0.464033
C212	C	1.934602	0.346045	-0.214033
C213	C	1.184621	-0.403934	-1.046018
C214	C	1.434621	-0.153934	-0.796018
C215	C	1.684621	0.096066	-0.546018
C216	C	1.934621	0.346066	-0.296018
C217	C	1.084281	-0.309200	-1.046027
C218	C	1.334281	-0.059200	-0.796027
C219	C	1.584281	0.190800	-0.546027
C220	C	1.834281	0.440800	-0.296027
C221	C	1.084264	-0.309220	-0.964048
C222	C	1.334264	-0.059220	-0.714048
C223	C	1.584264	0.190780	-0.464048
C224	C	1.834264	0.440780	-0.214048
C225	C	1.134427	-0.356599	-0.923054
C226	C	1.384427	-0.106599	-0.673054
C227	C	1.634427	0.143401	-0.423054
C228	C	1.884427	0.393401	-0.173054
C229	C	1.134326	-0.356744	-0.174261
C230	C	1.384326	-0.106744	0.075739
C231	C	1.634326	0.143256	0.325739
C232	C	1.884326	0.393256	0.575739
C233	C	1.134461	-0.356559	-0.087012
C234	C	1.384461	-0.106559	0.162988
C235	C	1.634461	0.143441	0.412988
C236	C	1.884461	0.393441	0.662988
H237	H	0.582662	-0.270704	-0.287314
H238	H	0.832662	-0.020704	-0.037314
H239	H	1.082662	0.229296	0.212686
H240	H	1.332662	0.479296	0.462686
H241	H	1.043362	-0.270717	-0.677833
H242	H	1.293362	-0.020717	-0.427833
H243	H	1.543362	0.229283	-0.177833
H244	H	1.793362	0.479283	0.072167
F245	F	0.845747	-0.454635	-0.481641
F246	F	1.095747	-0.204635	-0.231641
F247	F	1.345747	0.045365	0.018359
F248	F	1.595747	0.295365	0.268359
F249	F	1.030814	-0.258871	-0.836803
F250	F	1.280814	-0.008871	-0.586803
F251	F	1.530814	0.241129	-0.336803
F252	F	1.780814	0.491129	-0.086803
F253	F	1.237966	-0.454404	-0.836785
F254	F	1.487966	-0.204404	-0.586785
F255	F	1.737966	0.045596	-0.336785
F256	F	1.987966	0.295596	-0.086785
H257	H	1.043409	-0.270656	-0.930680
H258	H	1.293409	-0.020656	-0.680680
H259	H	1.543409	0.229344	-0.430680
H260	H	1.793409	0.479344	-0.180680
H261	H	0.433923	-0.442798	-0.469163
H262	H	0.683923	-0.192798	-0.219163
H263	H	0.933923	0.057202	0.030837
H264	H	1.183923	0.307202	0.280837
F265	F	1.238029	-0.454330	-1.089636
F266	F	1.488029	-0.204330	-0.839636
F267	F	1.738029	0.045670	-0.589636
F268	F	1.988029	0.295670	-0.339636
F269	F	1.091925	-0.786086	-0.519044
F270	F	1.341925	-0.536086	-0.269044
F271	F	1.591925	-0.286086	-0.019044
F272	F	1.841925	-0.036086	0.230956
H273	H	0.433935	-0.270716	-0.287333
H274	H	0.683935	-0.020716	-0.037333
H275	H	0.933935	0.229284	0.212667
H276	H	1.183935	0.479284	0.462667
F277	F	1.167730	-0.786703	-0.234658
F278	F	1.417730	-0.536703	0.015342
F279	F	1.667730	-0.286703	0.265342
F280	F	1.917730	-0.036703	0.515342
H281	H	0.686780	-0.442780	-0.469133
H282	H	0.936780	-0.192780	-0.219133
H283	H	1.186780	0.057220	0.030867
H284	H	1.436780	0.307220	0.280867
F285	F	1.237935	-0.454447	-0.667556
F286	F	1.487935	-0.204447	-0.417556
F287	F	1.737935	0.045553	-0.167556
F288	F	1.987935	0.295553	0.082444
F289	F	1.030895	-0.258774	-1.089657
F290	F	1.280895	-0.008774	-0.839657
F291	F	1.530895	0.241226	-0.589657
F292	F	1.780895	0.491226	-0.339657
F293	F	1.092029	-0.926097	-0.519495
F294	F	1.342029	-0.676097	-0.269495
F295	F	1.592029	-0.426097	-0.019495
F296	F	1.842029	-0.176097	0.230505
H297	H	1.012726	-0.920827	-0.425192
H298	H	1.262726	-0.670827	-0.175192
H299	H	1.512726	-0.420827	0.074808
H300	H	1.762726	-0.170827	0.324808
F301	F	1.237988	-0.454385	-0.920406
F302	F	1.487988	-0.204385	-0.670406
F303	F	1.737988	0.045615	-0.420406
F304	F	1.987988	0.295615	-0.170406
H305	H	0.582651	-0.442794	-0.469141
H306	H	0.832651	-0.192794	-0.219141
H307	H	1.082651	0.057206	0.030859
H308	H	1.332651	0.307206	0.280859
H309	H	1.153708	-0.919689	-0.249007
H310	H	1.403708	-0.669689	0.000993
H311	H	1.653708	-0.419689	0.250993
H312	H	1.903708	-0.169689	0.500993
F313	F	0.676535	-0.258846	-0.274777
F314	F	0.926535	-0.008846	-0.024777
F315	F	1.176535	0.241154	0.225223
F316	F	1.426535	0.491154	0.475223
H317	H	0.835513	-0.270691	-0.287287
H318	H	1.085513	-0.020691	-0.037287
H319	H	1.335513	0.229309	0.212713
H320	H	1.585513	0.479309	0.462713
H321	H	1.012064	-0.793199	-0.424826
H322	H	1.262064	-0.543199	-0.174826
H323	H	1.512064	-0.293199	0.075174
H324	H	1.762064	-0.043199	0.325174
H325	H	1.051877	-0.791941	-0.277221
H326	H	1.301877	-0.541941	-0.027221
H327	H	1.551877	-0.291941	0.222779
H328	H	1.801877	-0.041941	0.472779
F329	F	1.032205	-0.925171	-0.272395
F330	F	1.282205	-0.675171	-0.022395
F331	F	1.532205	-0.425171	0.227605
F332	F	1.782205	-0.175171	0.477605
F333	F	1.239040	-0.786631	-0.480832
F334	F	1.489040	-0.536631	-0.230832
F335	F	1.739040	-0.286631	0.019168
F336	F	1.989040	-0.036631	0.269168
F337	F	1.244140	-0.927061	-0.476945
F338	F	1.494140	-0.677061	-0.226945
F339	F	1.744140	-0.427061	0.023055
F340	F	1.994140	-0.177061	0.273055
H341	H	1.262537	-0.919149	-0.355148
H342	H	1.512537	-0.669149	-0.105148
H343	H	1.762537	-0.419149	0.144852
H344	H	2.012537	-0.169149	0.394852
F345	F	1.279014	-0.785256	-0.347586
F346	F	1.529014	-0.535256	-0.097586
F347	F	1.779014	-0.285256	0.152414
F348	F	2.029014	-0.035256	0.402414
