data_functionalizedCrystal
_audit_creation_method	'MofGen! by Chris Wilmer'
_symmetry_space_group_name_H-M	'P1'
_symmetry_Int_Tables_number	1
_symmetry_cell_setting	triclinic
loop_
_symmetry_equiv_pos_as_xyz
  x,y,z
_cell_length_a	17.640112
_cell_length_b	16.625546
_cell_length_c	17.640968
_cell_angle_alpha	101.233484
_cell_angle_beta	87.860920
_cell_angle_gamma	101.247770
loop_
_atom_site_label
_atom_site_type_symbol
_atom_site_fract_x
_atom_site_fract_y
_atom_site_fract_z
Zn1	Zn	1.247778	-0.023167	0.195079
Zn2	Zn	1.222008	-0.189521	0.068091
Zn3	Zn	1.095110	-0.075617	0.093723
Zn4	Zn	1.120749	-0.178908	0.220673
O5	O	1.171411	-0.116803	0.144392
O6	O	1.350629	-0.027726	0.156795
O7	O	1.183660	-0.200804	-0.034783
O8	O	1.115417	0.044187	0.107184
O9	O	1.331696	-0.149946	0.063498
O10	O	1.227581	0.082722	0.181650
O11	O	1.090428	-0.117119	-0.015951
O12	O	0.992242	-0.106828	0.132002
O13	O	1.159114	-0.131856	0.323552
O14	O	1.011078	-0.182715	0.225272
O15	O	1.252442	-0.017434	0.304748
O16	O	1.208521	-0.300961	0.088315
O17	O	1.134126	-0.293163	0.200417
C18	C	0.974106	-0.149311	0.184196
C19	C	0.889701	-0.163234	0.201243
C20	C	1.171333	-0.326314	0.144374
C21	C	1.171374	-0.415926	0.144378
C22	C	0.563039	-0.011024	0.014898
C23	C	0.483730	-0.024119	0.030926
C24	C	0.503365	-0.103324	0.127880
C25	C	0.582678	-0.090232	0.111863
C26	C	0.612508	-0.044082	0.055370
C27	C	0.632147	-0.123289	0.152335
C28	C	0.711452	-0.110201	0.136316
C29	C	0.741288	-0.064056	0.079824
C30	C	0.691813	-0.030994	0.039351
C31	C	0.602314	-0.169444	0.208823
C32	C	0.651783	-0.202502	0.249296
C33	C	0.731091	-0.189409	0.233281
C34	C	0.760927	-0.143264	0.176789
C35	C	0.780566	-0.222471	0.273754
C36	C	0.859871	-0.209383	0.257735
C37	C	0.840232	-0.130176	0.160770
C38	C	1.171522	-0.744060	0.144431
C39	C	1.171479	-0.652763	0.144419
C40	C	1.171448	-0.579996	0.144404
C41	C	1.171406	-0.488693	0.144393
C42	C	1.369487	-0.084169	0.104432
C43	C	1.453895	-0.070262	0.087404
C44	C	1.211513	-0.067611	0.342476
C45	C	1.228602	-0.046647	0.426888
C46	C	1.171514	0.093533	0.144422
C47	C	1.171558	0.183166	0.144434
C48	C	1.131509	-0.165740	-0.052931
C49	C	1.114568	-0.186451	-0.137372
C50	C	1.041880	-0.275571	0.753453
C51	C	1.057954	-0.255860	0.832768
C52	C	1.155128	-0.136723	0.813179
C53	C	1.139059	-0.156422	0.733861
C54	C	1.082435	-0.225847	0.704005
C55	C	1.179615	-0.106698	0.684413
C56	C	1.163551	-0.126397	0.605102
C57	C	1.106931	-0.195821	0.575239
C58	C	1.066371	-0.245547	0.624694
C59	C	1.236243	-0.037276	0.714270
C60	C	1.276798	0.012448	0.664822
C61	C	1.260730	-0.007248	0.585510
C62	C	1.204111	-0.076672	0.555647
C63	C	1.301290	0.042478	0.536055
C64	C	1.285226	0.022778	0.456744
C65	C	1.188046	-0.096371	0.476336
H66	H	0.805864	-0.053403	0.066781
H67	H	0.587330	0.026571	-0.031093
O68	O	0.986973	-0.343111	0.724450
C69	C	0.945141	-0.492384	0.707618
C70	C	1.007374	-0.415968	0.740494
H71	H	0.961605	-0.551305	0.720591
H72	H	0.940646	-0.497984	0.642428
H73	H	0.887064	-0.484420	0.735544
H74	H	1.065485	-0.423878	0.712627
H75	H	1.011801	-0.410392	0.805686
H76	H	1.020244	-0.302064	0.600388
H77	H	0.443455	0.002811	-0.002031
O78	O	1.091462	-0.214941	0.498169
C79	C	1.141182	-0.251989	0.369657
C80	C	1.158811	-0.230329	0.456915
H81	H	1.195618	-0.264453	0.336279
H82	H	1.121132	-0.197486	0.351260
H83	H	1.093719	-0.310126	0.356839
H84	H	1.206288	-0.172215	0.469798
H85	H	1.178818	-0.284879	0.475267
O86	O	1.331744	0.079972	0.693753
C87	C	1.373553	0.229251	0.710643
C88	C	1.311281	0.152848	0.677827
H89	H	1.357023	0.288193	0.697793
H90	H	1.431632	0.221375	0.682670
H91	H	1.378082	0.234749	0.775816
H92	H	1.306683	0.147305	0.612658
H93	H	1.253235	0.160757	0.705859
O94	O	0.720665	0.013822	-0.015577
C95	C	0.692832	0.091041	-0.110038
C96	C	0.660053	0.040296	-0.047865
H97	H	0.643846	0.112475	-0.136149
H98	H	0.721858	0.050349	-0.157350
H99	H	0.737077	0.147920	-0.082600
H100	H	0.615780	-0.016586	-0.075234
H101	H	0.631076	0.081047	-0.000560
O102	O	1.018642	-0.304093	0.880907
C103	C	1.000276	-0.326513	1.011781
C104	C	1.044865	-0.271834	0.957349
H105	H	1.021448	-0.300442	1.073598
H106	H	1.010431	-0.393219	0.993549
H107	H	0.935892	-0.326328	1.008496
H108	H	1.109262	-0.271949	0.960607
H109	H	1.034646	-0.205154	0.975598
O110	O	1.210082	-0.069294	0.842316
C111	C	1.277933	0.013831	0.955809
C112	C	1.215667	-0.062547	0.922918
H113	H	1.282481	0.019301	1.020976
H114	H	1.261477	0.072816	0.942974
H115	H	1.335983	0.005884	0.927808
H116	H	1.157594	-0.054681	0.950899
H117	H	1.232189	-0.121503	0.935743
H118	H	0.864523	-0.092581	0.114780
O119	O	1.356342	0.109921	0.564930
C120	C	1.451005	0.226051	0.537137
C121	C	1.388690	0.149685	0.504333
H122	H	1.477165	0.258232	0.488163
H123	H	1.498263	0.204831	0.566213
H124	H	1.423675	0.271662	0.581338
H125	H	1.415951	0.104042	0.460103
H126	H	1.341440	0.170967	0.475305
O127	O	0.622681	-0.247278	0.304171
C128	C	0.509205	-0.302587	0.371791
C129	C	0.542060	-0.251848	0.309636
H130	H	0.444017	-0.306313	0.376219
H131	H	0.537162	-0.270737	0.429927
H132	H	0.522112	-0.368330	0.355203
H133	H	0.529163	-0.186099	0.326152
H134	H	0.514103	-0.283764	0.251518
O135	O	1.324497	0.071076	0.408641
C136	C	1.316633	0.159416	0.317069
C137	C	1.272056	0.104734	0.371505
H138	H	1.274255	0.186658	0.287042
H139	H	1.348776	0.119733	0.271873
H140	H	1.359883	0.212391	0.352038
H141	H	1.228767	0.051752	0.336600
H142	H	1.239965	0.144474	0.416702
H143	H	0.479066	-0.140902	0.173874
H144	H	0.537739	-0.180099	0.221864
H145	H	0.756265	-0.260053	0.319745
H146	H	1.249322	-0.021240	0.778850
H147	H	1.141919	-0.152888	0.452030
O148	O	0.907828	-0.241517	0.297147
C149	C	0.918939	-0.321497	0.394984
C150	C	0.864545	-0.285134	0.350422
H151	H	0.883964	-0.356784	0.438056
H152	H	0.964123	-0.268563	0.427305
H153	H	0.948999	-0.366117	0.352534
H154	H	0.834431	-0.240524	0.392819
H155	H	0.819408	-0.338111	0.318089
