data_functionalizedCrystal
_audit_creation_method	'MofGen! by Chris Wilmer'
_symmetry_space_group_name_H-M	'P1'
_symmetry_Int_Tables_number	1
_symmetry_cell_setting	triclinic
loop_
_symmetry_equiv_pos_as_xyz
  x,y,z
_cell_length_a	16.956984
_cell_length_b	27.731996
_cell_length_c	26.210047
_cell_angle_alpha	89.989354
_cell_angle_beta	89.983218
_cell_angle_gamma	79.337403
loop_
_atom_site_label
_atom_site_type_symbol
_atom_site_fract_x
_atom_site_fract_y
_atom_site_fract_z
O1	O	1.057800	0.020036	-0.042434
O2	O	1.557800	0.520036	0.457566
O3	O	0.825428	0.037015	-0.042436
O4	O	1.325428	0.537015	0.457564
O5	O	0.948853	-0.042129	-0.042424
O6	O	1.448853	0.457871	0.457576
O7	O	0.934376	0.099181	-0.042446
O8	O	1.434376	0.599181	0.457554
O9	O	0.948814	-0.042128	0.042434
O10	O	1.448814	0.457872	0.542434
O11	O	0.825390	0.037017	0.042422
O12	O	1.325390	0.537017	0.542422
O13	O	1.057762	0.020037	0.042425
O14	O	1.557762	0.520037	0.542425
Cu15	Cu	0.941572	0.028527	0.050172
Cu16	Cu	1.441572	0.528527	0.550172
Cu17	Cu	0.941618	0.028526	-0.050183
Cu18	Cu	1.441618	0.528526	0.449817
O19	O	0.934337	0.099182	0.042412
O20	O	1.434337	0.599182	0.542412
C21	C	0.795690	0.037886	-0.000007
C22	C	1.295690	0.537886	0.499993
C23	C	0.707136	0.040471	-0.000007
C24	C	1.207136	0.540471	0.499993
C25	C	0.948536	-0.060125	0.000007
C26	C	1.448536	0.439875	0.500007
C27	C	0.947640	-0.113750	0.000012
C28	C	1.447640	0.386250	0.500012
C29	C	0.675598	-0.002750	0.000000
C30	C	1.175598	0.497250	0.500000
C31	C	0.592392	-0.000318	-0.000004
C32	C	1.092392	0.499682	0.499996
C33	C	0.540726	0.045334	-0.000012
C34	C	1.040726	0.545334	0.499988
C35	C	0.572269	0.088558	-0.000021
C36	C	1.072269	0.588558	0.499979
C37	C	0.655474	0.086126	-0.000021
C38	C	1.155474	0.586126	0.499979
C39	C	0.290801	0.057374	-0.000017
C40	C	0.790801	0.557374	0.499983
C41	C	0.207592	0.059803	-0.000016
C42	C	0.707592	0.559803	0.499984
C43	C	0.227720	-0.029074	0.000000
C44	C	0.727720	0.470926	0.500000
C45	C	0.310925	-0.031502	0.000004
C46	C	0.810925	0.468498	0.500004
C47	C	0.342462	0.011721	-0.000008
C48	C	0.842462	0.511721	0.499992
N49	N	0.455676	0.047821	-0.000014
N50	N	0.955676	0.547821	0.499986
N51	N	0.427510	0.009234	-0.000009
N52	N	0.927510	0.509234	0.499991
C53	C	0.942026	-0.446267	-0.046269
C54	C	1.442026	0.053733	0.453731
C55	C	0.938624	-0.647805	-0.046278
C56	C	1.438624	-0.147805	0.453722
O57	O	0.938168	-0.673860	-0.085617
O58	O	1.438168	-0.173860	0.414383
N59	N	0.938181	-0.673006	-0.000022
N60	N	1.438181	-0.173006	0.499978
C61	C	0.938582	-0.647820	0.046239
C62	C	1.438582	-0.147820	0.546239
O63	O	0.938119	-0.673878	0.085582
O64	O	1.438119	-0.173878	0.585582
C65	C	0.941978	-0.446282	0.046248
C66	C	1.441978	0.053718	0.546248
C67	C	0.942430	-0.421084	-0.000011
C68	C	1.442430	0.078916	0.499989
C69	C	0.942476	-0.421069	-0.092524
C70	C	1.442476	0.078931	0.407476
C71	C	0.943331	-0.370688	-0.092521
C72	C	1.443331	0.129312	0.407479
C73	C	0.943735	-0.345506	-0.046263
C74	C	1.443735	0.154494	0.453737
C75	C	0.943284	-0.370704	-0.000008
C76	C	1.443284	0.129296	0.499992
C77	C	0.942374	-0.421096	0.092508
C78	C	1.442374	0.078904	0.592508
C79	C	0.943221	-0.370708	0.092506
C80	C	1.443221	0.129292	0.592506
C81	C	0.943673	-0.345510	0.046248
C82	C	1.443673	0.154490	0.546248
C83	C	0.944543	-0.295140	0.046252
C84	C	1.444543	0.204860	0.546252
N85	N	0.944987	-0.269938	-0.000004
N86	N	1.444987	0.230062	0.499996
C87	C	0.944583	-0.295121	-0.046261
C88	C	1.444583	0.204879	0.453739
C89	C	0.936801	-0.753630	0.046231
C90	C	1.436801	-0.253630	0.546231
C91	C	0.935954	-0.804014	0.046229
C92	C	1.435954	-0.304014	0.546229
C93	C	0.935994	-0.803996	-0.046288
C94	C	1.435994	-0.303996	0.453712
C95	C	0.936847	-0.753611	-0.046285
C96	C	1.436847	-0.253611	0.453715
C97	C	0.937245	-0.728429	-0.000024
C98	C	1.437245	-0.228429	0.499976
C99	C	0.946378	-0.189318	-0.046252
C100	C	1.446378	0.310682	0.453748
C101	C	0.947236	-0.138933	-0.046245
C102	C	1.447236	0.361067	0.453755
C103	C	0.947192	-0.138955	0.046271
C104	C	1.447192	0.361045	0.546271
C105	C	0.946338	-0.189336	0.046265
C106	C	1.446338	0.310664	0.546265
C107	C	0.945929	-0.214516	-0.000001
C108	C	1.445929	0.285484	0.499999
O109	O	0.944991	-0.269053	0.085571
O110	O	1.444991	0.230947	0.585571
O111	O	0.945029	-0.269052	-0.085599
O112	O	1.445029	0.230948	0.414401
C113	C	0.941171	-0.496648	-0.046271
C114	C	1.441171	0.003352	0.453729
C115	C	0.940720	-0.521846	-0.000017
C116	C	1.440720	-0.021846	0.499983
C117	C	0.941124	-0.496663	0.046241
C118	C	1.441124	0.003337	0.546241
C119	C	0.939873	-0.572231	-0.000019
C120	C	1.439873	-0.072231	0.499981
C121	C	0.939469	-0.597413	-0.046276
C122	C	1.439469	-0.097413	0.453724
C123	C	0.939912	-0.572212	-0.092532
C124	C	1.439912	-0.072212	0.407468
C125	C	0.940767	-0.521831	-0.092529
C126	C	1.440767	-0.021831	0.407471
C127	C	0.940681	-0.521865	0.092497
C128	C	1.440681	-0.021865	0.592497
C129	C	0.939827	-0.572246	0.092490
C130	C	1.439827	-0.072246	0.592490
C131	C	0.939423	-0.597429	0.046233
C132	C	1.439423	-0.097429	0.546233
C133	C	1.087500	0.019167	-0.000005
C134	C	1.587500	0.519167	0.499995
C135	C	1.176053	0.016582	-0.000008
C136	C	1.676053	0.516582	0.499992
C137	C	0.934654	0.117178	-0.000020
C138	C	1.434654	0.617178	0.499980
C139	C	0.935549	0.170803	-0.000028
C140	C	1.435549	0.670803	0.499972
N141	N	0.941546	0.028528	0.120755
N142	N	1.441546	0.528528	0.620755
N143	N	0.941650	0.028521	-0.120767
N144	N	1.441650	0.528521	0.379233
C145	C	0.989623	0.055936	0.473265
C146	C	1.489623	0.555936	0.973265
C147	C	0.989647	0.055935	0.686924
C148	C	1.489647	0.555935	1.186924
O149	O	1.030505	0.079234	0.714542
O150	O	1.530505	0.579234	1.214542
N151	N	0.941637	0.028520	0.713649
N152	N	1.441637	0.528520	1.213649
C153	C	0.893622	0.001101	0.686957
C154	C	1.393622	0.501101	1.186957
O155	O	0.852793	-0.022221	0.714591
O156	O	1.352793	0.477779	1.214591
C157	C	0.893603	0.001100	0.473299
C158	C	1.393603	0.501100	0.973299
C159	C	0.941610	0.028520	0.446577
C160	C	1.441610	0.528520	0.946577
C161	C	1.037627	0.083354	0.446542
C162	C	1.537627	0.583354	0.946542
C163	C	1.037617	0.083356	0.393131
C164	C	1.537617	0.583356	0.893131
C165	C	0.989604	0.055940	0.366442
C166	C	1.489604	0.555940	0.866442
C167	C	0.941600	0.028522	0.393165
C168	C	1.441600	0.528522	0.893165
C169	C	0.845592	-0.026322	0.446608
C170	C	1.345592	0.473678	0.946608
C171	C	0.845594	-0.026321	0.393190
C172	C	1.345594	0.473679	0.893190
C173	C	0.893600	0.001100	0.366467
C174	C	1.393600	0.501100	0.866467
C175	C	0.893577	0.001109	0.313065
C176	C	1.393577	0.501109	0.813065
N177	N	0.941587	0.028524	0.286340
N178	N	1.441587	0.528524	0.786340
C179	C	0.989600	0.055940	0.313028
C180	C	1.489600	0.555940	0.813028
C181	C	0.893634	0.001104	0.799130
C182	C	1.393634	0.501104	1.299130
C183	C	0.893637	0.001105	0.852545
C184	C	1.393637	0.501105	1.352545
C185	C	0.989663	0.055938	0.852508
C186	C	1.489663	0.555938	1.352508
C187	C	0.989655	0.055940	0.799092
C188	C	1.489655	0.555940	1.299092
C189	C	0.941643	0.028519	0.772405
C190	C	1.441643	0.528519	1.272405
C191	C	0.989576	0.055942	0.200860
C192	C	1.489576	0.555942	0.700860
C193	C	0.989559	0.055944	0.147444
C194	C	1.489559	0.555944	0.647444
C195	C	0.893536	0.001108	0.147486
C196	C	1.393536	0.501108	0.647486
C197	C	0.893549	0.001109	0.200897
C198	C	1.393549	0.501109	0.700897
C199	C	0.941575	0.028527	0.227583
C200	C	1.441575	0.528527	0.727583
O201	O	0.852747	-0.022182	0.285414
O202	O	1.352747	0.477818	0.785414
O203	O	1.030436	0.079250	0.285385
O204	O	1.530436	0.579250	0.785385
C205	C	0.989633	0.055934	0.526677
C206	C	1.489633	0.555934	1.026677
C207	C	0.941629	0.028516	0.553400
C208	C	1.441629	0.528516	1.053400
C209	C	0.893616	0.001100	0.526711
C210	C	1.393616	0.501100	1.026711
C211	C	0.941633	0.028517	0.606814
C212	C	1.441633	0.528517	1.106814
C213	C	0.989646	0.055933	0.633502
C214	C	1.489646	0.555933	1.133502
C215	C	1.037656	0.083348	0.606777
C216	C	1.537656	0.583348	1.106777
C217	C	1.037646	0.083350	0.553365
C218	C	1.537646	0.583350	1.053365
C219	C	0.845606	-0.026315	0.553436
C220	C	1.345606	0.473685	1.053436
C221	C	0.845619	-0.026314	0.606848
C222	C	1.345619	0.473686	1.106848
C223	C	0.893632	0.001102	0.633537
C224	C	1.393632	0.501102	1.133537
H225	H	0.717660	-0.039925	0.000009
H226	H	1.217660	0.460075	0.500009
Cl227	Cl	0.142640	0.117199	-0.000022
Cl228	Cl	0.642640	0.617199	0.499978
H229	H	0.854535	-0.021217	0.874298
H230	H	1.354535	0.478783	1.374298
Cl231	Cl	1.049951	0.090412	0.234400
Cl232	Cl	1.549951	0.590412	0.734400
H233	H	1.028746	0.078269	0.777338
H234	H	1.528746	0.578269	1.277338
H235	H	0.352988	-0.068677	0.000013
H236	H	0.852988	0.431323	0.500013
H237	H	0.943696	-0.350177	-0.130190
H238	H	1.443696	0.149823	0.369810
H239	H	0.806501	-0.048651	0.468357
H240	H	1.306501	0.451349	0.968357
Cl241	Cl	1.097960	0.117838	0.359545
Cl242	Cl	1.597960	0.617838	0.859545
Cl243	Cl	0.188069	-0.083408	0.000012
Cl244	Cl	0.688069	0.416592	0.500012
Cl245	Cl	0.507317	0.145950	-0.000036
Cl246	Cl	1.007317	0.645950	0.499964
H247	H	0.941011	-0.501366	0.130166
H248	H	1.441011	-0.001366	0.630166
H249	H	1.028755	0.078264	0.874247
H250	H	1.528755	0.578264	1.374247
Cl251	Cl	0.552748	-0.054655	-0.000009
Cl252	Cl	1.052748	0.445345	0.499991
H253	H	0.316468	0.092569	-0.000030
H254	H	0.816468	0.592569	0.499970
Cl255	Cl	0.695122	0.140462	-0.000033
Cl256	Cl	1.195122	0.640462	0.499967
Cl257	Cl	0.947806	-0.107259	-0.104404
Cl258	Cl	1.447806	0.392741	0.395596
Cl259	Cl	1.097994	0.117825	0.480084
Cl260	Cl	1.597994	0.617825	0.980084
Cl261	Cl	0.945865	-0.220965	-0.104416
Cl262	Cl	1.445865	0.279035	0.395584
H263	H	0.942144	-0.441568	-0.130194
H264	H	1.442144	0.058432	0.369806
Cl265	Cl	1.049910	0.090421	0.113853
Cl266	Cl	1.549910	0.590421	0.613853
H267	H	0.937214	-0.733099	-0.083953
H268	H	1.437214	-0.233099	0.416047
H269	H	0.935666	-0.824509	-0.083953
H270	H	1.435666	-0.324509	0.416047
Cl271	Cl	0.833179	-0.033355	0.113924
Cl272	Cl	1.333179	0.466645	0.613924
H273	H	0.935598	-0.824528	0.083898
H274	H	1.435598	-0.324528	0.583898
H275	H	0.937128	-0.733131	0.083905
H276	H	1.437128	-0.233131	0.583905
Cl277	Cl	0.941801	-0.452760	0.150666
Cl278	Cl	1.441801	0.047240	0.650666
H279	H	0.943533	-0.350205	0.130178
H280	H	1.443533	0.149795	0.630178
H281	H	0.854535	-0.021226	0.777406
H282	H	1.354535	0.478774	1.277406
H283	H	0.945978	-0.209854	0.083933
H284	H	1.445978	0.290146	0.583933
H285	H	0.947524	-0.118443	0.083933
H286	H	1.447524	0.381557	0.583933
H287	H	0.939587	-0.592725	-0.130197
H288	H	1.439587	-0.092725	0.369803
H289	H	0.806496	-0.048651	0.371464
H290	H	1.306496	0.451349	0.871464
H291	H	0.941134	-0.501319	-0.130198
H292	H	1.441134	-0.001319	0.369802
Cl293	Cl	0.939263	-0.603917	0.150650
Cl294	Cl	1.439263	-0.103917	0.650650
Cl295	Cl	0.833190	-0.033358	0.234492
Cl296	Cl	1.333190	0.466642	0.734492
Cl297	Cl	1.097996	0.117826	0.519779
Cl298	Cl	1.597996	0.617826	1.019779
H299	H	1.076746	0.105673	0.628516
H300	H	1.576746	0.605673	1.128516
H301	H	0.806518	-0.048642	0.628601
H302	H	1.306518	0.451358	1.128601
H303	H	0.806508	-0.048641	0.531712
H304	H	1.306508	0.451359	1.031712
