data_functionalizedCrystal
_audit_creation_method	'MofGen! by Chris Wilmer'
_symmetry_space_group_name_H-M	'P1'
_symmetry_Int_Tables_number	1
_symmetry_cell_setting	triclinic
loop_
_symmetry_equiv_pos_as_xyz
  x,y,z
_cell_length_a	10.686220
_cell_length_b	13.897448
_cell_length_c	13.897441
_cell_angle_alpha	90.029627
_cell_angle_beta	85.648699
_cell_angle_gamma	94.399460
loop_
_atom_site_label
_atom_site_type_symbol
_atom_site_fract_x
_atom_site_fract_y
_atom_site_fract_z
Zn1	Zn	1.929082	-0.270721	0.432418
Zn2	Zn	2.179082	-0.020721	0.682418
Zn3	Zn	2.429082	0.229279	0.932418
Zn4	Zn	2.679082	0.479279	1.182418
Zn5	Zn	1.928951	-0.432048	0.271127
Zn6	Zn	2.178951	-0.182048	0.521127
Zn7	Zn	2.428951	0.067952	0.771127
Zn8	Zn	2.678951	0.317952	1.021127
Zn9	Zn	1.718074	-0.283151	0.283493
Zn10	Zn	1.968074	-0.033151	0.533493
Zn11	Zn	2.218074	0.216849	0.783493
Zn12	Zn	2.468074	0.466849	1.033493
Zn13	Zn	1.718042	-0.444368	0.444730
Zn14	Zn	1.968042	-0.194368	0.694730
Zn15	Zn	2.218042	0.055632	0.944730
Zn16	Zn	2.468042	0.305632	1.194730
O17	O	1.823537	-0.357572	0.357942
O18	O	2.073537	-0.107572	0.607942
O19	O	2.323537	0.142428	0.857942
O20	O	2.573537	0.392428	1.107942
O21	O	2.105639	-0.281763	0.400695
O22	O	2.355639	-0.031763	0.650695
O23	O	2.605639	0.218237	0.900695
O24	O	2.855639	0.468237	1.150695
O25	O	1.900936	-0.412342	0.137788
O26	O	2.150936	-0.162342	0.387788
O27	O	2.400936	0.087658	0.637788
O28	O	2.650936	0.337658	0.887788
O29	O	1.746132	-0.146516	0.303270
O30	O	1.996132	0.103484	0.553270
O31	O	2.246132	0.353484	0.803270
O32	O	2.496132	0.603484	1.053270
O33	O	2.105543	-0.400289	0.282195
O34	O	2.355543	-0.150289	0.532195
O35	O	2.605543	0.099711	0.782195
O36	O	2.855543	0.349711	1.032195
O37	O	1.901159	-0.137384	0.412685
O38	O	2.151159	0.112616	0.662685
O39	O	2.401159	0.362616	0.912685
O40	O	2.651159	0.612616	1.162685
O41	O	1.746006	-0.302948	0.146873
O42	O	1.996006	-0.052948	0.396873
O43	O	2.246006	0.197052	0.646873
O44	O	2.496006	0.447052	0.896873
O45	O	1.541495	-0.314894	0.315209
O46	O	1.791495	-0.064894	0.565209
O47	O	2.041495	0.185106	0.815209
O48	O	2.291495	0.435106	1.065209
O49	O	1.746078	-0.421287	0.578076
O50	O	1.996078	-0.171287	0.828076
O51	O	2.246078	0.078713	1.078076
O52	O	2.496078	0.328713	1.328076
O53	O	1.541472	-0.433340	0.433669
O54	O	1.791472	-0.183340	0.683669
O55	O	2.041472	0.066660	0.933669
O56	O	2.291472	0.316660	1.183669
O57	O	1.901128	-0.293710	0.569031
O58	O	2.151128	-0.043710	0.819031
O59	O	2.401128	0.206290	1.069031
O60	O	2.651128	0.456290	1.319031
O61	O	1.900906	-0.568667	0.294133
O62	O	2.150906	-0.318667	0.544133
O63	O	2.400906	-0.068667	0.794133
O64	O	2.650906	0.181333	1.044133
O65	O	1.745951	-0.577719	0.421679
O66	O	1.995951	-0.327719	0.671679
O67	O	2.245951	-0.077719	0.921679
O68	O	2.495951	0.172281	1.171679
C69	C	1.495700	-0.376803	0.377117
C70	C	1.745700	-0.126803	0.627117
C71	C	1.995700	0.123197	0.877117
C72	C	2.245700	0.373197	1.127117
C73	C	1.355450	-0.385054	0.385344
C74	C	1.605450	-0.135054	0.635344
C75	C	1.855450	0.114946	0.885344
C76	C	2.105450	0.364946	1.135344
C77	C	1.823445	-0.608191	0.357919
C78	C	2.073445	-0.358191	0.607919
C79	C	2.323445	-0.108191	0.857919
C80	C	2.573445	0.141809	1.107919
C81	C	1.823521	-0.715401	0.357935
C82	C	2.073521	-0.465401	0.607935
C83	C	2.323521	-0.215401	0.857935
C84	C	2.573521	0.034599	1.107935
C85	C	1.823654	-0.911688	0.357988
C86	C	2.073654	-0.661688	0.607988
C87	C	2.323654	-0.411688	0.857988
C88	C	2.573654	-0.161688	1.107988
C89	C	1.823576	-0.802460	0.357962
C90	C	2.073576	-0.552460	0.607962
C91	C	2.323576	-0.302460	0.857962
C92	C	2.573576	-0.052460	1.107962
C93	C	2.152654	-0.338266	0.338692
C94	C	2.402654	-0.088266	0.588692
C95	C	2.652654	0.161734	0.838692
C96	C	2.902654	0.411734	1.088692
C97	C	2.292905	-0.330039	0.330489
C98	C	2.542905	-0.080039	0.580489
C99	C	2.792905	0.169961	0.830489
C100	C	3.042905	0.419961	1.080489
C101	C	1.823614	-0.357486	0.609531
C102	C	2.073614	-0.107486	0.859531
C103	C	2.323614	0.142514	1.109531
C104	C	2.573614	0.392514	1.359531
C105	C	1.823647	-0.357450	0.716743
C106	C	2.073647	-0.107450	0.966743
C107	C	2.323647	0.142550	1.216743
C108	C	2.573647	0.392550	1.466743
C109	C	1.823664	-0.105971	0.357984
C110	C	2.073664	0.144029	0.607984
C111	C	2.323664	0.394029	0.857984
C112	C	2.573664	0.644029	1.107984
C113	C	1.823718	0.001246	0.358001
C114	C	2.073718	0.251246	0.608001
C115	C	2.323718	0.501246	0.858001
C116	C	2.573718	0.751246	1.108001
C117	C	1.823533	-0.357583	0.107328
C118	C	2.073533	-0.107583	0.357328
C119	C	2.323533	0.142417	0.607328
C120	C	2.573533	0.392417	0.857328
C121	C	1.823744	-0.357333	0.000102
C122	C	2.073744	-0.107333	0.250102
C123	C	2.323744	0.142667	0.500102
C124	C	2.573744	0.392667	0.750102
C125	C	1.823673	-0.357421	0.803811
C126	C	2.073673	-0.107421	1.053811
C127	C	2.323673	0.142579	1.303811
C128	C	2.573673	0.392579	1.553811
C129	C	1.823709	-0.357375	0.913041
C130	C	2.073709	-0.107375	1.163041
C131	C	2.323709	0.142625	1.413041
C132	C	2.573709	0.392625	1.663041
H133	H	1.346652	-0.276627	0.277231
H134	H	1.596652	-0.026627	0.527231
H135	H	1.846652	0.223373	0.777231
H136	H	2.096652	0.473373	1.027231
Br137	Br	1.265867	-0.474099	0.474104
Br138	Br	1.515867	-0.224099	0.724104
Br139	Br	1.765867	0.025901	0.974104
Br140	Br	2.015867	0.275901	1.224104
