data_functionalizedCrystal
_audit_creation_method	'MofGen! by Chris Wilmer'
_symmetry_space_group_name_H-M	'P1'
_symmetry_Int_Tables_number	1
_symmetry_cell_setting	triclinic
loop_
_symmetry_equiv_pos_as_xyz
  x,y,z
_cell_length_a	14.519709
_cell_length_b	10.868271
_cell_length_c	11.792241
_cell_angle_alpha	89.994719
_cell_angle_beta	96.063220
_cell_angle_gamma	89.998701
loop_
_atom_site_label
_atom_site_type_symbol
_atom_site_fract_x
_atom_site_fract_y
_atom_site_fract_z
O1	O	1.224412	0.102162	-0.148781
O2	O	1.557745	0.435496	0.184552
O3	O	1.891078	0.768829	0.517886
O4	O	0.955999	0.102200	-0.166302
O5	O	1.289332	0.435533	0.167032
O6	O	1.622666	0.768867	0.500365
O7	O	1.096719	0.102172	0.007665
O8	O	1.430052	0.435505	0.340999
O9	O	1.763386	0.768838	0.674332
O10	O	1.083692	0.102191	-0.322748
O11	O	1.417025	0.435524	0.010585
O12	O	1.750358	0.768857	0.343919
O13	O	1.096707	-0.102473	0.007672
O14	O	1.430041	0.230860	0.341005
O15	O	1.763374	0.564194	0.674339
O16	O	0.955987	-0.102445	-0.166295
O17	O	1.289321	0.230889	0.167038
O18	O	1.622654	0.564222	0.500372
O19	O	1.224400	-0.102482	-0.148774
O20	O	1.557733	0.230851	0.184559
O21	O	1.891067	0.564184	0.517893
Zn22	Zn	1.090192	-0.134955	-0.157533
Zn23	Zn	1.423525	0.198378	0.175800
Zn24	Zn	1.756859	0.531712	0.509133
Zn25	Zn	1.090207	0.134673	-0.157542
Zn26	Zn	1.423541	0.468006	0.175791
Zn27	Zn	1.756874	0.801340	0.509124
O28	O	1.083680	-0.102454	-0.322741
O29	O	1.417013	0.230879	0.010592
O30	O	1.750347	0.564213	0.343925
C31	C	0.921630	-0.000117	-0.165482
C32	C	1.254964	0.333216	0.167852
C33	C	1.588297	0.666549	0.501185
C34	C	0.819240	-0.000103	-0.163035
C35	C	1.152573	0.333230	0.170298
C36	C	1.485907	0.666563	0.503632
N37	N	1.090188	-0.318969	-0.157527
N38	N	1.423521	0.014364	0.175807
N39	N	1.756855	0.347697	0.509140
C40	C	1.090202	-0.569975	-0.157540
C41	C	1.423536	-0.236642	0.175793
C42	C	1.756869	0.096691	0.509127
C43	C	1.090191	-0.430298	-0.157536
C44	C	1.423525	-0.096964	0.175797
C45	C	1.756858	0.236369	0.509131
C46	C	0.444311	-0.000160	-0.154027
C47	C	0.777645	0.333174	0.179306
C48	C	1.110978	0.666507	0.512640
C49	C	0.548628	-0.000144	-0.156528
C50	C	0.881962	0.333190	0.176805
C51	C	1.215295	0.666523	0.510138
C52	C	0.631772	-0.000130	-0.158531
C53	C	0.965106	0.333203	0.174803
C54	C	1.298439	0.666536	0.508136
C55	C	0.736096	-0.000117	-0.161033
C56	C	1.069429	0.333217	0.172301
C57	C	1.402763	0.666550	0.505634
C58	C	1.258769	-0.000162	-0.149594
C59	C	1.592102	0.333171	0.183739
C60	C	1.925435	0.666505	0.517073
C61	C	1.361159	-0.000168	-0.152041
C62	C	1.694492	0.333165	0.181292
C63	C	2.027826	0.666499	0.514626
C64	C	1.095895	-0.000150	0.049955
C65	C	1.429228	0.333183	0.383288
C66	C	1.762562	0.666517	0.716622
C67	C	1.093446	-0.000149	0.175955
C68	C	1.426779	0.333185	0.509289
C69	C	1.760112	0.666518	0.842622
N70	N	1.090218	0.318687	-0.157540
N71	N	1.423552	0.652020	0.175793
N72	N	1.756885	0.985354	0.509126
C73	C	1.084504	-0.000129	-0.365031
C74	C	1.417838	0.333204	-0.031698
C75	C	1.751171	0.666537	0.301636
C76	C	1.086954	-0.000123	-0.491031
C77	C	1.420287	0.333211	-0.157698
C78	C	1.753620	0.666544	0.175636
C79	C	1.088942	-0.000127	0.406642
C80	C	1.422275	0.333206	0.739976
C81	C	1.755608	0.666539	1.073309
C82	C	1.091444	-0.000139	0.278271
C83	C	1.424777	0.333194	0.611604
C84	C	1.758111	0.666528	0.944938
