data_functionalizedCrystal
_audit_creation_method	'MofGen! by Chris Wilmer'
_symmetry_space_group_name_H-M	'P1'
_symmetry_Int_Tables_number	1
_symmetry_cell_setting	triclinic
loop_
_symmetry_equiv_pos_as_xyz
  x,y,z
_cell_length_a	14.044191
_cell_length_b	14.044220
_cell_length_c	9.730223
_cell_angle_alpha	89.997406
_cell_angle_beta	90.002006
_cell_angle_gamma	93.190327
loop_
_atom_site_label
_atom_site_type_symbol
_atom_site_fract_x
_atom_site_fract_y
_atom_site_fract_z
O1	O	1.277167	0.230195	-0.114230
O2	O	1.000494	0.221883	-0.114247
O3	O	1.134678	0.087703	-0.114225
O4	O	1.142983	0.364375	-0.114251
O5	O	1.134676	0.087707	0.114355
O6	O	1.000493	0.221886	0.114333
O7	O	1.277165	0.230199	0.114350
Zn8	Zn	1.138829	0.226043	0.150634
Zn9	Zn	1.138831	0.226038	-0.150530
O10	O	1.142982	0.364378	0.114328
C11	C	0.964872	0.218248	0.000041
C12	C	0.858728	0.207401	0.000035
C13	C	0.613270	0.264501	0.000043
C14	C	0.664395	0.187585	0.000048
C15	C	0.772532	0.198613	0.000041
C16	C	0.505123	0.253474	0.000051
C17	C	1.131041	0.052083	0.000065
C18	C	1.120197	-0.054060	0.000066
C19	C	1.100370	-0.248398	0.000045
C20	C	1.177285	-0.299526	0.000046
C21	C	1.166253	-0.407663	0.000034
C22	C	1.111400	-0.140252	0.000057
C23	C	1.312788	0.233834	0.000059
C24	C	1.418931	0.244681	0.000057
C25	C	1.146618	0.399998	0.000035
C26	C	1.157463	0.506142	0.000025
N27	N	1.138834	0.226046	0.356170
N28	N	1.138832	0.226028	-0.356067
C29	C	1.198269	0.166655	0.428106
C30	C	1.198266	0.166643	0.571989
C31	C	1.079391	0.285422	0.571988
C32	C	1.079390	0.285428	0.428107
C33	C	1.266904	0.098081	0.428108
C34	C	1.266901	0.098070	0.571991
H35	H	0.650711	0.338628	0.000032
Cl36	Cl	1.004664	0.360070	0.662431
H37	H	1.026242	-0.285837	0.000038
Cl38	Cl	1.291743	-0.241724	0.000068
H39	H	1.030984	0.333781	0.369538
H40	H	1.245049	0.023512	0.389060
Cl41	Cl	1.376566	0.142088	0.359200
H42	H	1.238461	0.027011	0.616611
Cl43	Cl	1.382008	0.131893	0.632297
H44	H	0.626952	0.113452	-0.000041
