data_functionalizedCrystal
_audit_creation_method	'MofGen! by Chris Wilmer'
_symmetry_space_group_name_H-M	'P1'
_symmetry_Int_Tables_number	1
_symmetry_cell_setting	triclinic
loop_
_symmetry_equiv_pos_as_xyz
  x,y,z
_cell_length_a	12.594517
_cell_length_b	19.120786
_cell_length_c	12.594509
_cell_angle_alpha	87.525775
_cell_angle_beta	89.988522
_cell_angle_gamma	92.461418
loop_
_atom_site_label
_atom_site_type_symbol
_atom_site_fract_x
_atom_site_fract_y
_atom_site_fract_z
Zn1	Zn	1.609116	-0.279686	-0.583455
Zn2	Zn	1.601383	-0.397156	-0.397864
Zn3	Zn	1.431118	-0.279708	-0.405513
Zn4	Zn	1.423482	-0.397100	-0.575828
O5	O	1.516275	-0.338413	-0.490665
O6	O	1.757035	-0.295284	-0.558826
O7	O	1.578757	-0.381610	-0.249930
O8	O	1.461162	-0.181415	-0.435510
O9	O	1.751354	-0.381588	-0.422473
O10	O	1.591936	-0.181399	-0.566244
O11	O	1.453664	-0.295321	-0.255550
O12	O	1.281160	-0.295266	-0.428115
O13	O	1.448147	-0.381491	-0.725788
O14	O	1.275550	-0.381513	-0.553245
O15	O	1.584531	-0.295228	-0.731391
O16	O	1.571352	-0.495439	-0.415078
O17	O	1.440649	-0.495397	-0.545827
C18	C	1.239736	-0.338386	-0.490683
C19	C	1.121430	-0.338392	-0.490714
C20	C	1.049150	-0.385393	-0.558629
C21	C	0.982498	-0.321352	-0.588958
C22	C	0.977280	-0.402486	-0.460359
C23	C	1.056338	-0.274316	-0.521096
C24	C	1.051123	-0.355493	-0.392449
C25	C	0.984506	-0.291408	-0.422744
C26	C	1.504362	-0.520904	-0.478818
C27	C	1.499363	-0.598974	-0.473785
C28	C	1.565050	-0.635583	-0.539542
C29	C	1.560349	-0.708939	-0.534815
C30	C	1.489964	-0.745684	-0.464326
C31	C	1.424269	-0.709070	-0.398566
C32	C	1.428966	-0.635716	-0.403299
C33	C	1.472374	-0.967170	-0.446633
C34	C	1.467684	-1.040529	-0.441902
C35	C	1.603763	-1.040393	-0.578153
C36	C	1.608458	-0.967037	-0.582876
C37	C	1.542760	-0.930430	-0.517120
C38	C	1.485159	-0.820665	-0.459490
C39	C	1.547560	-0.855450	-0.521962
C40	C	1.793894	-0.338440	-0.490647
C41	C	1.912198	-0.338451	-0.490640
C42	C	1.516350	-0.338351	-0.768290
C43	C	1.516382	-0.338325	-0.886597
C44	C	1.528263	-0.155209	-0.502581
C45	C	1.533372	-0.077138	-0.507659
C46	C	1.442227	-0.385217	-0.952804
C47	C	1.538233	-0.402383	-1.022465
C48	C	1.420454	-0.321116	-1.027738
C49	C	1.612437	-0.355525	-0.954698
C50	C	1.494595	-0.274228	-0.959966
C51	C	1.590670	-0.291370	-1.029597
C52	C	1.516264	-0.338423	-0.214123
C53	C	1.516451	-0.338252	-0.095829
H54	H	0.952318	-0.306908	-0.672027
H55	H	1.556699	-0.456557	-1.050056
O56	O	1.416646	-0.856331	-0.391128
C57	C	1.311693	-0.838443	-0.415434
H58	H	1.307556	-0.818235	-0.501760
H59	H	1.256030	-0.886719	-0.403116
H60	H	1.286624	-0.795911	-0.361081
H61	H	1.418882	-0.937370	-0.393090
H62	H	1.090799	-0.220122	-0.546833
O63	O	1.365201	-0.600043	-0.339528
C64	C	1.384455	-0.527420	-0.358802
H65	H	1.419915	-0.517347	-0.441619
H66	H	1.306514	-0.499586	-0.353321
H67	H	1.442502	-0.506601	-0.297054
O68	O	0.950807	-0.243874	-0.354318
C69	C	0.991445	-0.176446	-0.386655
H70	H	1.011278	-0.175176	-0.475055
H71	H	0.929451	-0.136298	-0.371475
H72	H	1.066466	-0.163341	-0.339584
O73	O	1.709200	-0.372952	-0.916449
C74	C	1.707989	-0.372793	-0.804518
H75	H	1.622650	-0.380605	-0.774720
H76	H	1.757322	-0.417117	-0.770731
H77	H	1.743014	-0.320529	-0.777591
H78	H	1.604863	-0.825530	-0.579359
H79	H	1.081325	-0.369956	-0.309403
O80	O	1.367578	-0.432690	-0.912729
C81	C	1.390981	-0.500158	-0.944460
H82	H	1.479188	-0.501485	-0.964218
H83	H	1.370582	-0.540249	-0.877129
H84	H	1.342098	-0.513296	-1.017689
O85	O	1.083192	-0.432801	-0.627085
C86	C	1.141515	-0.483612	-0.570807
H87	H	1.117272	-0.485717	-0.483477
H88	H	1.124374	-0.537053	-0.605361
H89	H	1.230059	-0.469155	-0.578075
H90	H	0.942685	-0.456664	-0.434719
H91	H	1.657250	-1.070207	-0.631689
O92	O	1.633447	-0.600000	-0.608113
C93	C	1.690431	-0.648046	-0.665121
H94	H	1.643484	-0.700357	-0.665392
H95	H	1.703092	-0.626811	-0.750363
H96	H	1.770795	-0.655822	-0.625709
H97	H	1.613847	-0.738743	-0.588353
H98	H	1.665771	-0.937121	-0.640274
O99	O	1.472660	-0.209566	-0.927142
C100	C	1.549953	-0.160009	-0.967924
H101	H	1.588117	-0.180807	-1.041653
H102	H	1.510709	-0.108757	-0.989920
H103	H	1.613533	-0.150388	-0.905178
O104	O	1.399210	-1.076117	-0.373403
C105	C	1.342246	-1.028077	-0.316362
H106	H	1.341883	-0.975769	-0.363328
H107	H	1.257033	-1.049325	-0.303582
H108	H	1.381758	-1.020291	-0.236052
H109	H	1.653479	-0.251684	-1.063020
O110	O	1.323556	-0.303866	-1.065838
C111	C	1.245593	-0.353494	-1.026616
H112	H	1.275352	-0.380277	-0.950348
H113	H	1.169362	-0.325957	-1.009335
H114	H	1.229021	-0.394378	-1.088447
O115	O	1.355747	-0.744732	-0.330208
C116	C	1.250797	-0.726841	-0.354527
H117	H	1.246668	-0.706641	-0.440857
H118	H	1.195129	-0.775114	-0.342203
H119	H	1.225728	-0.684302	-0.300186
