data_functionalizedCrystal
_audit_creation_method	'MofGen! by Chris Wilmer'
_symmetry_space_group_name_H-M	'P1'
_symmetry_Int_Tables_number	1
_symmetry_cell_setting	triclinic
loop_
_symmetry_equiv_pos_as_xyz
  x,y,z
_cell_length_a	19.077212
_cell_length_b	29.839131
_cell_length_c	19.076919
_cell_angle_alpha	87.732541
_cell_angle_beta	90.114942
_cell_angle_gamma	92.333380
loop_
_atom_site_label
_atom_site_type_symbol
_atom_site_fract_x
_atom_site_fract_y
_atom_site_fract_z
Zn1	Zn	1.058217	-0.163090	0.440566
Zn2	Zn	1.558217	0.336910	0.940566
Zn3	Zn	1.062824	-0.235086	0.323051
Zn4	Zn	1.562824	0.264914	0.823051
Zn5	Zn	0.945433	-0.162853	0.318341
Zn6	Zn	1.445433	0.337147	0.818341
Zn7	Zn	0.940641	-0.241079	0.435784
Zn8	Zn	1.440641	0.258921	0.935784
O9	O	1.001779	-0.200527	0.379436
O10	O	1.501779	0.299473	0.879436
O11	O	1.157163	-0.170232	0.428950
O12	O	1.657163	0.329768	0.928950
O13	O	1.051186	-0.222898	0.224096
O14	O	1.551186	0.277102	0.724096
O15	O	0.960472	-0.100016	0.334585
O16	O	1.460472	0.399984	0.834585
O17	O	1.160548	-0.223127	0.342612
O18	O	1.660548	0.276873	0.842612
O19	O	1.043334	-0.100190	0.424383
O20	O	1.543334	0.399810	0.924383
O21	O	0.964939	-0.169828	0.220636
O22	O	1.464939	0.330172	0.720636
O23	O	0.846462	-0.175639	0.329948
O24	O	1.346462	0.324361	0.829948
O25	O	0.952304	-0.233340	0.534748
O26	O	1.452304	0.266660	1.034748
O27	O	0.842941	-0.233111	0.416232
O28	O	1.342941	0.266889	0.916232
O29	O	1.038687	-0.176042	0.538262
O30	O	1.538687	0.323958	1.038262
O31	O	1.046539	-0.298750	0.337975
O32	O	1.546539	0.201250	0.837975
O33	O	0.956771	-0.303152	0.420799
O34	O	1.456771	0.196848	0.920799
C35	C	0.819205	-0.205000	0.372061
C36	C	1.319205	0.295000	0.872061
C37	C	0.741098	-0.206925	0.368922
C38	C	1.241098	0.293075	0.868922
C39	C	0.301628	-0.220711	0.346446
C40	C	0.801628	0.279289	0.846446
C41	C	0.375018	-0.218900	0.349389
C42	C	0.875018	0.281100	0.849389
C43	C	0.409950	-0.190504	0.395886
C44	C	0.909950	0.309496	0.895886
C45	C	0.371488	-0.163913	0.439436
C46	C	0.871488	0.336087	0.939436
C47	C	0.298100	-0.165722	0.436489
C48	C	0.798100	0.334278	0.936489
C49	C	0.629248	-0.182143	0.409525
C50	C	1.129248	0.317857	0.909525
C51	C	0.702642	-0.180337	0.412471
C52	C	1.202642	0.319663	0.912471
C53	C	0.706167	-0.235324	0.322423
C54	C	1.206167	0.264676	0.822423
C55	C	0.632777	-0.237132	0.319483
C56	C	1.132777	0.262868	0.819483
C57	C	0.594321	-0.210540	0.363030
C58	C	1.094321	0.289460	0.863030
N59	N	0.484966	-0.188653	0.398897
N60	N	0.984966	0.311347	0.898897
N61	N	0.519307	-0.212389	0.360015
N62	N	1.019307	0.287611	0.860015
C63	C	1.001653	-0.317252	0.379396
C64	C	1.501653	0.182748	0.879396
C65	C	1.001663	-0.367186	0.379405
C66	C	1.501663	0.132814	0.879405
C67	C	1.048600	-0.674522	0.336378
C68	C	1.548600	-0.174522	0.836378
C69	C	1.048686	-0.862194	0.336409
C70	C	1.548686	-0.362194	0.836409
O71	O	1.088493	-0.884498	0.299795
O72	O	1.588493	-0.384498	0.799795
N73	N	1.001922	-0.887967	0.379494
N74	N	1.501922	-0.387967	0.879494
C75	C	0.955138	-0.866820	0.422579
C76	C	1.455138	-0.366820	0.922579
O77	O	0.915369	-0.893048	0.459232
O78	O	1.415369	-0.393048	0.959232
C79	C	0.955056	-0.679149	0.422551
C80	C	1.455056	-0.179149	0.922551
C81	C	1.001817	-0.653378	0.379458
C82	C	1.501817	-0.153378	0.879458
C83	C	1.095358	-0.648751	0.293288
C84	C	1.595358	-0.148751	0.793288
C85	C	1.095334	-0.601836	0.293278
C86	C	1.595334	-0.101836	0.793278
C87	C	1.048551	-0.580692	0.336358
C88	C	1.548551	-0.080692	0.836358
C89	C	1.001793	-0.606463	0.379447
C90	C	1.501793	-0.106463	0.879447
C91	C	0.908275	-0.658002	0.465639
C92	C	1.408275	-0.158002	0.965639
C93	C	0.908260	-0.611081	0.465629
C94	C	1.408260	-0.111081	0.965629
C95	C	0.955021	-0.585310	0.422536
C96	C	1.455021	-0.085310	0.922536
C97	C	0.954986	-0.538403	0.422517
C98	C	1.454986	-0.038403	0.922517
N99	N	1.001749	-0.512630	0.379431
N100	N	1.501749	-0.012630	0.879431
C101	C	1.048531	-0.533774	0.336352
C102	C	1.548531	-0.033774	0.836352
C103	C	0.955183	-0.965349	0.422589
C104	C	1.455183	-0.465349	0.922589
C105	C	0.955202	-1.012267	0.422595
C106	C	1.455202	-0.512267	0.922595
C107	C	1.048751	-1.007638	0.336426
C108	C	1.548751	-0.507638	0.836426
C109	C	1.048728	-0.960719	0.336417
C110	C	1.548728	-0.460719	0.836417
C111	C	1.001946	-0.939576	0.379504
C112	C	1.501946	-0.439576	0.879504
C113	C	1.048476	-0.435250	0.336333
C114	C	1.548476	0.064750	0.836333
C115	C	1.048446	-0.388331	0.336325
C116	C	1.548446	0.111669	0.836325
C117	C	0.954899	-0.392964	0.422497
C118	C	1.454899	0.107036	0.922497
C119	C	0.954927	-0.439879	0.422503
C120	C	1.454927	0.060121	0.922503
C121	C	1.001721	-0.461020	0.379419
C122	C	1.501721	0.038980	0.879419
O123	O	0.915204	-0.516069	0.459117
O124	O	1.415204	-0.016069	0.959117
O125	O	1.088304	-0.507539	0.299716
O126	O	1.588304	-0.007539	0.799716
C127	C	1.048624	-0.721437	0.336388
C128	C	1.548624	-0.221437	0.836388
C129	C	1.001866	-0.747208	0.379478
C130	C	1.501866	-0.247208	0.879478
C131	C	0.955084	-0.726064	0.422557
C132	C	1.455084	-0.226064	0.922557
C133	C	1.001886	-0.794126	0.379484
C134	C	1.501886	-0.294126	0.879484
C135	C	1.048668	-0.815270	0.336404
C136	C	1.548668	-0.315270	0.836404
C137	C	1.095431	-0.789497	0.293319
C138	C	1.595431	-0.289497	0.793319
C139	C	1.095407	-0.742581	0.293308
C140	C	1.595407	-0.242581	0.793308
C141	C	0.908320	-0.751837	0.465643
C142	C	1.408320	-0.251837	0.965643
C143	C	0.908348	-0.798752	0.465649
C144	C	1.408348	-0.298752	0.965649
C145	C	0.955131	-0.819896	0.422569
C146	C	1.455131	-0.319896	0.922569
C147	C	1.185066	-0.196037	0.386840
C148	C	1.685066	0.303963	0.886840
C149	C	1.263172	-0.194124	0.389995
C150	C	1.763172	0.305876	0.889995
C151	C	0.994447	-0.205386	0.562714
C152	C	1.494447	0.294614	1.062714
C153	C	0.991323	-0.207457	0.640816
C154	C	1.491323	0.292543	1.140816
C155	C	1.001923	-0.083346	0.379492
C156	C	1.501923	0.416654	0.879492
C157	C	1.001985	-0.033411	0.379516
C158	C	1.501985	0.466589	0.879516
C159	C	1.009123	-0.195654	0.196872
C160	C	1.509123	0.304346	0.696872
C161	C	1.012383	-0.193453	0.118775
C162	C	1.512383	0.306547	0.618775
C163	C	1.034827	-0.178599	0.679339
C164	C	1.534827	0.321401	1.179339
C165	C	1.031883	-0.180543	0.752724
C166	C	1.531883	0.319457	1.252724
C167	C	0.985437	-0.211347	0.787585
C168	C	1.485437	0.288653	1.287585
C169	C	0.941927	-0.240206	0.749057
C170	C	1.441927	0.259794	1.249057
C171	C	0.944869	-0.238260	0.675673
C172	C	1.444869	0.261740	1.175673
C173	C	0.971815	-0.220366	1.006863
C174	C	1.471815	0.279634	1.506863
C175	C	0.968878	-0.222311	1.080252
C176	C	1.468878	0.277689	1.580252
C177	C	1.058833	-0.162647	1.083915
C178	C	1.558833	0.337353	1.583915
C179	C	1.061773	-0.160705	1.010529
C180	C	1.561773	0.339295	1.510529
C181	C	1.018261	-0.189562	0.972007
C182	C	1.518261	0.310438	1.472007
N183	N	0.982428	-0.213336	0.862597
N184	N	1.482428	0.286664	1.362597
N185	N	1.021267	-0.187571	0.896997
N186	N	1.521267	0.312429	1.396997
H187	H	1.086524	-0.367349	0.301230
H188	H	1.586524	0.132651	0.801230
C189	C	0.586957	-0.152894	0.457435
C190	C	1.086957	0.347106	0.957435
N191	N	0.555100	-0.130863	0.493524
N192	N	1.055100	0.369137	0.993524
C193	C	1.099948	-0.458498	0.288935
C194	C	1.599948	0.041502	0.788935
N195	N	1.138713	-0.476009	0.253230
N196	N	1.638713	0.023991	0.753230
H197	H	0.737485	-0.256973	0.286968
H198	H	1.237485	0.243027	0.786968
C199	C	1.146892	-0.812764	0.245930
C200	C	1.646892	-0.312764	0.745930
N201	N	1.185652	-0.830292	0.210242
N202	N	1.685652	-0.330292	0.710242
C203	C	1.100171	-0.932376	0.289013
C204	C	1.600171	-0.432376	0.789013
N205	N	1.138921	-0.911029	0.253308
N206	N	1.638921	-0.411029	0.753308
C207	C	0.917780	-0.256199	1.118598
C208	C	1.417780	0.243801	1.618598
N209	N	0.879294	-0.281721	1.147480
N210	N	1.379294	0.218279	1.647480
H211	H	1.067311	-0.157045	0.784087
H212	H	1.567311	0.342955	1.284087
H213	H	0.731081	-0.157210	0.450333
H214	H	1.231081	0.342790	0.950333
H215	H	0.916807	-0.375741	0.457570
H216	H	1.416807	0.124259	0.957570
H217	H	1.133413	-0.580856	0.258190
H218	H	1.633413	-0.080856	0.758190
C219	C	1.106685	-0.130900	1.126294
C220	C	1.606685	0.369100	1.626294
N221	N	1.142725	-0.106985	1.158214
N222	N	1.642725	0.393015	1.658214
H223	H	1.072651	-0.153516	0.650961
H224	H	1.572651	0.346484	1.150961
H225	H	0.870263	-0.819731	0.500740
H226	H	1.370263	-0.319731	1.000740
C227	C	0.856871	-0.728585	0.513056
C228	C	1.356871	-0.228585	1.013056
N229	N	0.818121	-0.711074	0.548776
N230	N	1.318121	-0.211074	1.048776
H231	H	0.399935	-0.140790	0.477292
H232	H	0.899935	0.359210	0.977292
H233	H	1.133485	-0.721602	0.258218
H234	H	1.633485	-0.221602	0.758218
C235	C	1.100216	-1.030905	0.289042
C236	C	1.600216	-0.530905	0.789042
N237	N	1.138982	-1.048432	0.253359
N238	N	1.638982	-0.548432	0.753359
C239	C	1.112861	-0.126813	0.972187
C240	C	1.612861	0.373187	1.472187
N241	N	1.151340	-0.101285	0.943308
N242	N	1.651340	0.398715	1.443308
H243	H	0.266789	-0.144070	0.471949
H244	H	0.766789	0.355930	0.971949
C245	C	1.146824	-0.672002	0.245889
C246	C	1.646824	-0.172002	0.745889
N247	N	1.185586	-0.689511	0.210180
N248	N	1.685586	-0.189511	0.710180
C249	C	0.856795	-0.587827	0.513030
C250	C	1.356795	-0.087827	1.013030
N251	N	0.818030	-0.570313	0.548731
N252	N	1.318030	-0.070313	1.048731
H253	H	0.936394	-0.243870	0.975508
H254	H	1.436394	0.256130	1.475508
H255	H	0.917086	-0.948138	0.457677
H256	H	1.417086	-0.448138	0.957677
C257	C	0.890829	-0.274088	0.787407
C258	C	1.390829	0.225912	1.287407
N259	N	0.852341	-0.299607	0.816291
N260	N	1.352341	0.200393	1.316291
C261	C	0.903485	-0.468228	0.469905
C262	C	1.403485	0.031772	0.969905
N263	N	0.864743	-0.489577	0.505615
N264	N	1.364743	0.010423	1.005615
C265	C	0.897011	-0.270007	0.633298
C266	C	1.397011	0.229993	1.133298
N267	N	0.860962	-0.293919	0.601382
N268	N	1.360962	0.206081	1.101382
H269	H	0.870194	-0.678977	0.500727
H270	H	1.370194	-0.178977	1.000727
C271	C	0.263210	-0.251949	0.295295
C272	C	0.763210	0.248051	0.795295
N273	N	0.234276	-0.275477	0.256764
N274	N	0.734276	0.224523	0.756764
C275	C	0.594358	-0.268364	0.268323
C276	C	1.094358	0.231636	0.768323
N277	N	0.565421	-0.291887	0.229788
N278	N	1.065421	0.208113	0.729788
C279	C	0.417317	-0.248149	0.301482
C280	C	0.917317	0.251851	0.801482
N281	N	0.449176	-0.270180	0.265396
N282	N	0.949176	0.229820	0.765396
H283	H	0.917118	-1.033246	0.457680
H284	H	1.417118	-0.533246	0.957680
