data_functionalizedCrystal
_audit_creation_method	'MofGen! by Chris Wilmer'
_symmetry_space_group_name_H-M	'P1'
_symmetry_Int_Tables_number	1
_symmetry_cell_setting	triclinic
loop_
_symmetry_equiv_pos_as_xyz
  x,y,z
_cell_length_a	16.625547
_cell_length_b	16.625546
_cell_length_c	17.640968
_cell_angle_alpha	78.766516
_cell_angle_beta	78.771085
_cell_angle_gamma	90.022405
loop_
_atom_site_label
_atom_site_type_symbol
_atom_site_fract_x
_atom_site_fract_y
_atom_site_fract_z
Zn1	Zn	1.324888	-0.228801	-0.447042
Zn2	Zn	1.824888	0.271199	0.052958
Zn3	Zn	1.297525	-0.390908	-0.314850
Zn4	Zn	1.797525	0.109092	0.185150
Zn5	Zn	1.162785	-0.256092	-0.314858
Zn6	Zn	1.662785	0.243908	0.185142
Zn7	Zn	1.190008	-0.363607	-0.446985
Zn8	Zn	1.690008	0.136393	0.053015
O9	O	1.243802	-0.309852	-0.380934
O10	O	1.743802	0.190148	0.119066
O11	O	1.434095	-0.250310	-0.429527
O12	O	1.934095	0.249690	0.070473
O13	O	1.256807	-0.395871	-0.204232
O14	O	1.756807	0.104129	0.295768
O15	O	1.184347	-0.139634	-0.332419
O16	O	1.684347	0.360366	0.167581
O17	O	1.413991	-0.369409	-0.332406
O18	O	1.913991	0.130591	0.167594
O19	O	1.303443	-0.119583	-0.429534
O20	O	1.803443	0.380417	0.070466
O21	O	1.157814	-0.296822	-0.204238
O22	O	1.657814	0.203178	0.295762
O23	O	1.053560	-0.270349	-0.332364
O24	O	1.553560	0.229651	0.167636
O25	O	1.230745	-0.322878	-0.557611
O26	O	1.730745	0.177122	-0.057611
O27	O	1.073561	-0.349340	-0.429438
O28	O	1.573561	0.150660	0.070562
O29	O	1.329840	-0.223837	-0.557653
O30	O	1.829840	0.276163	-0.057653
O31	O	1.283204	-0.500125	-0.332351
O32	O	1.783204	-0.000125	0.167649
O33	O	1.204212	-0.480067	-0.429430
O34	O	1.704212	0.019933	0.070570
C35	C	1.034303	-0.309844	-0.380896
C36	C	1.534303	0.190156	0.119104
C37	C	0.944683	-0.309856	-0.380899
C38	C	1.444683	0.190144	0.119101
C39	C	0.871902	-0.309856	-0.380909
C40	C	1.371902	0.190144	0.119091
C41	C	0.780598	-0.309856	-0.380929
C42	C	1.280598	0.190144	0.119071
C43	C	0.707826	-0.309859	-0.380949
C44	C	1.207826	0.190141	0.119051
C45	C	0.616515	-0.309861	-0.380968
C46	C	1.116515	0.190139	0.119032
C47	C	1.243719	-0.519350	-0.380901
C48	C	1.743719	-0.019350	0.119099
C49	C	1.243762	-0.608968	-0.380913
C50	C	1.743762	-0.108968	0.119087
C51	C	1.243920	-0.937127	-0.380995
C52	C	1.743920	-0.437127	0.119005
C53	C	1.243874	-0.845823	-0.380974
C54	C	1.743874	-0.345823	0.119026
C55	C	1.243840	-0.773051	-0.380954
C56	C	1.743840	-0.273051	0.119046
C57	C	1.243796	-0.681741	-0.380934
C58	C	1.743796	-0.181741	0.119066
C59	C	1.454118	-0.309861	-0.380972
C60	C	1.954118	0.190139	0.119028
C61	C	1.543743	-0.309864	-0.380988
C62	C	2.043743	0.190136	0.119012
C63	C	1.286382	-0.267268	-0.587116
C64	C	1.786382	0.232732	-0.087116
C65	C	1.304527	-0.249121	-0.674979
C66	C	1.804527	0.250879	-0.174979
C67	C	1.243911	-0.099533	-0.380984
C68	C	1.743911	0.400467	0.119016
C69	C	1.243957	-0.009907	-0.381006
C70	C	1.743957	0.490093	0.118994
C71	C	1.106266	-0.447273	-0.963839
C72	C	1.606266	0.052727	-0.463839
C73	C	1.123333	-0.430211	-1.046399
C74	C	1.623333	0.069789	-0.546399
C75	C	1.226512	-0.327088	-1.046432
C76	C	1.726512	0.172912	-0.546432
C77	C	1.209451	-0.344139	-0.963870
C78	C	1.709451	0.155861	-0.463870
C79	C	1.149327	-0.404233	-0.922580
C80	C	1.649327	0.095767	-0.422580
C81	C	1.252513	-0.301098	-0.922612
C82	C	1.752513	0.198902	-0.422612
C83	C	1.235456	-0.318151	-0.840057
C84	C	1.735456	0.181849	-0.340057
C85	C	1.175337	-0.378243	-0.798761
C86	C	1.675337	0.121757	-0.298761
C87	C	1.132270	-0.421285	-0.840025
C88	C	1.632270	0.078715	-0.340025
C89	C	1.312640	-0.241009	-0.963903
C90	C	1.812640	0.258991	-0.463903
C91	C	1.355701	-0.197968	-0.922644
C92	C	1.855701	0.302032	-0.422644
C93	C	1.338641	-0.215016	-0.840088
C94	C	1.838641	0.284984	-0.340088
C95	C	1.278522	-0.275109	-0.798792
C96	C	1.778522	0.224891	-0.298792
C97	C	1.381707	-0.171975	-0.798823
C98	C	1.881707	0.328025	-0.298823
C99	C	1.364650	-0.189027	-0.716269
C100	C	1.864650	0.310973	-0.216269
C101	C	1.261465	-0.292162	-0.716237
C102	C	1.761465	0.207838	-0.216237
C103	C	1.201434	-0.352212	-0.175553
C104	C	1.701434	0.147788	0.324447
C105	C	1.183445	-0.370132	-0.087691
C106	C	1.683445	0.129868	0.412309
H107	H	1.212487	-0.341077	-0.682617
H108	H	1.712487	0.158923	-0.182617
C109	C	1.227591	-0.423228	-0.680499
C110	C	1.727591	0.076772	-0.180499
C111	C	1.156584	-0.396989	-0.708015
C112	C	1.656584	0.103011	-0.208015
H113	H	1.216013	-0.434796	-0.624476
H114	H	1.716013	0.065204	-0.124476
H115	H	1.245359	-0.471402	-0.699162
H116	H	1.745359	0.028598	-0.199162
H117	H	1.269555	-0.381274	-0.699189
H118	H	1.769555	0.118726	-0.199189
H119	H	1.114622	-0.438946	-0.689329
H120	H	1.614622	0.061054	-0.189329
H121	H	1.138805	-0.348810	-0.689343
H122	H	1.638805	0.151190	-0.189343
H123	H	1.083293	-0.470200	-0.806405
H124	H	1.583293	0.029800	-0.306405
H125	H	1.399714	-0.153978	-0.682675
H126	H	1.899714	0.346022	-0.182675
H127	H	1.057288	-0.496188	-0.930218
H128	H	1.557288	0.003812	-0.430218
H129	H	1.326527	-0.227129	-1.031125
H130	H	1.826527	0.272871	-0.531125
H131	H	1.088262	-0.465264	-1.079989
H132	H	1.588262	0.034736	-0.579989
H133	H	1.275466	-0.278162	-1.080062
H134	H	1.775466	0.221838	-0.580062
C135	C	1.427664	-0.126032	-1.049210
C136	C	1.927664	0.373968	-0.549210
C137	C	1.421785	-0.131912	-0.968035
C138	C	1.921785	0.368088	-0.468035
H139	H	1.468458	-0.085246	-1.077229
H140	H	1.968458	0.414754	-0.577229
H141	H	1.442238	-0.177410	-1.062723
H142	H	1.942238	0.322590	-0.562723
H143	H	1.376285	-0.111438	-1.062730
H144	H	1.876285	0.388562	-0.562730
H145	H	1.473163	-0.146512	-0.954514
H146	H	1.973163	0.353488	-0.454514
H147	H	1.407216	-0.080523	-0.954517
H148	H	1.907216	0.419477	-0.454517
C149	C	1.426313	-0.030188	-0.824282
C150	C	1.926313	0.469812	-0.324282
C151	C	1.447796	-0.105925	-0.844214
C152	C	1.947796	0.394075	-0.344214
H153	H	1.467118	0.010586	-0.852301
H154	H	1.967118	0.510586	-0.352301
H155	H	1.374947	-0.015594	-0.837817
H156	H	1.874947	0.484406	-0.337817
H157	H	1.422316	-0.034190	-0.769209
H158	H	1.922316	0.465810	-0.269209
H159	H	1.451787	-0.101924	-0.899287
H160	H	1.951787	0.398076	-0.399287
H161	H	1.499176	-0.120521	-0.830684
H162	H	1.999176	0.379479	-0.330684
