data_functionalizedCrystal
_audit_creation_method	'MofGen! by Chris Wilmer'
_symmetry_space_group_name_H-M	'P1'
_symmetry_Int_Tables_number	1
_symmetry_cell_setting	triclinic
loop_
_symmetry_equiv_pos_as_xyz
  x,y,z
_cell_length_a	12.759401
_cell_length_b	19.120786
_cell_length_c	12.759393
_cell_angle_alpha	87.522629
_cell_angle_beta	89.981712
_cell_angle_gamma	92.465139
loop_
_atom_site_label
_atom_site_type_symbol
_atom_site_fract_x
_atom_site_fract_y
_atom_site_fract_z
Zn1	Zn	1.588324	-0.279590	-0.576122
Zn2	Zn	2.088324	0.220410	-0.076122
Zn3	Zn	1.580692	-0.397068	-0.392928
Zn4	Zn	2.080692	0.102932	0.107072
Zn5	Zn	1.412627	-0.279627	-0.400457
Zn6	Zn	1.912627	0.220373	0.099543
Zn7	Zn	1.405088	-0.397013	-0.568570
Zn8	Zn	1.905088	0.102987	-0.068570
O9	O	1.496683	-0.338324	-0.484519
O10	O	1.996683	0.161676	0.015481
O11	O	1.734332	-0.295182	-0.551831
O12	O	2.234332	0.204818	-0.051831
O13	O	1.558359	-0.381527	-0.246903
O14	O	2.058359	0.118473	0.253097
O15	O	1.442282	-0.181331	-0.430071
O16	O	1.942282	0.318669	0.069929
O17	O	1.728725	-0.381492	-0.417239
O18	O	2.228725	0.118508	0.082761
O19	O	1.571366	-0.181304	-0.559131
O20	O	2.071366	0.318696	-0.059131
O21	O	1.434882	-0.295244	-0.252434
O22	O	1.934882	0.204756	0.247566
O23	O	1.264606	-0.295191	-0.422747
O24	O	1.764606	0.204809	0.077253
O25	O	1.429434	-0.381398	-0.716596
O26	O	1.929434	0.118602	-0.216596
O27	O	1.259068	-0.381433	-0.546260
O28	O	1.759068	0.118567	-0.046260
O29	O	1.564056	-0.295128	-0.722144
O30	O	2.064056	0.204872	-0.222144
O31	O	1.551049	-0.495351	-0.409916
O32	O	2.051049	0.004649	0.090084
O33	O	1.422034	-0.495311	-0.538959
O34	O	1.922034	0.004689	-0.038959
C35	C	1.223716	-0.338311	-0.484502
C36	C	1.723716	0.161689	0.015498
C37	C	1.106939	-0.338322	-0.484518
C38	C	1.606939	0.161678	0.015482
C39	C	1.484923	-0.520817	-0.472824
C40	C	1.984923	-0.020817	0.027176
C41	C	1.479989	-0.598888	-0.467856
C42	C	1.979989	-0.098888	0.032144
C43	C	0.945208	-0.293369	-0.420340
C44	C	1.445208	0.206631	0.079660
C45	C	1.054933	-0.293356	-0.420328
C46	C	1.554933	0.206644	0.079672
C47	C	1.049214	-0.383299	-0.548731
C48	C	1.549214	0.116701	-0.048731
C49	C	0.939492	-0.383308	-0.548747
C50	C	1.439492	0.116692	-0.048747
C51	C	0.948510	-0.241444	-0.346204
C52	C	1.448510	0.258556	0.153796
C53	C	1.058235	-0.241430	-0.346192
C54	C	1.558235	0.258570	0.153808
C55	C	1.544828	-0.635491	-0.532772
C56	C	2.044828	-0.135491	-0.032772
C57	C	1.540187	-0.708847	-0.528105
C58	C	2.040187	-0.208847	-0.028105
C59	C	1.470712	-0.745598	-0.458517
C60	C	1.970712	-0.245598	0.041483
C61	C	1.405866	-0.708990	-0.393599
C62	C	1.905866	-0.208990	0.106401
C63	C	1.410502	-0.635635	-0.398271
C64	C	1.910502	-0.135635	0.101729
C65	C	1.453349	-0.967085	-0.441050
C66	C	1.953349	-0.467085	0.058950
C67	C	1.448720	-1.040445	-0.436381
C68	C	1.948720	-0.540445	0.063619
C69	C	1.583040	-1.040297	-0.570889
C70	C	2.083040	-0.540297	-0.070889
C71	C	1.587675	-0.966941	-0.575551
C72	C	2.087675	-0.466941	-0.075551
C73	C	1.522825	-0.930339	-0.510636
C74	C	2.022825	-0.430339	-0.010636
C75	C	1.465969	-0.820580	-0.453744
C76	C	1.965969	-0.320580	0.046256
C77	C	1.527563	-0.855359	-0.515416
C78	C	2.027563	-0.355359	-0.015416
C79	C	1.770715	-0.338339	-0.484538
C80	C	2.270715	0.161661	0.015462
C81	C	1.887491	-0.338345	-0.484546
C82	C	2.387491	0.161655	0.015454
C83	C	1.496755	-0.338253	-0.758557
C84	C	1.996755	0.161747	-0.258557
C85	C	1.496786	-0.338222	-0.875336
C86	C	1.996786	0.161778	-0.375336
C87	C	1.508516	-0.155120	-0.496283
C88	C	2.008516	0.344880	0.003717
C89	C	1.513559	-0.077049	-0.501296
C90	C	2.013559	0.422951	-0.001296
C91	C	1.432521	-0.293287	-0.933085
C92	C	1.932521	0.206713	-0.433085
C93	C	1.432554	-0.293266	-1.042810
C94	C	1.932554	0.206734	-0.542810
C95	C	1.561127	-0.383118	-1.037028
C96	C	2.061127	0.116882	-0.537028
C97	C	1.561088	-0.383142	-0.927305
C98	C	2.061088	0.116858	-0.427305
C99	C	1.358294	-0.241409	-0.936424
C100	C	1.858294	0.258591	-0.436424
C101	C	1.358327	-0.241388	-1.046149
C102	C	1.858327	0.258612	-0.546149
C103	C	1.496674	-0.338345	-0.211551
C104	C	1.996674	0.161655	0.288449
C105	C	1.496859	-0.338178	-0.094785
C106	C	1.996859	0.161822	0.405215
H107	H	0.892503	-0.419926	-0.601039
H108	H	1.392503	0.080074	-0.101039
H109	H	1.592994	-0.738646	-0.580958
H110	H	2.092994	-0.238646	-0.080958
H111	H	1.091567	-0.419906	-0.601003
H112	H	1.591567	0.080094	-0.101003
C113	C	0.900792	-0.267684	-0.240043
C114	C	1.400792	0.232316	0.259957
N115	N	0.864851	-0.287447	-0.160081
N116	N	1.364851	0.212553	0.339919
H117	H	1.357703	-0.605833	-0.345412
H118	H	1.857703	-0.105833	0.154588
C119	C	0.913016	-0.167981	-0.380543
C120	C	1.413016	0.332019	0.119457
N121	N	0.886281	-0.112650	-0.406410
N122	N	1.386281	0.387350	0.093590
C123	C	1.631708	-0.432621	-1.094198
C124	C	2.131708	0.067379	-0.594198
N125	N	1.684819	-0.469942	-1.137255
N126	N	2.184819	0.030058	-0.637255
C127	C	1.372285	-1.080870	-0.359830
C128	C	1.872285	-0.580870	0.140170
N129	N	1.314717	-1.111318	-0.302174
N130	N	1.814717	-0.611318	0.197826
H131	H	1.613403	-0.419744	-0.880289
H132	H	2.113403	0.080256	-0.380289
C133	C	1.247084	-0.261093	-0.894930
C134	C	1.747084	0.238907	-0.394930
N135	N	1.163322	-0.275921	-0.863677
N136	N	1.663322	0.224079	-0.363677
C137	C	1.402157	-0.171611	-0.894930
C138	C	1.902157	0.328389	-0.394930
N139	N	1.435194	-0.119038	-0.863676
N140	N	1.935194	0.380962	-0.363676
C141	C	1.108718	-0.171642	-0.390192
C142	C	1.608718	0.328358	0.109808
N143	N	1.146742	-0.119078	-0.423333
N144	N	1.646742	0.380922	0.076667
C145	C	1.603986	-0.814931	-0.591958
C146	C	2.103986	-0.314931	-0.091958
N147	N	1.661552	-0.784473	-0.649606
N148	N	2.161552	-0.284473	-0.149606
H149	H	1.279782	-0.260859	-1.078929
H150	H	1.779782	0.239141	-0.578929
C151	C	1.392545	-0.167893	-1.091111
C152	C	1.892545	0.332107	-0.591111
N153	N	1.418321	-0.112540	-1.124975
N154	N	1.918321	0.387460	-0.624975
C155	C	1.329507	-0.749418	-0.316988
C156	C	1.829507	-0.249418	0.183012
N157	N	1.272018	-0.779869	-0.259256
N158	N	1.772018	-0.279869	0.240744
H159	H	1.409406	-0.850511	-0.397082
H160	H	1.909406	-0.350511	0.102918
C161	C	1.664122	-0.926521	-0.652084
C162	C	2.164122	-0.426521	-0.152084
N163	N	1.721712	-0.896076	-0.709720
N164	N	2.221712	-0.396076	-0.209720
H165	H	1.087044	-0.255937	-0.263853
H166	H	1.587044	0.244063	0.236147
C167	C	1.621258	-0.595071	-0.609323
C168	C	2.121258	-0.095071	-0.109323
N169	N	1.678825	-0.564629	-0.666986
N170	N	2.178825	-0.064629	-0.166986
C171	C	1.654363	-1.080566	-0.642297
C172	C	2.154363	-0.580566	-0.142297
N173	N	1.708082	-1.110896	-0.696088
N174	N	2.208082	-0.610896	-0.196088
H175	H	1.400548	-0.937290	-0.388193
H176	H	1.900548	-0.437290	0.111807
