data_functionalizedCrystal
_audit_creation_method	'MofGen! by Chris Wilmer'
_symmetry_space_group_name_H-M	'P1'
_symmetry_Int_Tables_number	1
_symmetry_cell_setting	triclinic
loop_
_symmetry_equiv_pos_as_xyz
  x,y,z
_cell_length_a	16.959455
_cell_length_b	16.959453
_cell_length_c	12.759393
_cell_angle_alpha	89.965525
_cell_angle_beta	89.978003
_cell_angle_gamma	90.022154
loop_
_atom_site_label
_atom_site_type_symbol
_atom_site_fract_x
_atom_site_fract_y
_atom_site_fract_z
Zn1	Zn	1.208426	-0.314655	-0.594021
Zn2	Zn	1.208326	-0.446855	-0.418329
Zn3	Zn	1.076238	-0.314693	-0.418353
Zn4	Zn	1.076213	-0.446794	-0.593963
O5	O	1.142301	-0.380749	-0.506166
O6	O	1.319024	-0.332201	-0.570729
O7	O	1.190772	-0.429364	-0.271311
O8	O	1.093825	-0.204077	-0.441690
O9	O	1.318950	-0.429328	-0.441649
O10	O	1.190943	-0.204049	-0.570752
O11	O	1.093728	-0.332265	-0.271328
O12	O	0.965624	-0.332207	-0.441633
O13	O	1.093783	-0.429225	-0.740991
O14	O	0.965606	-0.429261	-0.570653
O15	O	1.190920	-0.332143	-0.741034
O16	O	1.190748	-0.557457	-0.441592
O17	O	1.093686	-0.557413	-0.570630
C18	C	0.936934	-0.380732	-0.506140
C19	C	0.849078	-0.380744	-0.506154
C20	C	0.807764	-0.431241	-0.438852
C21	C	0.807839	-0.330253	-0.573464
C22	C	0.725293	-0.330259	-0.573477
C23	C	0.683978	-0.380756	-0.506175
C24	C	0.725210	-0.431247	-0.438861
C25	C	0.684055	-0.279763	-0.640782
C26	C	0.601504	-0.279767	-0.640797
C27	C	0.560188	-0.330269	-0.573499
C28	C	0.601425	-0.380762	-0.506183
C29	C	0.560111	-0.431259	-0.438882
C30	C	0.601346	-0.481757	-0.371570
C31	C	0.683894	-0.481749	-0.371563
C32	C	0.477640	-0.330278	-0.573506
C33	C	0.477557	-0.431265	-0.438890
C34	C	1.142225	-0.586116	-0.506125
C35	C	1.142265	-0.673972	-0.506143
C36	C	1.091761	-0.715329	-0.438898
C37	C	1.192802	-0.715169	-0.573410
C38	C	1.192839	-0.797715	-0.573433
C39	C	1.142335	-0.839071	-0.506189
C40	C	1.091795	-0.797882	-0.438921
C41	C	1.243373	-0.838911	-0.640707
C42	C	1.243411	-0.921462	-0.640733
C43	C	1.192911	-0.962820	-0.573483
C44	C	1.142369	-0.921625	-0.506212
C45	C	1.091866	-0.962981	-0.438967
C46	C	1.041327	-0.921788	-0.371690
C47	C	1.041295	-0.839240	-0.371670
C48	C	1.192943	-1.045368	-0.573502
C49	C	1.091899	-1.045535	-0.438990
C50	C	1.348469	-0.380767	-0.506193
C51	C	1.436325	-0.380775	-0.506204
C52	C	1.142360	-0.380673	-0.780200
C53	C	1.142385	-0.380641	-0.896976
C54	C	1.142398	-0.174581	-0.506230
C55	C	1.142440	-0.086724	-0.506258
C56	C	1.192968	-0.330082	-0.951862
C57	C	1.192981	-0.330048	-1.061586
C58	C	1.091827	-0.431138	-1.061529
C59	C	1.091810	-0.431168	-0.951807
C60	C	1.142287	-0.380768	-0.233199
C61	C	1.142415	-0.380577	-0.116423
H62	H	0.717475	-0.522860	-0.316759
C63	C	0.853117	-0.486782	-0.364812
H64	H	0.908198	-0.479546	-0.374438
H65	H	0.839574	-0.539904	-0.380065
H66	H	0.839568	-0.475148	-0.294246
H67	H	0.567937	-0.238650	-0.695607
C68	C	0.555898	-0.537301	-0.297539
H69	H	0.592275	-0.567372	-0.257445
H70	H	0.523694	-0.571771	-0.337654
H71	H	0.523695	-0.507019	-0.251831
H72	H	1.284565	-0.954994	-0.695512
H73	H	1.050652	-0.472277	-1.106186
H74	H	1.050616	-0.681787	-0.384119
C75	C	1.248352	-0.669680	-0.647372
H76	H	1.241096	-0.614617	-0.637721
H77	H	1.236763	-0.683175	-0.717953
H78	H	1.301475	-0.683173	-0.632057
H79	H	0.717699	-0.238648	-0.695572
C80	C	1.248587	-0.274496	-0.891552
H81	H	1.278708	-0.244374	-0.939959
H82	H	1.283009	-0.304741	-0.848744
H83	H	1.218352	-0.240062	-0.848758
H84	H	0.841482	-0.289137	-0.628253
H85	H	1.050614	-0.472338	-0.907118
C86	C	1.248531	-1.090677	-0.647493
H87	H	1.278606	-1.054224	-0.687535
H88	H	1.218290	-1.122880	-0.693236
H89	H	1.283008	-1.122871	-0.607348
C90	C	0.432281	-0.274737	-0.647534
H91	H	0.377201	-0.281969	-0.637897
H92	H	0.445831	-0.286356	-0.718098
H93	H	0.445819	-0.221612	-0.632262
C94	C	0.432117	-0.486813	-0.364855
H95	H	0.468500	-0.516880	-0.324765
H96	H	0.399914	-0.521287	-0.404967
H97	H	0.399913	-0.456535	-0.319143
C98	C	1.036345	-1.091025	-0.365023
H99	H	1.043603	-1.146088	-0.374666
H100	H	0.983224	-1.077525	-0.380322
H101	H	1.047946	-1.077532	-0.294439
C102	C	0.985776	-0.967286	-0.297726
H103	H	0.993039	-1.022347	-0.307378
H104	H	0.932654	-0.953790	-0.313022
H105	H	0.997377	-0.953799	-0.227141
C106	C	1.248626	-0.274437	-1.121957
H107	H	1.278746	-0.244356	-1.073583
H108	H	1.218417	-0.239980	-1.164763
H109	H	1.283058	-0.304673	-1.164757
H110	H	1.284488	-0.805236	-0.695461
C111	C	0.985703	-0.793927	-0.297683
H112	H	0.992910	-0.738841	-0.307312
H113	H	0.997303	-0.807484	-0.227109
H114	H	0.932591	-0.807490	-0.313004
