data_functionalizedCrystal
_audit_creation_method	'MofGen! by Chris Wilmer'
_symmetry_space_group_name_H-M	'P1'
_symmetry_Int_Tables_number	1
_symmetry_cell_setting	triclinic
loop_
_symmetry_equiv_pos_as_xyz
  x,y,z
_cell_length_a	14.560438
_cell_length_b	14.560438
_cell_length_c	14.560438
_cell_angle_alpha	60.000905
_cell_angle_beta	90.002385
_cell_angle_gamma	60.001166
loop_
_atom_site_label
_atom_site_type_symbol
_atom_site_fract_x
_atom_site_fract_y
_atom_site_fract_z
Zr1	Zr	0.884751	1.005292	-0.120493
O2	O	0.738102	1.196893	-0.267140
O3	O	0.929707	0.813691	-0.075540
O4	O	0.929703	1.005295	-0.267141
O5	O	0.738110	1.005286	0.075601
O6	O	1.080841	1.005298	-0.267138
O7	O	0.738106	1.005289	-0.075540
O8	O	1.080849	0.662553	0.075600
O9	O	0.738102	1.348031	-0.267138
O10	O	1.061673	0.892501	-0.056364
O11	O	0.948883	0.892497	0.056429
O12	O	0.948878	1.118086	-0.169156
O13	O	0.836088	1.118083	-0.056363
Zr14	Zr	1.125806	1.005292	0.120563
Zr15	Zr	1.125800	1.005296	-0.120489
Zr16	Zr	0.884758	1.005288	0.120559
Zr17	Zr	0.884752	1.246340	-0.120488
Zr18	Zr	1.125805	0.764244	0.120559
O19	O	1.080850	1.196893	0.075610
O20	O	1.080841	1.196898	-0.267135
O21	O	0.738111	1.196887	0.075605
O22	O	1.272455	0.813691	0.267210
O23	O	1.272446	0.813697	-0.075535
O24	O	0.929716	0.813685	0.267205
O25	O	1.272447	1.005298	-0.075531
O26	O	1.080854	1.005289	0.267211
O27	O	0.929716	1.005286	0.267209
O28	O	1.272451	1.005295	0.075610
O29	O	0.929703	1.348034	-0.267134
O30	O	1.080854	0.662550	0.267205
O31	O	1.272455	0.662553	0.267208
O32	O	1.272450	0.662557	0.075603
O33	O	0.738107	1.348027	-0.075533
O34	O	0.929708	1.348031	-0.075530
O35	O	1.061679	0.892498	0.169226
O36	O	1.174469	0.892501	0.056433
O37	O	1.061674	1.118086	-0.056359
O38	O	0.948884	1.118083	0.056434
C39	C	1.005278	0.703778	0.000029
C40	C	1.005278	0.601447	0.000027
C41	C	1.064151	0.553373	-0.058849
C42	C	1.064155	0.457214	-0.058839
C43	C	0.946405	0.457215	0.058927
C44	C	0.946408	0.553366	0.058922
C45	C	0.703764	1.005287	0.000030
C46	C	0.601433	1.005285	0.000029
C47	C	0.612232	0.887534	0.058905
C48	C	0.516077	0.887540	0.058915
C49	C	0.398327	1.123059	-0.058836
C50	C	0.494481	1.123051	-0.058839
C51	C	0.719185	0.769768	0.117772
C52	C	0.729989	0.652007	0.176652
C53	C	0.633834	0.652014	0.176662
C54	C	0.526875	0.769780	0.117793
C55	C	1.306793	1.005297	0.000040
C56	C	1.409124	1.005299	0.000042
C57	C	1.005271	1.005297	-0.301484
C58	C	1.005268	1.005299	-0.403817
C59	C	1.005279	1.306806	0.000041
C60	C	1.005279	1.409137	0.000043
C61	C	0.946392	1.123050	-0.510770
C62	C	0.946405	1.123044	-0.606919
C63	C	1.064173	0.887525	-0.489149
C64	C	1.064166	0.887533	-0.393002
C65	C	1.005286	1.005287	0.301555
C66	C	1.005289	1.005285	0.403887
C67	C	1.306792	0.703783	0.000034
C68	C	1.409123	0.601454	0.000034
C69	C	1.005286	0.703773	0.301549
C70	C	1.005288	0.601440	0.403880
C71	C	1.306800	0.703778	0.301554
C72	C	1.409134	0.601447	0.403886
C73	C	0.703757	1.306806	-0.301484
C74	C	0.601424	1.409137	-0.403816
C75	C	0.703765	1.306801	0.000036
C76	C	0.601434	1.409130	0.000036
C77	C	1.005272	1.306811	-0.301479
C78	C	1.005269	1.409144	-0.403810
C79	C	1.398323	0.553377	-0.058842
C80	C	1.494478	0.457236	-0.058846
C81	C	1.612229	0.457253	0.058911
C82	C	1.516076	0.553399	0.058908
C83	C	1.064166	0.553362	0.510834
C84	C	1.064156	0.457219	0.606981
C85	C	0.946387	0.457236	0.489206
C86	C	0.946392	0.553384	0.393062
C87	C	1.516085	0.553372	0.393089
C88	C	1.612235	0.457229	0.489245
C89	C	1.494467	0.457243	0.606993
C90	C	1.398320	0.553390	0.510838
H91	H	1.112088	0.592517	-0.106803
N92	N	0.423151	0.769815	0.117768
H93	H	0.376871	0.816055	0.151269
H94	H	0.446293	0.677323	0.163974
N95	N	1.127675	0.760514	-0.477491
H96	H	1.164974	0.685920	-0.395145
H97	H	1.186869	0.755380	-0.514816
H98	H	1.112099	0.418080	0.694064
N99	N	0.845347	0.525001	0.240140
H100	H	0.854339	0.473525	0.209254
H101	H	0.854297	0.473617	0.322496
H102	H	1.112116	0.791640	-0.305910
N103	N	0.882889	1.250049	-0.722274
H104	H	0.891830	1.232180	-0.781544
H105	H	0.913794	1.301481	-0.731178
N106	N	0.882808	0.605325	0.277693
H107	H	0.845480	0.560311	0.285427
H108	H	0.936811	0.588646	0.235171
H109	H	0.898438	0.418095	0.480412
N110	N	1.282969	0.605211	-0.122340
H111	H	1.290722	0.560164	-0.159639
H112	H	1.240505	0.701731	-0.181533
N113	N	1.127688	0.605191	0.522507
H114	H	1.096804	0.645081	0.564982
H115	H	1.118746	0.673342	0.445337
H116	H	1.485675	0.418097	-0.106791
H117	H	1.112096	0.418073	-0.106780
N118	N	0.282973	1.250071	-0.122326
H119	H	0.223699	1.232207	-0.113391
H120	H	0.274060	1.301498	-0.204666
H121	H	0.898465	0.592507	0.106872
N122	N	1.527743	0.605190	0.277735
H123	H	1.610089	0.560137	0.285490
H124	H	1.490417	0.701711	0.235255
N125	N	1.727583	0.405422	0.122408
H126	H	1.786859	0.337216	0.113480
H127	H	1.736488	0.365605	0.204746
H128	H	1.699317	0.418090	0.480446
H129	H	0.485684	1.218934	-0.106760
N130	N	1.482806	0.405407	0.722346
H131	H	1.559943	0.337199	0.781623
H132	H	1.440286	0.365590	0.731246
H133	H	0.642636	0.556128	0.224614
N134	N	1.527727	0.605269	0.122403
H135	H	1.490457	0.701784	0.068385
H136	H	1.610093	0.560139	0.159694
H137	H	0.797485	0.769750	0.117769
H138	H	0.898434	1.218943	-0.519582
N139	N	0.882911	0.405356	0.122446
H140	H	0.891840	0.337151	0.113514
H141	H	0.800573	0.478788	0.091534
N142	N	1.282954	0.605258	0.522479
H143	H	1.290691	0.560219	0.604821
H144	H	1.240495	0.588526	0.485146
