data_functionalizedCrystal
_audit_creation_method	'MofGen! by Chris Wilmer'
_symmetry_space_group_name_H-M	'P1'
_symmetry_Int_Tables_number	1
_symmetry_cell_setting	triclinic
loop_
_symmetry_equiv_pos_as_xyz
  x,y,z
_cell_length_a	15.944551
_cell_length_b	17.038272
_cell_length_c	15.021413
_cell_angle_alpha	90.004029
_cell_angle_beta	89.997174
_cell_angle_gamma	87.305147
loop_
_atom_site_label
_atom_site_type_symbol
_atom_site_fract_x
_atom_site_fract_y
_atom_site_fract_z
O1	O	1.121728	0.100827	-0.073940
O2	O	0.878066	0.113259	-0.073962
O3	O	0.998449	-0.006773	-0.073944
O4	O	1.001345	0.220859	-0.073958
O5	O	0.998429	-0.006755	0.074120
O6	O	0.878046	0.113277	0.074102
O7	O	1.121708	0.100844	0.074125
Zn8	Zn	0.999874	0.107063	0.097622
Zn9	Zn	0.999900	0.107041	-0.097459
O10	O	1.001326	0.220876	0.074107
C11	C	0.846725	0.112752	0.000067
C12	C	0.753369	0.111205	0.000059
C13	C	0.532936	0.033105	0.000081
C14	C	0.474515	0.069363	-0.072924
C15	C	0.582443	0.108405	0.000070
C16	C	0.474519	0.069398	0.073055
C17	C	0.417337	0.105696	0.000084
C18	C	0.525252	0.144684	-0.072996
C19	C	0.525262	0.144709	0.073049
C20	C	0.466862	0.181022	0.000026
C21	C	0.677557	0.109964	0.000061
C22	C	0.322225	0.104143	0.000087
C23	C	0.995805	-0.035893	0.000088
C24	C	0.987945	-0.122688	0.000087
C25	C	1.060103	-0.172781	0.000094
C26	C	1.052713	-0.254334	0.000085
C27	C	0.973165	-0.285792	0.000075
C28	C	0.901002	-0.235693	0.000065
C29	C	0.908393	-0.154142	0.000068
C30	C	0.947056	-0.531558	0.000061
C31	C	0.939671	-0.613115	0.000060
C32	C	1.091383	-0.631751	0.000079
C33	C	1.098766	-0.550197	0.000087
C34	C	1.026603	-0.500105	0.000072
C35	C	0.965610	-0.369152	0.000069
C36	C	1.034159	-0.416747	0.000073
C37	C	1.153049	0.101352	0.000093
C38	C	1.246405	0.102899	0.000096
C39	C	1.003969	0.249997	0.000073
C40	C	1.011829	0.336792	0.000068
N41	N	0.999863	0.107078	0.230759
N42	N	0.999917	0.107019	-0.230597
C43	C	0.944187	0.162555	0.470434
C44	C	1.021171	0.177734	0.529775
C45	C	0.999883	0.107059	0.412366
C46	C	0.922921	0.091897	0.529768
C47	C	0.999896	0.107041	0.587790
C48	C	1.076908	0.122273	0.470400
C49	C	0.978606	0.036405	0.470388
C50	C	1.055643	0.051554	0.529702
C51	C	0.999875	0.107070	0.311309
C52	C	0.999913	0.107029	0.688846
H53	H	0.561807	-0.029389	-0.000005
C54	C	0.814581	-0.269736	0.000190
C55	C	0.770594	-0.244253	0.076347
C56	C	0.690974	-0.275586	0.076488
H57	H	0.820390	-0.325477	0.000237
H58	H	0.784590	-0.252521	-0.051421
H59	H	0.800577	-0.261472	0.127945
H60	H	0.764762	-0.188516	0.076317
H61	H	0.660984	-0.258371	0.024877
H62	H	0.696793	-0.331325	0.076533
H63	H	0.661117	-0.258294	0.128156
H64	H	0.857830	0.079081	0.555848
H65	H	1.039179	0.237476	0.555860
H66	H	0.849634	-0.113356	0.000061
C67	C	0.444726	0.026743	-0.155140
C68	C	0.478350	-0.050663	-0.154791
C69	C	0.450922	-0.089956	-0.230503
H70	H	0.462874	0.052886	-0.207048
H71	H	0.385158	0.026441	-0.154817
H72	H	0.537905	-0.050357	-0.155122
H73	H	0.460205	-0.076827	-0.102899
H74	H	0.391354	-0.090257	-0.230180
H75	H	0.469072	-0.063806	-0.282406
H76	H	0.473725	-0.142481	-0.230272
C77	C	0.555104	0.187046	-0.155357
C78	C	0.642861	0.187952	-0.154433
C79	C	0.670393	0.226956	-0.230293
H80	H	0.532001	0.239460	-0.155648
H81	H	0.537364	0.160464	-0.207157
H82	H	0.660592	0.214536	-0.102646
H83	H	0.665985	0.135550	-0.154154
H84	H	0.652653	0.200374	-0.282093
H85	H	0.647284	0.279367	-0.230578
H86	H	0.729938	0.227570	-0.229681
C87	C	0.428434	0.264373	0.000015
C88	C	0.340777	0.262040	0.000764
C89	C	0.305348	0.338805	0.000762
H90	H	0.445757	0.291063	-0.051867
H91	H	0.446530	0.291338	0.051403
H92	H	0.322689	0.235086	-0.050618
H93	H	0.323431	0.235365	0.052643
H94	H	0.323444	0.365770	0.052149
H95	H	0.322677	0.365488	-0.051121
H96	H	0.245870	0.337232	0.001278
C97	C	1.146451	-0.138587	0.000288
C98	C	1.155128	-0.092326	0.076476
C99	C	1.234666	-0.060826	0.076686
H100	H	1.152581	-0.107110	-0.051284
H101	H	1.188391	-0.180083	0.000336
H102	H	1.113200	-0.050836	0.076419
H103	H	1.149014	-0.123785	0.128060
H104	H	1.276607	-0.102322	0.076735
H105	H	1.240790	-0.029353	0.025112
H106	H	1.240568	-0.029441	0.128383
C107	C	1.163664	0.139663	0.435762
C108	C	1.158352	0.208039	0.383977
C109	C	1.238251	0.224113	0.352074
H110	H	1.184755	0.096903	0.400441
H111	H	1.200373	0.146961	0.484576
H112	H	1.121655	0.200736	0.335169
H113	H	1.137275	0.250813	0.419278
H114	H	1.274961	0.231410	0.400889
H115	H	1.259336	0.181348	0.316758
H116	H	1.234659	0.270510	0.316942
H117	H	1.111472	-0.295117	0.000093
H118	H	1.150134	-0.672544	0.000090
H119	H	0.547657	0.176539	0.134769
H120	H	0.874891	-0.638725	0.000067
C121	C	1.120471	-0.382487	-0.000054
C122	C	1.129147	-0.336200	-0.076217
C123	C	1.208641	-0.304611	-0.076355
H124	H	1.162472	-0.423915	-0.000093
H125	H	1.126502	-0.351012	0.051554
H126	H	1.123123	-0.367673	-0.127811
H127	H	1.087165	-0.294759	-0.076194
H128	H	1.214672	-0.273136	-0.024747
H129	H	1.250635	-0.346045	-0.076391
H130	H	1.214535	-0.273196	-0.128025
C131	C	0.444814	0.026803	0.155321
C132	C	0.478479	-0.050589	0.154979
C133	C	0.451144	-0.089853	0.230748
H134	H	0.385258	0.026459	0.155090
H135	H	0.463007	0.053006	0.207187
H136	H	0.460281	-0.076785	0.103127
H137	H	0.538032	-0.050268	0.155224
H138	H	0.469337	-0.063650	0.282613
H139	H	0.391588	-0.090192	0.230510
H140	H	0.473987	-0.142365	0.230530
C141	C	0.868610	-0.477309	0.000104
C142	C	0.797367	-0.522318	0.000124
C143	C	0.725083	-0.472367	0.000180
H144	H	0.868220	-0.445092	-0.051514
H145	H	0.868287	-0.445119	0.051759
H146	H	0.797689	-0.554495	-0.051526
H147	H	0.797728	-0.554533	0.051738
H148	H	0.724761	-0.440177	0.051835
H149	H	0.724703	-0.440153	-0.051439
H150	H	0.676737	-0.502898	0.000202
C151	C	1.118656	-0.010940	0.564144
C152	C	1.199079	0.005297	0.533917
C153	C	1.257151	-0.052245	0.565639
H154	H	1.104116	-0.061032	0.542930
H155	H	1.118044	-0.010886	0.627387
H156	H	1.199689	0.005234	0.470687
H157	H	1.213646	0.055379	0.555128
H158	H	1.256540	-0.052191	0.628883
H159	H	1.242603	-0.102333	0.544424
H160	H	1.311726	-0.041232	0.545142
H161	H	1.163543	-0.524590	0.000096
C162	C	0.954395	-0.043192	0.435618
C163	C	0.873715	-0.058750	0.465627
C164	C	0.851370	-0.132062	0.433603
H165	H	0.993323	-0.082799	0.456772
H166	H	0.955024	-0.042756	0.372377
H167	H	0.873092	-0.059192	0.528855
H168	H	0.834769	-0.019162	0.444475
H169	H	0.851999	-0.131626	0.370362
H170	H	0.890303	-0.171662	0.454759
H171	H	0.796624	-0.142624	0.453953
H172	H	0.900842	-0.394774	0.000062
H173	H	0.897140	0.209524	0.444412
