data_functionalizedCrystal
_audit_creation_method	'MofGen! by Chris Wilmer'
_symmetry_space_group_name_H-M	'P1'
_symmetry_Int_Tables_number	1
_symmetry_cell_setting	triclinic
loop_
_symmetry_equiv_pos_as_xyz
  x,y,z
_cell_length_a	21.295419
_cell_length_b	21.295417
_cell_length_c	11.169409
_cell_angle_alpha	89.958601
_cell_angle_beta	89.976836
_cell_angle_gamma	90.045308
loop_
_atom_site_label
_atom_site_type_symbol
_atom_site_fract_x
_atom_site_fract_y
_atom_site_fract_z
Zn1	Zn	0.962347	-0.250310	-0.678574
Zn2	Zn	1.462347	0.249690	-0.178574
Zn3	Zn	0.962252	-0.355598	-0.477860
Zn4	Zn	1.462252	0.144402	0.022140
Zn5	Zn	0.857073	-0.250374	-0.477897
Zn6	Zn	1.357073	0.249626	0.022103
Zn7	Zn	0.857040	-0.355572	-0.678493
Zn8	Zn	1.357040	0.144428	-0.178493
O9	O	0.909678	-0.302963	-0.578206
O10	O	1.409678	0.197037	-0.078206
O11	O	1.050424	-0.264260	-0.651968
O12	O	1.550424	0.235740	-0.151968
O13	O	0.948274	-0.341677	-0.309915
O14	O	1.448274	0.158323	0.190085
O15	O	0.871091	-0.162276	-0.504567
O16	O	1.371091	0.337724	-0.004567
O17	O	1.050354	-0.341615	-0.504503
O18	O	1.550354	0.158385	-0.004503
O19	O	0.948436	-0.162229	-0.652004
O20	O	1.448436	0.337771	-0.152004
O21	O	0.870999	-0.264369	-0.309942
O22	O	1.370999	0.235631	0.190058
O23	O	0.768979	-0.264344	-0.504488
O24	O	1.268979	0.235656	-0.004488
O25	O	0.871035	-0.341571	-0.846453
O26	O	1.371035	0.158429	-0.346453
O27	O	0.768955	-0.341633	-0.651865
O28	O	1.268955	0.158367	-0.151865
O29	O	0.948404	-0.264235	-0.846513
O30	O	1.448404	0.235765	-0.346513
O31	O	0.948242	-0.443684	-0.504424
O32	O	1.448242	0.056316	-0.004424
O33	O	0.870943	-0.443665	-0.651828
O34	O	1.370943	0.056335	-0.151828
C35	C	0.746126	-0.302993	-0.578172
C36	C	1.246126	0.197007	-0.078172
C37	C	0.676158	-0.303022	-0.578186
C38	C	1.176158	0.196978	-0.078186
C39	C	0.643350	-0.262809	-0.655090
C40	C	1.143350	0.237191	-0.155090
C41	C	0.577608	-0.262792	-0.655094
C42	C	1.077608	0.237208	-0.155094
C43	C	0.544676	-0.302999	-0.578208
C44	C	1.044676	0.197001	-0.078208
C45	C	0.577491	-0.343215	-0.501290
C46	C	1.077491	0.156785	-0.001290
C47	C	0.643233	-0.343226	-0.501279
C48	C	1.143233	0.156774	-0.001279
N49	N	0.441400	-0.358078	-0.568828
N50	N	0.941400	0.141922	-0.068828
N51	N	0.378949	-0.358065	-0.568846
N52	N	0.878949	0.141935	-0.068846
C53	C	0.346601	-0.302966	-0.578235
C54	C	0.846601	0.197034	-0.078235
N55	N	0.379064	-0.247879	-0.587629
N56	N	0.879064	0.252121	-0.087629
N57	N	0.441521	-0.247892	-0.587618
N58	N	0.941521	0.252108	-0.087618
C59	C	0.473390	-0.302991	-0.578211
C60	C	0.973390	0.197009	-0.078211
C61	C	0.242508	-0.262732	-0.655147
C62	C	0.742508	0.237268	-0.155147
C63	C	0.176764	-0.262714	-0.655143
C64	C	0.676764	0.237286	-0.155143
C65	C	0.176649	-0.343142	-0.501345
C66	C	0.676649	0.156858	-0.001345
C67	C	0.242391	-0.343155	-0.501343
C68	C	0.742391	0.156845	-0.001343
C69	C	0.275317	-0.302950	-0.578250
C70	C	0.775317	0.197050	-0.078250
C71	C	0.909595	-0.466515	-0.578139
C72	C	1.409595	0.033485	-0.078139
C73	C	0.909618	-0.536483	-0.578151
C74	C	1.409618	-0.036483	-0.078151
C75	C	0.949903	-0.569339	-0.501476
C76	C	1.449903	-0.069339	-0.001476
C77	C	0.949933	-0.635081	-0.501503
C78	C	1.449933	-0.135081	-0.001503
C79	C	0.909665	-0.667965	-0.578193
C80	C	1.409665	-0.167965	-0.078193
C81	C	0.869377	-0.635102	-0.654882
C82	C	1.369377	-0.135102	-0.154882
C83	C	0.869353	-0.569361	-0.654862
C84	C	1.369353	-0.069361	-0.154862
N85	N	0.854598	-0.771245	-0.587331
N86	N	1.354598	-0.271245	-0.087331
N87	N	0.854623	-0.833696	-0.587343
N88	N	1.354623	-0.333696	-0.087343
C89	C	0.909736	-0.866040	-0.578261
C90	C	1.409736	-0.366040	-0.078261
N91	N	0.964825	-0.833574	-0.569143
N92	N	1.464825	-0.333574	-0.069143
N93	N	0.964800	-0.771116	-0.569124
N94	N	1.464800	-0.271116	-0.069124
C95	C	0.909687	-0.739251	-0.578224
C96	C	1.409687	-0.239251	-0.078224
C97	C	0.950057	-0.970181	-0.501612
C98	C	1.450057	-0.470181	-0.001612
C99	C	0.950087	-1.035925	-0.501647
C100	C	1.450087	-0.535925	-0.001647
C101	C	0.869526	-1.035945	-0.655020
C102	C	1.369526	-0.535945	-0.155020
C103	C	0.869501	-0.970202	-0.654991
C104	C	1.369501	-0.470202	-0.154991
C105	C	0.909766	-0.937324	-0.578280
C106	C	1.409766	-0.437324	-0.078280
C107	C	1.073868	-0.302933	-0.578240
C108	C	1.573868	0.197067	-0.078240
C109	C	1.143836	-0.302921	-0.578255
C110	C	1.643836	0.197079	-0.078255
C111	C	0.909726	-0.302893	-0.891249
C112	C	1.409726	0.197107	-0.391249
C113	C	0.909747	-0.302864	-1.024649
C114	C	1.409747	0.197136	-0.524649
C115	C	0.909778	-0.138773	-0.578299
C116	C	1.409778	0.361227	-0.078299
C117	C	0.909820	-0.068805	-0.578339
C118	C	1.409820	0.431195	-0.078339
C119	C	0.909666	-0.302987	-0.266381
C120	C	1.409666	0.197013	0.233619
C121	C	0.909767	-0.302840	-0.132982
C122	C	1.409767	0.197160	0.367018
H123	H	0.670154	-0.230071	-0.717713
H124	H	1.170154	0.269929	-0.217713
H125	H	0.836743	-1.062718	-0.717467
H126	H	1.336743	-0.562718	-0.217467
F127	F	0.678150	-0.386026	-0.419421
F128	F	1.178150	0.113974	0.080579
F129	F	0.992908	-0.935188	-0.419970
F130	F	1.492908	-0.435188	0.080030
F131	F	0.542684	-0.219989	-0.736947
F132	F	1.042684	0.280011	-0.236947
F133	F	0.542442	-0.386004	-0.419458
F134	F	1.042442	0.113996	0.080542
F135	F	0.992971	-1.070892	-0.420043
F136	F	1.492971	-0.570892	0.079957
F137	F	0.826621	-0.935233	-0.736595
F138	F	1.326621	-0.435233	-0.236595
F139	F	0.277552	-0.219940	-0.736990
F140	F	0.777552	0.280060	-0.236990
F141	F	0.141604	-0.385930	-0.419509
F142	F	0.641604	0.114070	0.080491
H143	H	0.150053	-0.229964	-0.717765
H144	H	0.650053	0.270036	-0.217765
F145	F	0.277309	-0.385953	-0.419487
F146	F	0.777309	0.114047	0.080513
H147	H	0.982740	-0.661837	-0.439066
H148	H	1.482740	-0.161837	0.060934
F149	F	0.992763	-0.534351	-0.419847
F150	F	1.492763	-0.034351	0.080153
H151	H	0.836593	-0.661881	-0.717325
H152	H	1.336593	-0.161881	-0.217325
H153	H	0.836548	-0.542609	-0.717301
H154	H	1.336548	-0.042609	-0.217301
