data_functionalizedCrystal
_audit_creation_method	'MofGen! by Chris Wilmer'
_symmetry_space_group_name_H-M	'P1'
_symmetry_Int_Tables_number	1
_symmetry_cell_setting	triclinic
loop_
_symmetry_equiv_pos_as_xyz
  x,y,z
_cell_length_a	23.532407
_cell_length_b	14.519709
_cell_length_c	22.610064
_cell_angle_alpha	89.990330
_cell_angle_beta	89.990850
_cell_angle_gamma	83.264412
loop_
_atom_site_label
_atom_site_type_symbol
_atom_site_fract_x
_atom_site_fract_y
_atom_site_fract_z
O1	O	0.074652	1.222999	-0.049114
O2	O	0.083443	0.954418	-0.049133
O3	O	-0.003848	1.096807	-0.049112
O4	O	0.161942	1.080609	-0.049135
O5	O	-0.003848	1.096766	0.049257
O6	O	0.083443	0.954376	0.049236
O7	O	0.074651	1.222957	0.049255
Zn8	Zn	0.079047	1.088660	0.064864
Zn9	Zn	0.079047	1.088715	-0.064742
O10	O	0.161942	1.080568	0.049235
C11	C	0.083033	0.920042	0.000050
C12	C	0.081805	0.817676	0.000043
C13	C	-0.025066	1.096374	0.000074
C14	C	-0.088288	1.095134	0.000079
C15	C	0.077286	0.442833	0.000070
C16	C	0.078541	0.547126	0.000063
C17	C	0.079545	0.630251	0.000056
C18	C	0.080801	0.734551	0.000049
C19	C	-0.487046	1.171619	0.000052
C20	C	-0.546452	1.170467	0.000047
O21	O	-0.582876	1.241369	0.000030
N22	N	-0.569460	1.085816	0.000042
C23	C	-0.533059	1.002312	0.000035
O24	O	-0.558084	0.930205	0.000029
C25	C	-0.473655	1.003465	0.000035
C26	C	-0.450650	1.088121	0.000046
C27	C	-0.464041	1.256268	0.000062
C28	C	-0.404640	1.257420	0.000068
C29	C	-0.368244	1.173922	0.000063
C30	C	-0.391249	1.089273	0.000052
C31	C	-0.437255	0.919962	0.000024
C32	C	-0.377847	0.921123	0.000024
C33	C	-0.354843	1.005779	0.000035
C34	C	-0.295451	1.006927	0.000053
N35	N	-0.272443	1.091578	0.000058
C36	C	-0.308839	1.175075	0.000063
C37	C	-0.657813	0.999897	0.000033
C38	C	-0.717216	0.998743	0.000037
C39	C	-0.730604	1.166898	0.000048
C40	C	-0.671200	1.168051	0.000048
C41	C	-0.634804	1.084548	0.000038
C42	C	-0.184092	1.177487	0.000076
C43	C	-0.124685	1.178632	0.000084
C44	C	-0.111301	1.010477	0.000069
C45	C	-0.170703	1.009332	0.000064
C46	C	-0.207098	1.092845	0.000066
O47	O	-0.258992	0.936062	0.000067
O48	O	-0.283806	1.247171	0.000061
C49	C	0.183160	1.081001	0.000047
C50	C	0.246383	1.082241	0.000039
C51	C	0.075061	1.257333	0.000072
C52	C	0.076289	1.359700	0.000074
N53	N	0.079047	1.088630	0.153317
N54	N	0.079043	1.088753	-0.153194
C55	C	0.113659	1.144329	0.561957
C56	C	0.113657	1.144341	0.623877
O57	O	0.143082	1.191661	0.655895
N58	N	0.079041	1.088733	0.654854
C59	C	0.044419	1.033117	0.623907
O60	O	0.014975	0.985820	0.655941
C61	C	0.044418	1.033111	0.561988
C62	C	0.079041	1.088715	0.531015
C63	C	0.148279	1.199930	0.530984
C64	C	0.148281	1.199916	0.469068
C65	C	0.113663	1.144303	0.438126
C66	C	0.079043	1.088702	0.469099
C67	C	0.009794	0.977500	0.531043
C68	C	0.009795	0.977500	0.469120
C69	C	0.044418	1.033104	0.438147
C70	C	0.044427	1.033075	0.376242
N71	N	0.079044	1.088683	0.345265
C72	C	0.113662	1.144297	0.376207
C73	C	0.044424	1.033135	0.753941
C74	C	0.044428	1.033135	0.815858
C75	C	0.113665	1.144360	0.815824
C76	C	0.113664	1.144354	0.753905
C77	C	0.079040	1.088743	0.722964
C78	C	0.113664	1.144264	0.246180
C79	C	0.113664	1.144243	0.184259
C80	C	0.044425	1.033022	0.184299
C81	C	0.044426	1.033039	0.246214
C82	C	0.079047	1.088668	0.277153
O83	O	0.015016	0.985781	0.344184
O84	O	0.143096	1.191595	0.344166
H85	H	-0.105958	1.247571	0.000095
H86	H	-0.081657	0.942496	0.000067
Br87	Br	-0.002564	0.957644	0.711956
H88	H	-0.628182	0.931894	0.000030
Br89	Br	-0.639986	1.282945	0.000065
Br90	Br	0.160645	1.219840	0.857829
H91	H	0.141861	1.189523	0.159043
H92	H	0.176469	1.245222	0.556170
H93	H	0.141855	1.189563	0.271363
H94	H	-0.213718	1.245491	0.000074
Br95	Br	0.160652	1.219823	0.711876
Br96	Br	-0.002552	0.957651	0.857886
Br97	Br	0.195283	1.275366	0.427042
Br98	Br	-0.002552	0.957547	0.142294
H99	H	-0.455975	0.851027	0.000011
H100	H	-0.385915	1.326355	0.000075
H101	H	-0.018401	0.932213	0.443931
H102	H	-0.348216	0.853122	0.000015
Br103	Br	-0.037197	0.902030	0.573063
Br104	Br	-0.002556	0.957565	0.288251
H105	H	-0.189434	0.940399	0.000071
Br106	Br	-0.513426	1.369602	0.000069
H107	H	-0.735940	0.929808	0.000038
Br108	Br	-0.780011	1.280217	0.000053
