data_functionalizedCrystal
_audit_creation_method	'MofGen! by Chris Wilmer'
_symmetry_space_group_name_H-M	'P1'
_symmetry_Int_Tables_number	1
_symmetry_cell_setting	triclinic
loop_
_symmetry_equiv_pos_as_xyz
  x,y,z
_cell_length_a	18.215407
_cell_length_b	19.805405
_cell_length_c	18.215399
_cell_angle_alpha	89.969390
_cell_angle_beta	89.980167
_cell_angle_gamma	90.026858
loop_
_atom_site_label
_atom_site_type_symbol
_atom_site_fract_x
_atom_site_fract_y
_atom_site_fract_z
Zn1	Zn	1.125064	-0.269462	-0.416102
Zn2	Zn	1.458397	0.063871	-0.082769
Zn3	Zn	1.791731	0.397205	0.250564
Zn4	Zn	1.124969	-0.382653	-0.293030
Zn5	Zn	1.458303	-0.049320	0.040303
Zn6	Zn	1.791636	0.284014	0.373636
Zn7	Zn	1.001997	-0.269484	-0.293050
Zn8	Zn	1.335330	0.063849	0.040284
Zn9	Zn	1.668663	0.397182	0.373617
Zn10	Zn	1.001959	-0.382615	-0.416055
Zn11	Zn	1.335293	-0.049282	-0.082722
Zn12	Zn	1.668626	0.284051	0.250612
O13	O	1.063497	-0.326054	-0.354559
O14	O	1.396831	0.007280	-0.021226
O15	O	1.730164	0.340613	0.312107
O16	O	1.228036	-0.284484	-0.399788
O17	O	1.561369	0.048850	-0.066455
O18	O	1.894702	0.382183	0.266879
O19	O	1.108633	-0.367666	-0.190049
O20	O	1.441966	-0.034333	0.143285
O21	O	1.775299	0.299001	0.476618
O22	O	1.018377	-0.174765	-0.309401
O23	O	1.351711	0.158569	0.023933
O24	O	1.685044	0.491902	0.357266
O25	O	1.227966	-0.367644	-0.309368
O26	O	1.561299	-0.034311	0.023966
O27	O	1.894633	0.299022	0.357299
O28	O	1.108794	-0.174748	-0.399807
O29	O	1.442128	0.158585	-0.066474
O30	O	1.775461	0.491918	0.266860
O31	O	1.018285	-0.284521	-0.190063
O32	O	1.351619	0.048812	0.143271
O33	O	1.684952	0.382145	0.476604
O34	O	0.899008	-0.284485	-0.309355
O35	O	1.232341	0.048849	0.023978
O36	O	1.565674	0.382182	0.357312
O37	O	1.018313	-0.367580	-0.519046
O38	O	1.351647	-0.034247	-0.185712
O39	O	1.684980	0.299086	0.147621
O40	O	0.898980	-0.367602	-0.399727
O41	O	1.232313	-0.034268	-0.066393
O42	O	1.565647	0.299065	0.266940
O43	O	1.108758	-0.284447	-0.519080
O44	O	1.442091	0.048886	-0.185747
O45	O	1.775425	0.382220	0.147586
O46	O	1.108596	-0.477365	-0.309322
O47	O	1.441930	-0.144031	0.024011
O48	O	1.775263	0.189302	0.357345
O49	O	1.018221	-0.477337	-0.399708
O50	O	1.351555	-0.144004	-0.066374
O51	O	1.684888	0.189330	0.266959
C52	C	0.872291	-0.326042	-0.354538
C53	C	1.205624	0.007291	-0.021205
C54	C	1.538958	0.340625	0.312128
C55	C	0.790492	-0.326053	-0.354547
C56	C	1.123826	0.007280	-0.021213
C57	C	1.457159	0.340613	0.312120
C58	C	1.063415	-0.501910	-0.354524
C59	C	1.396748	-0.168576	-0.021190
C60	C	1.730081	0.164757	0.312143
C61	C	1.063446	-0.577142	-0.354533
C62	C	1.396780	-0.243808	-0.021200
C63	C	1.730113	0.089525	0.312134
C64	C	0.602303	-0.369400	-0.401544
C65	C	0.935637	-0.036067	-0.068211
C66	C	1.268970	0.297266	0.265123
C67	C	0.525444	-0.369403	-0.401553
C68	C	0.858778	-0.036069	-0.068220
C69	C	1.192111	0.297264	0.265113
C70	C	0.525444	-0.282719	-0.307591
C71	C	0.858777	0.050614	0.025743
C72	C	1.192110	0.383948	0.359076
C73	C	0.602301	-0.282714	-0.307586
C74	C	0.935634	0.050619	0.025748
C75	C	1.268968	0.383953	0.359081
C76	C	0.640729	-0.326059	-0.354561
C77	C	0.974062	0.007275	-0.021228
C78	C	1.307395	0.340608	0.312105
C79	C	0.487013	-0.326066	-0.354575
C80	C	0.820346	0.007268	-0.021242
C81	C	1.153679	0.340601	0.312091
C82	C	0.403679	-0.326068	-0.354585
C83	C	0.737012	0.007266	-0.021252
C84	C	1.070346	0.340599	0.312082
C85	C	0.724068	-0.326056	-0.354553
C86	C	1.057401	0.007277	-0.021220
C87	C	1.390734	0.340611	0.312114
C88	C	1.110550	-0.612478	-0.307518
C89	C	1.443884	-0.279144	0.025815
C90	C	1.777217	0.054189	0.359148
C91	C	1.110582	-0.683166	-0.307535
C92	C	1.443915	-0.349833	0.025799
C93	C	1.777248	-0.016500	0.359132
C94	C	1.063505	-0.718517	-0.354562
C95	C	1.396838	-0.385184	-0.021229
C96	C	1.730171	-0.051851	0.312104
C97	C	1.016399	-0.683176	-0.401582
C98	C	1.349732	-0.349843	-0.068249
C99	C	1.683065	-0.016510	0.265084
C100	C	1.016372	-0.612489	-0.401569
C101	C	1.349705	-0.279156	-0.068236
C102	C	1.683038	0.054178	0.265097
C103	C	1.016507	-0.968249	-0.401637
C104	C	1.349841	-0.634916	-0.068303
C105	C	1.683174	-0.301583	0.265030
C106	C	1.016536	-1.038941	-0.401645
C107	C	1.349870	-0.705608	-0.068311
C108	C	1.683203	-0.372275	0.265022
C109	C	1.110717	-1.038927	-0.307602
C110	C	1.444050	-0.705593	0.025731
C111	C	1.777384	-0.372260	0.359064
C112	C	1.110690	-0.968239	-0.307589
C113	C	1.444023	-0.634906	0.025744
C114	C	1.777357	-0.301573	0.359077
C115	C	1.063587	-0.932905	-0.354611
C116	C	1.396921	-0.599571	-0.021278
C117	C	1.730254	-0.266238	0.312055
C118	C	1.063555	-0.856256	-0.354594
C119	C	1.396888	-0.522923	-0.021261
C120	C	1.730222	-0.189589	0.312072
C121	C	1.063533	-0.795164	-0.354577
C122	C	1.396866	-0.461831	-0.021243
C123	C	1.730199	-0.128498	0.312090
C124	C	1.255450	-0.326066	-0.354581
C125	C	1.588784	0.007268	-0.021248
C126	C	1.922117	0.340601	0.312086
C127	C	1.337249	-0.326071	-0.354590
C128	C	1.670582	0.007262	-0.021257
C129	C	2.003916	0.340596	0.312077
C130	C	1.063542	-0.326007	-0.546512
C131	C	1.396876	0.007326	-0.213179
C132	C	1.730209	0.340660	0.120154
C133	C	1.063561	-0.325987	-0.628311
C134	C	1.396895	0.007346	-0.294978
C135	C	1.730228	0.340680	0.038355
C136	C	1.063601	-0.149511	-0.354611
C137	C	1.396934	0.183822	-0.021278
C138	C	1.730267	0.517156	0.312055
C139	C	1.063645	-0.074279	-0.354633
C140	C	1.396978	0.259054	-0.021300
C141	C	1.730311	0.592388	0.312033
C142	C	1.110673	-0.282659	-0.816524
C143	C	1.444006	0.050674	-0.483191
C144	C	1.777339	0.384008	-0.149858
C145	C	1.110682	-0.282639	-0.893383
C146	C	1.444015	0.050694	-0.560050
C147	C	1.777348	0.384027	-0.226717
C148	C	1.016502	-0.369210	-0.893336
C149	C	1.349835	-0.035877	-0.560003
C150	C	1.683169	0.297456	-0.226669
C151	C	1.016490	-0.369226	-0.816479
C152	C	1.349823	-0.035893	-0.483145
C153	C	1.683157	0.297440	-0.149812
C154	C	1.063580	-0.325952	-0.778075
C155	C	1.396913	0.007382	-0.444742
C156	C	1.730246	0.340715	-0.111408
C157	C	1.063600	-0.325916	-0.931791
C158	C	1.396934	0.007417	-0.598458
C159	C	1.730267	0.340751	-0.265124
C160	C	1.063609	-0.325895	-1.015125
C161	C	1.396943	0.007438	-0.681791
C162	C	1.730276	0.340772	-0.348458
C163	C	1.063570	-0.325972	-0.694736
C164	C	1.396903	0.007362	-0.361402
C165	C	1.730236	0.340695	-0.028069
C166	C	1.063495	-0.326051	-0.163353
C167	C	1.396828	0.007282	0.169980
C168	C	1.730162	0.340615	0.503314
C169	C	1.063619	-0.325880	-0.081555
C170	C	1.396952	0.007453	0.251779
C171	C	1.730285	0.340786	0.585112
H172	H	0.633589	-0.404693	-0.439797
H173	H	0.966922	-0.071359	-0.106463
H174	H	1.300256	0.261974	0.226870
H175	H	0.494146	-0.247431	-0.269344
H176	H	0.827480	0.085903	0.063990
H177	H	1.160813	0.419236	0.397323
H178	H	1.149073	-1.067705	-0.269317
H179	H	1.482407	-0.734371	0.064016
H180	H	1.815740	-0.401038	0.397349
H181	H	0.978071	-0.711965	-0.439876
H182	H	1.311404	-0.378631	-0.106543
H183	H	1.644738	-0.045298	0.226790
H184	H	1.149028	-0.247385	-0.924686
H185	H	1.482362	0.085948	-0.591352
H186	H	1.815695	0.419281	-0.258019
C187	C	0.980593	-0.483816	-0.916950
C188	C	1.313926	-0.150482	-0.583617
C189	C	1.647260	0.182851	-0.250284
C190	C	0.964748	-0.416782	-0.935551
C191	C	1.298081	-0.083448	-0.602218
C192	C	1.631415	0.249885	-0.268884
H193	H	0.948639	-0.513184	-0.943009
H194	H	1.281972	-0.179851	-0.609675
H195	H	1.615306	0.153482	-0.276342
H196	H	1.030030	-0.493715	-0.929555
H197	H	1.363364	-0.160381	-0.596222
H198	H	1.696697	0.172952	-0.262888
H199	H	0.973843	-0.490011	-0.865673
H200	H	1.307176	-0.156678	-0.532339
H201	H	1.640510	0.176655	-0.199006
H202	H	0.971503	-0.410585	-0.986828
H203	H	1.304836	-0.077252	-0.653495
H204	H	1.638170	0.256082	-0.320162
H205	H	0.915299	-0.406879	-0.922952
H206	H	1.248632	-0.073546	-0.589618
H207	H	1.581965	0.259787	-0.256285
H208	H	1.148938	-0.711934	-0.269250
H209	H	1.482271	-0.378600	0.064083
H210	H	1.815604	-0.045267	0.397417
H211	H	0.978136	-0.404480	-0.785172
H212	H	1.311469	-0.071146	-0.451839
H213	H	1.644803	0.262187	-0.118505
C214	C	0.533171	-0.455090	-0.494422
C215	C	0.866504	-0.121757	-0.161088
C216	C	1.199837	0.211576	0.172245
C217	C	0.483207	-0.417049	-0.453195
C218	C	0.816541	-0.083715	-0.119862
C219	C	1.149874	0.249618	0.213472
H220	H	0.507094	-0.484508	-0.526301
H221	H	0.840427	-0.151175	-0.192968
H222	H	1.173760	0.182159	0.140365
H223	H	0.563172	-0.425632	-0.522626
H224	H	0.896505	-0.092299	-0.189293
H225	H	1.229838	0.241034	0.144040
H226	H	0.563123	-0.480939	-0.462295
H227	H	0.896457	-0.147606	-0.128961
H228	H	1.229790	0.185728	0.204372
H229	H	0.453258	-0.391196	-0.485322
H230	H	0.786591	-0.057863	-0.151989
H231	H	1.119925	0.275471	0.181344
H232	H	0.453194	-0.446510	-0.424988
H233	H	0.786527	-0.113177	-0.091655
H234	H	1.119860	0.220157	0.241678
H235	H	0.978016	-0.583719	-0.439854
H236	H	1.311349	-0.250386	-0.106521
H237	H	1.644683	0.082948	0.226812
C238	C	0.594586	-0.197034	-0.214698
C239	C	0.927919	0.136300	0.118636
C240	C	1.261253	0.469633	0.451969
C241	C	0.644544	-0.235071	-0.255936
C242	C	0.977877	0.098262	0.077398
C243	C	1.311211	0.431596	0.410731
H244	H	0.620667	-0.167625	-0.182812
H245	H	0.954000	0.165709	0.150522
H246	H	1.287334	0.499042	0.483855
H247	H	0.564635	-0.171182	-0.246812
H248	H	0.897968	0.162152	0.086521
H249	H	1.231301	0.495485	0.419855
H250	H	0.564583	-0.226500	-0.186493
H251	H	0.897916	0.106834	0.146841
H252	H	1.231250	0.440167	0.480174
H253	H	0.674544	-0.205605	-0.284145
H254	H	1.007877	0.127728	0.049188
H255	H	1.341210	0.461062	0.382522
H256	H	0.674508	-0.260925	-0.223817
H257	H	1.007841	0.072409	0.109516
H258	H	1.341175	0.405742	0.442849
C259	C	1.146571	-0.168052	-0.792908
C260	C	1.479904	0.165281	-0.459574
C261	C	1.813238	0.498614	-0.126241
C262	C	1.162425	-0.235085	-0.774310
C263	C	1.495758	0.098248	-0.440977
C264	C	1.829091	0.431581	-0.107644
H265	H	1.178518	-0.138681	-0.766844
H266	H	1.511851	0.194653	-0.433511
H267	H	1.845185	0.527986	-0.100178
H268	H	1.153319	-0.161853	-0.844178
H269	H	1.486652	0.171480	-0.510845
H270	H	1.819986	0.504813	-0.177512
H271	H	1.097126	-0.158159	-0.780301
H272	H	1.430459	0.175174	-0.446968
H273	H	1.763792	0.508507	-0.113634
H274	H	1.211869	-0.244980	-0.786922
H275	H	1.545202	0.088354	-0.453589
H276	H	1.878536	0.421687	-0.120256
H277	H	1.155683	-0.241287	-0.723028
H278	H	1.489016	0.092046	-0.389695
H279	H	1.822349	0.425379	-0.056362
H280	H	1.148883	-0.583700	-0.269220
H281	H	1.482216	-0.250366	0.064113
H282	H	1.815549	0.082967	0.397447
H283	H	0.978153	-0.939485	-0.439923
H284	H	1.311486	-0.606152	-0.106589
H285	H	1.644820	-0.272819	0.226744
C286	C	1.203797	-0.975327	-0.214637
C287	C	1.537130	-0.641993	0.118697
C288	C	1.870464	-0.308660	0.452030
C289	C	1.162441	-0.929382	-0.255898
C290	C	1.495774	-0.596049	0.077436
C291	C	1.829108	-0.262716	0.410769
H292	H	1.235750	-0.951337	-0.182729
H293	H	1.569084	-0.618004	0.150604
H294	H	1.902417	-0.284670	0.483937
H295	H	1.171761	-1.002937	-0.186460
H296	H	1.505095	-0.669603	0.146874
H297	H	1.838428	-0.336270	0.480207
H298	H	1.231935	-1.002858	-0.246740
H299	H	1.565269	-0.669525	0.086593
H300	H	1.898602	-0.336191	0.419926
H301	H	1.134298	-0.901854	-0.223794
H302	H	1.467631	-0.568521	0.109539
H303	H	1.800965	-0.235188	0.442873
H304	H	1.194481	-0.901761	-0.284077
H305	H	1.527814	-0.568427	0.049257
H306	H	1.861147	-0.235094	0.382590
C307	C	0.923446	-1.031860	-0.494623
C308	C	1.256779	-0.698527	-0.161290
C309	C	1.590112	-0.365193	0.172044
C310	C	0.964792	-1.077801	-0.453348
C311	C	1.298125	-0.744468	-0.120015
C312	C	1.631459	-0.411134	0.213318
H313	H	0.891507	-1.055852	-0.526543
H314	H	1.224840	-0.722519	-0.193210
H315	H	1.558174	-0.389185	0.140124
H316	H	0.895299	-1.004332	-0.462534
H317	H	1.228632	-0.670999	-0.129201
H318	H	1.561965	-0.337666	0.204133
H319	H	0.955494	-1.004246	-0.522794
H320	H	1.288827	-0.670913	-0.189460
H321	H	1.622160	-0.337579	0.143873
H322	H	0.932744	-1.105412	-0.425173
H323	H	1.266077	-0.772079	-0.091840
H324	H	1.599411	-0.438745	0.241494
H325	H	0.992941	-1.105340	-0.485441
H326	H	1.326275	-0.772007	-0.152108
H327	H	1.659608	-0.438674	0.181225
