data_functionalizedCrystal
_audit_creation_method	'MofGen! by Chris Wilmer'
_symmetry_space_group_name_H-M	'P1'
_symmetry_Int_Tables_number	1
_symmetry_cell_setting	triclinic
loop_
_symmetry_equiv_pos_as_xyz
  x,y,z
_cell_length_a	13.339070
_cell_length_b	13.339070
_cell_length_c	9.798715
_cell_angle_alpha	89.999403
_cell_angle_beta	89.995656
_cell_angle_gamma	115.629294
loop_
_atom_site_label
_atom_site_type_symbol
_atom_site_fract_x
_atom_site_fract_y
_atom_site_fract_z
O1	O	1.496805	0.550524	-0.113527
O2	O	1.996805	1.050524	0.386473
O3	O	1.181996	0.478264	-0.113520
O4	O	1.681996	0.978264	0.386480
O5	O	1.303271	0.356989	-0.113519
O6	O	1.803271	0.856989	0.386481
O7	O	1.375531	0.671798	-0.113528
O8	O	1.875531	1.171798	0.386472
O9	O	1.303258	0.356985	0.113463
O10	O	1.803258	0.856985	0.613463
O11	O	1.181983	0.478260	0.113462
O12	O	1.681983	0.978260	0.613462
O13	O	1.496793	0.550520	0.113455
O14	O	1.996793	1.050520	0.613455
Zn15	Zn	1.339386	0.514389	0.149497
Zn16	Zn	1.839386	1.014389	0.649497
Zn17	Zn	1.339403	0.514394	-0.149562
Zn18	Zn	1.839403	1.014394	0.350438
O19	O	1.375518	0.671795	0.113454
O20	O	1.875518	1.171795	0.613454
C21	C	1.140874	0.466056	-0.000029
C22	C	1.640874	0.966056	0.499971
C23	C	1.018360	0.429672	-0.000026
C24	C	1.518360	0.929672	0.499974
C25	C	0.732973	0.712571	-0.000056
C26	C	1.232973	1.212571	0.499944
C27	C	0.848081	0.746759	-0.000063
C28	C	1.348081	1.246759	0.499937
C29	C	0.890657	0.667490	-0.000053
C30	C	1.390657	1.167490	0.499947
C31	C	0.818112	0.554028	-0.000038
C32	C	1.318112	1.054028	0.499962
C33	C	0.702992	0.519837	-0.000042
C34	C	1.202992	1.019837	0.499958
C35	C	0.860676	0.474756	-0.000039
C36	C	1.360676	0.974756	0.499961
C37	C	0.788132	0.361294	-0.000024
C38	C	1.288132	0.861294	0.499976
C39	C	0.673023	0.327109	-0.000027
C40	C	1.173023	0.827109	0.499973
C41	C	0.630448	0.406377	-0.000037
C42	C	1.130448	0.906377	0.499963
C43	C	0.975796	0.508947	-0.000035
C44	C	1.475796	1.008947	0.499965
C45	C	0.945816	0.316213	-0.000021
C46	C	1.445816	0.816213	0.499979
C47	C	0.830707	0.282025	-0.000014
C48	C	1.330707	0.782025	0.499986
C49	C	1.291058	0.315872	-0.000029
C50	C	1.791058	0.815872	0.499971
C51	C	1.254675	0.193358	-0.000034
C52	C	1.754675	0.693358	0.499966
C53	C	1.537574	-0.092030	-0.000039
C54	C	2.037574	0.407970	0.499961
C55	C	1.571761	0.023079	-0.000027
C56	C	2.071761	0.523079	0.499973
C57	C	1.492492	0.065654	-0.000029
C58	C	1.992492	0.565654	0.499971
C59	C	1.379030	-0.006890	-0.000043
C60	C	1.879030	0.493110	0.499957
C61	C	1.344839	-0.122010	-0.000044
C62	C	1.844839	0.377990	0.499956
C63	C	1.299758	0.035674	-0.000034
C64	C	1.799758	0.535674	0.499966
C65	C	1.186296	-0.036871	-0.000048
C66	C	1.686296	0.463129	0.499952
C67	C	1.152111	-0.151979	-0.000050
C68	C	1.652111	0.348021	0.499950
C69	C	1.231380	-0.194555	-0.000048
C70	C	1.731380	0.305445	0.499952
C71	C	1.333949	0.150794	-0.000033
C72	C	1.833949	0.650794	0.499967
C73	C	1.141215	0.120813	-0.000038
C74	C	1.641215	0.620813	0.499962
C75	C	1.107028	0.005705	-0.000050
C76	C	1.607028	0.505705	0.499950
C77	C	1.537914	0.562728	-0.000039
C78	C	2.037914	1.062728	0.499961
C79	C	1.660428	0.599111	-0.000051
C80	C	2.160428	1.099111	0.499949
C81	C	1.387730	0.712912	-0.000039
C82	C	1.887730	1.212912	0.499961
C83	C	1.424114	0.835426	-0.000043
C84	C	1.924114	1.335426	0.499957
N85	N	1.339383	0.514387	0.353597
N86	N	1.839383	1.014387	0.853597
N87	N	1.339412	0.514390	-0.353662
N88	N	1.839412	1.014390	0.146338
C89	C	1.390218	0.463159	0.421374
C90	C	1.890218	0.963159	0.921374
C91	C	1.390235	0.463160	0.578537
C92	C	1.890235	0.963160	1.078537
H93	H	0.907140	0.839139	-0.000086
H94	H	1.407140	1.339139	0.499914
F95	F	1.446841	0.405581	0.345146
F96	F	1.946841	0.905581	0.845146
F97	F	1.447131	0.405838	0.654717
F98	F	1.947131	0.905838	1.154717
H99	H	1.520335	0.159382	-0.000019
H100	H	2.020335	0.659382	0.499981
H101	H	1.203550	-0.288284	-0.000063
H102	H	1.703550	0.211716	0.499937
H103	H	1.602102	-0.126707	-0.000026
H104	H	2.102102	0.373293	0.499974
H105	H	0.984385	0.695333	-0.000062
H106	H	1.484385	1.195333	0.499938
F107	F	0.507935	0.369997	-0.000026
F108	F	1.007935	0.869997	0.499974
F109	F	1.282528	0.571728	0.570167
F110	F	1.782528	1.071728	1.070167
H111	H	1.295867	0.558242	0.411920
H112	H	1.795867	1.058242	0.911920
F113	F	0.986275	-0.071515	-0.000067
F114	F	1.486275	0.428485	0.499933
H115	H	1.034852	0.601328	-0.000042
H116	H	1.534852	1.101328	0.499958
F117	F	0.687653	0.796921	-0.000085
F118	F	1.187653	1.296921	0.499915
H119	H	0.613959	0.234721	-0.000030
H120	H	1.113959	0.734721	0.499970
H121	H	0.771625	0.189642	-0.000013
H122	H	1.271625	0.689642	0.499987
H123	H	0.980479	0.251665	-0.000019
H124	H	1.480479	0.751665	0.499981
H125	H	1.426331	0.209849	-0.000021
H126	H	1.926331	0.709849	0.499979
F127	F	1.692510	0.100278	-0.000035
F128	F	2.192510	0.600278	0.499965
H129	H	1.059723	-0.211043	-0.000051
H130	H	1.559723	0.288957	0.499949
F131	F	1.056845	0.166119	-0.000032
F132	F	1.556845	0.666119	0.499968
