data_functionalizedCrystal
_audit_creation_method	'MofGen! by Chris Wilmer'
_symmetry_space_group_name_H-M	'P1'
_symmetry_Int_Tables_number	1
_symmetry_cell_setting	triclinic
loop_
_symmetry_equiv_pos_as_xyz
  x,y,z
_cell_length_a	16.120297
_cell_length_b	17.077404
_cell_length_c	16.120847
_cell_angle_alpha	87.099973
_cell_angle_beta	89.836070
_cell_angle_gamma	87.121653
loop_
_atom_site_label
_atom_site_type_symbol
_atom_site_fract_x
_atom_site_fract_y
_atom_site_fract_z
Zn1	Zn	-0.453433	-1.161586	-0.354915
Zn2	Zn	0.046567	-0.661586	0.145085
Zn3	Zn	-0.307345	-1.162210	-0.486925
Zn4	Zn	0.192655	-0.662210	0.013075
Zn5	Zn	-0.314392	-1.037289	-0.347888
Zn6	Zn	0.185608	-0.537289	0.152112
Zn7	Zn	-0.446357	-1.024035	-0.493931
Zn8	Zn	0.053643	-0.524035	0.006069
O9	O	-0.380382	-1.096280	-0.420915
O10	O	0.119618	-0.596280	0.079085
O11	O	-0.434066	-1.271515	-0.372436
O12	O	0.065934	-0.771515	0.127564
O13	O	-0.191914	-1.151448	-0.462609
O14	O	0.308086	-0.651448	0.037391
O15	O	-0.338746	-1.059062	-0.232454
O16	O	0.161254	-0.559062	0.267546
O17	O	-0.326736	-1.271974	-0.469423
O18	O	0.173264	-0.771974	0.030577
O19	O	-0.440899	-1.150383	-0.237617
O20	O	0.059101	-0.650383	0.262383
O21	O	-0.197091	-1.059668	-0.360459
O22	O	0.302909	-0.559668	0.139541
O23	O	-0.331885	-0.925685	-0.367252
O24	O	0.168115	-0.425685	0.132748
O25	O	-0.563661	-1.036473	-0.481363
O26	O	-0.063661	-0.536473	0.018637
O27	O	-0.428839	-0.915947	-0.474549
O28	O	0.071161	-0.415947	0.025451
O29	O	-0.568860	-1.137531	-0.379229
O30	O	-0.068860	-0.637531	0.120771
O31	O	-0.319875	-1.138596	-0.604220
O32	O	0.180125	-0.638596	-0.104220
O33	O	-0.422006	-1.037079	-0.609367
O34	O	0.077994	-0.537079	-0.109367
C35	C	-0.380359	-0.892334	-0.420899
C36	C	0.119641	-0.392334	0.079101
C37	C	-0.380369	-0.805083	-0.420913
C38	C	0.119631	-0.305083	0.079087
C39	C	-0.369426	-1.086487	-0.636967
C40	C	0.130574	-0.586487	-0.136967
C41	C	-0.364767	-1.082368	-0.729397
C42	C	0.135233	-0.582368	-0.229397
C43	C	-0.597276	-1.085454	-0.431861
C44	C	-0.097276	-0.585454	0.068139
C45	C	-0.689704	-1.080840	-0.436526
C46	C	-0.189704	-0.580840	0.063474
C47	C	-0.858932	-1.072389	-0.445024
C48	C	-0.358932	-0.572389	0.054976
C49	C	-0.902696	-1.120336	-0.396556
C50	C	-0.402696	-0.620336	0.103444
C51	C	-0.996860	-1.115634	-0.401285
C52	C	-0.496860	-0.615634	0.098715
C53	C	-0.764759	-1.077091	-0.440297
C54	C	-0.264759	-0.577091	0.059703
C55	C	-0.164334	-1.107112	-0.409951
C56	C	0.335666	-0.607112	0.090049
C57	C	-0.071918	-1.111888	-0.405052
C58	C	0.428082	-0.611888	0.094948
C59	C	-0.380404	-1.301022	-0.420932
C60	C	0.119596	-0.801022	0.079068
C61	C	-0.380414	-1.388271	-0.420939
C62	C	0.119586	-0.888271	0.079061
C63	C	-0.430763	-0.759044	-0.476858
C64	C	0.069237	-0.259044	0.023142
C65	C	-0.430776	-0.677062	-0.476861
C66	C	0.069224	-0.177062	0.023139
C67	C	-0.380390	-0.641122	-0.420921
C68	C	0.119610	-0.141122	0.079079
C69	C	-0.329993	-0.687168	-0.364970
C70	C	0.170007	-0.187168	0.135030
C71	C	-0.329985	-0.769147	-0.364964
C72	C	0.170015	-0.269147	0.135036
C73	C	-0.330013	-0.516296	-0.364987
C74	C	0.169987	-0.016296	0.135013
C75	C	-0.330019	-0.434311	-0.364994
C76	C	0.169981	0.065689	0.135006
C77	C	-0.430804	-0.424211	-0.476884
C78	C	0.069196	0.075789	0.023116
C79	C	-0.430796	-0.506191	-0.476878
C80	C	0.069204	-0.006191	0.023122
C81	C	-0.380398	-0.552230	-0.420927
C82	C	0.119602	-0.052230	0.079073
C83	C	-0.391398	-1.106131	-0.204020
C84	C	0.108602	-0.606131	0.295980
C85	C	-0.396092	-1.110329	-0.111592
C86	C	0.103908	-0.610329	0.388408
C87	C	-0.404661	-1.118008	0.057635
C88	C	0.095339	-0.618008	0.557635
C89	C	-0.356201	-1.074692	0.101381
C90	C	0.143799	-0.574692	0.601381
C91	C	-0.360969	-1.078964	0.195545
C92	C	0.139031	-0.578964	0.695545
C93	C	-0.399894	-1.113737	-0.036537
C94	C	0.100106	-0.613737	0.463463
H95	H	-0.869444	-1.164915	-0.351510
H96	H	-0.369444	-0.664915	0.148490
Br97	Br	-0.914351	-0.998092	-0.520101
Br98	Br	-0.414351	-0.498092	-0.020101
H99	H	-0.471791	-0.788300	-0.522413
H100	H	0.028209	-0.288300	-0.022413
H101	H	-0.288981	-0.553779	-0.319419
H102	H	0.211019	-0.053779	0.180581
H103	H	-0.289001	-0.405051	-0.319433
H104	H	0.210999	0.094949	0.180567
Br105	Br	-0.281078	-1.007539	0.045939
Br106	Br	0.218922	-0.507539	0.545939
H107	H	-0.449726	-1.158299	0.090898
H108	H	0.050274	-0.658299	0.590898
H109	H	-0.471812	-0.639580	-0.522418
H110	H	0.028188	-0.139580	-0.022418
H111	H	-0.471820	-0.535451	-0.522433
H112	H	0.028180	-0.035451	-0.022433
H113	H	-0.288972	-0.657899	-0.319419
H114	H	0.211028	-0.157899	0.180581
Br115	Br	-0.499213	-0.361730	-0.552807
Br116	Br	0.000787	0.138270	-0.052807
H117	H	-0.288953	-0.806632	-0.319403
H118	H	0.211047	-0.306632	0.180597
