data_functionalizedCrystal
_audit_creation_method	'MofGen! by Chris Wilmer'
_symmetry_space_group_name_H-M	'P1'
_symmetry_Int_Tables_number	1
_symmetry_cell_setting	triclinic
loop_
_symmetry_equiv_pos_as_xyz
  x,y,z
_cell_length_a	25.639239
_cell_length_b	11.169417
_cell_length_c	11.169409
_cell_angle_alpha	90.019513
_cell_angle_beta	90.039281
_cell_angle_gamma	90.039936
loop_
_atom_site_label
_atom_site_type_symbol
_atom_site_fract_x
_atom_site_fract_y
_atom_site_fract_z
Zn1	Zn	-0.208091	1.834726	0.678475
Zn2	Zn	-0.295541	1.834516	0.477767
Zn3	Zn	-0.208123	1.634012	0.477810
Zn4	Zn	-0.295499	1.633920	0.678413
O5	O	-0.251814	1.734293	0.578116
O6	O	-0.219695	2.002648	0.651858
O7	O	-0.283976	1.807869	0.309823
O8	O	-0.134954	1.660763	0.504473
O9	O	-0.283945	2.002494	0.504399
O10	O	-0.134930	1.808227	0.651900
O11	O	-0.219751	1.660560	0.309855
O12	O	-0.219710	1.466050	0.504413
O13	O	-0.283873	1.660607	0.846371
O14	O	-0.283905	1.465983	0.651795
O15	O	-0.219655	1.808138	0.846416
O16	O	-0.368701	1.807780	0.504340
O17	O	-0.368670	1.660403	0.651754
C18	C	-0.251807	1.422469	0.578103
C19	C	-0.251816	1.289069	0.578125
C20	C	-0.387656	1.734092	0.578062
C21	C	-0.445770	1.734115	0.578078
C22	C	-0.806137	1.811233	0.501489
C23	C	-0.860741	1.811279	0.501505
O24	O	-0.888981	1.876638	0.436326
N25	N	-0.888053	1.734504	0.578196
C26	C	-0.860757	1.657686	0.654885
O27	O	-0.889002	1.592388	0.720118
C28	C	-0.806154	1.657647	0.654874
C29	C	-0.778845	1.734418	0.578169
C30	C	-0.778828	1.887999	0.424791
C31	C	-0.724227	1.887951	0.424774
C32	C	-0.696936	1.811136	0.501454
C33	C	-0.724245	1.734370	0.578152
C34	C	-0.778859	1.580836	0.731567
C35	C	-0.724252	1.580804	0.731551
C36	C	-0.696944	1.657575	0.654846
C37	C	-0.642352	1.657507	0.654814
N38	N	-0.615041	1.734282	0.578123
C39	C	-0.642332	1.811097	0.501443
C40	C	-0.975428	1.657777	0.654903
C41	C	-1.030030	1.657809	0.654909
C42	C	-1.030010	1.811404	0.501530
C43	C	-0.975407	1.811365	0.501520
C44	C	-0.948116	1.734552	0.578212
C45	C	-0.527667	1.810988	0.501412
C46	C	-0.473062	1.810930	0.501398
C47	C	-0.473087	1.657340	0.654780
C48	C	-0.527687	1.657393	0.654790
C49	C	-0.554976	1.734228	0.578102
O50	O	-0.614078	1.592185	0.719964
O51	O	-0.614081	1.876395	0.436232
C52	C	-0.115441	1.734529	0.578198
C53	C	-0.057327	1.734629	0.578233
C54	C	-0.251756	1.734386	0.891159
C55	C	-0.251731	1.734425	1.024559
C56	C	-0.251821	2.047336	0.578131
C57	C	-0.251824	2.180736	0.578137
C58	C	-0.251834	1.734271	0.266292
C59	C	-0.251711	1.734464	0.132892
H60	H	-0.450829	1.873446	0.438932
H61	H	-0.701996	1.950468	0.362318
C62	C	-0.913982	1.640942	0.816334
C63	C	-0.945432	1.573324	0.739200
H64	H	-0.895469	1.588804	0.868379
H65	H	-0.889900	1.686643	0.770664
H66	H	-0.935249	1.693224	0.862285
H67	H	-0.924164	1.521047	0.693241
H68	H	-0.969517	1.527603	0.784875
H69	H	-1.052260	1.595283	0.717358
C70	C	-0.773309	2.039795	0.273174
C71	C	-0.808821	1.972437	0.340487
H72	H	-0.791824	2.091915	0.221115
H73	H	-0.751978	2.085659	0.325505
H74	H	-0.752048	1.987488	0.227236
H75	H	-0.830080	2.024744	0.386432
H76	H	-0.830161	1.926569	0.288150
C77	C	-0.913939	1.972776	0.484960
C78	C	-0.945391	1.895759	0.417212
H79	H	-0.895408	2.024874	0.432908
H80	H	-0.935203	2.018665	0.537285
H81	H	-0.889868	1.927016	0.530620
H82	H	-0.969464	1.941518	0.371558
H83	H	-0.924124	1.849865	0.364866
C84	C	-1.113709	1.879814	0.433614
C85	C	-1.060017	1.895950	0.417347
H86	H	-1.132234	1.932040	0.381679
H87	H	-1.122719	1.799234	0.415883
H88	H	-1.122590	1.897245	0.514312
H89	H	-1.051135	1.878510	0.336651
H90	H	-1.051004	1.976548	0.435070
C91	C	-0.773371	1.429042	0.883194
C92	C	-0.808867	1.496453	0.815894
H93	H	-0.791897	1.376952	0.935262
H94	H	-0.752116	1.383144	0.830856
H95	H	-0.752032	1.481318	0.929122
H96	H	-0.830204	1.444177	0.769958
H97	H	-0.830131	1.542354	0.868238
H98	H	-0.702035	1.518254	0.794007
H99	H	-0.549880	1.873557	0.438968
H100	H	-0.549923	1.594884	0.717253
C101	C	-0.389387	1.589102	0.722856
C102	C	-0.443080	1.572914	0.739071
H103	H	-0.370863	1.536989	0.774905
H104	H	-0.380479	1.571560	0.642210
H105	H	-0.380405	1.669733	0.740477
H106	H	-0.452063	1.492284	0.721440
H107	H	-0.451992	1.590446	0.819735
