data_functionalizedCrystal
_audit_creation_method	'MofGen! by Chris Wilmer'
_symmetry_space_group_name_H-M	'P1'
_symmetry_Int_Tables_number	1
_symmetry_cell_setting	triclinic
loop_
_symmetry_equiv_pos_as_xyz
  x,y,z
_cell_length_a	19.188933
_cell_length_b	19.188930
_cell_length_c	16.098538
_cell_angle_alpha	92.708456
_cell_angle_beta	87.271982
_cell_angle_gamma	83.145175
loop_
_atom_site_label
_atom_site_type_symbol
_atom_site_fract_x
_atom_site_fract_y
_atom_site_fract_z
O1	O	0.929279	0.084045	-0.069237
O2	O	1.429279	0.584045	0.430763
O3	O	0.725968	0.095777	-0.069246
O4	O	1.225968	0.595777	0.430754
O5	O	0.833490	-0.011744	-0.069225
O6	O	1.333490	0.488256	0.430775
O7	O	0.821757	0.191566	-0.069258
O8	O	1.321757	0.691566	0.430742
O9	O	0.827209	-0.005487	0.069286
O10	O	1.327209	0.494513	0.569286
O11	O	0.719687	0.102034	0.069265
O12	O	1.219687	0.602034	0.569265
O13	O	0.922998	0.090301	0.069274
O14	O	1.422998	0.590301	0.569274
Zn15	Zn	0.820345	0.097161	0.091262
Zn16	Zn	1.320345	0.597161	0.591262
Zn17	Zn	0.828621	0.088918	-0.091234
Zn18	Zn	1.328621	0.588918	0.408766
O19	O	0.815476	0.197822	0.069253
O20	O	1.315476	0.697822	0.569253
C21	C	0.696817	0.098525	0.000009
C22	C	1.196817	0.598525	0.500009
C23	C	0.619312	0.097384	0.000006
C24	C	1.119312	0.597384	0.500006
C25	C	0.069480	0.085829	-0.075487
C26	C	0.569480	0.585829	0.424513
C27	C	0.142305	0.086897	-0.075490
C28	C	0.642305	0.586897	0.424510
C29	C	0.175298	0.090845	0.000012
C30	C	0.675298	0.590845	0.500012
C31	C	0.135463	0.093706	0.075524
C32	C	0.635463	0.593706	0.575524
C33	C	0.062641	0.092631	0.075525
C34	C	0.562641	0.592631	0.575525
N35	N	0.281770	0.134801	0.056206
N36	N	0.781770	0.634801	0.556206
N37	N	0.350948	0.135824	0.056199
N38	N	0.850948	0.635824	0.556199
C39	C	0.394707	0.094083	0.000013
C40	C	0.894707	0.594083	0.500013
N41	N	0.366674	0.051288	-0.056179
N42	N	0.866674	0.551288	0.443821
N43	N	0.297489	0.050269	-0.056175
N44	N	0.797489	0.550269	0.443825
C45	C	0.254261	0.092010	0.000019
C46	C	0.754261	0.592010	0.500019
C47	C	0.513498	0.092374	-0.075497
C48	C	1.013498	0.592374	0.424503
C49	C	0.586324	0.093438	-0.075497
C50	C	1.086324	0.593438	0.424503
C51	C	0.579480	0.100254	0.075519
C52	C	1.079480	0.600254	0.575519
C53	C	0.506656	0.099183	0.075517
C54	C	1.006656	0.599183	0.575517
C55	C	0.473669	0.095246	0.000007
C56	C	0.973669	0.595246	0.500007
C57	C	0.829969	-0.034626	0.000033
C58	C	1.329969	0.465374	0.500033
C59	C	0.828828	-0.112131	0.000040
C60	C	1.328828	0.387869	0.500040
C61	C	0.891919	-0.157054	0.000047
C62	C	1.391919	0.342946	0.500047
C63	C	0.890848	-0.229878	0.000033
C64	C	1.390848	0.270122	0.500033
C65	C	0.826682	-0.257775	0.000030
C66	C	1.326682	0.242225	0.500030
C67	C	0.763583	-0.212842	0.000018
C68	C	1.263583	0.287158	0.500018
C69	C	0.764657	-0.140020	0.000024
C70	C	1.264657	0.359980	0.500024
N71	N	0.775497	-0.363652	0.047166
N72	N	1.275497	0.136348	0.547166
N73	N	0.774482	-0.432830	0.047163
N74	N	1.274482	0.067170	0.547163
C75	C	0.823445	-0.477185	0.000013
C76	C	1.323445	0.022815	0.500013
N77	N	0.873471	-0.449748	-0.047123
N78	N	1.373471	0.050252	0.452877
N79	N	0.874488	-0.380563	-0.047117
N80	N	1.374488	0.119437	0.452883
C81	C	0.825511	-0.336738	0.000024
C82	C	1.325511	0.163262	0.500024
C83	C	0.885378	-0.601073	0.000004
C84	C	1.385378	-0.101073	0.500004
C85	C	0.884305	-0.673899	-0.000015
C86	C	1.384305	-0.173899	0.499985
C87	C	0.757038	-0.656861	-0.000021
C88	C	1.257038	-0.156861	0.499979
C89	C	0.758114	-0.584037	-0.000011
C90	C	1.258114	-0.084037	0.499989
C91	C	0.822285	-0.556148	0.000006
C92	C	1.322285	-0.056148	0.500006
C93	C	0.952149	0.087553	0.000018
C94	C	1.452149	0.587553	0.500018
C95	C	1.029654	0.088694	0.000015
C96	C	1.529654	0.588694	0.500015
C97	C	0.818997	0.220705	-0.000007
C98	C	1.318997	0.720705	0.499993
C99	C	0.820138	0.298209	-0.000019
C100	C	1.320138	0.798209	0.499981
N101	N	0.814703	0.102786	0.215810
N102	N	1.314703	0.602786	0.715810
N103	N	0.834269	0.083287	-0.215782
N104	N	1.334269	0.583287	0.284218
C105	C	0.860356	0.057166	0.259404
C106	C	1.360356	0.557166	0.759404
C107	C	0.856415	0.061108	0.346592
C108	C	1.356415	0.561108	0.846592
C109	C	0.806824	0.110673	0.390184
C110	C	1.306824	0.610673	0.890184
C111	C	0.761166	0.156295	0.346584
C112	C	1.261166	0.656295	0.846584
C113	C	0.765104	0.152350	0.259398
C114	C	1.265104	0.652350	0.759398
C115	C	0.792549	0.124964	0.653432
C116	C	1.292549	0.624964	1.153432
C117	C	0.788616	0.128907	0.740624
C118	C	1.288616	0.628907	1.240624
C119	C	0.883864	0.033718	0.740626
C120	C	1.383864	0.533718	1.240626
C121	C	0.887801	0.029780	0.653438
C122	C	1.387801	0.529780	1.153438
C123	C	0.842140	0.075400	0.609845
C124	C	1.342140	0.575400	1.109845
C125	C	0.802796	0.114705	0.479305
C126	C	1.302796	0.614705	0.979305
C127	C	0.846165	0.071364	0.520726
C128	C	1.346165	0.571364	1.020726
H129	H	0.618751	0.091099	-0.136982
H130	H	1.118751	0.591099	0.363018
C131	C	0.960255	-0.279302	0.000046
C132	C	1.460255	0.220698	0.500046
N133	N	1.012532	-0.316527	0.000058
N134	N	1.512532	0.183473	0.500058
H135	H	0.720785	0.196651	0.382082
H136	H	1.220785	0.696651	0.882082
C137	C	0.693000	-0.243531	0.000021
C138	C	1.193000	0.256469	0.500021
N139	N	0.639835	-0.266644	0.000022
N140	N	1.139835	0.233356	0.500022
H141	H	0.042627	0.082620	-0.136973
H142	H	0.542627	0.582620	0.363027
C143	C	0.688708	-0.534619	-0.000014
C144	C	1.188708	-0.034619	0.499986
N145	N	0.636428	-0.497398	-0.000019
N146	N	1.136428	0.002602	0.499981
C147	C	0.477211	0.088034	-0.158559
C148	C	0.977211	0.588034	0.341441
N149	N	0.449882	0.084765	-0.221122
N150	N	0.949882	0.584765	0.278878
C151	C	0.714888	0.202541	0.211445
C152	C	1.214888	0.702541	0.711445
N153	N	0.677063	0.240348	0.175328
N154	N	1.177063	0.740348	0.675328
C155	C	0.900708	0.016837	0.472772
C156	C	1.400708	0.516837	0.972772
N157	N	0.941790	-0.024232	0.436645
N158	N	1.441790	0.475768	0.936645
H159	H	0.935683	-0.710476	-0.000014
H160	H	1.435683	-0.210476	0.499986
H161	H	0.762420	0.155063	0.514805
H162	H	1.262420	0.655063	1.014805
C163	C	0.186121	0.083752	-0.158551
C164	C	0.686121	0.583752	0.341449
N165	N	0.219121	0.081387	-0.221112
N166	N	0.719121	0.581387	0.278888
H167	H	0.713279	-0.103443	0.000018
H168	H	1.213279	0.396557	0.500018
H169	H	0.162331	0.096919	0.136998
H170	H	0.662331	0.596919	0.636998
H171	H	0.606343	0.103466	0.136994
H172	H	1.106343	0.603466	0.636994
H173	H	0.474229	0.101519	0.136998
H174	H	0.974229	0.601519	0.636998
C175	C	0.942351	-0.024750	0.605492
C176	C	1.442351	0.475250	1.105492
N177	N	0.983440	-0.065822	0.569380
N178	N	1.483440	0.434178	1.069380
H179	H	0.030214	0.094968	0.137009
H180	H	0.530214	0.594968	0.637009
H181	H	0.944173	-0.134351	0.000057
H182	H	1.444173	0.365649	0.500057
H183	H	0.921038	-0.003424	0.776127
H184	H	1.421038	0.496576	1.276127
C185	C	0.686454	-0.687544	-0.000028
C186	C	1.186454	-0.187544	0.499972
N187	N	0.633289	-0.710657	-0.000035
N188	N	1.133289	-0.210657	0.499965
H189	H	0.937631	-0.578365	0.000014
H190	H	1.437631	-0.078365	0.500014
C191	C	0.914910	0.002639	0.211460
C192	C	1.414910	0.502639	0.711460
N193	N	0.956000	-0.038434	0.175351
N194	N	1.456000	0.461566	0.675351
C195	C	0.734057	0.183434	0.788575
C196	C	1.234057	0.683434	1.288575
N197	N	0.692966	0.224501	0.824691
N198	N	1.192966	0.724501	1.324691
H199	H	0.893589	0.023960	0.382086
H200	H	1.393589	0.523960	0.882086
H201	H	0.755371	0.162111	0.617945
H202	H	1.255371	0.662111	1.117945
