data_functionalizedCrystal
_audit_creation_method	'MofGen! by Chris Wilmer'
_symmetry_space_group_name_H-M	'P1'
_symmetry_Int_Tables_number	1
_symmetry_cell_setting	triclinic
loop_
_symmetry_equiv_pos_as_xyz
  x,y,z
_cell_length_a	6.817900
_cell_length_b	17.110486
_cell_length_c	16.305597
_cell_angle_alpha	96.313144
_cell_angle_beta	103.455834
_cell_angle_gamma	99.060439
loop_
_atom_site_label
_atom_site_type_symbol
_atom_site_fract_x
_atom_site_fract_y
_atom_site_fract_z
V1	V	-3.976725	-0.246991	-0.116465
O2	O	-3.965382	-0.242010	0.005855
O3	O	-3.928400	-0.245570	-0.231179
O4	O	-3.906585	-0.354590	-0.114560
O5	O	-3.987347	-0.132236	-0.111571
V6	V	-4.463160	-0.233233	-0.101847
O7	O	-4.231595	-0.277171	-0.148529
O8	O	-4.658487	-0.203053	-0.069783
O9	O	-4.288278	-0.234653	0.012867
O10	O	-4.591899	-0.238214	-0.224167
O11	O	-4.569934	-0.347988	-0.106741
O12	O	-4.310093	-0.125634	-0.103752
C13	C	-3.774122	-0.241743	-0.259147
C14	C	-3.815752	-0.241299	-0.352926
C15	C	-3.746295	-0.380807	-0.110387
C16	C	-3.770232	-0.468772	-0.109589
C17	C	-3.967196	-0.239722	-0.693686
C18	C	-3.732341	-0.235401	-0.652860
C19	C	-3.688774	-0.235549	-0.555261
C20	C	-3.892062	-0.240505	-0.524631
C21	C	-3.989800	-0.166774	-0.550074
C22	C	-4.031715	-0.166229	-0.647607
C23	C	-4.089632	-0.317561	-0.672785
C24	C	-4.042528	-0.318926	-0.575271
C25	C	-3.849610	-0.240945	-0.429088
C26	C	-4.009652	-0.239277	-0.789228
C27	C	-3.962768	-0.514138	-0.113424
C28	C	-3.985247	-0.596790	-0.112673
C29	C	-3.815192	-0.634074	-0.108093
C30	C	-3.622640	-0.588701	-0.104255
C31	C	-3.600160	-0.506050	-0.105000
C32	C	-3.873995	-0.883423	-0.105629
C33	C	-3.896492	-0.966080	-0.104887
C34	C	-4.259098	-0.974164	-0.113303
C35	C	-4.236603	-0.891512	-0.114052
C36	C	-4.044052	-0.846145	-0.110210
C37	C	-3.838167	-0.718557	-0.107328
C38	C	-4.021077	-0.761662	-0.110969
C39	C	-4.105898	-0.238478	0.040830
C40	C	-4.043505	-0.238928	0.134609
C41	C	-4.133726	-0.099412	-0.107928
C42	C	-4.089027	-0.011447	-0.108722
H43	H	-3.611984	-0.288235	-0.538291
Cl44	Cl	-4.275216	-0.331580	-0.544642
H45	H	-4.050747	-0.373476	-0.705240
H46	H	-3.717226	-0.846500	-0.102530
Cl47	Cl	-3.934780	-0.403160	-0.550970
Cl48	Cl	-4.221181	-0.168011	-0.519423
Cl49	Cl	-3.624399	-0.765438	-0.101584
Cl50	Cl	-4.176571	-0.467276	-0.119187
H51	H	-3.638549	-0.179262	-0.666416
Cl52	Cl	-4.354945	-0.323632	-0.714450
Cl53	Cl	-4.227308	-0.653821	-0.117506
H54	H	-4.375084	-0.861161	-0.117781
H55	H	-3.443369	-0.469110	-0.101856
Cl56	Cl	-3.825579	-0.077142	-0.495187
H57	H	-4.415866	-1.011110	-0.116430
Cl58	Cl	-3.682690	-1.012950	-0.099129
H59	H	-4.159532	-0.731301	-0.114695
Cl60	Cl	-3.510420	-0.148624	-0.502181
H61	H	-3.944462	-0.107666	-0.659166
H62	H	-3.675982	-0.287874	-0.683285
Cl63	Cl	-4.294214	-0.166152	-0.689056
H64	H	-3.484177	-0.619063	-0.100521
