data_functionalizedCrystal
_audit_creation_method	'MofGen! by Chris Wilmer'
_symmetry_space_group_name_H-M	'P1'
_symmetry_Int_Tables_number	1
_symmetry_cell_setting	triclinic
loop_
_symmetry_equiv_pos_as_xyz
  x,y,z
_cell_length_a	10.489716
_cell_length_b	10.489741
_cell_length_c	13.930277
_cell_angle_alpha	89.995758
_cell_angle_beta	89.993156
_cell_angle_gamma	84.534155
loop_
_atom_site_label
_atom_site_type_symbol
_atom_site_fract_x
_atom_site_fract_y
_atom_site_fract_z
O1	O	1.694077	0.179818	-0.079823
O2	O	1.322877	0.196743	-0.079826
O3	O	1.516924	0.002682	-0.079819
O4	O	1.500031	0.373879	-0.079830
O5	O	1.516896	0.002678	0.079843
O6	O	1.322850	0.196739	0.079836
O7	O	1.694050	0.179814	0.079839
Zn8	Zn	1.508446	0.188276	0.105187
Zn9	Zn	1.508481	0.188281	-0.105174
O10	O	1.500003	0.373875	0.079832
C11	C	1.275332	0.195470	0.000004
C12	C	1.133701	0.191665	0.000003
C13	C	1.036027	0.310669	-0.000003
C14	C	0.958667	0.247783	0.078725
C15	C	0.958701	0.247759	-0.078689
C16	C	1.058207	0.128828	0.078796
C17	C	1.058245	0.128822	-0.078689
C18	C	0.980935	0.065848	0.000058
C19	C	1.515634	-0.044852	0.000012
C20	C	1.511817	-0.186481	0.000010
C21	C	1.388351	-0.254610	0.000002
C22	C	1.446662	-0.346740	0.078724
C23	C	1.446718	-0.346710	-0.078690
C24	C	1.570179	-0.276745	0.078797
C25	C	1.570217	-0.276706	-0.078688
C26	C	1.628618	-0.368808	0.000054
C27	C	1.741596	0.181087	0.000007
C28	C	1.883227	0.184892	0.000002
C29	C	1.501293	0.421409	-0.000001
C30	C	1.505110	0.563038	-0.000005
N31	N	1.508430	0.188271	0.248753
N32	N	1.508507	0.188276	-0.248740
C33	C	1.422554	0.274178	0.701019
C34	C	1.594444	0.102376	0.700995
C35	C	1.594429	0.102371	0.600500
C36	C	1.508476	0.188273	0.550259
C37	C	1.422539	0.274179	0.600514
C38	C	1.680373	0.016476	0.550237
C39	C	1.680362	0.016469	0.449735
C40	C	1.594403	0.102366	0.399493
C41	C	1.508461	0.188274	0.449754
C42	C	1.422508	0.274176	0.399513
C43	C	1.336559	0.360079	0.449773
C44	C	1.336579	0.360075	0.550272
C45	C	1.594383	0.102369	0.298994
C46	C	1.422493	0.274177	0.299008
H47	H	0.915228	0.298022	-0.145238
H48	H	1.622363	-0.245920	0.145425
H49	H	1.394472	-0.377668	-0.145250
H50	H	1.664430	0.032443	0.741904
C51	C	1.706453	-0.156849	0.663261
C52	C	1.774837	-0.077943	0.605469
H53	H	1.764772	-0.215147	0.697360
H54	H	1.655276	-0.105684	0.707562
H55	H	1.652947	-0.203247	0.624050
H56	H	1.828337	-0.031538	0.644681
H57	H	1.826036	-0.129115	0.561163
H58	H	1.060696	0.414185	0.000067
C59	C	1.830080	-0.400247	0.082605
C60	C	1.765772	-0.435558	0.000112
H61	H	1.914749	-0.441465	0.082645
H62	H	1.833241	-0.310058	0.083128
H63	H	1.785872	-0.425292	0.137989
H64	H	1.809976	-0.410505	-0.055273
H65	H	1.762619	-0.525767	-0.000420
H66	H	1.750345	-0.053478	0.408820
H67	H	1.352495	0.344124	0.258109
H68	H	1.266604	0.430016	0.591199
H69	H	1.352572	0.344116	0.741943
H70	H	1.664367	0.032434	0.258077
C71	C	0.812125	0.417786	0.140645
C72	C	0.899937	0.315599	0.168565
H73	H	0.775865	0.459653	0.196106
H74	H	0.854780	0.476767	0.103585
H75	H	0.746162	0.386231	0.103321
H76	H	0.965905	0.347155	0.205883
H77	H	0.857280	0.256607	0.205641
C78	C	1.748250	-0.174426	-0.140659
C79	C	1.640699	-0.234786	-0.168533
H80	H	1.791757	-0.148551	-0.196132
H81	H	1.721837	-0.101425	-0.102714
H82	H	1.804105	-0.232378	-0.104239
H83	H	1.584839	-0.176831	-0.204947
H84	H	1.667110	-0.307797	-0.206494
C85	C	1.249661	0.065334	0.167950
C86	C	1.116653	0.061059	0.168744
H87	H	1.285740	0.023505	0.223484
H88	H	1.284604	0.023368	0.112124
H89	H	1.268840	0.152030	0.167721
H90	H	1.097474	-0.025638	0.168967
H91	H	1.081698	0.103021	0.224586
C92	C	1.260231	0.436356	0.295718
C93	C	1.242082	0.454501	0.394541
H94	H	1.201901	0.494643	0.261620
H95	H	1.345477	0.451040	0.279247
H96	H	1.245603	0.351082	0.279266
H97	H	1.256719	0.539773	0.410995
H98	H	1.156816	0.439827	0.411019
H99	H	1.101753	0.078625	-0.145246
H100	H	0.956505	-0.037744	0.000107
H101	H	1.286838	-0.204950	0.000080
H102	H	1.394409	-0.377749	0.145277
