data_functionalizedCrystal
_audit_creation_method	'MofGen! by Chris Wilmer'
_symmetry_space_group_name_H-M	'P1'
_symmetry_Int_Tables_number	1
_symmetry_cell_setting	triclinic
loop_
_symmetry_equiv_pos_as_xyz
  x,y,z
_cell_length_a	6.817900
_cell_length_b	10.943574
_cell_length_c	10.943624
_cell_angle_alpha	91.772393
_cell_angle_beta	108.838799
_cell_angle_gamma	108.837846
loop_
_atom_site_label
_atom_site_type_symbol
_atom_site_fract_x
_atom_site_fract_y
_atom_site_fract_z
V1	V	-4.115492	-0.178596	-0.402524
O2	O	-4.073204	0.008617	-0.394890
O3	O	-4.093439	-0.354160	-0.399743
O4	O	-4.093454	-0.175834	-0.578091
O5	O	-4.073188	-0.170944	-0.215308
V6	V	-4.592290	-0.156205	-0.380134
O7	O	-4.391502	-0.227713	-0.451636
O8	O	-4.766477	-0.107089	-0.331022
O9	O	-4.391136	0.019358	-0.382915
O10	O	-4.751974	-0.343419	-0.387769
O11	O	-4.751990	-0.163858	-0.567350
O12	O	-4.391120	-0.158968	-0.204568
C13	C	-3.943996	-0.396959	-0.393386
C14	C	-4.007427	-0.540485	-0.392284
C15	C	-3.890258	-0.703489	-0.384276
C16	C	-4.003635	-0.637681	-0.495234
C17	C	-3.893183	-0.604393	-0.281389
C18	C	-4.233990	-0.730421	-0.501411
C19	C	-4.123465	-0.697124	-0.287470
C20	C	-4.237013	-0.631364	-0.398458
C21	C	-3.944014	-0.169485	-0.620884
C22	C	-4.007454	-0.168388	-0.764411
C23	C	-3.852284	-0.161001	-0.841560
C24	C	-4.041640	-0.270645	-0.947533
C25	C	-3.931163	-0.056802	-0.914179
C26	C	-4.196021	-0.278135	-0.868507
C27	C	-4.085464	-0.064194	-0.835130
C28	C	-4.274957	-0.173870	-0.941074
C29	C	-4.203921	0.062151	-0.389268
C30	C	-4.119730	0.205675	-0.390379
C31	C	-4.203902	-0.165321	-0.161767
C32	C	-4.119700	-0.166411	-0.018239
H33	H	-3.952392	-0.611143	-0.583092
H34	H	-4.378572	-0.784968	-0.594490
N35	N	-3.697062	-0.745784	-0.376490
H36	H	-3.567932	-0.698143	-0.294225
H37	H	-3.652815	-0.724556	-0.455112
H38	H	-4.383203	-0.599718	-0.404497
N39	N	-3.701514	-0.531948	-0.158233
H40	H	-3.660642	-0.434802	-0.159476
H41	H	-3.570253	-0.558117	-0.153082
N42	N	-4.512473	-0.181107	-0.998358
H43	H	-4.601120	-0.261519	-1.066451
H44	H	-4.518136	-0.100698	-1.040109
N45	N	-4.191294	-0.732325	-0.171095
H46	H	-4.062988	-0.685981	-0.088040
H47	H	-4.235422	-0.829843	-0.171840
H48	H	-3.673084	-0.155707	-0.798112
N49	N	-3.783680	0.067108	-0.941650
H50	H	-3.624675	0.071848	-0.905281
H51	H	-3.798856	0.145070	-0.899003
H52	H	-4.023777	-0.357925	-0.996468
N53	N	-4.343577	-0.402178	-0.841291
H54	H	-4.299470	-0.402190	-0.743869
H55	H	-4.327299	-0.480016	-0.883394
H56	H	-4.103243	0.023090	-0.786160
