data_functionalizedCrystal
_audit_creation_method	'MofGen! by Chris Wilmer'
_symmetry_space_group_name_H-M	'P1'
_symmetry_Int_Tables_number	1
_symmetry_cell_setting	triclinic
loop_
_symmetry_equiv_pos_as_xyz
  x,y,z
_cell_length_a	16.959455
_cell_length_b	17.637651
_cell_length_c	16.959447
_cell_angle_alpha	78.752498
_cell_angle_beta	89.985299
_cell_angle_gamma	101.218339
loop_
_atom_site_label
_atom_site_type_symbol
_atom_site_fract_x
_atom_site_fract_y
_atom_site_fract_z
Zn1	Zn	1.144790	-0.314761	-0.383218
Zn2	Zn	1.644790	0.185239	0.116782
Zn3	Zn	1.117997	-0.446988	-0.224281
Zn4	Zn	1.617997	0.053012	0.275719
Zn5	Zn	1.012612	-0.314791	-0.251049
Zn6	Zn	1.512612	0.185209	0.248951
Zn7	Zn	0.985878	-0.446935	-0.356430
Zn8	Zn	1.485878	0.053065	0.143570
O9	O	1.065319	-0.380869	-0.303744
O10	O	1.565319	0.119131	0.196256
O11	O	1.251844	-0.332311	-0.362144
O12	O	1.751844	0.167689	0.137856
O13	O	1.103993	-0.429487	-0.117214
O14	O	1.603993	0.070513	0.382786
O15	O	1.052546	-0.204147	-0.290995
O16	O	1.552546	0.295853	0.209005
O17	O	1.232160	-0.429457	-0.245373
O18	O	1.732160	0.070543	0.254627
O19	O	1.149657	-0.204125	-0.388100
O20	O	1.649657	0.295875	0.111900
O21	O	1.026567	-0.332363	-0.136880
O22	O	1.526567	0.167637	0.363120
O23	O	0.898457	-0.332311	-0.265019
O24	O	1.398457	0.167689	0.234981
O25	O	1.006983	-0.429367	-0.470601
O26	O	1.506983	0.070633	0.029399
O27	O	0.878816	-0.429396	-0.342442
O28	O	1.378816	0.070604	0.157558
O29	O	1.123734	-0.332259	-0.490283
O30	O	1.623734	0.167741	0.009717
O31	O	1.078070	-0.557621	-0.219397
O32	O	1.578070	-0.057621	0.280603
O33	O	0.981003	-0.557582	-0.316486
O34	O	1.481003	-0.057582	0.183514
C35	C	0.859956	-0.380852	-0.303728
C36	C	1.359956	0.119148	0.196272
C37	C	0.772097	-0.380863	-0.303737
C38	C	1.272097	0.119137	0.196263
C39	C	1.023750	-0.586289	-0.262147
C40	C	1.523750	-0.086289	0.237853
C41	C	1.006039	-0.674169	-0.244378
C42	C	1.506039	-0.174169	0.255622
C43	C	0.720587	-0.431371	-0.242882
C44	C	1.220587	0.068629	0.257118
C45	C	0.741053	-0.330362	-0.364596
C46	C	1.241053	0.169638	0.135404
C47	C	0.658506	-0.330368	-0.364604
C48	C	1.158506	0.169632	0.135396
C49	C	0.606995	-0.380876	-0.303750
C50	C	1.106995	0.119124	0.196250
C51	C	0.638033	-0.431377	-0.242887
C52	C	1.138033	0.068623	0.257113
C53	C	0.627463	-0.279862	-0.425461
C54	C	1.127463	0.220138	0.074539
C55	C	0.544912	-0.279865	-0.425471
C56	C	1.044912	0.220135	0.074529
C57	C	0.493399	-0.330378	-0.364619
C58	C	0.993399	0.169622	0.135381
C59	C	0.524441	-0.380882	-0.303755
C60	C	1.024441	0.119118	0.196245
C61	C	0.472931	-0.431390	-0.242900
C62	C	0.972931	0.068610	0.257100
C63	C	0.503970	-0.481898	-0.182038
C64	C	1.003970	0.018102	0.317962
C65	C	0.586520	-0.481890	-0.182035
C66	C	1.086520	0.018110	0.317965
C67	C	0.410849	-0.330386	-0.364622
C68	C	0.910849	0.169614	0.135378
C69	C	0.390376	-0.431396	-0.242905
C70	C	0.890376	0.068604	0.257095
C71	C	1.200383	-0.962841	-0.438983
C72	C	1.700383	-0.462841	0.061017
C73	C	1.183715	-1.045418	-0.422273
C74	C	1.683715	-0.545418	0.077727
C75	C	1.082662	-1.045548	-0.321060
C76	C	1.582662	-0.545548	0.178940
C77	C	1.099323	-0.962970	-0.337759
C78	C	1.599323	-0.462970	0.162241
C79	C	1.158184	-0.921623	-0.396722
C80	C	1.658184	-0.421623	0.103278
C81	C	1.057125	-0.921752	-0.295499
C82	C	1.557125	-0.421752	0.204501
C83	C	1.073783	-0.839182	-0.312200
C84	C	1.573783	-0.339182	0.187800
C85	C	1.132639	-0.797829	-0.371162
C86	C	1.632639	-0.297829	0.128838
C87	C	1.174842	-0.839053	-0.413423
C88	C	1.674842	-0.339053	0.086577
C89	C	0.998260	-0.963101	-0.236540
C90	C	1.498260	-0.463101	0.263460
C91	C	0.956062	-0.921883	-0.194279
C92	C	1.456062	-0.421883	0.305721
C93	C	0.972723	-0.839311	-0.210976
C94	C	1.472723	-0.339311	0.289024
C95	C	1.031579	-0.797958	-0.269938
C96	C	1.531579	-0.297958	0.230062
C97	C	0.930520	-0.798087	-0.168714
C98	C	1.430520	-0.298087	0.331286
C99	C	0.947178	-0.715516	-0.185415
C100	C	1.447178	-0.215516	0.314585
C101	C	1.048237	-0.715387	-0.286639
C102	C	1.548237	-0.215387	0.213361
C103	C	1.271484	-0.380887	-0.303761
C104	C	1.771484	0.119113	0.196239
C105	C	1.359339	-0.380894	-0.303768
C106	C	1.859339	0.119106	0.196232
C107	C	1.065365	-0.380803	-0.509926
C108	C	1.565365	0.119197	-0.009926
C109	C	1.065385	-0.380775	-0.597788
C110	C	1.565385	0.119225	-0.097788
C111	C	1.107072	-0.174646	-0.345521
C112	C	1.607072	0.325354	0.154479
C113	C	1.124865	-0.086767	-0.363324
C114	C	1.624865	0.413233	0.136676
C115	C	1.004709	-0.431252	-0.959036
C116	C	1.504709	0.068748	-0.459036
C117	C	1.126283	-0.330133	-0.979526
C118	C	1.626283	0.169867	-0.479526
C119	C	1.126259	-0.330149	-0.896977
C120	C	1.626259	0.169851	-0.396977
C121	C	1.065459	-0.380719	-0.845453
C122	C	1.565459	0.119281	-0.345453
C123	C	1.004684	-0.431271	-0.876479
C124	C	1.504684	0.068729	-0.376479
C125	C	1.187038	-0.279603	-0.865943
C126	C	1.687038	0.220397	-0.365943
C127	C	1.187016	-0.279619	-0.783389
C128	C	1.687016	0.220381	-0.283389
C129	C	1.126212	-0.330185	-0.731865
C130	C	1.626212	0.169815	-0.231865
C131	C	1.065434	-0.380739	-0.762895
C132	C	1.565434	0.119261	-0.262895
C133	C	1.004635	-0.431308	-0.711372
C134	C	1.504635	0.068692	-0.211372
C135	C	0.943853	-0.481859	-0.742401
C136	C	1.443853	0.018141	-0.242401
C137	C	0.943880	-0.481838	-0.824954
C138	C	1.443880	0.018162	-0.324954
C139	C	1.126185	-0.330206	-0.649312
C140	C	1.626185	0.169794	-0.149312
C141	C	1.004610	-0.431328	-0.628814
C142	C	1.504610	0.068672	-0.128814
C143	C	1.065330	-0.380877	-0.098377
C144	C	1.565330	0.119123	0.401623
C145	C	1.065509	-0.380682	-0.010560
C146	C	1.565509	0.119318	0.489440
H147	H	0.348440	-0.472529	-0.193352
H148	H	0.848440	0.027471	0.306648
H149	H	1.236508	-0.238457	-0.758133
H150	H	1.736508	0.261543	-0.258133
Br151	Br	1.269553	-0.210986	-0.935868
Br152	Br	1.769553	0.289014	-0.435868
Br153	Br	0.368728	-0.261836	-0.447207
Br154	Br	0.868728	0.238164	0.052793
H155	H	0.669409	-0.238738	-0.475003
H156	H	1.169409	0.261262	0.024997
H157	H	0.894397	-0.522996	-0.850226
H158	H	1.394397	-0.022996	-0.350226
H159	H	0.745863	-0.472496	-0.193331
H160	H	1.245863	0.027504	0.306669
H161	H	1.096174	-0.681721	-0.334647
H162	H	1.596174	-0.181721	0.165353
H163	H	1.175674	-0.289051	-0.624051
H164	H	1.675674	0.210949	-0.124051
H165	H	0.519647	-0.238739	-0.475030
H166	H	1.019647	0.261261	0.024970
H167	H	1.146201	-0.730594	-0.384758
H168	H	1.646201	-0.230594	0.115242
Br169	Br	0.975783	-1.075163	-0.213744
Br170	Br	1.475783	-0.575163	0.286256
H171	H	0.908135	-0.955559	-0.146273
H172	H	1.408135	-0.455559	0.353727
Br173	Br	0.850626	-0.854210	-0.088711
Br174	Br	1.350626	-0.354210	0.411289
Br175	Br	0.434056	-0.550434	-0.099447
Br176	Br	0.934056	-0.050434	0.400553
Br177	Br	1.254738	-0.782931	-0.493433
Br178	Br	1.754738	-0.282931	0.006567
Br179	Br	0.628650	-0.550429	-0.099443
Br180	Br	1.128650	-0.050429	0.400557
H181	H	1.175787	-0.288966	-1.021480
H182	H	1.675787	0.211034	-0.521480
Br183	Br	0.810959	-0.261814	-0.447177
Br184	Br	1.310959	0.238186	0.052823
H185	H	1.248319	-0.929175	-0.486991
H186	H	1.748319	-0.429175	0.013009
Br187	Br	1.240996	-1.101355	-0.479630
Br188	Br	1.740996	-0.601355	0.020370
H189	H	1.034735	-1.079224	-0.273054
H190	H	1.534735	-0.579224	0.226946
H191	H	0.912814	-0.681956	-0.151003
H192	H	1.412814	-0.181956	0.348997
H193	H	0.955093	-0.472501	-0.586869
H194	H	1.455093	0.027499	-0.086869
Br195	Br	0.861347	-0.550493	-0.672466
Br196	Br	1.361347	-0.050493	-0.172466
Br197	Br	0.922219	-0.499849	-1.001145
Br198	Br	1.422219	0.000151	-0.501145
