data_functionalizedCrystal
_audit_creation_method	'MofGen! by Chris Wilmer'
_symmetry_space_group_name_H-M	'P1'
_symmetry_Int_Tables_number	1
_symmetry_cell_setting	triclinic
loop_
_symmetry_equiv_pos_as_xyz
  x,y,z
_cell_length_a	6.817900
_cell_length_b	9.582860
_cell_length_c	17.284648
_cell_angle_alpha	89.949012
_cell_angle_beta	103.040472
_cell_angle_gamma	111.206767
loop_
_atom_site_label
_atom_site_type_symbol
_atom_site_fract_x
_atom_site_fract_y
_atom_site_fract_z
V1	V	-4.045470	-0.178308	-0.245639
O2	O	-3.991516	0.038167	-0.241112
O3	O	-4.036400	-0.382023	-0.243816
O4	O	-3.987190	-0.162578	-0.352836
O5	O	-4.041066	-0.182796	-0.131337
V6	V	-4.525283	-0.153950	-0.231985
O7	O	-4.314869	-0.231741	-0.275590
O8	O	-4.706081	-0.100518	-0.202034
O9	O	-4.311147	0.049764	-0.233808
O10	O	-4.696634	-0.370426	-0.236512
O11	O	-4.647084	-0.149462	-0.346287
O12	O	-4.360356	-0.169680	-0.124788
C13	C	-3.891288	-0.432089	-0.239904
C14	C	-3.965092	-0.598545	-0.239128
C15	C	-3.828515	-0.152164	-0.378969
C16	C	-3.862408	-0.140651	-0.466602
C17	C	-3.943997	-0.270983	-0.518934
C18	C	-3.975851	-0.260162	-0.601274
C19	C	-3.926100	-0.119008	-0.631281
C20	C	-3.844510	0.011333	-0.578943
C21	C	-3.812672	0.000510	-0.496604
C22	C	-4.014291	-0.072086	-0.876340
C23	C	-4.046130	-0.061273	-0.958685
C24	C	-4.177473	-0.332770	-0.981011
C25	C	-4.145616	-0.343579	-0.898670
C26	C	-4.064040	-0.213239	-0.846339
N27	N	-3.958651	-0.107945	-0.715446
N28	N	-4.031504	-0.224304	-0.762176
C29	C	-4.119602	0.099823	-0.237718
C30	C	-4.025036	0.266278	-0.238499
C31	C	-4.182375	-0.180099	-0.098651
C32	C	-4.127719	-0.191605	-0.011017
H33	H	-4.042295	-0.366293	-0.643881
H34	H	-3.984498	-0.385925	-0.494509
H35	H	-4.186140	-0.458522	-0.874245
O36	O	-3.935425	0.054473	-0.825495
C37	C	-4.087146	0.049669	-0.781006
H38	H	-4.255660	-0.028774	-0.814818
H39	H	-4.041302	0.006532	-0.720733
C40	C	-3.880198	0.305003	-0.726626
C41	C	-4.087173	0.208668	-0.768158
H42	H	-3.880210	0.403081	-0.718697
H43	H	-3.777976	0.308239	-0.756597
H44	H	-3.842018	0.269037	-0.676403
H45	H	-4.125338	0.244624	-0.818384
H46	H	-4.189403	0.205442	-0.738195
O47	O	-3.998160	0.075867	-0.987810
C48	C	-4.124490	0.149149	-0.964700
H49	H	-4.275808	0.062089	-0.951253
H50	H	-4.025718	0.229036	-0.909090
C51	C	-4.005657	0.345816	-1.049258
C52	C	-4.191518	0.238886	-1.032748
H53	H	-4.046996	0.401177	-1.091230
H54	H	-3.920539	0.296449	-1.064825
H55	H	-3.923364	0.412374	-1.002910
H56	H	-4.273792	0.172320	-1.079092
H57	H	-4.276652	0.288245	-1.017190
H58	H	-4.243895	-0.438886	-1.023628
O59	O	-3.795842	0.148547	-0.607986
C60	C	-3.574032	0.235130	-0.577276
H61	H	-3.511551	0.190888	-0.519399
H62	H	-3.479159	0.227073	-0.622497
C63	C	-3.621036	0.454692	-0.631911
C64	C	-3.544301	0.400361	-0.560822
H65	H	-3.602692	0.556616	-0.621765
H66	H	-3.770472	0.396359	-0.652604
H67	H	-3.541966	0.447965	-0.669588
H68	H	-3.623388	0.407071	-0.523150
H69	H	-3.394876	0.458699	-0.540122
H70	H	-3.746237	0.106641	-0.453995
