data_functionalizedCrystal
_audit_creation_method	'MofGen! by Chris Wilmer'
_symmetry_space_group_name_H-M	'P1'
_symmetry_Int_Tables_number	1
_symmetry_cell_setting	triclinic
loop_
_symmetry_equiv_pos_as_xyz
  x,y,z
_cell_length_a	15.944545
_cell_length_b	19.188924
_cell_length_c	14.421503
_cell_angle_alpha	90.002214
_cell_angle_beta	89.995153
_cell_angle_gamma	83.319068
loop_
_atom_site_label
_atom_site_type_symbol
_atom_site_fract_x
_atom_site_fract_y
_atom_site_fract_z
O1	O	1.114193	0.090018	-0.077056
O2	O	1.614193	0.590018	0.422944
O3	O	0.869601	0.101124	-0.077072
O4	O	1.369601	0.601124	0.422928
O5	O	0.998958	-0.006067	-0.077052
O6	O	1.498958	0.493933	0.422948
O7	O	0.984836	0.197209	-0.077075
O8	O	1.484836	0.697209	0.422925
O9	O	0.998937	-0.006051	0.077171
O10	O	1.498937	0.493949	0.577171
O11	O	0.869579	0.101140	0.077152
O12	O	1.369579	0.601140	0.577152
O13	O	1.114172	0.090034	0.077167
O14	O	1.614172	0.590034	0.577167
Cu15	Cu	0.991874	0.095588	0.091242
Cu16	Cu	1.491874	0.595588	0.591242
Cu17	Cu	0.991899	0.095570	-0.091146
Cu18	Cu	1.491899	0.595570	0.408854
O19	O	0.984814	0.197225	0.077148
O20	O	1.484814	0.697225	0.577148
C21	C	0.838298	0.100672	0.000038
C22	C	1.338298	0.600672	0.500038
C23	C	0.745057	0.099292	0.000033
C24	C	1.245057	0.599292	0.500033
C25	C	0.474690	0.028726	0.000050
C26	C	0.974690	0.528726	0.500050
C27	C	0.525133	0.062755	0.076089
C28	C	1.025133	0.562755	0.576089
C29	C	0.409431	0.094371	0.000049
C30	C	0.909431	0.594371	0.500049
C31	C	0.525135	0.062757	-0.075963
C32	C	1.025135	0.562757	0.424037
C33	C	0.574336	0.096785	0.000040
C34	C	1.074336	0.596785	0.500040
C35	C	0.458646	0.128382	0.076151
C36	C	0.958646	0.628382	0.576151
C37	C	0.458644	0.128374	-0.075970
C38	C	0.958644	0.628374	0.424030
C39	C	0.509054	0.162451	0.000087
C40	C	1.009054	0.662451	0.500087
C41	C	0.314435	0.092978	0.000056
C42	C	0.814435	0.592978	0.500056
C43	C	0.669330	0.098183	0.000040
C44	C	1.169330	0.598183	0.500040
C45	C	0.998491	-0.032071	0.000060
C46	C	1.498491	0.467929	0.500060
C47	C	0.997121	-0.109579	0.000063
C48	C	1.497121	0.390421	0.500063
C49	C	0.996494	-0.145989	-0.084005
C50	C	1.496494	0.354011	0.415995
C51	C	0.995194	-0.218815	-0.084012
C52	C	1.495194	0.281185	0.415988
C53	C	0.994540	-0.255231	0.000053
C54	C	1.494540	0.244769	0.500053
C55	C	0.995163	-0.218812	0.084132
C56	C	1.495163	0.281188	0.584132
C57	C	0.996454	-0.145987	0.084136
C58	C	1.496454	0.354013	0.584136
N59	N	1.040304	-0.374770	0.062624
N60	N	1.540304	0.125230	0.562624
N61	N	1.039080	-0.443951	0.062613
N62	N	1.539080	0.056049	0.562613
C63	C	0.990649	-0.474650	0.000044
C64	C	1.490649	0.025350	0.500044
N65	N	0.943500	-0.433554	-0.062529
N66	N	1.443500	0.066446	0.437471
N67	N	0.944728	-0.364367	-0.062522
N68	N	1.444728	0.135633	0.437478
C69	C	0.993140	-0.334198	0.000057
C70	C	1.493140	0.165802	0.500057
C71	C	0.988612	-0.590025	-0.084037
C72	C	1.488612	-0.090025	0.415963
C73	C	0.987307	-0.662852	-0.084041
C74	C	1.487307	-0.162852	0.415959
C75	C	0.987284	-0.662849	0.084105
C76	C	1.487284	-0.162849	0.584105
C77	C	0.988580	-0.590022	0.084107
C78	C	1.488580	-0.090022	0.584107
C79	C	0.989248	-0.553615	0.000033
C80	C	1.489248	-0.053615	0.500033
C81	C	1.145475	0.090486	0.000056
C82	C	1.645475	0.590486	0.500056
C83	C	1.238716	0.091866	0.000055
C84	C	1.738716	0.591866	0.500055
C85	C	0.985281	0.223229	0.000034
C86	C	1.485281	0.723229	0.500034
C87	C	0.986651	0.300737	0.000025
C88	C	1.486651	0.800737	0.500025
N89	N	0.991862	0.095601	0.219523
N90	N	1.491862	0.595601	0.719523
N91	N	0.991917	0.095551	-0.219427
N92	N	1.491917	0.595551	0.280573
C93	C	0.932036	0.145144	0.469168
C94	C	1.432036	0.645144	0.969168
C95	C	1.007886	0.158698	0.530973
C96	C	1.507886	0.658698	1.030973
C97	C	0.991882	0.095585	0.408684
C98	C	1.491882	0.595585	0.908684
C99	C	0.916053	0.082047	0.530972
C100	C	1.416053	0.582047	1.030972
C101	C	0.991895	0.095570	0.591406
C102	C	1.491895	0.595570	1.091406
C103	C	1.067770	0.109170	0.469129
C104	C	1.567770	0.609170	0.969129
C105	C	0.975887	0.032492	0.469123
C106	C	1.475887	0.532492	0.969123
C107	C	1.051791	0.046018	0.530901
C108	C	1.551791	0.546018	1.030901
C109	C	0.991874	0.095595	0.303423
C110	C	1.491874	0.595595	0.803423
C111	C	0.991913	0.095559	0.696665
C112	C	1.491913	0.595559	1.196665
H113	H	0.554165	0.035016	-0.140244
H114	H	1.054165	0.535016	0.359756
Br115	Br	1.136240	-0.023851	0.575802
Br116	Br	1.636240	0.476149	1.075802
Br117	Br	0.989513	-0.540611	-0.198134
Br118	Br	1.489513	-0.040611	0.301866
H119	H	0.429723	0.156091	0.140504
H120	H	0.929723	0.656091	0.640504
H121	H	0.524332	0.219028	0.000126
H122	H	1.024332	0.719028	0.500126
Br123	Br	0.989428	-0.540606	0.198205
Br124	Br	1.489428	-0.040606	0.698205
Br125	Br	0.997301	-0.096570	0.198237
Br126	Br	1.497301	0.403430	0.698237
Br127	Br	0.997396	-0.096582	-0.198104
Br128	Br	1.497396	0.403418	0.301896
H129	H	0.851920	0.070604	0.558140
H130	H	1.351920	0.570604	1.058140
H131	H	0.994627	-0.248466	0.152578
H132	H	1.494627	0.251534	0.652578
Br133	Br	0.847769	0.215050	0.423984
Br134	Br	1.347769	0.715050	0.923984
H135	H	1.021427	0.212048	0.558141
H136	H	1.521427	0.712048	1.058141
H137	H	0.994678	-0.248464	-0.152472
H138	H	1.494678	0.251536	0.347528
H139	H	0.986792	-0.692495	-0.152501
H140	H	1.486792	-0.192495	0.347499
Br141	Br	0.448952	-0.065498	0.000178
Br142	Br	0.948952	0.434502	0.500178
Br143	Br	1.174689	0.128345	0.424050
Br144	Br	1.674689	0.628345	0.924050
H145	H	0.429602	0.156067	-0.140263
H146	H	0.929602	0.656067	0.359737
Br147	Br	0.953279	-0.056402	0.423803
Br148	Br	1.453279	0.443598	0.923803
Br149	Br	0.573509	0.016563	0.183249
Br150	Br	1.073509	0.516563	0.683249
Br151	Br	0.986387	-0.712261	0.198196
Br152	Br	1.486387	-0.212261	0.698196
