data_functionalizedCrystal
_audit_creation_method	'MofGen! by Chris Wilmer'
_symmetry_space_group_name_H-M	'P1'
_symmetry_Int_Tables_number	1
_symmetry_cell_setting	triclinic
loop_
_symmetry_equiv_pos_as_xyz
  x,y,z
_cell_length_a	6.817900
_cell_length_b	17.078472
_cell_length_c	12.908943
_cell_angle_alpha	96.404605
_cell_angle_beta	100.860631
_cell_angle_gamma	99.306020
loop_
_atom_site_label
_atom_site_type_symbol
_atom_site_fract_x
_atom_site_fract_y
_atom_site_fract_z
V1	V	-3.975581	-0.108777	-0.328577
O2	O	-3.985494	0.006246	-0.322431
O3	O	-3.906841	-0.216667	-0.326225
O4	O	-3.914260	-0.106657	-0.471929
O5	O	-3.978025	-0.104526	-0.175719
V6	V	-4.463519	-0.095072	-0.310307
O7	O	-4.227155	-0.138841	-0.368654
O8	O	-4.662142	-0.065008	-0.270229
O9	O	-4.309052	0.012818	-0.312659
O10	O	-4.571002	-0.210096	-0.316453
O11	O	-4.578472	-0.099324	-0.463165
O12	O	-4.301633	-0.097192	-0.166955
C13	C	-3.747312	-0.242982	-0.321015
C14	C	-3.772310	-0.331181	-0.320047
C15	C	-3.756775	-0.102652	-0.506873
C16	C	-3.787787	-0.101633	-0.624063
C17	C	-3.964910	-0.376642	-0.324847
C18	C	-3.988388	-0.459514	-0.323944
C19	C	-3.819262	-0.496923	-0.318234
C20	C	-3.626648	-0.451457	-0.313437
C21	C	-3.603175	-0.368587	-0.314347
C22	C	-3.870074	-0.744337	-0.314954
C23	C	-3.893563	-0.827213	-0.314041
C24	C	-4.255302	-0.835265	-0.324550
C25	C	-4.231809	-0.752392	-0.325454
C26	C	-4.039200	-0.706933	-0.320662
N27	N	-3.843255	-0.581631	-0.317307
N28	N	-4.015212	-0.622227	-0.321596
C29	C	-4.207829	-0.107590	-0.855003
C30	C	-4.236977	-0.106632	-0.965114
C31	C	-3.875233	-0.098754	-0.954396
C32	C	-3.846084	-0.099711	-0.844285
C33	C	-4.012391	-0.104131	-0.794593
C34	C	-3.983242	-0.105094	-0.684481
C35	C	-3.621498	-0.097210	-0.673764
C36	C	-3.650646	-0.096253	-0.783875
C37	C	-4.131922	0.039129	-0.317866
C38	C	-4.086162	0.127327	-0.318841
C39	C	-4.122461	-0.101199	-0.132006
C40	C	-4.070688	-0.102215	-0.014815
H41	H	-4.145220	-0.496525	-0.327854
H42	H	-3.755837	-0.857671	-0.309416
H43	H	-3.713242	-0.707334	-0.311046
H44	H	-3.462355	-0.094397	-0.624566
N45	N	-4.147327	-0.336296	-0.331015
H46	H	-4.125819	-0.294585	-0.265984
H47	H	-4.272814	-0.377725	-0.333960
N48	N	-3.444226	-0.491800	-0.307268
H49	H	-3.341234	-0.468101	-0.239483
H50	H	-3.381074	-0.483116	-0.370820
N51	N	-3.395438	-0.319556	-0.309176
H52	H	-3.300598	-0.324706	-0.241076
H53	H	-3.406406	-0.261405	-0.310669
H54	H	-4.369536	-0.721940	-0.330111
H55	H	-4.343246	-0.111196	-0.814545
H56	H	-4.118661	-0.108696	-0.644025
H57	H	-4.396120	-0.109449	-1.014297
H58	H	-3.739842	-0.095150	-0.994873
H59	H	-3.515251	-0.092652	-0.824348
H60	H	-4.412118	-0.872286	-0.328451
