data_functionalizedCrystal
_audit_creation_method	'MofGen! by Chris Wilmer'
_symmetry_space_group_name_H-M	'P1'
_symmetry_Int_Tables_number	1
_symmetry_cell_setting	triclinic
loop_
_symmetry_equiv_pos_as_xyz
  x,y,z
_cell_length_a	15.944551
_cell_length_b	11.026607
_cell_length_c	10.065875
_cell_angle_alpha	100.731764
_cell_angle_beta	81.256662
_cell_angle_gamma	96.042377
loop_
_atom_site_label
_atom_site_type_symbol
_atom_site_fract_x
_atom_site_fract_y
_atom_site_fract_z
O1	O	1.147764	0.138698	-0.113343
O2	O	1.647764	0.638698	0.386657
O3	O	0.906134	0.157989	-0.113377
O4	O	1.406134	0.657989	0.386623
O5	O	1.006922	-0.028311	-0.113358
O6	O	1.506922	0.471689	0.386642
O7	O	1.046975	0.324998	-0.113362
O8	O	1.546975	0.824998	0.386638
O9	O	0.987725	0.007357	0.113627
O10	O	1.487725	0.507357	0.613627
O11	O	0.886936	0.193656	0.113609
O12	O	1.386936	0.693656	0.613609
O13	O	1.128566	0.174365	0.113642
O14	O	1.628566	0.674365	0.613642
Zn15	Zn	1.004703	0.189674	0.149664
Zn16	Zn	1.504703	0.689674	0.649664
Zn17	Zn	1.029997	0.142680	-0.149399
Zn18	Zn	1.529997	0.642680	0.350601
O19	O	1.027778	0.360665	0.113623
O20	O	1.527778	0.860665	0.613623
C21	C	0.989935	-0.055689	0.000132
C22	C	1.489935	0.444311	0.500132
C23	C	0.967908	-0.190406	0.000124
C24	C	1.467908	0.309594	0.500124
C25	C	0.865120	0.175021	0.000112
C26	C	1.365120	0.675021	0.500112
C27	C	0.771512	0.172617	0.000099
C28	C	1.271512	0.672617	0.500099
C29	C	1.028728	-0.264206	0.000131
C30	C	1.528728	0.235794	0.500131
C31	C	1.005964	-0.403443	0.000123
C32	C	1.505964	0.096557	0.500123
C33	C	0.538329	0.051402	0.000127
C34	C	1.038329	0.551402	0.500127
C35	C	0.495283	0.090106	-0.111789
C36	C	0.995283	0.590106	0.388211
C37	C	0.600128	0.168275	0.000115
C38	C	1.100128	0.668275	0.500115
C39	C	0.476383	0.125299	0.112000
C40	C	0.976383	0.625299	0.612000
C41	C	0.434578	0.164073	0.000137
C42	C	0.934578	0.664073	0.500137
C43	C	0.558324	0.206997	-0.111894
C44	C	1.058324	0.706997	0.388106
C45	C	0.539418	0.242189	0.111996
C46	C	1.039418	0.742189	0.611996
C47	C	0.496406	0.280974	0.000053
C48	C	0.996406	0.780974	0.500053
C49	C	0.695497	0.170692	0.000101
C50	C	1.195497	0.670692	0.500101
C51	C	0.339212	0.161664	0.000141
C52	C	0.839212	0.661664	0.500141
C53	C	1.169580	0.157333	0.000151
C54	C	1.669580	0.657333	0.500151
C55	C	1.263189	0.159735	0.000154
C56	C	1.763189	0.659735	0.500154
C57	C	1.044765	0.388043	0.000130
C58	C	1.544765	0.888043	0.500130
C59	C	1.066792	0.522759	0.000129
C60	C	1.566792	1.022759	0.500129
N61	N	0.987447	0.221745	0.353766
N62	N	1.487447	0.721745	0.853766
N63	N	1.047258	0.110600	-0.353501
N64	N	1.547258	0.610600	0.146499
C65	C	1.023986	0.153831	0.421552
C66	C	1.523986	0.653831	0.921552
C67	C	1.010713	0.178523	0.578717
C68	C	1.510713	0.678523	1.078717
H69	H	1.097649	-0.224306	0.000149
H70	H	1.597649	0.275694	0.500149
H71	H	1.135728	-0.437366	0.000036
H72	H	1.635728	0.062634	0.500036
H73	H	0.937038	-0.443338	0.000104
H74	H	1.437038	0.056662	0.500104
Cl75	Cl	0.923971	0.339734	0.443796
Cl76	Cl	1.423971	0.839734	0.943796
Cl77	Cl	1.087226	0.035564	0.331523
Cl78	Cl	1.587226	0.535564	0.831523
H79	H	0.898987	-0.230306	0.000106
H80	H	1.398987	0.269694	0.500106
Cl81	Cl	0.947235	0.296518	0.668741
Cl82	Cl	1.447235	0.796518	1.168741
H83	H	0.557011	-0.045616	-0.000010
H84	H	1.057011	0.454384	0.499990
H85	H	1.088366	0.034167	0.588186
H86	H	1.588366	0.534167	1.088186
H87	H	0.593789	0.241509	-0.206613
H88	H	1.093789	0.741509	0.293387
Cl89	Cl	0.467875	0.430866	-0.000041
Cl90	Cl	0.967875	0.930866	0.499959
Cl91	Cl	0.465054	-0.009165	-0.257873
Cl92	Cl	0.965054	0.490835	0.242127
Cl93	Cl	0.421477	0.071904	0.258078
Cl94	Cl	0.921477	0.571904	0.758078
H95	H	0.559014	0.306450	0.206617
H96	H	1.059014	0.806450	0.706617
