data_functionalizedCrystal
_audit_creation_method	'MofGen! by Chris Wilmer'
_symmetry_space_group_name_H-M	'P1'
_symmetry_Int_Tables_number	1
_symmetry_cell_setting	triclinic
loop_
_symmetry_equiv_pos_as_xyz
  x,y,z
_cell_length_a	27.732048
_cell_length_b	27.732048
_cell_length_c	26.809956
_cell_angle_alpha	90.000636
_cell_angle_beta	89.996742
_cell_angle_gamma	97.357345
loop_
_atom_site_label
_atom_site_type_symbol
_atom_site_fract_x
_atom_site_fract_y
_atom_site_fract_z
O1	O	0.640931	-0.057510	-0.041421
O2	O	1.140931	0.442490	0.458579
O3	O	0.500138	-0.066256	-0.041436
O4	O	1.000138	0.433744	0.458564
O5	O	0.574907	0.008514	-0.041419
O6	O	1.074907	0.508514	0.458581
O7	O	0.566162	-0.132280	-0.041439
O8	O	1.066162	0.367720	0.458561
O9	O	0.574893	0.008502	0.041541
O10	O	1.074893	0.508502	0.541541
O11	O	0.500123	-0.066267	0.041523
O12	O	1.000123	0.433733	0.541523
O13	O	0.640917	-0.057522	0.041539
O14	O	1.140917	0.442478	0.541539
Zn15	Zn	0.570518	-0.061896	0.054702
Zn16	Zn	1.070518	0.438104	0.554702
Zn17	Zn	0.570536	-0.061881	-0.054600
Zn18	Zn	1.070536	0.438119	0.445400
O19	O	0.566147	-0.132291	0.041521
O20	O	1.066147	0.367709	0.541521
C21	C	0.482124	-0.066078	0.000041
C22	C	0.982124	0.433922	0.500041
C23	C	0.428469	-0.065525	0.000036
C24	C	0.928469	0.434475	0.500036
C25	C	0.574716	0.026515	0.000062
C26	C	1.074716	0.526515	0.500062
C27	C	0.574164	0.080170	0.000066
C28	C	1.074164	0.580170	0.500066
C29	C	0.089654	-0.106229	0.000051
C30	C	0.589654	0.393771	0.500051
C31	C	-0.112006	-0.104178	0.000056
C32	C	0.387994	0.395822	0.500056
O33	O	-0.143262	-0.141398	0.000073
O34	O	0.356738	0.358602	0.500073
N35	N	-0.131130	-0.059843	0.000062
N36	N	0.368870	0.440157	0.500062
C37	C	-0.099835	-0.016017	0.000069
C38	C	0.400165	0.483983	0.500069
O39	O	-0.120728	0.021740	0.000079
O40	O	0.379272	0.521740	0.500079
C41	C	0.101824	-0.018068	0.000068
C42	C	0.601824	0.481932	0.500068
C43	C	0.120944	-0.062407	0.000057
C44	C	0.620944	0.437593	0.500057
C45	C	0.108775	-0.150563	0.000042
C46	C	0.608775	0.349437	0.500042
C47	C	0.159187	-0.151076	0.000038
C48	C	0.659187	0.348924	0.500038
C49	C	0.190477	-0.107253	0.000044
C50	C	0.690477	0.392747	0.500044
C51	C	0.171356	-0.062919	0.000054
C52	C	0.671356	0.437081	0.500054
C53	C	0.133117	0.025757	0.000079
C54	C	0.633117	0.525757	0.500079
C55	C	0.183535	0.025240	0.000080
C56	C	0.683535	0.525240	0.500080
C57	C	0.202655	-0.019098	0.000069
C58	C	0.702655	0.480902	0.500069
C59	C	0.253059	-0.019609	0.000056
C60	C	0.753059	0.480391	0.500056
N61	N	0.272183	-0.063944	0.000050
N62	N	0.772183	0.436056	0.500050
C63	C	0.240892	-0.107766	0.000044
C64	C	0.740892	0.392234	0.500044
C65	C	-0.205709	-0.014943	0.000069
C66	C	0.294291	0.485057	0.500069
C67	C	-0.256124	-0.014430	0.000068
C68	C	0.243876	0.485570	0.500068
C69	C	-0.268291	-0.102591	0.000056
C70	C	0.231709	0.397409	0.500056
C71	C	-0.217876	-0.103104	0.000053
C72	C	0.282124	0.396896	0.500053
C73	C	-0.186585	-0.059278	0.000063
C74	C	0.313415	0.440722	0.500063
C75	C	0.346761	-0.108839	0.000036
C76	C	0.846761	0.391161	0.500036
C77	C	0.397178	-0.109347	0.000030
C78	C	0.897178	0.390653	0.500030
C79	C	0.409341	-0.021186	0.000044
C80	C	0.909341	0.478814	0.500044
C81	C	0.358929	-0.020678	0.000048
C82	C	0.858929	0.479322	0.500048
C83	C	0.327639	-0.064508	0.000045
C84	C	0.827639	0.435492	0.500045
O85	O	0.284343	0.017592	0.000045
O86	O	0.784343	0.517592	0.500045
O87	O	0.261794	-0.145518	0.000045
O88	O	0.761794	0.354482	0.500045
C89	C	0.039242	-0.105716	0.000055
C90	C	0.539242	0.394284	0.500055
C91	C	0.020120	-0.061382	0.000065
C92	C	0.520120	0.438618	0.500065
C93	C	0.051411	-0.017560	0.000071
C94	C	0.551411	0.482440	0.500071
C95	C	-0.030294	-0.060869	0.000065
C96	C	0.469706	0.439131	0.500065
C97	C	-0.061585	-0.104691	0.000059
C98	C	0.438415	0.395309	0.500059
C99	C	-0.042461	-0.149026	0.000053
C100	C	0.457539	0.350974	0.500053
C101	C	0.007951	-0.149539	0.000049
C102	C	0.507951	0.350461	0.500049
C103	C	0.032287	0.026775	0.000077
C104	C	0.532287	0.526775	0.500077
C105	C	-0.018125	0.027284	0.000080
C106	C	0.481875	0.527284	0.500080
C107	C	-0.049416	-0.016538	0.000074
C108	C	0.450584	0.483462	0.500074
C109	C	0.658931	-0.057699	0.000060
C110	C	1.158931	0.442301	0.500060
C111	C	0.712586	-0.058252	0.000062
C112	C	1.212586	0.441748	0.500062
C113	C	0.566338	-0.150292	0.000039
C114	C	1.066338	0.349708	0.500039
C115	C	0.566891	-0.203947	0.000031
C116	C	1.066891	0.296053	0.500031
N117	N	0.570509	-0.061906	0.129298
N118	N	1.070509	0.438094	0.629298
C119	C	0.614867	0.418985	0.000045
C120	C	1.114867	0.918985	0.500045
C121	C	0.612816	0.620645	0.000038
C122	C	1.112816	1.120645	0.500038
O123	O	0.650037	0.651900	0.000021
O124	O	1.150037	1.151900	0.500021
N125	N	0.568481	0.639768	0.000034
N126	N	1.068481	1.139768	0.500034
C127	C	0.524656	0.608474	0.000028
C128	C	1.024656	1.108474	0.500028
O129	O	0.486899	0.629367	0.000019
O130	O	0.986899	1.129367	0.500019
C131	C	0.526707	0.406815	0.000031
C132	C	1.026707	0.906815	0.500031
C133	C	0.571045	0.387694	0.000041
C134	C	1.071045	0.887694	0.500041
C135	C	0.659202	0.399864	0.000054
C136	C	1.159202	0.899864	0.500054
C137	C	0.659714	0.349452	0.000059
C138	C	1.159714	0.849452	0.500059
C139	C	0.615892	0.318161	0.000054
C140	C	1.115892	0.818161	0.500054
C141	C	0.571557	0.337282	0.000045
C142	C	1.071557	0.837282	0.500045
C143	C	0.482882	0.375521	0.000022
C144	C	0.982882	0.875521	0.500022
C145	C	0.483399	0.325104	0.000021
C146	C	0.983399	0.825104	0.500021
C147	C	0.527737	0.305983	0.000031
C148	C	1.027737	0.805983	0.500031
C149	C	0.528247	0.255580	0.000045
C150	C	1.028247	0.755580	0.500045
N151	N	0.572583	0.236456	0.000050
N152	N	1.072583	0.736456	0.500050
C153	C	0.616405	0.267747	0.000054
C154	C	1.116405	0.767747	0.500054
C155	C	0.523582	0.714348	0.000027
C156	C	1.023582	1.214348	0.500027
C157	C	0.523069	0.764762	0.000027
C158	C	1.023069	1.264762	0.500027
C159	C	0.611230	0.776930	0.000036
C160	C	1.111230	1.276930	0.500036
C161	C	0.611742	0.726514	0.000040
C162	C	1.111742	1.226514	0.500040
C163	C	0.567917	0.695224	0.000031
C164	C	1.067917	1.195224	0.500031
C165	C	0.617477	0.161878	0.000064
C166	C	1.117477	0.661878	0.500064
C167	C	0.617986	0.111461	0.000071
C168	C	1.117986	0.611461	0.500071
C169	C	0.529825	0.099298	0.000059
C170	C	1.029825	0.599298	0.500059
C171	C	0.529316	0.149710	0.000055
C172	C	1.029316	0.649710	0.500055
C173	C	0.573147	0.180999	0.000056
C174	C	1.073147	0.680999	0.500056
O175	O	0.491047	0.224296	0.000057
O176	O	0.991047	0.724296	0.500057
O177	O	0.654156	0.246844	0.000053
O178	O	1.154156	0.746844	0.500053
C179	C	0.614355	0.469397	0.000041
C180	C	1.114355	0.969397	0.500041
C181	C	0.570021	0.488518	0.000032
C182	C	1.070021	0.988518	0.500032
C183	C	0.526198	0.457228	0.000027
C184	C	1.026198	0.957228	0.500027
C185	C	0.569508	0.538933	0.000032
C186	C	1.069508	1.038933	0.500032
C187	C	0.613330	0.570223	0.000036
C188	C	1.113330	1.070223	0.500036
C189	C	0.657665	0.551100	0.000041
C190	C	1.157665	1.051100	0.500041
C191	C	0.658177	0.500688	0.000045
C192	C	1.158177	1.000688	0.500045
C193	C	0.481863	0.476351	0.000023
C194	C	0.981863	0.976351	0.500023
C195	C	0.481355	0.526764	0.000019
C196	C	0.981355	1.026764	0.500019
C197	C	0.525177	0.558054	0.000023
C198	C	1.025177	1.058054	0.500023
N199	N	0.570549	-0.061867	-0.129196
N200	N	1.070549	0.438133	0.370804
C201	C	0.603640	-0.028781	0.473932
C202	C	1.103640	0.471219	0.973932
C203	C	0.603652	-0.028774	0.682810
C204	C	1.103652	0.471226	1.182810
O205	O	0.631801	-0.000613	0.709820
O206	O	1.131801	0.499387	1.209820
N207	N	0.570539	-0.061870	0.708925
N208	N	1.070539	0.438130	1.208925
C209	C	0.537419	-0.094969	0.682818
C210	C	1.037419	0.405031	1.182818
O211	O	0.509252	-0.123116	0.709824
O212	O	1.009252	0.376884	1.209824
C213	C	0.537406	-0.094974	0.473941
C214	C	1.037406	0.405026	0.973941
C215	C	0.570524	-0.061878	0.447829
C216	C	1.070524	0.438122	0.947829
C217	C	0.636755	0.004312	0.447819
C218	C	1.136755	0.504312	0.947819
C219	C	0.636754	0.004308	0.395603
C220	C	1.136754	0.504308	0.895603
C221	C	0.603637	-0.028789	0.369500
C222	C	1.103637	0.471211	0.869500
C223	C	0.570522	-0.061882	0.395612
C224	C	1.070522	0.438118	0.895612
C225	C	0.504284	-0.128070	0.447835
C226	C	1.004284	0.371930	0.947835
C227	C	0.504283	-0.128067	0.395613
C228	C	1.004283	0.371933	0.895613
C229	C	0.537401	-0.094972	0.369500
C230	C	1.037401	0.405028	0.869500
C231	C	0.537405	-0.094983	0.317293
C232	C	1.037405	0.405017	0.817293
N233	N	0.570517	-0.061887	0.291177
N234	N	1.070517	0.438113	0.791177
C235	C	0.603633	-0.028790	0.317281
C236	C	1.103633	0.471210	0.817281
C237	C	0.537429	-0.094965	0.792481
C238	C	1.037429	0.405035	1.292481
C239	C	0.537433	-0.094964	0.844700
C240	C	1.037433	0.405036	1.344700
C241	C	0.603665	-0.028768	0.844689
C242	C	1.103665	0.471232	1.344689
C243	C	0.603663	-0.028772	0.792469
C244	C	1.103663	0.471228	1.292469
C245	C	0.570542	-0.061868	0.766366
C246	C	1.070542	0.438132	1.266366
C247	C	0.603628	-0.028801	0.207623
C248	C	1.103628	0.471199	0.707623
C249	C	0.603625	-0.028809	0.155402
C250	C	1.103625	0.471191	0.655402
C251	C	0.537392	-0.095003	0.155418
C252	C	1.037392	0.404997	0.655418
C253	C	0.537396	-0.094997	0.207635
C254	C	1.037396	0.405003	0.707635
C255	C	0.570516	-0.061892	0.233735
C256	C	1.070516	0.438108	0.733735
O257	O	0.509266	-0.123126	0.290250
O258	O	1.009266	0.376874	0.790250
O259	O	0.631789	-0.000640	0.290266
O260	O	1.131789	0.499360	0.790266
C261	C	0.603642	-0.028777	0.526149
C262	C	1.103642	0.471223	1.026149
C263	C	0.570527	-0.061870	0.552261
C264	C	1.070527	0.438130	1.052261
C265	C	0.537410	-0.094968	0.526158
C266	C	1.037410	0.405032	1.026158
C267	C	0.570531	-0.061870	0.604480
C268	C	1.070531	0.438130	1.104480
C269	C	0.603647	-0.028773	0.630584
C270	C	1.103647	0.471227	1.130584
C271	C	0.636759	0.004324	0.604468
C272	C	1.136759	0.504324	1.104468
C273	C	0.636758	0.004320	0.552252
C274	C	1.136758	0.504320	1.052252
C275	C	0.504298	-0.128064	0.552273
C276	C	1.004298	0.371936	1.052273
C277	C	0.504303	-0.128058	0.604489
C278	C	1.004303	0.371942	1.104489
C279	C	0.537419	-0.094961	0.630593
C280	C	1.037419	0.405039	1.130593
H281	H	0.412743	-0.145454	0.000021
H282	H	0.912743	0.354546	0.500021
O283	O	0.701235	0.482094	0.000139
O284	O	1.201235	0.982094	0.500139
C285	C	0.704164	0.453288	0.043098
C286	C	1.204164	0.953288	0.543098
H287	H	0.678990	0.465023	0.073127
H288	H	1.178990	0.965023	0.573127
H289	H	0.743155	0.458104	0.057523
H290	H	1.243155	0.958104	0.557523
H291	H	0.692718	0.413444	0.033384
H292	H	1.192718	0.913444	0.533384
H293	H	0.630597	-0.001843	0.228868
H294	H	1.130597	0.498157	0.728868
O295	O	0.440781	0.294778	0.000035
O296	O	0.940781	0.794778	0.500035
C297	C	0.401542	0.322470	0.000013
C298	C	0.901542	0.822470	0.500013
H299	H	0.414098	0.360191	0.015719
H300	H	0.914098	0.860191	0.515719
H301	H	0.370854	0.303651	0.024093
H302	H	0.870854	0.803651	0.524093
H303	H	0.387945	0.325961	-0.039790
H304	H	0.887945	0.825961	0.460210
O305	O	0.078404	-0.193149	-0.000055
O306	O	0.578404	0.306851	0.499945
C307	C	0.087043	-0.220082	-0.043020
C308	C	0.587043	0.279918	0.456980
H309	H	0.104461	-0.194421	-0.073043
H310	H	0.604461	0.305579	0.426957
H311	H	0.051134	-0.239744	-0.057450
H312	H	0.551134	0.260256	0.442550
H313	H	0.112518	-0.247860	-0.033311
H314	H	0.612518	0.252140	0.466689
O315	O	0.700279	0.581432	0.000066
O316	O	1.200279	1.081432	0.500066
C317	C	0.739526	0.553750	0.000058
C318	C	1.239526	1.053750	0.500058
H319	H	0.726974	0.516029	0.015767
H320	H	1.226974	1.016029	0.515767
H321	H	0.770202	0.572580	0.024143
H322	H	1.270202	1.072580	0.524143
H323	H	0.753138	0.550258	-0.039741
H324	H	1.253138	1.050258	0.460259
O325	O	0.668911	0.036437	0.526831
O326	O	1.168911	0.536437	1.026831
C327	C	0.698539	0.010817	0.496560
C328	C	1.198539	0.510817	0.996560
H329	H	0.699171	-0.027287	0.512292
H330	H	1.199171	0.472713	1.012292
H331	H	0.737075	0.030877	0.495901
H332	H	1.237075	0.530877	0.995901
H333	H	0.683329	0.008144	0.457011
H334	H	1.183329	0.508144	0.957011
O335	O	0.472195	-0.160257	0.629875
O336	O	0.972195	0.339743	1.129875
C337	C	0.497849	-0.189896	0.660093
C338	C	0.997849	0.310104	1.160093
H339	H	0.535964	-0.190456	0.644359
H340	H	1.035964	0.309544	1.144359
H341	H	0.477834	-0.228452	0.660685
H342	H	0.977834	0.271548	1.160685
H343	H	0.500494	-0.174749	0.699668
H344	H	1.000494	0.325251	1.199668
H345	H	0.647846	0.710950	0.000047
H346	H	1.147846	1.210950	0.500047
H347	H	0.493213	0.165279	0.000061
H348	H	0.993213	0.665279	0.500061
H349	H	0.494146	0.073812	0.000057
H350	H	0.994146	0.573812	0.500057
H351	H	-0.293777	-0.138273	0.000051
H352	H	0.206223	0.361727	0.500051
O353	O	0.472196	-0.160240	0.526867
O354	O	0.972196	0.339760	1.026867
C355	C	0.497859	-0.189896	0.496675
C356	C	0.997859	0.310104	0.996675
H357	H	0.535824	-0.170380	0.488840
H358	H	1.035824	0.329620	0.988840
H359	H	0.477622	-0.197695	0.459959
H360	H	0.977622	0.302305	0.959959
H361	H	0.500882	-0.225593	0.516809
H362	H	1.000882	0.274407	1.016809
H363	H	0.477317	-0.155019	0.469089
H364	H	0.977317	0.344981	0.969089
O365	O	0.316440	-0.151459	0.000007
O366	O	0.816440	0.348541	0.500007
C367	C	0.344137	-0.190694	0.000009
C368	C	0.844137	0.309306	0.500009
H369	H	0.381857	-0.178127	-0.015694
H370	H	0.881857	0.321873	0.484306
H371	H	0.325321	-0.221372	-0.024084
H372	H	0.825321	0.278628	0.475916
H373	H	0.347627	-0.204311	0.039805
H374	H	0.847627	0.295689	0.539805
H375	H	0.510433	-0.121951	0.228896
H376	H	1.010433	0.378049	0.728896
H377	H	0.174750	-0.187180	0.000029
H378	H	0.674750	0.312820	0.500029
H379	H	0.446177	0.450879	0.000018
H380	H	0.946177	0.950879	0.500018
H381	H	0.630595	-0.001859	0.134142
H382	H	1.130595	0.498141	0.634142
O383	O	0.668939	0.036508	0.370318
O384	O	1.168939	0.536508	0.870318
C385	C	0.698172	0.065710	0.404564
C386	C	1.198172	0.565710	0.904564
H387	H	0.678356	0.066113	0.441789
H388	H	1.178356	0.566113	0.941789
H389	H	0.705833	0.104367	0.389482
H390	H	1.205833	0.604367	0.889482
H391	H	0.733962	0.050263	0.410115
H392	H	1.233962	0.550263	0.910115
H393	H	0.510430	-0.121952	0.134157
H394	H	1.010430	0.378048	0.634157
O395	O	0.114632	0.068870	0.000116
O396	O	0.614632	0.568870	0.500116
C397	C	0.153070	0.107432	0.000113
C398	C	0.653070	0.607432	0.500113
H399	H	0.187219	0.094131	0.015811
H400	H	0.687219	0.594131	0.515811
H401	H	0.142766	0.138404	0.024210
H402	H	0.642766	0.638404	0.524210
H403	H	0.160305	0.120942	-0.039682
H404	H	0.660305	0.620942	0.460318
H405	H	0.630630	-0.001822	0.771211
H406	H	1.130630	0.498178	1.271211
H407	H	0.663726	0.031271	0.625730
H408	H	1.163726	0.531271	1.125730
O409	O	0.635786	0.003366	0.870128
O410	O	1.135786	0.503366	1.370128
C411	C	0.628691	-0.003743	0.921816
C412	C	1.128691	0.496257	1.421816
H413	H	0.590128	-0.022081	0.928946
H414	H	1.090128	0.477919	1.428946
H415	H	0.634337	0.032901	0.941664
H416	H	1.134337	0.532901	1.441664
H417	H	0.655871	-0.027795	0.936633
H418	H	1.155871	0.472205	1.436633
O419	O	-0.199384	-0.146216	0.000069
O420	O	0.300616	0.353784	0.500069
C421	C	-0.237819	-0.184781	0.000048
C422	C	0.262181	0.315219	0.500048
H423	H	-0.271972	-0.171491	0.015754
H424	H	0.228028	0.328509	0.515754
H425	H	-0.227515	-0.215763	0.024129
H426	H	0.272485	0.284237	0.524129
H427	H	-0.245048	-0.198273	-0.039754
H428	H	0.254952	0.301727	0.460246
H429	H	0.209009	0.060929	0.000089
H430	H	0.709009	0.560929	0.500089
H431	H	0.057760	0.062462	0.000083
H432	H	0.557760	0.562462	0.500083
O433	O	0.660022	0.192316	0.000134
O434	O	1.160022	0.692316	0.500134
C435	C	0.662364	0.221835	0.043105
C436	C	1.162364	0.721835	0.543105
H437	H	0.624014	0.224112	0.057421
H438	H	1.124014	0.724112	0.557421
H439	H	0.680668	0.259859	0.033443
H440	H	1.180668	0.759859	0.533443
H441	H	0.684303	0.205405	0.073196
H442	H	1.184303	0.705405	0.573196
O443	O	-0.274614	0.028683	0.000094
O444	O	0.225386	0.528683	0.500094
C445	C	-0.236179	0.067248	0.000088
C446	C	0.263821	0.567248	0.500088
H447	H	-0.202029	0.053953	0.015792
H448	H	0.297971	0.553953	0.515792
H449	H	-0.246487	0.098223	0.024179
H450	H	0.253513	0.598223	0.524179
H451	H	-0.228943	0.080752	-0.039709
H452	H	0.271057	0.580752	0.460291
O453	O	0.505312	-0.127098	0.870140
O454	O	1.005312	0.372902	1.370140
C455	C	0.512403	-0.119997	0.921829
C456	C	1.012403	0.380003	1.421829
H457	H	0.550968	-0.101667	0.928962
H458	H	1.050968	0.398333	1.428962
H459	H	0.506747	-0.156642	0.941673
H460	H	1.006747	0.343358	1.441673
H461	H	0.485227	-0.095939	0.936650
H462	H	0.985227	0.404061	1.436650
O463	O	0.668862	0.036511	0.473194
O464	O	1.168862	0.536511	0.973194
C465	C	0.643212	0.066155	0.503414
C466	C	1.143212	0.566155	1.003414
H467	H	0.605095	0.066711	0.487690
H468	H	1.105095	0.566711	0.987690
H469	H	0.663226	0.104712	0.503996
H470	H	1.163226	0.604712	1.003996
H471	H	0.640575	0.051015	0.542992
H472	H	1.140575	0.551015	1.042992
O473	O	0.653755	0.807399	0.000014
O474	O	1.153755	1.307399	0.500014
C475	C	0.643789	0.855994	0.000024
C476	C	1.143789	1.355994	0.500024
H477	H	0.605835	0.857643	-0.015679
H478	H	1.105835	1.357643	0.484321
H479	H	0.671742	0.879042	-0.024065
H480	H	1.171742	1.379042	0.475935
H481	H	0.645731	0.870592	0.039823
H482	H	1.145731	1.370592	0.539823
O483	O	-0.175269	0.027601	0.000007
O484	O	0.324731	0.527601	0.500007
C485	C	-0.145749	0.029956	-0.042965
C486	C	0.354251	0.529956	0.457035
H487	H	-0.143471	-0.008390	-0.057292
H488	H	0.356529	0.491610	0.442708
H489	H	-0.107726	0.048258	-0.033302
H490	H	0.392274	0.548258	0.466698
H491	H	-0.162180	0.051903	-0.073050
H492	H	0.337820	0.551903	0.426950
H493	H	0.434827	0.014492	0.000047
H494	H	0.934827	0.514492	0.500047
O495	O	0.340432	0.022434	0.000073
O496	O	0.840432	0.522434	0.500073
C497	C	0.378864	0.061002	0.000060
C498	C	0.878864	0.561002	0.500060
H499	H	0.413017	0.047711	0.015760
H500	H	0.913017	0.547711	0.515760
H501	H	0.368556	0.091977	0.024151
H502	H	0.868556	0.591977	0.524151
H503	H	0.386094	0.074504	-0.039739
H504	H	0.886094	0.574504	0.460261
O505	O	0.438238	0.545254	-0.000012
O506	O	0.938238	1.045254	0.499988
C507	C	0.399673	0.506819	-0.000003
C508	C	0.899673	1.006819	0.499997
H509	H	0.412970	0.472666	-0.015701
H510	H	0.912970	0.972666	0.484299
H511	H	0.368701	0.517123	-0.024098
H512	H	0.868701	1.017123	0.475902
H513	H	0.386164	0.499589	0.039794
H514	H	0.886164	0.999589	0.539794
O515	O	0.661046	0.092864	0.000166
O516	O	1.161046	0.592864	0.500166
C517	C	0.663971	0.064060	0.043127
C518	C	1.163971	0.564060	0.543127
H519	H	0.638798	0.075799	0.073155
H520	H	1.138798	0.575799	0.573155
H521	H	0.702961	0.068873	0.057552
H522	H	1.202961	0.568873	0.557552
H523	H	0.652521	0.024216	0.033415
H524	H	1.152521	0.524216	0.533415
O525	O	0.026441	-0.192652	0.000065
O526	O	0.526441	0.307348	0.500065
C527	C	-0.011996	-0.231215	0.000048
C528	C	0.488004	0.268785	0.500048
H529	H	-0.046147	-0.217922	0.015756
H530	H	0.453853	0.282078	0.515756
H531	H	-0.001693	-0.262197	0.024129
H532	H	0.498307	0.237803	0.524129
H533	H	-0.019229	-0.244708	-0.039754
H534	H	0.480771	0.255292	0.460246
O535	O	-0.036615	0.070400	0.000111
O536	O	0.463385	0.570400	0.500111
C537	C	0.001820	0.108965	0.000105
C538	C	0.501820	0.608965	0.500105
H539	H	0.035971	0.095669	0.015802
H540	H	0.535971	0.595669	0.515802
H541	H	-0.008486	0.139938	0.024200
H542	H	0.491514	0.639938	0.524200
H543	H	0.009052	0.122473	-0.039692
H544	H	0.509052	0.622473	0.460308
O545	O	-0.072911	-0.191564	-0.000019
O546	O	0.427089	0.308436	0.499981
C547	C	-0.102428	-0.193902	-0.042989
C548	C	0.397572	0.306098	0.457011
H549	H	-0.104690	-0.155552	-0.057309
H550	H	0.395310	0.344448	0.442691
H551	H	-0.140457	-0.212193	-0.033325
H552	H	0.359543	0.287807	0.466675
H553	H	-0.086005	-0.215853	-0.073078
H554	H	0.413995	0.284147	0.426922
H555	H	0.477310	-0.155018	0.374362
H556	H	0.977310	0.344982	0.874362
O557	O	0.702797	0.330906	-0.000025
O558	O	1.202797	0.830906	0.499975
C559	C	0.729495	0.346943	-0.042983
C560	C	1.229495	0.846943	0.457017
H561	H	0.703563	0.357235	-0.073015
H562	H	1.203563	0.857235	0.426985
H563	H	0.749836	0.316554	-0.057404
H564	H	1.249836	0.816554	0.442596
H565	H	0.756675	0.380005	-0.033267
H566	H	1.256675	0.880005	0.466733
O567	O	0.701762	0.430274	-0.000029
O568	O	1.201762	0.930274	0.499971
C569	C	0.704116	0.459812	-0.042986
C570	C	1.204116	0.959812	0.457014
H571	H	0.679260	0.441173	-0.073022
H572	H	1.179260	0.941173	0.426978
H573	H	0.743100	0.465757	-0.057400
H574	H	1.243100	0.965757	0.442600
H575	H	0.691892	0.496389	-0.033273
H576	H	1.191892	0.996389	0.466727
O577	O	0.479956	0.783252	0.000001
O578	O	0.979956	1.283252	0.500001
C579	C	0.441391	0.744818	0.000008
C580	C	0.941391	1.244818	0.500008
H581	H	0.454686	0.710667	-0.015695
H582	H	0.954686	1.210667	0.484305
H583	H	0.410417	0.755124	-0.024082
H584	H	0.910417	1.255124	0.475918
H585	H	0.427885	0.737584	0.039806
H586	H	0.927885	1.237584	0.539806
O587	O	0.481039	0.683906	0.000088
O588	O	0.981039	1.183906	0.500088
C589	C	0.478682	0.654388	0.043059
C590	C	0.978682	1.154388	0.543059
H591	H	0.517027	0.652113	0.057387
H592	H	1.017027	1.152113	0.557387
H593	H	0.460382	0.616363	0.033395
H594	H	0.960382	1.116363	0.533395
H595	H	0.456730	0.670818	0.073143
H596	H	0.956730	1.170818	0.573143
H597	H	0.510457	-0.121917	0.771232
H598	H	1.010457	0.378083	1.271232
H599	H	0.446777	0.391080	0.000011
H600	H	0.946777	0.891080	0.500011
