data_functionalizedCrystal
_audit_creation_method	'MofGen! by Chris Wilmer'
_symmetry_space_group_name_H-M	'P1'
_symmetry_Int_Tables_number	1
_symmetry_cell_setting	triclinic
loop_
_symmetry_equiv_pos_as_xyz
  x,y,z
_cell_length_a	16.992694
_cell_length_b	19.188930
_cell_length_c	16.053802
_cell_angle_alpha	92.551696
_cell_angle_beta	87.249047
_cell_angle_gamma	86.906503
loop_
_atom_site_label
_atom_site_type_symbol
_atom_site_fract_x
_atom_site_fract_y
_atom_site_fract_z
O1	O	1.043197	0.145267	-0.069340
O2	O	1.376530	0.478600	0.263993
O3	O	1.709863	0.811934	0.597327
O4	O	0.814918	0.143642	-0.069364
O5	O	1.148252	0.476976	0.263969
O6	O	1.481585	0.810309	0.597302
O7	O	0.935644	0.043185	-0.069335
O8	O	1.268978	0.376519	0.263998
O9	O	1.602311	0.709852	0.597331
O10	O	0.922471	0.245724	-0.069369
O11	O	1.255804	0.579057	0.263964
O12	O	1.589137	0.912391	0.597297
O13	O	0.928999	0.048690	0.069522
O14	O	1.262333	0.382024	0.402855
O15	O	1.595666	0.715357	0.736189
O16	O	0.808273	0.149147	0.069493
O17	O	1.141607	0.482481	0.402826
O18	O	1.474940	0.815814	0.736159
O19	O	1.036552	0.150772	0.069517
O20	O	1.369885	0.484106	0.402851
O21	O	1.703218	0.817439	0.736184
Zn22	Zn	0.921357	0.150834	0.091552
Zn23	Zn	1.254691	0.484167	0.424885
Zn24	Zn	1.588024	0.817501	0.758218
Zn25	Zn	0.930113	0.143581	-0.091399
Zn26	Zn	1.263446	0.476914	0.241934
Zn27	Zn	1.596779	0.810247	0.575268
O28	O	0.915826	0.251229	0.069488
O29	O	1.249159	0.584563	0.402821
O30	O	1.582492	0.917896	0.736155
C31	C	0.782390	0.144306	0.000061
C32	C	1.115724	0.477639	0.333395
C33	C	1.449057	0.810972	0.666728
C34	C	0.695368	0.138072	0.000053
C35	C	1.028701	0.471406	0.333386
C36	C	1.362035	0.804739	0.666719
C37	C	0.931895	0.019902	0.000096
C38	C	1.265228	0.353235	0.333429
C39	C	1.598562	0.686569	0.666762
C40	C	0.930614	-0.057677	0.000103
C41	C	1.263947	0.275656	0.333436
C42	C	1.597281	0.608989	0.666769
C43	C	0.644922	0.198212	0.000043
C44	C	0.978255	0.531545	0.333377
C45	C	1.311588	0.864878	0.666710
C46	C	0.563155	0.192351	0.000056
C47	C	0.896488	0.525685	0.333389
C48	C	1.229821	0.859018	0.666722
C49	C	0.531836	0.126351	0.000072
C50	C	0.865169	0.459684	0.333405
C51	C	1.198502	0.793018	0.666738
C52	C	0.582288	0.066208	0.000084
C53	C	0.915622	0.399541	0.333417
C54	C	1.248955	0.732874	0.666750
C55	C	0.664054	0.072069	0.000077
C56	C	0.997387	0.405402	0.333410
C57	C	1.330720	0.738735	0.666744
C58	C	0.288320	0.102059	0.000098
C59	C	0.621653	0.435393	0.333431
C60	C	0.954987	0.768726	0.666765
C61	C	0.206548	0.096203	0.000102
C62	C	0.539882	0.429536	0.333435
C63	C	0.873215	0.762869	0.666769
C64	C	0.187420	0.222347	0.000076
C65	C	0.520754	0.555680	0.333409
C66	C	0.854087	0.889014	0.666742
C67	C	0.269188	0.228202	0.000064
C68	C	0.602522	0.561536	0.333398
C69	C	0.935855	0.894869	0.666731
C70	C	0.319633	0.168059	0.000081
C71	C	0.652967	0.501392	0.333414
C72	C	0.986300	0.834725	0.666747
N73	N	0.448257	0.120359	0.000082
N74	N	0.781590	0.453693	0.333415
N75	N	1.114924	0.787026	0.666749
N76	N	0.403210	0.174051	0.000076
N77	N	0.736544	0.507385	0.333410
N78	N	1.069877	0.840718	0.666743
C79	C	1.001452	-0.098456	0.000114
C80	C	1.334786	0.234878	0.333448
C81	C	1.668119	0.568211	0.666781
C82	C	1.000250	-0.171350	0.000101
C83	C	1.333583	0.161983	0.333434
C84	C	1.666916	0.495316	0.666768
C85	C	0.928204	-0.203463	0.000093
C86	C	1.261537	0.129870	0.333426
C87	C	1.594870	0.463204	0.666759
C88	C	0.857356	-0.162676	0.000076
C89	C	1.190690	0.170658	0.333410
C90	C	1.524023	0.503991	0.666743
C91	C	0.858561	-0.089783	0.000081
C92	C	1.191895	0.243550	0.333415
C93	C	1.525228	0.576884	0.666748
N94	N	0.870872	-0.312817	0.047342
N95	N	1.204205	0.020516	0.380676
N96	N	1.537539	0.353849	0.714009
N97	N	0.869732	-0.382063	0.047339
N98	N	1.203065	-0.048729	0.380673
N99	N	1.536399	0.284604	0.714006
C100	C	0.924569	-0.423085	0.000075
C101	C	1.257902	-0.089752	0.333409
C102	C	1.591236	0.243581	0.666742
N103	N	0.980600	-0.392247	-0.047175
N104	N	1.313934	-0.058913	0.286158
N105	N	1.647267	0.274420	0.619492
N106	N	0.981742	-0.322995	-0.047168
N107	N	1.315076	0.010339	0.286165
N108	N	1.648409	0.343672	0.619498
C109	C	0.926889	-0.282503	0.000086
C110	C	1.260223	0.050831	0.333420
C111	C	1.593556	0.384164	0.666753
C112	C	0.994108	-0.542905	0.000071
C113	C	1.327442	-0.209571	0.333404
C114	C	1.660775	0.123762	0.666738
C115	C	0.992903	-0.615801	0.000052
C116	C	1.326236	-0.282467	0.333386
C117	C	1.659569	0.050866	0.666719
C118	C	0.850007	-0.607124	0.000036
C119	C	1.183340	-0.273791	0.333369
C120	C	1.516674	0.059542	0.666703
C121	C	0.851215	-0.534230	0.000046
C122	C	1.184548	-0.200897	0.333380
C123	C	1.517881	0.132437	0.666713
C124	C	0.923267	-0.502125	0.000068
C125	C	1.256601	-0.168791	0.333401
C126	C	1.589934	0.164542	0.666734
C127	C	1.069080	0.150109	0.000090
C128	C	1.402413	0.483442	0.333423
C129	C	1.735746	0.816775	0.666756
C130	C	1.156102	0.156342	0.000093
C131	C	1.489436	0.489675	0.333426
C132	C	1.822769	0.823008	0.666759
C133	C	0.919575	0.274513	0.000055
C134	C	1.252908	0.607846	0.333388
C135	C	1.586242	0.941179	0.666722
C136	C	0.920856	0.352091	0.000043
C137	C	1.254190	0.685425	0.333376
C138	C	1.587523	1.018758	0.666709
N139	N	0.915388	0.155784	0.216410
N140	N	1.248721	0.489117	0.549744
N141	N	1.582055	0.822451	0.883077
N142	N	0.936088	0.138625	-0.216258
N143	N	1.269421	0.471959	0.117076
N144	N	1.602755	0.805292	0.450409
C145	C	0.966776	0.113057	0.260117
C146	C	1.300109	0.446390	0.593450
C147	C	1.633442	0.779723	0.926784
C148	C	0.962607	0.116526	0.347523
C149	C	1.295941	0.449860	0.680856
C150	C	1.629274	0.783193	1.014189
C151	C	0.907054	0.162727	0.391220
C152	C	1.240388	0.496061	0.724554
C153	C	1.573721	0.829394	1.057887
C154	C	0.855661	0.205456	0.347508
C155	C	1.188995	0.538790	0.680841
C156	C	1.522328	0.872123	1.014175
C157	C	0.859826	0.201983	0.260104
C158	C	1.193160	0.535316	0.593437
C159	C	1.526493	0.868649	0.926770
C160	C	0.888860	0.177881	0.652626
C161	C	1.222193	0.511214	0.985959
C162	C	1.555527	0.844547	1.319292
C163	C	0.884700	0.181353	0.740036
C164	C	1.218034	0.514686	1.073369
C165	C	1.551367	0.848019	1.406703
C166	C	0.991646	0.092421	0.740045
C167	C	1.324979	0.425755	1.073378
C168	C	1.658313	0.759088	1.406711
C169	C	0.995810	0.088955	0.652639
C170	C	1.329143	0.422288	0.985972
C171	C	1.662476	0.755621	1.319305
C172	C	0.944414	0.131681	0.608934
C173	C	1.277747	0.465014	0.942267
C174	C	1.611080	0.798348	1.275601
N175	N	0.902794	0.166276	0.480563
N176	N	1.236127	0.499610	0.813896
N177	N	1.569461	0.832943	1.147230
N178	N	0.948671	0.128128	0.519593
N179	N	1.282004	0.461461	0.852926
N180	N	1.615338	0.794795	1.186259
H181	H	0.670415	0.251956	0.000030
H182	H	1.003748	0.585289	0.333363
H183	H	1.337081	0.918623	0.666696
H184	H	0.522084	0.241323	0.000047
H185	H	0.855417	0.574657	0.333380
H186	H	1.188751	0.907990	0.666714
H187	H	0.793530	-0.501027	0.000042
H188	H	1.126863	-0.167694	0.333375
H189	H	1.460197	0.165639	0.666708
H190	H	1.050591	-0.649002	0.000057
H191	H	1.383924	-0.315669	0.333390
H192	H	1.717257	0.017665	0.666724
Cl193	Cl	0.308554	0.311177	0.000039
Cl194	Cl	0.641888	0.644510	0.333372
Cl195	Cl	0.975221	0.977844	0.666705
H196	H	0.800874	-0.056581	0.000072
H197	H	1.134208	0.276752	0.333406
H198	H	1.467541	0.610086	0.666739
Cl199	Cl	1.036621	0.054975	0.205192
Cl200	Cl	1.369955	0.388309	0.538525
Cl201	Cl	1.703288	0.721642	0.871858
Cl202	Cl	0.124000	0.297951	0.000059
Cl203	Cl	0.457333	0.631284	0.333392
Cl204	Cl	0.790666	0.964618	0.666725
Cl205	Cl	0.351726	0.026449	0.000118
Cl206	Cl	0.685060	0.359783	0.333451
Cl207	Cl	1.018393	0.693116	0.666785
Cl208	Cl	1.027209	0.062810	0.402469
Cl209	Cl	1.360543	0.396143	0.735803
Cl210	Cl	1.693876	0.729477	1.069136
Cl211	Cl	0.759434	-0.647488	0.000021
Cl212	Cl	1.092767	-0.314155	0.333354
Cl213	Cl	1.426101	0.019179	0.666688
Cl214	Cl	1.065649	0.030874	0.597704
Cl215	Cl	1.398982	0.364207	0.931038
Cl216	Cl	1.732316	0.697540	1.264371
H217	H	1.060123	-0.072320	0.000129
H218	H	1.393457	0.261013	0.333462
H219	H	1.726790	0.594347	0.666796
Cl220	Cl	0.167177	0.013225	0.000141
Cl221	Cl	0.500510	0.346559	0.333474
Cl222	Cl	0.833844	0.679892	0.666808
Cl223	Cl	1.084686	-0.502540	0.000103
Cl224	Cl	1.418020	-0.169206	0.333436
Cl225	Cl	1.751353	0.164127	0.666769
Cl226	Cl	1.056251	0.038709	0.794991
Cl227	Cl	1.389585	0.372042	1.128325
Cl228	Cl	1.722918	0.705375	1.461658
H229	H	1.057937	-0.204558	0.000107
H230	H	1.391270	0.128775	0.333440
H231	H	1.724603	0.462108	0.666774
Cl232	Cl	0.542916	-0.016765	0.000109
Cl233	Cl	0.876249	0.316569	0.333442
Cl234	Cl	1.209582	0.649902	0.666776
Cl235	Cl	0.814857	0.239441	0.794965
Cl236	Cl	1.148190	0.572774	1.128298
Cl237	Cl	1.481523	0.906108	1.461631
Cl238	Cl	0.824253	0.231595	0.597688
Cl239	Cl	1.157586	0.564929	0.931022
Cl240	Cl	1.490920	0.898262	1.264355
H241	H	0.810425	0.243072	0.383092
H242	H	1.143758	0.576405	0.716425
H243	H	1.477091	0.909738	1.049758
Cl244	Cl	0.727472	-0.003538	0.000093
Cl245	Cl	1.060806	0.329795	0.333426
Cl246	Cl	1.394139	0.663129	0.666759
Cl247	Cl	0.795218	0.255697	0.205159
Cl248	Cl	1.128552	0.589030	0.538493
Cl249	Cl	1.461885	0.922364	0.871826
Cl250	Cl	0.766785	-0.203045	0.000059
Cl251	Cl	1.100118	0.130288	0.333392
Cl252	Cl	1.433451	0.463621	0.666726
