data_functionalizedCrystal
_audit_creation_method	'MofGen! by Chris Wilmer'
_symmetry_space_group_name_H-M	'P1'
_symmetry_Int_Tables_number	1
_symmetry_cell_setting	triclinic
loop_
_symmetry_equiv_pos_as_xyz
  x,y,z
_cell_length_a	12.759401
_cell_length_b	29.839131
_cell_length_c	29.839125
_cell_angle_alpha	89.982291
_cell_angle_beta	89.989553
_cell_angle_gamma	90.042945
loop_
_atom_site_label
_atom_site_type_symbol
_atom_site_fract_x
_atom_site_fract_y
_atom_site_fract_z
Zn1	Zn	1.605962	-0.178898	-0.253987
Zn2	Zn	1.605804	-0.254010	-0.178857
Zn3	Zn	1.430293	-0.178897	-0.178871
Zn4	Zn	1.430171	-0.254004	-0.253960
O5	O	1.518058	-0.216452	-0.216419
O6	O	1.752962	-0.188865	-0.244026
O7	O	1.582507	-0.244048	-0.115992
O8	O	1.453714	-0.116030	-0.188853
O9	O	1.752846	-0.244049	-0.188828
O10	O	1.582777	-0.116031	-0.244040
O11	O	1.453560	-0.188863	-0.116002
O12	O	1.283256	-0.188857	-0.188827
O13	O	1.453505	-0.244039	-0.316831
O14	O	1.283166	-0.244038	-0.243995
O15	O	1.582659	-0.188859	-0.316850
O16	O	1.582388	-0.316876	-0.188802
O17	O	1.453352	-0.316872	-0.243980
C18	C	1.245090	-0.216447	-0.216410
C19	C	1.128314	-0.216455	-0.216417
C20	C	1.073432	-0.245231	-0.245097
C21	C	0.963708	-0.245233	-0.245106
C22	C	0.963756	-0.187681	-0.187750
C23	C	1.073479	-0.187677	-0.187744
C24	C	1.517868	-0.333175	-0.216397
C25	C	1.517883	-0.383109	-0.216402
C26	C	1.585369	-0.692742	-0.187730
C27	C	1.585499	-0.880415	-0.187747
O28	O	1.642728	-0.904672	-0.163351
N29	N	1.518276	-0.903894	-0.216453
C30	C	1.451020	-0.880452	-0.245158
O31	O	1.393853	-0.904728	-0.269578
C32	C	1.450896	-0.692780	-0.245143
C33	C	1.518116	-0.669303	-0.216432
C34	C	1.652585	-0.669266	-0.159021
C35	C	1.652548	-0.622350	-0.159016
C36	C	1.585295	-0.598911	-0.187718
C37	C	1.518079	-0.622388	-0.216426
C38	C	1.383647	-0.669338	-0.273850
C39	C	1.383624	-0.622417	-0.273845
C40	C	1.450844	-0.598941	-0.245134
C41	C	1.450789	-0.552033	-0.245123
N42	N	1.518013	-0.528555	-0.216417
C43	C	1.585265	-0.551994	-0.187715
C44	C	1.451088	-0.978983	-0.245164
C45	C	1.451117	-1.025900	-0.245167
C46	C	1.585598	-1.025861	-0.187756
C47	C	1.585563	-0.978942	-0.187751
C48	C	1.518311	-0.955504	-0.216458
C49	C	1.585182	-0.453468	-0.187704
C50	C	1.585136	-0.406548	-0.187700
C51	C	1.450659	-0.406592	-0.245112
C52	C	1.450701	-0.453508	-0.245115
C53	C	1.517971	-0.476944	-0.216410
O54	O	1.393599	-0.527748	-0.269509
O55	O	1.642440	-0.527709	-0.163306
C56	C	1.585406	-0.739658	-0.187735
C57	C	1.518191	-0.763134	-0.216443
C58	C	1.450938	-0.739695	-0.245146
C59	C	1.518220	-0.810052	-0.216447
C60	C	1.585473	-0.833491	-0.187745
C61	C	1.652696	-0.810012	-0.159039
C62	C	1.652659	-0.763097	-0.159033
C63	C	1.383715	-0.763174	-0.273852
C64	C	1.383757	-0.810090	-0.273855
C65	C	1.451009	-0.833529	-0.245152
C66	C	1.792091	-0.216458	-0.216428
C67	C	1.908868	-0.216461	-0.216432
C68	C	1.518086	-0.216448	-0.333597
C69	C	1.518098	-0.216446	-0.383532
C70	C	1.518277	-0.099274	-0.216451
C71	C	1.518370	-0.049339	-0.216465
C72	C	1.585419	-0.187639	-0.693188
C73	C	1.585471	-0.187601	-0.880861
O74	O	1.642631	-0.163150	-0.905137
N75	N	1.518238	-0.216326	-0.904317
C76	C	1.450981	-0.245061	-0.880851
O77	O	1.393789	-0.269490	-0.905108
C78	C	1.450925	-0.245097	-0.693179
C79	C	1.518170	-0.216373	-0.669726
C80	C	1.652658	-0.158917	-0.669735
C81	C	1.652648	-0.158929	-0.622820
C82	C	1.585400	-0.187662	-0.599357
C83	C	1.518160	-0.216384	-0.622810
C84	C	1.383664	-0.273829	-0.669714
C85	C	1.383654	-0.273835	-0.622793
C86	C	1.450899	-0.245111	-0.599340
C87	C	1.450902	-0.245130	-0.552433
N88	N	1.518136	-0.216404	-0.528977
C89	C	1.585384	-0.187671	-0.552440
C90	C	1.451017	-0.245041	-0.979382
C91	C	1.451033	-0.245033	-1.026300
C92	C	1.585521	-0.187572	-1.026307
C93	C	1.585510	-0.187582	-0.979388
C94	C	1.518251	-0.216316	-0.955926
C95	C	1.585360	-0.187697	-0.453914
C96	C	1.585347	-0.187713	-0.406994
C97	C	1.450855	-0.245172	-0.406991
C98	C	1.450871	-0.245158	-0.453907
C99	C	1.518127	-0.216417	-0.477367
O100	O	1.393763	-0.269564	-0.528128
O101	O	1.642552	-0.163239	-0.528175
C102	C	1.585429	-0.187627	-0.740104
C103	C	1.518190	-0.216350	-0.763557
C104	C	1.450941	-0.245083	-0.740095
C105	C	1.518205	-0.216341	-0.810475
C106	C	1.585454	-0.187608	-0.833937
C107	C	1.652687	-0.158882	-0.810482
C108	C	1.652677	-0.158894	-0.763566
C109	C	1.383707	-0.273809	-0.763550
C110	C	1.383723	-0.273795	-0.810466
C111	C	1.450972	-0.245061	-0.833928
C112	C	1.518090	-0.216424	-0.099696
C113	C	1.518281	-0.216299	-0.049762
H114	H	1.639961	-0.472544	-0.164331
C115	C	1.133852	-0.156023	-0.156193
H116	H	1.085481	-0.138889	-0.139113
H117	H	1.176699	-0.136474	-0.173413
H118	H	1.176612	-0.173180	-0.136584
C119	C	1.659571	-1.051649	-0.156183
H120	H	1.649959	-1.082953	-0.160301
H121	H	1.644247	-1.043980	-0.125991
H122	H	1.730152	-1.043930	-0.162788
C123	C	1.659067	-0.380725	-0.156112
H124	H	1.649407	-0.349425	-0.160213
H125	H	1.729656	-0.388376	-0.162709
H126	H	1.643726	-0.388438	-0.125923
H127	H	1.707420	-0.135516	-0.688833
H128	H	1.328965	-0.297190	-0.829557
C129	C	1.377029	-0.276650	-0.953580
H130	H	1.337001	-0.293757	-0.974273
H131	H	1.331273	-0.259470	-0.935279
H132	H	1.417176	-0.296233	-0.935276
H133	H	1.328904	-0.688445	-0.297228
C134	C	1.376882	-0.276774	-0.381177
H135	H	1.386503	-0.272661	-0.349876
H136	H	1.392189	-0.306960	-0.388860
H137	H	1.306303	-0.270189	-0.388863
C138	C	1.726470	-0.596530	-0.127426
H139	H	1.716815	-0.565229	-0.131524
H140	H	1.797060	-0.604183	-0.134020
H141	H	1.711118	-0.604247	-0.097239
H142	H	1.395900	-0.387501	-0.268480
H143	H	0.919096	-0.164252	-0.164405
H144	H	1.707356	-0.688345	-0.135648
H145	H	1.640300	-0.959830	-0.164372
H146	H	1.707405	-0.135538	-0.603728
H147	H	0.919029	-0.268665	-0.268461
H148	H	1.707453	-0.829104	-0.135667
H149	H	1.707435	-0.135504	-0.744475
C150	C	1.726610	-0.737279	-0.127454
H151	H	1.766669	-0.757963	-0.110366
H152	H	1.686450	-0.719001	-0.107860
H153	H	1.772354	-0.718950	-0.144657
C154	C	1.726660	-0.127277	-0.836296
H155	H	1.717023	-0.131385	-0.867597
H156	H	1.797239	-0.133852	-0.828612
H157	H	1.711332	-0.097091	-0.828612
H158	H	1.396370	-1.045011	-0.268542
C159	C	1.377096	-0.953206	-0.276739
H160	H	1.337061	-0.973913	-0.293829
H161	H	1.417226	-0.934877	-0.296331
H162	H	1.331329	-0.934933	-0.259531
H163	H	1.328861	-0.603336	-0.297223
H164	H	1.329009	-0.829200	-0.297234
C165	C	1.309724	-0.737397	-0.305422
H166	H	1.269692	-0.758104	-0.322514
H167	H	1.349852	-0.719066	-0.325013
H168	H	1.263956	-0.719126	-0.288213
H169	H	1.395968	-0.472623	-0.268495
C170	C	1.659314	-0.156113	-0.381198
H171	H	1.699355	-0.138995	-0.401894
H172	H	1.705058	-0.173300	-0.362895
H173	H	1.619148	-0.136540	-0.362897
C174	C	1.309683	-0.305422	-0.695502
H175	H	1.269626	-0.322528	-0.674803
H176	H	1.349821	-0.324998	-0.713807
H177	H	1.263938	-0.288227	-0.713802
H178	H	1.640122	-0.164292	-0.473009
H179	H	1.640266	-0.164192	-0.960296
C180	C	1.659496	-0.155967	-1.052121
H181	H	1.649865	-0.160077	-1.083422
H182	H	1.730074	-0.162541	-1.044434
H183	H	1.644166	-0.125780	-1.044439
C184	C	1.377070	-0.276632	-1.052093
H185	H	1.337013	-0.293741	-1.031396
H186	H	1.417220	-0.296206	-1.070395
H187	H	1.331324	-0.259440	-1.070395
H188	H	1.328870	-0.297228	-0.603693
H189	H	1.118076	-0.268663	-0.268446
H190	H	1.328945	-0.297208	-0.744452
C191	C	1.376910	-0.276757	-0.479706
H192	H	1.336856	-0.293870	-0.459011
H193	H	1.417061	-0.296327	-0.498012
H194	H	1.331162	-0.259562	-0.498005
