data_functionalizedCrystal
_audit_creation_method	'MofGen! by Chris Wilmer'
_symmetry_space_group_name_H-M	'P1'
_symmetry_Int_Tables_number	1
_symmetry_cell_setting	triclinic
loop_
_symmetry_equiv_pos_as_xyz
  x,y,z
_cell_length_a	12.759401
_cell_length_b	10.685382
_cell_length_c	12.759393
_cell_angle_alpha	85.600305
_cell_angle_beta	90.019802
_cell_angle_gamma	85.607953
loop_
_atom_site_label
_atom_site_type_symbol
_atom_site_fract_x
_atom_site_fract_y
_atom_site_fract_z
Zn1	Zn	1.574137	0.502382	0.561925
Zn2	Zn	2.074137	1.002382	1.061925
Zn3	Zn	1.560529	0.713448	0.372774
Zn4	Zn	2.060529	1.213448	0.872774
Zn5	Zn	1.398432	0.502440	0.386260
Zn6	Zn	1.898432	1.002440	0.886260
Zn7	Zn	1.384935	0.713351	0.548421
Zn8	Zn	1.884935	1.213351	1.048421
O9	O	1.479508	0.607905	0.467345
O10	O	1.979508	1.107905	0.967345
O11	O	1.719352	0.530397	0.536841
O12	O	2.219352	1.030397	1.036841
O13	O	1.538980	0.685522	0.227538
O14	O	2.038980	1.185522	0.727538
O15	O	1.433083	0.325834	0.420857
O16	O	1.933083	0.825834	0.920857
O17	O	1.709354	0.685466	0.397873
O18	O	2.209354	1.185466	0.897873
O19	O	1.562172	0.325791	0.549918
O20	O	2.062172	0.825791	1.049918
O21	O	1.419888	0.530496	0.237445
O22	O	1.919888	1.030496	0.737445
O23	O	1.249622	0.530402	0.407763
O24	O	1.749622	1.030402	0.907763
O25	O	1.410079	0.685300	0.697237
O26	O	1.910079	1.185300	1.197237
O27	O	1.239705	0.685357	0.526902
O28	O	1.739705	1.185357	1.026902
O29	O	1.549085	0.530303	0.707159
O30	O	2.049085	1.030303	1.207159
O31	O	1.525893	0.890034	0.384779
O32	O	2.025893	1.390034	0.884779
O33	O	1.396885	0.889962	0.513826
O34	O	1.896885	1.389962	1.013826
C35	C	1.206543	0.607876	0.467331
C36	C	1.706543	1.107876	0.967331
C37	C	1.089765	0.607894	0.467348
C38	C	1.589765	1.107894	0.967348
C39	C	0.930361	0.527324	0.539809
C40	C	1.430361	1.027324	1.039809
C41	C	1.040087	0.527300	0.539804
C42	C	1.540087	1.027300	1.039804
C43	C	1.029711	0.688527	0.394901
C44	C	1.529711	1.188527	0.894901
C45	C	0.919987	0.688557	0.394912
C46	C	1.419987	1.188557	0.894912
C47	C	1.458476	0.935788	0.446396
C48	C	1.958476	1.435788	0.946396
C49	C	1.449575	1.076057	0.437470
C50	C	1.949575	1.576057	0.937470
C51	C	1.753540	0.607936	0.467359
C52	C	2.253540	1.107936	0.967359
C53	C	1.870315	0.607949	0.467365
C54	C	2.370315	1.107949	0.967365
C55	C	1.479595	0.607784	0.741386
C56	C	1.979595	1.107784	1.241386
C57	C	1.479631	0.607733	0.858166
C58	C	1.979631	1.107733	1.358166
C59	C	1.500593	1.278742	0.488407
C60	C	2.000593	1.778742	0.988407
C61	C	1.509430	1.138473	0.497406
C62	C	2.009430	1.638473	0.997406
C63	C	1.479489	0.607935	0.194375
C64	C	1.979489	1.107935	0.694375
C65	C	1.479678	0.607631	0.077619
C66	C	1.979678	1.107631	0.577619
C67	C	1.552018	0.527012	0.918196
C68	C	2.052018	1.027012	1.418196
C69	C	1.552039	0.526958	1.027924
C70	C	2.052039	1.026958	1.527924
C71	C	1.407284	0.688355	1.017580
C72	C	1.907284	1.188355	1.517580
C73	C	1.407259	0.688402	0.907855
C74	C	1.907259	1.188402	1.407855
H75	H	1.088971	0.461648	0.598796
H76	H	1.588971	0.961648	1.098796
Br77	Br	0.862952	0.417930	0.638139
Br78	Br	1.362952	0.917930	1.138139
Br79	Br	1.606196	1.048685	0.594330
Br80	Br	2.106196	1.548685	1.094330
Br81	Br	1.097130	0.797915	0.296574
Br82	Br	1.597130	1.297915	0.796574
H83	H	1.391506	1.129937	0.379327
H84	H	1.891506	1.629937	0.879327
Br85	Br	1.650289	0.417413	1.109390
Br86	Br	2.150289	0.917413	1.609390
Br87	Br	1.650235	0.417531	0.850764
Br88	Br	2.150235	0.917531	1.350764
H89	H	0.871096	0.754218	0.335918
H90	H	1.371096	1.254218	0.835918
H91	H	1.348363	0.754036	1.058051
H92	H	1.848363	1.254036	1.558051
Br93	Br	1.309005	0.797948	0.826378
Br94	Br	1.809005	1.297948	1.326378
