data_functionalizedCrystal
_audit_creation_method	'MofGen! by Chris Wilmer'
_symmetry_space_group_name_H-M	'P1'
_symmetry_Int_Tables_number	1
_symmetry_cell_setting	triclinic
loop_
_symmetry_equiv_pos_as_xyz
  x,y,z
_cell_length_a	16.120484
_cell_length_b	16.625547
_cell_length_c	16.625539
_cell_angle_alpha	89.978691
_cell_angle_beta	92.870299
_cell_angle_gamma	92.925712
loop_
_atom_site_label
_atom_site_type_symbol
_atom_site_fract_x
_atom_site_fract_y
_atom_site_fract_z
Zn1	Zn	-0.331923	1.216357	-0.472259
Zn2	Zn	0.168077	1.716357	0.027741
Zn3	Zn	-0.471343	1.209424	-0.344255
Zn4	Zn	0.028657	1.709424	0.155745
Zn5	Zn	-0.331948	1.081526	-0.337431
Zn6	Zn	0.168052	1.581526	0.162569
Zn7	Zn	-0.471297	1.074647	-0.479033
Zn8	Zn	0.028703	1.574647	0.020967
O9	O	-0.401628	1.145488	-0.408245
O10	O	0.098372	1.645488	0.091755
O11	O	-0.350427	1.328269	-0.455300
O12	O	0.149573	1.828269	0.044700
O13	O	-0.452882	1.192435	-0.230519
O14	O	0.047118	1.692435	0.269481
O15	O	-0.215278	1.105192	-0.349625
O16	O	0.284722	1.605192	0.150375
O17	O	-0.452858	1.323175	-0.361257
O18	O	0.047142	1.823175	0.138743
O19	O	-0.215260	1.204252	-0.448683
O20	O	0.284740	1.704252	0.051317
O21	O	-0.350468	1.098469	-0.225505
O22	O	0.149532	1.598469	0.274495
O23	O	-0.350424	0.967781	-0.356193
O24	O	0.149576	1.467781	0.143807
O25	O	-0.452779	1.093468	-0.590965
O26	O	0.047221	1.593468	-0.090965
O27	O	-0.452803	0.962727	-0.460228
O28	O	0.047197	1.462727	0.039772
O29	O	-0.350382	1.197582	-0.585989
O30	O	0.149618	1.697582	-0.085989
O31	O	-0.588003	1.185765	-0.367825
O32	O	-0.088003	1.685765	0.132175
O33	O	-0.587969	1.086745	-0.466845
O34	O	-0.087969	1.586745	0.033155
C35	C	-0.401612	0.935998	-0.408206
C36	C	0.098388	1.435998	0.091794
C37	C	-0.401625	0.846377	-0.408209
C38	C	0.098375	1.346377	0.091791
C39	C	-0.401626	0.773594	-0.408219
C40	C	0.098374	1.273594	0.091781
C41	C	-0.401631	0.682285	-0.408240
C42	C	0.098369	1.182285	0.091760
C43	C	-0.401638	0.609509	-0.408261
C44	C	0.098362	1.109509	0.091739
C45	C	-0.401644	0.518194	-0.408280
C46	C	0.098356	1.018194	0.091720
C47	C	-0.618236	1.134778	-0.418828
C48	C	-0.118236	1.634778	0.081172
C49	C	-0.710902	1.130270	-0.423383
C50	C	-0.210902	1.630270	0.076617
C51	C	-0.880564	1.122044	-0.431716
C52	C	-0.380564	1.622044	0.068284
C53	C	-0.921851	1.169078	-0.384787
C54	C	-0.421851	1.669078	0.115213
C55	C	-1.016256	1.164501	-0.389423
C56	C	-0.516256	1.664501	0.110577
C57	C	-0.786150	1.126620	-0.427080
C58	C	-0.286150	1.626620	0.072920
C59	C	-0.184173	1.156263	-0.397637
C60	C	0.315827	1.656263	0.102363
C61	C	-0.091507	1.160854	-0.393117
C62	C	0.408493	1.660854	0.106883
C63	C	-0.401573	1.145531	-0.618551
C64	C	0.098427	1.645531	-0.118551
C65	C	-0.401549	1.145549	-0.708171
C66	C	0.098451	1.645549	-0.208171
C67	C	-0.401645	1.355796	-0.408284
C68	C	0.098355	1.855796	0.091716
C69	C	-0.401652	1.445417	-0.408301
C70	C	0.098348	1.945417	0.091699
C71	C	-0.401531	1.145563	-0.780953
C72	C	0.098469	1.645563	-0.280953
C73	C	-0.401500	1.145583	-0.872260
C74	C	0.098500	1.645583	-0.372260
C75	C	-0.401470	1.145603	-0.945035
C76	C	0.098530	1.645603	-0.445035
C77	C	-0.401440	1.145625	-1.036347
C78	C	0.098560	1.645625	-0.536347
C79	C	-0.401622	1.145496	-0.198754
C80	C	0.098378	1.645496	0.301246
C81	C	-0.401411	1.145645	-0.109123
C82	C	0.098589	1.645645	0.390877
H83	H	-0.886296	1.212782	-0.341128
H84	H	-0.386296	1.712782	0.158872
H85	H	-0.916116	1.078342	-0.475370
H86	H	-0.416116	1.578342	0.024630
