data_functionalizedCrystal
_audit_creation_method	'MofGen! by Chris Wilmer'
_symmetry_space_group_name_H-M	'P1'
_symmetry_Int_Tables_number	1
_symmetry_cell_setting	triclinic
loop_
_symmetry_equiv_pos_as_xyz
  x,y,z
_cell_length_a	10.654550
_cell_length_b	17.038272
_cell_length_c	9.130313
_cell_angle_alpha	90.000151
_cell_angle_beta	90.006582
_cell_angle_gamma	87.798229
loop_
_atom_site_label
_atom_site_type_symbol
_atom_site_fract_x
_atom_site_fract_y
_atom_site_fract_z
O1	O	1.678042	0.109872	0.121922
O2	O	1.313535	0.120341	0.121899
O3	O	1.493622	0.001279	0.121899
O4	O	1.497955	0.228934	0.121923
O5	O	1.493610	0.001286	-0.121700
O6	O	1.313523	0.120348	-0.121700
O7	O	1.678029	0.109880	-0.121676
Cu8	Cu	1.495775	0.115114	-0.143931
Cu9	Cu	1.495790	0.115106	0.144153
O10	O	1.497942	0.228941	-0.121676
C11	C	1.266660	0.119576	0.000097
C12	C	1.127003	0.117276	0.000087
C13	C	1.054026	0.187378	0.000116
C14	C	0.922804	0.185212	0.000141
C15	C	0.937548	0.042837	0.000115
C16	C	1.068767	0.045004	0.000080
C17	C	1.112262	0.259650	0.000124
C18	C	1.039285	0.329758	0.000154
C19	C	0.908063	0.327592	0.000179
C20	C	0.849818	0.255319	0.000174
C21	C	1.489675	-0.027867	0.000100
C22	C	1.477918	-0.114726	0.000099
C23	C	1.585862	-0.164237	0.000105
C24	C	1.574808	-0.245850	0.000118
C25	C	1.455808	-0.277949	0.000115
C26	C	1.347856	-0.228431	0.000114
C27	C	1.358911	-0.146821	0.000111
C28	C	1.416750	-0.523925	0.000133
C29	C	1.405702	-0.605542	0.000131
C30	C	1.632656	-0.622955	0.000137
C31	C	1.643701	-0.541342	0.000126
C32	C	1.535749	-0.491831	0.000133
C33	C	1.444505	-0.361370	0.000124
C34	C	1.547052	-0.408412	0.000134
C35	C	1.724905	0.110645	0.000129
C36	C	1.864562	0.112944	0.000148
C37	C	1.501889	0.258088	0.000126
C38	C	1.513646	0.344947	0.000136
N39	N	1.495774	0.115120	-0.346553
C40	C	1.577049	0.163005	-0.423209
C41	C	1.577066	0.162990	-0.576546
C42	C	1.414521	0.067204	-0.576558
C43	C	1.414511	0.067215	-0.423224
C44	C	1.658312	0.210910	-0.346538
C45	C	1.739593	0.258799	-0.423194
C46	C	1.739610	0.258785	-0.576531
C47	C	1.658346	0.210881	-0.653212
N48	N	1.495800	0.115094	0.346776
H49	H	1.086717	0.388600	0.000146
N50	N	1.707420	-0.131454	0.000137
N51	N	1.738915	-0.087859	0.102825
H52	H	1.824769	-0.064707	0.102854
N53	N	1.331508	0.018291	-0.654905
N54	N	1.251702	0.048359	-0.740490
H55	H	1.193069	0.013816	-0.795825
H56	H	1.271011	-0.106509	0.000107
N57	N	1.331521	0.018273	-0.344934
N58	N	1.258988	-0.024505	-0.413403
H59	H	1.200389	-0.059083	-0.358112
H60	H	1.805762	0.297797	-0.360751
H61	H	0.848648	0.384677	0.000189
N62	N	1.658341	0.210859	-0.809842
N63	N	1.585773	0.168092	-0.878284
H64	H	1.585765	0.168078	-0.988903
H65	H	1.219109	0.261422	0.000110
N66	N	1.742932	-0.673517	0.000128
N67	N	1.820141	-0.670231	-0.102550
H68	H	1.898030	-0.705940	-0.102554
N69	N	1.822653	0.307695	-0.654812
N70	N	1.895203	0.350457	-0.586333
H71	H	1.953854	0.385004	-0.641615
H72	H	0.742968	0.253562	0.000172
H73	H	1.308794	-0.631674	0.000105
N74	N	1.306480	-0.473361	0.000148
N75	N	1.229269	-0.476649	0.102823
H76	H	1.151384	-0.440936	0.102832
N77	N	0.878057	-0.030983	0.000092
N78	N	0.806450	-0.048070	-0.102576
H79	H	0.764435	-0.100208	-0.102592
H80	H	1.128187	-0.012079	0.000060
N81	N	1.685083	-0.296413	0.000138
N82	N	1.791325	-0.267743	0.000138
H83	H	1.869214	-0.303452	0.000157
H84	H	1.740603	-0.515213	0.000128
H85	H	1.250963	-0.254573	0.000121
H86	H	1.643941	-0.382273	0.000169
H87	H	1.347615	-0.387514	0.000119
H88	H	1.658304	0.210929	-0.221684
