data_functionalizedCrystal
_audit_creation_method	'MofGen! by Chris Wilmer'
_symmetry_space_group_name_H-M	'P1'
_symmetry_Int_Tables_number	1
_symmetry_cell_setting	triclinic
loop_
_symmetry_equiv_pos_as_xyz
  x,y,z
_cell_length_a	16.120530
_cell_length_b	21.295417
_cell_length_c	21.295396
_cell_angle_alpha	89.894091
_cell_angle_beta	87.031779
_cell_angle_gamma	87.125778
loop_
_atom_site_label
_atom_site_type_symbol
_atom_site_fract_x
_atom_site_fract_y
_atom_site_fract_z
Zn1	Zn	1.274946	-0.298975	-0.404663
Zn2	Zn	1.774946	0.201025	0.095337
Zn3	Zn	1.274712	-0.404373	-0.299379
Zn4	Zn	1.774712	0.095627	0.200621
Zn5	Zn	1.135407	-0.293787	-0.294072
Zn6	Zn	1.635407	0.206213	0.205928
Zn7	Zn	1.135472	-0.398870	-0.399287
Zn8	Zn	1.635472	0.101130	0.100713
O9	O	1.205134	-0.349001	-0.349350
O10	O	1.705134	0.150999	0.150650
O11	O	1.391585	-0.317430	-0.395168
O12	O	1.891585	0.182570	0.104832
O13	O	1.256108	-0.389835	-0.210580
O14	O	1.756108	0.110165	0.289420
O15	O	1.153989	-0.206389	-0.308771
O16	O	1.653989	0.293611	0.191229
O17	O	1.391413	-0.394865	-0.317816
O18	O	1.891413	0.105135	0.182184
O19	O	1.256507	-0.210200	-0.390022
O20	O	1.756507	0.289800	0.109978
O21	O	1.153762	-0.308588	-0.206681
O22	O	1.653762	0.191412	0.293319
O23	O	1.018746	-0.303253	-0.303558
O24	O	1.518746	0.196747	0.196442
O25	O	1.154098	-0.385486	-0.488094
O26	O	1.654098	0.114514	0.011906
O27	O	1.018793	-0.380456	-0.380859
O28	O	1.518793	0.119544	0.119141
O29	O	1.256569	-0.312094	-0.492044
O30	O	1.756569	0.187906	0.007956
O31	O	1.256170	-0.491729	-0.312603
O32	O	1.756170	0.008271	0.187397
O33	O	1.153871	-0.487686	-0.386005
O34	O	1.653871	0.012314	0.113995
C35	C	0.988518	-0.340695	-0.341050
C36	C	1.488518	0.159305	0.158950
C37	C	0.895849	-0.337157	-0.337514
C38	C	1.395849	0.162843	0.162486
C39	C	0.726181	-0.330682	-0.331063
C40	C	1.226181	0.169318	0.168937
C41	C	0.684928	-0.367367	-0.367683
C42	C	1.184928	0.132633	0.132317
C43	C	0.590519	-0.363764	-0.364094
C44	C	1.090519	0.136236	0.135906
C45	C	0.820599	-0.334284	-0.334651
C46	C	1.320599	0.165716	0.165349
C47	C	1.205025	-0.512549	-0.349311
C48	C	1.705025	-0.012549	0.150689
C49	C	1.205055	-0.582518	-0.349318
C50	C	1.705055	-0.082518	0.150682
C51	C	1.258369	-0.617470	-0.311141
C52	C	1.758369	-0.117470	0.188859
C53	C	1.258408	-0.683214	-0.311157
C54	C	1.758408	-0.183214	0.188843
C55	C	1.205118	-0.714003	-0.349342
C56	C	1.705118	-0.214003	0.150658
C57	C	1.151799	-0.679042	-0.387527
C58	C	1.651799	-0.179042	0.112473
C59	C	1.151768	-0.613299	-0.387515
C60	C	1.651768	-0.113299	0.112485
N61	N	1.132189	-0.814470	-0.351347
N62	N	1.632189	-0.314470	0.148653
N63	N	1.132221	-0.876922	-0.351355
N64	N	1.632221	-0.376922	0.148645
C65	C	1.205211	-0.912081	-0.349382
C66	C	1.705211	-0.412081	0.150618
N67	N	1.278169	-0.882427	-0.347389
N68	N	1.778169	-0.382427	0.152611
N69	N	1.278136	-0.819969	-0.347378
N70	N	1.778136	-0.319969	0.152622
C71	C	1.205147	-0.785289	-0.349360
C72	C	1.705147	-0.285289	0.150640
C73	C	1.258573	-1.018321	-0.311220
C74	C	1.758573	-0.518321	0.188780
C75	C	1.258613	-1.084066	-0.311240
C76	C	1.758613	-0.584066	0.188760
C77	C	1.151997	-1.079892	-0.387607
C78	C	1.651997	-0.579892	0.112393
C79	C	1.151964	-1.014148	-0.387591
C80	C	1.651964	-0.514148	0.112409
C81	C	1.205251	-0.983367	-0.349394
C82	C	1.705251	-0.483367	0.150606
C83	C	1.422596	-0.357340	-0.357683
C84	C	1.922596	0.142660	0.142317
C85	C	1.515265	-0.360894	-0.361235
C86	C	2.015265	0.139106	0.138765
C87	C	1.205367	-0.348755	-0.513550
C88	C	1.705367	0.151245	-0.013550
C89	C	1.205466	-0.348650	-0.583522
C90	C	1.705466	0.151350	-0.083522
C91	C	1.205267	-0.184816	-0.349404
C92	C	1.705267	0.315184	0.150596
C93	C	1.205323	-0.114850	-0.349427
C94	C	1.705323	0.385150	0.150573
C95	C	1.204950	-0.349202	-0.185791
C96	C	1.704950	0.150798	0.314209
C97	C	1.205013	-0.349136	-0.115825
C98	C	1.705013	0.150864	0.384175
C99	C	1.258406	-0.310170	0.381401
C100	C	1.758406	0.189830	0.881401
C101	C	1.258347	-0.310225	0.315661
C102	C	1.758347	0.189775	0.815661
C103	C	1.205358	-0.348773	0.285000
C104	C	1.705358	0.151227	0.785000
C105	C	1.152408	-0.387256	0.320085
C106	C	1.652408	0.112744	0.820085
C107	C	1.152462	-0.387194	0.385824
C108	C	1.652462	0.112806	0.885824
N109	N	1.199362	-0.403778	0.182173
N110	N	1.699362	0.096222	0.682173
N111	N	1.199315	-0.403834	0.119723
N112	N	1.699315	0.096166	0.619723
C113	C	1.205190	-0.348958	0.086932
C114	C	1.705190	0.151042	0.586932
N115	N	1.211129	-0.294023	0.118949
N116	N	1.711129	0.205977	0.618949
N117	N	1.211180	-0.293968	0.181404
N118	N	1.711180	0.206032	0.681404
C119	C	1.205293	-0.348843	0.213717
C120	C	1.705293	0.151157	0.713717
C121	C	1.258068	-0.310535	-0.019428
C122	C	1.758068	0.189465	0.480572
C123	C	1.258004	-0.310589	-0.085169
C124	C	1.758004	0.189411	0.414831
C125	C	1.152069	-0.387625	-0.080744
C126	C	1.652069	0.112375	0.419256
C127	C	1.152129	-0.387565	-0.015004
C128	C	1.652129	0.112435	0.484996
C129	C	1.205133	-0.349021	0.015650
C130	C	1.705133	0.150979	0.515650
H131	H	1.301826	-0.711678	-0.280068
H132	H	1.801826	-0.211678	0.219932
O133	O	1.309641	-0.273184	0.010377
O134	O	1.809641	0.226816	0.510377
C135	C	1.363824	-0.310772	0.046366
C136	C	1.863824	0.189228	0.546366
H137	H	1.369387	-0.360553	0.026471
H138	H	1.869387	0.139447	0.526471
H139	H	1.338113	-0.312048	0.097216
H140	H	1.838113	0.187952	0.597216
C141	C	1.443394	-0.221718	0.068295
C142	C	1.943394	0.278282	0.568295
C143	C	1.450232	-0.282859	0.043857
C144	C	1.950232	0.217141	0.543857
H145	H	1.496694	-0.204500	0.066751
H146	H	1.996694	0.295500	0.566751
H147	H	1.406888	-0.196394	0.044052
H148	H	1.906888	0.303606	0.544052
H149	H	1.421965	-0.222790	0.110669
H150	H	1.921965	0.277210	0.610669
H151	H	1.471650	-0.281786	0.001483
H152	H	1.971650	0.218214	0.501483
H153	H	1.486744	-0.308183	0.068094
H154	H	1.986744	0.191817	0.568094
O155	O	0.727464	-0.407983	-0.408334
O156	O	1.227464	0.092017	0.091666
C157	C	0.777918	-0.374035	-0.450952
C158	C	1.277918	0.125965	0.049048
H159	H	0.790852	-0.326812	-0.429325
H160	H	1.290852	0.173188	0.070675
H161	H	0.744508	-0.365872	-0.496371
H162	H	1.244508	0.134128	0.003629
C163	C	0.844805	-0.469770	-0.491931
C164	C	1.344805	0.030230	0.008069
C165	C	0.860697	-0.411772	-0.465366
C166	C	1.360697	0.088228	0.034634
H167	H	0.895866	-0.493048	-0.500824
H168	H	1.395866	0.006952	-0.000824
H169	H	0.810811	-0.492641	-0.463220
H170	H	1.310811	0.007359	0.036780
H171	H	0.816962	-0.462959	-0.529776
H172	H	1.316962	0.037041	-0.029776
H173	H	0.888530	-0.418583	-0.427517
H174	H	1.388530	0.081417	0.072483
H175	H	0.894697	-0.388902	-0.494071
H176	H	1.394697	0.111098	0.005929
O177	O	1.309510	-0.273189	-0.119150
O178	O	1.809510	0.226811	0.380850
C179	C	1.356287	-0.239148	-0.077993
C180	C	1.856287	0.260852	0.422007
H181	H	1.359437	-0.264993	-0.031184
H182	H	1.859437	0.235007	0.468816
H183	H	1.325350	-0.190311	-0.069907
H184	H	1.825350	0.309689	0.430093
C185	C	1.441049	-0.201277	-0.164681
C186	C	1.941049	0.298723	0.335319
C187	C	1.444924	-0.233023	-0.107191
C188	C	1.944924	0.266977	0.392809
H189	H	1.495723	-0.197496	-0.182692
H190	H	1.995723	0.302504	0.317308
H191	H	1.409533	-0.224209	-0.192410
H192	H	1.909533	0.275791	0.307590
H193	H	1.415265	-0.160583	-0.157935
H194	H	1.915265	0.339417	0.342065
H195	H	1.470698	-0.273718	-0.113939
H196	H	1.970698	0.226282	0.386061
H197	H	1.476447	-0.210098	-0.079464
H198	H	1.976447	0.289902	0.420536
O199	O	1.100679	-0.425058	-0.110621
O200	O	1.600679	0.074942	0.389379
C201	C	1.111968	-0.416851	-0.176166
C202	C	1.611968	0.083149	0.323834
H203	H	1.176116	-0.398346	-0.187744
H204	H	1.676116	0.101654	0.312256
H205	H	1.062201	-0.381715	-0.192948
H206	H	1.562201	0.118285	0.307052
C207	C	1.026084	-0.503074	-0.195236
C208	C	1.526084	-0.003074	0.304764
C209	C	1.104875	-0.480351	-0.209456
C210	C	1.604875	0.019649	0.290544
H211	H	1.021705	-0.542243	-0.215772
H212	H	1.521705	-0.042243	0.284228
H213	H	1.018475	-0.508603	-0.151077
H214	H	1.518475	-0.008603	0.348923
H215	H	0.984620	-0.473789	-0.209221
H216	H	1.484620	0.026211	0.290779
H217	H	1.146336	-0.509632	-0.195464
H218	H	1.646336	-0.009632	0.304536
H219	H	1.112490	-0.474829	-0.253613
H220	H	1.612490	0.025171	0.246387
O221	O	1.100091	-0.579319	-0.424672
O222	O	1.600091	-0.079319	0.075328
C223	C	1.147553	-0.542980	-0.467157
C224	C	1.647553	-0.042980	0.032843
H225	H	1.213229	-0.565253	-0.473607
H226	H	1.713229	-0.065253	0.026393
H227	H	1.150392	-0.493303	-0.447793
H228	H	1.650392	0.006697	0.052207
C229	C	1.026179	-0.512947	-0.523091
C230	C	1.526179	-0.012947	-0.023091
C231	C	1.106842	-0.540306	-0.531017
C232	C	1.606842	-0.040306	-0.031017
H233	H	1.001066	-0.511295	-0.562482
H234	H	1.501066	-0.011295	-0.062482
H235	H	0.994202	-0.537427	-0.494466
H236	H	1.494202	-0.037427	0.005534
H237	H	1.028557	-0.471552	-0.506952
H238	H	1.528557	0.028448	-0.006952
H239	H	1.104462	-0.581702	-0.547148
H240	H	1.604462	-0.081702	-0.047148
H241	H	1.138817	-0.515832	-0.559646
H242	H	1.638817	-0.015832	-0.059646
O243	O	0.683698	-0.290079	-0.290376
O244	O	1.183698	0.209921	0.209624
C245	C	0.633216	-0.324037	-0.247787
C246	C	1.133216	0.175963	0.252213
H247	H	0.659490	-0.374597	-0.244789
H248	H	1.159490	0.125403	0.255211
H249	H	0.567294	-0.323742	-0.264793
H250	H	1.067294	0.176258	0.235207
C251	C	0.599357	-0.231131	-0.186024
C252	C	1.099357	0.268869	0.313976
C253	C	0.631632	-0.293228	-0.182338
C254	C	1.131632	0.206772	0.317662
H255	H	0.598377	-0.212126	-0.145652
H256	H	1.098377	0.287874	0.354348
H257	H	0.633365	-0.208252	-0.214718
H258	H	1.133365	0.291748	0.285282
H259	H	0.544425	-0.230894	-0.200198
H260	H	1.044425	0.269106	0.299802
H261	H	0.686567	-0.293464	-0.168172
H262	H	1.186567	0.206536	0.331828
H263	H	0.597633	-0.316106	-0.153640
H264	H	1.097633	0.183894	0.346360
O265	O	1.100737	-0.424893	0.019169
O266	O	1.600737	0.075107	0.519169
C267	C	1.112164	-0.416587	0.083765
C268	C	1.612164	0.083413	0.583765
H269	H	1.139049	-0.368881	0.091543
H270	H	1.639049	0.131119	0.591543
H271	H	1.156906	-0.455379	0.100752
H272	H	1.656906	0.044621	0.600752
C273	C	0.994867	-0.478147	0.111321
C274	C	1.494867	0.021853	0.611321
C275	C	1.027882	-0.419551	0.120874
C276	C	1.527882	0.080449	0.620874
H277	H	0.942880	-0.479978	0.134213
H278	H	1.442880	0.020022	0.634213
H279	H	0.987170	-0.483745	0.067802
H280	H	1.487170	0.016255	0.567802
H281	H	1.032160	-0.510467	0.125477
H282	H	1.532160	-0.010467	0.625477
H283	H	0.990594	-0.387232	0.106711
H284	H	1.490594	0.112768	0.606711
H285	H	1.035570	-0.413947	0.164393
H286	H	1.535570	0.086053	0.664393
H287	H	1.108411	-0.704114	-0.418620
H288	H	1.608411	-0.204114	0.081380
O289	O	1.310414	-0.988515	-0.274103
O290	O	1.810414	-0.488515	0.225897
C291	C	1.357471	-1.033467	-0.240400
C292	C	1.857471	-0.533467	0.259600
H293	H	1.360396	-1.080386	-0.266309
H294	H	1.860396	-0.580386	0.233691
H295	H	1.326925	-1.039411	-0.191405
H296	H	1.826925	-0.539411	0.308595
C297	C	1.442595	-0.953534	-0.202951
C298	C	1.942595	-0.453534	0.297049
C299	C	1.446193	-1.011159	-0.234775
C300	C	1.946193	-0.511159	0.265225
H301	H	1.497321	-0.939773	-0.199478
H302	H	1.997321	-0.439773	0.300522
H303	H	1.410890	-0.923248	-0.225655
H304	H	1.910890	-0.423248	0.274345
H305	H	1.417136	-0.958495	-0.162125
H306	H	1.917136	-0.458495	0.337875
H307	H	1.471641	-1.006195	-0.275603
H308	H	1.971641	-0.506195	0.224397
H309	H	1.477904	-1.041443	-0.212078
H310	H	1.977904	-0.541443	0.287922
O311	O	1.100260	-1.109890	-0.424646
O312	O	1.600260	-0.609890	0.075354
C313	C	1.111738	-1.175413	-0.416486
C314	C	1.611738	-0.675413	0.083514
H315	H	1.139027	-1.185518	-0.368969
H316	H	1.639027	-0.685518	0.131031
H317	H	1.156162	-1.195661	-0.455556
H318	H	1.656162	-0.695661	0.044444
C319	C	0.993884	-1.193573	-0.477343
C320	C	1.493884	-0.693573	0.022657
C321	C	1.027395	-1.205984	-0.418980
C322	C	1.527395	-0.705984	0.081020
H323	H	0.941858	-1.212432	-0.478885
H324	H	1.441858	-0.712432	0.021115
H325	H	0.986152	-1.149429	-0.482843
H326	H	1.486152	-0.649429	0.017157
H327	H	1.030912	-1.210447	-0.509896
H328	H	1.530912	-0.710447	-0.009896
H329	H	0.990371	-1.189103	-0.386430
H330	H	1.490371	-0.689103	0.113570
H331	H	1.035118	-1.250126	-0.413475
H332	H	1.535118	-0.750126	0.086525
O333	O	1.310217	-0.587671	-0.274027
O334	O	1.810217	-0.087671	0.225973
C335	C	1.357270	-0.632624	-0.240324
C336	C	1.857270	-0.132624	0.259676
H337	H	1.360182	-0.679545	-0.266228
H338	H	1.860182	-0.179545	0.233772
H339	H	1.326728	-0.638560	-0.191326
H340	H	1.826728	-0.138560	0.308674
C341	C	1.442415	-0.552697	-0.202889
C342	C	1.942415	-0.052697	0.297111
C343	C	1.445997	-0.610325	-0.234707
C344	C	1.945997	-0.110325	0.265293
H345	H	1.497145	-0.538942	-0.199422
H346	H	1.997145	-0.038942	0.300578
H347	H	1.410713	-0.522411	-0.225594
H348	H	1.910713	-0.022411	0.274406
H349	H	1.416959	-0.557652	-0.162061
H350	H	1.916959	-0.057652	0.337939
H351	H	1.471442	-0.605368	-0.275537
H352	H	1.971442	-0.105368	0.224463
H353	H	1.477706	-0.640611	-0.212009
H354	H	1.977706	-0.140611	0.287991
H355	H	1.109261	-0.418639	0.295116
H356	H	1.609261	0.081361	0.795116
O357	O	1.100086	-0.980286	-0.424687
O358	O	1.600086	-0.480286	0.075313
C359	C	1.053072	-1.021555	-0.458406
C360	C	1.553072	-0.521555	0.041594
H361	H	1.050201	-1.068363	-0.432520
H362	H	1.550201	-0.568363	0.067480
H363	H	1.083620	-1.029598	-0.507407
H364	H	1.583620	-0.529598	-0.007407
C365	C	0.967853	-0.935053	-0.495810
C366	C	1.467853	-0.435053	0.004190
C367	C	0.964322	-0.992541	-0.464013
C368	C	1.464322	-0.492541	0.035987
H369	H	0.913109	-0.917155	-0.499272
H370	H	1.413109	-0.417155	0.000728
H371	H	0.999529	-0.907248	-0.473095
H372	H	1.499529	-0.407248	0.026905
H373	H	0.993314	-0.941763	-0.536641
H374	H	1.493314	-0.441763	-0.036641
H375	H	0.938871	-0.985829	-0.423181
H376	H	1.438871	-0.485829	0.076819
H377	H	0.932639	-1.020344	-0.486722
H378	H	1.432639	-0.520344	0.013278
H379	H	1.302034	-1.112524	-0.280153
H380	H	1.802034	-0.612524	0.219847
O381	O	1.309912	-0.272666	0.411079
O382	O	1.809912	0.227334	0.911079
C383	C	1.356641	-0.238725	0.366017
C384	C	1.856641	0.261275	0.866017
H385	H	1.322435	-0.235467	0.320503
H386	H	1.822435	0.264533	0.820503
H387	H	1.420155	-0.263875	0.356575
H388	H	1.920155	0.236125	0.856575
C389	C	1.410105	-0.176079	0.446930
C390	C	1.910105	0.323921	0.946930
C391	C	1.368089	-0.172073	0.391030
C392	C	1.868089	0.327927	0.891030
H393	H	1.417171	-0.134966	0.462360
H394	H	1.917171	0.365034	0.962360
H395	H	1.378626	-0.198947	0.477290
H396	H	1.878626	0.301053	0.977290
H397	H	1.463029	-0.197040	0.439054
H398	H	1.963029	0.302960	0.939054
H399	H	1.315162	-0.151120	0.398908
H400	H	1.815162	0.348880	0.898908
H401	H	1.399560	-0.149200	0.360672
H402	H	1.899560	0.350800	0.860672
O403	O	1.309660	-0.272777	0.281554
O404	O	1.809660	0.227223	0.781554
C405	C	1.261816	-0.230590	0.245292
C406	C	1.761816	0.269410	0.745292
H407	H	1.196136	-0.224511	0.267695
H408	H	1.696136	0.275489	0.767695
H409	H	1.259068	-0.250016	0.195634
H410	H	1.759068	0.249984	0.695634
C411	C	1.382657	-0.173943	0.214983
C412	C	1.882657	0.326057	0.714983
C413	C	1.301990	-0.166472	0.242502
C414	C	1.801990	0.333528	0.742502
H415	H	1.407439	-0.134393	0.213258
H416	H	1.907439	0.365607	0.713258
H417	H	1.414891	-0.202366	0.239411
H418	H	1.914891	0.297634	0.739411
H419	H	1.380355	-0.190133	0.173604
H420	H	1.880355	0.309867	0.673604
H421	H	1.304293	-0.150289	0.283882
H422	H	1.804293	0.349711	0.783882
H423	H	1.269756	-0.138044	0.218080
H424	H	1.769756	0.361956	0.718080
H425	H	1.109348	-0.418529	0.414383
H426	H	1.609348	0.081471	0.914383
