data_functionalizedCrystal
_audit_creation_method	'MofGen! by Chris Wilmer'
_symmetry_space_group_name_H-M	'P1'
_symmetry_Int_Tables_number	1
_symmetry_cell_setting	triclinic
loop_
_symmetry_equiv_pos_as_xyz
  x,y,z
_cell_length_a	12.759401
_cell_length_b	13.032868
_cell_length_c	12.759393
_cell_angle_alpha	82.854968
_cell_angle_beta	89.981739
_cell_angle_gamma	82.786347
loop_
_atom_site_label
_atom_site_type_symbol
_atom_site_fract_x
_atom_site_fract_y
_atom_site_fract_z
Zn1	Zn	1.553033	0.415926	-0.647063
Zn2	Zn	2.053033	0.915926	-0.147063
Zn3	Zn	1.530571	0.590709	-0.493679
Zn4	Zn	2.030571	1.090709	0.006321
Zn5	Zn	1.377331	0.415986	-0.471408
Zn6	Zn	1.877331	0.915986	0.028592
Zn7	Zn	1.354973	0.590633	-0.669308
Zn8	Zn	1.854973	1.090633	-0.169308
O9	O	1.453977	0.503313	-0.570365
O10	O	1.953977	1.003313	-0.070365
O11	O	1.697074	0.439118	-0.626728
O12	O	2.197074	0.939118	-0.126728
O13	O	1.510199	0.567589	-0.343711
O14	O	2.010199	1.067589	0.156289
O15	O	1.419396	0.269741	-0.476078
O16	O	1.919396	0.769741	0.023922
O17	O	1.680571	0.567531	-0.514037
O18	O	2.180571	1.067531	-0.014037
O19	O	1.548484	0.269696	-0.605132
O20	O	2.048484	0.769696	-0.105132
O21	O	1.397615	0.439221	-0.327348
O22	O	1.897615	0.939221	0.172652
O23	O	1.227345	0.439147	-0.497648
O24	O	1.727345	0.939147	0.002352
O25	O	1.381290	0.567400	-0.813371
O26	O	1.881290	1.067400	-0.313371
O27	O	1.210919	0.567459	-0.643045
O28	O	1.710919	1.067459	-0.143045
O29	O	1.526804	0.439044	-0.797028
O30	O	2.026804	0.939044	-0.297028
O31	O	1.488520	0.736937	-0.535607
O32	O	1.988520	1.236937	-0.035607
O33	O	1.359509	0.736880	-0.664641
O34	O	1.859509	1.236880	-0.164641
C35	C	1.181011	0.503302	-0.570345
C36	C	1.681011	1.003302	-0.070345
C37	C	1.064232	0.503322	-0.570364
C38	C	1.564232	1.003322	-0.070364
C39	C	0.908229	0.436574	-0.629173
C40	C	1.408229	0.936574	-0.129173
C41	C	1.017954	0.436571	-0.629161
C42	C	1.517954	0.936571	-0.129161
C43	C	1.000779	0.570087	-0.511584
C44	C	1.500779	1.070087	-0.011584
C45	C	0.891056	0.570094	-0.511602
C46	C	1.391056	1.070094	-0.011602
C47	C	0.918146	0.359486	-0.697052
C48	C	1.418146	0.859486	-0.197052
C49	C	1.027871	0.359484	-0.697040
C50	C	1.527871	0.859484	-0.197040
C51	C	1.419179	0.774826	-0.604978
C52	C	1.919179	1.274826	-0.104978
C53	C	1.404389	0.890981	-0.619821
C54	C	1.904389	1.390981	-0.119821
C55	C	1.461683	0.942759	-0.562643
C56	C	1.961683	1.442759	-0.062643
C57	C	1.446398	1.062811	-0.577982
C58	C	1.946398	1.562811	-0.077982
C59	C	1.728009	0.503326	-0.570385
C60	C	2.228009	1.003326	-0.070385
C61	C	1.844785	0.503332	-0.570394
C62	C	2.344785	1.003332	-0.070394
C63	C	1.454059	0.503207	-0.844385
C64	C	1.954059	1.003207	-0.344385
C65	C	1.454094	0.503162	-0.961155
C66	C	1.954094	1.003162	-0.461155
C67	C	1.488905	1.230741	-0.535628
C68	C	1.988905	1.730741	-0.035628
C69	C	1.503700	1.114586	-0.520796
C70	C	2.003700	1.614586	-0.020796
C71	C	1.395501	0.436308	-1.007502
C72	C	1.895501	0.936308	-0.507502
C73	C	1.395537	0.436277	-1.117222
C74	C	1.895537	0.936277	-0.617222
C75	C	1.512767	0.569956	-1.134240
C76	C	2.012767	1.069956	-0.634240
C77	C	1.512724	0.569992	-1.024523
C78	C	2.012724	1.069992	-0.524523
C79	C	1.327823	0.359126	-0.997677
C80	C	1.827823	0.859126	-0.497677
C81	C	1.327859	0.359095	-1.107397
C82	C	1.827859	0.859095	-0.607397
C83	C	1.453966	0.503344	-0.297401
C84	C	1.953966	1.003344	0.202599
C85	C	1.454172	0.503095	-0.180593
C86	C	1.954172	1.003095	0.319407
H87	H	0.893957	0.282573	-0.658233
H88	H	1.393957	0.782573	-0.158233
F89	F	1.540597	0.884537	-0.483819
F90	F	2.040597	1.384537	0.016181
H91	H	1.344025	0.935529	-0.680134
H92	H	1.844025	1.435529	-0.180134
H93	H	1.068016	0.278522	-0.665044
H94	H	1.568016	0.778522	-0.165044
F95	F	1.367492	1.121029	-0.656821
F96	F	1.867492	1.621029	-0.156821
H97	H	1.038466	0.624444	-0.463719
H98	H	1.538466	1.124444	0.036281
H99	H	0.885620	0.381255	-0.781167
H100	H	1.385620	0.881255	-0.281167
H101	H	1.058211	0.388560	-0.777992
H102	H	1.558211	0.888560	-0.277992
H103	H	1.560419	0.624446	-0.986794
H104	H	2.060419	1.124446	-0.486794
F105	F	1.582617	1.056370	-0.441966
F106	F	2.082617	1.556370	0.058034
F107	F	1.575161	0.641078	-1.201689
F108	F	2.075161	1.141078	-0.701689
H109	H	1.243661	0.380801	-0.970663
H110	H	1.743661	0.880801	-0.470663
F111	F	1.378796	0.258657	-0.940394
F112	F	1.878796	0.758657	-0.440394
F113	F	1.369797	0.253261	-1.132849
F114	F	1.869797	0.753261	-0.632849
F115	F	0.823537	0.641147	-0.449043
F116	F	1.323537	1.141147	0.050957
F117	F	1.221988	0.396979	-1.156708
F118	F	1.721988	0.896979	-0.656708
