data_functionalizedCrystal
_audit_creation_method	'MofGen! by Chris Wilmer'
_symmetry_space_group_name_H-M	'P1'
_symmetry_Int_Tables_number	1
_symmetry_cell_setting	triclinic
loop_
_symmetry_equiv_pos_as_xyz
  x,y,z
_cell_length_a	19.077105
_cell_length_b	12.594516
_cell_length_c	19.076919
_cell_angle_alpha	87.722761
_cell_angle_beta	89.923776
_cell_angle_gamma	87.712633
loop_
_atom_site_label
_atom_site_type_symbol
_atom_site_fract_x
_atom_site_fract_y
_atom_site_fract_z
Zn1	Zn	1.058319	-0.514930	0.440450
Zn2	Zn	1.062975	-0.686069	0.322954
Zn3	Zn	0.945535	-0.500672	0.318243
Zn4	Zn	0.940797	-0.685427	0.435707
O5	O	1.001907	-0.596775	0.379338
O6	O	1.157269	-0.543868	0.428821
O7	O	1.051328	-0.655777	0.223998
O8	O	0.960531	-0.353620	0.334467
O9	O	1.160690	-0.669603	0.342497
O10	O	1.043393	-0.364096	0.424253
O11	O	0.965046	-0.519567	0.220536
O12	O	0.846574	-0.518944	0.329868
O13	O	0.952455	-0.668509	0.534668
O14	O	0.843093	-0.654683	0.416168
O15	O	1.038798	-0.543246	0.538153
O16	O	1.046733	-0.834927	0.337898
O17	O	0.956969	-0.834455	0.420737
C18	C	0.819337	-0.585197	0.371992
C19	C	0.741233	-0.580271	0.368866
C20	C	1.001861	-0.873312	0.379330
C21	C	1.001905	-0.991622	0.379352
C22	C	0.702747	-0.648728	0.412259
C23	C	0.629360	-0.644085	0.409325
C24	C	0.594459	-0.570991	0.362994
C25	C	0.632949	-0.502527	0.319600
C26	C	0.706335	-0.507165	0.322538
C27	C	0.375169	-0.549525	0.349400
C28	C	0.301778	-0.544895	0.346464
C29	C	0.298194	-0.686452	0.436191
C30	C	0.371582	-0.691088	0.439121
C31	C	0.410065	-0.622620	0.395730
N32	N	0.519445	-0.566246	0.359993
N33	N	0.485078	-0.627361	0.398735
C34	C	0.953079	-1.060655	0.424375
C35	C	0.938538	-1.126689	0.359570
C36	C	1.016509	-1.136391	0.444171
C37	C	0.987331	-1.056094	0.314511
C38	C	1.065330	-1.065794	0.399157
C39	C	1.050816	-1.131795	0.334309
C40	C	1.185189	-0.608398	0.386714
C41	C	1.263293	-0.613351	0.389857
C42	C	0.994578	-0.607396	0.562619
C43	C	0.991455	-0.611923	0.640723
C44	C	1.001971	-0.319159	0.379363
C45	C	1.001998	-0.200856	0.379374
C46	C	1.009247	-0.586120	0.196772
C47	C	1.012506	-0.581302	0.118675
C48	C	1.034940	-0.548834	0.679231
C49	C	1.031997	-0.553083	0.752617
C50	C	0.985572	-0.620426	0.787494
C51	C	0.942083	-0.683517	0.748980
C52	C	0.945023	-0.679262	0.675595
C53	C	0.971956	-0.640139	1.006776
C54	C	0.969021	-0.644391	1.080166
C55	C	1.058935	-0.513955	1.083799
C56	C	1.061873	-0.509711	1.010412
C57	C	1.018381	-0.572798	0.971905
N58	N	0.982565	-0.624772	0.862506
N59	N	1.021386	-0.568445	0.896894
H60	H	0.598028	-0.699830	0.444659
H61	H	1.094343	-0.462592	1.115159
H62	H	0.884944	-1.153628	0.342835
O63	O	1.129225	-1.033706	0.419277
C64	C	1.144376	-1.074733	0.487661
H65	H	1.093355	-1.093278	0.515933
H66	H	1.178679	-1.150631	0.484633
C67	C	1.246173	-0.969193	0.493533
C68	C	1.183508	-0.991962	0.528260
H69	H	1.270314	-0.918139	0.518576
H70	H	1.235967	-0.941555	0.447460
H71	H	1.274751	-1.032449	0.491012
H72	H	1.154927	-0.928710	0.530772
H73	H	1.193709	-1.019588	0.574334
O74	O	0.260881	-0.752902	0.478446
C75	C	0.276020	-0.734970	0.549222
H76	H	0.329251	-0.697516	0.552853
H77	H	0.233784	-0.679062	0.571294
C78	C	0.212325	-0.887503	0.587357
C79	C	0.277707	-0.841509	0.591816
H80	H	0.213362	-0.953219	0.613632
H81	H	0.202123	-0.899582	0.539674
H82	H	0.177135	-0.840901	0.605749
H83	H	0.312894	-0.888104	0.573416
H84	H	0.287915	-0.829440	0.639497
O85	O	1.106891	-0.444116	0.976578
C86	C	1.090836	-0.338116	0.993934
H87	H	1.033889	-0.330374	1.011836
H88	H	1.126799	-0.315164	1.038064
C89	C	1.171587	-0.273300	0.907109
C90	C	1.101642	-0.263789	0.929091
H91	H	1.178255	-0.227450	0.867112
H92	H	1.182406	-0.344714	0.895417
H93	H	1.201548	-0.254175	0.943889
H94	H	1.071683	-0.282927	0.892314
H95	H	1.090818	-0.192376	0.940774
O96	O	0.412516	-0.483124	0.307146
C97	C	0.397351	-0.501006	0.236368
H98	H	0.377319	-0.584547	0.231917
H99	H	0.355483	-0.440154	0.216363
C100	C	0.489009	-0.387285	0.197559
C101	C	0.464411	-0.489894	0.192091
H102	H	0.530372	-0.380426	0.170245
H103	H	0.499224	-0.375233	0.245243
H104	H	0.454112	-0.336586	0.180889
H105	H	0.499304	-0.540589	0.208769
H106	H	0.454203	-0.501954	0.144408
H107	H	0.974954	-1.021106	0.259686
O108	O	1.031244	-1.178105	0.509590
C109	C	1.040856	-1.095013	0.555599
H110	H	1.056071	-1.020547	0.524186
H111	H	0.989970	-1.077759	0.585189
C112	C	1.080854	-1.219607	0.646902
C113	C	1.099548	-1.128149	0.608320
H114	H	1.117056	-1.240047	0.679425
H115	H	1.074376	-1.275589	0.615906
H116	H	1.038448	-1.205217	0.671554
H117	H	1.141948	-1.142544	0.583662
H118	H	1.106034	-1.072170	0.639313
H119	H	0.931215	-0.699232	1.108560
O120	O	1.100049	-1.168767	0.288748
C121	C	1.084446	-1.127461	0.220526
H122	H	1.026194	-1.104013	0.216794
H123	H	1.116619	-1.054499	0.208768
C124	C	1.174177	-1.241372	0.171510
C125	C	1.102629	-1.212581	0.166925
H126	H	1.185395	-1.293876	0.138446
H127	H	1.184691	-1.269198	0.217473
H128	H	1.200979	-1.180563	0.161714
H129	H	1.075828	-1.273387	0.176730
H130	H	1.092111	-1.184767	0.120963
O131	O	0.599158	-0.431428	0.274576
C132	C	0.648866	-0.372019	0.236894
H133	H	0.700033	-0.373374	0.267775
H134	H	0.658792	-0.408269	0.183796
C135	C	0.557794	-0.254663	0.187814
C136	C	0.620636	-0.256319	0.225746
H137	H	0.540380	-0.183295	0.180934
H138	H	0.524304	-0.294690	0.213198
H139	H	0.566074	-0.284876	0.143569
H140	H	0.612353	-0.226118	0.269992
H141	H	0.654124	-0.216284	0.200368
O142	O	1.079942	-0.483350	0.645276
C143	C	1.041648	-0.409590	0.601236
H144	H	0.988830	-0.443119	0.588089
H145	H	1.032808	-0.331868	0.629218
C146	C	1.147980	-0.347538	0.549238
C147	C	1.083110	-0.388722	0.533086
H148	H	1.173556	-0.334661	0.507201
H149	H	1.173780	-0.397228	0.578910
H150	H	1.140604	-0.282774	0.572558
H151	H	1.090487	-0.453491	0.509775
H152	H	1.057313	-0.339043	0.503408
O153	O	0.897023	-0.749079	0.782781
C154	C	0.913084	-0.855097	0.765470
H155	H	0.942229	-0.855926	0.713275
H156	H	0.947550	-0.895632	0.808223
C157	C	0.808905	-0.914008	0.823419
C158	C	0.844696	-0.915027	0.759310
H159	H	0.766721	-0.950979	0.819622
H160	H	0.798086	-0.842583	0.835085
H161	H	0.837634	-0.947786	0.859040
H162	H	0.815971	-0.881238	0.723692
H163	H	0.855509	-0.986448	0.747638
O164	O	1.074312	-0.491767	0.789919
C165	C	1.115909	-0.431403	0.743399
H166	H	1.120424	-0.472124	0.691183
H167	H	1.090513	-0.348480	0.734564
C168	C	1.184006	-0.372462	0.839190
C169	C	1.189558	-0.422480	0.775058
H170	H	1.229436	-0.366953	0.858719
H171	H	1.155980	-0.413127	0.870531
H172	H	1.162840	-0.303364	0.831818
H173	H	1.210715	-0.491581	0.782432
H174	H	1.217589	-0.381827	0.743718
H175	H	0.936552	-0.691524	0.975432
O176	O	0.902888	-0.740603	0.638108
C177	C	0.944583	-0.809436	0.597278
H178	H	0.998284	-0.774635	0.588441
H179	H	0.951151	-0.890444	0.625860
C180	C	0.842758	-0.864950	0.536859
C181	C	0.908713	-0.822202	0.526000
H182	H	0.820631	-0.872830	0.492893
H183	H	0.814666	-0.818579	0.564369
H184	H	0.848241	-0.932453	0.560679
H185	H	0.903229	-0.754696	0.502189
H186	H	0.936803	-0.868563	0.498485
H187	H	0.399993	-0.750611	0.476847
O188	O	0.743748	-0.440564	0.280485
C189	C	0.784626	-0.376936	0.322266
H190	H	0.760310	-0.372303	0.376732
H191	H	0.840145	-0.413501	0.326876
C192	C	0.816992	-0.269985	0.221208
C193	C	0.787124	-0.264288	0.288103
H194	H	0.818536	-0.200500	0.200134
H195	H	0.789454	-0.312855	0.193059
H196	H	0.863255	-0.300461	0.225059
H197	H	0.740859	-0.233826	0.284251
H198	H	0.814654	-0.221410	0.316251
H199	H	0.731159	-0.708252	0.449984
H200	H	0.911720	-1.029418	0.462389
H201	H	0.273363	-0.485360	0.308740
