data_functionalizedCrystal
_audit_creation_method	'MofGen! by Chris Wilmer'
_symmetry_space_group_name_H-M	'P1'
_symmetry_Int_Tables_number	1
_symmetry_cell_setting	triclinic
loop_
_symmetry_equiv_pos_as_xyz
  x,y,z
_cell_length_a	14.908506
_cell_length_b	21.395364
_cell_length_c	21.395355
_cell_angle_alpha	90.025298
_cell_angle_beta	93.281598
_cell_angle_gamma	86.663375
loop_
_atom_site_label
_atom_site_type_symbol
_atom_site_fract_x
_atom_site_fract_y
_atom_site_fract_z
Zn1	Zn	-0.358873	-0.943517	-0.368663
Zn2	Zn	-0.509718	-0.937392	-0.269933
Zn3	Zn	-0.358917	-0.838731	-0.263900
Zn4	Zn	-0.509739	-0.832672	-0.374673
O5	O	-0.434311	-0.888078	-0.319292
O6	O	-0.378855	-1.030384	-0.355576
O7	O	-0.489724	-0.924276	-0.181456
O8	O	-0.232662	-0.857730	-0.272757
O9	O	-0.489681	-1.025883	-0.283040
O10	O	-0.232630	-0.934716	-0.349725
O11	O	-0.378931	-0.851790	-0.177023
O12	O	-0.378951	-0.750248	-0.278584
O13	O	-0.489716	-0.847405	-0.461553
O14	O	-0.489759	-0.745797	-0.359969
O15	O	-0.378875	-0.928842	-0.457138
O16	O	-0.635969	-0.918401	-0.288868
O17	O	-0.635984	-0.841465	-0.365819
C18	C	-0.434362	-0.725288	-0.319275
C19	C	-0.434406	-0.655645	-0.319283
C20	C	-0.376795	-0.625294	-0.357118
C21	C	-0.376774	-0.559860	-0.357118
C22	C	-0.434380	-0.524778	-0.319291
C23	C	-0.491995	-0.555137	-0.281449
C24	C	-0.492008	-0.620571	-0.281445
C25	C	-0.515631	-0.417807	-0.317510
C26	C	-0.515620	-0.352374	-0.317519
C27	C	-0.434339	-0.322959	-0.319301
C28	C	-0.353068	-0.358984	-0.321087
C29	C	-0.353081	-0.424418	-0.321083
C30	C	-0.434372	-0.453826	-0.319292
C31	C	-0.376701	-0.221656	-0.357139
C32	C	-0.376678	-0.156221	-0.357135
C33	C	-0.491907	-0.151499	-0.281469
C34	C	-0.491921	-0.216934	-0.281469
C35	C	-0.434319	-0.252008	-0.319307
C36	C	-0.668712	-0.878628	-0.328664
C37	C	-0.768989	-0.874642	-0.332694
C38	C	-0.910366	-0.828937	-0.378402
C39	C	-0.816147	-0.832680	-0.374619
C40	C	-0.816058	-0.912865	-0.294550
C41	C	-0.910277	-0.909122	-0.298333
C42	C	-0.957428	-0.867156	-0.340259
C43	C	-1.051650	-0.863410	-0.344038
C44	C	-1.051559	-0.943597	-0.263973
C45	C	-0.957340	-0.947340	-0.260190
C46	C	-0.198996	-0.897582	-0.309898
C47	C	-0.098718	-0.901632	-0.305894
C48	C	-0.434293	-0.888131	-0.482715
C49	C	-0.434285	-0.888153	-0.552356
C50	C	-0.434272	-0.051503	-0.319308
C51	C	-0.434283	-0.121144	-0.319307
C52	C	-0.376568	-0.930556	-0.582771
C53	C	-0.376529	-0.930557	-0.648205
C54	C	-0.434224	-0.888161	-0.683222
C55	C	-0.491945	-0.845750	-0.652799
C56	C	-0.491976	-0.845746	-0.587366
C57	C	-0.515459	-0.879938	-0.790144
C58	C	-0.515430	-0.879946	-0.855576
C59	C	-0.434129	-0.888168	-0.885039
C60	C	-0.352854	-0.896396	-0.849062
C61	C	-0.352885	-0.896392	-0.783629
C62	C	-0.434197	-0.888160	-0.754173
C63	C	-0.376364	-0.930574	-0.986404
C64	C	-0.376324	-0.930571	-1.051839
C65	C	-0.491748	-0.845767	-1.056433
C66	C	-0.491780	-0.845767	-0.990999
C67	C	-0.434090	-0.888174	-0.955989
C68	C	-0.434265	-0.888064	-0.156503
C69	C	-0.434018	-0.888173	-0.086852
H70	H	-0.329792	-0.250216	-0.387945
F71	F	-0.315353	-0.123919	-0.397404
F72	F	-0.907149	-0.992003	-0.215574
F73	F	-0.553326	-0.652873	-0.241172
F74	F	-0.601929	-0.871195	-0.893860
H75	H	-0.538917	-0.811229	-0.681314
H76	H	-0.777831	-0.801560	-0.405679
F77	F	-0.765862	-0.957532	-0.249940
F78	F	-0.315165	-0.975687	-0.545513
F79	F	-0.315489	-0.662620	-0.397388
F80	F	-0.315453	-0.527551	-0.397388
H81	H	-0.286881	-0.335036	-0.322539
F82	F	-0.553144	-0.800641	-1.093696
H83	H	-1.089887	-0.974717	-0.232914
F84	F	-0.314901	-0.975711	-1.084209
F85	F	-0.553409	-0.800613	-0.554996
F86	F	-0.315082	-0.975680	-0.680580
F87	F	-0.553210	-0.114167	-0.241206
H88	H	-0.286708	-0.903089	-0.754338
H89	H	-0.581796	-0.323047	-0.316067
H90	H	-0.538838	-0.241646	-0.250663
H91	H	-0.286650	-0.903092	-0.873048
F92	F	-0.553300	-0.517800	-0.241188
H93	H	-0.329384	-0.965101	-0.957897
F94	F	-0.553215	-0.800638	-0.958628
F95	F	-0.601999	-0.871201	-0.758795
H96	H	-0.286907	-0.453747	-0.322536
H97	H	-0.581824	-0.441750	-0.316059
H98	H	-1.090038	-0.829240	-0.378179
H99	H	-0.948757	-0.794768	-0.412541
