data_functionalizedCrystal
_audit_creation_method	'MofGen! by Chris Wilmer'
_symmetry_space_group_name_H-M	'P1'
_symmetry_Int_Tables_number	1
_symmetry_cell_setting	triclinic
loop_
_symmetry_equiv_pos_as_xyz
  x,y,z
_cell_length_a	17.917559
_cell_length_b	17.917603
_cell_length_c	21.606444
_cell_angle_alpha	90.001745
_cell_angle_beta	57.014623
_cell_angle_gamma	60.142190
loop_
_atom_site_label
_atom_site_type_symbol
_atom_site_fract_x
_atom_site_fract_y
_atom_site_fract_z
Zr1	Zr	0.746410	0.790687	-0.079472
O2	O	0.913104	0.673548	-0.188994
O3	O	0.587599	0.821433	-0.042039
O4	O	0.742933	0.828872	-0.176727
O5	O	0.757764	0.666116	0.047549
O6	O	0.731224	0.957268	-0.171440
O7	O	0.757770	0.666109	-0.054306
O8	O	0.453360	0.943961	0.069492
O9	O	1.035628	0.679422	-0.193383
O10	O	0.641263	0.936605	-0.026791
O11	O	0.649997	0.840789	0.045277
O12	O	0.832882	0.849547	-0.113301
O13	O	0.841616	0.753731	-0.041233
Zr14	Zr	0.727726	0.995474	0.091406
Zr15	Zr	0.727735	0.995464	-0.071040
Zr16	Zr	0.746401	0.790697	0.082974
Zr17	Zr	0.941822	0.800056	-0.086473
Zr18	Zr	0.532314	0.986106	0.098407
O19	O	0.886536	0.964729	0.053973
O20	O	0.886550	0.964715	-0.177005
O21	O	0.913090	0.673562	0.041984
O22	O	0.561032	1.112614	0.200928
O23	O	0.561046	1.112600	-0.030050
O24	O	0.587586	0.821447	0.188939
O25	O	0.716372	1.120046	-0.035614
O26	O	0.731203	0.957290	0.188661
O27	O	0.742912	0.828894	0.183374
O28	O	0.716366	1.120052	0.066240
O29	O	1.020783	0.842193	-0.186681
O30	O	0.453353	0.943969	0.198616
O31	O	0.438508	1.106740	0.205318
O32	O	0.438516	1.106732	0.076195
O33	O	1.035620	0.679430	-0.064260
O34	O	1.020776	0.842200	-0.057558
O35	O	0.641254	0.936614	0.125235
O36	O	0.632519	1.032430	0.053168
O37	O	0.824139	0.945373	-0.033342
O38	O	0.832873	0.849557	0.038725
C39	C	0.492638	0.881362	0.014724
C40	C	0.409681	0.877385	0.017697
C41	C	0.216412	0.915973	-0.011243
C42	C	0.257729	0.870191	0.023175
C43	C	0.342282	0.874195	0.020126
C44	C	0.131850	0.911970	-0.008194
C45	C	0.760428	0.636936	-0.004580
C46	C	0.768356	0.550003	-0.008159
C47	C	0.782838	0.390853	-0.014697
C48	C	0.691303	0.395302	0.026629
C49	C	0.699360	0.306746	0.022992
C50	C	0.774782	0.479416	-0.011060
C51	C	0.981498	0.904799	-0.002790
C52	C	1.064455	0.908777	-0.005762
C53	C	0.737080	0.893068	-0.197228
C54	C	0.737084	0.893064	-0.266191
C55	C	0.713708	1.149226	0.016514
C56	C	0.705780	1.236159	0.020094
C57	C	0.837106	0.847620	-0.343747
C58	C	0.837103	0.847628	-0.408542
C59	C	0.737076	0.893075	-0.395778
C60	C	0.637045	0.938525	-0.318214
C61	C	0.637049	0.938522	-0.253421
C62	C	0.637025	0.938539	-0.579516
C63	C	0.637029	0.938536	-0.644317
C64	C	0.837079	0.847646	-0.734636
C65	C	0.837083	0.847643	-0.669843
C66	C	0.737053	0.893096	-0.592285
C67	C	0.737058	0.893088	-0.522028
C68	C	0.737070	0.893078	-0.466034
C69	C	0.737056	0.893093	0.209163
C70	C	0.737052	0.893098	0.278125
C71	C	0.469278	1.137507	0.025271
C72	C	0.378392	1.220463	0.031823
C73	C	0.492626	0.881375	0.217920
C74	C	0.409665	0.877402	0.289855
C75	C	0.469266	1.137520	0.228467
C76	C	0.378377	1.220480	0.303981
C77	C	1.004870	0.648642	-0.216533
C78	C	1.095759	0.565682	-0.292047
C79	C	1.004858	0.648655	-0.013337
C80	C	1.095744	0.565699	-0.019889
C81	C	0.981510	0.904787	-0.205986
C82	C	1.064471	0.908760	-0.277920
C83	C	0.340275	1.209400	-0.006844
C84	C	0.254890	1.287339	-0.000704
C85	C	0.207618	1.376340	0.044108
C86	C	0.245743	1.387401	0.082777
C87	C	0.331132	1.309463	0.076632
C88	C	0.366142	0.925556	0.365380
C89	C	0.288202	0.921820	0.432977
C90	C	0.253781	0.869935	0.425046
C91	C	0.297313	0.821775	0.349512
C92	C	0.375257	0.825506	0.281917
C93	C	0.331134	1.309463	0.301826
C94	C	0.245744	1.387421	0.372773
C95	C	0.207593	1.376394	0.445876
C96	C	0.254844	1.287403	0.448029
C97	C	0.340238	1.209447	0.377082
C98	C	1.143011	0.476700	-0.289892
C99	C	1.228426	0.398743	-0.360840
C100	C	1.266581	0.409769	-0.433943
C101	C	1.219325	0.498761	-0.436096
C102	C	1.133917	0.576716	-0.365149
C103	C	1.133869	0.576762	0.018772
C104	C	1.219275	0.498824	0.012613
C105	C	1.266550	0.409824	-0.032202
C106	C	1.228421	0.398762	-0.070867
C107	C	1.143022	0.476699	-0.064713
C108	C	1.098866	0.960654	-0.269964
C109	C	1.176805	0.964405	-0.337547
C110	C	1.220353	0.916256	-0.413086
C111	C	1.185951	0.864360	-0.421041
C112	C	1.108007	0.860615	-0.353458
H113	H	0.244539	0.958172	-0.042998
Br114	Br	1.382494	0.303962	-0.530223
Br115	Br	0.550599	0.512500	0.090138
H116	H	1.111951	0.467704	-0.230374
Br117	Br	0.091698	1.482203	0.542155
H118	H	1.266888	0.326289	-0.359071
H119	H	0.207242	1.459875	0.119262
H120	H	0.555601	0.975534	-0.307826
Br121	Br	0.229138	0.987187	0.535476
Br122	Br	0.923532	0.273658	-0.078216
Br123	Br	1.326136	0.921348	-0.504799
H124	H	0.378763	1.136939	-0.043345
Br125	Br	0.412832	0.995984	0.376166
H126	H	1.250402	0.507728	-0.495625
H127	H	1.095445	0.649167	-0.366913
H128	H	0.918561	0.810606	-0.354149
H129	H	1.095384	0.649223	0.055270
Br130	Br	1.271000	0.513858	0.065095
Br131	Br	0.210862	0.799838	0.076095
Br132	Br	1.382450	0.304060	-0.040546
Br133	Br	0.404339	1.088687	0.380023
Br134	Br	1.039782	1.026007	-0.167455
Br135	Br	0.972854	0.785952	-0.513797
H136	H	0.918536	0.810631	-0.680243
H137	H	1.080012	0.818354	-0.359948
H138	H	0.223768	1.278438	0.507559
Br139	Br	0.382846	1.324494	0.129120
H140	H	0.207280	1.459875	0.371006
Br141	Br	1.292589	0.277969	-0.131682
Br142	Br	0.972837	0.785958	-0.839899
H143	H	1.111984	0.467678	-0.096193
Br144	Br	0.501269	1.000217	-0.626991
Br145	Br	0.501274	1.000183	-0.474268
Br146	Br	1.223482	1.034835	-0.326733
Br147	Br	0.501297	1.000213	-0.148162
H148	H	1.221419	0.825160	-0.482554
H149	H	0.138089	1.439794	0.049106
Br150	Br	0.147998	0.864880	0.516791
Br151	Br	0.250586	0.751363	0.338762
Br152	Br	0.203166	1.272306	-0.053186
H153	H	0.410683	0.786296	0.220424
Br154	Br	0.382897	1.324453	0.202625
