data_functionalizedCrystal
_audit_creation_method	'MofGen! by Chris Wilmer'
_symmetry_space_group_name_H-M	'P1'
_symmetry_Int_Tables_number	1
_symmetry_cell_setting	triclinic
loop_
_symmetry_equiv_pos_as_xyz
  x,y,z
_cell_length_a	10.489763
_cell_length_b	9.130313
_cell_length_c	10.654550
_cell_angle_alpha	89.996938
_cell_angle_beta	84.516632
_cell_angle_gamma	89.999949
loop_
_atom_site_label
_atom_site_type_symbol
_atom_site_fract_x
_atom_site_fract_y
_atom_site_fract_z
O1	O	-1.693947	0.121732	-0.177326
O2	O	-1.322747	0.121748	-0.193929
O3	O	-1.516881	0.121734	-0.002893
O4	O	-1.499812	0.121746	-0.368362
O5	O	-1.516874	-0.121865	-0.002888
O6	O	-1.322739	-0.121851	-0.193924
O7	O	-1.693939	-0.121867	-0.177321
Cu8	Cu	-1.508338	-0.144101	-0.185622
Cu9	Cu	-1.508347	0.143982	-0.185628
O10	O	-1.499804	-0.121853	-0.368357
C11	C	-1.275212	-0.000049	-0.192666
C12	C	-1.133586	-0.000043	-0.188897
N13	N	-1.508341	-0.346724	-0.185617
C14	C	-1.430320	-0.423399	-0.108691
C15	C	-1.430323	-0.576735	-0.108697
C16	C	-1.586379	-0.576710	-0.262558
C17	C	-1.586369	-0.423376	-0.262558
C18	C	-1.352292	-0.346747	-0.031750
C19	C	-1.274266	-0.423421	0.045184
C20	C	-1.274268	-0.576758	0.045178
C21	C	-1.352298	-0.653421	-0.031762
C22	C	-1.065505	-0.000062	-0.067331
C23	C	-0.973355	0.120043	-0.124750
C24	C	-0.973382	-0.120127	-0.124774
C25	C	-1.043301	0.120161	-0.246366
C26	C	-1.043337	-0.120117	-0.246373
C27	C	-0.951215	0.000017	-0.303880
C28	C	-0.741476	-0.000071	-0.178564
C29	C	-0.883110	-0.000079	-0.182274
C30	C	-1.515624	-0.000064	0.043908
C31	C	-1.511875	-0.000058	0.183354
N32	N	-1.508355	0.346605	-0.185623
C33	C	-1.501062	-0.000052	-0.415158
C34	C	-1.504811	-0.000048	-0.554603
C35	C	-1.626178	-0.000068	0.262777
C36	C	-1.622647	-0.000057	0.393800
C37	C	-1.390499	-0.000034	0.365963
C38	C	-1.394031	-0.000034	0.234943
C39	C	-1.744021	-0.000092	0.211187
C40	C	-1.858334	-0.000103	0.290612
C41	C	-1.854803	-0.000093	0.421635
C42	C	-1.736959	-0.000071	0.473233
H43	H	-1.210729	-0.360993	0.107817
O44	O	-1.084435	-0.254621	-0.314447
H45	H	-1.132231	-0.220828	-0.398381
H46	H	-1.074107	0.221816	-0.297765
O47	O	-0.932383	-0.254645	-0.056627
H48	H	-0.978599	-0.254383	0.041535
O49	O	-1.733147	-0.000068	0.614551
H50	H	-1.782334	0.099210	0.655104
O51	O	-1.352201	-0.181363	-0.031820
H52	H	-1.419539	-0.140923	-0.098263
H53	H	-1.352287	-0.778278	-0.031767
O54	O	-1.978089	-0.000096	0.507302
H55	H	-1.982016	-0.099375	0.567674
O56	O	-1.270752	-0.000038	0.149265
H57	H	-1.188215	-0.000047	0.207148
O58	O	-1.263401	-0.000040	0.421607
H59	H	-1.280149	-0.000061	0.526057
O60	O	-1.131286	0.000035	0.065073
H61	H	-1.103413	0.099869	0.115240
H62	H	-1.649907	-0.639140	-0.325198
O63	O	-1.190150	-0.659466	0.128182
H64	H	-1.135915	-0.580399	0.181699
H65	H	-0.901743	0.000085	-0.403913
O66	O	-1.670524	-0.340659	-0.345519
H67	H	-1.724799	-0.419718	-0.399006
H68	H	-1.746909	-0.000105	0.104504
O69	O	-0.932289	0.254531	-0.056618
H70	H	-1.017883	0.321007	-0.024676
O71	O	-1.985434	-0.000121	0.234971
H72	H	-1.968690	-0.000140	0.130521
