data_functionalizedCrystal
_audit_creation_method	'MofGen! by Chris Wilmer'
_symmetry_space_group_name_H-M	'P1'
_symmetry_Int_Tables_number	1
_symmetry_cell_setting	triclinic
loop_
_symmetry_equiv_pos_as_xyz
  x,y,z
_cell_length_a	16.974800
_cell_length_b	15.455313
_cell_length_c	9.065215
_cell_angle_alpha	87.294303
_cell_angle_beta	84.200611
_cell_angle_gamma	89.026089
loop_
_atom_site_label
_atom_site_type_symbol
_atom_site_fract_x
_atom_site_fract_y
_atom_site_fract_z
O1	O	1.050416	-0.001635	0.188070
O2	O	1.550416	0.498365	0.688070
O3	O	0.821144	0.014467	0.210601
O4	O	1.321144	0.514467	0.710601
O5	O	0.940520	0.006080	-0.015406
O6	O	1.440520	0.506080	0.484594
O7	O	0.931040	0.006753	0.414077
O8	O	1.431040	0.506753	0.914077
O9	O	0.933693	-0.137703	-0.002535
O10	O	1.433693	0.362297	0.497465
O11	O	0.814317	-0.129315	0.223472
O12	O	1.314317	0.370685	0.723472
O13	O	1.043589	-0.145417	0.200941
O14	O	1.543589	0.354583	0.700941
Cu15	Cu	0.928330	-0.150495	0.213381
Cu16	Cu	1.428330	0.349505	0.713381
Cu17	Cu	0.936403	0.019545	0.198160
Cu18	Cu	1.436403	0.519545	0.698160
O19	O	0.924213	-0.137030	0.426947
O20	O	1.424213	0.362970	0.926947
C21	C	0.788363	-0.055362	0.215943
C22	C	1.288363	0.444638	0.715943
C23	C	0.700858	-0.049216	0.212670
C24	C	1.200858	0.450784	0.712670
N25	N	0.922657	-0.270092	0.224086
N26	N	1.422657	0.229908	0.724086
C27	C	0.973390	-0.319050	0.128106
C28	C	1.473390	0.180950	0.628106
C29	C	0.969107	-0.409557	0.136215
C30	C	1.469107	0.090443	0.636215
C31	C	0.914095	-0.451104	0.240313
C32	C	1.414095	0.048896	0.740313
C33	C	0.863356	-0.402139	0.336297
C34	C	1.363356	0.097861	0.836297
C35	C	0.867635	-0.311633	0.328180
C36	C	1.367635	0.188367	0.828180
C37	C	0.895623	-0.721388	0.275311
C38	C	1.395623	-0.221388	0.775311
C39	C	0.891349	-0.811900	0.283424
C40	C	1.391349	-0.311900	0.783424
C41	C	0.997100	-0.819312	0.083339
C42	C	1.497100	-0.319312	0.583339
C43	C	1.001377	-0.728805	0.075237
C44	C	1.501377	-0.228805	0.575237
C45	C	0.950636	-0.679847	0.171216
C46	C	1.450636	-0.179847	0.671216
N47	N	0.909717	-0.543617	0.248607
N48	N	1.409717	-0.043617	0.748607
N49	N	0.955010	-0.587336	0.162913
N50	N	1.455010	-0.087336	0.662913
C51	C	0.656032	-0.124707	0.218144
C52	C	1.156032	0.375293	0.718144
C53	C	0.573813	-0.118935	0.215045
C54	C	1.073813	0.381065	0.715045
C55	C	0.536421	-0.037672	0.206481
C56	C	1.036421	0.462328	0.706481
C57	C	0.581254	0.037825	0.201002
C58	C	1.081254	0.537825	0.701002
C59	C	0.663472	0.032052	0.204091
C60	C	1.163472	0.532052	0.704091
C61	C	0.290926	-0.012003	0.196481
C62	C	0.790926	0.487997	0.696481
C63	C	0.208701	-0.006236	0.193397
C64	C	0.708701	0.493764	0.693397
C65	C	0.201266	-0.162996	0.207437
C66	C	0.701266	0.337004	0.707437
C67	C	0.283485	-0.168761	0.210534
C68	C	0.783485	0.331239	0.710534
C69	C	0.328311	-0.093265	0.205047
C70	C	0.828311	0.406735	0.705047
N71	N	0.452380	-0.031770	0.203318
N72	N	0.952380	0.468230	0.703318
N73	N	0.412351	-0.099168	0.208200
N74	N	0.912351	0.400832	0.708200
C75	C	1.076370	-0.075586	0.195598
C76	C	1.576370	0.424414	0.695598
C77	C	1.163875	-0.081726	0.198871
C78	C	1.663875	0.418274	0.698871
C79	C	0.936196	-0.065747	-0.063938
C80	C	1.436196	0.434253	0.436062
C81	C	0.933473	-0.065553	-0.227725
C82	C	1.433473	0.434447	0.272275
N83	N	0.942082	0.139141	0.187444
N84	N	1.442082	0.639141	0.687444
C85	C	0.928537	-0.065201	0.475480
C86	C	1.428537	0.434799	0.975480
C87	C	0.931260	-0.065390	0.639266
C88	C	1.431260	0.434610	1.139266
H89	H	1.018190	-0.285230	0.043345
H90	H	1.518190	0.214770	0.543345
O91	O	0.696355	-0.212358	0.227403
O92	O	1.196355	0.287642	0.727403
H93	H	0.685109	-0.249281	0.129711
H94	H	1.185109	0.250719	0.629711
O95	O	0.152738	-0.244311	0.213905
O96	O	0.652738	0.255689	0.713905
H97	H	0.121252	-0.246008	0.112582
H98	H	0.621252	0.253992	0.612582
H99	H	1.010418	-0.449419	0.058060
H100	H	1.510418	0.050581	0.558060
O101	O	1.060719	-0.683988	-0.037020
O102	O	1.560719	-0.183988	0.462980
H103	H	1.028993	-0.640391	-0.112589
H104	H	1.528993	-0.140391	0.387411
H105	H	0.550805	0.103991	0.194020
H106	H	1.050805	0.603991	0.694020
H107	H	0.178260	0.059942	0.186428
H108	H	0.678260	0.559942	0.686428
H109	H	0.537320	-0.180408	0.219478
H110	H	1.037320	0.319592	0.719478
O111	O	0.323811	-0.256409	0.219839
O112	O	0.823811	0.243591	0.719839
H113	H	0.278825	-0.307935	0.223141
H114	H	0.778825	0.192065	0.723141
H115	H	0.327414	0.049472	0.192008
H116	H	0.827414	0.549472	0.692008
H117	H	1.038410	-0.859182	0.005196
H118	H	1.538410	-0.359182	0.505196
O119	O	0.832002	-0.856716	0.395688
O120	O	1.332002	-0.356716	0.895688
H121	H	0.797429	-0.807468	0.461052
H122	H	1.297429	-0.307468	0.961052
H123	H	0.854308	-0.681533	0.353464
H124	H	1.354308	-0.181533	0.853464
H125	H	0.818559	-0.435971	0.421051
H126	H	1.318559	0.064029	0.921051
H127	H	0.826322	-0.271771	0.406335
H128	H	1.326322	0.228229	0.906335
H129	H	0.699969	0.093525	0.199636
H130	H	1.199969	0.593525	0.699636
