data_functionalizedCrystal
_audit_creation_method	'MofGen! by Chris Wilmer'
_symmetry_space_group_name_H-M	'P1'
_symmetry_Int_Tables_number	1
_symmetry_cell_setting	triclinic
loop_
_symmetry_equiv_pos_as_xyz
  x,y,z
_cell_length_a	18.215407
_cell_length_b	12.759394
_cell_length_c	18.215398
_cell_angle_alpha	89.978944
_cell_angle_beta	89.983001
_cell_angle_gamma	90.011299
loop_
_atom_site_label
_atom_site_type_symbol
_atom_site_fract_x
_atom_site_fract_y
_atom_site_fract_z
Zn1	Zn	1.125126	-0.418375	-0.416090
Zn2	Zn	1.625126	0.081625	0.083910
Zn3	Zn	1.125059	-0.594065	-0.293033
Zn4	Zn	1.625059	-0.094065	0.206967
Zn5	Zn	1.002059	-0.418393	-0.293042
Zn6	Zn	1.502059	0.081607	0.206958
Zn7	Zn	1.002048	-0.594005	-0.416063
Zn8	Zn	1.502048	-0.094005	0.083937
O9	O	1.063573	-0.506209	-0.354557
O10	O	1.563573	-0.006209	0.145443
O11	O	1.228101	-0.441699	-0.399773
O12	O	1.728101	0.058301	0.100227
O13	O	1.108719	-0.570794	-0.190050
O14	O	1.608719	-0.070794	0.309950
O15	O	1.018417	-0.271369	-0.309380
O16	O	1.518417	0.228631	0.190620
O17	O	1.228052	-0.570777	-0.309364
O18	O	1.728052	-0.070777	0.190636
O19	O	1.108833	-0.271356	-0.399782
O20	O	1.608833	0.228644	0.100218
O21	O	1.018352	-0.441728	-0.190057
O22	O	1.518352	0.058272	0.309943
O23	O	0.899073	-0.441670	-0.309354
O24	O	1.399073	0.058330	0.190646
O25	O	1.018398	-0.570675	-0.519051
O26	O	1.518398	-0.070675	-0.019051
O27	O	0.899065	-0.570692	-0.399737
O28	O	1.399065	-0.070692	0.100263
O29	O	1.108822	-0.441640	-0.519071
O30	O	1.608822	0.058360	-0.019071
O31	O	1.108708	-0.741078	-0.309338
O32	O	1.608708	-0.241078	0.190662
O33	O	1.018333	-0.741034	-0.399728
O34	O	1.518333	-0.241034	0.100272
C35	C	0.872366	-0.506177	-0.354544
C36	C	1.372366	-0.006177	0.145456
C37	C	0.790568	-0.506189	-0.354556
C38	C	1.290568	-0.006189	0.145444
C39	C	0.602398	-0.439116	-0.401707
C40	C	1.102398	0.060884	0.098293
C41	C	0.525540	-0.439125	-0.401709
C42	C	1.025540	0.060875	0.098291
C43	C	0.525499	-0.573332	-0.307420
C44	C	1.025499	-0.073332	0.192580
C45	C	0.602357	-0.573317	-0.307415
C46	C	1.102357	-0.073317	0.192585
C47	C	0.640804	-0.506211	-0.354562
C48	C	1.140804	-0.006211	0.145438
C49	C	0.487088	-0.506235	-0.354570
C50	C	0.987088	-0.006235	0.145430
C51	C	0.403754	-0.506245	-0.354572
C52	C	0.903754	-0.006245	0.145428
C53	C	0.724143	-0.506199	-0.354559
C54	C	1.224143	-0.006199	0.145441
C55	C	1.063532	-0.779177	-0.354545
C56	C	1.563532	-0.279177	0.145455
C57	C	1.063582	-0.895954	-0.354564
C58	C	1.563582	-0.395954	0.145436
C59	C	1.157662	-0.895782	-0.448771
C60	C	1.657662	-0.395782	0.051229
C61	C	1.204725	-0.950557	-0.495880
C62	C	1.704725	-0.450557	0.004120
C63	C	1.204769	-1.060279	-0.495896
C64	C	1.704769	-0.560279	0.004104
C65	C	1.157743	-1.115228	-0.448799
C66	C	1.657743	-0.615228	0.051201
C67	C	1.110679	-1.060453	-0.401690
C68	C	1.610679	-0.560453	0.098310
C69	C	1.110642	-0.950729	-0.401678
C70	C	1.610642	-0.450729	0.098322
C71	C	1.016597	-1.060624	-0.307489
C72	C	1.516597	-0.560624	0.192511
C73	C	1.016555	-0.950903	-0.307468
C74	C	1.516555	-0.450903	0.192532
C75	C	0.969570	-1.115573	-0.260392
C76	C	1.469570	-0.615573	0.239608
C77	C	0.922510	-1.060798	-0.213278
C78	C	1.422510	-0.560798	0.286722
C79	C	0.922468	-0.951070	-0.213264
C80	C	1.422468	-0.451070	0.286736
C81	C	0.969492	-0.896128	-0.260359
C82	C	1.469492	-0.396128	0.239641
C83	C	1.255526	-0.506243	-0.354570
C84	C	1.755526	-0.006243	0.145430
C85	C	1.337325	-0.506257	-0.354576
C86	C	1.837325	-0.006257	0.145424
C87	C	1.063616	-0.506149	-0.546510
C88	C	1.563616	-0.006149	-0.046510
C89	C	1.063635	-0.506123	-0.628309
C90	C	1.563635	-0.006123	-0.128309
C91	C	1.063634	-0.232176	-0.354585
C92	C	1.563634	0.267824	0.145415
C93	C	1.063660	-0.115399	-0.354597
C94	C	1.563660	0.384601	0.145403
C95	C	1.110723	-0.573198	-0.893367
C96	C	1.610723	-0.073198	-0.393367
C97	C	1.110711	-0.573234	-0.816509
C98	C	1.610711	-0.073234	-0.316509
C99	C	1.016603	-0.438846	-0.816499
C100	C	1.516603	0.061154	-0.316499
C101	C	1.016611	-0.438815	-0.893357
C102	C	1.516611	0.061185	-0.393357
C103	C	1.063675	-0.505990	-0.931789
C104	C	1.563675	-0.005990	-0.431789
C105	C	1.063656	-0.506057	-0.778073
C106	C	1.563656	-0.006057	-0.278073
C107	C	1.063643	-0.506096	-0.694739
C108	C	1.563643	-0.006096	-0.194739
C109	C	1.063687	-0.505953	-1.015128
C110	C	1.563687	-0.005953	-0.515128
C111	C	1.063572	-0.506194	-0.163351
C112	C	1.563572	-0.006194	0.336649
C113	C	1.063696	-0.505923	-0.081552
C114	C	1.563696	-0.005923	0.418448
H115	H	0.494186	-0.627969	-0.269036
H116	H	0.994186	-0.127969	0.230964
H117	H	0.633627	-0.627955	-0.269020
H118	H	1.133627	-0.127955	0.230980
F119	F	1.157612	-0.779006	-0.448765
F120	F	1.657612	-0.279006	0.051235
F121	F	0.643315	-0.367692	-0.451883
F122	F	1.143315	0.132308	0.048117
H123	H	1.243012	-0.905808	-0.534227
H124	H	1.743012	-0.405808	-0.034227
F125	F	0.872461	-1.119284	-0.163167
F126	F	1.372461	-0.619284	0.336833
H127	H	0.978286	-0.384153	-0.785198
H128	H	1.478286	0.115847	-0.285198
F129	F	1.160811	-0.644693	-0.934267
F130	F	1.660811	-0.144693	-0.434267
H131	H	1.157776	-1.204569	-0.448823
H132	H	1.657776	-0.704569	0.051177
F133	F	0.484669	-0.367712	-0.451886
F134	F	0.984669	0.132288	0.048114
F135	F	1.254856	-1.118576	-0.546036
F136	F	1.754856	-0.618576	-0.046036
H137	H	1.149023	-0.627962	-0.785229
H138	H	1.649023	-0.127962	-0.285229
F139	F	0.969696	-1.232349	-0.260332
F140	F	1.469696	-0.732349	0.239668
F141	F	0.872373	-0.892783	-0.163126
F142	F	1.372373	-0.392783	0.336874
F143	F	0.969444	-0.779352	-0.260356
F144	F	1.469444	-0.279352	0.239644
H145	H	0.978295	-0.384085	-0.924640
H146	H	1.478295	0.115915	-0.424640
