data_functionalizedCrystal
_audit_creation_method	'MofGen! by Chris Wilmer'
_symmetry_space_group_name_H-M	'P1'
_symmetry_Int_Tables_number	1
_symmetry_cell_setting	triclinic
loop_
_symmetry_equiv_pos_as_xyz
  x,y,z
_cell_length_a	15.944551
_cell_length_b	14.971486
_cell_length_c	14.048226
_cell_angle_alpha	90.006640
_cell_angle_beta	90.001970
_cell_angle_gamma	83.556433
loop_
_atom_site_label
_atom_site_type_symbol
_atom_site_fract_x
_atom_site_fract_y
_atom_site_fract_z
O1	O	-1.114636	-0.115362	-0.079062
O2	O	-0.870100	-0.129584	-0.079086
O3	O	-0.998922	0.007734	-0.079066
O4	O	-0.985814	-0.252680	-0.079081
O5	O	-0.998907	0.007742	0.079255
O6	O	-0.870085	-0.129576	0.079236
O7	O	-1.114621	-0.115354	0.079260
Zn8	Zn	-0.992350	-0.122464	0.104385
Zn9	Zn	-0.992371	-0.122474	-0.104211
O10	O	-0.985798	-0.252672	0.079240
C11	C	-0.838798	-0.128990	0.000072
C12	C	-0.745550	-0.127220	0.000063
C13	C	-0.998328	0.041062	0.000094
C14	C	-0.996572	0.140357	0.000093
C15	C	-1.145923	-0.115948	0.000100
C16	C	-1.239171	-0.117718	0.000102
C17	C	-0.530608	-0.037872	0.000087
C18	C	-0.469635	-0.079366	-0.077976
C19	C	-0.574821	-0.124017	0.000075
C20	C	-0.469642	-0.079379	0.078116
C21	C	-0.409905	-0.120918	0.000090
C22	C	-0.515076	-0.165535	-0.078053
C23	C	-0.515090	-0.165535	0.078110
C24	C	-0.454134	-0.207092	0.000027
C25	C	-0.669825	-0.125801	0.000065
C26	C	-0.314903	-0.119141	0.000093
C27	C	-0.986392	-0.286000	0.000078
C28	C	-0.988149	-0.385295	0.000073
N29	N	-0.992342	-0.122456	0.246745
C30	C	-1.072251	0.197664	0.000101
C31	C	-1.070595	0.290962	0.000091
C32	C	-0.993259	0.326951	0.000080
C33	C	-0.917574	0.269637	0.000069
C34	C	-0.919230	0.176341	0.000072
C35	C	-0.914127	0.464095	0.000066
C36	C	-0.912470	0.557398	0.000065
C37	C	-1.065491	0.578717	0.000085
C38	C	-1.067148	0.485421	0.000088
C39	C	-0.991462	0.428113	0.000078
N40	N	-0.992385	-0.122475	-0.246571
C41	C	-1.049403	-0.061676	0.296572
C42	C	-1.049408	-0.061676	0.396230
C43	C	-0.992357	-0.122460	0.446059
C44	C	-0.935290	-0.183242	0.396225
C45	C	-0.935281	-0.183238	0.296569
C46	C	-0.935315	-0.183249	0.603939
C47	C	-0.935325	-0.183255	0.703602
C48	C	-1.049442	-0.061687	0.703600
C49	C	-1.049433	-0.061682	0.603944
C50	C	-0.992367	-0.122466	0.554117
H51	H	-0.449497	-0.042934	-0.143969
H52	H	-1.095871	-0.012184	0.436798
H53	H	-0.563873	0.033621	-0.000006
H54	H	-0.535105	-0.201947	-0.144121
C55	C	-0.409417	-0.303768	-0.000029
C56	C	-0.312326	-0.320054	0.000747
C57	C	-0.267605	-0.416727	0.000687
C58	C	-0.319975	-0.497114	-0.000149
C59	C	-0.417072	-0.480830	-0.000925
C60	C	-0.461793	-0.384157	-0.000865
H61	H	-0.273554	-0.260545	0.001365
H62	H	-0.195727	-0.428781	0.001261
H63	H	-0.286869	-0.568677	-0.000193
H64	H	-0.455844	-0.540340	-0.001544
H65	H	-0.533671	-0.372104	-0.001439
C66	C	-0.542340	-0.214709	0.167262
C67	C	-0.524727	-0.178540	0.267055
C68	C	-0.551983	-0.227703	0.356217
C69	C	-0.596852	-0.313036	0.345586
C70	C	-0.614468	-0.349210	0.245789
C71	C	-0.587212	-0.300046	0.156627
H72	H	-0.491510	-0.115367	0.274929
H73	H	-0.538942	-0.200924	0.430093
H74	H	-0.617029	-0.349430	0.411589
H75	H	-0.647685	-0.412383	0.237915
H76	H	-0.600253	-0.326825	0.082751
C77	C	-0.872515	-0.250099	0.241757
C78	C	-0.809789	-0.316992	0.296564
C79	C	-0.747017	-0.383851	0.241753
C80	C	-0.746972	-0.383818	0.132136
C81	C	-0.809701	-0.316922	0.077323
C82	C	-0.872473	-0.250063	0.132133
H83	H	-0.809820	-0.317019	0.377715
H84	H	-0.700581	-0.433372	0.282330
H85	H	-0.700505	-0.433311	0.091562
H86	H	-0.809670	-0.316895	-0.003828
H87	H	-0.918909	-0.200542	0.091557
C88	C	-0.835981	0.113300	0.000066
C89	C	-0.816067	0.046235	0.082275
C90	C	-0.732815	-0.016805	0.082263
C91	C	-0.669477	-0.012780	0.000044
C92	C	-0.689389	0.054288	-0.082170
C93	C	-0.772641	0.117328	-0.082159
H94	H	-0.862955	0.043253	0.143144
H95	H	-0.718075	-0.066453	0.143124
H96	H	-0.607849	-0.059445	0.000036
H97	H	-0.642501	0.057270	-0.143040
H98	H	-0.787382	0.166976	-0.143020
H99	H	-0.449515	-0.042924	0.144110
C100	C	-1.157323	0.158081	0.000114
C101	C	-1.220209	0.179718	0.082330
C102	C	-1.305283	0.140137	0.082339
C103	C	-1.327473	0.078919	0.000133
C104	C	-1.264586	0.057279	-0.082089
C105	C	-1.179511	0.096859	-0.082099
H106	H	-1.203784	0.225038	0.143189
H107	H	-1.351836	0.156158	0.143206
H108	H	-1.390450	0.049619	0.000140
H109	H	-1.281010	0.011959	-0.142949
H110	H	-1.132958	0.080839	-0.142965
C111	C	-1.152218	0.445833	0.000097
C112	C	-1.215106	0.467464	0.082312
C113	C	-1.300178	0.427877	0.082317
C114	C	-1.322362	0.366660	0.000108
C115	C	-1.259472	0.345026	-0.082113
C116	C	-1.174401	0.384612	-0.082118
H117	H	-1.198686	0.512783	0.143174
H118	H	-1.346733	0.443892	0.143183
H119	H	-1.385337	0.337355	0.000112
H120	H	-1.275893	0.299706	-0.142975
H121	H	-1.127846	0.368597	-0.142984
H122	H	-1.095906	-0.012195	0.744174
H123	H	-0.888834	-0.232731	0.436802
H124	H	-1.127118	0.625382	0.000089
C125	C	-0.830873	0.401053	0.000056
C126	C	-0.767531	0.405072	-0.082160
C127	C	-0.684281	0.342029	-0.082165
C128	C	-0.664373	0.274966	0.000046
C129	C	-0.727717	0.270944	0.082269
C130	C	-0.810967	0.333987	0.082274
H131	H	-0.782267	0.454719	-0.143023
H132	H	-0.637390	0.345007	-0.143032
H133	H	-0.602747	0.228298	0.000043
H134	H	-0.712982	0.221298	0.143132
H135	H	-0.857858	0.331010	0.143140
C136	C	-1.112188	0.005178	0.549126
C137	C	-1.110685	0.107037	0.562837
C138	C	-1.173439	0.173899	0.508019
C139	C	-1.237697	0.138901	0.439489
C140	C	-1.239202	0.037037	0.425775
C141	C	-1.176448	-0.029825	0.480593
H142	H	-1.063116	0.132949	0.613570
H143	H	-1.172325	0.249306	0.518171
H144	H	-1.284151	0.188397	0.398909
H145	H	-1.286772	0.011125	0.375042
H146	H	-1.177563	-0.105232	0.470441
H147	H	-1.132222	0.337618	0.000100
H148	H	-0.849496	0.586696	0.000071
H149	H	-0.854605	0.298946	0.000055
H150	H	-1.095864	-0.012183	0.256007
H151	H	-0.888867	-0.232750	0.744168
H152	H	-0.888843	-0.232743	0.563374
