data_functionalizedCrystal
_audit_creation_method	'MofGen! by Chris Wilmer'
_symmetry_space_group_name_H-M	'P1'
_symmetry_Int_Tables_number	1
_symmetry_cell_setting	triclinic
loop_
_symmetry_equiv_pos_as_xyz
  x,y,z
_cell_length_a	19.805407
_cell_length_b	21.295417
_cell_length_c	19.805399
_cell_angle_alpha	89.967749
_cell_angle_beta	89.983114
_cell_angle_gamma	90.030507
loop_
_atom_site_label
_atom_site_type_symbol
_atom_site_fract_x
_atom_site_fract_y
_atom_site_fract_z
Zn1	Zn	1.034698	-0.250615	-0.382704
Zn2	Zn	1.034611	-0.355886	-0.269510
Zn3	Zn	0.921518	-0.250635	-0.269529
Zn4	Zn	0.921469	-0.355850	-0.382656
O5	O	0.978074	-0.303247	-0.326100
O6	O	1.129403	-0.264586	-0.367701
O7	O	1.019593	-0.341948	-0.174796
O8	O	0.936590	-0.162543	-0.284570
O9	O	1.129339	-0.341929	-0.284537
O10	O	1.019743	-0.162528	-0.367719
O11	O	0.936504	-0.264620	-0.174810
O12	O	0.826795	-0.264585	-0.284523
O13	O	0.936505	-0.341867	-0.477379
O14	O	0.826759	-0.341887	-0.367638
O15	O	1.019694	-0.264551	-0.477415
O16	O	1.019544	-0.443971	-0.284491
O17	O	0.936419	-0.443945	-0.367619
C18	C	0.802218	-0.303235	-0.326078
C19	C	0.726986	-0.303245	-0.326085
C20	C	0.691640	-0.343556	-0.369292
C21	C	0.620952	-0.343557	-0.369302
C22	C	0.585610	-0.303250	-0.326100
C23	C	0.620961	-0.262934	-0.282890
C24	C	0.691648	-0.262930	-0.282885
C25	C	0.335888	-0.262948	-0.282913
C26	C	0.265195	-0.262956	-0.282920
C27	C	0.265192	-0.343575	-0.369330
C28	C	0.335879	-0.343571	-0.369324
C29	C	0.371223	-0.303253	-0.326117
C30	C	0.447871	-0.303252	-0.326109
C31	C	0.508963	-0.303254	-0.326105
C32	C	0.977985	-0.466798	-0.326062
C33	C	0.978009	-0.536766	-0.326069
C34	C	1.021331	-0.569626	-0.282828
C35	C	1.021363	-0.635368	-0.282844
C36	C	0.978061	-0.668249	-0.326092
C37	C	0.934736	-0.635381	-0.369341
C38	C	0.934710	-0.569640	-0.369330
N39	N	0.918850	-0.771515	-0.331245
N40	N	0.918876	-0.833966	-0.331252
C41	C	0.978136	-0.866324	-0.326131
N42	N	1.037371	-0.833870	-0.320989
N43	N	1.037343	-0.771413	-0.320979
C44	C	0.978084	-0.739534	-0.326110
C45	C	1.021496	-0.970469	-0.282905
C46	C	1.021529	-1.036212	-0.282925
C47	C	0.934896	-1.036224	-0.369419
C48	C	0.934869	-0.970482	-0.369402
C49	C	0.978168	-0.937608	-0.326142
C50	C	1.154617	-0.303259	-0.326122
C51	C	1.229849	-0.303265	-0.326132
C52	C	0.978104	-0.303203	-0.502643
C53	C	0.978116	-0.303184	-0.577875
C54	C	0.978181	-0.139056	-0.326152
C55	C	0.978227	-0.069088	-0.326175
C56	C	0.934865	-0.262916	-0.613226
C57	C	0.934874	-0.262904	-0.683914
C58	C	0.978139	-0.303157	-0.719250
C59	C	1.021393	-0.343430	-0.683894
C60	C	1.021379	-0.343445	-0.613207
C61	C	1.021446	-0.343371	-0.968968
C62	C	1.021458	-0.343352	-1.039660
C63	C	0.934941	-0.262830	-1.039675
C64	C	0.934928	-0.262845	-0.968988
C65	C	0.978178	-0.303120	-0.933638
C66	C	0.978167	-0.303133	-0.856989
C67	C	0.978154	-0.303141	-0.795897
C68	C	0.978083	-0.303245	-0.150244
C69	C	0.978202	-0.303086	-0.075012
H70	H	0.720425	-0.230101	-0.247704
H71	H	1.056643	-0.662128	-0.247632
O72	O	0.586540	-0.382748	-0.411175
C73	C	0.545627	-0.423366	-0.372555
H74	H	0.535033	-0.401098	-0.321309
H75	H	0.495925	-0.431838	-0.400110
H76	H	0.572840	-0.470006	-0.365020
H77	H	1.056589	-0.542862	-0.247605
H78	H	0.899590	-0.943726	-0.404610
O79	O	0.892766	-0.667388	-0.411386
C80	C	0.931289	-0.705344	-0.455154
H81	H	0.982601	-0.715166	-0.431330
H82	H	0.903731	-0.751590	-0.464206
H83	H	0.938685	-0.679969	-0.505316
O84	O	0.892802	-0.223810	-0.934694
C85	C	0.825338	-0.237551	-0.951968
H86	H	0.821894	-0.287835	-0.971382
H87	H	0.791894	-0.232138	-0.905479
H88	H	0.807674	-0.203791	-0.993008
O89	O	0.892560	-0.537815	-0.411355
C90	C	0.854360	-0.580929	-0.449548
H91	H	0.852053	-0.627814	-0.421834
H92	H	0.801020	-0.561974	-0.456715
H93	H	0.879118	-0.587862	-0.500978
O94	O	0.370182	-0.223852	-0.240844
C95	C	0.352862	-0.237518	-0.173360
H96	H	0.333412	-0.287806	-0.169842
H97	H	0.399336	-0.232044	-0.139925
H98	H	0.311834	-0.203755	-0.155743
H99	H	0.899651	-0.230116	-0.712694
O100	O	1.063332	-0.382540	-0.578760
C101	C	1.054054	-0.373912	-0.508793
H102	H	1.001832	-0.353293	-0.499141
H103	H	1.058607	-0.421070	-0.481912
H104	H	1.094221	-0.340398	-0.488749
H105	H	0.899722	-0.230038	-1.068465
O106	O	1.063524	-0.938598	-0.240794
C107	C	1.048771	-0.954712	-0.173323
H108	H	1.022777	-1.002469	-0.171906
H109	H	1.097641	-0.956937	-0.143019
H110	H	1.013969	-0.917760	-0.150486
O111	O	0.230962	-0.382792	-0.411333
C112	C	0.277314	-0.418356	-0.449473
H113	H	0.327688	-0.420502	-0.421736
H114	H	0.256867	-0.467962	-0.456601
H115	H	0.284869	-0.395362	-0.500921
H116	H	1.056691	-0.376133	-1.068429
O117	O	1.063397	-0.382475	-0.718322
C118	C	1.054125	-0.373838	-0.788294
H119	H	1.031993	-0.325254	-0.797963
H120	H	1.104826	-0.378108	-0.815162
H121	H	1.018058	-0.411169	-0.808336
H122	H	1.056656	-0.376172	-0.940194
H123	H	0.236422	-0.230129	-0.247740
O124	O	0.725864	-0.382731	-0.411323
C125	C	0.679505	-0.418321	-0.449450
H126	H	0.629131	-0.392542	-0.451847
H127	H	0.699944	-0.425097	-0.502764
H128	H	0.671953	-0.466101	-0.424571
O129	O	0.370282	-0.382637	-0.411326
C130	C	0.411190	-0.346843	-0.455120
H131	H	0.421794	-0.299110	-0.431339
H132	H	0.460889	-0.372490	-0.464139
H133	H	0.383969	-0.339986	-0.505294
H134	H	0.592180	-0.230112	-0.247718
H135	H	1.056811	-1.062965	-0.247714
H136	H	0.899642	-1.062995	-0.404636
H137	H	0.899637	-0.230133	-0.584460
