data_functionalizedCrystal
_audit_creation_method	'MofGen! by Chris Wilmer'
_symmetry_space_group_name_H-M	'P1'
_symmetry_Int_Tables_number	1
_symmetry_cell_setting	triclinic
loop_
_symmetry_equiv_pos_as_xyz
  x,y,z
_cell_length_a	21.295418
_cell_length_b	12.759400
_cell_length_c	12.759393
_cell_angle_alpha	90.031564
_cell_angle_beta	89.959121
_cell_angle_gamma	89.969501
loop_
_atom_site_label
_atom_site_type_symbol
_atom_site_fract_x
_atom_site_fract_y
_atom_site_fract_z
Zn1	Zn	0.962407	0.417761	-0.594609
Zn2	Zn	1.462407	0.917761	-0.094609
Zn3	Zn	0.962344	0.593480	-0.418929
Zn4	Zn	1.462344	1.093480	0.081071
Zn5	Zn	0.857136	0.417864	-0.418880
Zn6	Zn	1.357136	0.917864	0.081120
Zn7	Zn	0.857129	0.593447	-0.594502
Zn8	Zn	1.357129	1.093447	-0.094502
O9	O	0.909754	0.505638	-0.506730
O10	O	1.409754	1.005638	-0.006730
O11	O	1.050488	0.441041	-0.571370
O12	O	1.550488	0.941041	-0.071370
O13	O	0.948364	0.570241	-0.271901
O14	O	1.448364	1.070241	0.228099
O15	O	0.871129	0.270829	-0.442215
O16	O	1.371129	0.770829	0.057785
O17	O	1.050442	0.570141	-0.442299
O18	O	1.550442	1.070141	0.057701
O19	O	0.948472	0.270753	-0.571322
O20	O	1.448472	0.770753	-0.071322
O21	O	0.871068	0.441216	-0.271865
O22	O	1.371068	0.941216	0.228135
O23	O	0.769045	0.441185	-0.442111
O24	O	1.269045	0.941185	0.057889
O25	O	0.871118	0.570085	-0.741537
O26	O	1.371118	1.070085	-0.241537
O27	O	0.769040	0.570185	-0.571140
O28	O	1.269040	1.070185	-0.071140
O29	O	0.948465	0.441009	-0.741616
O30	O	1.448465	0.941009	-0.241616
O31	O	0.948358	0.740496	-0.442195
O32	O	1.448358	1.240496	0.057805
O33	O	0.871057	0.740472	-0.571188
O34	O	1.371057	1.240472	-0.071188
C35	C	0.909717	0.778605	-0.506708
C36	C	1.409717	1.278605	-0.006708
C37	C	0.909758	0.895382	-0.506734
C38	C	1.409758	1.395382	-0.006734
C39	C	0.746202	0.505693	-0.506609
C40	C	1.246202	1.005693	-0.006609
C41	C	0.676234	0.505742	-0.506582
C42	C	1.176234	1.005742	-0.006582
C43	C	0.909798	0.505532	-0.780764
C44	C	1.409798	1.005532	-0.280764
C45	C	0.909817	0.505486	-0.897540
C46	C	1.409817	1.005486	-0.397540
C47	C	0.643381	0.573001	-0.573667
C48	C	1.143381	1.073001	-0.073667
C49	C	0.577639	0.572975	-0.573714
C50	C	1.077639	1.072975	-0.073714
C51	C	0.544752	0.505701	-0.506658
C52	C	1.044752	1.005701	-0.006658
C53	C	0.577612	0.438429	-0.439568
C54	C	1.077612	0.938429	0.060432
C55	C	0.643354	0.438449	-0.439530
C56	C	1.143354	0.938449	0.060470
N57	N	0.441477	0.497506	-0.414766
N58	N	0.941477	0.997506	0.085234
N59	N	0.379026	0.497493	-0.414805
N60	N	0.879026	0.997493	0.085195
C61	C	0.346677	0.505634	-0.506769
C62	C	0.846677	1.005634	-0.006769
N63	N	0.379139	0.513810	-0.598696
N64	N	0.879139	1.013810	-0.098696
N65	N	0.441596	0.513828	-0.598656
N66	N	0.941596	1.013828	-0.098656
C67	C	0.473466	0.505671	-0.506692
C68	C	0.973466	1.005671	-0.006692
C69	C	0.242539	0.572869	-0.573911
C70	C	0.742539	1.072869	-0.073911
C71	C	0.176795	0.572836	-0.573960
C72	C	0.676795	1.072836	-0.073960
C73	C	0.176770	0.438295	-0.439804
C74	C	0.676770	0.938295	0.060196
C75	C	0.242512	0.438322	-0.439765
C76	C	0.742512	0.938322	0.060235
C77	C	0.275393	0.505615	-0.506817
C78	C	0.775393	1.005615	-0.006817
C79	C	1.073944	0.505583	-0.506852
C80	C	1.573944	1.005583	-0.006852
C81	C	1.143912	0.505560	-0.506904
C82	C	1.643912	1.005560	-0.006904
C83	C	0.909809	0.231604	-0.506775
C84	C	1.409809	0.731604	-0.006775
C85	C	0.909832	0.114828	-0.506794
C86	C	1.409832	0.614828	-0.006794
C87	C	0.950053	0.950221	-0.439642
C88	C	1.450053	1.450221	0.060358
C89	C	0.950092	1.059945	-0.439674
C90	C	1.450092	1.559945	0.060326
C91	C	0.869535	1.059980	-0.573894
C92	C	1.369535	1.559980	-0.073894
C93	C	0.869500	0.950258	-0.573866
C94	C	1.369500	1.450258	-0.073866
C95	C	0.996561	0.950202	-0.362148
C96	C	1.496561	1.450202	0.137852
C97	C	0.996599	1.059926	-0.362180
C98	C	1.496599	1.559926	0.137820
C99	C	0.950097	0.438270	-0.952445
C100	C	1.450097	0.938270	-0.452445
C101	C	0.950112	0.438232	-1.062169
C102	C	1.450112	0.938232	-0.562169
C103	C	0.869565	0.572636	-1.062074
C104	C	1.369565	1.072636	-0.562074
C105	C	0.869547	0.572668	-0.952352
C106	C	1.369547	1.072668	-0.452352
C107	C	0.996603	0.360677	-0.952501
C108	C	1.496603	0.860677	-0.452501
C109	C	0.996618	0.360639	-1.062225
C110	C	1.496618	0.860639	-0.562225
C111	C	0.909746	0.505667	-0.233763
C112	C	1.409746	1.005667	0.266237
C113	C	0.909849	0.505417	-0.116987
C114	C	1.409849	1.005417	0.383013
H115	H	0.670149	0.627795	-0.628268
H116	H	1.170149	1.127795	-0.128268
H117	H	0.150047	0.627604	-0.628595
H118	H	0.650047	1.127604	-0.128595
H119	H	0.836744	0.627398	-0.907653
H120	H	1.336744	1.127398	-0.407653
H121	H	1.042917	1.093849	-0.391422
H122	H	1.542917	1.593849	0.108578
H123	H	0.149994	0.383514	-0.385211
H124	H	0.649994	0.883514	0.114789
C125	C	0.278652	0.364340	-0.365956
C126	C	0.778652	0.864340	0.134044
N127	N	0.305872	0.308613	-0.310360
N128	N	0.805872	0.808613	0.189640
C129	C	0.541435	0.364427	-0.365806
C130	C	1.041435	0.864427	0.134194
N131	N	0.514186	0.308684	-0.310248
N132	N	1.014186	0.808684	0.189752
C133	C	0.679493	0.364461	-0.365723
C134	C	1.179493	0.864461	0.134277
N135	N	0.706714	0.308734	-0.310127
N136	N	1.206714	0.808734	0.189873
H137	H	1.042901	0.389824	-0.918495
H138	H	1.542901	0.889824	-0.418495
H139	H	1.045299	0.920322	-0.384031
H140	H	1.545299	1.420322	0.115969
H141	H	0.836694	0.905609	-0.628507
H142	H	1.336694	1.405609	-0.128507
C143	C	0.825249	1.120355	-0.647728
C144	C	1.325249	1.620355	-0.147728
N145	N	0.791890	1.165828	-0.703339
N146	N	1.291890	1.665828	-0.203339
H147	H	0.269312	0.627657	-0.628514
H148	H	0.769312	1.127657	-0.128514
H149	H	0.983575	1.089794	-0.280791
H150	H	1.483575	1.589794	0.219209
H151	H	0.979110	0.916263	-0.284810
H152	H	1.479110	1.416263	0.215190
C153	C	0.825269	0.646530	-1.122377
C154	C	1.325269	1.146530	-0.622377
N155	N	0.791905	0.702188	-1.167797
N156	N	1.291905	1.202188	-0.667797
C157	C	0.973082	0.256192	-1.108212
C158	C	1.473082	0.756192	-0.608212
N159	N	0.955362	0.177521	-1.142851
N160	N	1.455362	0.677521	-0.642851
H161	H	1.045372	0.382409	-1.092035
H162	H	1.545372	0.882409	-0.592035
C163	C	0.541494	0.646972	-0.647512
C164	C	1.041494	1.146972	-0.147512
N165	N	0.514271	0.702708	-0.703096
N166	N	1.014271	1.202708	-0.203096
C167	C	0.978977	0.250770	-0.912285
C168	C	1.478977	0.750770	-0.412285
N169	N	0.965700	0.167991	-0.881995
N170	N	1.465700	0.667991	-0.381995
