data_functionalizedCrystal
_audit_creation_method	'MofGen! by Chris Wilmer'
_symmetry_space_group_name_H-M	'P1'
_symmetry_Int_Tables_number	1
_symmetry_cell_setting	triclinic
loop_
_symmetry_equiv_pos_as_xyz
  x,y,z
_cell_length_a	16.109301
_cell_length_b	11.026607
_cell_length_c	14.586319
_cell_angle_alpha	89.998207
_cell_angle_beta	89.999213
_cell_angle_gamma	96.023749
loop_
_atom_site_label
_atom_site_type_symbol
_atom_site_fract_x
_atom_site_fract_y
_atom_site_fract_z
O1	O	1.126503	0.155971	-0.076179
O2	O	0.887350	0.175382	-0.076193
O3	O	0.987106	-0.010969	-0.076183
O4	O	1.026747	0.342322	-0.076188
O5	O	0.987097	-0.010971	0.076297
O6	O	0.887341	0.175379	0.076288
O7	O	1.126494	0.155969	0.076302
Cu8	Cu	1.006916	0.165674	0.090218
Cu9	Cu	1.006927	0.165677	-0.090108
O10	O	1.026738	0.342319	0.076293
C11	C	0.856253	0.174594	0.000046
C12	C	0.763604	0.172237	0.000040
C13	C	0.557080	0.277333	0.000050
C14	C	0.470027	0.275108	0.000056
C15	C	0.456769	0.054010	0.000055
C16	C	0.543821	0.056235	0.000055
C17	C	0.593975	0.167900	0.000048
C18	C	0.419869	0.163450	0.000053
C19	C	0.325481	0.161038	0.000060
C20	C	0.688369	0.170314	0.000043
C21	C	0.979788	-0.056178	0.000055
C22	C	0.957987	-0.190883	0.000051
C23	C	1.018183	-0.264713	0.000053
C24	C	0.995652	-0.403938	0.000048
C25	C	1.157591	0.156756	0.000062
C26	C	1.250240	0.159114	0.000061
C27	C	1.034056	0.387529	0.000052
C28	C	1.055857	0.522234	0.000051
N29	N	1.006915	0.165671	0.217050
N30	N	1.006934	0.165670	-0.216940
C31	C	1.051109	0.083182	0.452060
C32	C	1.051111	0.083179	0.548041
C33	C	0.962734	0.248163	0.548043
C34	C	0.962728	0.248159	0.452063
C35	C	1.006920	0.165670	0.404074
C36	C	1.006929	0.165671	0.596035
C37	C	1.006930	0.165668	0.700102
C38	C	1.006918	0.165671	0.300001
H39	H	0.415924	-0.036904	0.000066
H40	H	1.087093	0.016009	0.587109
H41	H	0.926740	0.315331	0.412991
O42	O	0.919888	0.328250	0.594803
C43	C	0.929353	0.310550	0.689807
H44	H	0.988667	0.265223	0.702912
H45	H	0.933860	0.402444	0.726279
H46	H	0.873187	0.249673	0.717055
H47	H	0.927432	-0.443797	0.000038
H48	H	0.597913	0.368257	0.000051
H49	H	1.124077	-0.437909	-0.000014
O50	O	0.876634	-0.238572	-0.000079
C51	C	0.860446	-0.310903	-0.079066
H52	H	0.921293	-0.342324	-0.105391
H53	H	0.814971	-0.393849	-0.061311
H54	H	0.831984	-0.255027	-0.134364
O55	O	1.093884	0.002950	0.405363
C56	C	1.038117	-0.071945	0.349899
H57	H	0.980315	-0.023595	0.335502
H58	H	1.069930	-0.091211	0.282413
H59	H	1.019012	-0.161590	0.386931
H60	H	1.086399	-0.224848	0.000063
H61	H	0.573861	-0.032883	0.000056
H62	H	0.439992	0.364219	0.000059
