data_functionalizedCrystal
_audit_creation_method	'MofGen! by Chris Wilmer'
_symmetry_space_group_name_H-M	'P1'
_symmetry_Int_Tables_number	1
_symmetry_cell_setting	triclinic
loop_
_symmetry_equiv_pos_as_xyz
  x,y,z
_cell_length_a	8.559649
_cell_length_b	16.109301
_cell_length_c	14.586319
_cell_angle_alpha	90.005770
_cell_angle_beta	89.996134
_cell_angle_gamma	103.379927
loop_
_atom_site_label
_atom_site_type_symbol
_atom_site_fract_x
_atom_site_fract_y
_atom_site_fract_z
O1	O	2.120142	0.028206	-0.076224
O2	O	1.654916	-0.014732	-0.076230
O3	O	1.900309	0.128582	-0.076218
O4	O	1.874749	-0.115108	-0.076237
O5	O	1.900289	0.128584	0.076263
O6	O	1.654896	-0.014730	0.076250
O7	O	2.120122	0.028208	0.076257
Cu8	Cu	1.887507	0.006739	0.090176
Cu9	Cu	1.887531	0.006737	-0.090150
O10	O	1.874729	-0.115106	0.076244
C11	C	1.595374	-0.017985	0.000009
C12	C	1.417989	-0.027671	0.000007
N13	N	1.887503	0.006742	0.217008
C14	C	1.899264	0.159492	0.000023
C15	C	1.896160	0.251590	0.000024
C16	C	2.179664	0.031461	0.000015
C17	C	2.357049	0.041147	0.000011
C18	C	1.875774	-0.146016	0.000001
C19	C	1.878878	-0.238114	-0.000006
C20	C	2.034553	0.482679	0.000012
C21	C	2.031624	0.569213	0.000004
C22	C	1.740473	0.530789	0.000004
C23	C	1.743404	0.444257	0.000005
C24	C	1.890449	0.420205	0.000013
C25	C	1.884589	0.593271	0.000005
C26	C	1.881412	0.687094	-0.000003
C27	C	1.893627	0.326376	0.000020
N28	N	1.887548	0.006742	-0.216982
C29	C	1.996205	0.070186	0.548007
C30	C	1.996201	0.070185	0.452026
C31	C	1.778840	-0.056709	0.452026
C32	C	1.778853	-0.056711	0.548005
C33	C	1.887534	0.006741	0.595994
C34	C	1.887517	0.006742	0.404033
C35	C	1.887512	0.006741	0.299966
C36	C	1.887541	0.006741	0.700067
H37	H	1.334449	-0.094004	-0.000003
H38	H	2.154287	0.463099	0.000017
O39	O	1.603454	0.383533	-0.000156
C40	C	1.437855	0.263497	-0.079129
C41	C	1.596379	0.332234	-0.079066
H42	H	1.432098	0.221992	-0.142911
H43	H	1.332194	0.295505	-0.079187
H44	H	1.431965	0.222068	-0.015288
H45	H	1.602426	0.373685	-0.142896
H46	H	1.701966	0.300171	-0.078960
O47	O	2.101929	0.131860	0.594482
C48	C	2.317448	0.257753	0.584348
C49	C	2.197825	0.187945	0.531605
H50	H	2.394988	0.303127	0.533535
H51	H	2.397371	0.226986	0.629249
H52	H	2.248453	0.294862	0.629316
H53	H	2.266689	0.150812	0.486587
H54	H	2.117903	0.218765	0.486762
H55	H	2.148969	0.620077	0.000001
O56	O	1.456527	0.120325	0.000139
C57	C	1.540512	0.254631	0.079172
C58	C	1.427724	0.164994	0.079131
H59	H	1.517289	0.290765	0.143039
H60	H	1.517240	0.290875	0.015405
H61	H	1.670605	0.248586	0.079127
H62	H	1.297592	0.170960	0.079208
H63	H	1.451136	0.128783	0.142893
O64	O	2.101433	0.131941	0.405381
C65	C	2.135097	0.247850	0.297297
C66	C	2.015810	0.177864	0.350003
H67	H	2.065917	0.285009	0.252526
H68	H	2.215056	0.217251	0.252222
H69	H	2.212642	0.293141	0.348183
H70	H	1.938159	0.132551	0.299183
H71	H	1.935962	0.208521	0.395091
H72	H	1.620755	0.550384	-0.000002
O73	O	1.673323	-0.118253	0.405266
C74	C	1.577023	-0.174513	0.257404
C75	C	1.696589	-0.104754	0.310242
H76	H	1.595815	-0.163634	0.180569
H77	H	1.449020	-0.171816	0.276222
H78	H	1.597792	-0.239778	0.276316
H79	H	1.675967	-0.039456	0.291359
H80	H	1.824551	-0.107527	0.291420
H81	H	1.690359	-0.108379	0.587078
