data_functionalizedCrystal
_audit_creation_method	'MofGen! by Chris Wilmer'
_symmetry_space_group_name_H-M	'P1'
_symmetry_Int_Tables_number	1
_symmetry_cell_setting	triclinic
loop_
_symmetry_equiv_pos_as_xyz
  x,y,z
_cell_length_a	14.560438
_cell_length_b	14.560438
_cell_length_c	14.560438
_cell_angle_alpha	60.001579
_cell_angle_beta	90.002324
_cell_angle_gamma	59.999939
loop_
_atom_site_label
_atom_site_type_symbol
_atom_site_fract_x
_atom_site_fract_y
_atom_site_fract_z
Zr1	Zr	0.884769	1.005258	-0.120477
O2	O	0.738118	1.196861	-0.267125
O3	O	0.929725	0.813656	-0.075524
O4	O	0.929722	1.005256	-0.267123
O5	O	0.738123	1.005261	0.075613
O6	O	1.080863	1.005254	-0.267118
O7	O	0.738120	1.005261	-0.075527
O8	O	1.080868	0.662516	0.075618
O9	O	0.738118	1.347999	-0.267122
O10	O	1.061693	0.892462	-0.056345
O11	O	0.948900	0.892465	0.056445
O12	O	0.948897	1.118049	-0.169138
O13	O	0.836104	1.118051	-0.056348
Zr14	Zr	1.125825	1.005254	0.120581
Zr15	Zr	1.125821	1.005253	-0.120469
Zr16	Zr	0.884772	1.005259	0.120573
Zr17	Zr	0.884769	1.246305	-0.120472
Zr18	Zr	1.125824	0.764206	0.120576
O19	O	1.080869	1.196855	0.075628
O20	O	1.080863	1.196854	-0.267114
O21	O	0.738123	1.196862	0.075616
O22	O	1.272475	0.813651	0.267229
O23	O	1.272470	0.813650	-0.075513
O24	O	0.929730	0.813658	0.267218
O25	O	1.272470	1.005251	-0.075509
O26	O	1.080871	1.005255	0.267226
O27	O	0.929730	1.005258	0.267221
O28	O	1.272473	1.005251	0.075630
O29	O	0.929723	1.347995	-0.267116
O30	O	1.080871	0.662517	0.267220
O31	O	1.272475	0.662513	0.267226
O32	O	1.272472	0.662512	0.075624
O33	O	0.738121	1.347999	-0.075520
O34	O	0.929726	1.347996	-0.075514
O35	O	1.061696	0.892463	0.169242
O36	O	1.174489	0.892460	0.056452
O37	O	1.061693	1.118047	-0.056341
O38	O	0.948900	1.118050	0.056449
C39	C	1.005296	0.703742	0.000046
C40	C	1.005296	0.601411	0.000044
C41	C	0.703777	1.005262	0.000042
C42	C	0.601444	1.005263	0.000039
C43	C	1.064170	0.553334	-0.058831
C44	C	1.064175	0.457174	-0.058820
C45	C	0.946421	0.457182	0.058942
C46	C	0.946424	0.553333	0.058937
C47	C	0.553359	1.005265	-0.083223
C48	C	0.457213	1.005253	-0.083208
C49	C	0.457243	1.005243	0.083335
C50	C	0.553391	1.005246	0.083324
C51	C	0.553339	1.005277	-0.179379
C52	C	0.457193	1.005265	-0.179364
C53	C	1.306816	1.005250	0.000062
C54	C	1.409149	1.005248	0.000065
C55	C	1.005292	1.005255	-0.301465
C56	C	1.005290	1.005255	-0.403796
C57	C	1.005297	1.306770	0.000058
C58	C	1.005297	1.409101	0.000059
C59	C	0.922033	1.005259	-0.548038
C60	C	0.922028	1.005253	-0.451883
C61	C	1.088569	1.005249	-0.451863
C62	C	1.088577	1.005246	-0.548012
C63	C	1.005301	1.005257	0.301568
C64	C	1.005303	1.005257	0.403900
C65	C	1.306816	0.703736	0.000056
C66	C	1.409149	0.601403	0.000058
C67	C	1.005301	0.703743	0.301563
C68	C	1.005302	0.601412	0.403893
C69	C	1.306820	0.703737	0.301573
C70	C	1.409155	0.601405	0.403906
C71	C	0.703773	1.306774	-0.301469
C72	C	0.601438	1.409107	-0.403802
C73	C	0.703777	1.306775	0.000048
C74	C	0.601445	1.409108	0.000046
C75	C	1.005293	1.306769	-0.301459
C76	C	1.005291	1.409099	-0.403789
C77	C	1.398349	0.553326	-0.058818
C78	C	1.494506	0.457181	-0.058821
C79	C	1.612258	0.457196	0.058937
C80	C	1.516102	0.553346	0.058933
C81	C	1.064180	0.553334	0.510846
C82	C	1.064169	0.457193	0.606992
C83	C	0.946399	0.457212	0.489217
C84	C	0.946405	0.553358	0.393074
C85	C	1.516109	0.553325	0.393110
C86	C	1.612259	0.457181	0.489267
C87	C	1.494488	0.457201	0.607012
C88	C	1.398340	0.553350	0.510856
H89	H	1.112109	0.592475	-0.106783
H90	H	0.536518	1.098548	-0.255856
O91	O	0.477067	0.894125	-0.159482
C92	C	0.430187	0.798302	-0.229097
C93	C	0.407556	0.924266	-0.251752
H94	H	0.374017	0.822623	-0.303692
H95	H	0.411198	0.748045	-0.149923
H96	H	0.522171	0.730963	-0.216931
H97	H	0.315581	0.991701	-0.263971
H98	H	0.426620	0.974419	-0.330902
H99	H	0.898488	0.418027	0.106889
H100	H	1.524904	0.592495	0.106876
H101	H	0.898480	0.592477	0.106886
O102	O	0.638374	0.897567	-0.169697
C103	C	0.769827	0.812870	-0.253291
C104	C	0.673518	0.934955	-0.264413
H105	H	0.798286	0.843055	-0.329845
H106	H	0.739115	0.752577	-0.247821
H107	H	0.843439	0.752586	-0.173917
H108	H	0.599871	0.995340	-0.343783
H109	H	0.704320	0.995151	-0.269819
H110	H	1.485696	0.418062	0.694101
O111	O	1.169561	1.005193	-0.405269
C112	C	1.334703	1.005277	-0.415442
C113	C	1.243062	1.005304	-0.468303
H114	H	1.394139	1.005394	-0.466396
H115	H	1.384142	0.914855	-0.325237
H116	H	1.293615	1.095665	-0.415599
H117	H	1.284058	0.914976	-0.468226
H118	H	1.193633	1.095786	-0.558480
H119	H	0.592549	1.005227	0.151131
H120	H	1.156391	1.005240	-0.587144
H121	H	0.385887	1.095668	-0.261478
H122	H	1.112112	0.418054	0.694076
H123	H	1.699349	0.418054	0.106873
O124	O	0.841099	1.005196	-0.594572
C125	C	0.675886	1.005255	-0.584466
C126	C	0.767490	1.005305	-0.531645
H127	H	0.616335	1.005371	-0.533627
H128	H	0.716883	0.914825	-0.584239
H129	H	0.626577	1.095636	-0.674700
H130	H	0.816829	0.914985	-0.441392
H131	H	0.726424	1.095794	-0.531961
H132	H	1.311247	0.592500	0.519655
H133	H	0.854224	1.005252	-0.412752
O134	O	1.121380	0.410658	-0.116114
C135	C	1.238226	0.420753	-0.232868
C136	C	1.173462	0.473570	-0.168051
H137	H	1.280371	0.471575	-0.274856
H138	H	1.177271	0.439699	-0.299792
H139	H	1.305052	0.311803	-0.171863
H140	H	1.106636	0.582526	-0.228968
H141	H	1.234487	0.454524	-0.101111
H142	H	0.418109	1.005227	0.151145
H143	H	1.311266	0.592463	-0.106770
O144	O	1.526811	0.599844	0.289304
C145	C	1.653776	0.589463	0.182671
C146	C	1.641811	0.536734	0.300296
H147	H	1.746748	0.538442	0.191518
H148	H	1.611784	0.698401	0.134607
H149	H	1.611640	0.570522	0.134803
H150	H	1.683954	0.555582	0.348258
H151	H	1.683773	0.427812	0.348275
O152	O	1.484155	0.410249	-0.115843
C153	C	1.524318	0.222562	-0.105026
C154	C	1.536149	0.275532	-0.040313
H155	H	1.566326	0.113642	-0.043984
H156	H	1.566434	0.241369	-0.171867
H157	H	1.431351	0.273492	-0.147135
H158	H	1.629086	0.224636	0.001865
H159	H	1.493962	0.256745	0.026466
H160	H	1.699343	0.418039	0.480469
H161	H	1.112134	0.592462	0.519662
H162	H	0.898449	0.418073	0.480422
O163	O	0.889064	0.600269	0.289144
C164	C	0.741638	0.787990	0.112216
C165	C	0.806467	0.735026	0.229886
H166	H	0.674860	0.896952	0.064264
H167	H	0.699465	0.737224	0.120928
H168	H	0.802663	0.769006	0.064313
H169	H	0.745517	0.753998	0.277855
H170	H	0.848657	0.785794	0.221094
