data_functionalizedCrystal
_audit_creation_method	'MofGen! by Chris Wilmer'
_symmetry_space_group_name_H-M	'P1'
_symmetry_Int_Tables_number	1
_symmetry_cell_setting	triclinic
loop_
_symmetry_equiv_pos_as_xyz
  x,y,z
_cell_length_a	17.699097
_cell_length_b	10.723023
_cell_length_c	16.776229
_cell_angle_alpha	89.994384
_cell_angle_beta	89.989262
_cell_angle_gamma	83.877989
loop_
_atom_site_label
_atom_site_type_symbol
_atom_site_fract_x
_atom_site_fract_y
_atom_site_fract_z
O1	O	1.005068	0.157876	-0.066353
O2	O	0.784820	0.178388	-0.066340
O3	O	0.900025	-0.013531	-0.066343
O4	O	0.889863	0.349795	-0.066349
O5	O	0.900009	-0.013542	0.066233
O6	O	0.784805	0.178377	0.066237
O7	O	1.005052	0.157864	0.066224
Zn8	Zn	0.894926	0.168119	0.087280
Zn9	Zn	0.894946	0.168134	-0.087396
O10	O	0.889848	0.349783	0.066227
C11	C	0.756611	0.177645	-0.000050
C12	C	0.672579	0.175431	-0.000045
C13	C	0.156784	0.161870	-0.072344
C14	C	0.235741	0.163942	-0.072340
C15	C	0.275205	0.164973	-0.000069
C16	C	0.235709	0.163920	0.072202
C17	C	0.156754	0.161840	0.072197
C18	C	0.554126	0.172307	0.072223
C19	C	0.633086	0.174391	0.072222
C20	C	0.633113	0.174409	-0.072315
C21	C	0.554158	0.172329	-0.072319
C22	C	0.514669	0.171270	-0.000048
C23	C	0.429055	0.169021	-0.000053
C24	C	0.360817	0.167230	-0.000063
C25	C	0.899277	-0.060024	-0.000056
C26	C	0.897065	-0.198540	-0.000058
C27	C	0.896087	-0.260283	-0.068738
C28	C	0.893801	-0.403447	-0.068742
C29	C	1.033261	0.158608	-0.000068
C30	C	1.117293	0.160821	-0.000078
C31	C	0.890595	0.396276	-0.000062
C32	C	0.892807	0.534793	-0.000065
N33	N	0.894918	0.168107	0.206491
N34	N	0.894961	0.168136	-0.206607
C35	C	0.945946	0.083160	0.248206
C36	C	0.945950	0.083159	0.331659
C37	C	0.894929	0.168112	0.373394
C38	C	0.843895	0.253063	0.331672
C39	C	0.843888	0.253057	0.248222
C40	C	0.843923	0.253088	0.668220
C41	C	0.843935	0.253090	0.751676
C42	C	0.945985	0.083190	0.751656
C43	C	0.945978	0.083184	0.668206
C44	C	0.894941	0.168130	0.626492
C45	C	0.894937	0.168128	0.536003
C46	C	0.894937	0.168121	0.463881
H47	H	0.124657	0.161040	-0.131195
H48	H	0.987526	0.014011	0.634228
C49	C	0.961544	-0.086679	0.845508
C50	C	1.002078	-0.010201	0.797512
H51	H	0.996175	-0.144334	0.873811
H52	H	0.931166	-0.036086	0.882303
H53	H	0.929811	-0.131498	0.812955
H54	H	1.033807	0.034625	0.830065
H55	H	1.032469	-0.060800	0.760713
H56	H	0.802334	0.322228	0.214258
H57	H	0.893652	-0.412119	0.058738
H58	H	0.267892	0.164788	-0.131186
C59	C	0.828211	-0.429516	-0.191896
C60	C	0.892656	-0.475118	-0.148122
H61	H	0.827505	-0.473762	-0.240904
H62	H	0.783822	-0.441147	-0.162174
H63	H	0.829609	-0.342711	-0.202306
H64	H	0.891255	-0.561922	-0.137707
H65	H	0.937056	-0.463497	-0.177850
C66	C	0.562119	0.172539	-0.215193
C67	C	0.510781	0.171189	-0.151761
H68	H	0.535339	0.171824	-0.264237
H69	H	0.587516	0.246084	-0.212190
H70	H	0.598310	0.100611	-0.212176
H71	H	0.474592	0.243123	-0.154775
H72	H	0.485371	0.097636	-0.154766
C73	C	0.741091	0.280359	0.845564
C74	C	0.787845	0.346467	0.797557
H75	H	0.706470	0.338005	0.873892
H76	H	0.713600	0.228478	0.813023
H77	H	0.771498	0.229774	0.882345
H78	H	0.757438	0.397045	0.760771
H79	H	0.815338	0.398369	0.830101
H80	H	0.665275	0.175266	-0.131161
H81	H	0.267847	0.164752	0.131046
H82	H	0.665216	0.175231	0.131077
H83	H	0.124600	0.160999	0.131044
H84	H	0.896205	-0.251667	0.058738
H85	H	0.987496	0.013987	0.214231
C86	C	0.798597	0.328524	0.459604
C87	C	0.787813	0.346449	0.377546
H88	H	0.763977	0.386187	0.487921
H89	H	0.789947	0.245273	0.473288
H90	H	0.849181	0.341978	0.473253
H91	H	0.737231	0.332986	0.363896
H92	H	0.796457	0.429720	0.363856
H93	H	0.896939	-0.207154	-0.127534
H94	H	0.987501	0.013988	0.365623
H95	H	0.802369	0.322256	0.634263
H96	H	0.521985	0.171426	0.131070
