data_functionalizedCrystal
_audit_creation_method	'MofGen! by Chris Wilmer'
_symmetry_space_group_name_H-M	'P1'
_symmetry_Int_Tables_number	1
_symmetry_cell_setting	triclinic
loop_
_symmetry_equiv_pos_as_xyz
  x,y,z
_cell_length_a	16.109301
_cell_length_b	12.837942
_cell_length_c	14.586319
_cell_angle_alpha	89.996741
_cell_angle_beta	89.999213
_cell_angle_gamma	89.145211
loop_
_atom_site_label
_atom_site_type_symbol
_atom_site_fract_x
_atom_site_fract_y
_atom_site_fract_z
O1	O	1.113716	0.133240	-0.076181
O2	O	1.613716	0.633240	0.423819
O3	O	0.872971	0.149822	-0.076196
O4	O	1.372971	0.649822	0.423804
O5	O	0.988005	-0.009370	-0.076183
O6	O	1.488005	0.490630	0.423817
O7	O	0.998682	0.292432	-0.076194
O8	O	1.498682	0.792432	0.423806
O9	O	0.987996	-0.009372	0.076298
O10	O	1.487996	0.490628	0.576298
O11	O	0.872962	0.149819	0.076285
O12	O	1.372962	0.649819	0.576285
O13	O	1.113707	0.133238	0.076299
O14	O	1.613707	0.633238	0.576299
Cu15	Cu	0.993333	0.141528	0.090215
Cu16	Cu	1.493333	0.641528	0.590215
Cu17	Cu	0.993344	0.141531	-0.090111
Cu18	Cu	1.493344	0.641531	0.409889
O19	O	0.998673	0.292430	0.076287
O20	O	1.498673	0.792430	0.576287
C21	C	0.841938	0.149149	0.000043
C22	C	1.341938	0.649149	0.500043
C23	C	0.749483	0.147135	0.000037
C24	C	1.249483	0.647135	0.500037
C25	C	0.534343	0.236914	0.000045
C26	C	1.034343	0.736914	0.500045
C27	C	0.447471	0.235014	0.000051
C28	C	0.947471	0.735014	0.500051
C29	C	0.452341	0.046138	0.000054
C30	C	0.952341	0.546138	0.500054
C31	C	0.539211	0.048040	0.000054
C32	C	1.039211	0.548040	0.500054
C33	C	0.580209	0.143431	0.000045
C34	C	1.080209	0.643431	0.500045
C35	C	0.406468	0.139629	0.000050
C36	C	0.906468	0.639629	0.500050
C37	C	0.312278	0.137568	0.000057
C38	C	0.812278	0.637568	0.500057
C39	C	0.674405	0.145492	0.000040
C40	C	1.174405	0.645492	0.500040
C41	C	0.984394	-0.047991	0.000056
C42	C	1.484394	0.452009	0.500056
C43	C	0.973637	-0.163064	0.000054
C44	C	1.473637	0.336936	0.500054
C45	C	1.102954	-0.404066	0.000043
C46	C	1.602954	0.095934	0.500043
C47	C	1.092851	-0.512188	0.000041
C48	C	1.592851	-0.012188	0.500041
C49	C	0.943328	-0.487433	0.000041
C50	C	1.443328	0.012567	0.500041
C51	C	0.953431	-0.379311	0.000043
C52	C	1.453431	0.120689	0.500043
C53	C	1.033247	-0.337632	0.000046
C54	C	1.533247	0.162368	0.500046
C55	C	1.043349	-0.229507	0.000054
C56	C	1.543349	0.270493	0.500054
C57	C	0.893827	-0.204754	0.000048
C58	C	1.393827	0.295246	0.500048
C59	C	0.883724	-0.312876	0.000046
C60	C	1.383724	0.187124	0.500046
C61	C	1.144739	0.133911	0.000059
C62	C	1.644739	0.633911	0.500059
C63	C	1.237195	0.135924	0.000058
C64	C	1.737195	0.635924	0.500058
C65	C	1.002284	0.331050	0.000045
C66	C	1.502284	0.831050	0.500045
C67	C	1.013041	0.446124	0.000041
C68	C	1.513041	0.946124	0.500041
N69	N	0.993332	0.141526	0.217047
N70	N	1.493332	0.641526	0.717047
N71	N	0.993352	0.141526	-0.216943
N72	N	1.493352	0.641526	0.283057
C73	C	1.044290	0.071059	0.452059
C74	C	1.544290	0.571059	0.952059
C75	C	1.044292	0.071057	0.548040
C76	C	1.544292	0.571057	1.048040
C77	C	0.942388	0.211995	0.548038
C78	C	1.442388	0.711995	1.048038
C79	C	0.942382	0.211992	0.452059
C80	C	1.442382	0.711992	0.952059
C81	C	0.993338	0.141525	0.404071
C82	C	1.493338	0.641525	0.904071
C83	C	0.993346	0.141526	0.596032
C84	C	1.493346	0.641526	1.096032
C85	C	0.993348	0.141524	0.700099
C86	C	1.493348	0.641524	1.200099
C87	C	0.993335	0.141526	0.299998
C88	C	1.493335	0.641526	0.799998
H89	H	0.410130	0.311138	0.000052
H90	H	0.910130	0.811138	0.500052
H91	H	0.900887	0.269375	0.412985
H92	H	1.400887	0.769375	0.912985
H93	H	0.900903	0.269370	0.587119
H94	H	1.400903	0.769370	1.087119
O95	O	0.578567	0.339794	0.000054
O96	O	1.078567	0.839794	0.500054
H97	H	0.532075	0.404479	0.000067
H98	H	1.032075	0.904479	0.500067
O99	O	0.588691	-0.052794	0.000061
O100	O	1.088691	0.447206	0.500061
H101	H	0.573198	-0.098442	-0.062089
H102	H	1.073198	0.401558	0.437911
O103	O	0.408117	-0.056741	0.000055
O104	O	0.908117	0.443259	0.500055
H105	H	0.425950	-0.101658	0.062209
H106	H	0.925950	0.398342	0.562209
O107	O	1.189036	-0.359105	0.000042
O108	O	1.689036	0.140895	0.500042
H109	H	1.222946	-0.385801	0.062188
H110	H	1.722946	0.114199	0.562188
H111	H	0.878346	-0.521388	0.000030
H112	H	1.378346	-0.021388	0.500030
O113	O	1.129431	-0.184544	0.000045
O114	O	1.629431	0.315456	0.500045
H115	H	1.176204	-0.248910	0.000030
H116	H	1.676204	0.251090	0.500030
H117	H	1.149614	-0.566277	0.000036
H118	H	1.649614	-0.066277	0.500036
H119	H	0.818741	-0.346827	0.000041
H120	H	1.318741	0.153173	0.500041
H121	H	1.085780	0.013676	0.587108
H122	H	1.585780	0.513676	1.087108
O123	O	0.818634	-0.133101	0.000048
O124	O	1.318634	0.366899	0.500048
H125	H	0.839066	-0.050913	0.000045
H126	H	1.339066	0.449087	0.500045
O127	O	1.099235	-0.004951	0.400296
O128	O	1.599235	0.495049	0.900296
H129	H	1.134658	-0.053959	0.449794
H130	H	1.634658	0.446041	0.949794
