data_functionalizedCrystal
_audit_creation_method	'MofGen! by Chris Wilmer'
_symmetry_space_group_name_H-M	'P1'
_symmetry_Int_Tables_number	1
_symmetry_cell_setting	triclinic
loop_
_symmetry_equiv_pos_as_xyz
  x,y,z
_cell_length_a	12.811438
_cell_length_b	12.376457
_cell_length_c	12.811415
_cell_angle_alpha	83.964391
_cell_angle_beta	84.560771
_cell_angle_gamma	96.050530
loop_
_atom_site_label
_atom_site_type_symbol
_atom_site_fract_x
_atom_site_fract_y
_atom_site_fract_z
O1	O	1.386259	-0.032919	0.148409
O2	O	1.087466	-0.001394	0.157060
O3	O	1.241187	-0.032920	0.003334
O4	O	1.232537	-0.001392	0.302134
O5	O	1.202769	-0.213058	0.041712
O6	O	1.049048	-0.181531	0.195438
O7	O	1.347841	-0.213056	0.186787
Zn8	Zn	1.192345	-0.225894	0.197206
Zn9	Zn	1.242962	0.011444	0.146641
O10	O	1.194120	-0.181530	0.340512
C11	C	1.029951	-0.087705	0.174586
C12	C	0.915810	-0.076510	0.169620
C13	C	0.775869	0.037448	0.141703
C14	C	0.883116	0.026939	0.146366
C15	C	0.841246	-0.169458	0.188208
C16	C	0.733998	-0.158949	0.183544
C17	C	0.701314	-0.055492	0.160293
C18	C	0.594063	-0.044983	0.155636
C19	C	0.552196	-0.241379	0.197471
C20	C	0.659443	-0.251889	0.202134
N21	N	1.157808	-0.387872	0.231714
C22	C	1.357678	-0.783832	0.031998
C23	C	1.381845	-0.670447	0.007845
C24	C	1.325838	-0.599798	0.063810
C25	C	1.245660	-0.642545	0.143933
C26	C	1.221496	-0.755941	0.168094
C27	C	1.189655	-0.571907	0.199906
C28	C	1.109477	-0.614654	0.280028
C29	C	1.085317	-0.728039	0.304185
C30	C	1.141325	-0.798688	0.248220
C31	C	1.213819	-0.458511	0.175745
C32	C	1.077636	-0.430619	0.311840
C33	C	1.053469	-0.544004	0.335993
C34	C	1.405357	-0.126742	0.169260
C35	C	1.519499	-0.137930	0.174225
C36	C	1.220316	-0.126745	-0.015785
C37	C	1.215351	-0.137934	-0.129930
N38	N	1.277507	0.173421	0.112124
C39	C	1.247890	0.037451	-0.386255
C40	C	1.243225	0.026943	-0.493506
C41	C	1.201351	-0.169456	-0.451684
C42	C	1.206015	-0.158948	-0.344433
C43	C	1.229287	-0.055491	-0.311723
C44	C	1.233958	-0.044985	-0.204471
C45	C	1.192076	-0.241382	-0.162651
C46	C	1.187412	-0.251890	-0.269902
C47	C	1.214991	-0.087703	0.359631
C48	C	1.219958	-0.076507	0.473775
H49	H	1.279100	-0.423717	0.110509
H50	H	0.943817	0.102621	0.131229
H51	H	1.447126	-0.635647	-0.057388
H52	H	1.182396	-0.253684	-0.478336
Br53	Br	1.155818	-0.392286	-0.314303
Br54	Br	0.549705	0.095421	0.124088
Br55	Br	0.731503	0.177851	0.110168
Br56	Br	0.885624	-0.309853	0.219757
Br57	Br	1.166844	-0.367528	-0.061495
H58	H	1.403278	-0.841361	-0.013556
H59	H	0.686071	-0.336121	0.221062
H60	H	1.345518	-0.507475	0.044141
Br61	Br	0.451006	-0.367520	0.222714
Br62	Br	0.976520	-0.786056	0.412937
Br63	Br	1.108517	-0.952574	0.280994
H64	H	1.266847	0.121688	-0.359624
Br65	Br	0.944657	-0.602029	0.444727
H66	H	1.032032	-0.373097	0.357414
H67	H	1.252910	0.039254	-0.177842
Br68	Br	1.268466	0.153085	-0.594654
