data_functionalizedCrystal
_audit_creation_method	'MofGen! by Chris Wilmer'
_symmetry_space_group_name_H-M	'P1'
_symmetry_Int_Tables_number	1
_symmetry_cell_setting	triclinic
loop_
_symmetry_equiv_pos_as_xyz
  x,y,z
_cell_length_a	20.919287
_cell_length_b	14.395555
_cell_length_c	14.395555
_cell_angle_alpha	59.997581
_cell_angle_beta	86.842149
_cell_angle_gamma	58.210366
loop_
_atom_site_label
_atom_site_type_symbol
_atom_site_fract_x
_atom_site_fract_y
_atom_site_fract_z
Zr1	Zr	0.616716	1.016844	-0.171255
O2	O	0.514485	1.210654	-0.311409
O3	O	0.648061	0.823039	-0.128289
O4	O	0.648056	1.016851	-0.322092
O5	O	0.514488	1.016834	0.035269
O6	O	0.753413	1.016852	-0.330521
O7	O	0.514490	1.016841	-0.117606
O8	O	0.753422	0.670157	0.016158
O9	O	0.514479	1.363529	-0.311410
O10	O	0.740049	0.902753	-0.116256
O11	O	0.661421	0.902747	0.004123
O12	O	0.661415	1.130936	-0.224056
O13	O	0.582787	1.130931	-0.103677
Zr14	Zr	0.784746	1.016835	0.059120
Zr15	Zr	0.784749	1.016846	-0.184697
Zr16	Zr	0.616713	1.016833	0.072562
Zr17	Zr	0.616707	1.260663	-0.171256
Zr18	Zr	0.784755	0.773016	0.059122
O19	O	0.753401	1.210640	0.016154
O20	O	0.753405	1.210656	-0.330522
O21	O	0.514480	1.210638	0.035267
O22	O	0.886977	0.823026	0.199274
O23	O	0.886981	0.823041	-0.147402
O24	O	0.648056	0.823023	0.218387
O25	O	0.886974	1.016845	-0.147403
O26	O	0.753406	1.016828	0.209957
O27	O	0.648049	1.016827	0.218386
O28	O	0.886972	1.016838	0.005471
O29	O	0.648042	1.363531	-0.322095
O30	O	0.753419	0.670149	0.209960
O31	O	0.886983	0.670150	0.199275
O32	O	0.886985	0.670159	0.005473
O33	O	0.514476	1.363521	-0.117608
O34	O	0.648040	1.363522	-0.128293
O35	O	0.740047	0.902743	0.111921
O36	O	0.818675	0.902749	-0.008457
O37	O	0.740041	1.130932	-0.116257
O38	O	0.661412	1.130926	0.004121
C39	C	0.700743	0.711859	-0.056065
C40	C	0.700747	0.608352	-0.056064
C41	C	0.743611	0.547776	-0.121710
C42	C	0.774679	0.409663	-0.016923
C43	C	0.669683	0.562030	-0.160840
C44	C	0.731858	0.471538	0.048782
C45	C	0.626821	0.623979	-0.095209
C46	C	0.657870	0.485875	0.009644
C47	C	0.490548	1.016838	-0.039253
C48	C	0.419214	1.016837	-0.033547
C49	C	0.385701	1.016844	-0.115088
C50	C	0.318677	1.016837	-0.109720
C51	C	0.285164	1.016832	-0.022816
C52	C	0.318682	1.016821	0.058733
C53	C	0.385708	1.016818	0.053370
C54	C	0.082792	1.016829	-0.002403
C55	C	0.015761	1.016835	0.002953
C56	C	0.015761	1.016849	-0.165500
C57	C	0.082785	1.016855	-0.170860
C58	C	0.116300	1.016837	-0.089308
C59	C	0.216654	1.016828	-0.017329
C60	C	0.184813	1.016831	-0.094791
C61	C	0.910914	1.016842	-0.072882
C62	C	0.982248	1.016842	-0.078588
C63	C	0.700735	1.016853	-0.361045
C64	C	0.700736	1.016858	-0.464552
C65	C	0.700719	1.321820	-0.056070
C66	C	0.700715	1.425328	-0.056070
C67	C	0.657852	1.141274	-0.583917
C68	C	0.731782	1.079078	-0.620670
C69	C	0.626810	1.079048	-0.612222
C70	C	0.774709	0.954662	-0.499945
C71	C	0.669684	0.954650	-0.491496
C72	C	0.743658	0.892364	-0.528179
C73	C	0.700727	1.016826	0.248910
C74	C	0.700726	1.016821	0.352417
C75	C	0.910926	0.711861	-0.072879
C76	C	0.982264	0.608354	-0.078585
C77	C	0.700739	0.711845	0.248912
C78	C	0.700742	0.608333	0.352420
C79	C	0.910922	0.711847	0.232098
C80	C	0.982259	0.608336	0.329899
C81	C	0.490540	1.321832	-0.344233
C82	C	0.419203	1.425344	-0.442034
C83	C	0.490536	1.321818	-0.039255
C84	C	0.419198	1.425325	-0.033550
C85	C	0.700723	1.321834	-0.361047
C86	C	0.700720	1.425346	-0.464555
C87	C	0.974723	0.559749	-0.137544
C88	C	1.041747	0.462506	-0.142928
C89	C	1.116310	0.413865	-0.089345
C90	C	1.123849	0.462480	-0.030383
C91	C	1.056826	0.559727	-0.025007
C92	C	1.056810	0.559729	0.312991
C93	C	1.123845	0.462482	0.404875
C94	C	1.116327	0.413838	0.513667
C95	C	1.041769	0.462454	0.530574
C96	C	0.974735	0.559706	0.438690
C97	C	0.344652	1.473962	-0.425125
C98	C	0.277617	1.571239	-0.517010
C99	C	0.285134	1.619889	-0.625802
C100	C	0.359693	1.571266	-0.642709
C101	C	0.426726	1.473997	-0.550825
C102	C	0.426738	1.473941	0.025400
C103	C	0.359715	1.571210	0.030756
C104	C	0.285152	1.619855	-0.022831
C105	C	0.277613	1.571235	-0.081787
C106	C	0.344636	1.473974	-0.087150
C107	C	0.657872	0.547745	0.354236
C108	C	0.731811	0.409635	0.441344
C109	C	0.626833	0.561973	0.449748
C110	C	0.774724	0.471523	0.438162
C111	C	0.669693	0.623935	0.446555
C112	C	0.743676	0.485834	0.533678
H113	H	0.564329	0.715634	-0.128348
Cl114	Cl	0.772372	0.268170	0.439540
Cl115	Cl	1.066281	0.620870	0.176234
H116	H	0.487446	1.434342	0.069045
H117	H	0.779969	0.787073	-0.505425
H118	H	0.643425	0.599233	-0.249445
Cl119	Cl	0.520445	1.412879	-0.572102
Cl120	Cl	0.530295	1.160265	-0.687104
Cl121	Cl	0.871178	0.268183	0.034190
H122	H	0.621652	1.246478	-0.606465
H123	H	0.110071	1.016859	-0.241625
Cl124	Cl	0.880995	0.620883	-0.204922
Cl125	Cl	-0.026372	1.016864	-0.268014
H126	H	0.643403	0.902111	-0.435875
Cl127	Cl	0.369211	1.632306	0.104883
Cl128	Cl	1.032251	0.401405	-0.217049
Cl129	Cl	0.629104	0.765438	0.448296
Cl130	Cl	1.200560	0.291607	-0.096111
Cl131	Cl	-0.026367	1.016832	0.112214
Cl132	Cl	0.601980	0.589576	0.235560
H133	H	0.230545	1.699090	-0.700609
H134	H	0.338516	1.434357	-0.336549
H135	H	0.412994	1.016810	0.119770
Cl136	Cl	0.871282	0.413810	0.429171
Cl137	Cl	1.200607	0.291574	0.629168
H138	H	0.216915	1.610811	-0.503222
H139	H	1.184567	0.422862	0.013241
H140	H	0.230584	1.699051	-0.018455
Cl141	Cl	1.066320	0.620811	0.049129
Cl142	Cl	1.217566	0.401378	0.383595
Cl143	Cl	1.032331	0.401285	0.667349
H144	H	0.758187	0.434145	0.137424
Cl145	Cl	0.183870	1.632397	-0.149142
Cl146	Cl	0.881017	0.620792	0.459967
H147	H	0.365805	1.610889	-0.731298
Cl148	Cl	0.601896	0.444143	0.095456
H149	H	0.338485	1.434394	-0.135149
H150	H	0.758044	1.131663	-0.676296
Cl151	Cl	0.799734	0.444098	0.652140
H152	H	0.564324	0.599147	0.455664
H153	H	0.779916	0.574860	-0.177137
H154	H	0.110074	1.016818	0.063998
H155	H	0.412981	1.016857	-0.185859
Cl156	Cl	0.276556	1.016805	0.167992
Cl157	Cl	0.276547	1.016844	-0.212230
H158	H	0.189360	1.016828	0.053429
Cl159	Cl	0.226947	1.016831	-0.204036
H160	H	0.837253	0.902110	-0.451588
