data_functionalizedCrystal
_audit_creation_method	'MofGen! by Chris Wilmer'
_symmetry_space_group_name_H-M	'P1'
_symmetry_Int_Tables_number	1
_symmetry_cell_setting	triclinic
loop_
_symmetry_equiv_pos_as_xyz
  x,y,z
_cell_length_a	19.805407
_cell_length_b	12.759400
_cell_length_c	19.805399
_cell_angle_alpha	89.975356
_cell_angle_beta	89.983114
_cell_angle_gamma	90.014685
loop_
_atom_site_label
_atom_site_type_symbol
_atom_site_fract_x
_atom_site_fract_y
_atom_site_fract_z
Zn1	Zn	1.034773	-0.418276	-0.382740
Zn2	Zn	1.534773	0.081724	0.117260
Zn3	Zn	1.034716	-0.593974	-0.269560
Zn4	Zn	1.534716	-0.093974	0.230440
Zn5	Zn	0.921593	-0.418309	-0.269565
Zn6	Zn	1.421593	0.081691	0.230435
Zn7	Zn	0.921574	-0.593914	-0.382707
Zn8	Zn	1.421574	-0.093914	0.117293
O9	O	0.978164	-0.506118	-0.326143
O10	O	1.478164	-0.006118	0.173857
O11	O	1.129482	-0.441594	-0.367739
O12	O	1.629482	0.058406	0.132261
O13	O	1.019694	-0.570711	-0.174844
O14	O	1.519694	-0.070711	0.325156
O15	O	0.936638	-0.271284	-0.284593
O16	O	1.436638	0.228716	0.215407
O17	O	1.129440	-0.570678	-0.284586
O18	O	1.629440	-0.070678	0.215414
O19	O	1.019791	-0.271259	-0.367743
O20	O	1.519791	0.228741	0.132257
O21	O	0.936583	-0.441651	-0.174848
O22	O	1.436583	0.058349	0.325152
O23	O	0.826874	-0.441592	-0.284561
O24	O	1.326874	0.058408	0.215439
O25	O	0.936606	-0.570576	-0.477428
O26	O	1.436606	-0.070576	0.022572
O27	O	0.826860	-0.570608	-0.367687
O28	O	1.326860	-0.070608	0.132313
O29	O	1.019773	-0.441536	-0.477452
O30	O	1.519773	0.058464	0.022548
O31	O	1.019676	-0.740987	-0.284554
O32	O	1.519676	-0.240987	0.215446
O33	O	0.936551	-0.740943	-0.367682
O34	O	1.436551	-0.240943	0.132318
C35	C	0.802308	-0.506098	-0.326121
C36	C	1.302308	-0.006098	0.173879
C37	C	0.727076	-0.506115	-0.326128
C38	C	1.227076	-0.006115	0.173872
C39	C	0.691742	-0.573394	-0.369341
C40	C	1.191742	-0.073394	0.130659
C41	C	0.621054	-0.573396	-0.369351
C42	C	1.121054	-0.073396	0.130649
C43	C	0.585700	-0.506123	-0.326143
C44	C	1.085700	-0.006123	0.173857
C45	C	0.621039	-0.438836	-0.282928
C46	C	1.121039	0.061164	0.217072
C47	C	0.691726	-0.438830	-0.282922
C48	C	1.191726	0.061170	0.217078
C49	C	0.335966	-0.438859	-0.282950
C50	C	0.835966	0.061141	0.217050
C51	C	0.265274	-0.438873	-0.282958
C52	C	0.765274	0.061127	0.217042
C53	C	0.265294	-0.573426	-0.369379
C54	C	0.765294	-0.073426	0.130621
C55	C	0.335981	-0.573419	-0.369373
C56	C	0.835981	-0.073419	0.130627
C57	C	0.371313	-0.506129	-0.326161
C58	C	0.871313	-0.006129	0.173839
C59	C	0.447961	-0.506126	-0.326152
C60	C	0.947961	-0.006126	0.173848
C61	C	0.509053	-0.506130	-0.326148
C62	C	1.009053	-0.006130	0.173852
C63	C	0.978124	-0.779086	-0.326129
C64	C	1.478124	-0.279086	0.173871
C65	C	0.978169	-0.895862	-0.326146
C66	C	1.478169	-0.395862	0.173854
C67	C	1.021500	-0.950712	-0.282908
C68	C	1.521500	-0.450712	0.217092
C69	C	1.021541	-1.060436	-0.282929
C70	C	1.521541	-0.560436	0.217071
C71	C	0.934915	-1.060450	-0.369426
C72	C	1.434915	-0.560450	0.130574
C73	C	0.934877	-0.950728	-0.369408
C74	C	1.434877	-0.450728	0.130592
C75	C	1.064791	-0.895846	-0.239646
C76	C	1.564791	-0.395846	0.260354
C77	C	1.108125	-0.950696	-0.196404
C78	C	1.608125	-0.450696	0.303596
C79	C	1.108167	-1.060420	-0.196425
C80	C	1.608167	-0.560420	0.303575
C81	C	1.064874	-1.115294	-0.239687
C82	C	1.564874	-0.615294	0.260313
C83	C	1.154707	-0.506139	-0.326165
C84	C	1.654707	-0.006139	0.173835
C85	C	1.229939	-0.506148	-0.326175
C86	C	1.729939	-0.006148	0.173825
C87	C	0.978194	-0.506045	-0.502686
C88	C	1.478194	-0.006045	-0.002686
C89	C	0.978206	-0.506014	-0.577918
C90	C	1.478206	-0.006014	-0.077918
C91	C	0.978223	-0.232085	-0.326172
C92	C	1.478223	0.267915	0.173828
C93	C	0.978248	-0.115308	-0.326184
C94	C	1.478248	0.384692	0.173816
C95	C	0.934943	-0.438806	-0.613263
C96	C	1.434943	0.061194	-0.113263
C97	C	0.934952	-0.438786	-0.683952
C98	C	1.434952	0.061214	-0.183952
C99	C	0.978229	-0.505969	-0.719294
C100	C	1.478229	-0.005969	-0.219294
C101	C	1.021495	-0.573184	-0.683943
C102	C	1.521495	-0.073184	-0.183943
C103	C	1.021481	-0.573209	-0.613256
C104	C	1.521481	-0.073209	-0.113256
C105	C	1.021548	-0.573086	-0.969017
C106	C	1.521548	-0.073086	-0.469017
C107	C	1.021560	-0.573053	-1.039709
C108	C	1.521560	-0.073053	-0.539709
C109	C	0.935019	-0.438663	-1.039712
C110	C	1.435019	0.061337	-0.539712
C111	C	0.935006	-0.438688	-0.969025
C112	C	1.435006	0.061312	-0.469025
C113	C	0.978268	-0.505906	-0.933681
C114	C	1.478268	-0.005906	-0.433681
C115	C	0.978257	-0.505929	-0.857033
C116	C	1.478257	-0.005929	-0.357033
C117	C	0.978244	-0.505941	-0.795941
C118	C	1.478244	-0.005941	-0.295941
C119	C	0.978173	-0.506115	-0.150287
C120	C	1.478173	-0.006115	0.349713
C121	C	0.978292	-0.505850	-0.075055
C122	C	1.478292	-0.005850	0.424945
H123	H	0.592289	-0.628183	-0.404539
H124	H	1.092289	-0.128183	0.095461
O125	O	1.068153	-0.645689	-0.575133
O126	O	1.568153	-0.145689	-0.075133
H127	H	1.056535	-0.728139	-0.588693
H128	H	1.556535	-0.228139	-0.088693
H129	H	0.592248	-0.384056	-0.247750
H130	H	1.092248	0.115944	0.252250
O131	O	0.374111	-0.645967	-0.415984
O132	O	0.874111	-0.145967	0.084016
H133	H	0.406298	-0.699365	-0.385634
H134	H	0.906298	-0.199365	0.114366
O135	O	1.154824	-0.891508	-0.149756
O136	O	1.654824	-0.391508	0.350244
H137	H	1.143266	-0.912640	-0.096625
H138	H	1.643266	-0.412640	0.403375
O139	O	0.888268	-0.366340	-0.575145
O140	O	1.388268	0.133660	-0.075145
H141	H	0.858183	-0.319609	-0.611601
H142	H	1.358183	0.180391	-0.111601
O143	O	1.068227	-0.645564	-0.930908
O144	O	1.568227	-0.145564	-0.430908
H145	H	1.056615	-0.728016	-0.944470
H146	H	1.556615	-0.228016	-0.444470
O147	O	0.729841	-0.366277	-0.236306
O148	O	1.229841	0.133723	0.263694
H149	H	0.693384	-0.319508	-0.206255
H150	H	1.193384	0.180492	0.293745
H151	H	0.899720	-0.384063	-0.712727
H152	H	1.399720	0.115937	-0.212727
O153	O	0.888335	-0.366219	-0.930904
O154	O	1.388335	0.133781	-0.430904
H155	H	0.858249	-0.319483	-0.967359
H156	H	1.358249	0.180517	-0.467359
O157	O	0.729877	-0.645941	-0.415950
O158	O	1.229877	-0.145941	0.084050
H159	H	0.716296	-0.728380	-0.404263
H160	H	1.216296	-0.228380	0.095737
O161	O	1.068172	-0.645654	-0.722055
O162	O	1.568172	-0.145654	-0.222055
H163	H	1.102632	-0.598625	-0.754264
H164	H	1.602632	-0.098625	-0.254264
O165	O	0.227187	-0.645996	-0.415998
O166	O	0.727187	-0.145996	0.084002
H167	H	0.172094	-0.634693	-0.408752
H168	H	0.672094	-0.134693	0.091248
H169	H	1.064760	-0.806503	-0.239622
H170	H	1.564760	-0.306503	0.260378
H171	H	0.364725	-0.384075	-0.247759
H172	H	0.864725	0.115925	0.252241
H173	H	0.236491	-0.384084	-0.247773
H174	H	0.736491	0.115916	0.252227
H175	H	0.899594	-0.906069	-0.404617
H176	H	1.399594	-0.406069	0.095383
O177	O	0.888359	-0.366150	-1.077832
O178	O	1.388359	0.133850	-0.577832
H179	H	0.895634	-0.377417	-1.132923
H180	H	1.395634	0.122583	-0.632923
O181	O	1.068238	-0.645525	-1.077827
O182	O	1.568238	-0.145525	-0.577827
H183	H	1.060983	-0.634202	-1.132917
H184	H	1.560983	-0.134202	-0.632917
H185	H	1.143456	-1.105076	-0.161221
H186	H	1.643456	-0.605076	0.338779
O187	O	1.064915	-1.233640	-0.239712
O188	O	1.564915	-0.733640	0.260288
H189	H	1.102318	-1.262566	-0.202376
H190	H	1.602318	-0.762566	0.297624
O191	O	0.888211	-1.119628	-0.416074
O192	O	1.388211	-0.619628	0.083926
H193	H	0.895510	-1.205140	-0.408816
H194	H	1.395510	-0.705140	0.091184
