data_functionalizedCrystal
_audit_creation_method	'MofGen! by Chris Wilmer'
_symmetry_space_group_name_H-M	'P1'
_symmetry_Int_Tables_number	1
_symmetry_cell_setting	triclinic
loop_
_symmetry_equiv_pos_as_xyz
  x,y,z
_cell_length_a	15.298114
_cell_length_b	12.645330
_cell_length_c	15.296720
_cell_angle_alpha	99.648098
_cell_angle_beta	110.778933
_cell_angle_gamma	80.350376
loop_
_atom_site_label
_atom_site_type_symbol
_atom_site_fract_x
_atom_site_fract_y
_atom_site_fract_z
Zn1	Zn	1.330752	-0.749164	-0.279346
Zn2	Zn	1.830752	-0.249164	0.220654
Zn3	Zn	1.357593	-0.900286	-0.123847
Zn4	Zn	1.857593	-0.400286	0.376153
Zn5	Zn	1.202158	-0.696944	-0.150807
Zn6	Zn	1.702158	-0.196944	0.349193
Zn7	Zn	1.175234	-0.900268	-0.306269
Zn8	Zn	1.675234	-0.400268	0.193731
O9	O	1.266434	-0.811666	-0.215067
O10	O	1.766434	-0.311666	0.284933
O11	O	1.464448	-0.791073	-0.236169
O12	O	1.964448	-0.291073	0.263831
O13	O	1.359476	-0.851466	0.002715
O14	O	1.859476	-0.351466	0.502715
O15	O	1.219251	-0.555534	-0.167874
O16	O	1.719251	-0.055534	0.332126
O17	O	1.484168	-0.902102	-0.121924
O18	O	1.984168	-0.402102	0.378076
O19	O	1.313729	-0.593900	-0.262312
O20	O	1.813729	-0.093900	0.237688
O21	O	1.245278	-0.702071	-0.017092
O22	O	1.745278	-0.202071	0.482908
O23	O	1.068451	-0.702053	-0.193980
O24	O	1.568451	-0.202053	0.306020
O25	O	1.173362	-0.902071	-0.432836
O26	O	1.673362	-0.402071	0.067164
O27	O	1.048670	-0.851435	-0.308196
O28	O	1.548670	-0.351435	0.191804
O29	O	1.287621	-0.791056	-0.413056
O30	O	1.787621	-0.291056	0.086944
O31	O	1.333368	-1.048621	-0.148029
O32	O	1.833368	-0.548621	0.351971
O33	O	1.199389	-1.048608	-0.282054
O34	O	1.699389	-0.548608	0.217946
C35	C	1.024818	-0.771076	-0.256935
C36	C	1.524818	-0.271076	0.243065
C37	C	0.921449	-0.753741	-0.274869
C38	C	1.421449	-0.253741	0.225131
C39	C	0.671201	-0.935609	-0.087123
C40	C	1.171201	-0.435609	0.412877
C41	C	0.768322	-0.951894	-0.070266
C42	C	1.268322	-0.451894	0.429734
C43	C	0.806609	-0.902358	-0.121416
C44	C	1.306609	-0.402358	0.378584
C45	C	0.747765	-0.836533	-0.189424
C46	C	1.247765	-0.336533	0.310576
C47	C	0.650635	-0.820239	-0.206277
C48	C	1.150635	-0.320239	0.293723
C49	C	0.786043	-0.786988	-0.240570
C50	C	1.286043	-0.286988	0.259430
C51	C	0.727199	-0.721163	-0.308578
C52	C	1.227199	-0.221163	0.191422
C53	C	0.630079	-0.704873	-0.325428
C54	C	1.130079	-0.204873	0.174572
C55	C	0.591793	-0.754410	-0.274279
C56	C	1.091793	-0.254410	0.225721
C57	C	0.883173	-0.803281	-0.223717
C58	C	1.383173	-0.303281	0.276283
C59	C	0.862607	-0.687911	-0.342871
C60	C	1.362607	-0.187911	0.157129
C61	C	0.765486	-0.671627	-0.359727
C62	C	1.265486	-0.171627	0.140273
C63	C	1.266391	-1.087084	-0.215053
C64	C	1.766391	-0.587084	0.284947
C65	C	1.266453	-1.204929	-0.215064
C66	C	1.766453	-0.704929	0.284936
C67	C	1.350649	-1.372413	-0.130623
C68	C	1.850649	-0.872413	0.369377
C69	C	1.350852	-1.249921	-0.130759
C70	C	1.850852	-0.749921	0.369241
C71	C	1.276057	-1.270258	-0.308488
C72	C	1.776057	-0.770258	0.191512
C73	C	1.276692	-1.392888	-0.308008
C74	C	1.776692	-0.892888	0.191992
C75	C	1.172458	-1.351532	-0.207051
C76	C	1.672458	-0.851532	0.292949
C77	C	1.173310	-1.228637	-0.204771
C78	C	1.673310	-0.728637	0.295229
C79	C	1.508994	-0.852415	-0.173036
C80	C	2.008994	-0.352415	0.326964
C81	C	1.612359	-0.869779	-0.155125
C82	C	2.112359	-0.369779	0.344875
C83	C	1.224494	-0.852386	-0.457633
C84	C	1.724494	-0.352386	0.042367
C85	C	1.206622	-0.869739	-0.561000
C86	C	1.706622	-0.369739	-0.061000
C87	C	1.266499	-0.535180	-0.215097
C88	C	1.766499	-0.035180	0.284903
C89	C	1.266527	-0.417358	-0.215110
C90	C	1.766527	0.082642	0.284890
C91	C	1.394205	-0.687464	-0.811180
C92	C	1.894205	-0.187464	-0.311180
C93	C	1.411002	-0.671163	-0.714061
C94	C	1.911002	-0.171163	-0.214061
C95	C	1.359909	-0.720805	-0.675791
C96	C	1.859909	-0.220805	-0.175791
C97	C	1.292015	-0.786752	-0.734650
C98	C	1.792015	-0.286752	-0.234650
C99	C	1.275220	-0.803061	-0.831778
C100	C	1.775220	-0.303061	-0.331778
C101	C	1.240924	-0.836402	-0.696388
C102	C	1.740924	-0.336402	-0.196388
C103	C	1.173030	-0.902349	-0.755247
C104	C	1.673030	-0.402349	-0.255247
C105	C	1.156239	-0.918655	-0.852366
C106	C	1.656239	-0.418655	-0.352366
C107	C	1.207332	-0.869013	-0.890636
C108	C	1.707332	-0.369013	-0.390636
C109	C	1.257719	-0.820093	-0.599260
C110	C	1.757719	-0.320093	-0.099260
C111	C	1.138734	-0.935690	-0.619858
C112	C	1.638734	-0.435690	-0.119858
C113	C	1.121937	-0.951991	-0.716977
C114	C	1.621937	-0.451991	-0.216977
C115	C	1.308264	-0.771036	0.026564
C116	C	1.808264	-0.271036	0.526564
C117	C	1.326317	-0.753415	0.129962
C118	C	1.826317	-0.253415	0.629962
H119	H	0.582171	-0.651266	-0.380799
H120	H	1.082171	-0.151266	0.119201
H121	H	0.931074	-0.856877	-0.168344
H122	H	1.431074	-0.356877	0.331656
H123	H	1.097131	-0.976115	-0.588699
H124	H	1.597131	-0.476115	-0.088699
H125	H	0.717562	-0.618031	-0.415100
H126	H	1.217562	-0.118031	0.084900
O127	O	1.083012	-0.989787	-0.915845
O128	O	1.583012	-0.489787	-0.415845
H129	H	1.116969	-1.058149	-0.952868
H130	H	1.616969	-0.558149	-0.452868
O131	O	1.346097	-1.391711	-0.037638
O132	O	1.846097	-0.891711	0.462362
H133	H	1.411030	-1.442569	-0.000398
H134	H	1.911030	-0.942569	0.499602
O135	O	1.330944	-0.748969	-0.535788
O136	O	1.830944	-0.248969	-0.035788
H137	H	1.334049	-0.745973	-0.461821
H138	H	1.834049	-0.245973	0.038179
H139	H	0.885690	-0.915621	-0.107687
H140	H	1.385690	-0.415621	0.392313
H141	H	1.420870	-1.235546	-0.134737
H142	H	1.920870	-0.735546	0.365263
O143	O	1.089639	-1.389741	-0.288766
O144	O	1.589639	-0.889741	0.211234
H145	H	1.041549	-1.420582	-0.261664
H146	H	1.541549	-0.920582	0.238336
H147	H	1.466284	-0.617472	-0.666144
H148	H	1.966284	-0.117472	-0.166144
H149	H	1.435803	-0.647059	-0.842349
H150	H	1.935803	-0.147059	-0.342349
O151	O	1.189215	-0.886589	-0.995390
O152	O	1.689215	-0.386589	-0.495390
H153	H	1.133420	-0.940783	-1.029892
H154	H	1.633420	-0.440783	-0.529892
O155	O	0.487037	-0.736851	-0.292460
O156	O	0.987037	-0.236851	0.207540
H157	H	0.452548	-0.682760	-0.348344
H158	H	0.952548	-0.182760	0.151656
O159	O	1.365583	-1.250339	-0.320380
O160	O	1.865583	-0.750339	0.179620
H161	H	1.411211	-1.328089	-0.322982
H162	H	1.911211	-0.828089	0.177018
O163	O	1.048710	-1.023119	-0.780462
O164	O	1.548710	-0.523119	-0.280462
H165	H	1.045622	-1.026119	-0.854424
H166	H	1.545622	-0.526119	-0.354424
H167	H	0.816227	-1.005487	-0.014893
H168	H	1.316227	-0.505487	0.485107
H169	H	1.373590	-0.707529	-0.596711
H170	H	1.873590	-0.207529	-0.096711
O171	O	0.903897	-0.634480	-0.398041
O172	O	1.403897	-0.134480	0.101959
H173	H	0.888006	-0.545468	-0.385441
H174	H	1.388006	-0.045468	0.114559
O175	O	0.629910	-0.989021	-0.031951
O176	O	1.129910	-0.489021	0.468049
H177	H	0.578483	-1.042587	-0.081163
H178	H	1.078483	-0.542587	0.418837
O179	O	1.345517	-1.190279	-0.038288
O180	O	1.845517	-0.690279	0.461712
H181	H	1.342771	-1.248867	0.006933
H182	H	1.842771	-0.748867	0.506933
H183	H	1.420308	-1.418079	-0.134483
H184	H	1.920308	-0.918079	0.365517
H185	H	1.344947	-1.437057	-0.316815
H186	H	1.844947	-0.937057	0.183185
O187	O	1.197850	-1.433471	-0.393025
O188	O	1.697850	-0.933471	0.106975
H189	H	1.159442	-1.365504	-0.434304
H190	H	1.659442	-0.865504	0.065696
H191	H	1.215917	-1.241889	-0.372393
H192	H	1.715917	-0.741889	0.127607
H193	H	1.160450	-1.366672	-0.141001
H194	H	1.660450	-0.866672	0.358999
H195	H	1.165761	-1.184144	-0.136101
H196	H	1.665761	-0.684144	0.363899
H197	H	1.108627	-1.196757	-0.263165
H198	H	1.608627	-0.696757	0.236835
