data_functionalizedCrystal
_audit_creation_method	'MofGen! by Chris Wilmer'
_symmetry_space_group_name_H-M	'P1'
_symmetry_Int_Tables_number	1
_symmetry_cell_setting	triclinic
loop_
_symmetry_equiv_pos_as_xyz
  x,y,z
_cell_length_a	12.759401
_cell_length_b	29.839131
_cell_length_c	12.759393
_cell_angle_alpha	89.963184
_cell_angle_beta	89.979062
_cell_angle_gamma	90.042945
loop_
_atom_site_label
_atom_site_type_symbol
_atom_site_fract_x
_atom_site_fract_y
_atom_site_fract_z
Zn1	Zn	1.606071	-0.178813	-0.593974
Zn2	Zn	1.605880	-0.253950	-0.418275
Zn3	Zn	1.430370	-0.178837	-0.418309
Zn4	Zn	1.430280	-0.253919	-0.593912
O5	O	1.518150	-0.216380	-0.506117
O6	O	1.753067	-0.188784	-0.570679
O7	O	1.582556	-0.244010	-0.271258
O8	O	1.453795	-0.115967	-0.441652
O9	O	1.752927	-0.243986	-0.441593
O10	O	1.582882	-0.115949	-0.570712
O11	O	1.453610	-0.188824	-0.271283
O12	O	1.283337	-0.188794	-0.441592
O13	O	1.453641	-0.243933	-0.740941
O14	O	1.283271	-0.243956	-0.570606
O15	O	1.582794	-0.188753	-0.740987
O16	O	1.582469	-0.316813	-0.441533
O17	O	1.453456	-0.316790	-0.570573
C18	C	1.245183	-0.216375	-0.506097
C19	C	1.128406	-0.216383	-0.506113
C20	C	1.073538	-0.245150	-0.573185
C21	C	0.963813	-0.245151	-0.573206
C22	C	0.963837	-0.187618	-0.439073
C23	C	1.073559	-0.187615	-0.439058
C24	C	1.517961	-0.333103	-0.506065
C25	C	1.517976	-0.383037	-0.506078
C26	C	1.585450	-0.692680	-0.439024
C27	C	1.585579	-0.880353	-0.439065
O28	O	1.642798	-0.904617	-0.382014
N29	N	1.518368	-0.903822	-0.506197
C30	C	1.451125	-0.880370	-0.573327
O31	O	1.393969	-0.904638	-0.630435
C32	C	1.451001	-0.692698	-0.573291
C33	C	1.518209	-0.669231	-0.506148
C34	C	1.652653	-0.669213	-0.371888
C35	C	1.652616	-0.622297	-0.371874
C36	C	1.585375	-0.598849	-0.438997
C37	C	1.518172	-0.622316	-0.506134
C38	C	1.383764	-0.669247	-0.640427
C39	C	1.383741	-0.622326	-0.640413
C40	C	1.450949	-0.598859	-0.573270
C41	C	1.450895	-0.551952	-0.573244
N42	N	1.518106	-0.528482	-0.506113
C43	C	1.585346	-0.551931	-0.438989
C44	C	1.451193	-0.978901	-0.573340
C45	C	1.451223	-1.025819	-0.573348
C46	C	1.585679	-1.025798	-0.439087
C47	C	1.585643	-0.978879	-0.439075
C48	C	1.518404	-0.955431	-0.506209
C49	C	1.585262	-0.453405	-0.438965
C50	C	1.585216	-0.406486	-0.438955
C51	C	1.450764	-0.406510	-0.573219
C52	C	1.450806	-0.453426	-0.573226
C53	C	1.518064	-0.476872	-0.506096
O54	O	1.393715	-0.527659	-0.630274
O55	O	1.642510	-0.527655	-0.381907
C56	C	1.585487	-0.739595	-0.439038
C57	C	1.518284	-0.763062	-0.506175
C58	C	1.451043	-0.739613	-0.573298
C59	C	1.518313	-0.809980	-0.506183
C60	C	1.585553	-0.833428	-0.439060
C61	C	1.652764	-0.809959	-0.371928
C62	C	1.652727	-0.763044	-0.371915
C63	C	1.383832	-0.763083	-0.640430
C64	C	1.383874	-0.809998	-0.640437
C65	C	1.451114	-0.833447	-0.573314
C66	C	1.792184	-0.216386	-0.506139
C67	C	1.908960	-0.216388	-0.506148
C68	C	1.518229	-0.216337	-0.780151
C69	C	1.518263	-0.216318	-0.896928
C70	C	1.518370	-0.099202	-0.506193
C71	C	1.518463	-0.049267	-0.506225
C72	C	1.585518	-0.187582	-0.951815
C73	C	1.585535	-0.187562	-1.061539
C74	C	1.451040	-0.245020	-1.061479
C75	C	1.451018	-0.245037	-0.951757
C76	C	1.518133	-0.216391	-0.233150
C77	C	1.518303	-0.216282	-0.116374
H78	H	1.639945	-0.387380	-0.384275
H79	H	1.640370	-0.959775	-0.384402
H80	H	1.640300	-0.164161	-1.106224
H81	H	1.329136	-0.829101	-0.695112
O82	O	1.311303	-0.737792	-0.712825
H83	H	1.257867	-0.716456	-0.665740
H84	H	0.919167	-0.164197	-0.384478
O85	O	1.378515	-0.275996	-1.120614
H86	H	1.389834	-0.271159	-1.206133
O87	O	1.658033	-0.156605	-0.892672
H88	H	1.704795	-0.136617	-0.949278
O89	O	1.378445	-0.276020	-0.892544
H90	H	1.331689	-0.295987	-0.949102
H91	H	0.919144	-0.268576	-0.627824
O92	O	1.132700	-0.276171	-0.645516
H93	H	1.076108	-0.296171	-0.692167
O94	O	1.132752	-0.156593	-0.366697
H95	H	1.076181	-0.136597	-0.320056
O96	O	1.657793	-0.478691	-0.366554
H97	H	1.704503	-0.454484	-0.319866
O98	O	1.725120	-0.596989	-0.299471
H99	H	1.771886	-0.621183	-0.252815
O100	O	1.658204	-1.051096	-0.366693
H101	H	1.704940	-1.026899	-0.320002
O102	O	1.725175	-0.694501	-0.299477
H103	H	1.771887	-0.670293	-0.252793
H104	H	1.396437	-0.959813	-0.628010
O105	O	1.378728	-1.051128	-0.645759
H106	H	1.331978	-1.026936	-0.692436
O107	O	1.311282	-0.694551	-0.712853
H108	H	1.264539	-0.670356	-0.759529
H109	H	1.328988	-0.603237	-0.695086
H110	H	1.707454	-0.743940	-0.317241
H111	H	1.396083	-0.472534	-0.627903
O112	O	1.378247	-0.381216	-0.645621
H113	H	1.389529	-0.344649	-0.634335
O114	O	1.725312	-0.835254	-0.299549
H115	H	1.714050	-0.871820	-0.310859
