data_functionalizedCrystal
_audit_creation_method	'MofGen! by Chris Wilmer'
_symmetry_space_group_name_H-M	'P1'
_symmetry_Int_Tables_number	1
_symmetry_cell_setting	triclinic
loop_
_symmetry_equiv_pos_as_xyz
  x,y,z
_cell_length_a	29.999520
_cell_length_b	29.998686
_cell_length_c	29.995014
_cell_angle_alpha	60.005185
_cell_angle_beta	60.010401
_cell_angle_gamma	59.993433
loop_
_atom_site_label
_atom_site_type_symbol
_atom_site_fract_x
_atom_site_fract_y
_atom_site_fract_z
O1	O	0.061772	-0.651300	0.544623
O2	O	0.561772	-0.151300	1.044623
O3	O	0.023267	-0.507084	0.438819
O4	O	0.523267	-0.007084	0.938819
O5	O	0.114589	-0.598332	0.438743
O6	O	0.614589	-0.098332	0.938743
O7	O	-0.029550	-0.560051	0.544699
O8	O	0.470450	-0.060051	1.044699
O9	O	0.144886	-0.568039	0.468961
O10	O	0.644886	-0.068039	0.968961
O11	O	0.053564	-0.476791	0.469038
O12	O	0.553564	0.023209	0.969038
O13	O	0.092069	-0.621007	0.574841
O14	O	0.592069	-0.121007	1.074841
Zn15	Zn	0.077627	-0.544089	0.526737
Zn16	Zn	0.577627	-0.044089	1.026737
Zn17	Zn	0.037709	-0.584002	0.486923
Zn18	Zn	0.537709	-0.084002	0.986923
O19	O	0.000748	-0.529758	0.574918
O20	O	0.500748	-0.029758	1.074918
N21	N	0.104871	-0.516854	0.553912
N22	N	0.604871	-0.016854	1.053912
N23	N	0.010470	-0.611242	0.459748
N24	N	0.510470	-0.111242	0.959748
C25	C	0.143162	-0.478782	0.827124
C26	C	0.643162	0.021218	1.327124
C27	C	0.378203	-0.478734	0.591892
C28	C	0.878203	0.021266	1.091892
C29	C	0.143005	-0.478752	0.591997
C30	C	0.643005	0.021248	1.091997
C31	C	0.142986	-0.243586	0.592008
C32	C	0.642986	0.256414	1.092008
C33	C	0.180857	-0.357087	0.629814
C34	C	0.680857	0.142913	1.129814
C35	C	0.180866	-0.440920	0.629807
C36	C	0.680866	0.059080	1.129807
C37	C	0.201840	-0.419964	0.650755
C38	C	0.701840	0.080036	1.150755
C39	C	0.293272	-0.404201	0.602606
C40	C	0.793272	0.095799	1.102606
C41	C	0.350426	-0.423248	0.583534
C42	C	0.850426	0.076752	1.083534
C43	C	0.350451	-0.515727	0.618798
C44	C	0.850451	-0.015727	1.118798
C45	C	0.293297	-0.496678	0.637872
C46	C	0.793297	0.003322	1.137872
C47	C	0.194628	-0.328499	0.573626
C48	C	0.694628	0.171501	1.073626
C49	C	0.175551	-0.271340	0.554591
C50	C	0.675551	0.228660	1.054591
C51	C	0.128936	-0.271362	0.647935
C52	C	0.628936	0.228638	1.147935
C53	C	0.148014	-0.328521	0.666970
C54	C	0.648014	0.171479	1.166970
C55	C	0.124672	-0.427119	0.643641
C56	C	0.624672	0.072881	1.143641
C57	C	0.105611	-0.446170	0.624592
C58	C	0.605611	0.053830	1.124592
C59	C	0.198934	-0.492820	0.577889
C60	C	0.698934	0.007180	1.077889
C61	C	0.217998	-0.473770	0.596931
C62	C	0.717998	0.026230	1.096931
C63	C	0.124740	-0.427136	0.742229
C64	C	0.624740	0.072864	1.242229
C65	C	0.105728	-0.446202	0.799386
C66	C	0.605728	0.053798	1.299386
C67	C	0.199085	-0.492863	0.799337
C68	C	0.699085	0.007137	1.299337
C69	C	0.218096	-0.473798	0.742178
C70	C	0.718096	0.026202	1.242178
C71	C	0.180923	-0.440933	0.713626
C72	C	0.680923	0.059067	1.213626
C73	C	0.264710	-0.440915	0.629773
C74	C	0.764710	0.059085	1.129773
C75	C	0.121509	-0.499370	0.889991
C76	C	0.621509	0.000630	1.389991
C77	C	0.441068	-0.498953	0.570621
C78	C	0.941068	0.001047	1.070621
C79	C	0.121297	-0.499349	0.571429
C80	C	0.621297	0.000651	1.071429
C81	C	0.121653	-0.180715	0.571802
C82	C	0.621653	0.319285	1.071802
C83	C	-0.111071	-0.648912	0.421584
C84	C	0.388929	-0.148912	0.921584
C85	C	-0.027286	-0.649018	0.421777
C86	C	0.472714	-0.149018	0.921777
C87	C	-0.048200	-0.669944	0.400740
C88	C	0.451800	-0.169944	0.900740
C89	C	-0.064036	-0.761340	0.448814
C90	C	0.435964	-0.261340	0.948814
C91	C	-0.045033	-0.818500	0.467893
C92	C	0.454967	-0.318500	0.967893
C93	C	0.047447	-0.818609	0.432797
C94	C	0.547447	-0.318609	0.932797
C95	C	0.028444	-0.761451	0.413717
C96	C	0.528444	-0.261451	0.913717
C97	C	-0.139731	-0.662677	0.477755
C98	C	0.360269	-0.162677	0.977755
C99	C	-0.196885	-0.643554	0.496701
C100	C	0.303115	-0.143554	0.996701
C101	C	-0.196717	-0.596907	0.403303
C102	C	0.303283	-0.096907	0.903303
C103	C	-0.139562	-0.616030	0.384357
C104	C	0.360438	-0.116030	0.884357
C105	C	-0.041053	-0.592827	0.407952
C106	C	0.458947	-0.092827	0.907952
C107	C	-0.022041	-0.573809	0.427083
C108	C	0.477959	-0.073809	0.927083
C109	C	0.024504	-0.667167	0.473848
C110	C	0.524504	-0.167167	0.973848
C111	C	0.005492	-0.686188	0.454725
C112	C	0.505492	-0.186188	0.954725
C113	C	-0.040886	-0.592836	0.309259
C114	C	0.459114	-0.092836	0.809259
C115	C	-0.021740	-0.573821	0.252102
C116	C	0.478260	-0.073821	0.752102
C117	C	0.024886	-0.667185	0.252163
C118	C	0.524886	-0.167185	0.752163
C119	C	0.005743	-0.686199	0.309322
C120	C	0.505743	-0.186199	0.809322
C121	C	-0.027145	-0.649023	0.337868
C122	C	0.472855	-0.149023	0.837868
C123	C	-0.027299	-0.732818	0.421728
C124	C	0.472701	-0.232818	0.921728
N125	N	0.492511	-0.516826	0.553742
N126	N	0.992511	-0.016826	1.053742
O127	O	0.679283	-0.525926	0.419277
O128	O	1.179283	-0.025926	0.919277
O129	O	0.679465	-0.632059	0.563349
O130	O	1.179465	-0.132059	1.063349
O131	O	0.679393	-0.631817	0.471975
O132	O	1.179393	-0.131817	0.971975
O133	O	0.679355	-0.526168	0.510650
O134	O	1.179355	-0.026168	1.010650
O135	O	0.588593	-0.601610	0.502313
O136	O	1.088593	-0.101610	1.002313
O137	O	0.588665	-0.601852	0.593686
O138	O	1.088665	-0.101852	1.093686
O139	O	0.588483	-0.495720	0.449614
O140	O	1.088483	0.004280	0.949614
Zn141	Zn	0.574158	-0.543990	0.526467
Zn142	Zn	1.074158	-0.043990	1.026467
Zn143	Zn	0.693790	-0.583788	0.486496
Zn144	Zn	1.193790	-0.083788	0.986496
O145	O	0.588555	-0.495962	0.540987
O146	O	1.088555	0.004038	1.040987
N147	N	0.775436	-0.610952	0.459215
N148	N	1.275436	-0.110952	0.959215
N149	N	0.104844	-0.129269	0.553931
N150	N	0.604844	0.370731	1.053931
O151	O	-0.029548	0.057600	0.544709
O152	O	0.470452	0.557600	1.044709
O153	O	0.114530	0.057617	0.438578
O154	O	0.614530	0.557617	0.938578
O155	O	0.023130	0.057594	0.438850
O156	O	0.523130	0.557594	0.938850
O157	O	0.061852	0.057623	0.544437
O158	O	0.561852	0.557623	1.044437
O159	O	0.053431	-0.033213	0.469115
O160	O	0.553431	0.466787	0.969115
O161	O	0.144831	-0.033190	0.468843
O162	O	0.644831	0.466810	0.968843
O163	O	0.000753	-0.033207	0.574974
O164	O	0.500753	0.466793	1.074974
Zn165	Zn	0.077603	-0.047616	0.526714
Zn166	Zn	0.577603	0.452384	1.026714
Zn167	Zn	0.037680	0.072026	0.486838
Zn168	Zn	0.537680	0.572026	0.986838
O169	O	0.092153	-0.033184	0.574702
O170	O	0.592153	0.466816	1.074702
N171	N	0.010432	0.153679	0.459622
N172	N	0.510432	0.653679	0.959622
N173	N	0.105130	-0.516904	0.941437
N174	N	0.605130	-0.016904	1.441437
O175	O	0.095923	-0.651280	1.128292
O176	O	0.595923	-0.151280	1.628292
O177	O	-0.010184	-0.507155	1.128318
O178	O	0.489816	-0.007155	1.628318
O179	O	-0.009938	-0.598539	1.128284
O180	O	0.490062	-0.098539	1.628284
O181	O	0.095677	-0.559897	1.128326
O182	O	0.595677	-0.059897	1.628326
O183	O	0.020315	-0.568257	1.037481
O184	O	0.520315	-0.068257	1.537481
O185	O	0.020068	-0.476874	1.037515
O186	O	0.520068	0.023126	1.537515
O187	O	0.126176	-0.620999	1.037489
O188	O	0.626176	-0.120999	1.537489
Zn189	Zn	0.077925	-0.544128	1.023085
Zn190	Zn	0.577925	-0.044128	1.523085
Zn191	Zn	0.038066	-0.584026	1.142722
Zn192	Zn	0.538066	-0.084026	1.642722
O193	O	0.125929	-0.529616	1.037523
O194	O	0.625929	-0.029616	1.537523
N195	N	0.010860	-0.611256	1.224371
N196	N	0.510860	-0.111256	1.724371
C197	C	0.034807	-0.473765	0.439352
C198	C	0.534807	0.026235	0.939352
C199	C	0.147897	-0.586765	0.439257
C200	C	0.647897	-0.086765	0.939257
C201	C	0.080529	-0.654326	0.574308
C202	C	0.580529	-0.154326	1.074308
C203	C	-0.032561	-0.541326	0.574403
C204	C	0.467439	-0.041326	1.074403
C205	C	0.634087	-0.631571	0.596668
C206	C	1.134087	-0.131571	1.096668
C207	C	0.633999	-0.631272	0.483513
C208	C	1.133999	-0.131272	0.983513
C209	C	0.633858	-0.496206	0.416295
C210	C	1.133858	0.003794	0.916295
C211	C	0.633949	-0.496507	0.529449
C212	C	1.133949	0.003493	1.029449
C213	C	0.147793	0.012327	0.439058
C214	C	0.647793	0.512327	0.939058
C215	C	0.034644	0.012187	0.439432
C216	C	0.534644	0.512187	0.939432
C217	C	-0.032548	0.012195	0.574457
C218	C	0.467452	0.512195	1.074457
C219	C	0.080639	0.012222	0.574120
C220	C	0.580639	0.512222	1.074120
C221	C	-0.009670	-0.473857	1.082920
C222	C	0.490330	0.026143	1.582920
C223	C	-0.009359	-0.587018	1.082860
C224	C	0.490641	-0.087018	1.582860
C225	C	0.125662	-0.654297	1.082887
C226	C	0.625662	-0.154297	1.582887
C227	C	0.125358	-0.541129	1.082927
C228	C	0.625358	-0.041129	1.582927
H229	H	0.094465	-0.400370	0.718985
H230	H	0.594465	0.099630	1.218985
C231	C	0.108765	-0.850112	0.423992
C232	C	0.608765	-0.350112	0.923992
C233	C	0.138204	-0.842292	0.448077
C234	C	0.638204	-0.342292	0.948077
C235	C	0.199519	-0.873794	0.439272
C236	C	0.699519	-0.373794	0.939272
C237	C	0.231396	-0.913116	0.406382
C238	C	0.731396	-0.413116	0.906382
C239	C	0.201957	-0.920938	0.382295
C240	C	0.701957	-0.420938	0.882295
C241	C	0.140641	-0.889435	0.391100
C242	C	0.640641	-0.389435	0.891100
H243	H	0.114606	-0.813182	0.472426
H244	H	0.614606	-0.313182	0.972426
H245	H	0.221312	-0.868004	0.457103
H246	H	0.721312	-0.368004	0.957103
H247	H	0.276786	-0.936436	0.399864
H248	H	0.776786	-0.436436	0.899864
H249	H	0.225554	-0.950048	0.357946
H250	H	0.725554	-0.450048	0.857946
H251	H	0.118849	-0.895226	0.373268
H252	H	0.618849	-0.395226	0.873268
C253	C	0.634018	-0.676111	0.472337
C254	C	1.134018	-0.176111	0.972337
C255	C	0.681147	-0.697418	0.425798
C256	C	1.181147	-0.197418	0.925798
C257	C	0.681166	-0.742257	0.414622
C258	C	1.181166	-0.242257	0.914622
C259	C	0.634056	-0.765789	0.449985
C260	C	1.134056	-0.265789	0.949985
C261	C	0.586924	-0.744483	0.496528
C262	C	1.086924	-0.244483	0.996528
C263	C	0.586905	-0.699643	0.507704
C264	C	1.086905	-0.199643	1.007704
H265	H	0.716023	-0.679997	0.399616
H266	H	1.216023	-0.179997	0.899616
H267	H	0.716056	-0.758029	0.380167
H268	H	1.216056	-0.258029	0.880167
H269	H	0.634070	-0.798982	0.441712
H270	H	1.134070	-0.298982	0.941712
H271	H	0.552047	-0.761903	0.522709
H272	H	1.052047	-0.261903	1.022709
H273	H	0.552014	-0.683871	0.542158
H274	H	1.052014	-0.183871	1.042158
C275	C	0.170186	-0.529965	1.082935
C276	C	0.670186	-0.029965	1.582935
C277	C	0.159009	-0.473969	1.082949
C278	C	0.659009	0.026031	1.582949
C279	C	0.203837	-0.462804	1.082957
C280	C	0.703837	0.037196	1.582957
C281	C	0.259842	-0.507636	1.082951
C282	C	0.759842	-0.007636	1.582951
C283	C	0.271020	-0.563635	1.082937
C284	C	0.771020	-0.063635	1.582937
C285	C	0.226192	-0.574800	1.082929
C286	C	0.726192	-0.074800	1.582929
H287	H	0.117550	-0.440779	1.082954
H288	H	0.617550	0.059221	1.582954
H289	H	0.195562	-0.421350	1.082968
H290	H	0.695562	0.078650	1.582968
H291	H	0.293026	-0.499371	1.082957
H292	H	0.793026	0.000629	1.582957
H293	H	0.312480	-0.596825	1.082933
H294	H	0.812480	-0.096825	1.582933
H295	H	0.234468	-0.616255	1.082919
H296	H	0.734468	-0.116255	1.582919
C297	C	-0.088488	-0.530309	0.619355
C298	C	0.411512	-0.030309	1.119355
C299	C	-0.109213	-0.483853	0.640784
C300	C	0.390787	0.016147	1.140784
C301	C	-0.165139	-0.472837	0.685736
C302	C	0.334861	0.027163	1.185736
C303	C	-0.200341	-0.508276	0.709259
C304	C	0.299659	-0.008276	1.209259
C305	C	-0.179617	-0.554735	0.687830
C306	C	0.320383	-0.054735	1.187830
C307	C	-0.123690	-0.565752	0.642878
C308	C	0.376310	-0.065752	1.142878
H309	H	-0.083154	-0.457616	0.623371
H310	H	0.416846	0.042384	1.123371
H311	H	-0.180480	-0.438444	0.701599
H312	H	0.319520	0.061556	1.201599
H313	H	-0.241741	-0.500121	0.742535
H314	H	0.258259	-0.000121	1.242535
H315	H	-0.205676	-0.580973	0.705243
H316	H	0.294324	-0.080973	1.205243
H317	H	-0.108349	-0.600144	0.627015
H318	H	0.391651	-0.100144	1.127015
H319	H	-0.042525	-0.595273	1.082811
H320	H	0.457475	-0.095273	1.582811
C321	C	-0.088445	0.012191	0.619472
C322	C	0.411555	0.512191	1.119472
C323	C	-0.123596	0.059348	0.642961
C324	C	0.376404	0.559348	1.142961
C325	C	-0.179493	0.059343	0.687976
C326	C	0.320507	0.559343	1.187976
C327	C	-0.200238	0.012182	0.709501
C328	C	0.299762	0.512182	1.209501
C329	C	-0.165086	-0.034978	0.686011
C330	C	0.334914	0.465022	1.186011
C331	C	-0.109189	-0.034974	0.640996
C332	C	0.390811	0.465026	1.140996
H333	H	-0.108240	0.094262	0.627027
H334	H	0.391760	0.594262	1.127027
H335	H	-0.205515	0.094255	0.705364
H336	H	0.294485	0.594255	1.205364
H337	H	-0.241616	0.012179	0.742823
H338	H	0.258384	0.512179	1.242823
H339	H	-0.180442	-0.069892	0.701945
H340	H	0.319558	0.430108	1.201945
H341	H	-0.083167	-0.069885	0.623608
H342	H	0.416833	0.430115	1.123608
H343	H	0.088930	0.012231	0.607291
H344	H	0.588930	0.512231	1.107291
C345	C	0.023699	-0.417802	0.394456
C346	C	0.523699	0.082198	0.894456
C347	C	0.059085	-0.382546	0.370933
C348	C	0.559085	0.117454	0.870933
C349	C	0.047977	-0.326582	0.326037
C350	C	0.547977	0.173418	0.826037
C351	C	0.001483	-0.305875	0.304664
C352	C	0.501483	0.194125	0.804664
C353	C	-0.033906	-0.341131	0.328187
C354	C	0.466094	0.158869	0.828187
C355	C	-0.022798	-0.397095	0.373083
C356	C	0.477202	0.102905	0.873083
H357	H	0.093505	-0.397874	0.386754
H358	H	0.593505	0.102126	0.886754
H359	H	0.074174	-0.300483	0.308624
H360	H	0.574174	0.199517	0.808624
H361	H	-0.006739	-0.264447	0.271429
H362	H	0.493261	0.235553	0.771429
H363	H	-0.068326	-0.325803	0.312366
H364	H	0.431674	0.174197	0.812366
H365	H	-0.048995	-0.423194	0.390496
H366	H	0.451005	0.076806	0.890496
H367	H	0.229173	-0.519573	0.551126
H368	H	0.729173	-0.019573	1.051126
H369	H	0.634133	-0.664888	0.638048
H370	H	1.134133	-0.164888	1.138048
H371	H	0.158977	-0.695688	1.082873
H372	H	0.658977	-0.195688	1.582873
H373	H	0.088756	-0.695753	0.607538
H374	H	0.588756	-0.195753	1.107538
H375	H	0.059977	-0.434960	0.822668
H376	H	0.559977	0.065040	1.322668
H377	H	0.026351	0.012184	0.406260
H378	H	0.526351	0.512184	0.906260
C379	C	0.633782	-0.451188	0.360401
C380	C	1.133782	0.048812	0.860401
C381	C	0.633752	-0.462098	0.315410
C382	C	1.133752	0.037902	0.815410
C383	C	0.633676	-0.417080	0.259515
C384	C	1.133676	0.082920	0.759515
C385	C	0.633630	-0.361152	0.248611
C386	C	1.133630	0.138848	0.748611
C387	C	0.633660	-0.350239	0.293604
C388	C	1.133660	0.149761	0.793604
C389	C	0.633736	-0.395257	0.349498
C390	C	1.133736	0.104743	0.849498
H391	H	0.633787	-0.503502	0.323480
H392	H	1.133787	-0.003502	0.823480
H393	H	0.633654	-0.425159	0.226209
H394	H	1.133654	0.074841	0.726209
H395	H	0.633574	-0.327826	0.207235
H396	H	1.133574	0.172174	0.707235
H397	H	0.633625	-0.308835	0.285533
H398	H	1.133625	0.191165	0.785533
H399	H	0.633758	-0.387179	0.382805
H400	H	1.133758	0.112821	0.882805
C401	C	-0.054677	-0.417940	1.082930
C402	C	0.445323	0.082060	1.582930
C403	C	-0.043772	-0.372947	1.082950
C404	C	0.456228	0.127053	1.582950
C405	C	-0.088779	-0.317030	1.082960
C406	C	0.411221	0.182970	1.582960
C407	C	-0.144690	-0.306105	1.082950
C408	C	0.355310	0.193895	1.582950
C409	C	-0.155598	-0.351099	1.082930
C410	C	0.344402	0.148901	1.582930
C411	C	-0.110591	-0.407016	1.082920
C412	C	0.389409	0.092984	1.582920
H413	H	-0.002381	-0.381033	1.082957
H414	H	0.497619	0.118967	1.582957
H415	H	-0.080704	-0.283723	1.082974
H416	H	0.419296	0.216277	1.582974
H417	H	-0.178007	-0.264712	1.082957
H418	H	0.321993	0.235288	1.582957
H419	H	-0.196989	-0.343013	1.082922
H420	H	0.303011	0.156987	1.582922
H421	H	-0.118666	-0.440324	1.082905
H422	H	0.381334	0.059676	1.582905
C423	C	-0.228057	-0.560743	0.362352
C424	C	0.271943	-0.060743	0.862352
C425	C	-0.267314	-0.502695	0.362543
C426	C	0.232686	-0.002695	0.862543
C427	C	-0.298651	-0.466531	0.321589
C428	C	0.201349	0.033469	0.821589
C429	C	-0.290731	-0.488414	0.280445
C430	C	0.209269	0.011586	0.780445
C431	C	-0.251472	-0.546466	0.280253
C432	C	0.248528	-0.046466	0.780253
C433	C	-0.220135	-0.582630	0.321206
C434	C	0.279865	-0.082630	0.821206
H435	H	-0.273179	-0.486493	0.393002
H436	H	0.226821	0.013507	0.893002
H437	H	-0.327713	-0.423557	0.321732
H438	H	0.172287	0.076443	0.821732
H439	H	-0.313929	-0.461643	0.250129
H440	H	0.186071	0.038357	0.750129
H441	H	-0.245608	-0.562668	0.249794
H442	H	0.254392	-0.062668	0.749794
H443	H	-0.191073	-0.625604	0.321063
H444	H	0.308927	-0.125604	0.821063
C445	C	0.633932	-0.451668	0.540625
C446	C	1.133932	0.048332	1.040625
C447	C	0.633985	-0.462847	0.596609
C448	C	1.133985	0.037153	1.096609
C449	C	0.633968	-0.418008	0.607784
C450	C	1.133968	0.081992	1.107784
C451	C	0.633897	-0.361991	0.562976
C452	C	1.133897	0.138009	1.062976
C453	C	0.633844	-0.350810	0.506988
C454	C	1.133844	0.149190	1.006988
C455	C	0.633862	-0.395648	0.495813
C456	C	1.133862	0.104352	0.995813
H457	H	0.634037	-0.504316	0.629782
H458	H	1.134037	-0.004316	1.129782
H459	H	0.634007	-0.426285	0.649230
H460	H	1.134007	0.073715	1.149230
H461	H	0.633885	-0.328799	0.571248
H462	H	1.133885	0.171201	1.071248
H463	H	0.633793	-0.309340	0.473815
H464	H	1.133793	0.190660	0.973815
H465	H	0.633823	-0.387371	0.454367
H466	H	1.133823	0.112629	0.954367
H467	H	0.189295	-0.594927	0.405983
H468	H	0.689295	-0.094927	0.905983
H469	H	0.189085	0.012584	0.405656
H470	H	0.689085	0.512584	0.905656
H471	H	0.263847	-0.485039	0.718893
H472	H	0.763847	0.014961	1.218893
C473	C	0.239978	-0.529007	0.830741
C474	C	0.739978	-0.029007	1.330741
C475	C	0.301778	-0.544178	0.799275
C476	C	0.801778	-0.044178	1.299275
C477	C	0.342672	-0.580323	0.830678
C478	C	0.842672	-0.080323	1.330678
C479	C	0.321767	-0.601296	0.893548
C480	C	0.821767	-0.101296	1.393548
C481	C	0.259964	-0.586125	0.925017
C482	C	0.759964	-0.086125	1.425017
C483	C	0.219070	-0.549980	0.893613
C484	C	0.719070	-0.049980	1.393613
H485	H	0.317256	-0.528652	0.752732
H486	H	0.817256	-0.028652	1.252732
H487	H	0.388423	-0.591554	0.807382
H488	H	0.888423	-0.091554	1.307382
H489	H	0.352040	-0.628053	0.916794
H490	H	0.852040	-0.128053	1.416794
H491	H	0.244486	-0.601651	0.971560
H492	H	0.744486	-0.101651	1.471560
H493	H	0.173319	-0.538749	0.916910
H494	H	0.673319	-0.038749	1.416910
H495	H	0.059853	-0.434921	0.635844
H496	H	0.559853	0.065079	1.135844
C497	C	0.083826	-0.390981	0.679800
C498	C	0.583826	0.109019	1.179800
C499	C	0.042734	-0.412862	0.734935
C500	C	0.542734	0.087138	1.234935
C501	C	0.001886	-0.376724	0.771097
C502	C	0.501886	0.123276	1.271097
C503	C	0.002130	-0.318705	0.752123
C504	C	0.502130	0.181295	1.252123
C505	C	0.043223	-0.296822	0.696985
C506	C	0.543223	0.203178	1.196985
C507	C	0.084071	-0.332960	0.660824
C508	C	0.584071	0.167040	1.160824
H509	H	0.042552	-0.455813	0.748983
H510	H	0.542552	0.044187	1.248983
H511	H	-0.028534	-0.392924	0.811913
H512	H	0.471466	0.107076	1.311913
H513	H	-0.028109	-0.291954	0.778891
H514	H	0.471891	0.208046	1.278891
H515	H	0.043405	-0.253871	0.682937
H516	H	0.543405	0.246129	1.182937
H517	H	0.114491	-0.316760	0.620007
H518	H	0.614491	0.183240	1.120007
H519	H	0.270043	-0.526578	0.659994
H520	H	0.770043	-0.026578	1.159994
C521	C	0.279819	-0.488916	0.581647
C522	C	0.779819	0.011084	1.081647
C523	C	0.305687	-0.443692	0.549786
C524	C	0.805687	0.056308	1.049786
C525	C	0.367511	-0.458825	0.534468
C526	C	0.867511	0.041175	1.034468
C527	C	0.403467	-0.519181	0.551012
C528	C	0.903467	-0.019181	1.051012
C529	C	0.377599	-0.564409	0.582874
C530	C	0.877599	-0.064409	1.082874
C531	C	0.315775	-0.549277	0.598192
C532	C	0.815775	-0.049277	1.098192
H533	H	0.279071	-0.399009	0.537538
H534	H	0.779071	0.100991	1.037538
H535	H	0.386660	-0.425343	0.510882
H536	H	0.886660	0.074657	1.010882
H537	H	0.449233	-0.530383	0.539673
H538	H	0.949233	-0.030383	1.039673
H539	H	0.404216	-0.609092	0.595122
H540	H	0.904216	-0.109092	1.095122
H541	H	0.296626	-0.582758	0.621779
H542	H	0.796626	-0.082758	1.121779
C543	C	0.381902	-0.577068	0.627703
C544	C	0.881902	-0.077068	1.127703
C545	C	0.350485	-0.617456	0.657588
C546	C	0.850485	-0.117456	1.157588
C547	C	0.381935	-0.678796	0.666494
C548	C	0.881935	-0.178796	1.166494
C549	C	0.444803	-0.699749	0.645515
C550	C	0.944803	-0.199749	1.145515
C551	C	0.476223	-0.659361	0.615627
C552	C	0.976223	-0.159361	1.115627
C553	C	0.444773	-0.598020	0.606721
C554	C	0.944773	-0.098020	1.106721
H555	H	0.303944	-0.601946	0.673120
H556	H	0.803944	-0.101946	1.173120
H557	H	0.358675	-0.708694	0.688619
H558	H	0.858675	-0.208694	1.188619
H559	H	0.468084	-0.745157	0.652107
H560	H	0.968084	-0.245157	1.152107
H561	H	0.522765	-0.674871	0.600095
H562	H	1.022765	-0.174871	1.100095
H563	H	0.468033	-0.568123	0.584597
H564	H	0.968033	-0.068123	1.084597
H565	H	0.270000	-0.358795	0.596010
H566	H	0.770000	0.141205	1.096010
C567	C	0.381847	-0.382863	0.553644
C568	C	0.881847	0.117137	1.053644
C569	C	0.350402	-0.321524	0.544731
C570	C	0.850402	0.178476	1.044731
C571	C	0.381824	-0.281137	0.514839
C572	C	0.881824	0.218863	1.014839
C573	C	0.444692	-0.302089	0.493859
C574	C	0.944692	0.197911	0.993859
C575	C	0.476140	-0.363432	0.502771
C576	C	0.976140	0.136568	1.002771
C577	C	0.444718	-0.403818	0.532664
C578	C	0.944718	0.096182	1.032664
H579	H	0.303860	-0.306011	0.560262
H580	H	0.803860	0.193989	1.060262
H581	H	0.358543	-0.235727	0.508241
H582	H	0.858543	0.264273	1.008241
H583	H	0.467952	-0.272193	0.471731
H584	H	0.967952	0.227807	0.971731
H585	H	0.522682	-0.378945	0.487240
H586	H	1.022682	0.121055	0.987240
H587	H	0.467999	-0.449228	0.539261
H588	H	0.967999	0.050772	1.039261
H589	H	0.221368	-0.351757	0.543370
H590	H	0.721368	0.148243	1.043370
H591	H	0.102202	-0.248101	0.678192
H592	H	0.602202	0.251899	1.178192
C593	C	0.190697	-0.239888	0.492780
C594	C	0.690697	0.260112	0.992780
C595	C	0.251052	-0.247732	0.456878
C596	C	0.751052	0.252268	0.956878
C597	C	0.266200	-0.216280	0.395069
C598	C	0.766200	0.283720	0.895069
C599	C	0.220993	-0.176984	0.369161
C600	C	0.720993	0.323016	0.869161
C601	C	0.160634	-0.169138	0.405063
C602	C	0.660634	0.330862	0.905063
C603	C	0.145486	-0.200590	0.466873
C604	C	0.645486	0.299410	0.966873
H605	H	0.284520	-0.276823	0.476057
H606	H	0.784520	0.223177	0.976057
H607	H	0.310882	-0.222089	0.368492
H608	H	0.810882	0.277911	0.868492
H609	H	0.232206	-0.153702	0.323405
H610	H	0.732206	0.346298	0.823405
H611	H	0.127165	-0.140047	0.385885
H612	H	0.627165	0.359953	0.885885
H613	H	0.100804	-0.194782	0.493450
H614	H	0.600804	0.305218	0.993450
C615	C	-0.036867	-0.512010	0.220639
C616	C	0.463133	-0.012010	0.720639
C617	C	-0.020262	-0.476155	0.228563
C618	C	0.479738	0.023845	0.728563
C619	C	-0.035388	-0.414345	0.197099
C620	C	0.464612	0.085655	0.697099
C621	C	-0.067119	-0.388390	0.157711
C622	C	0.432881	0.111610	0.657711
C623	C	-0.083725	-0.424246	0.149785
C624	C	0.416275	0.075754	0.649785
C625	C	-0.068599	-0.486055	0.181249
C626	C	0.431401	0.013945	0.681249
H627	H	0.003228	-0.495368	0.257722
H628	H	0.503228	0.004632	0.757722
H629	H	-0.023095	-0.387803	0.202966
H630	H	0.476905	0.112197	0.702966
H631	H	-0.078316	-0.342635	0.134419
H632	H	0.421684	0.157365	0.634419
H633	H	-0.107216	-0.405032	0.120626
H634	H	0.392784	0.094968	0.620626
H635	H	-0.080893	-0.512598	0.175382
H636	H	0.419107	-0.012598	0.675382
H637	H	-0.067667	-0.562559	0.332499
H638	H	0.432333	-0.062559	0.832499
C639	C	0.061052	-0.708080	0.220768
C640	C	0.561052	-0.208080	0.720768
C641	C	0.116128	-0.749260	0.228742
C642	C	0.616128	-0.249260	0.728742
C643	C	0.152294	-0.790158	0.197347
C644	C	0.652294	-0.290158	0.697347
C645	C	0.133383	-0.789876	0.157977
C646	C	0.633383	-0.289876	0.657977
C647	C	0.078304	-0.748695	0.150001
C648	C	0.578304	-0.248695	0.650001
C649	C	0.042138	-0.707797	0.181396
C650	C	0.542138	-0.207797	0.681396
H651	H	0.130129	-0.749470	0.257887
H652	H	0.630129	-0.249470	0.757887
H653	H	0.193067	-0.820643	0.203251
H654	H	0.693067	-0.320643	0.703251
H655	H	0.160155	-0.820152	0.134736
H656	H	0.660155	-0.320152	0.634736
H657	H	0.064302	-0.748486	0.120856
H658	H	0.564302	-0.248486	0.620856
H659	H	0.001365	-0.677312	0.175492
H660	H	0.501365	-0.177312	0.675492
H661	H	0.136793	-0.351798	0.712725
H662	H	0.636793	0.148202	1.212725
H663	H	-0.067739	-0.562558	0.381123
H664	H	0.432261	-0.062558	0.881123
C665	C	0.060576	-0.708064	0.510072
C666	C	0.560576	-0.208064	1.010072
C667	C	0.118595	-0.707876	0.491188
C668	C	0.618595	-0.207876	0.991188
C669	C	0.154673	-0.748778	0.527406
C670	C	0.654673	-0.248778	1.027406
C671	C	0.132733	-0.789868	0.582509
C672	C	0.632733	-0.289868	1.082509
C673	C	0.074711	-0.790058	0.601396
C674	C	0.574711	-0.290058	1.101396
C675	C	0.038633	-0.749156	0.565178
C676	C	0.538633	-0.249156	1.065178
H677	H	0.134839	-0.677457	0.450395
H678	H	0.634839	-0.177457	0.950395
H679	H	0.197625	-0.748637	0.513425
H680	H	0.697625	-0.248637	1.013425
H681	H	0.159440	-0.820147	0.609321
H682	H	0.659440	-0.320147	1.109321
H683	H	0.058467	-0.820477	0.642189
H684	H	0.558467	-0.320477	1.142189
H685	H	-0.004319	-0.749297	0.579159
H686	H	0.495681	-0.249297	1.079159
C687	C	0.068856	-0.730075	0.383923
C688	C	0.568856	-0.230075	0.883923
C689	C	0.103518	-0.737969	0.413255
C690	C	0.603518	-0.237969	0.913255
C691	C	0.143931	-0.706593	0.383460
C692	C	0.643931	-0.206593	0.883460
C693	C	0.149682	-0.667323	0.324332
C694	C	0.649682	-0.167323	0.824332
C695	C	0.115020	-0.659428	0.294997
C696	C	0.615020	-0.159428	0.794997
C697	C	0.074607	-0.690804	0.324792
C698	C	0.574607	-0.190804	0.824792
H699	H	0.099261	-0.767040	0.457028
H700	H	0.599261	-0.267040	0.957028
H701	H	0.169590	-0.712438	0.405177
H702	H	0.669590	-0.212438	0.905177
H703	H	0.179598	-0.644097	0.302276
H704	H	0.679598	-0.144097	0.802276
H705	H	0.119277	-0.630357	0.251224
H706	H	0.619277	-0.130357	0.751224
H707	H	0.048948	-0.684959	0.303075
H708	H	0.548948	-0.184959	0.803075
C709	C	-0.085452	-0.849867	0.497695
C710	C	0.414548	-0.349867	0.997695
C711	C	-0.132302	-0.841945	0.550733
C712	C	0.367698	-0.341945	1.050733
C713	C	-0.172725	-0.873311	0.580538
C714	C	0.327275	-0.373311	1.080538
C715	C	-0.166299	-0.912599	0.557306
C716	C	0.333701	-0.412599	1.057306
C717	C	-0.119447	-0.920523	0.504266
C718	C	0.380553	-0.420523	1.004266
C719	C	-0.079023	-0.889157	0.474461
C720	C	0.420977	-0.389157	0.974461
H721	H	-0.137061	-0.812860	0.567933
H722	H	0.362939	-0.312860	1.067933
H723	H	-0.207408	-0.867445	0.619802
H724	H	0.292592	-0.367445	1.119802
H725	H	-0.196223	-0.935817	0.579370
H726	H	0.303777	-0.435817	1.079370
H727	H	-0.114687	-0.949608	0.487066
H728	H	0.385313	-0.449608	0.987066
H729	H	-0.044340	-0.895023	0.435197
H730	H	0.455660	-0.395023	0.935197
H731	H	0.016937	-0.731954	0.332612
H732	H	0.516937	-0.231954	0.832612
H733	H	-0.033252	-0.528055	0.415829
H734	H	0.466748	-0.028055	0.915829
H735	H	-0.109425	-0.738032	0.455342
H736	H	0.390575	-0.238032	0.955342
C737	C	-0.108387	-0.698844	0.518701
C738	C	0.391613	-0.198844	1.018701
C739	C	-0.116304	-0.676967	0.559848
C740	C	0.383696	-0.176967	1.059848
C741	C	-0.084960	-0.713135	0.600796
C742	C	0.415040	-0.213135	1.100796
C743	C	-0.045701	-0.771180	0.600597
C744	C	0.454299	-0.271180	1.100597
C745	C	-0.037783	-0.793061	0.559448
C746	C	0.462217	-0.293061	1.059448
C747	C	-0.069126	-0.756893	0.518500
C748	C	0.430874	-0.256893	1.018500
H749	H	-0.145368	-0.633995	0.559997
H750	H	0.354632	-0.133995	1.059997
H751	H	-0.090822	-0.696937	0.631257
H752	H	0.409178	-0.196937	1.131257
H753	H	-0.022499	-0.797954	0.630909
H754	H	0.477501	-0.297954	1.130909
H755	H	-0.008719	-0.836032	0.559299
H756	H	0.491281	-0.336032	1.059299
H757	H	-0.063264	-0.773090	0.488039
H758	H	0.436736	-0.273090	0.988039
C759	C	-0.228417	-0.658689	0.558493
C760	C	0.271583	-0.158689	1.058493
C761	C	-0.220623	-0.642070	0.594435
C762	C	0.279377	-0.142070	1.094435
C763	C	-0.252155	-0.657203	0.656225
C764	C	0.247845	-0.157203	1.156225
C765	C	-0.291482	-0.688955	0.682074
C766	C	0.208518	-0.188955	1.182074
C767	C	-0.299278	-0.705575	0.646131
C768	C	0.200722	-0.205575	1.146131
C769	C	-0.267745	-0.690442	0.584341
C770	C	0.232255	-0.190442	1.084341
H771	H	-0.191510	-0.618565	0.575301
H772	H	0.308490	-0.118565	1.075301
H773	H	-0.246384	-0.644900	0.682832
H774	H	0.253616	-0.144900	1.182832
H775	H	-0.314824	-0.700157	0.727815
H776	H	0.185176	-0.200157	1.227815
H777	H	-0.328391	-0.729080	0.665266
H778	H	0.171609	-0.229080	1.165266
H779	H	-0.273516	-0.702745	0.557734
H780	H	0.226484	-0.202745	1.057734
H781	H	0.016700	-0.731943	0.465981
H782	H	0.516700	-0.231943	0.965981
H783	H	-0.116227	-0.604815	0.338615
H784	H	0.383773	-0.104815	0.838615
