data_functionalizedCrystal
_audit_creation_method	'MofGen! by Chris Wilmer'
_symmetry_space_group_name_H-M	'P1'
_symmetry_Int_Tables_number	1
_symmetry_cell_setting	triclinic
loop_
_symmetry_equiv_pos_as_xyz
  x,y,z
_cell_length_a	23.096457
_cell_length_b	31.640172
_cell_length_c	23.096457
_cell_angle_alpha	90.017156
_cell_angle_beta	60.008701
_cell_angle_gamma	59.998714
loop_
_atom_site_label
_atom_site_type_symbol
_atom_site_fract_x
_atom_site_fract_y
_atom_site_fract_z
Zr1	Zr	0.633660	0.407181	-0.075881
O2	O	0.754459	0.339677	-0.168338
O3	O	0.512870	0.427872	-0.047541
O4	O	0.633658	0.427854	-0.168327
O5	O	0.633670	0.339712	0.047730
O6	O	0.633646	0.497411	-0.168314
O7	O	0.633671	0.339696	-0.047552
O8	O	0.417579	0.497444	0.047749
O9	O	0.849737	0.339679	-0.168334
O10	O	0.562541	0.488609	-0.035441
O11	O	0.562548	0.436711	0.035657
O12	O	0.704760	0.436689	-0.106552
O13	O	0.704768	0.384792	-0.035454
Zr14	Zr	0.633638	0.518142	0.076103
Zr15	Zr	0.633641	0.518116	-0.075861
Zr16	Zr	0.633658	0.407207	0.076083
Zr17	Zr	0.785617	0.407183	-0.075874
Zr18	Zr	0.481681	0.518140	0.076097
O19	O	0.754428	0.497450	0.047764
O20	O	0.754432	0.497413	-0.168309
O21	O	0.754456	0.339715	0.047735
O22	O	0.512839	0.585646	0.168560
O23	O	0.512843	0.585608	-0.047512
O24	O	0.512867	0.427910	0.168532
O25	O	0.633629	0.585611	-0.047507
O26	O	0.633640	0.497469	0.168549
O27	O	0.633652	0.427912	0.168537
O28	O	0.633627	0.585627	0.047775
O29	O	0.849722	0.427858	-0.168318
O30	O	0.417577	0.497465	0.168540
O31	O	0.417561	0.585644	0.168556
O32	O	0.417563	0.585623	0.047766
O33	O	0.849735	0.339700	-0.047543
O34	O	0.849720	0.427879	-0.047527
O35	O	0.562538	0.488633	0.106775
O36	O	0.562530	0.540531	0.035676
O37	O	0.704750	0.488611	-0.035435
O38	O	0.704758	0.436714	0.035663
C39	C	0.443574	0.462658	0.000103
C40	C	0.379064	0.462657	0.000100
C41	C	0.348759	0.489743	-0.037015
C42	C	0.288137	0.489748	-0.037009
C43	C	0.257833	0.462657	0.000102
C44	C	0.288142	0.435569	0.037226
C45	C	0.348758	0.435569	0.037225
N46	N	0.195445	0.418559	-0.005052
N47	N	0.137865	0.418560	-0.005055
C48	C	0.075201	0.462656	0.000109
N49	N	0.072301	0.506750	0.005263
N50	N	0.129890	0.506748	0.005262
C51	C	0.192106	0.462654	0.000108
C52	C	-0.020838	0.489751	-0.037002
C53	C	-0.081465	0.489757	-0.036991
C54	C	-0.081453	0.435573	0.037239
C55	C	-0.020832	0.435572	0.037233
C56	C	0.009474	0.462659	0.000109
C57	C	0.633673	0.323898	0.000086
C58	C	0.633681	0.276803	0.000077
C59	C	0.559404	0.011898	0.037245
C60	C	0.559390	-0.165087	0.037259
O61	O	0.496253	-0.164924	0.068853
N62	N	0.633627	-0.214318	0.000139
C63	C	0.707872	-0.219302	-0.036984
O64	O	0.771015	-0.265237	-0.068551
C65	C	0.707886	-0.042317	-0.036994
C66	C	0.633644	0.006913	0.000123
C67	C	0.485169	0.061127	0.074359
C68	C	0.485173	0.105370	0.074352
C69	C	0.559413	0.100385	0.037231
C70	C	0.633648	0.051157	0.000116
C71	C	0.782131	-0.047302	-0.074112
C72	C	0.782127	-0.003050	-0.074109
C73	C	0.707886	0.046180	-0.036992
C74	C	0.707893	0.090415	-0.037012
N75	N	0.633656	0.139646	0.000108
C76	C	0.559416	0.144631	0.037230
C77	C	0.707860	-0.312219	-0.036978
C78	C	0.707857	-0.356465	-0.036976
C79	C	0.559374	-0.302247	0.037268
C80	C	0.559378	-0.258000	0.037262
C81	C	0.633623	-0.262988	0.000143
C82	C	0.559431	0.237543	0.037212
C83	C	0.559441	0.281788	0.037199
C84	C	0.707924	0.227566	-0.037042
C85	C	0.707913	0.183325	-0.037033
C86	C	0.633660	0.188317	0.000099
O87	O	0.770996	0.090292	-0.068584
O88	O	0.496283	0.190570	0.068805
C89	C	0.559400	-0.032345	0.037252
C90	C	0.633636	-0.081573	0.000137
C91	C	0.707875	-0.086558	-0.036984
C92	C	0.633632	-0.125819	0.000139
C93	C	0.559393	-0.120834	0.037260
C94	C	0.485156	-0.071603	0.074381
C95	C	0.485160	-0.027360	0.074374
C96	C	0.782112	-0.135789	-0.074104
C97	C	0.782102	-0.180031	-0.074095
C98	C	0.707862	-0.175046	-0.036973
C99	C	0.823725	0.462665	0.000119
C100	C	0.888235	0.462666	0.000122
C101	C	0.633652	0.462628	-0.189972
C102	C	0.633654	0.462617	-0.254485
C103	C	0.633625	0.601425	0.000137
C104	C	0.633617	0.648520	0.000145
C105	C	0.707889	0.435519	-0.321908
C106	C	0.707890	0.435532	-0.382524
C107	C	0.633652	0.462637	-0.375714
C108	C	0.559407	0.489741	-0.308278
C109	C	0.559408	0.489732	-0.247664
N110	N	0.578396	0.458896	-0.443272
N111	N	0.578400	0.458903	-0.500856
C112	C	0.633644	0.462668	-0.558339
N113	N	0.688896	0.466418	-0.556070
N114	N	0.688895	0.466408	-0.498482
C115	C	0.633642	0.462650	-0.441436
C116	C	0.707886	0.435583	-0.691492
C117	C	0.707884	0.435600	-0.752108
C118	C	0.559399	0.489806	-0.677860
C119	C	0.559403	0.489792	-0.617246
C120	C	0.633649	0.462678	-0.624067
C121	C	0.633646	0.462694	0.190195
C122	C	0.633645	0.462706	0.254707
C123	C	0.443550	0.601421	0.000129
C124	C	0.379032	0.648515	0.000134
C125	C	0.443571	0.462691	0.190187
C126	C	0.379060	0.462701	0.254697
C127	C	0.443547	0.601454	0.190212
C128	C	0.379028	0.648559	0.254731
C129	C	0.823752	0.323869	-0.189990
C130	C	0.888271	0.276764	-0.254508
C131	C	0.823749	0.323902	0.000094
C132	C	0.888267	0.276808	0.000088
C133	C	0.823728	0.462632	-0.189964
C134	C	0.888239	0.462622	-0.254474
C135	C	0.348739	0.643528	-0.036992
C136	C	0.288126	0.687773	-0.037000
C137	C	0.257803	0.737005	0.000122
C138	C	0.288102	0.741991	0.037249
C139	C	0.348718	0.697746	0.037253
C140	C	0.348759	0.489808	0.322120
C141	C	0.288153	0.489816	0.382740
C142	C	0.257844	0.462718	0.375934
C143	C	0.288150	0.435608	0.308504
C144	C	0.348759	0.435598	0.247886
C145	C	0.348725	0.697775	0.247916
C146	C	0.288111	0.742039	0.308533
C147	C	0.257796	0.737087	0.375962
C148	C	0.288105	0.687866	0.382775
C149	C	0.348722	0.643603	0.322159
C150	C	0.918581	0.227548	-0.247694
C151	C	0.979214	0.183284	-0.308310
C152	C	1.009532	0.188236	-0.375740
C153	C	0.979219	0.237457	-0.382552
C154	C	0.918591	0.281720	-0.321937
C155	C	0.918566	0.281795	0.037208
C156	C	0.979196	0.237549	0.037200
C157	C	1.009521	0.188318	0.000076
C158	C	0.979219	0.183332	-0.037049
C159	C	0.918595	0.227576	-0.037044
C160	C	0.918529	0.489725	-0.247646
C161	C	0.979136	0.489725	-0.308254
C162	C	1.009456	0.462620	-0.375690
C163	C	0.979160	0.435517	-0.382516
C164	C	0.918550	0.435519	-0.321909
H165	H	0.263465	0.413512	0.067443
C166	C	0.885224	0.335946	0.078046
N167	N	0.860118	0.376732	0.108804
C168	C	0.477710	-0.296771	0.078107
N169	N	0.416203	-0.292650	0.108869
H170	H	-0.106144	0.511817	-0.067212
C171	C	0.254801	0.682277	-0.077838
N172	N	0.229700	0.678136	-0.108594
H173	H	0.263485	0.511894	0.437639
H174	H	0.768367	0.143238	-0.067266
C175	C	0.382093	0.519616	0.329623
N176	N	0.407200	0.542066	0.335281
H177	H	1.058808	0.462622	-0.425034
H178	H	0.263439	0.782113	0.302973
C179	C	0.477737	0.519598	-0.543076
N180	N	0.416223	0.542048	-0.487209
C181	C	0.477767	0.335942	0.078034
N182	N	0.416250	0.376729	0.108792
H183	H	0.373387	0.603531	0.327717
C184	C	0.191163	0.462740	0.442624
N185	N	0.140936	0.462761	0.492857
H186	H	0.208438	0.773133	0.425313
C187	C	0.382087	0.589377	-0.077836
N188	N	0.407206	0.548591	-0.108607
C189	C	0.885247	0.335856	-0.329445
N190	N	0.860133	0.376631	-0.335105
C191	C	1.012570	0.242896	-0.456732
N192	N	1.037686	0.246991	-0.512606
C193	C	1.012492	0.405724	-0.456702
N194	N	1.037591	0.383291	-0.512581
H195	H	0.373430	0.511801	-0.067242
C196	C	1.012510	0.243046	0.078048
N197	N	1.037599	0.247187	0.108816
C198	C	0.191117	0.785671	0.000115
N199	N	0.140887	0.822325	0.000111
H200	H	0.424705	0.012723	0.104599
C201	C	0.789541	-0.317715	-0.077824
N202	N	0.851064	-0.321857	-0.108595
H203	H	0.768338	0.413534	-0.807008
C204	C	0.863779	-0.234183	-0.114931
N205	N	0.925298	-0.274969	-0.145682
H206	H	0.893927	0.223509	-0.067270
H207	H	0.498967	0.241616	0.067449
H208	H	0.424718	0.145453	0.104574
H209	H	0.263463	0.413546	0.302973
H210	H	1.058886	0.152295	0.000078
C211	C	0.012492	0.519553	-0.077831
N212	N	0.037594	0.542002	-0.108582
H213	H	1.003919	0.143241	-0.067274
H214	H	0.373422	0.413525	0.192989
H215	H	0.373398	0.701817	0.193017
C216	C	0.885249	0.222088	-0.173527
N217	N	0.860151	0.217971	-0.117666
C218	C	0.254744	0.682427	0.456954
N219	N	0.229609	0.678332	0.512828
C220	C	0.885184	0.519548	-0.173473
N221	N	0.860068	0.542015	-0.117607
H222	H	0.893895	0.413447	-0.327478
H223	H	0.768312	-0.396548	-0.067210
C224	C	1.012546	0.129146	-0.300800
N225	N	1.037649	0.088371	-0.295142
C226	C	1.076218	0.139540	-0.442412
N227	N	1.126442	0.102860	-0.492627
C228	C	1.012454	0.519539	-0.300729
N229	N	1.037548	0.541995	-0.295059
H230	H	0.263404	0.782082	0.067472
H231	H	0.263457	0.511806	-0.067234
H232	H	0.842569	-0.139856	-0.104335
H233	H	0.498952	0.511876	-0.672313
H234	H	0.768346	0.413442	-0.327468
H235	H	0.373433	0.413511	0.067449
H236	H	-0.106125	0.413515	0.067456
H237	H	0.373375	0.701814	0.067490
H238	H	0.842586	-0.087381	-0.104335
H239	H	0.424710	0.065195	0.104592
C240	C	0.012496	0.405780	0.078072
N241	N	0.037592	0.383345	0.108840
H242	H	0.498924	-0.217917	0.067492
C243	C	0.863805	-0.008543	-0.114948
N244	N	0.925325	-0.012680	-0.145709
C245	C	0.789557	0.405720	-0.456701
N246	N	0.851070	0.383265	-0.512569
C247	C	0.403492	-0.066128	0.115216
N248	N	0.341986	-0.062008	0.145975
H249	H	0.498962	0.511811	-0.302737
H250	H	0.768368	0.223516	-0.067268
C251	C	0.789557	0.405762	-0.698993
N252	N	0.851072	0.383302	-0.704645
H253	H	0.498955	0.511799	-0.192763
