data_functionalizedCrystal
_audit_creation_method	'MofGen! by Chris Wilmer'
_symmetry_space_group_name_H-M	'P1'
_symmetry_Int_Tables_number	1
_symmetry_cell_setting	triclinic
loop_
_symmetry_equiv_pos_as_xyz
  x,y,z
_cell_length_a	15.298068
_cell_length_b	17.077402
_cell_length_c	15.298034
_cell_angle_alpha	80.323481
_cell_angle_beta	110.802241
_cell_angle_gamma	99.684362
loop_
_atom_site_label
_atom_site_type_symbol
_atom_site_fract_x
_atom_site_fract_y
_atom_site_fract_z
Zn1	Zn	1.512795	-0.201553	0.772381
Zn2	Zn	1.485813	-0.313415	0.616850
Zn3	Zn	1.330389	-0.201477	0.589914
Zn4	Zn	1.357205	-0.352103	0.745363
O5	O	1.421551	-0.267137	0.681127
O6	O	1.639377	-0.200232	0.774329
O7	O	1.442680	-0.282344	0.483130
O8	O	1.354655	-0.091635	0.614152
O9	O	1.619553	-0.282417	0.660061
O10	O	1.488668	-0.091691	0.748210
O11	O	1.328491	-0.200103	0.463340
O12	O	1.203785	-0.237617	0.587955
O13	O	1.400360	-0.348355	0.879094
O14	O	1.223488	-0.348281	0.702163
O15	O	1.514671	-0.237746	0.898943
O16	O	1.468684	-0.428399	0.633863
O17	O	1.374196	-0.456823	0.728282
C18	C	1.421451	-0.471094	0.681088
C19	C	1.421498	-0.558341	0.681118
C20	C	1.179887	-0.297140	0.639205
C21	C	1.076507	-0.309997	0.621292
C22	C	1.470961	-0.919312	0.632104
C23	C	1.470910	-0.837336	0.632080
C24	C	1.421639	-0.811177	0.681174
C25	C	1.372407	-0.867001	0.730288
C26	C	1.372452	-0.948976	0.730307
C27	C	1.372317	-0.696138	0.730248
C28	C	1.372273	-0.614158	0.730231
C29	C	1.470775	-0.584498	0.632020
C30	C	1.470820	-0.666473	0.632039
C31	C	1.421590	-0.722291	0.681155
C32	C	0.826446	-0.175443	0.809152
C33	C	0.923579	-0.163366	0.825986
C34	C	0.961815	-0.200023	0.774814
C35	C	0.902910	-0.248758	0.706804
C36	C	0.805769	-0.260842	0.689973
C37	C	0.941138	-0.285421	0.655636
C38	C	0.882233	-0.334157	0.587626
C39	C	0.785102	-0.346237	0.570797
C40	C	0.746865	-0.309581	0.621969
C41	C	1.038279	-0.273338	0.672467
C42	C	1.017602	-0.358736	0.553289
C43	C	0.920470	-0.370813	0.536454
C44	C	1.664158	-0.237018	0.723213
C45	C	1.767542	-0.224183	0.741148
C46	C	1.463517	-0.297375	0.923708
C47	C	1.481400	-0.310260	1.027081
C48	C	1.421680	-0.062383	0.681190
C49	C	1.421735	0.024871	0.681217
C50	C	1.549254	-0.359133	1.085951
C51	C	1.566062	-0.371232	1.183076
C52	C	1.515013	-0.334465	1.221341
C53	C	1.447152	-0.285595	1.162470
C54	C	1.430348	-0.273490	1.065336
C55	C	1.396106	-0.248821	1.200726
C56	C	1.328246	-0.199952	1.141855
C57	C	1.311444	-0.187849	1.044731
C58	C	1.362494	-0.224617	1.006466
C59	C	1.412911	-0.260927	1.297860
C60	C	1.294005	-0.175284	1.277245
C61	C	1.277197	-0.163184	1.180120
C62	C	1.379741	-0.237037	1.439488
C63	C	1.361858	-0.224157	1.336115
H64	H	1.510993	-0.791889	0.592087
N65	N	0.721564	-0.398805	0.497451
H66	H	0.740932	-0.454595	0.514702
H67	H	0.726990	-0.376075	0.433982
N68	N	1.066583	-0.187025	0.792994
H69	H	1.098099	-0.150596	0.843849
H70	H	1.078890	-0.161683	0.733246
H71	H	1.510860	-0.539046	0.592028
N72	N	0.987110	-0.110809	0.899336
H73	H	0.948150	-0.089419	0.929199
H74	H	1.020882	-0.064709	0.868541
H75	H	1.511089	-0.940603	0.592132
H76	H	0.667774	-0.319417	0.608272
N77	N	1.058839	-0.398269	0.498090
H78	H	1.030432	-0.379813	0.428734
H79	H	1.044398	-0.458256	0.509561
H80	H	1.468164	-0.300716	1.345784
N81	N	1.523968	-0.694690	0.579095
H82	H	1.555146	-0.646893	0.547976
H83	H	1.478705	-0.728072	0.529474
N84	N	0.856933	-0.423373	0.463099
H85	H	0.789598	-0.425461	0.460203
H86	H	0.876374	-0.479136	0.480390
H87	H	1.528702	-0.344319	1.300426
N88	N	1.238269	-0.135122	0.981247
H89	H	1.174725	-0.157663	0.986616
H90	H	1.235450	-0.133040	0.913940
H91	H	0.795305	-0.145608	0.850814
H92	H	1.221945	-0.123394	1.132174
N93	N	1.238936	-0.135624	1.318502
H94	H	1.259874	-0.150712	1.388965
H95	H	1.169562	-0.153974	1.289995
H96	H	1.332149	-0.592865	0.770207
N97	N	1.101804	-0.220779	0.745818
H98	H	1.135590	-0.174635	0.715090
H99	H	1.149489	-0.253156	0.795809
H100	H	1.621314	-0.411021	1.231002
N101	N	1.604318	-0.398777	1.044684
H102	H	1.583280	-0.383783	0.974205
H103	H	1.592852	-0.458752	1.059247
H104	H	1.348813	-0.214768	0.927380
H105	H	1.332234	-0.741584	0.770249
N106	N	1.319258	-0.838784	0.783231
H107	H	1.364467	-0.805420	0.832904
H108	H	1.288078	-0.886622	0.814286
N109	N	1.319353	-1.009182	0.783272
H110	H	1.288133	-0.980173	0.814372
H111	H	1.364647	-1.043828	0.832912
