data_functionalizedCrystal
_audit_creation_method	'MofGen! by Chris Wilmer'
_symmetry_space_group_name_H-M	'P1'
_symmetry_Int_Tables_number	1
_symmetry_cell_setting	triclinic
loop_
_symmetry_equiv_pos_as_xyz
  x,y,z
_cell_length_a	29.839134
_cell_length_b	17.077402
_cell_length_c	17.077396
_cell_angle_alpha	89.970216
_cell_angle_beta	90.029325
_cell_angle_gamma	89.982256
loop_
_atom_site_label
_atom_site_type_symbol
_atom_site_fract_x
_atom_site_fract_y
_atom_site_fract_z
Zn1	Zn	0.686810	0.312616	0.444041
Zn2	Zn	0.686757	0.443891	0.312772
Zn3	Zn	0.611683	0.312631	0.312767
Zn4	Zn	0.611665	0.443832	0.443973
O5	O	0.649229	0.378242	0.378388
O6	O	0.749670	0.330048	0.426659
O7	O	0.676784	0.426510	0.202925
O8	O	0.621679	0.202782	0.330207
O9	O	0.749631	0.426495	0.330216
O10	O	0.676874	0.202771	0.426654
O11	O	0.621627	0.330074	0.202921
O12	O	0.548814	0.330017	0.330141
O13	O	0.621648	0.426395	0.553829
O14	O	0.548800	0.426409	0.426538
O15	O	0.676857	0.329991	0.553879
O16	O	0.676766	0.553730	0.330150
O17	O	0.621596	0.553686	0.426543
C18	C	0.532506	0.378209	0.378332
C19	C	0.482572	0.378214	0.378326
C20	C	0.649185	0.582190	0.378357
C21	C	0.649208	0.669440	0.378370
C22	C	0.649256	0.378184	0.583133
C23	C	0.649268	0.378160	0.670383
C24	C	0.172931	0.428508	0.428521
C25	C	-0.014742	0.428530	0.428556
O26	O	-0.039005	0.471255	0.471199
N27	N	-0.038213	0.378271	0.378448
C28	C	-0.014763	0.327999	0.328331
O29	O	-0.039033	0.285245	0.285717
C30	C	0.172909	0.327974	0.328300
C31	C	0.196378	0.378242	0.378406
C32	C	0.196400	0.478771	0.478623
C33	C	0.243315	0.478768	0.478611
C34	C	0.266762	0.428502	0.428496
C35	C	0.243293	0.378239	0.378394
C36	C	0.196358	0.277698	0.278188
C37	C	0.243279	0.277695	0.278186
C38	C	0.266748	0.327963	0.328292
C39	C	0.313655	0.327969	0.328267
N40	N	0.337126	0.378228	0.378375
C41	C	0.313680	0.428495	0.428490
C42	C	-0.113294	0.328017	0.328349
C43	C	-0.160212	0.328024	0.328356
C44	C	-0.160187	0.428555	0.428582
C45	C	-0.113269	0.428551	0.428571
C46	C	-0.089823	0.378276	0.378457
C47	C	0.412205	0.428485	0.428460
C48	C	0.459125	0.428480	0.428441
C49	C	0.459097	0.327947	0.328218
C50	C	0.412181	0.327955	0.328234
C51	C	0.388737	0.378227	0.378361
O52	O	0.337947	0.285260	0.285652
O53	O	0.337958	0.471230	0.471109
C54	C	0.126015	0.428511	0.428533
C55	C	0.102547	0.378248	0.378431
C56	C	0.125993	0.327981	0.328316
C57	C	0.055629	0.378255	0.378437
C58	C	0.032182	0.428521	0.428552
C59	C	0.055653	0.478781	0.478660
C60	C	0.102569	0.478778	0.478648
C61	C	0.102522	0.277722	0.278208
C62	C	0.055607	0.277730	0.278224
C63	C	0.032160	0.327996	0.328338
C64	C	0.766407	0.378276	0.378446
C65	C	0.816342	0.378291	0.378470
C66	C	0.649285	0.173498	0.378437
C67	C	0.649308	0.086248	0.378458
C68	C	0.677964	0.710426	0.328232
C69	C	0.677986	0.792407	0.328252
C70	C	0.649249	0.833399	0.378407
C71	C	0.620492	0.792407	0.428550
C72	C	0.620472	0.710428	0.428533
C73	C	0.620533	0.963277	0.428580
C74	C	0.620552	1.045261	0.428596
C75	C	0.678047	1.045256	0.328299
C76	C	0.678028	0.963277	0.328282
C77	C	0.649270	0.922290	0.378425
C78	C	0.649228	0.378243	0.174441
C79	C	0.649303	0.378047	0.087191
C80	C	0.678016	0.327958	0.711400
C81	C	0.678021	0.327932	0.793381
C82	C	0.649280	0.378112	0.834342
C83	C	0.620529	0.428316	0.793319
C84	C	0.620522	0.428337	0.711340
C85	C	0.620547	0.428269	0.964189
C86	C	0.620555	0.428248	1.046174
C87	C	0.678047	0.327863	1.046230
C88	C	0.678039	0.327885	0.964251
C89	C	0.649288	0.378090	0.923233
H90	H	0.393123	0.469419	0.469280
C91	C	0.238612	0.578128	0.577685
C92	C	0.269108	0.534017	0.533698
H93	H	0.254534	0.612232	0.611700
H94	H	0.220299	0.608112	0.543432
H95	H	0.220326	0.543953	0.607766
H96	H	0.287392	0.568192	0.503613
H97	H	0.287429	0.504031	0.567956
H98	H	0.177258	0.236767	0.237384
C99	C	0.598612	0.561263	0.686041
C100	C	0.588928	0.483528	0.666243
H101	H	0.579109	0.595335	0.658195
H102	H	0.594497	0.568429	0.740719
H103	H	0.628795	0.572745	0.672624
H104	H	0.558746	0.472044	0.679666
H105	H	0.593039	0.476358	0.611554
H106	H	0.597057	0.677057	0.469362
H107	H	0.701465	1.078631	0.287473
C108	C	0.734879	0.228641	1.038047
C109	C	0.709650	0.272674	1.091312
H110	H	0.754392	0.194578	1.065882
H111	H	0.715312	0.198617	1.006068
H112	H	0.752048	0.262868	1.006074
H113	H	0.692478	0.238448	1.123281
H114	H	0.729219	0.302700	1.123304
H115	H	0.701422	0.287098	0.678055
C116	C	0.143679	0.489840	0.584217
C117	C	0.170633	0.534033	0.533715
H118	H	0.127777	0.523964	0.618229
H119	H	0.122983	0.459921	0.554383
H120	H	0.162000	0.455674	0.614297
H121	H	0.152311	0.568196	0.503630
H122	H	0.191331	0.563966	0.563551
C123	C	0.155241	0.266679	0.172620
C124	C	0.128291	0.222469	0.223113
H125	H	0.171150	0.232566	0.138605
H126	H	0.136920	0.300840	0.142547
H127	H	0.175936	0.296603	0.202465
H128	H	0.107594	0.192549	0.193268
H129	H	0.146614	0.188294	0.253189
C130	C	-0.174678	0.289623	0.195499
C131	C	-0.186000	0.272774	0.273263
H132	H	-0.190594	0.255507	0.161488
H133	H	-0.182385	0.342343	0.183923
H134	H	-0.143377	0.282434	0.188345
H135	H	-0.217300	0.279969	0.280419
H136	H	-0.178296	0.220042	0.284843
H137	H	0.597160	1.078635	0.469451
C138	C	0.598623	0.561149	1.071383
C139	C	0.588959	0.483397	1.091206
H140	H	0.579115	0.595192	1.099183
H141	H	0.628802	0.572644	1.084833
H142	H	0.594498	0.568342	1.016689
H143	H	0.593087	0.476202	1.145899
H144	H	0.558773	0.471898	1.077761
C145	C	-0.155462	0.527923	0.527662
C146	C	-0.185965	0.483806	0.483673
H147	H	-0.171379	0.562030	0.561669
H148	H	-0.137148	0.493757	0.557742
H149	H	-0.137178	0.557911	0.493403
H150	H	-0.204248	0.453814	0.517932
H151	H	-0.204287	0.517976	0.453590
H152	H	0.701363	0.677056	0.287387
H153	H	0.597096	0.825789	0.469390
H154	H	-0.094164	0.469482	0.469373
H155	H	0.701432	0.287055	0.826773
C156	C	-0.060572	0.316961	0.222762
C157	C	-0.087525	0.272756	0.273254
H158	H	-0.044663	0.282845	0.188750
H159	H	-0.078890	0.351125	0.192687
H160	H	-0.039876	0.346883	0.252609
H161	H	-0.108223	0.242838	0.243407
H162	H	-0.069206	0.238579	0.303332
C163	C	0.560097	0.439204	0.871966
C164	C	0.588944	0.483462	0.919110
H165	H	0.540587	0.473283	0.844143
H166	H	0.577210	0.409331	0.835837
H167	H	0.542926	0.404991	0.903951
H168	H	0.606118	0.517671	0.887124
H169	H	0.571830	0.513349	0.955243
C170	C	0.734809	0.784167	0.229102
C171	C	0.709593	0.837459	0.273134
H172	H	0.754320	0.811982	0.195071
H173	H	0.751975	0.752147	0.263326
H174	H	0.715230	0.752238	0.199038
H175	H	0.729172	0.869385	0.303203
H176	H	0.692426	0.869493	0.238906
C177	C	0.563703	0.971513	0.527725
C178	C	0.588924	0.918223	0.483701
H179	H	0.544188	0.943696	0.561749
H180	H	0.583275	1.003441	0.557791
H181	H	0.546537	1.003534	0.493490
H182	H	0.606093	0.886205	0.517935
H183	H	0.569350	0.886281	0.453633
H184	H	0.597126	0.469170	0.826676
H185	H	0.036555	0.519712	0.519463
C186	C	0.473612	0.466883	0.561294
C187	C	0.484922	0.483734	0.483525
H188	H	0.489539	0.500990	0.595299
H189	H	0.442317	0.474079	0.568465
H190	H	0.481317	0.414154	0.572863
H191	H	0.477214	0.536462	0.471954
H192	H	0.516224	0.476544	0.476350
C193	C	0.238539	0.178326	0.179115
C194	C	0.269050	0.222438	0.223091
H195	H	0.254449	0.144220	0.145097
H196	H	0.220259	0.148345	0.213375
H197	H	0.220220	0.212501	0.149038
H198	H	0.287366	0.188263	0.253172
H199	H	0.287337	0.252421	0.188826
H200	H	0.393072	0.287024	0.287432
C201	C	0.531012	0.283305	0.283721
C202	C	0.484876	0.272691	0.273138
H203	H	0.546927	0.249185	0.249722
H204	H	0.538686	0.336024	0.272129
H205	H	0.538713	0.271890	0.336487
H206	H	0.477174	0.284112	0.220372
H207	H	0.477199	0.219960	0.284724
H208	H	0.121673	0.519711	0.519449
C209	C	0.738455	0.317005	0.872075
C210	C	0.709623	0.272719	0.919215
H211	H	0.757951	0.282942	0.844274
H212	H	0.721331	0.346909	0.835927
H213	H	0.755642	0.351189	0.904061
H214	H	0.692433	0.238538	0.887229
H215	H	0.726749	0.242801	0.955367
C216	C	0.041137	0.239315	0.145366
C217	C	0.029820	0.222469	0.223133
H218	H	0.025222	0.205192	0.111359
H219	H	0.033427	0.292032	0.133787
H220	H	0.072438	0.232130	0.138209
H221	H	-0.001481	0.229659	0.230291
H222	H	0.037527	0.169739	0.234716
H223	H	0.701425	0.929901	0.287439
