data_functionalizedCrystal
_audit_creation_method	'MofGen! by Chris Wilmer'
_symmetry_space_group_name_H-M	'P1'
_symmetry_Int_Tables_number	1
_symmetry_cell_setting	triclinic
loop_
_symmetry_equiv_pos_as_xyz
  x,y,z
_cell_length_a	18.215407
_cell_length_b	18.215405
_cell_length_c	18.215399
_cell_angle_alpha	89.969449
_cell_angle_beta	89.980167
_cell_angle_gamma	90.025333
loop_
_atom_site_label
_atom_site_type_symbol
_atom_site_fract_x
_atom_site_fract_y
_atom_site_fract_z
Zn1	Zn	1.125072	-0.292983	-0.416103
Zn2	Zn	1.458405	0.040350	-0.082769
Zn3	Zn	1.791739	0.373684	0.250564
Zn4	Zn	1.124980	-0.416054	-0.293031
Zn5	Zn	1.458314	-0.082721	0.040303
Zn6	Zn	1.791647	0.250612	0.373636
Zn7	Zn	1.002005	-0.293007	-0.293050
Zn8	Zn	1.335338	0.040326	0.040283
Zn9	Zn	1.668671	0.373660	0.373617
Zn10	Zn	1.001970	-0.416013	-0.416056
Zn11	Zn	1.335304	-0.082680	-0.082722
Zn12	Zn	1.668637	0.250653	0.250611
O13	O	1.063507	-0.354514	-0.354560
O14	O	1.396840	-0.021181	-0.021226
O15	O	1.730173	0.312152	0.312107
O16	O	1.228044	-0.309316	-0.399788
O17	O	1.561377	0.024018	-0.066455
O18	O	1.894711	0.357351	0.266878
O19	O	1.108643	-0.399759	-0.190049
O20	O	1.441977	-0.066426	0.143284
O21	O	1.775310	0.266908	0.476618
O22	O	1.018382	-0.190020	-0.309401
O23	O	1.351716	0.143314	0.023933
O24	O	1.685049	0.476647	0.357266
O25	O	1.227977	-0.399736	-0.309368
O26	O	1.561310	-0.066402	0.023965
O27	O	1.894643	0.266931	0.357299
O28	O	1.108799	-0.190002	-0.399807
O29	O	1.442133	0.143331	-0.066474
O30	O	1.775466	0.476665	0.266860
O31	O	1.018293	-0.309357	-0.190063
O32	O	1.351627	0.023977	0.143270
O33	O	1.684960	0.357310	0.476604
O34	O	0.899016	-0.309317	-0.309355
O35	O	1.232349	0.024016	0.023978
O36	O	1.565682	0.357350	0.357311
O37	O	1.018324	-0.399666	-0.519046
O38	O	1.351657	-0.066333	-0.185713
O39	O	1.684991	0.267001	0.147621
O40	O	0.898991	-0.399689	-0.399727
O41	O	1.232324	-0.066356	-0.066394
O42	O	1.565657	0.266977	0.266940
O43	O	1.108766	-0.309276	-0.519081
O44	O	1.442100	0.024057	-0.185747
O45	O	1.775433	0.357391	0.147586
O46	O	1.108610	-0.519033	-0.309322
O47	O	1.441944	-0.185700	0.024011
O48	O	1.775277	0.147634	0.357344
O49	O	1.018235	-0.519003	-0.399708
O50	O	1.351569	-0.185670	-0.066375
O51	O	1.684902	0.147664	0.266958
C52	C	0.872301	-0.354502	-0.354539
C53	C	1.205634	-0.021169	-0.021205
C54	C	1.538967	0.312165	0.312128
C55	C	0.790502	-0.354514	-0.354547
C56	C	1.123835	-0.021181	-0.021214
C57	C	1.457168	0.312152	0.312120
C58	C	0.602314	-0.401645	-0.401544
C59	C	0.935647	-0.068312	-0.068211
C60	C	1.268981	0.265022	0.265122
C61	C	0.525455	-0.401647	-0.401554
C62	C	0.858789	-0.068314	-0.068220
C63	C	1.192122	0.265019	0.265113
C64	C	0.525452	-0.307397	-0.307591
C65	C	0.858785	0.025936	0.025742
C66	C	1.192118	0.359269	0.359076
C67	C	0.602309	-0.307392	-0.307586
C68	C	0.935642	0.025942	0.025747
C69	C	1.268976	0.359275	0.359081
C70	C	0.640738	-0.354520	-0.354562
C71	C	0.974071	-0.021186	-0.021228
C72	C	1.307405	0.312147	0.312105
C73	C	0.487022	-0.354528	-0.354576
C74	C	0.820355	-0.021194	-0.021242
C75	C	1.153689	0.312139	0.312091
C76	C	0.403688	-0.354530	-0.354585
C77	C	0.737022	-0.021196	-0.021252
C78	C	1.070355	0.312137	0.312081
C79	C	0.724077	-0.354517	-0.354553
C80	C	1.057410	-0.021184	-0.021220
C81	C	1.390744	0.312150	0.312113
C82	C	1.063429	-0.545721	-0.354524
C83	C	1.396762	-0.212387	-0.021191
C84	C	1.730096	0.120946	0.312142
C85	C	1.063463	-0.627520	-0.354534
C86	C	1.396797	-0.294186	-0.021200
C87	C	1.730130	0.039147	0.312133
C88	C	1.110632	-0.815705	-0.307556
C89	C	1.443965	-0.482371	0.025777
C90	C	1.777299	-0.149038	0.359110
C91	C	1.110665	-0.892563	-0.307574
C92	C	1.443998	-0.559230	0.025759
C93	C	1.777331	-0.225897	0.359092
C94	C	1.016476	-0.892572	-0.401616
C95	C	1.349809	-0.559239	-0.068283
C96	C	1.683143	-0.225905	0.265051
C97	C	1.016447	-0.815715	-0.401601
C98	C	1.349781	-0.482381	-0.068268
C99	C	1.683114	-0.149048	0.265065
C100	C	1.063524	-0.777283	-0.354567
C101	C	1.396857	-0.443950	-0.021234
C102	C	1.730191	-0.110616	0.312099
C103	C	1.063586	-0.930999	-0.354600
C104	C	1.396919	-0.597666	-0.021266
C105	C	1.730252	-0.264332	0.312067
C106	C	1.063621	-1.014333	-0.354619
C107	C	1.396954	-0.680999	-0.021286
C108	C	1.730288	-0.347666	0.312047
C109	C	1.063490	-0.693944	-0.354548
C110	C	1.396823	-0.360611	-0.021215
C111	C	1.730157	-0.027277	0.312118
C112	C	1.255460	-0.354528	-0.354581
C113	C	1.588793	-0.021194	-0.021248
C114	C	1.922126	0.312139	0.312085
C115	C	1.337259	-0.354533	-0.354591
C116	C	1.670592	-0.021200	-0.021257
C117	C	2.003925	0.312133	0.312076
C118	C	1.063552	-0.354464	-0.546513
C119	C	1.396885	-0.021130	-0.213179
C120	C	1.730218	0.312203	0.120154
C121	C	1.063571	-0.354442	-0.628312
C122	C	1.396904	-0.021109	-0.294978
C123	C	1.730237	0.312225	0.038355
C124	C	1.063605	-0.162561	-0.354611
C125	C	1.396938	0.170772	-0.021278
C126	C	1.730272	0.504105	0.312055
C127	C	1.063647	-0.080763	-0.354633
C128	C	1.396980	0.252571	-0.021300
C129	C	1.730313	0.585904	0.312033
C130	C	1.110681	-0.307332	-0.816525
C131	C	1.444014	0.026001	-0.483191
C132	C	1.777348	0.359335	-0.149858
C133	C	1.110690	-0.307311	-0.893384
C134	C	1.444023	0.026023	-0.560050
C135	C	1.777356	0.359356	-0.226717
C136	C	1.016513	-0.401438	-0.893336
C137	C	1.349846	-0.068105	-0.560003
C138	C	1.683179	0.265228	-0.226670
C139	C	1.016501	-0.401455	-0.816479
C140	C	1.349834	-0.068122	-0.483146
C141	C	1.683167	0.265211	-0.149812
C142	C	1.063589	-0.354403	-0.778075
C143	C	1.396922	-0.021070	-0.444742
C144	C	1.730256	0.312263	-0.111409
C145	C	1.063610	-0.354365	-0.931791
C146	C	1.396943	-0.021031	-0.598458
C147	C	1.730276	0.312302	-0.265125
C148	C	1.063619	-0.354342	-1.015125
C149	C	1.396952	-0.021009	-0.681792
C150	C	1.730286	0.312325	-0.348458
C151	C	1.063579	-0.354425	-0.694736
C152	C	1.396912	-0.021092	-0.361403
C153	C	1.730246	0.312241	-0.028070
C154	C	1.063504	-0.354512	-0.163353
C155	C	1.396838	-0.021179	0.169980
C156	C	1.730171	0.312155	0.503313
C157	C	1.063628	-0.354326	-0.081555
C158	C	1.396961	-0.020993	0.251778
C159	C	1.730295	0.312340	0.585112
H160	H	0.633601	-0.440018	-0.439797
H161	H	0.966934	-0.106684	-0.106464
H162	H	1.300267	0.226649	0.226870
H163	H	0.978146	-0.923873	-0.439908
H164	H	1.311480	-0.590539	-0.106575
H165	H	1.644813	-0.257206	0.226759
H166	H	0.494174	-0.440020	-0.439813
H167	H	0.827507	-0.106687	-0.106480
H168	H	1.160840	0.226646	0.226854
H169	H	0.978177	-0.439748	-0.924614
H170	H	1.311510	-0.106415	-0.591281
H171	H	1.644843	0.226919	-0.257947
H172	H	0.978086	-0.784430	-0.439887
H173	H	1.311420	-0.451096	-0.106553
H174	H	1.644753	-0.117763	0.226780
C175	C	1.161826	-0.256162	-0.774961
C176	C	1.495159	0.077171	-0.441628
C177	C	1.828493	0.410504	-0.108295
C178	C	1.203054	-0.214921	-0.825088
C179	C	1.536387	0.118413	-0.491755
C180	C	1.869720	0.451746	-0.158422
C181	C	1.250168	-0.167766	-0.786829
C182	C	1.583502	0.165568	-0.453496
C183	C	1.916835	0.498901	-0.120163
H184	H	1.193940	-0.284237	-0.744974
H185	H	1.527274	0.049096	-0.411640
H186	H	1.860607	0.382429	-0.078307
H187	H	1.133699	-0.224064	-0.745000
H188	H	1.467033	0.109269	-0.411666
H189	H	1.800366	0.442603	-0.078333
H190	H	1.231178	-0.247015	-0.855037
H191	H	1.564511	0.086318	-0.521704
H192	H	1.897845	0.419652	-0.188370
H193	H	1.170958	-0.186831	-0.855077
H194	H	1.504292	0.146503	-0.521744
H195	H	1.837625	0.479836	-0.188411
H196	H	1.222042	-0.135667	-0.756868
H197	H	1.555375	0.197666	-0.423535
H198	H	1.888708	0.531000	-0.090201
H199	H	1.282278	-0.195847	-0.756843
H200	H	1.615611	0.137487	-0.423510
H201	H	1.948945	0.470820	-0.090176
H202	H	1.278142	-0.139773	-0.820835
H203	H	1.611475	0.193561	-0.487501
H204	H	1.944809	0.526894	-0.154168
H205	H	0.978148	-0.439786	-0.785173
H206	H	1.311481	-0.106453	-0.451839
H207	H	1.644814	0.226881	-0.118506
C208	C	0.483594	-0.256314	-0.256617
C209	C	0.816927	0.077020	0.076716
C210	C	1.150261	0.410353	0.410049
C211	C	0.408061	-0.266417	-0.266663
C212	C	0.741394	0.066917	0.066671
C213	C	1.074728	0.400250	0.400004
C214	C	0.369481	-0.219377	-0.219711
C215	C	0.702814	0.113956	0.113623
C216	C	1.036148	0.447289	0.446956
H217	H	0.496125	-0.206850	-0.267431
H218	H	0.829458	0.126483	0.065902
H219	H	1.162791	0.459817	0.399236
H220	H	0.496123	-0.267026	-0.207134
H221	H	0.829456	0.066307	0.126200
H222	H	1.162789	0.399641	0.459533
H223	H	0.395537	-0.255699	-0.316135
H224	H	0.728871	0.077634	0.017198
H225	H	1.062204	0.410967	0.350532
H226	H	0.395509	-0.315870	-0.255844
H227	H	0.728842	0.017463	0.077490
H228	H	1.062175	0.350796	0.410823
H229	H	0.382010	-0.230090	-0.170227
H230	H	0.715343	0.103244	0.163106
H231	H	1.048676	0.436577	0.496440
H232	H	0.382017	-0.169917	-0.230528
H233	H	0.715351	0.163417	0.102805
H234	H	1.048684	0.496750	0.436138
H235	H	0.318228	-0.226230	-0.226515
H236	H	0.651561	0.107103	0.106818
H237	H	0.984895	0.440436	0.440151
C238	C	0.643900	-0.256197	-0.256491
C239	C	0.977233	0.077137	0.076842
C240	C	1.310567	0.410470	0.410175
C241	C	0.593797	-0.214943	-0.215335
C242	C	0.927131	0.118390	0.117999
C243	C	1.260464	0.451723	0.451332
C244	C	0.632084	-0.167783	-0.168257
C245	C	0.965417	0.165550	0.165076
C246	C	1.298750	0.498884	0.498410
H247	H	0.673908	-0.224100	-0.284618
H248	H	1.007241	0.109233	0.048715
H249	H	1.340575	0.442566	0.382048
H250	H	0.673843	-0.284291	-0.224336
H251	H	1.007177	0.049042	0.108998
H252	H	1.340510	0.382375	0.442331
H253	H	0.563866	-0.186851	-0.247486
H254	H	0.897200	0.146482	0.085847
H255	H	1.230533	0.479816	0.419180
H256	H	0.563788	-0.247021	-0.187193
H257	H	0.897121	0.086313	0.146140
H258	H	1.230454	0.419646	0.479473
H259	H	0.662027	-0.195877	-0.136101
H260	H	0.995360	0.137456	0.197232
H261	H	1.328694	0.470789	0.530565
H262	H	0.662090	-0.135691	-0.196390
H263	H	0.995424	0.197642	0.136944
H264	H	1.328757	0.530975	0.470277
H265	H	0.598095	-0.139792	-0.140322
H266	H	0.931428	0.193541	0.193011
H267	H	1.264762	0.526875	0.526345
H268	H	1.148966	-0.784415	-0.269260
H269	H	1.482299	-0.451082	0.064074
H270	H	1.815632	-0.117749	0.397407
H271	H	1.149035	-0.268979	-0.924686
H272	H	1.482369	0.064354	-0.591353
H273	H	1.815702	0.397687	-0.258019
H274	H	1.149026	-0.923843	-0.269294
H275	H	1.482359	-0.590510	0.064039
H276	H	1.815692	-0.257176	0.397372
