data_functionalizedCrystal
_audit_creation_method	'MofGen! by Chris Wilmer'
_symmetry_space_group_name_H-M	'P1'
_symmetry_Int_Tables_number	1
_symmetry_cell_setting	triclinic
loop_
_symmetry_equiv_pos_as_xyz
  x,y,z
_cell_length_a	16.109301
_cell_length_b	27.732048
_cell_length_c	15.186229
_cell_angle_alpha	89.991324
_cell_angle_beta	89.999362
_cell_angle_gamma	83.052068
loop_
_atom_site_label
_atom_site_type_symbol
_atom_site_fract_x
_atom_site_fract_y
_atom_site_fract_z
O1	O	1.102361	0.062130	-0.073183
O2	O	0.860204	0.069862	-0.073198
O3	O	0.988803	-0.004369	-0.073173
O4	O	0.973762	0.136361	-0.073208
O5	O	0.988795	-0.004370	0.073284
O6	O	0.860195	0.069861	0.073259
O7	O	1.102353	0.062129	0.073275
Zn8	Zn	0.981273	0.065995	0.096520
Zn9	Zn	0.981284	0.065996	-0.096444
O10	O	0.973753	0.136360	0.073250
C11	C	0.829228	0.069548	0.000029
C12	C	0.736945	0.068609	0.000024
C13	C	0.988483	-0.022378	0.000058
C14	C	0.987533	-0.076037	0.000065
C15	C	0.514154	0.110473	0.000024
C16	C	0.427445	0.109587	0.000030
C17	C	0.448409	0.021514	0.000048
C18	C	0.535117	0.022401	0.000048
C19	C	0.567987	0.066882	0.000032
C20	C	0.394570	0.065109	0.000037
C21	C	0.300556	0.064148	0.000044
C22	C	0.662007	0.067843	0.000027
C23	C	1.057541	-0.414559	0.000024
C24	C	1.054013	-0.616233	0.000012
O25	O	1.118031	-0.647221	-0.000023
N26	N	0.977759	-0.635676	0.000008
C27	C	0.902381	-0.604697	0.000001
O28	O	0.837441	-0.625862	-0.000011
C29	C	0.905910	-0.403024	0.000008
C30	C	0.982169	-0.383584	0.000020
C31	C	1.133794	-0.395119	0.000036
C32	C	1.134675	-0.344703	0.000044
C33	C	1.059303	-0.313728	0.000040
C34	C	0.983050	-0.333168	0.000028
C35	C	0.830533	-0.372045	-0.000005
C36	C	0.831422	-0.321624	-0.000006
C37	C	0.907681	-0.302184	0.000007
C38	C	0.908559	-0.251777	0.000032
N39	N	0.984814	-0.232334	0.000036
C40	C	1.060186	-0.263310	0.000040
C41	C	0.900534	-0.710579	-0.000000
C42	C	0.899652	-0.760997	-0.000000
C43	C	1.051284	-0.772530	0.000009
C44	C	1.052166	-0.722111	0.000015
C45	C	0.976789	-0.691136	0.000004
C46	C	1.062030	-0.157433	0.000058
C47	C	1.062905	-0.107012	0.000069
C48	C	0.911273	-0.095484	0.000056
C49	C	0.910398	-0.145900	0.000049
C50	C	0.985783	-0.176874	0.000047
O51	O	0.844576	-0.220761	0.000057
O52	O	1.125116	-0.242135	0.000033
C53	C	1.056660	-0.464975	0.000016
C54	C	0.980407	-0.484415	0.000005
C55	C	0.905035	-0.453440	0.000001
C56	C	0.979525	-0.534833	0.000005
C57	C	1.054897	-0.565808	0.000009
C58	C	1.131151	-0.546365	0.000013
C59	C	1.132032	-0.495950	0.000020
C60	C	0.828781	-0.472883	-0.000003
C61	C	0.827906	-0.523299	-0.000010
C62	C	0.903278	-0.554274	-0.000006
C63	C	1.133328	0.062443	0.000046
C64	C	1.225612	0.063382	0.000045
C65	C	0.974073	0.154369	0.000017
C66	C	0.975024	0.208028	0.000004
N67	N	0.981271	0.065994	0.228213
N68	N	0.981292	0.065994	-0.228136
C69	C	1.038234	0.033135	0.453947
C70	C	1.038237	0.033134	0.546136
C71	C	0.924323	0.098854	0.546124
C72	C	0.924317	0.098852	0.453936
C73	C	0.981277	0.065993	0.407850
C74	C	0.981286	0.065994	0.592227
C75	C	0.981288	0.065993	0.692183
C76	C	0.981274	0.065994	0.307887
H77	H	0.540913	0.146692	0.000017
O78	O	0.375270	0.151977	-0.000020
C79	C	0.422879	0.191424	-0.000010
H80	H	0.487759	0.179145	-0.027737
H81	H	0.390495	0.221967	-0.042538
H82	H	0.428880	0.205058	0.070249
H83	H	0.421636	-0.014700	0.000066
O84	O	1.093533	0.001150	0.590818
C85	C	1.080623	-0.046702	0.568321
H86	H	1.048573	-0.046648	0.501388
H87	H	1.143422	-0.070495	0.565168
H88	H	1.039437	-0.061658	0.620212
O89	O	0.587299	-0.019991	0.000016
C90	C	0.539696	-0.059441	0.000044
H91	H	0.474815	-0.047166	-0.027688
H92	H	0.572084	-0.089982	-0.042469
H93	H	0.533697	-0.073077	0.070310
O94	O	1.137060	-0.088209	0.000039
C95	C	1.203393	-0.126364	0.000059
H96	H	1.180536	-0.160609	-0.027674
H97	H	1.256676	-0.115828	-0.042456
H98	H	1.226608	-0.133509	0.070323
H99	H	1.123416	-0.182646	0.000053
O100	O	1.206132	-0.477093	-0.000130
C101	C	1.252046	-0.492929	-0.075969
H102	H	1.207441	-0.503404	-0.128987
H103	H	1.287027	-0.462391	-0.101427
H104	H	1.298797	-0.525797	-0.058819
H105	H	0.877948	0.125607	0.583656
H106	H	0.877932	0.125610	0.416401
H107	H	1.196773	-0.328880	0.000051
H108	H	1.114263	-0.706287	0.000025
O109	O	1.207093	-0.425135	0.000082
C110	C	1.274574	-0.397154	0.000069
H111	H	1.252958	-0.359526	0.027789
H112	H	1.327343	-0.415751	0.042600
H113	H	1.297988	-0.393559	-0.070190
O114	O	1.124426	-0.802693	-0.000034
C115	C	1.107285	-0.851360	-0.000016
H116	H	1.042002	-0.853279	-0.027736
H117	H	1.155358	-0.874203	-0.042546
H118	H	1.110633	-0.865950	0.070245
H119	H	0.839149	-0.685363	-0.000009
O120	O	0.825500	-0.779798	-0.000042
C121	C	0.759170	-0.741641	-0.000025
H122	H	0.782035	-0.707391	-0.027749
H123	H	0.705892	-0.752166	-0.042552
H124	H	0.735948	-0.734510	0.070236
O125	O	0.758251	-0.291487	0.000102
C126	C	0.754201	-0.261995	0.075968
H127	H	0.820154	-0.259449	0.101266
H128	H	0.722731	-0.224099	0.058908
H129	H	0.716445	-0.278588	0.129074
O130	O	1.093606	0.001271	0.409119
C131	C	1.144552	0.027145	0.355735
H132	H	1.145524	0.065262	0.383502
H133	H	1.210868	0.007410	0.354655
H134	H	1.118463	0.029684	0.285883
O135	O	0.756380	-0.390841	-0.000061
C136	C	0.690056	-0.352681	-0.000048
H137	H	0.712928	-0.318433	-0.027766
H138	H	0.636778	-0.363203	-0.042581
H139	H	0.666828	-0.345550	0.070211
H140	H	0.848301	-0.161728	0.000063
H141	H	0.849907	-0.070255	0.000055
H142	H	0.765802	-0.539121	-0.000013
O143	O	1.204346	-0.576480	-0.000142
C144	C	1.208355	-0.605987	-0.075987
H145	H	1.165602	-0.587509	-0.129000
H146	H	1.275398	-0.611663	-0.101448
H147	H	1.187307	-0.642648	-0.058844
H148	H	0.767402	-0.447667	-0.000009
