data_functionalizedCrystal
_audit_creation_method	'MofGen! by Chris Wilmer'
_symmetry_space_group_name_H-M	'P1'
_symmetry_Int_Tables_number	1
_symmetry_cell_setting	triclinic
loop_
_symmetry_equiv_pos_as_xyz
  x,y,z
_cell_length_a	17.699083
_cell_length_b	10.723024
_cell_length_c	16.176319
_cell_angle_alpha	89.994397
_cell_angle_beta	89.998611
_cell_angle_gamma	83.875442
loop_
_atom_site_label
_atom_site_type_symbol
_atom_site_fract_x
_atom_site_fract_y
_atom_site_fract_z
O1	O	1.005074	0.157797	-0.068628
O2	O	1.505074	0.657797	0.431372
O3	O	0.784825	0.178327	-0.068655
O4	O	1.284825	0.678327	0.431345
O5	O	0.900030	-0.013601	-0.068638
O6	O	1.400030	0.486399	0.431362
O7	O	0.889869	0.349725	-0.068646
O8	O	1.389869	0.849725	0.431354
O9	O	0.900014	-0.013613	0.068855
O10	O	1.400014	0.486387	0.568855
O11	O	0.784809	0.178315	0.068838
O12	O	1.284809	0.678315	0.568838
O13	O	1.005058	0.157785	0.068865
O14	O	1.505058	0.657785	0.568865
Cu15	Cu	0.894932	0.168049	0.081406
Cu16	Cu	1.394932	0.668049	0.581406
Cu17	Cu	0.894951	0.168063	-0.081196
Cu18	Cu	1.394951	0.668063	0.418804
O19	O	0.889853	0.349713	0.068848
O20	O	1.389853	0.849713	0.568848
C21	C	0.756616	0.177585	0.000088
C22	C	1.256616	0.677585	0.500088
C23	C	0.672584	0.175378	0.000078
C24	C	1.172584	0.675378	0.500078
C25	C	0.624673	0.288036	0.000076
C26	C	1.124673	0.788036	0.500076
C27	C	0.545717	0.285955	0.000086
C28	C	1.045717	0.785955	0.500086
C29	C	0.514672	0.171215	0.000093
C30	C	1.014672	0.671215	0.500093
C31	C	0.562589	0.058549	0.000098
C32	C	1.062589	0.558549	0.500098
C33	C	0.641544	0.060631	0.000093
C34	C	1.141544	0.560631	0.500093
C35	C	0.244173	0.050148	0.000118
C36	C	0.744173	0.550148	0.500118
C37	C	0.165212	0.048075	0.000121
C38	C	0.665212	0.548075	0.500121
C39	C	0.148346	0.275473	0.000112
C40	C	0.648346	0.775473	0.500112
C41	C	0.227301	0.277555	0.000107
C42	C	0.727301	0.777555	0.500107
C43	C	0.275210	0.164889	0.000116
C44	C	0.775210	0.664889	0.500116
C45	C	0.360824	0.167147	0.000106
C46	C	0.860824	0.667147	0.500106
C47	C	0.429060	0.168956	0.000097
C48	C	0.929060	0.668956	0.500097
C49	C	0.899283	-0.060094	0.000107
C50	C	1.399283	0.439906	0.500107
C51	C	0.897070	-0.198610	0.000104
C52	C	1.397070	0.301390	0.500104
C53	C	0.961533	-0.274698	0.000111
C54	C	1.461533	0.225302	0.500111
C55	C	0.959248	-0.417863	0.000108
C56	C	1.459248	0.082137	0.500108
C57	C	1.033268	0.158527	0.000120
C58	C	1.533268	0.658527	0.500120
C59	C	1.117300	0.160734	0.000125
C60	C	1.617300	0.660734	0.500125
C61	C	0.890601	0.396206	0.000100
C62	C	1.390601	0.896206	0.500100
C63	C	0.892813	0.534723	0.000098
C64	C	1.392813	1.034723	0.500098
N65	N	0.894924	0.168038	0.195771
N66	N	1.394924	0.668038	0.695771
N67	N	0.894965	0.168064	-0.195561
N68	N	1.394965	0.668064	0.304439
C69	C	0.945953	0.083087	0.239042
C70	C	1.445953	0.583087	0.739042
C71	C	0.945957	0.083085	0.325590
C72	C	1.445957	0.583085	0.825590
C73	C	0.894935	0.168042	0.368863
C74	C	1.394935	0.668042	0.868863
C75	C	0.843901	0.252997	0.325586
C76	C	1.343901	0.752997	0.825586
C77	C	0.843894	0.252992	0.239040
C78	C	1.343894	0.752992	0.739040
C79	C	0.843927	0.253021	0.674614
C80	C	1.343927	0.753021	1.174614
C81	C	0.843940	0.253022	0.761165
C82	C	1.343940	0.753022	1.261165
C83	C	0.945989	0.083115	0.761163
C84	C	1.445989	0.583115	1.261163
C85	C	0.945983	0.083109	0.674618
C86	C	1.445983	0.583109	1.174618
C87	C	0.894946	0.168059	0.631348
C88	C	1.394946	0.668059	1.131348
C89	C	0.894942	0.168058	0.537503
C90	C	1.394942	0.668058	1.037503
C91	C	0.894943	0.168050	0.462706
C92	C	1.394943	0.668050	0.962706
H93	H	0.537306	-0.034875	0.000115
H94	H	1.037306	0.465125	0.500115
O95	O	0.819708	-0.378687	0.000092
O96	O	1.319708	0.121313	0.500092
H97	H	0.786264	-0.396367	0.056132
H98	H	1.286264	0.103633	0.556132
H99	H	0.680552	-0.031107	0.000094
H100	H	1.180552	0.468893	0.500094
O101	O	0.788871	0.344639	0.372253
O102	O	1.288871	0.844639	0.872253
H103	H	0.797454	0.330384	0.439704
H104	H	1.297454	0.830384	0.939704
O105	O	0.788858	0.344608	0.192354
O106	O	1.288858	0.844608	0.692354
H107	H	0.799002	0.441871	0.208939
H108	H	1.299002	0.941871	0.708939
O109	O	0.658156	0.411792	0.000076
O110	O	1.158156	0.911792	0.500076
H111	H	0.611573	0.489780	0.000088
H112	H	1.111573	0.989780	0.500088
O113	O	0.821721	-0.252703	0.000102
O114	O	1.321721	0.247297	0.500102
H115	H	0.817532	-0.311295	-0.055935
H116	H	1.317532	0.188705	0.444065
O117	O	1.036884	-0.220612	0.000121
O118	O	1.536884	0.279388	0.500121
H119	H	1.026854	-0.116653	0.000127
H120	H	1.526854	0.383347	0.500127
H121	H	0.506711	0.377693	0.000084
H122	H	1.006711	0.877693	0.500084
O123	O	0.788914	0.344681	0.807835
O124	O	1.288914	0.844681	1.307835
H125	H	0.729828	0.328908	0.791248
H126	H	1.229828	0.828908	1.291248
H127	H	0.252572	0.370988	0.000098
H128	H	0.752572	0.870988	0.500098
O129	O	1.000980	-0.008550	0.192369
O130	O	1.500980	0.491450	0.692369
H131	H	1.036458	-0.067631	0.237003
H132	H	1.536458	0.432369	0.737003
H133	H	0.109328	0.367210	0.000109
H134	H	0.609328	0.867210	0.500109
O135	O	0.131723	-0.075686	0.000142
O136	O	0.631723	0.424314	0.500142
H137	H	0.178302	-0.153681	0.000159
H138	H	0.678302	0.346319	0.500159
H139	H	0.987507	0.013911	0.360821
H140	H	1.487507	0.513911	0.860821
H141	H	1.014433	-0.483241	0.000117
H142	H	1.514433	0.016759	0.500117
H143	H	0.987531	0.013933	0.639387
H144	H	1.487531	0.513933	1.139387
O145	O	1.001032	-0.008528	0.807832
O146	O	1.501032	0.491472	1.307832
H147	H	0.992463	0.005732	0.875282
H148	H	1.492463	0.505732	1.375282
H149	H	0.802373	0.322192	0.639390
H150	H	1.302373	0.822192	1.139390
H151	H	0.283172	-0.041591	0.000126
H152	H	0.783172	0.458409	0.500126
