data_functionalizedCrystal
_audit_creation_method	'MofGen! by Chris Wilmer'
_symmetry_space_group_name_H-M	'P1'
_symmetry_Int_Tables_number	1
_symmetry_cell_setting	triclinic
loop_
_symmetry_equiv_pos_as_xyz
  x,y,z
_cell_length_a	14.560432
_cell_length_b	20.875641
_cell_length_c	20.875643
_cell_angle_alpha	119.909987
_cell_angle_beta	89.997780
_cell_angle_gamma	62.441128
loop_
_atom_site_label
_atom_site_type_symbol
_atom_site_fract_x
_atom_site_fract_y
_atom_site_fract_z
Zr1	Zr	0.926791	0.694363	0.105772
O2	O	0.792200	0.820601	0.209036
O3	O	0.963014	0.563109	0.070841
O4	O	0.976539	0.687132	0.204313
O5	O	0.773735	0.704031	-0.025995
O6	O	1.127676	0.687135	0.204313
O7	O	0.778675	0.696578	0.075564
O8	O	1.103483	0.465280	-0.034444
O9	O	0.797928	0.925886	0.212762
O10	O	1.097339	0.618956	0.059901
O11	O	0.980860	0.624516	-0.015892
O12	O	0.996784	0.770538	0.141254
O13	O	0.880304	0.776098	0.065461
Zr14	Zr	1.159959	0.706255	-0.056202
Zr15	Zr	1.167838	0.694368	0.105773
Zr16	Zr	0.918912	0.706251	-0.056203
Zr17	Zr	0.935927	0.862281	0.111715
Zr18	Zr	1.150823	0.538337	-0.062145
O19	O	1.123735	0.837510	-0.021271
O20	O	1.134938	0.820607	0.209037
O21	O	0.780997	0.837504	-0.021272
O22	O	1.294549	0.580018	-0.159466
O23	O	1.305752	0.563115	0.070841
O24	O	0.951811	0.580012	-0.159467
O25	O	1.313014	0.696587	0.075565
O26	O	1.110211	0.713487	-0.154743
O27	O	0.959073	0.713484	-0.154743
O28	O	1.308074	0.704041	-0.025994
O29	O	0.989529	0.925890	0.212762
O30	O	1.097221	0.474729	-0.163192
O31	O	1.288821	0.474732	-0.163192
O32	O	1.295084	0.465283	-0.034444
O33	O	0.791666	0.935335	0.084013
O34	O	0.983266	0.935339	0.084014
O35	O	1.089966	0.630081	-0.091684
O36	O	1.206445	0.624520	-0.015892
O37	O	1.105889	0.776102	0.065462
O38	O	0.989410	0.781663	-0.010331
C39	C	1.031947	0.490270	0.017352
C40	C	1.028069	0.418984	0.014829
C41	C	1.087044	0.382592	0.053207
C42	C	1.083403	0.315607	0.050829
C43	C	1.020778	0.285021	0.010078
C44	C	0.961800	0.321416	-0.028305
C45	C	0.965449	0.388395	-0.025931
C46	C	1.003352	0.085009	-0.001268
C47	C	0.999705	0.018027	-0.003637
C48	C	1.121309	0.012221	0.075496
C49	C	1.124947	0.079205	0.077870
C50	C	1.065974	0.115592	0.039484
N51	N	1.017051	0.216554	0.007648
N52	N	1.069708	0.184054	0.041909
C53	C	0.741861	0.700304	0.024784
C54	C	0.639530	0.700302	0.024784
C55	C	0.744495	0.542048	-0.060142
C56	C	0.748900	0.462924	-0.102602
C57	C	0.652748	0.462928	-0.102600
C58	C	0.552182	0.542065	-0.060135
C59	C	0.547777	0.621189	-0.017676
C60	C	0.643937	0.621176	-0.017681
C61	C	0.442814	0.779441	0.067245
C62	C	0.538965	0.779439	0.067249
C63	C	0.342248	0.858577	0.109710
C64	C	0.337841	0.937703	0.152174
C65	C	0.434001	0.937696	0.152171
C66	C	0.534559	0.858563	0.109708
C67	C	1.344888	0.700315	0.024786
C68	C	1.447219	0.700317	0.024786
C69	C	1.053230	0.685440	0.227391
C70	C	1.056575	0.680393	0.296154
C71	C	1.054803	0.910349	0.032218
C72	C	1.058681	0.981634	0.034741
C73	C	1.005659	0.757144	0.370924
C74	C	1.008816	0.752397	0.435531
C75	C	1.062883	0.670898	0.425366
C76	C	1.113805	0.594141	0.350588
C77	C	1.110654	0.598889	0.285982
C78	C	1.077942	0.648214	0.614032
C79	C	1.081086	0.643472	0.678645
C80	C	0.976098	0.801729	0.763584
C81	C	0.972946	0.806469	0.698973
C82	C	1.023873	0.729712	0.624201
N83	N	1.066108	0.666044	0.491404
N84	N	1.020654	0.734567	0.558165
C85	C	1.033518	0.715178	0.822179
C86	C	1.030170	0.720223	0.753415
C87	C	1.333460	0.490275	0.017352
C88	C	1.431913	0.418992	0.014830
C89	C	1.022092	0.505139	-0.185254
C90	C	1.014868	0.438900	-0.256540
C91	C	1.323605	0.505145	-0.185254
C92	C	1.418713	0.438908	-0.256539
C93	C	0.763144	0.895474	0.234824
C94	C	0.668037	0.961711	0.306109
C95	C	0.753289	0.910344	0.032218
C96	C	0.654837	0.981627	0.034740
C97	C	1.064658	0.895479	0.234824
C98	C	1.071881	0.961718	0.306110
C99	C	1.421196	0.382611	0.053215
C100	C	1.513694	0.315640	0.050860
C101	C	1.616909	0.285048	0.010115
C102	C	1.627624	0.321435	-0.028271
C103	C	1.535127	0.388408	-0.025911
C104	C	1.068428	0.410699	-0.329585
C105	C	1.061637	0.348470	-0.396572
C106	C	1.001292	0.314440	-0.390510
C107	C	0.947726	0.342647	-0.317456
C108	C	0.954511	0.404879	-0.250472
C109	C	1.524187	0.404899	-0.250452
C110	C	1.613561	0.342672	-0.317426
C111	C	1.597458	0.314448	-0.390485
C112	C	1.491972	0.348463	-0.396570
C113	C	1.402601	0.410694	-0.329597
C114	C	0.562563	0.995727	0.300022
C115	C	0.473190	1.057976	0.366997
C116	C	0.489294	1.086203	0.440056
C117	C	0.594779	1.052184	0.446141
C118	C	0.684150	0.989941	0.379168
C119	C	0.665555	1.018014	-0.003638
C120	C	0.573058	1.085002	-0.001264
C121	C	0.469844	1.115597	0.039483
C122	C	0.459128	1.079207	0.077865
C123	C	0.551624	1.012224	0.075496
C124	C	1.132235	0.995730	0.300023
C125	C	1.139044	1.057960	0.366997
C126	C	1.085491	1.086182	0.440056
C127	C	1.025134	1.052164	0.446141
C128	C	1.018333	0.989931	0.379168
H129	H	1.175941	0.104107	0.111053
H130	H	0.955336	0.114624	-0.032528
Br131	Br	1.201342	-0.037165	0.127587
Br132	Br	1.259459	0.456837	-0.337872
H133	H	1.337162	0.407518	0.086403
H134	H	1.152115	0.536390	0.225101
Br135	Br	0.865833	0.296453	-0.309244
Br136	Br	0.211753	0.858585	0.109705
Br137	Br	0.201364	1.045092	0.209790
H138	H	1.670239	0.263775	-0.445013
H139	H	1.105262	0.325512	-0.456048
H140	H	0.917422	0.418028	-0.057181
H141	H	0.612858	0.858549	0.109704
Br142	Br	0.805620	0.976511	-0.058941
H143	H	0.948704	-0.006872	-0.036821
Br144	Br	1.499126	0.266270	0.102957
H145	H	0.542882	0.982600	0.106746
H146	H	0.430402	1.002130	0.186737
Br147	Br	1.154466	0.532859	0.664845
Br148	Br	0.932274	0.867756	0.384729
H149	H	1.188190	1.085651	0.362028
H150	H	1.091037	1.136857	0.494584
Br151	Br	1.147007	0.544043	0.512563
H152	H	0.910816	0.296503	-0.061490
H153	H	0.549430	0.972749	0.240539
H154	H	1.157834	0.527783	0.342316
Br155	Br	1.163421	0.266236	0.102934
H156	H	1.175846	0.972761	0.240541
H157	H	1.543868	0.418022	-0.057173
H158	H	1.478876	0.325475	-0.456064
Br159	Br	0.899505	0.917079	0.712776
H160	H	1.692217	0.230512	0.008199
Br161	Br	0.330045	1.104130	0.358720
H162	H	0.822792	0.542037	-0.060142
Br163	Br	0.885381	0.355531	-0.160248
Br164	Br	0.939713	0.856565	0.537006
Br165	Br	1.756706	0.296520	-0.309149
H166	H	0.656340	0.398498	-0.137177
H167	H	0.473895	0.542061	-0.060145
Br168	Br	0.587626	1.134373	-0.053362
Br169	Br	0.992094	0.229981	-0.481427
Br170	Br	0.906986	0.905893	0.865060
H171	H	1.537320	0.427869	-0.190970
Br172	Br	1.150338	0.456866	-0.337833
H173	H	0.375079	1.104127	0.111041
H174	H	0.416513	1.136885	0.494584
H175	H	0.969182	0.962245	0.384134
H176	H	1.711674	0.296517	-0.061444
Br177	Br	0.881819	0.443141	-0.151341
H178	H	0.607878	1.075174	0.505634
H179	H	0.981534	1.075152	0.505635
Br180	Br	0.827291	0.943778	0.387442
Br181	Br	0.344323	1.206503	0.042690
H182	H	1.138035	0.407494	0.086395
