data_functionalizedCrystal
_audit_creation_method	'MofGen! by Chris Wilmer'
_symmetry_space_group_name_H-M	'P1'
_symmetry_Int_Tables_number	1
_symmetry_cell_setting	triclinic
loop_
_symmetry_equiv_pos_as_xyz
  x,y,z
_cell_length_a	6.817900
_cell_length_b	13.212833
_cell_length_c	12.908943
_cell_angle_alpha	89.852088
_cell_angle_beta	100.860631
_cell_angle_gamma	106.298119
loop_
_atom_site_label
_atom_site_type_symbol
_atom_site_fract_x
_atom_site_fract_y
_atom_site_fract_z
V1	V	-4.004569	-0.143204	-0.315030
O2	O	-3.983830	0.008223	-0.323209
O3	O	-3.964581	-0.285240	-0.299242
O4	O	-3.942683	-0.140413	-0.458646
O5	O	-4.005879	-0.137607	-0.162702
V6	V	-4.488854	-0.125161	-0.298467
O7	O	-4.264155	-0.182783	-0.351364
O8	O	-4.679466	-0.085583	-0.262133
O9	O	-4.305636	0.016875	-0.314255
O10	O	-4.626990	-0.276589	-0.290288
O11	O	-4.604941	-0.130759	-0.450795
O12	O	-4.327534	-0.127953	-0.154851
C13	C	-3.812064	-0.319884	-0.290754
C14	C	-3.860566	-0.435996	-0.278803
C15	C	-3.896817	-0.585126	-0.166818
C16	C	-3.851237	-0.476026	-0.178037
C17	C	-3.915475	-0.505075	-0.368355
C18	C	-3.961055	-0.614174	-0.357135
C19	C	-3.951726	-0.654195	-0.256364
C20	C	-3.997322	-0.763298	-0.245145
C21	C	-4.061545	-0.792343	-0.435461
C22	C	-4.015965	-0.683244	-0.446681
C23	C	-3.784131	-0.135141	-0.494089
C24	C	-3.814871	-0.133798	-0.611405
C25	C	-4.236501	-0.141641	-0.841604
C26	C	-4.265394	-0.140380	-0.951835
C27	C	-3.901549	-0.130008	-0.942097
C28	C	-3.872656	-0.131269	-0.831867
C29	C	-4.040141	-0.137087	-0.781625
C30	C	-4.011249	-0.138355	-0.671393
C31	C	-3.647403	-0.127976	-0.661658
C32	C	-3.676296	-0.126716	-0.771888
C33	C	-4.121495	0.051513	-0.322739
C34	C	-4.052231	0.167624	-0.334698
C35	C	-4.149429	-0.133228	-0.119402
C36	C	-4.097927	-0.134565	-0.002085
H37	H	-4.023545	-0.650643	-0.528726
H38	H	-4.106256	-0.848593	-0.508376
H39	H	-3.487511	-0.124273	-0.612810
H40	H	-3.765198	-0.125265	-0.983023
H41	H	-4.147627	-0.143097	-0.630488
N42	N	-3.792020	-0.401544	-0.081445
H43	H	-3.895394	-0.359229	-0.085083
H44	H	-3.647912	-0.352098	-0.078671
H45	H	-4.372879	-0.146389	-0.800697
H46	H	-3.923040	-0.472469	-0.450398
H47	H	-3.989728	-0.795881	-0.163092
N48	N	-4.477175	-0.145281	-1.016529
H49	H	-4.578881	-0.149155	-0.967970
H50	H	-4.527288	-0.209990	-1.066521
H51	H	-3.539941	-0.121975	-0.812810
H52	H	-3.889235	-0.617712	-0.084766
