data_functionalizedCrystal
_audit_creation_method	'MofGen! by Chris Wilmer'
_symmetry_space_group_name_H-M	'P1'
_symmetry_Int_Tables_number	1
_symmetry_cell_setting	triclinic
loop_
_symmetry_equiv_pos_as_xyz
  x,y,z
_cell_length_a	19.188930
_cell_length_b	19.188924
_cell_length_c	16.776229
_cell_angle_alpha	89.991276
_cell_angle_beta	89.978976
_cell_angle_gamma	83.143372
loop_
_atom_site_label
_atom_site_type_symbol
_atom_site_fract_x
_atom_site_fract_y
_atom_site_fract_z
O1	O	0.926145	0.087170	-0.066548
O2	O	1.426145	0.587170	0.433452
O3	O	0.722834	0.098904	-0.066494
O4	O	1.222834	0.598904	0.433506
O5	O	0.830359	-0.008619	-0.066513
O6	O	1.330359	0.491381	0.433487
O7	O	0.818620	0.194693	-0.066529
O8	O	1.318620	0.694693	0.433471
O9	O	0.830345	-0.008626	0.066063
O10	O	1.330345	0.491374	0.566063
O11	O	0.722819	0.098897	0.066083
O12	O	1.222819	0.598897	0.566083
O13	O	0.926131	0.087163	0.066028
O14	O	1.426131	0.587163	0.566028
Zn15	Zn	0.824473	0.093029	0.087105
Zn16	Zn	1.324473	0.593029	0.587105
Zn17	Zn	0.824492	0.093038	-0.087570
Zn18	Zn	1.324492	0.593038	0.412430
O19	O	0.818606	0.194686	0.066048
O20	O	1.318606	0.694686	0.566048
C21	C	0.696815	0.098521	-0.000199
C22	C	1.196815	0.598521	0.499801
C23	C	0.619311	0.097380	-0.000178
C24	C	1.119311	0.597380	0.499822
C25	C	0.574386	0.160471	-0.000195
C26	C	1.074386	0.660471	0.499805
C27	C	0.501562	0.159399	-0.000204
C28	C	1.001562	0.659399	0.499796
C29	C	0.473667	0.095233	-0.000211
C30	C	0.973667	0.595233	0.499789
C31	C	0.518602	0.032134	-0.000189
C32	C	1.018602	0.532134	0.499811
C33	C	0.591424	0.033207	-0.000172
C34	C	1.091424	0.533207	0.499828
N35	N	0.365693	0.046188	-0.045361
N36	N	0.865693	0.546188	0.454639
N37	N	0.296514	0.045173	-0.045378
N38	N	0.796514	0.545173	0.454622
C39	C	0.254258	0.091995	-0.000259
C40	C	0.754258	0.591995	0.499741
N41	N	0.283793	0.139881	0.044868
N42	N	0.783793	0.639881	0.544868
N43	N	0.352978	0.140899	0.044882
N44	N	0.852978	0.640899	0.544882
C45	C	0.394704	0.094062	-0.000228
C46	C	0.894704	0.594062	0.499772
C47	C	0.130368	0.153928	-0.000285
C48	C	0.630368	0.653928	0.499715
C49	C	0.057543	0.152854	-0.000289
C50	C	0.557543	0.652854	0.499711
C51	C	0.074585	0.025586	-0.000282
C52	C	0.574585	0.525586	0.499718
C53	C	0.147409	0.026663	-0.000271
C54	C	0.647409	0.526663	0.499729
C55	C	0.175295	0.090835	-0.000276
C56	C	0.675295	0.590835	0.499724
C57	C	0.829973	-0.034634	-0.000224
C58	C	1.329973	0.465366	0.499776
C59	C	0.828834	-0.112138	-0.000222
C60	C	1.328834	0.387862	0.499778
C61	C	0.828310	-0.148534	-0.072489
C62	C	1.328310	0.351466	0.427511
C63	C	0.827230	-0.221356	-0.072495
C64	C	1.327230	0.278644	0.427505
C65	C	0.826688	-0.257783	-0.000229
C66	C	1.326688	0.242217	0.499771
C67	C	0.827208	-0.221378	0.072048
C68	C	1.327208	0.278622	0.572048
C69	C	0.828281	-0.148556	0.072052
C70	C	1.328281	0.351444	0.572052
N71	N	0.864730	-0.377449	0.053546
N72	N	1.364730	0.122551	0.553546
N73	N	0.863712	-0.446627	0.053538
N74	N	1.363712	0.053373	0.553538
C75	C	0.823454	-0.477192	-0.000236
C76	C	1.323454	0.022808	0.499764
N77	N	0.784260	-0.435967	-0.054013
N78	N	1.284260	0.064033	0.445987
N79	N	0.785281	-0.366782	-0.054007
N80	N	1.285281	0.133218	0.445993
C81	C	0.825524	-0.336746	-0.000225
C82	C	1.325524	0.163254	0.499775
C83	C	0.821758	-0.592550	-0.072515
C84	C	1.321758	-0.092550	0.427485
C85	C	0.820674	-0.665373	-0.072517
C86	C	1.320674	-0.165373	0.427483
C87	C	0.820659	-0.665395	0.072028
C88	C	1.320659	-0.165395	0.572028
C89	C	0.821736	-0.592572	0.072028
C90	C	1.321736	-0.092572	0.572028
C91	C	0.822289	-0.556154	-0.000245
C92	C	1.322289	-0.056154	0.499755
C93	C	0.952149	0.087546	-0.000269
C94	C	1.452149	0.587546	0.499731
C95	C	1.029654	0.088687	-0.000295
C96	C	1.529654	0.588687	0.499705
C97	C	0.818992	0.220700	-0.000243
C98	C	1.318992	0.720700	0.499757
C99	C	0.820131	0.298205	-0.000251
C100	C	1.320131	0.798205	0.499749
N101	N	0.824465	0.093023	0.206316
N102	N	1.324465	0.593023	0.706316
N103	N	0.824505	0.093039	-0.206782
N104	N	1.324505	0.593039	0.293218
C105	C	0.872092	0.045431	0.248025
C106	C	1.372092	0.545431	0.748025
C107	C	0.872096	0.045430	0.331477
C108	C	1.372096	0.545430	0.831477
C109	C	0.824476	0.093025	0.373219
C110	C	1.324476	0.593025	0.873219
C111	C	0.776844	0.140620	0.331505
C112	C	1.276844	0.640620	0.831505
C113	C	0.776837	0.140616	0.248054
C114	C	1.276837	0.640616	0.748054
C115	C	0.776869	0.140633	0.668052
C116	C	1.276869	0.640633	1.168052
C117	C	0.776881	0.140634	0.751508
C118	C	1.276881	0.640634	1.251508
C119	C	0.872128	0.045447	0.751475
C120	C	1.372128	0.545447	1.251475
C121	C	0.872121	0.045444	0.668024
C122	C	1.372121	0.545444	1.168024
C123	C	0.824487	0.093035	0.626317
C124	C	1.324487	0.593035	1.126317
C125	C	0.824483	0.093034	0.535829
C126	C	1.324483	0.593034	1.035829
C127	C	0.824483	0.093030	0.463706
C128	C	1.324483	0.593030	0.963706
H129	H	0.020965	0.204232	-0.000298
H130	H	0.520965	0.704232	0.499702
H131	H	0.738054	0.179369	0.214096
H132	H	1.238054	0.679369	0.714096
H133	H	0.826764	-0.251041	0.130887
H134	H	1.326764	0.248959	0.630887
H135	H	0.910912	0.006694	0.785442
H136	H	1.410912	0.506694	1.285442
H137	H	0.738085	0.179385	0.634100
H138	H	1.238085	0.679385	1.134100
H139	H	0.051874	-0.026659	-0.000338
H140	H	0.551874	0.473341	0.499662
H141	H	0.183988	-0.024713	-0.000261
H142	H	0.683988	0.475287	0.499739
H143	H	0.738067	0.179370	0.365496
H144	H	1.238067	0.679370	0.865496
H145	H	0.820212	-0.695052	0.130868
H146	H	1.320212	-0.195052	0.630868
H147	H	0.597086	0.212725	-0.000201
H148	H	1.097086	0.712725	0.499799
H149	H	0.910900	0.006690	0.634040
H150	H	1.410900	0.506690	1.134040
H151	H	0.464976	0.210777	-0.000216
H152	H	0.964976	0.710777	0.499784
H153	H	0.153075	0.206181	-0.000278
H154	H	0.653075	0.706181	0.499722
H155	H	0.738100	0.179393	0.785493
H156	H	1.238100	0.679393	1.285493
H157	H	0.628003	-0.018171	-0.000159
H158	H	1.128003	0.481829	0.499841
H159	H	0.495885	-0.020111	-0.000206
H160	H	0.995885	0.479889	0.499794
H161	H	0.828758	-0.118887	-0.131340
H162	H	1.328758	0.381113	0.368660
H163	H	0.826799	-0.250995	-0.131346
H164	H	1.326799	0.249005	0.368654
H165	H	0.828704	-0.118923	0.130902
H166	H	1.328704	0.381077	0.630902
H167	H	0.822204	-0.562897	-0.131364
H168	H	1.322204	-0.062897	0.368636
H169	H	0.820244	-0.695005	-0.131369
H170	H	1.320244	-0.195005	0.368631
H171	H	0.822168	-0.562939	0.130876
H172	H	1.322168	-0.062939	0.630876
H173	H	0.910872	0.006676	0.214044
H174	H	1.410872	0.506676	0.714044
H175	H	0.910876	0.006677	0.365436
H176	H	1.410876	0.506677	0.865436
