data_functionalizedCrystal
_audit_creation_method	'MofGen! by Chris Wilmer'
_symmetry_space_group_name_H-M	'P1'
_symmetry_Int_Tables_number	1
_symmetry_cell_setting	triclinic
loop_
_symmetry_equiv_pos_as_xyz
  x,y,z
_cell_length_a	16.959455
_cell_length_b	18.050590
_cell_length_c	16.959447
_cell_angle_alpha	90.031775
_cell_angle_beta	90.016723
_cell_angle_gamma	90.017500
loop_
_atom_site_label
_atom_site_type_symbol
_atom_site_fract_x
_atom_site_fract_y
_atom_site_fract_z
Zn1	Zn	1.208392	-0.295666	0.446951
Zn2	Zn	1.208318	-0.419867	0.314769
Zn3	Zn	1.076221	-0.295693	0.314783
Zn4	Zn	1.076189	-0.419816	0.446902
O5	O	1.142280	-0.357761	0.380852
O6	O	1.318993	-0.312151	0.429432
O7	O	1.190777	-0.403428	0.204160
O8	O	1.093798	-0.191765	0.332342
O9	O	1.318939	-0.403401	0.332318
O10	O	1.190904	-0.191745	0.429445
O11	O	1.093726	-0.312198	0.204171
O12	O	0.965606	-0.312149	0.332295
O13	O	1.093743	-0.403314	0.557520
O14	O	0.965582	-0.403341	0.429362
O15	O	1.190873	-0.312101	0.557556
O16	O	1.190747	-0.523785	0.332271
O17	O	1.093672	-0.523747	0.429349
C18	C	0.936914	-0.357743	0.380825
C19	C	0.849057	-0.357753	0.380832
C20	C	0.807772	-0.310206	0.330375
C21	C	0.807789	-0.405306	0.431301
C22	C	0.725243	-0.405315	0.431313
C23	C	0.683958	-0.357767	0.380856
C24	C	0.725218	-0.310211	0.330386
C25	C	0.683976	-0.452864	0.481787
C26	C	0.601425	-0.452874	0.481801
C27	C	0.560138	-0.405330	0.431339
C28	C	0.601404	-0.357773	0.380867
C29	C	0.560119	-0.310225	0.330410
C30	C	0.601383	-0.262671	0.279933
C31	C	0.683931	-0.262667	0.279924
C32	C	0.477590	-0.405334	0.431348
C33	C	0.477565	-0.310231	0.330421
C34	C	1.142219	-0.550713	0.380820
C35	C	1.142265	-0.633258	0.380833
C36	C	1.195165	-0.832702	0.328116
C37	C	1.214468	-0.882031	0.400257
C38	C	1.142310	-0.784389	0.380865
C39	C	1.123088	-0.882141	0.308756
C40	C	1.142355	-0.930374	0.380889
C41	C	1.161650	-0.832630	0.453044
C42	C	1.070237	-0.832736	0.361494
C43	C	1.089513	-0.882043	0.433685
C44	C	1.142287	-0.700290	0.380850
C45	C	1.142379	-1.014470	0.380912
C46	C	1.348448	-0.357779	0.380879
C47	C	1.436305	-0.357787	0.380891
C48	C	1.142313	-0.357699	0.587020
C49	C	1.142327	-0.357673	0.674877
C50	C	1.142362	-0.164055	0.380901
C51	C	1.142398	-0.081509	0.380921
C52	C	1.142293	-0.357768	0.175485
C53	C	1.142432	-0.357585	0.087629
C54	C	1.091850	-0.405085	1.046336
C55	C	1.192992	-0.310104	1.046369
C56	C	1.192971	-0.310120	0.963823
C57	C	1.142390	-0.357620	0.922530
C58	C	1.091830	-0.405104	0.963783
C59	C	1.243536	-0.262642	0.922564
C60	C	1.243518	-0.262657	0.840013
C61	C	1.192932	-0.310153	0.798718
C62	C	1.142369	-0.357638	0.839976
C63	C	1.091788	-0.405138	0.798683
C64	C	1.041220	-0.452620	0.839940
C65	C	1.041244	-0.452600	0.922488
C66	C	1.192908	-0.310173	0.716170
C67	C	1.091767	-0.405157	0.716130
H68	H	0.567835	-0.491597	0.522901
H69	H	1.009285	-0.811065	0.345072
C70	C	0.934300	-0.267965	0.285535
C71	C	0.853125	-0.257933	0.274895
H72	H	0.962297	-0.235690	0.251287
H73	H	0.947806	-0.317844	0.273870
H74	H	0.947849	-0.257153	0.338663
H75	H	0.839574	-0.268750	0.221768
H76	H	0.839613	-0.208043	0.286555
H77	H	1.239877	-0.811037	0.283554
H78	H	1.275438	-0.903687	0.416657
C79	C	1.237791	-0.268037	0.589644
C80	C	1.248490	-0.257991	0.670820
H81	H	1.272111	-0.235822	0.561649
H82	H	1.184691	-0.257158	0.576122
H83	H	1.249328	-0.317943	0.576107
H84	H	1.236946	-0.208086	0.684357
H85	H	1.301601	-0.268865	0.684347
C86	C	1.183539	-0.725835	0.534635
C87	C	1.183728	-0.803404	0.535404
H88	H	1.197176	-0.707792	0.585478
H89	H	1.132489	-0.708552	0.520788
H90	H	1.220834	-0.708555	0.497124
H91	H	1.146428	-0.820684	0.572911
H92	H	1.234785	-0.820694	0.549260
H93	H	0.443957	-0.271512	0.289331
H94	H	1.044835	-0.903571	0.478354
C95	C	1.156516	-0.886585	0.171276
C96	C	1.101106	-0.911496	0.226421
H97	H	1.142946	-0.904702	0.120445
H98	H	1.207362	-0.904192	0.185407
H99	H	1.156809	-0.833963	0.170568
H100	H	1.100818	-0.964118	0.227132
H101	H	1.050247	-0.893893	0.212286
C102	C	0.991801	-0.499050	0.724390
C103	C	1.036172	-0.457378	0.670743
H104	H	0.957485	-0.531293	0.696369
H105	H	0.961583	-0.466683	0.756588
H106	H	1.026244	-0.527445	0.756587
H107	H	1.001729	-0.428979	0.638550
H108	H	1.066392	-0.489749	0.638531
C109	C	0.474828	-0.220462	0.235143
C110	C	0.555996	-0.210411	0.224467
H111	H	0.446808	-0.188204	0.200897
H112	H	0.461336	-0.209646	0.288267
H113	H	0.461293	-0.270353	0.223491
H114	H	0.569533	-0.160521	0.236124
H115	H	0.569494	-0.221222	0.171331
H116	H	0.841408	-0.444014	0.472385
C117	C	1.002693	-0.578346	0.947859
C118	C	0.985669	-0.504793	0.967839
H119	H	0.968381	-0.610567	0.975857
H120	H	1.055795	-0.589209	0.961385
H121	H	0.995434	-0.585146	0.892786
H122	H	0.992934	-0.497992	1.022911
H123	H	0.932554	-0.493927	0.954318
H124	H	0.717536	-0.223950	0.238830
C125	C	1.046965	-0.447234	1.172857
C126	C	1.036270	-0.457278	1.091681
H127	H	1.012654	-0.479460	1.200850
H128	H	1.035418	-0.397337	1.186397
H129	H	1.100074	-0.458105	1.186380
H130	H	0.983163	-0.446400	1.078157
H131	H	1.047811	-0.507185	1.078136
C132	C	0.810526	-0.495087	0.526565
C133	C	0.729357	-0.505130	0.537243
H134	H	0.838543	-0.527361	0.560799
H135	H	0.824070	-0.445208	0.538226
H136	H	0.824013	-0.505896	0.473430
H137	H	0.715868	-0.494315	0.590377
H138	H	0.715807	-0.555020	0.525588
H139	H	1.000040	-0.491298	0.806308
H140	H	1.234177	-0.271436	1.079994
H141	H	1.284721	-0.223975	0.956190
H142	H	0.443996	-0.444047	0.472450
H143	H	1.284692	-0.223993	0.806429
