data_functionalizedCrystal
_audit_creation_method	'MofGen! by Chris Wilmer'
_symmetry_space_group_name_H-M	'P1'
_symmetry_Int_Tables_number	1
_symmetry_cell_setting	triclinic
loop_
_symmetry_equiv_pos_as_xyz
  x,y,z
_cell_length_a	19.288859
_cell_length_b	13.262508
_cell_length_c	17.766277
_cell_angle_alpha	105.911986
_cell_angle_beta	89.989768
_cell_angle_gamma	83.810045
loop_
_atom_site_label
_atom_site_type_symbol
_atom_site_fract_x
_atom_site_fract_y
_atom_site_fract_z
O1	O	0.922002	0.130898	-0.035809
O2	O	0.719828	0.148567	-0.032190
O3	O	0.826005	-0.013079	-0.065281
O4	O	0.815824	0.292544	-0.002718
O5	O	0.825986	-0.013087	0.059906
O6	O	0.719809	0.148559	0.092997
O7	O	0.921983	0.130890	0.089378
Cu8	Cu	0.820894	0.139724	0.102618
Cu9	Cu	0.820916	0.139733	-0.045430
O10	O	0.815805	0.292536	0.122469
C11	C	0.693939	0.147995	0.030288
C12	C	0.616827	0.146292	0.029940
C13	C	0.053197	0.229615	0.046996
C14	C	0.125651	0.231225	0.047321
C15	C	0.169890	0.136379	0.027907
C16	C	0.141669	0.039915	0.008146
C17	C	0.069216	0.038308	0.007814
C18	C	0.290805	0.065640	0.057288
C19	C	0.363257	0.067251	0.057626
C20	C	0.393361	0.141331	0.028928
C21	C	0.351003	0.213818	-0.000094
C22	C	0.278549	0.212211	-0.000427
C23	C	0.248455	0.138110	0.028265
C24	C	0.500137	0.239534	0.049035
C25	C	0.572593	0.241139	0.049356
C26	C	0.588609	0.049827	0.010188
C27	C	0.516154	0.048224	0.009860
C28	C	0.471922	0.143080	0.029289
C29	C	0.825427	-0.052183	-0.010693
C30	C	0.823723	-0.168689	-0.034548
C31	C	0.818875	-0.497130	0.171177
C32	C	0.820471	-0.387666	0.193590
C33	C	0.821284	-0.332917	0.136558
C34	C	0.820501	-0.387642	0.057108
C35	C	0.818900	-0.497115	0.034693
C36	C	0.821309	-0.332902	0.000073
C37	C	0.820526	-0.387627	-0.079376
C38	C	0.818926	-0.497090	-0.101788
C39	C	0.818113	-0.551839	-0.044755
C40	C	0.822910	-0.223428	0.022489
C41	C	0.822935	-0.223413	-0.113995
C42	C	0.821340	-0.332877	-0.136409
C43	C	0.947872	0.131461	0.026899
C44	C	1.024984	0.133165	0.027242
C45	C	0.816384	0.331640	0.067880
C46	C	0.818088	0.448146	0.091729
N47	N	0.820884	0.139716	0.206747
N48	N	0.820932	0.139732	-0.149560
C49	C	0.867914	0.068174	0.231488
C50	C	0.867918	0.068169	0.310289
C51	C	0.820898	0.139724	0.364349
C52	C	0.773859	0.211272	0.339599
C53	C	0.773851	0.211267	0.260798
C54	C	0.812071	0.235354	0.508763
C55	C	0.812083	0.235360	0.587563
C56	C	0.820917	0.139737	0.607398
C57	C	0.829753	0.044104	0.548422
C58	C	0.829745	0.044100	0.469621
C59	C	0.820901	0.139736	0.449797
C60	C	0.867955	0.068184	0.717583
C61	C	0.867954	0.068178	0.796385
C62	C	0.773897	0.211289	0.825696
C63	C	0.773895	0.211286	0.746893
C64	C	0.820927	0.139735	0.692842
H65	H	0.148627	0.309769	0.063415
Cl66	Cl	0.840845	-0.076117	0.395484
H67	H	0.735552	0.269526	0.240655
Cl68	Cl	0.823895	-0.154644	0.122365
H69	H	0.046246	-0.040235	-0.008273
Cl70	Cl	0.927036	-0.021779	0.163538
H71	H	0.804893	0.313229	0.635576
H72	H	0.017187	0.306855	0.062812
H73	H	0.244064	0.271231	-0.024059
Cl74	Cl	0.817839	-0.565960	0.242865
Cl75	Cl	0.927079	-0.021774	0.827489
Cl76	Cl	0.714781	0.301236	0.893650
Cl77	Cl	0.840864	-0.076116	0.573346
H78	H	0.906249	0.009919	0.673571
H79	H	0.624628	-0.027399	-0.005626
Cl80	Cl	0.714771	0.301234	0.715787
H81	H	0.822582	-0.243786	0.154812
H82	H	0.735573	0.269531	0.383619
H83	H	0.906218	0.009909	0.330437
H84	H	0.816817	-0.640975	-0.063000
H85	H	0.804866	0.313227	0.492624
Cl86	Cl	0.821443	-0.318874	0.293465
H87	H	0.266301	0.005309	0.080657
Cl88	Cl	0.444527	0.358779	0.073456
Cl89	Cl	0.388838	0.306964	-0.036163
H90	H	0.493184	-0.030316	-0.006221
Cl91	Cl	0.608061	0.362403	0.074183
H92	H	0.397739	0.008233	0.081263
H93	H	0.177693	-0.037309	-0.007663
Cl94	Cl	0.817932	-0.565883	-0.201667
Cl95	Cl	0.823943	-0.154590	-0.185698
Cl96	Cl	0.820357	-0.401687	-0.236285
