data_functionalizedCrystal
_audit_creation_method	'MofGen! by Chris Wilmer'
_symmetry_space_group_name_H-M	'P1'
_symmetry_Int_Tables_number	1
_symmetry_cell_setting	triclinic
loop_
_symmetry_equiv_pos_as_xyz
  x,y,z
_cell_length_a	6.817900
_cell_length_b	11.102294
_cell_length_c	12.200875
_cell_angle_alpha	92.492379
_cell_angle_beta	107.143593
_cell_angle_gamma	108.605785
loop_
_atom_site_label
_atom_site_type_symbol
_atom_site_fract_x
_atom_site_fract_y
_atom_site_fract_z
V1	V	-4.094469	-0.176128	-0.357660
V2	V	-3.594469	0.323872	0.142340
O3	O	-4.053827	0.008167	-0.350853
O4	O	-3.553827	0.508167	0.149147
O5	O	-4.071362	-0.348946	-0.355212
O6	O	-3.571362	0.151054	0.144788
O7	O	-4.063809	-0.173549	-0.513648
O8	O	-3.563809	0.326451	-0.013648
O9	O	-4.061432	-0.168445	-0.191320
O10	O	-3.561432	0.331555	0.308680
V11	V	-4.572521	-0.154068	-0.337764
V12	V	-4.072521	0.345932	0.162236
O13	O	-4.367729	-0.224516	-0.401302
O14	O	-3.867729	0.275484	0.098698
O15	O	-4.749458	-0.105680	-0.294122
O16	O	-4.249458	0.394320	0.205878
O17	O	-4.372421	0.018750	-0.340212
O18	O	-3.872421	0.518750	0.159788
O19	O	-4.730560	-0.338363	-0.344571
O20	O	-4.230560	0.161637	0.155429
O21	O	-4.722955	-0.161751	-0.504104
O22	O	-4.222955	0.338249	-0.004104
O23	O	-4.379974	-0.156647	-0.181776
O24	O	-3.879974	0.343353	0.318224
C25	C	-3.921942	-0.391071	-0.349570
C26	C	-3.421942	0.108929	0.150430
C27	C	-3.984455	-0.532353	-0.348608
C28	C	-3.484455	-0.032353	0.151392
C29	C	-3.912306	-0.167333	-0.551669
C30	C	-3.412306	0.332667	-0.051669
C31	C	-3.968689	-0.166368	-0.679190
C32	C	-3.468689	0.333632	-0.179190
C33	C	-4.256293	-0.737965	-0.352992
C34	C	-3.756293	-0.237965	0.147008
C35	C	-4.197564	-0.605214	-0.353882
C36	C	-3.697564	-0.105214	0.146118
C37	C	-3.830060	-0.592247	-0.342432
C38	C	-3.330060	-0.092247	0.157568
C39	C	-3.888786	-0.724994	-0.341534
C40	C	-3.388786	-0.224994	0.158466
C41	C	-4.071879	-0.164603	-0.912664
C42	C	-3.571879	0.335397	-0.412664
C43	C	-4.014448	-0.165585	-0.782742
C44	C	-3.514448	0.334415	-0.282742
C45	C	-4.185184	0.060868	-0.345851
C46	C	-3.685184	0.560868	0.154149
C47	C	-4.101910	0.202149	-0.346820
C48	C	-3.601910	0.702149	0.153180
C49	C	-4.194819	-0.162867	-0.143749
C50	C	-3.694819	0.337133	0.356251
C51	C	-4.117674	-0.163826	-0.016227
C52	C	-3.617674	0.336174	0.483773
H53	H	-4.429828	-0.797282	-0.357294
H54	H	-3.929828	-0.297282	0.142706
H55	H	-3.656535	-0.532911	-0.338130
H56	H	-3.156535	-0.032911	0.161870
H57	H	-4.323282	-0.556461	-0.358906
H58	H	-3.823282	-0.056461	0.141094
H59	H	-3.763056	-0.773753	-0.336505
H60	H	-3.263056	-0.273753	0.163495
