data_functionalizedCrystal
_audit_creation_method	'MofGen! by Chris Wilmer'
_symmetry_space_group_name_H-M	'P1'
_symmetry_Int_Tables_number	1
_symmetry_cell_setting	triclinic
loop_
_symmetry_equiv_pos_as_xyz
  x,y,z
_cell_length_a	10.654550
_cell_length_b	15.021413
_cell_length_c	10.654551
_cell_angle_alpha	89.993115
_cell_angle_beta	84.485132
_cell_angle_gamma	90.010914
loop_
_atom_site_label
_atom_site_type_symbol
_atom_site_fract_x
_atom_site_fract_y
_atom_site_fract_z
O1	O	1.667849	0.074099	0.176382
O2	O	1.302370	0.074084	0.193188
O3	O	1.493512	0.074093	0.002046
O4	O	1.476707	0.074091	0.367524
O5	O	1.493481	-0.073972	0.002073
O6	O	1.302340	-0.073980	0.193215
O7	O	1.667818	-0.073965	0.176409
Zn8	Zn	1.485074	-0.097481	0.184817
Zn9	Zn	1.485114	0.097600	0.184781
O10	O	1.476677	-0.073973	0.367551
C11	C	1.255557	0.000050	0.191968
C12	C	1.116114	0.000045	0.188276
N13	N	1.485056	-0.230618	0.184840
C14	C	1.036629	0.000057	0.300817
C15	C	0.905608	0.000073	0.297341
C16	C	0.933570	0.000067	0.068771
C17	C	1.064589	0.000045	0.072249
C18	C	1.088154	0.000057	0.416844
C19	C	1.008667	0.000071	0.529395
C20	C	0.877647	0.000086	0.525918
C21	C	0.826112	0.000088	0.409891
C22	C	1.396658	-0.470305	0.273182
C23	C	1.510356	-0.529635	0.298547
C24	C	1.485088	-0.412225	0.184809
C25	C	1.371421	-0.529637	0.159473
C26	C	1.485109	-0.587649	0.184782
C27	C	1.598843	-0.470249	0.210231
C28	C	1.459834	-0.470245	0.071107
C29	C	1.573613	-0.529548	0.096424
C30	C	1.485074	-0.311168	0.184828
C31	C	1.485135	-0.688705	0.184762
C32	C	1.714632	0.000071	0.177629
C33	C	1.854075	0.000082	0.181321
C34	C	1.492263	0.000062	-0.044739
C35	C	1.488570	0.000068	-0.184182
N36	N	1.485143	0.230738	0.184747
C37	C	1.486855	0.080776	-0.249709
C38	C	1.483374	0.080772	-0.380729
C39	C	1.483331	-0.080656	-0.380685
C40	C	1.486802	-0.080650	-0.249666
C41	C	1.488623	0.161495	-0.184225
C42	C	1.486909	0.242210	-0.249752
C43	C	1.483428	0.242206	-0.380772
C44	C	1.481662	0.161487	-0.446265
C45	C	1.477926	0.000059	0.414336
C46	C	1.481619	0.000059	0.553779
H47	H	1.050636	0.000062	0.623860
O48	O	0.877984	0.000072	-0.056362
H49	H	0.955269	0.000050	-0.134038
H50	H	1.321953	-0.444293	0.347979
H51	H	1.481894	-0.146373	-0.434020
O52	O	1.488665	-0.167697	-0.178977
H53	H	1.486875	-0.223827	-0.246523
O54	O	1.672786	-0.563806	-0.002582
H55	H	1.722520	-0.506670	-0.051129
H56	H	1.129308	0.000037	-0.019392
O57	O	1.229469	0.000032	0.420589
H58	H	1.251948	0.000026	0.520173
O59	O	1.538639	-0.564247	0.425880
H60	H	1.465086	-0.540545	0.499087
O61	O	1.726217	-0.435853	0.238761
H62	H	1.725192	-0.361966	0.238599
H63	H	1.438420	-0.444138	-0.025006
O64	O	0.684796	0.000090	0.406135
H65	H	0.656312	0.060437	0.355862
H66	H	1.275287	-0.555726	0.138057
H67	H	1.491460	0.161508	-0.077542
H68	H	0.812931	0.000088	0.617562
O69	O	1.488806	0.329269	-0.179124
H70	H	1.491525	0.315716	-0.077011
H71	H	1.478810	0.161490	-0.552949
O72	O	1.481537	0.329255	-0.451450
H73	H	1.483345	0.385380	-0.383898
