data_functionalizedCrystal
_audit_creation_method	'MofGen! by Chris Wilmer'
_symmetry_space_group_name_H-M	'P1'
_symmetry_Int_Tables_number	1
_symmetry_cell_setting	triclinic
loop_
_symmetry_equiv_pos_as_xyz
  x,y,z
_cell_length_a	15.944551
_cell_length_b	15.944551
_cell_length_c	12.996460
_cell_angle_alpha	89.998907
_cell_angle_beta	90.001256
_cell_angle_gamma	96.501262
loop_
_atom_site_label
_atom_site_type_symbol
_atom_site_fract_x
_atom_site_fract_y
_atom_site_fract_z
O1	O	-0.108334	1.114525	-0.085448
O2	O	0.225000	1.447859	0.247885
O3	O	0.558333	1.781192	0.581218
O4	O	-0.121690	0.869976	-0.085472
O5	O	0.211643	1.203309	0.247861
O6	O	0.544977	1.536642	0.581194
O7	O	0.007263	0.998929	-0.085466
O8	O	0.340596	1.332262	0.247868
O9	O	0.673930	1.665595	0.581201
O10	O	-0.237287	0.985572	-0.085455
O11	O	0.096047	1.318906	0.247878
O12	O	0.429380	1.652239	0.581212
O13	O	0.007270	0.998915	0.085668
O14	O	0.340604	1.332248	0.419001
O15	O	0.673937	1.665582	0.752335
O16	O	-0.121683	0.869962	0.085661
O17	O	0.211651	1.203296	0.418995
O18	O	0.544984	1.536629	0.752328
O19	O	-0.108326	1.114512	0.085686
O20	O	0.225007	1.447845	0.419019
O21	O	0.558340	1.781179	0.752352
Cu22	Cu	-0.115004	0.992236	0.101299
Cu23	Cu	0.218329	1.325569	0.434633
Cu24	Cu	0.551663	1.658902	0.767966
Cu25	Cu	-0.115012	0.992252	-0.101086
Cu26	Cu	0.218321	1.325585	0.232247
Cu27	Cu	0.551654	1.658918	0.565580
O28	O	-0.237279	0.985559	0.085679
O29	O	0.096054	1.318892	0.419012
O30	O	0.429387	1.652226	0.752345
C31	C	-0.121132	0.838675	0.000091
C32	C	0.212202	1.172008	0.333425
C33	C	0.545535	1.505342	0.666758
C34	C	-0.119470	0.745429	0.000081
C35	C	0.213864	1.078762	0.333415
C36	C	0.547197	1.412096	0.666748
C37	C	-0.035565	0.530572	0.000098
C38	C	0.297768	0.863906	0.333431
C39	C	0.631102	1.197239	0.666764
C40	C	-0.074531	0.469559	-0.084279
C41	C	0.258802	0.802892	0.249055
C42	C	0.592136	1.136225	0.582388
C43	C	-0.116462	0.574703	0.000093
C44	C	0.216871	0.908036	0.333427
C45	C	0.550204	1.241370	0.666760
C46	C	-0.074543	0.469568	0.084446
C47	C	0.258790	0.802901	0.417779
C48	C	0.592124	1.136234	0.751113
C49	C	-0.113551	0.409790	0.000110
C50	C	0.219782	0.743124	0.333443
C51	C	0.553115	1.076457	0.666776
C52	C	-0.155450	0.514918	-0.084353
C53	C	0.177883	0.848251	0.248981
C54	C	0.511216	1.181584	0.582314
C55	C	-0.155451	0.514933	0.084448
C56	C	0.177882	0.848266	0.417781
C57	C	0.511216	1.181600	0.751114
C58	C	-0.194476	0.453937	0.000051
C59	C	0.138857	0.787271	0.333384
C60	C	0.472191	1.120604	0.666718
C61	C	-0.118137	0.669705	0.000083
C62	C	0.215197	1.003039	0.333417
C63	C	0.548530	1.336372	0.666750
C64	C	-0.111883	0.314789	0.000112
C65	C	0.221450	0.648123	0.333446
C66	C	0.554783	0.981456	0.666779
C67	C	-0.268577	0.986120	0.000113
C68	C	0.064756	1.319453	0.333447
C69	C	0.398090	1.652787	0.666780
C70	C	-0.361823	0.987782	0.000118
C71	C	-0.028490	1.321116	0.333451
C72	C	0.304844	1.654449	0.666785
C73	C	-0.576680	1.071687	0.000111
C74	C	-0.243346	1.405020	0.333444
C75	C	0.089987	1.738353	0.666777
C76	C	-0.637692	1.032718	0.084486
C77	C	-0.304359	1.366051	0.417819
C78	C	0.028974	1.699384	0.751152
C79	C	-0.532549	0.990790	0.000109
C80	C	-0.199216	1.324123	0.333442
C81	C	0.134118	1.657456	0.666776
C82	C	-0.637685	1.032712	-0.084239
C83	C	-0.304352	1.366045	0.249094
C84	C	0.028982	1.699379	0.582428
C85	C	-0.697462	0.993700	0.000096
C86	C	-0.364128	1.327034	0.333429
C87	C	-0.030795	1.660367	0.666763
C88	C	-0.592333	0.951798	0.084554
C89	C	-0.259000	1.285132	0.417887
C90	C	0.074333	1.618465	0.751220
C91	C	-0.592320	0.951804	-0.084247
C92	C	-0.258986	1.285137	0.249087
C93	C	0.074347	1.618471	0.582420
C94	C	-0.653315	0.912776	0.000149
C95	C	-0.319981	1.246109	0.333482
C96	C	0.013352	1.579443	0.666816
C97	C	-0.437547	0.989115	0.000118
C98	C	-0.104213	1.322448	0.333451
C99	C	0.229120	1.655782	0.666784
C100	C	-0.792463	0.995369	0.000095
C101	C	-0.459129	1.328702	0.333428
C102	C	-0.125796	1.662035	0.666762
C103	C	0.038561	0.998367	0.000097
C104	C	0.371894	1.331701	0.333431
C105	C	0.705227	1.665034	0.666764
C106	C	0.131807	0.996705	0.000086
C107	C	0.465140	1.330038	0.333420
C108	C	0.798473	1.663372	0.666753
C109	C	-0.108885	1.145813	0.000120
C110	C	0.224449	1.479146	0.333453
C111	C	0.557782	1.812479	0.666786
C112	C	-0.110547	1.239059	0.000123
C113	C	0.222787	1.572392	0.333456
C114	C	0.556120	1.905725	0.666789
N115	N	-0.114997	0.992231	0.243646
N116	N	0.218336	1.325564	0.576980
N117	N	0.551669	1.658897	0.910313
N118	N	-0.115012	0.992263	-0.243433
N119	N	0.218321	1.325597	0.089900
N120	N	0.551654	1.658930	0.423233
C121	C	-0.115013	0.992251	0.663461
C122	C	0.218320	1.325584	0.996794
C123	C	0.551653	1.658917	1.330127
C124	C	-0.115012	0.992243	0.546656
C125	C	0.218322	1.325576	0.879989
C126	C	0.551655	1.658909	1.213322
C127	C	-0.115006	0.992241	0.453557
C128	C	0.218327	1.325574	0.786891
C129	C	0.551661	1.658908	1.120224
C130	C	-0.115003	0.992232	0.336745
C131	C	0.218330	1.325566	0.670078
C132	C	0.551663	1.658899	1.003411
H133	H	0.031573	0.563905	-0.000010
H134	H	0.364906	0.897238	0.333324
H135	H	0.698240	1.230572	0.666657
H136	H	-0.657796	1.066928	0.155825
H137	H	-0.324463	1.400262	0.489159
H138	H	0.008870	1.733595	0.822492
F139	F	-0.663950	1.077461	-0.177469
F140	F	-0.330616	1.410794	0.155864
F141	F	0.002717	1.744127	0.489197
H142	H	-0.543374	1.138836	0.000200
H143	H	-0.210041	1.472169	0.333534
H144	H	0.123293	1.805503	0.666867
F145	F	-0.029815	0.443282	-0.177524
F146	F	0.303519	0.776615	0.155810
F147	F	0.636852	1.109948	0.489143
F148	F	-0.200144	0.541047	-0.177693
F149	F	0.133189	0.874380	0.155640
F150	F	0.466523	1.207714	0.488973
F151	F	-0.282319	0.410594	-0.000004
F152	F	0.051014	0.743927	0.333329
F153	F	0.384348	1.077260	0.666662
F154	F	-0.200134	0.541241	0.177695
F155	F	0.133199	0.874575	0.511028
F156	F	0.466533	1.207908	0.844362
H157	H	-0.040309	0.449476	0.155777
H158	H	0.293024	0.782809	0.489110
H159	H	0.626358	1.116143	0.822444
H160	H	-0.572339	0.917603	0.155963
H161	H	-0.239006	1.250937	0.489297
H162	H	0.094327	1.584270	0.822630
H163	H	-0.572194	0.917622	-0.155590
H164	H	-0.238860	1.250956	0.177744
H165	H	0.094473	1.584289	0.511077
H166	H	-0.686473	0.845569	0.000189
H167	H	-0.353140	1.178902	0.333523
H168	H	-0.019806	1.512235	0.666856
