data_functionalizedCrystal
_audit_creation_method	'MofGen! by Chris Wilmer'
_symmetry_space_group_name_H-M	'P1'
_symmetry_Int_Tables_number	1
_symmetry_cell_setting	triclinic
loop_
_symmetry_equiv_pos_as_xyz
  x,y,z
_cell_length_a	16.959454
_cell_length_b	16.959455
_cell_length_c	16.959447
_cell_angle_alpha	89.985678
_cell_angle_beta	90.026736
_cell_angle_gamma	89.982978
loop_
_atom_site_label
_atom_site_type_symbol
_atom_site_fract_x
_atom_site_fract_y
_atom_site_fract_z
Zn1	Zn	-0.314730	-1.208384	0.446928
Zn2	Zn	0.018603	-0.875050	0.780262
Zn3	Zn	0.351936	-0.541717	1.113595
Zn4	Zn	-0.446923	-1.208306	0.314758
Zn5	Zn	-0.113589	-0.874973	0.648091
Zn6	Zn	0.219744	-0.541640	0.981425
Zn7	Zn	-0.314755	-1.076212	0.314766
Zn8	Zn	0.018578	-0.742879	0.648099
Zn9	Zn	0.351912	-0.409546	0.981433
Zn10	Zn	-0.446864	-1.076177	0.446897
Zn11	Zn	-0.113530	-0.742844	0.780230
Zn12	Zn	0.219803	-0.409510	1.113563
O13	O	-0.380818	-1.142270	0.380837
O14	O	-0.047485	-0.808936	0.714171
O15	O	0.285849	-0.475603	1.047504
O16	O	-0.332280	-1.318984	0.429406
O17	O	0.001053	-0.985651	0.762739
O18	O	0.334386	-0.652318	1.096072
O19	O	-0.429426	-1.190766	0.204148
O20	O	-0.096092	-0.857433	0.537482
O21	O	0.237241	-0.524099	0.870815
O22	O	-0.204141	-1.093792	0.332314
O23	O	0.129192	-0.760459	0.665647
O24	O	0.462526	-0.427126	0.998981
O25	O	-0.429402	-1.318927	0.332301
O26	O	-0.096068	-0.985594	0.665634
O27	O	0.237265	-0.652261	0.998967
O28	O	-0.204123	-1.190898	0.429413
O29	O	0.129211	-0.857565	0.762747
O30	O	0.462544	-0.524231	1.096080
O31	O	-0.332323	-1.093717	0.204154
O32	O	0.001011	-0.760384	0.537487
O33	O	0.334344	-0.427050	0.870821
O34	O	-0.332265	-0.965597	0.332283
O35	O	0.001068	-0.632263	0.665617
O36	O	0.334401	-0.298930	0.998950
O37	O	-0.429301	-1.093732	0.557512
O38	O	-0.095967	-0.760399	0.890845
O39	O	0.237366	-0.427065	1.224178
O40	O	-0.429325	-0.965571	0.429359
O41	O	-0.095992	-0.632237	0.762693
O42	O	0.237342	-0.298904	1.096026
O43	O	-0.332223	-1.190864	0.557535
O44	O	0.001110	-0.857531	0.890868
O45	O	0.334444	-0.524197	1.224202
O46	O	-0.557526	-1.190732	0.332270
O47	O	-0.224192	-0.857398	0.665603
O48	O	0.109141	-0.524065	0.998937
O49	O	-0.557482	-1.093657	0.429352
O50	O	-0.224149	-0.760324	0.762685
O51	O	0.109184	-0.426990	1.096018
C52	C	-0.380792	-0.936904	0.380819
C53	C	-0.047459	-0.603570	0.714152
C54	C	0.285875	-0.270237	1.047486
C55	C	-0.380800	-0.849047	0.380830
C56	C	-0.047466	-0.515714	0.714163
C57	C	0.285867	-0.182380	1.047497
C58	C	-0.586184	-1.142204	0.380824
C59	C	-0.252851	-0.808870	0.714157
C60	C	0.080482	-0.475537	1.047490
C61	C	-0.674041	-1.142248	0.380844
C62	C	-0.340708	-0.808914	0.714178
C63	C	-0.007374	-0.475581	1.047511
C64	C	-0.380753	-1.142303	0.587006
C65	C	-0.047419	-0.808969	0.920339
C66	C	0.285914	-0.475636	1.253672
C67	C	-0.380725	-1.142317	0.674862
C68	C	-0.047391	-0.808983	1.008196
C69	C	0.285942	-0.475650	1.341529
C70	C	-1.045524	-1.091796	0.431382
C71	C	-0.712190	-0.758463	0.764716
C72	C	-0.378857	-0.425130	1.098049
C73	C	-1.045509	-1.192963	0.330373
C74	C	-0.712176	-0.859630	0.663706
C75	C	-0.378842	-0.526297	0.997039
C76	C	-0.962963	-1.192936	0.330365
C77	C	-0.629630	-0.859603	0.663699
C78	C	-0.296296	-0.526269	0.997032
C79	C	-0.921694	-1.142337	0.380867
C80	C	-0.588360	-0.809004	0.714200
C81	C	-0.255027	-0.475670	1.047533
C82	C	-0.962970	-1.091765	0.431375
C83	C	-0.629637	-0.758432	0.764708
C84	C	-0.296304	-0.425099	1.098042
C85	C	-0.921680	-1.243501	0.279852
C86	C	-0.588347	-0.910167	0.613186
C87	C	-0.255014	-0.576834	0.946519
C88	C	-0.839130	-1.243475	0.279842
C89	C	-0.505796	-0.910141	0.613176
C90	C	-0.172463	-0.576808	0.946509
C91	C	-0.797859	-1.192879	0.330348
C92	C	-0.464525	-0.859546	0.663682
C93	C	-0.131192	-0.526212	0.997015
C94	C	-0.839140	-1.142306	0.380859
C95	C	-0.505807	-0.808973	0.714192
C96	C	-0.172474	-0.475639	1.047526
C97	C	-0.797871	-1.091707	0.431360
C98	C	-0.464537	-0.758374	0.764694
C99	C	-0.131204	-0.425040	1.098027
C100	C	-0.839151	-1.041137	0.481876
C101	C	-0.505818	-0.707804	0.815209
C102	C	-0.172484	-0.374471	1.148542
C103	C	-0.921699	-1.041170	0.481881
C104	C	-0.588366	-0.707836	0.815214
C105	C	-0.255033	-0.374503	1.148547
C106	C	-0.715310	-1.192847	0.330343
C107	C	-0.381977	-0.859513	0.663677
C108	C	-0.048644	-0.526180	0.997010
C109	C	-0.715317	-1.091676	0.431353
C110	C	-0.381984	-0.758343	0.764686
C111	C	-0.048651	-0.425009	1.098019
C112	C	-0.174650	-1.142358	0.380868
C113	C	0.158684	-0.809024	0.714201
C114	C	0.492017	-0.475691	1.047535
C115	C	-0.086793	-1.142395	0.380881
C116	C	0.246540	-0.809062	0.714215
C117	C	0.579874	-0.475729	1.047548
C118	C	-0.380845	-1.348438	0.380856
C119	C	-0.047511	-1.015105	0.714189
C120	C	0.285822	-0.681771	1.047523
C121	C	-0.380856	-1.436295	0.380864
C122	C	-0.047523	-1.102961	0.714197
C123	C	0.285811	-0.769628	1.047531
C124	C	-0.330238	-0.477560	0.330395
C125	C	0.003096	-0.144227	0.663729
C126	C	0.336429	0.189106	0.997062
C127	C	-0.431463	-0.477582	0.431324
C128	C	-0.098130	-0.144249	0.764658
C129	C	0.235203	0.189084	1.097991
C130	C	-0.431452	-0.560128	0.431320
C131	C	-0.098119	-0.226795	0.764653
C132	C	0.235215	0.106539	1.097986
C133	C	-0.380834	-0.601394	0.380851
C134	C	-0.047500	-0.268061	0.714184
C135	C	0.285833	0.065273	1.047518
C136	C	-0.330226	-0.560114	0.330387
C137	C	0.003107	-0.226781	0.663721
C138	C	0.336440	0.106553	0.997054
C139	C	-0.482064	-0.601414	0.481777
C140	C	-0.148731	-0.268081	0.815110
C141	C	0.184603	0.065252	1.148443
C142	C	-0.482055	-0.683965	0.481773
C143	C	-0.148722	-0.350632	0.815107
C144	C	0.184611	-0.017299	1.148440
C145	C	-0.431432	-0.725233	0.431308
C146	C	-0.098099	-0.391899	0.764641
C147	C	0.235235	-0.058566	1.097975
C148	C	-0.380822	-0.683948	0.380843
C149	C	-0.047489	-0.350614	0.714176
C150	C	0.285844	-0.017281	1.047510
C151	C	-0.330204	-0.725213	0.330374
C152	C	0.003129	-0.391880	0.663708
C153	C	0.336463	-0.058547	0.997041
C154	C	-0.279589	-0.683930	0.279913
C155	C	0.053744	-0.350596	0.613246
C156	C	0.387077	-0.017263	0.946579
C157	C	-0.279603	-0.601381	0.279922
C158	C	0.053730	-0.268048	0.613255
C159	C	0.387063	0.065285	0.946589
C160	C	-0.431418	-0.807781	0.431299
C161	C	-0.098085	-0.474448	0.764632
C162	C	0.235248	-0.141114	1.097965
C163	C	-0.330193	-0.807767	0.330366
C164	C	0.003141	-0.474434	0.663700
C165	C	0.336474	-0.141100	0.997033
C166	C	-0.380826	-1.142283	0.175471
C167	C	-0.047493	-0.808949	0.508804
C168	C	0.285841	-0.475616	0.842138
C169	C	-0.380631	-1.142422	0.087615
C170	C	-0.047298	-0.809088	0.420948
C171	C	0.286035	-0.475755	0.754281
C172	C	-0.431185	-1.091839	1.046328
C173	C	-0.097852	-0.758506	1.379662
C174	C	0.235481	-0.425172	1.712995
C175	C	-0.330097	-1.192983	1.046348
C176	C	0.003236	-0.859650	1.379681
C177	C	0.336569	-0.526317	1.713014
C178	C	-0.330114	-1.192962	0.963802
C179	C	0.003219	-0.859629	1.297135
C180	C	0.336553	-0.526296	1.630468
C181	C	-0.380668	-1.142380	0.922515
C182	C	-0.047335	-0.809046	1.255849
C183	C	0.285999	-0.475713	1.589182
C184	C	-0.431205	-1.091818	0.963775
C185	C	-0.097872	-0.758485	1.297108
C186	C	0.235461	-0.425151	1.630441
C187	C	-0.279584	-1.243529	0.922536
C188	C	0.053750	-0.910195	1.255869
C189	C	0.387083	-0.576862	1.589203
C190	C	-0.279599	-1.243510	0.839985
C191	C	0.053734	-0.910177	1.173318
C192	C	0.387068	-0.576843	1.506652
C193	C	-0.330149	-1.192923	0.798697
C194	C	0.003184	-0.859590	1.132031
C195	C	0.336517	-0.526256	1.465364
C196	C	-0.380688	-1.142359	0.839962
C197	C	-0.047355	-0.809025	1.173295
C198	C	0.285979	-0.475692	1.506628
C199	C	-0.431242	-1.091776	0.798675
C200	C	-0.097909	-0.758443	1.132009
C201	C	0.235425	-0.425109	1.465342
C202	C	-0.481777	-1.041207	0.839938
C203	C	-0.148444	-0.707874	1.173272
C204	C	0.184890	-0.374541	1.506605
C205	C	-0.481756	-1.041231	0.922487
C206	C	-0.148422	-0.707898	1.255820
C207	C	0.184911	-0.374564	1.589154
C208	C	-0.330171	-1.192899	0.716149
C209	C	0.003163	-0.859566	1.049482
C210	C	0.336496	-0.526233	1.382815
C211	C	-0.431262	-1.091755	0.716122
C212	C	-0.097929	-0.758422	1.049455
C213	C	0.235405	-0.425088	1.382788
H214	H	-0.681721	-1.050475	0.472480
H215	H	-0.348387	-0.717142	0.805813
H216	H	-0.015054	-0.383808	1.139147
H217	H	-0.805540	-0.999936	0.522991
H218	H	-0.472207	-0.666602	0.856324
H219	H	-0.138873	-0.333269	1.189657
H220	H	-0.472630	-0.841390	0.472381
H221	H	-0.139297	-0.508057	0.805715
H222	H	0.194037	-0.174724	1.139048
H223	H	-0.238450	-1.284686	0.806396
H224	H	0.094884	-0.951353	1.139729
H225	H	0.428217	-0.618019	1.473062
H226	H	-0.805524	-1.284651	0.238711
H227	H	-0.472191	-0.951318	0.572044
H228	H	-0.138858	-0.617985	0.905378
H229	H	-1.079138	-1.050626	0.472513
H230	H	-0.745804	-0.717293	0.805846
H231	H	-0.412471	-0.383959	1.139180
H232	H	-0.288968	-0.841360	0.289273
H233	H	0.044366	-0.508026	0.622606
H234	H	0.377699	-0.174693	0.955940
H235	H	-1.079115	-1.234154	0.289252
H236	H	-0.745782	-0.900821	0.622586
H237	H	-0.412449	-0.567488	0.955919
H238	H	-0.472422	-1.050557	0.682512
H239	H	-0.139089	-0.717224	1.015845
H240	H	0.194244	-0.383890	1.349179
H241	H	-0.955317	-0.999998	0.523007
H242	H	-0.621984	-0.666665	0.856340
H243	H	-0.288650	-0.333331	1.189673
H244	H	-0.955288	-1.284690	0.238731
H245	H	-0.621955	-0.951357	0.572065
H246	H	-0.288621	-0.618023	0.905398
H247	H	-0.288943	-1.234170	1.079968
H248	H	0.044390	-0.900836	1.413301
H249	H	0.377724	-0.567503	1.746635
H250	H	-0.238430	-1.284715	0.956158
H251	H	0.094903	-0.951382	1.289491
H252	H	0.428236	-0.618048	1.622824
H253	H	-0.472679	-0.443979	0.472409
H254	H	-0.139346	-0.110645	0.805742
H255	H	0.193987	0.222688	1.139075
H256	H	-0.681704	-1.234016	0.289211
H257	H	-0.348370	-0.900682	0.622544
H258	H	-0.015037	-0.567349	0.955877
H259	H	-0.472327	-1.050665	1.079928
H260	H	-0.138994	-0.717332	1.413262
H261	H	0.194339	-0.383998	1.746595
H262	H	-0.238379	-0.717539	0.238818
H263	H	0.094954	-0.384206	0.572151
H264	H	0.428287	-0.050873	0.905484
H265	H	-0.238397	-0.567761	0.238838
H266	H	0.094937	-0.234428	0.572171
H267	H	0.428270	0.098906	0.905505
H268	H	-0.522942	-1.000026	0.806312
H269	H	-0.189608	-0.666693	1.139645
H270	H	0.143725	-0.333360	1.472979
H271	H	-0.289026	-0.443944	0.289313
H272	H	0.044307	-0.110610	0.622646
H273	H	0.377640	0.222723	0.955980
H274	H	-0.522901	-1.000063	0.956091
H275	H	-0.189568	-0.666730	1.289424
H276	H	0.143765	-0.333396	1.622757
H277	H	-0.523280	-0.567810	0.522860
H278	H	-0.189947	-0.234476	0.856193
H279	H	0.143386	0.098857	1.189526
H280	H	-0.523268	-0.717571	0.522863
H281	H	-0.189935	-0.384238	0.856196
H282	H	0.143399	-0.050905	1.189529
H283	H	-0.289028	-1.234074	0.682556
H284	H	0.044305	-0.900740	1.015889
H285	H	0.377639	-0.567407	1.349223
