data_functionalizedCrystal
_audit_creation_method	'MofGen! by Chris Wilmer'
_symmetry_space_group_name_H-M	'P1'
_symmetry_Int_Tables_number	1
_symmetry_cell_setting	triclinic
loop_
_symmetry_equiv_pos_as_xyz
  x,y,z
_cell_length_a	11.792241
_cell_length_b	10.268362
_cell_length_c	11.792241
_cell_angle_alpha	90.005428
_cell_angle_beta	95.806584
_cell_angle_gamma	89.999626
loop_
_atom_site_label
_atom_site_type_symbol
_atom_site_fract_x
_atom_site_fract_y
_atom_site_fract_z
O1	O	1.506909	-0.108174	-0.155569
O2	O	2.006909	0.391826	0.344431
O3	O	1.176568	-0.108205	-0.171602
O4	O	1.676568	0.391795	0.328398
O5	O	1.349755	-0.108180	0.001585
O6	O	1.849755	0.391820	0.501585
O7	O	1.333722	-0.108199	-0.328756
O8	O	1.833722	0.391801	0.171244
O9	O	1.349740	0.108421	0.001593
O10	O	1.849740	0.608421	0.501593
O11	O	1.176553	0.108396	-0.171594
O12	O	1.676553	0.608396	0.328406
O13	O	1.506894	0.108426	-0.155561
O14	O	2.006894	0.608426	0.344439
Cu15	Cu	1.341722	0.128188	-0.163577
Cu16	Cu	1.841722	0.628188	0.336423
Cu17	Cu	1.341740	-0.127967	-0.163586
Cu18	Cu	1.841740	0.372033	0.336414
O19	O	1.333707	0.108401	-0.328748
O20	O	1.833707	0.608401	0.171252
C21	C	1.134269	0.000092	-0.170591
C22	C	1.634269	0.500092	0.329409
C23	C	1.008255	0.000080	-0.167576
C24	C	1.508255	0.500080	0.332424
N25	N	1.341717	0.308354	-0.163571
N26	N	1.841717	0.808354	0.336429
N27	N	1.341753	-0.308133	-0.163584
N28	N	1.841753	0.191867	0.336416
C29	C	0.777543	0.000118	-0.162034
C30	C	1.277543	0.500118	0.337966
C31	C	0.905928	0.000097	-0.165113
C32	C	1.405928	0.500097	0.334887
C33	C	1.549192	0.000127	-0.156572
C34	C	2.049192	0.500127	0.343428
C35	C	1.675206	0.000130	-0.159587
C36	C	2.175206	0.500130	0.340413
C37	C	1.348740	0.000120	0.043880
C38	C	1.848740	0.500120	0.543880
C39	C	1.345726	0.000119	0.169894
C40	C	1.845726	0.500119	0.669894
C41	C	1.341734	0.574025	-0.163583
C42	C	1.841734	1.074025	0.336417
C43	C	1.341721	0.426187	-0.163580
C44	C	1.841721	0.926187	0.336420
C45	C	1.334721	0.000099	-0.371043
C46	C	1.834721	0.500099	0.128957
C47	C	1.337736	0.000092	-0.497057
C48	C	1.837736	0.500092	0.002943
C49	C	1.340183	0.000096	0.400606
C50	C	1.840183	0.500096	0.900606
C51	C	1.343262	0.000108	0.272221
C52	C	1.843262	0.500108	0.772221
