data_functionalizedCrystal
_audit_creation_method	'MofGen! by Chris Wilmer'
_symmetry_space_group_name_H-M	'P1'
_symmetry_Int_Tables_number	1
_symmetry_cell_setting	triclinic
loop_
_symmetry_equiv_pos_as_xyz
  x,y,z
_cell_length_a	6.817900
_cell_length_b	15.301126
_cell_length_c	13.212919
_cell_angle_alpha	89.233616
_cell_angle_beta	106.298290
_cell_angle_gamma	104.177575
loop_
_atom_site_label
_atom_site_type_symbol
_atom_site_fract_x
_atom_site_fract_y
_atom_site_fract_z
V1	V	-4.045455	-0.098197	-0.325776
O2	O	-4.029022	0.032025	-0.319248
O3	O	-4.000296	-0.220970	-0.323862
O4	O	-4.003631	-0.084705	-0.467715
O5	O	-4.025664	-0.105184	-0.174399
V6	V	-4.527810	-0.084037	-0.307632
O7	O	-4.309274	-0.129259	-0.365577
O8	O	-4.714189	-0.052975	-0.267832
O9	O	-4.349762	0.038736	-0.309546
O10	O	-4.661639	-0.214259	-0.314160
O11	O	-4.664998	-0.077050	-0.459009
O12	O	-4.346427	-0.097529	-0.165693
C13	C	-3.845873	-0.251274	-0.318804
C14	C	-3.890281	-0.351565	-0.318185
C15	C	-4.093624	-0.402850	-0.323112
C16	C	-4.135341	-0.497084	-0.322537
C17	C	-3.973710	-0.540032	-0.317027
C18	C	-3.770352	-0.488741	-0.312102
C19	C	-3.728641	-0.394509	-0.312685
C20	C	-3.857303	-0.685151	-0.310885
C21	C	-3.899015	-0.779390	-0.310300
C22	C	-4.264003	-0.787726	-0.320737
C23	C	-4.222292	-0.693494	-0.321320
C24	C	-4.018935	-0.642209	-0.316393
C25	C	-3.850126	-0.077454	-0.502301
C26	C	-3.897236	-0.067235	-0.618339
C27	C	-4.072222	-0.210739	-0.866631
C28	C	-4.116488	-0.201142	-0.975659
C29	C	-4.030050	-0.038445	-0.945428
C30	C	-3.985784	-0.048042	-0.836399
C31	C	-4.006870	-0.134192	-0.797005
C32	C	-3.962588	-0.143788	-0.687974
C33	C	-3.876166	0.018908	-0.657745
C34	C	-3.920432	0.028505	-0.766774
C35	C	-4.167527	0.069035	-0.314602
C36	C	-4.102357	0.169326	-0.315227
C37	C	-4.163274	-0.104784	-0.131101
C38	C	-4.095403	-0.114998	-0.015062
H39	H	-4.300920	-0.538836	-0.326551
H40	H	-3.767413	-0.814357	-0.305844
O41	O	-3.812971	0.093336	-0.590226
C42	C	-3.970904	0.141297	-0.612718
H43	H	-4.073146	0.123841	-0.697862
H44	H	-4.073380	0.121923	-0.556988
C45	C	-3.741304	0.264879	-0.492977
C46	C	-3.866868	0.243445	-0.597556
H47	H	-3.677133	0.327888	-0.483620
H48	H	-3.634903	0.232566	-0.477820
H49	H	-3.826721	0.248726	-0.446548
H50	H	-3.781447	0.259587	-0.643982
H51	H	-3.973252	0.275763	-0.612720
O52	O	-4.009261	0.045289	-0.983567
C53	C	-3.798771	0.096299	-0.942702
H54	H	-3.721076	0.067491	-0.866156
H55	H	-3.708282	0.093139	-1.002627
C56	C	-3.891455	0.230584	-1.014531
C57	C	-3.796035	0.195207	-0.920511
H58	H	-3.889764	0.291596	-1.000846
H59	H	-4.033265	0.196218	-1.042066
H60	H	-3.816036	0.227943	-1.064460
H61	H	-3.871470	0.197838	-0.870589
H62	H	-3.654236	0.229576	-0.892967
H63	H	-3.979749	-0.213935	-0.655901
H64	H	-4.353906	-0.658528	-0.325801
O65	O	-3.530971	-0.344821	-0.307841
C66	C	-3.397263	-0.402933	-0.302877
H67	H	-3.464838	-0.469563	-0.270779
H68	H	-3.385259	-0.416145	-0.385371
C69	C	-3.093143	-0.276722	-0.268804
C70	C	-3.176131	-0.358556	-0.229371
H71	H	-2.956735	-0.249348	-0.223466
H72	H	-3.183224	-0.237570	-0.272152
H73	H	-3.083158	-0.287744	-0.337548
H74	H	-3.186139	-0.347532	-0.160634
H75	H	-3.086046	-0.397705	-0.226009
H76	H	-4.089367	-0.280885	-0.834555
H77	H	-4.225243	-0.367888	-0.327590
H78	H	-4.429577	-0.829486	-0.324733
H79	H	-3.691716	-0.643398	-0.306881
H80	H	-4.169701	-0.263475	-1.032346
H81	H	-3.903279	0.098646	-0.798865
H82	H	-3.638755	-0.523717	-0.307622
