data_functionalizedCrystal
_audit_creation_method	'MofGen! by Chris Wilmer'
_symmetry_space_group_name_H-M	'P1'
_symmetry_Int_Tables_number	1
_symmetry_cell_setting	triclinic
loop_
_symmetry_equiv_pos_as_xyz
  x,y,z
_cell_length_a	12.645330
_cell_length_b	12.759395
_cell_length_c	12.645323
_cell_angle_alpha	89.980981
_cell_angle_beta	89.975130
_cell_angle_gamma	90.017537
loop_
_atom_site_label
_atom_site_type_symbol
_atom_site_fract_x
_atom_site_fract_y
_atom_site_fract_z
Zn1	Zn	-0.422035	1.606243	-0.599343
Zn2	Zn	-0.599323	1.606125	-0.422083
Zn3	Zn	-0.422074	1.430542	-0.422099
Zn4	Zn	-0.599257	1.430524	-0.599310
O5	O	-0.510672	1.518358	-0.510708
O6	O	-0.445565	1.753248	-0.575836
O7	O	-0.575855	1.582792	-0.273738
O8	O	-0.273722	1.453906	-0.445631
O9	O	-0.575817	1.753162	-0.445604
O10	O	-0.273693	1.582992	-0.575851
O11	O	-0.445630	1.453792	-0.273749
O12	O	-0.445566	1.283519	-0.445599
O13	O	-0.575704	1.453875	-0.747661
O14	O	-0.575741	1.283505	-0.575795
O15	O	-0.445500	1.582975	-0.747686
O16	O	-0.747662	1.582775	-0.445572
O17	O	-0.747613	1.453761	-0.575780
C18	C	-0.510651	1.245391	-0.510695
C19	C	-0.510668	1.128614	-0.510715
C20	C	-0.375255	1.128685	-0.646545
C21	C	-0.307561	1.073859	-0.714468
C22	C	-0.307580	0.964137	-0.714481
C23	C	-0.375298	0.909239	-0.646562
C24	C	-0.442991	0.964065	-0.578638
C25	C	-0.442967	1.073789	-0.578635
C26	C	-0.578397	0.963994	-0.442805
C27	C	-0.578385	1.073716	-0.442795
C28	C	-0.646115	0.909096	-0.374885
C29	C	-0.713815	0.963921	-0.306965
C30	C	-0.713794	1.073649	-0.306956
C31	C	-0.646079	1.128541	-0.374872
C32	C	-0.786102	1.518282	-0.510694
C33	C	-0.903932	1.518345	-0.510723
C34	C	-1.071509	1.437517	-0.592889
C35	C	-0.948950	1.437104	-0.592625
C36	C	-0.948526	1.488370	-0.399003
C37	C	-1.071125	1.487877	-0.399501
C38	C	-1.071022	1.629642	-0.539371
C39	C	-0.948415	1.628960	-0.541813
C40	C	-0.234167	1.518464	-0.510747
C41	C	-0.116337	1.518509	-0.510763
C42	C	-0.510590	1.518436	-0.787214
C43	C	-0.510555	1.518469	-0.905044
C44	C	-0.510694	1.792392	-0.510722
C45	C	-0.510704	1.909168	-0.510728
C46	C	-0.592081	1.437002	-1.072593
C47	C	-0.592484	1.437215	-0.950033
C48	C	-0.540874	1.629170	-0.949557
C49	C	-0.541386	1.628723	-1.072155
C50	C	-0.398256	1.490282	-1.072244
C51	C	-0.398928	1.487812	-0.949637
C52	C	-0.510678	1.518342	-0.235279
C53	C	-0.510414	1.518512	-0.117449
H54	H	-0.375228	1.218026	-0.646536
C55	C	-0.650482	1.662050	-0.908104
N56	N	-0.733042	1.686809	-0.876884
C57	C	-0.368013	1.377776	-0.910289
N58	N	-0.344722	1.294904	-0.880631
H59	H	-0.252452	0.919499	-0.769784
C60	C	-0.908211	1.462436	-0.704539
N61	N	-0.877531	1.481512	-0.788839
H62	H	-0.573512	1.355126	-0.919936
C63	C	-1.109888	1.378124	-0.366768
N64	N	-1.139079	1.295455	-0.342116
H65	H	-0.375298	0.819898	-0.646570
H66	H	-0.919715	1.354715	-0.573672
H67	H	-0.252425	1.118570	-0.769765
H68	H	-1.102410	1.355643	-0.574179
H69	H	-1.100782	1.544308	-0.336225
H70	H	-0.646122	0.819754	-0.374898
H71	H	-0.573290	1.354670	-1.102072
H72	H	-0.919368	1.545490	-0.336141
C73	C	-0.312375	1.562142	-0.908246
N74	N	-0.247184	1.618130	-0.877062
H75	H	-0.370619	1.410964	-1.103153
H76	H	-0.768941	0.919214	-0.251666
H77	H	-0.623375	1.652652	-1.100764
C78	C	-0.646047	1.249238	-0.374866
N79	N	-0.646017	1.340148	-0.374860
C80	C	-1.112683	1.666578	-0.647561
N81	N	-1.144062	1.694387	-0.729055
H82	H	-0.337411	1.549650	-1.101253
H83	H	-0.674709	1.455456	-1.103411
C84	C	-0.908989	1.659526	-0.652867
N85	N	-0.879274	1.682552	-0.736506
H86	H	-0.917915	1.407978	-0.374329
H87	H	-0.917765	1.692481	-0.486353
H88	H	-1.100010	1.689983	-0.479555
H89	H	-0.675632	1.455851	-0.920718
H90	H	-0.484485	1.691514	-1.101829
C91	C	-0.463064	1.713420	-0.910186
N92	N	-0.404457	1.776876	-0.880529
H93	H	-0.768915	1.118282	-0.251640
H94	H	-1.100921	1.456099	-0.676001
