data_functionalizedCrystal
_audit_creation_method	'MofGen! by Chris Wilmer'
_symmetry_space_group_name_H-M	'P1'
_symmetry_Int_Tables_number	1
_symmetry_cell_setting	triclinic
loop_
_symmetry_equiv_pos_as_xyz
  x,y,z
_cell_length_a	16.992694
_cell_length_b	10.654541
_cell_length_c	16.053802
_cell_angle_alpha	92.590712
_cell_angle_beta	87.249047
_cell_angle_gamma	87.576076
loop_
_atom_site_label
_atom_site_type_symbol
_atom_site_fract_x
_atom_site_fract_y
_atom_site_fract_z
O1	O	1.045115	0.261481	-0.069324
O2	O	0.816815	0.258557	-0.069348
O3	O	0.936214	0.077733	-0.069330
O4	O	0.925715	0.442304	-0.069342
O5	O	0.929642	0.087643	0.069527
O6	O	0.810242	0.268466	0.069510
O7	O	1.038542	0.271391	0.069534
Zn8	Zn	0.923349	0.271501	0.091569
Zn9	Zn	0.932008	0.258446	-0.091383
O10	O	0.919143	0.452214	0.069516
C11	C	0.784296	0.259751	0.000077
C12	C	0.697191	0.248531	0.000068
C13	C	0.647539	0.356781	0.000065
C14	C	0.565694	0.346233	0.000077
C15	C	0.533504	0.227433	0.000086
C16	C	0.583162	0.119174	0.000091
C17	C	0.665005	0.129724	0.000085
C18	C	0.289668	0.183707	0.000110
C19	C	0.207819	0.173165	0.000113
C20	C	0.190356	0.400226	0.000101
C21	C	0.272201	0.410765	0.000090
C22	C	0.321852	0.302506	0.000099
N23	N	0.449846	0.216647	0.000095
N24	N	0.405508	0.313293	0.000096
C25	C	0.932158	0.035823	0.000098
C26	C	0.929852	-0.103819	0.000096
C27	C	1.072627	-0.119450	0.000122
C28	C	1.142928	-0.192868	0.000137
C29	C	1.140757	-0.324074	0.000134
C30	C	1.068278	-0.381864	0.000114
C31	C	0.997977	-0.308446	0.000100
C32	C	1.000155	-0.177238	0.000105
C33	C	0.855204	-0.292816	0.000068
C34	C	0.857373	-0.161610	0.000076
C35	C	0.782725	-0.350606	0.000048
C36	C	0.712422	-0.277188	0.000039
C37	C	0.714596	-0.145974	0.000043
C38	C	0.787072	-0.088192	0.000062
C39	C	1.071061	0.270196	0.000106
C40	C	1.158166	0.281416	0.000110
C41	C	0.923199	0.494124	0.000086
C42	C	0.925505	0.633766	0.000082
N43	N	0.917445	0.280412	0.216428
N44	N	0.937918	0.249526	-0.216242
C45	C	0.968268	0.203502	0.260130
C46	C	0.964146	0.209748	0.347536
C47	C	0.909203	0.292910	0.391239
C48	C	0.858374	0.369822	0.347531
C49	C	0.862493	0.363569	0.260126
C50	C	0.891209	0.320186	0.652646
C51	C	0.887095	0.326436	0.740056
C52	C	0.992866	0.166359	0.740055
C53	C	0.996984	0.160119	0.652649
C54	C	0.946152	0.237026	0.608949
N55	N	0.904989	0.299298	0.480582
N56	N	0.950363	0.230631	0.519607
H57	H	0.525270	0.434383	0.000074
H58	H	1.066517	-0.488700	0.000101
H59	H	1.201939	-0.145800	0.000160
O60	O	0.142164	0.505407	-0.000050
C61	C	0.160256	0.571935	-0.071958
H62	H	0.190235	0.504821	-0.122223
H63	H	0.103611	0.614774	-0.096094
H64	H	0.201551	0.650004	-0.055704
H65	H	0.705432	0.041574	0.000087
H66	H	1.074401	-0.012615	0.000136
O67	O	0.833608	0.407073	0.782478
C68	C	0.756848	0.377254	0.761124
H69	H	0.757062	0.274899	0.737101
H70	H	0.714851	0.391810	0.818615
H71	H	0.736559	0.440941	0.710394
H72	H	0.849821	0.382810	0.617072
O73	O	0.780506	-0.478040	0.000153
C74	C	0.737224	-0.512462	0.072068
H75	H	0.695658	-0.430577	0.096037
H76	H	0.701439	-0.597548	0.055882
H77	H	0.779574	-0.537098	0.122437
O78	O	0.176515	0.057775	-0.000021
C79	C	0.133075	0.039757	-0.071924
H80	H	0.155163	0.103759	-0.122197
H81	H	0.141002	-0.062499	-0.096053
H82	H	0.067935	0.063440	-0.055666
H83	H	0.821106	0.426196	0.224545
H84	H	1.041723	0.092402	0.617067
O85	O	0.805036	0.450772	0.389887
C86	C	0.819475	0.574924	0.368527
H87	H	0.852706	0.573292	0.305063
H88	H	0.760980	0.630610	0.365535
H89	H	0.856412	0.621262	0.417711
O90	O	1.013496	0.134865	0.389891
C91	C	1.001079	0.007656	0.368561
H92	H	0.973825	0.000205	0.305107
H93	H	1.059861	-0.048446	0.365561
H94	H	0.959512	-0.031654	0.417766
H95	H	1.034250	0.103743	0.775643
H96	H	0.673741	0.453522	0.000058
H97	H	0.788849	0.018643	0.000070
H98	H	0.298405	0.507504	0.000073
H99	H	0.330084	0.095555	0.000118
H100	H	0.653415	-0.324252	0.000018
O101	O	0.551767	0.003864	0.000064
C102	C	0.468883	0.017763	0.000087
H103	H	0.451439	0.112012	-0.026206
H104	H	0.445259	-0.061630	-0.040222
H105	H	0.442927	0.014144	0.066706
O106	O	1.209117	-0.395209	0.000183
C107	C	1.273556	-0.316078	0.000176
H108	H	1.252937	-0.218383	0.026462
H109	H	1.320944	-0.356587	0.040498
H110	H	1.298896	-0.309278	-0.066437
O111	O	0.646228	-0.074844	0.000063
C112	C	0.581799	-0.153994	0.000021
H113	H	0.599933	-0.247939	0.026312
H114	H	0.530583	-0.107752	0.040322
H115	H	0.562782	-0.170292	-0.066603
H116	H	1.013012	0.135788	0.224552
