data_functionalizedCrystal
_audit_creation_method	'MofGen! by Chris Wilmer'
_symmetry_space_group_name_H-M	'P1'
_symmetry_Int_Tables_number	1
_symmetry_cell_setting	triclinic
loop_
_symmetry_equiv_pos_as_xyz
  x,y,z
_cell_length_a	14.908783
_cell_length_b	14.908520
_cell_length_c	17.077396
_cell_angle_alpha	93.268321
_cell_angle_beta	86.680280
_cell_angle_gamma	96.791586
loop_
_atom_site_label
_atom_site_type_symbol
_atom_site_fract_x
_atom_site_fract_y
_atom_site_fract_z
Zn1	Zn	1.363049	-0.280613	-0.526464
Zn2	Zn	1.863049	0.219387	-0.026464
Zn3	Zn	1.354208	-0.431994	-0.402351
Zn4	Zn	1.854208	0.068006	0.097649
Zn5	Zn	1.211675	-0.289367	-0.388040
Zn6	Zn	1.711675	0.210633	0.111960
Zn7	Zn	1.202909	-0.440658	-0.526401
Zn8	Zn	1.702909	0.059342	-0.026401
O9	O	1.282960	-0.360658	-0.460814
O10	O	1.782960	0.139342	0.039186
O11	O	1.488545	-0.293404	-0.516015
O12	O	1.988545	0.206596	-0.016015
O13	O	1.335269	-0.413112	-0.290605
O14	O	1.835269	0.086888	0.209395
O15	O	1.239124	-0.161536	-0.400439
O16	O	1.739124	0.338464	0.099561
O17	O	1.482050	-0.404623	-0.424830
O18	O	1.982050	0.095377	0.075170
O19	O	1.350338	-0.155105	-0.502139
O20	O	1.850338	0.344895	-0.002139
O21	O	1.230551	-0.308324	-0.280091
O22	O	1.730551	0.191676	0.219909
O23	O	1.083843	-0.316726	-0.400378
O24	O	1.583843	0.183274	0.099622
O25	O	1.224183	-0.419391	-0.636256
O26	O	1.724183	0.080609	-0.136256
O27	O	1.077403	-0.427879	-0.502032
O28	O	1.577403	0.072121	-0.002032
O29	O	1.341838	-0.301806	-0.636302
O30	O	1.841838	0.198194	-0.136302
O31	O	1.326769	-0.559813	-0.424769
O32	O	1.826769	-0.059813	0.075231
O33	O	1.215610	-0.566179	-0.515909
O34	O	1.715610	-0.066179	-0.015909
C35	C	1.047779	-0.374193	-0.449646
C36	C	1.547779	0.125807	0.050354
C37	C	0.947166	-0.380005	-0.444888
C38	C	1.447166	0.119995	0.055112
C39	C	0.764857	-0.275273	-0.531059
C40	C	1.264857	0.224727	-0.031059
C41	C	0.670322	-0.280731	-0.526591
C42	C	1.170322	0.219269	-0.026591
C43	C	0.663561	-0.396374	-0.431480
C44	C	1.163561	0.103626	0.068520
C45	C	0.758096	-0.390916	-0.435948
C46	C	1.258096	0.109084	0.064052
C47	C	0.808740	-0.330365	-0.485740
C48	C	1.308740	0.169635	0.014260
C49	C	0.903276	-0.324912	-0.490212
C50	C	1.403276	0.175088	0.009788
C51	C	0.896514	-0.440550	-0.395097
C52	C	1.396514	0.059450	0.104903
C53	C	0.801979	-0.446007	-0.390629
C54	C	1.301979	0.053993	0.109371
C55	C	1.269303	-0.595838	-0.471903
C56	C	1.769303	-0.095838	0.028097
C57	C	1.263544	-0.696445	-0.476678
C58	C	1.763544	-0.196445	0.023322
C59	C	1.368589	-0.878798	-0.390832
C60	C	1.868589	-0.378798	0.109168
C61	C	1.363180	-0.973326	-0.395316
C62	C	1.863180	-0.473326	0.104684
C63	C	1.247323	-0.980031	-0.490132
C64	C	1.747323	-0.480031	0.009868
C65	C	1.252731	-0.885503	-0.485648
C66	C	1.752731	-0.385503	0.014352
C67	C	1.313366	-0.834889	-0.435996
C68	C	1.813366	-0.334889	0.064004
C69	C	1.318769	-0.740360	-0.431509
C70	C	1.818769	-0.240360	0.068491
C71	C	1.202917	-0.747066	-0.526329
C72	C	1.702917	-0.247066	-0.026329
C73	C	1.197508	-0.841594	-0.530812
C74	C	1.697508	-0.341594	-0.030812
C75	C	1.519060	-0.347071	-0.472026
C76	C	2.019060	0.152929	0.027974
C77	C	1.619671	-0.341280	-0.476804
C78	C	2.119671	0.158720	0.023196
C79	C	1.283019	-0.360588	-0.665558
C80	C	1.783019	0.139412	-0.165558
C81	C	1.283044	-0.360558	-0.752807
C82	C	1.783044	0.139442	-0.252807
C83	C	1.296695	-0.124558	-0.449699
C84	C	1.796695	0.375442	0.050301
C85	C	1.302548	-0.023946	-0.444963
C86	C	1.802548	0.476054	0.055037
C87	C	1.344309	-0.299327	-0.793822
C88	C	1.844309	0.200673	-0.293822
C89	C	1.344321	-0.299296	-0.875802
C90	C	1.844321	0.200704	-0.375802
C91	C	1.283073	-0.360502	-0.916765
C92	C	1.783073	0.139498	-0.416765
C93	C	1.221801	-0.421736	-0.875744
C94	C	1.721801	0.078264	-0.375744
C95	C	1.221785	-0.421762	-0.793766
C96	C	1.721785	0.078238	-0.293766
C97	C	1.221841	-0.421680	-1.046613
C98	C	1.721841	0.078320	-0.546613
C99	C	1.221858	-0.421655	-1.128598
C100	C	1.721858	0.078345	-0.628598
C101	C	1.344377	-0.299214	-1.128650
C102	C	1.844377	0.200786	-0.628650
C103	C	1.344361	-0.299240	-1.046671
C104	C	1.844361	0.200760	-0.546671
C105	C	1.283090	-0.360475	-1.005656
C106	C	1.783090	0.139525	-0.505656
C107	C	1.282958	-0.360659	-0.256866
C108	C	1.782958	0.139341	0.243134
C109	C	1.283123	-0.360424	-0.169613
C110	C	1.783123	0.139576	0.330387
H111	H	0.932253	-0.485416	-0.358201
H112	H	1.432253	0.014584	0.141799
C113	C	1.435278	-0.823121	-0.336216
C114	C	1.935278	-0.323121	0.163784
H115	H	1.467395	-0.862811	-0.309961
H116	H	1.967395	-0.362811	0.190039
H117	H	1.402782	-0.788293	-0.298601
H118	H	1.902782	-0.288293	0.201399
H119	H	1.476815	-0.783919	-0.366398
H120	H	1.976815	-0.283919	0.133602
H121	H	1.171935	-0.471531	-1.013220
H122	H	1.671935	0.028469	-0.513220
H123	H	1.394264	-0.249352	-1.162048
H124	H	1.894264	0.250648	-0.662048
H125	H	0.760732	-0.495304	-0.350087
H126	H	1.260732	0.004696	0.149913
C127	C	1.423921	-1.021623	-0.345632
C128	C	1.923921	-0.521623	0.154368
H129	H	1.460800	-0.977938	-0.315416
H130	H	1.960800	-0.477938	0.184584
H131	H	1.461232	-1.056173	-0.379304
H132	H	1.961232	-0.556173	0.120696
H133	H	1.387199	-1.060545	-0.311508
H134	H	1.887199	-0.560545	0.188492
C135	C	1.154482	-0.488975	-1.173656
C136	C	1.654482	0.011025	-0.673656
H137	H	1.117980	-0.525440	-1.137488
H138	H	1.617980	-0.025440	-0.637488
H139	H	1.186817	-0.526414	-1.209138
H140	H	1.686817	-0.026414	-0.709138
H141	H	1.117066	-0.456596	-1.202130
H142	H	1.617066	0.043404	-0.702130
C143	C	1.180631	-1.035716	-0.544741
C144	C	1.680631	-0.535716	-0.044741
H145	H	1.185319	-1.098302	-0.540937
H146	H	1.685319	-0.598302	-0.040937
H147	H	1.194722	-1.019415	-0.597384
H148	H	1.694722	-0.519415	-0.097384
H149	H	1.120700	-1.023795	-0.529579
H150	H	1.620700	-0.523795	-0.029579
H151	H	1.368138	-0.699151	-0.391077
H152	H	1.868138	-0.199151	0.108923
C153	C	0.607847	-0.462972	-0.376711
C154	C	1.107847	0.037028	0.123289
H155	H	0.647520	-0.495000	-0.350355
H156	H	1.147520	0.005000	0.149645
H157	H	0.568691	-0.504578	-0.406804
H158	H	1.068691	-0.004578	0.093196
H159	H	0.572966	-0.430419	-0.339174
H160	H	1.072966	0.069581	0.160826
H161	H	1.171888	-0.471614	-0.760371
H162	H	1.671888	0.028386	-0.260371
C163	C	1.411733	-0.231916	-1.001613
C164	C	1.911733	0.268084	-0.501613
H165	H	1.448220	-0.195437	-1.037779
H166	H	1.948220	0.304563	-0.537779
H167	H	1.449149	-0.264284	-0.973136
H168	H	1.949149	0.235716	-0.473136
H169	H	1.379386	-0.194477	-0.966132
H170	H	1.879386	0.305523	-0.466132
H171	H	1.148144	-0.882816	-0.571240
H172	H	1.648144	-0.382816	-0.071240
C173	C	1.142172	-0.698765	-0.576013
C174	C	1.642172	-0.198765	-0.076013
H175	H	1.154078	-0.635218	-0.566237
H176	H	1.654078	-0.135218	-0.066237
H177	H	1.080471	-0.717825	-0.562332
H178	H	1.580471	-0.217825	-0.062332
H179	H	1.154504	-0.713443	-0.630128
H180	H	1.654504	-0.213443	-0.130128
H181	H	1.394211	-0.249438	-0.909193
H182	H	1.894211	0.250562	-0.409193
C183	C	1.411679	-0.231996	-0.748769
C184	C	1.911679	0.268004	-0.248769
H185	H	1.448161	-0.195518	-0.784940
H186	H	1.948161	0.304482	-0.284940
H187	H	1.449101	-0.264356	-0.720292
H188	H	1.949101	0.235644	-0.220292
H189	H	1.379331	-0.194557	-0.713290
H190	H	1.879331	0.305443	-0.213290
H191	H	0.806093	-0.225974	-0.571606
H192	H	1.306093	0.274026	-0.071606
C193	C	1.154427	-0.489063	-0.920798
C194	C	1.654427	0.010937	-0.420798
H195	H	1.117932	-0.525529	-0.884627
H196	H	1.617932	-0.025529	-0.384627
H197	H	1.186765	-0.526501	-0.956280
H198	H	1.686765	-0.026501	-0.456280
H199	H	1.117005	-0.456691	-0.949272
H200	H	1.617005	0.043309	-0.449272
H201	H	0.634597	-0.235868	-0.563493
H202	H	1.134597	0.264132	-0.063493
C203	C	0.958985	-0.258307	-0.544978
C204	C	1.458985	0.241693	-0.044978
H205	H	0.919306	-0.226272	-0.571322
H206	H	1.419306	0.273728	-0.071322
H207	H	0.993872	-0.290846	-0.582514
H208	H	1.493872	0.209154	-0.082514
H209	H	0.998134	-0.216695	-0.514878
H210	H	1.498134	0.283305	-0.014878
