data_functionalizedCrystal
_audit_creation_method	'MofGen! by Chris Wilmer'
_symmetry_space_group_name_H-M	'P1'
_symmetry_Int_Tables_number	1
_symmetry_cell_setting	triclinic
loop_
_symmetry_equiv_pos_as_xyz
  x,y,z
_cell_length_a	14.971482
_cell_length_b	15.995362
_cell_length_c	14.048226
_cell_angle_alpha	90.001045
_cell_angle_beta	89.994098
_cell_angle_gamma	96.445006
loop_
_atom_site_label
_atom_site_type_symbol
_atom_site_fract_x
_atom_site_fract_y
_atom_site_fract_z
O1	O	1.186830	-0.109101	-0.079137
O2	O	1.686830	0.390899	0.420863
O3	O	0.926415	-0.122171	-0.079140
O4	O	1.426415	0.377829	0.420860
O5	O	1.063735	0.006244	-0.079145
O6	O	1.563735	0.506244	0.420855
O7	O	1.049509	-0.237516	-0.079132
O8	O	1.549509	0.262484	0.420868
O9	O	1.063719	0.006252	0.079176
O10	O	1.563719	0.506252	0.579176
O11	O	0.926398	-0.122163	0.079181
O12	O	1.426398	0.377837	0.579181
O13	O	1.186813	-0.109093	0.079185
O14	O	1.686813	0.390907	0.579185
Zn15	Zn	1.056603	-0.115627	0.104320
Zn16	Zn	1.556603	0.384373	0.604320
Zn17	Zn	1.056625	-0.115637	-0.104275
Zn18	Zn	1.556625	0.384363	0.395725
O19	O	1.049493	-0.237508	0.079190
O20	O	1.549493	0.262492	0.579190
C21	C	0.893082	-0.121583	0.000020
C22	C	1.393082	0.378417	0.500020
C23	C	0.793787	-0.119833	0.000018
C24	C	1.293787	0.380167	0.500018
C25	C	0.747134	-0.119005	0.086320
C26	C	1.247134	0.380995	0.586320
C27	C	0.653838	-0.117347	0.086321
C28	C	1.153838	0.382653	0.586321
C29	C	0.607195	-0.116524	0.000019
C30	C	1.107195	0.383476	0.500019
C31	C	0.653854	-0.117350	-0.086289
C32	C	1.153854	0.382650	0.413711
C33	C	0.747150	-0.119001	-0.086289
C34	C	1.247150	0.380999	0.413711
C35	C	0.459396	-0.113909	-0.086283
C36	C	0.959396	0.386091	0.413717
C37	C	0.366094	-0.112259	-0.086284
C38	C	0.866094	0.387741	0.413716
C39	C	0.366084	-0.112255	0.086327
C40	C	0.866084	0.387745	0.586327
C41	C	0.459379	-0.113907	0.086327
C42	C	0.959379	0.386093	0.586327
C43	C	0.506032	-0.114734	0.000018
C44	C	1.006032	0.385266	0.500018
C45	C	1.063137	0.037443	0.000012
C46	C	1.563137	0.537443	0.500012
C47	C	1.061368	0.130395	0.000001
C48	C	1.561368	0.630395	0.500001
C49	C	1.055015	0.468146	-0.000017
C50	C	1.555015	0.968146	0.499983
C51	C	0.957216	0.420809	-0.000371
C52	C	1.457216	0.920809	0.499629
C53	C	0.958985	0.324118	-0.000008
C54	C	1.458985	0.824118	0.499992
C55	C	1.058166	0.300584	-0.000009
C56	C	1.558166	0.800584	0.499991
C57	C	1.106394	0.341618	0.090397
C58	C	1.606394	0.841618	0.590397
C59	C	1.103932	0.438255	0.090466
C60	C	1.603932	0.938255	0.590466
C61	C	1.105971	0.438603	-0.089575
C62	C	1.605971	0.938603	0.410425
C63	C	1.105953	0.341658	-0.090763
C64	C	1.605953	0.841658	0.409237
C65	C	1.059952	0.205885	-0.000001
C66	C	1.559952	0.705885	0.499999
C67	C	1.053232	0.562845	-0.000019
C68	C	1.553232	1.062845	0.499981
C69	C	1.220145	-0.109681	0.000023
C70	C	1.720145	0.390319	0.500023
C71	C	1.319441	-0.111431	0.000018
C72	C	1.819441	0.388569	0.500018
N73	N	1.056595	-0.115620	0.246681
N74	N	1.556595	0.384380	0.746681
C75	C	1.050079	0.731291	0.000015
C76	C	1.550079	1.231291	0.500015
C77	C	1.051813	0.638336	-0.000027
C78	C	1.551813	1.138336	0.499973
N79	N	1.056640	-0.115638	-0.246636
N80	N	1.556640	0.384362	0.253364
C81	C	1.117419	-0.058781	0.296497
C82	C	1.617419	0.441219	0.796497
C83	C	1.117425	-0.058781	0.396154
C84	C	1.617425	0.441219	0.896154
C85	C	1.056610	-0.115623	0.445994
C86	C	1.556610	0.384377	0.945994
C87	C	0.995779	-0.172465	0.396171
C88	C	1.495779	0.327535	0.896171
C89	C	0.995770	-0.172461	0.296516
C90	C	1.495770	0.327539	0.796516
C91	C	0.995805	-0.172471	0.603886
C92	C	1.495805	0.327529	1.103886
C93	C	0.995816	-0.172476	0.703548
C94	C	1.495816	0.327524	1.203548
C95	C	1.117461	-0.058791	0.703524
C96	C	1.617461	0.441209	1.203524
C97	C	1.117451	-0.058787	0.603868
C98	C	1.617451	0.441213	1.103868
C99	C	1.056621	-0.115629	0.554053
C100	C	1.556621	0.384371	1.054053
H101	H	0.497378	-0.114583	-0.156565
H102	H	0.997378	0.385417	0.343435
Br103	Br	0.590559	-0.116196	-0.203415
Br104	Br	1.090559	0.383804	0.296585
Br105	Br	1.199993	0.018349	0.536225
Br106	Br	1.699993	0.518349	1.036225
H107	H	1.070692	0.314441	-0.157643
H108	H	1.570692	0.814441	0.342357
H109	H	0.785103	-0.119682	0.156598
H110	H	1.285103	0.380318	0.656598
Br111	Br	1.199965	0.018361	0.228867
Br112	Br	1.699965	0.518361	0.728867
H113	H	1.166990	-0.012508	0.744090
H114	H	1.666990	0.487492	1.244090
Br115	Br	0.913213	-0.249597	0.228908
Br116	Br	1.413213	0.250403	0.728908
Br117	Br	0.913244	-0.249612	0.536281
Br118	Br	1.413244	0.250388	1.036281
H119	H	0.918131	0.439376	-0.065206
H120	H	1.418131	0.939376	0.434794
H121	H	0.328119	-0.111590	-0.156559
H122	H	0.828119	0.388410	0.343441
H123	H	1.175735	0.470432	0.094565
H124	H	1.675735	0.970432	0.594565
Br125	Br	0.810467	-0.120118	-0.203418
Br126	Br	1.310467	0.379882	0.296582
Br127	Br	1.227842	0.317959	0.096005
Br128	Br	1.727842	0.817959	0.596005
Br129	Br	0.895798	0.276799	-0.108024
Br130	Br	1.395798	0.776799	0.391976
Br131	Br	0.913277	-0.249624	0.771181
Br132	Br	1.413277	0.250376	1.271181
Br133	Br	1.226504	0.315929	-0.099873
Br134	Br	1.726504	0.815929	0.400127
Br135	Br	0.892150	0.453935	0.106754
Br136	Br	1.392150	0.953935	0.606754
Br137	Br	0.913236	-0.249605	0.463808
Br138	Br	1.413236	0.250395	0.963808
Br139	Br	0.895344	0.277734	0.108192
Br140	Br	1.395344	0.777734	0.608192
H141	H	0.328094	-0.111582	0.156603
H142	H	0.828094	0.388418	0.656603
Br143	Br	0.522679	-0.115037	0.203452
Br144	Br	1.022679	0.384963	0.703452
Br145	Br	0.590524	-0.116237	0.203451
Br146	Br	1.090524	0.383763	0.703451
Br147	Br	1.045287	0.468827	0.203105
Br148	Br	1.545287	0.968827	0.703105
Br149	Br	1.199971	0.018361	0.463765
Br150	Br	1.699971	0.518361	0.963765
H151	H	1.072884	0.313273	0.157679
H152	H	1.572884	0.813273	0.657679
H153	H	1.178078	0.470292	-0.090186
H154	H	1.678078	0.970292	0.409814
Br155	Br	1.052678	0.472871	-0.203790
Br156	Br	1.552678	0.972871	0.296210
