data_functionalizedCrystal
_audit_creation_method	'MofGen! by Chris Wilmer'
_symmetry_space_group_name_H-M	'P1'
_symmetry_Int_Tables_number	1
_symmetry_cell_setting	triclinic
loop_
_symmetry_equiv_pos_as_xyz
  x,y,z
_cell_length_a	20.453700
_cell_length_b	27.923496
_cell_length_c	9.514088
_cell_angle_alpha	86.314436
_cell_angle_beta	61.156455
_cell_angle_gamma	98.963946
loop_
_atom_site_label
_atom_site_type_symbol
_atom_site_fract_x
_atom_site_fract_y
_atom_site_fract_z
V1	V	-1.398491	-0.067987	0.501771
O2	O	-1.400711	0.002382	0.491175
O3	O	-1.374778	-0.133956	0.499344
O4	O	-1.410155	-0.067330	0.720153
O5	O	-1.365089	-0.064706	0.268838
V6	V	-1.557081	-0.059524	0.473789
O7	O	-1.491247	-0.086551	0.563154
O8	O	-1.614391	-0.040960	0.412406
O9	O	-1.506392	0.006444	0.476215
O10	O	-1.593994	-0.129894	0.484385
O11	O	-1.629615	-0.062806	0.706722
O12	O	-1.471015	-0.060182	0.255407
V13	V	-1.065158	-0.067987	0.501771
O14	O	-1.067378	0.002382	0.491175
O15	O	-1.041445	-0.133956	0.499344
O16	O	-1.076822	-0.067330	0.720153
O17	O	-1.031756	-0.064706	0.268838
V18	V	-1.223748	-0.059524	0.473789
O19	O	-1.157914	-0.086551	0.563154
O20	O	-1.281058	-0.040960	0.412406
O21	O	-1.173058	0.006444	0.476215
O22	O	-1.260660	-0.129894	0.484385
O23	O	-1.296282	-0.062806	0.706722
O24	O	-1.137682	-0.060182	0.255407
V25	V	-0.731825	-0.067987	0.501771
O26	O	-0.734044	0.002382	0.491175
O27	O	-0.708112	-0.133956	0.499344
O28	O	-0.743488	-0.067330	0.720153
O29	O	-0.698423	-0.064706	0.268838
V30	V	-0.890414	-0.059524	0.473789
O31	O	-0.824581	-0.086551	0.563154
O32	O	-0.947724	-0.040960	0.412406
O33	O	-0.839725	0.006444	0.476215
O34	O	-0.927327	-0.129894	0.484385
O35	O	-0.962948	-0.062806	0.706722
O36	O	-0.804349	-0.060182	0.255407
C37	C	-1.320369	-0.150026	0.491688
C38	C	-1.328261	-0.203959	0.491159
C39	C	-1.438768	-0.540895	0.496107
C40	C	-1.468483	-0.743601	0.494196
O41	O	-1.524604	-0.771928	0.500866
N42	N	-1.410743	-0.766461	0.485898
C43	C	-1.345571	-0.738643	0.478089
O44	O	-1.297145	-0.762739	0.471005
C45	C	-1.315859	-0.535938	0.480012
C46	C	-1.373600	-0.513080	0.488294
C47	C	-1.496504	-0.518036	0.504390
C48	C	-1.489073	-0.467362	0.504859
C49	C	-1.423906	-0.439547	0.497045
C50	C	-1.366169	-0.462406	0.488762
C51	C	-1.250690	-0.508121	0.472215
C52	C	-1.243268	-0.457443	0.472700
C53	C	-1.301009	-0.434584	0.480982
C54	C	-1.293570	-0.383917	0.481418
N55	N	-1.351311	-0.361057	0.489715
C56	C	-1.416478	-0.388872	0.497529
C57	C	-1.361174	-0.845065	0.477077
C58	C	-1.368602	-0.895741	0.476593
C59	C	-1.491514	-0.900696	0.492703
C60	C	-1.484084	-0.850019	0.493175
C61	C	-1.418915	-0.822205	0.485374
C62	C	-1.400868	-0.282453	0.498511
C63	C	-1.393429	-0.231774	0.498973
C64	C	-1.270519	-0.226824	0.482872
C65	C	-1.277955	-0.277498	0.482402
C66	C	-1.343136	-0.305312	0.490228
O67	O	-1.237477	-0.355560	0.474770
O68	O	-1.464903	-0.364768	0.504648
C69	C	-1.446199	-0.591569	0.495638
C70	C	-1.388462	-0.614428	0.487356
C71	C	-1.323294	-0.586613	0.479542
C72	C	-1.395889	-0.665103	0.486872
C73	C	-1.461057	-0.692918	0.494686
C74	C	-1.518797	-0.670058	0.502983
C75	C	-1.511366	-0.619384	0.503452
C76	C	-1.265554	-0.609473	0.471245
C77	C	-1.272990	-0.660147	0.470775
C78	C	-1.338157	-0.687962	0.478588
C79	C	-1.365494	-0.065037	0.773349
C80	C	-1.402075	-0.064936	0.951883
C81	C	-1.448581	0.022512	0.483868
C82	C	-1.433769	0.076444	0.484407
C83	C	-1.403455	-0.062477	0.202203
C84	C	-1.359954	-0.062575	0.023666
C85	C	-0.987035	-0.150026	0.491688
C86	C	-0.994928	-0.203959	0.491159
C87	C	-1.032161	-0.065037	0.773349
C88	C	-1.068742	-0.064936	0.951883
C89	C	-1.115248	0.022512	0.483868
C90	C	-1.100436	0.076444	0.484407
C91	C	-1.070122	-0.062477	0.202203
C92	C	-1.026621	-0.062575	0.023666
C93	C	-0.653702	-0.150026	0.491688
C94	C	-0.661595	-0.203959	0.491159
C95	C	-0.698828	-0.065037	0.773349
C96	C	-0.735408	-0.064936	0.951883
C97	C	-0.781915	0.022512	0.483868
C98	C	-0.767103	0.076444	0.484407
C99	C	-0.736789	-0.062477	0.202203
C100	C	-0.693288	-0.062575	0.023666
C101	C	-1.060096	-0.231774	0.498973
C102	C	-1.067526	-0.282451	0.498501
C103	C	-1.009786	-0.305311	0.490204
C104	C	-0.944614	-0.277493	0.482394
C105	C	-0.937187	-0.226817	0.482878
C106	C	-1.150265	0.104259	0.476597
C107	C	-1.136350	0.154935	0.477077
C108	C	-1.072608	0.177796	0.485378
C109	C	-1.022775	0.149978	0.493183
C110	C	-1.036688	0.099302	0.492692
C111	C	-0.726762	-0.231774	0.498973
C112	C	-0.734193	-0.282451	0.498501
C113	C	-0.676453	-0.305311	0.490204
C114	C	-0.611281	-0.277493	0.482394
C115	C	-0.603853	-0.226817	0.482878
C116	C	-0.816931	0.104259	0.476597
C117	C	-0.803016	0.154935	0.477077
C118	C	-0.739275	0.177796	0.485378
C119	C	-0.689442	0.149978	0.493183
C120	C	-0.703354	0.099302	0.492692
H121	H	-1.440450	-0.213165	0.505711
N122	N	-0.866887	-0.196823	0.474424
H123	H	-0.839770	-0.170807	0.374168
H124	H	-0.882405	-0.180599	0.574425
H125	H	-0.799460	-0.066881	1.027020
N126	N	-1.219018	0.079608	0.467647
H127	H	-1.248464	0.104925	0.462767
H128	H	-1.201558	0.063575	0.366994
N129	N	-1.306314	-0.920389	0.467628
H130	H	-1.299450	-0.915365	0.564286
H131	H	-1.320942	-0.956703	0.468450
H132	H	-1.061289	0.219060	0.485776
H133	H	-0.629242	-0.060636	0.948541
H134	H	-0.550784	-0.204173	0.476507
H135	H	-0.662778	0.076658	0.499065
N136	N	-0.941782	-0.059999	0.924171
H137	H	-0.928683	-0.089158	0.965750
H138	H	-0.926854	-0.060423	0.806485
N139	N	-0.789053	-0.207129	0.507941
H140	H	-0.810004	-0.191097	0.608599
H141	H	-0.767381	-0.181355	0.408342
H142	H	-1.107116	-0.213167	0.505719
N143	N	-1.275116	-0.059999	0.924171
H144	H	-1.262016	-0.089158	0.965750
H145	H	-1.260188	-0.060423	0.806485
N146	N	-0.982941	0.069304	0.501121
H147	H	-0.940455	0.091479	0.506458
H148	H	-1.011945	0.043289	0.601368
H149	H	-0.897605	-0.296114	0.475639
H150	H	-1.466127	-0.066881	1.027020
H151	H	-0.970876	0.168599	0.499940
H152	H	-1.132793	-0.066881	1.027020
H153	H	-1.308104	-0.822423	0.470721
N154	N	-1.137819	-0.312449	0.506921
H155	H	-1.173262	-0.290273	0.512232
H156	H	-1.122282	-0.328702	0.406975
N157	N	-0.804486	-0.312449	0.506921
H158	H	-0.839929	-0.290273	0.512232
H159	H	-0.788949	-0.328702	0.406975
H160	H	-0.868837	0.085653	0.469840
H161	H	-1.453943	-0.305093	0.504886
H162	H	-0.727955	0.219060	0.485776
N163	N	-1.551363	-0.442714	0.513842
H164	H	-1.593773	-0.468031	0.518739
H165	H	-1.572247	-0.426683	0.614504
H166	H	-0.682510	-0.346575	0.489811
N167	N	-1.017802	-0.359969	0.489681
H168	H	-1.067849	-0.374117	0.495886
H169	H	-0.974133	-0.366281	0.386298
N170	N	-1.190109	0.184932	0.468685
H171	H	-1.232604	0.162756	0.463378
H172	H	-1.212510	0.201180	0.568643
H173	H	-0.564272	-0.296114	0.475639
H174	H	-1.212487	-0.586831	0.464884
N175	N	-0.856776	0.184932	0.468685
H176	H	-0.899270	0.162756	0.463378
H177	H	-0.879177	0.201180	0.568643
N178	N	-0.620696	0.174637	0.502144
H179	H	-0.619454	0.210959	0.501280
H180	H	-0.624042	0.159814	0.605678
H181	H	-1.549574	-0.540679	0.510759
H182	H	-1.531102	-0.831410	0.499915
H183	H	-1.203667	-0.526723	0.465459
N184	N	-1.561788	-0.930697	0.501055
H185	H	-1.557721	-0.966266	0.499467
H186	H	-1.608637	-0.927814	0.604738
H187	H	-1.230939	-0.296111	0.475669
N188	N	-1.172976	-0.427447	0.464293
H189	H	-1.126107	-0.430305	0.360600
H190	H	-1.177094	-0.391889	0.465920
N191	N	-1.200233	-0.196821	0.474452
H192	H	-1.173116	-0.170803	0.374202
H193	H	-1.215774	-0.180600	0.574462
N194	N	-1.573650	-0.594734	0.512408
H195	H	-1.616059	-0.620051	0.517296
H196	H	-1.594540	-0.578700	0.613061
H197	H	-1.225962	-0.678753	0.464020
N198	N	-1.589044	-0.700053	0.511207
H199	H	-1.584968	-0.735621	0.509586
H200	H	-1.635924	-0.697183	0.614847
