data_functionalizedCrystal
_audit_creation_method	'MofGen! by Chris Wilmer'
_symmetry_space_group_name_H-M	'P1'
_symmetry_Int_Tables_number	1
_symmetry_cell_setting	triclinic
loop_
_symmetry_equiv_pos_as_xyz
  x,y,z
_cell_length_a	8.559649
_cell_length_b	23.532353
_cell_length_c	22.010155
_cell_angle_alpha	90.010380
_cell_angle_beta	89.984788
_cell_angle_gamma	103.697409
loop_
_atom_site_label
_atom_site_type_symbol
_atom_site_fract_x
_atom_site_fract_y
_atom_site_fract_z
O1	O	2.120472	0.019337	-0.050513
O2	O	1.654785	-0.010096	-0.050519
O3	O	1.901716	0.088142	-0.050503
O4	O	1.873540	-0.078901	-0.050529
O5	O	1.901642	0.088139	0.050547
O6	O	1.654711	-0.010100	0.050531
O7	O	2.120398	0.019334	0.050538
Cu8	Cu	1.887548	0.004617	0.059761
Cu9	Cu	1.887635	0.004621	-0.059743
O10	O	1.873466	-0.078905	0.050521
C11	C	1.595181	-0.012329	0.000005
C12	C	1.417692	-0.018968	0.000003
C13	C	1.900976	0.109328	0.000024
C14	C	1.898860	0.172458	0.000030
C15	C	2.180001	0.021566	0.000012
C16	C	2.357490	0.028205	0.000010
N17	N	1.887698	0.004627	-0.143795
C18	C	1.885619	0.563918	-0.055083
C19	C	1.883607	0.623233	-0.055086
O20	O	1.882547	0.653906	-0.101932
N21	N	1.882570	0.652901	-0.000004
C22	C	1.883527	0.623249	0.055084
O23	O	1.882458	0.653930	0.101936
C24	C	1.885527	0.563933	0.055087
C25	C	1.886581	0.534270	0.000001
C26	C	1.886671	0.534254	-0.110164
C27	C	1.888685	0.474943	-0.110161
C28	C	1.889647	0.445295	-0.055076
C29	C	1.888595	0.474959	0.000005
C30	C	1.886473	0.534281	0.110175
C31	C	1.888471	0.474962	0.110173
C32	C	1.889525	0.445298	0.055087
C33	C	1.891571	0.386000	0.055093
N34	N	1.892608	0.356332	0.000011
C35	C	1.891646	0.385980	-0.055074
C36	C	1.879325	0.747816	0.055075
C37	C	1.877337	0.807131	0.055073
C38	C	1.877414	0.807111	-0.055098
C39	C	1.879414	0.747795	-0.055095
C40	C	1.880363	0.718148	-0.000007
C41	C	1.895877	0.261422	-0.055063
C42	C	1.897898	0.202106	-0.055054
C43	C	1.897812	0.202130	0.055116
C44	C	1.895800	0.261442	0.055108
C45	C	1.894827	0.291086	0.000014
O46	O	1.892625	0.355289	0.101914
O47	O	1.892694	0.355289	-0.101917
C48	C	1.874218	0.899911	-0.000006
C49	C	1.876366	0.836783	-0.000012
N50	N	1.887498	0.004615	0.143813
C51	C	1.984045	-0.025718	0.563589
C52	C	1.984064	-0.025716	0.627196
O53	O	2.066095	-0.051505	0.660084
N54	N	1.887666	0.004628	0.659021
C55	C	1.791255	0.034978	0.627234
O56	O	1.709264	0.060789	0.660144
C57	C	1.791246	0.034978	0.563628
C58	C	1.887638	0.004627	0.531806
C59	C	2.080431	-0.056067	0.531767
C60	C	2.080410	-0.056070	0.468164
C61	C	1.984002	-0.025724	0.436382
C62	C	1.887617	0.004624	0.468203
C63	C	1.694845	0.065331	0.531842
C64	C	1.694845	0.065329	0.468231
C65	C	1.791237	0.034978	0.436410
C66	C	1.791188	0.034966	0.372818
N67	N	1.887586	0.004622	0.340994
C68	C	1.983993	-0.025723	0.372776
C69	C	1.791284	0.034974	0.760812
C70	C	1.791283	0.034970	0.824417
C71	C	1.984095	-0.025723	0.824375
C72	C	1.984086	-0.025722	0.760768
C73	C	1.887682	0.004630	0.728987
C74	C	1.983940	-0.025728	0.239204
C75	C	1.983905	-0.025730	0.175596
C76	C	1.791100	0.034965	0.175643
C77	C	1.791128	0.034965	0.239247
C78	C	1.887561	0.004617	0.271026
O79	O	1.709204	0.060744	0.339890
O80	O	2.065987	-0.051524	0.339858
H81	H	1.898760	0.177957	-0.099913
H82	H	1.333440	-0.064438	-0.000007
H83	H	1.441734	0.073672	0.000014
H84	H	1.895077	0.285550	-0.099926
H85	H	1.889537	0.450796	-0.155017
H86	H	1.876503	0.831280	0.099929
H87	H	1.885881	0.558386	-0.155023
H88	H	1.889220	0.450823	0.155033
H89	H	1.898603	0.177981	0.099965
H90	H	2.062398	-0.050449	0.149690
C91	C	1.880398	0.715209	0.115677
C92	C	1.741233	0.710833	0.161122
C93	C	1.742305	0.678230	0.221724
C94	C	1.882543	0.650002	0.236881
C95	C	2.021719	0.654377	0.191435
C96	C	2.020646	0.686980	0.130833
H97	H	1.637412	0.731730	0.149903
H98	H	1.639278	0.674992	0.255366
H99	H	1.883337	0.625868	0.281742
H100	H	2.125540	0.633480	0.202654
H101	H	2.123674	0.690218	0.097191
H102	H	1.880270	0.723647	-0.099951
H103	H	1.876626	0.831261	-0.099951
C104	C	1.894599	0.294081	0.115695
C105	C	1.755933	0.273376	0.161118
C106	C	1.754688	0.306012	0.221703
C107	C	1.892109	0.359352	0.236866
C108	C	2.030785	0.380059	0.191442
C109	C	2.032030	0.347424	0.130857
H110	H	1.654196	0.233888	0.149895
H111	H	1.652029	0.290682	0.255329
H112	H	1.891187	0.383510	0.281714
H113	H	2.132522	0.419548	0.202665
H114	H	2.134688	0.362754	0.097231
C115	C	2.090003	-0.059114	0.274156
C116	C	2.273711	-0.042730	0.265381
C117	C	2.379762	-0.076120	0.300333
C118	C	2.302105	-0.125893	0.344060
C119	C	2.118386	-0.142279	0.352837
C120	C	2.012335	-0.108890	0.317885
H121	H	2.331207	-0.005883	0.233010
H122	H	2.515763	-0.063989	0.293835
H123	H	2.380610	-0.150610	0.369934
H124	H	2.060891	-0.179126	0.385208
H125	H	1.876335	-0.121020	0.324383
C126	C	2.186488	-0.089453	0.566718
C127	C	2.370196	-0.073067	0.557942
C128	C	2.476251	-0.106460	0.592886
C129	C	2.398599	-0.156239	0.636607
C130	C	2.214881	-0.172627	0.645386
C131	C	2.108826	-0.139234	0.610442
H132	H	2.427688	-0.036215	0.525575
H133	H	2.612252	-0.094327	0.586387
H134	H	2.477108	-0.180958	0.662475
H135	H	2.157390	-0.209479	0.677753
H136	H	1.972826	-0.151367	0.616941
C137	C	2.090173	-0.059093	0.859343
C138	C	2.090195	-0.059082	0.929308
C139	C	2.196272	-0.092448	0.964277
C140	C	2.302327	-0.125826	0.929283
C141	C	2.302308	-0.125839	0.859314
C142	C	2.196231	-0.092473	0.824344
H143	H	2.011684	-0.034372	0.955216
H144	H	2.196286	-0.092438	1.016073
H145	H	2.380851	-0.150526	0.955170
H146	H	2.380820	-0.150548	0.833405
H147	H	2.196218	-0.092482	0.772549
C148	C	1.685236	0.068352	0.859416
C149	C	1.579195	0.101729	0.824448
C150	C	1.473153	0.135115	0.859444
C151	C	1.473151	0.135123	0.929409
C152	C	1.579196	0.101745	0.964381
C153	C	1.685239	0.068359	0.929385
H154	H	1.579193	0.101723	0.772652
H155	H	1.394651	0.159824	0.833555
H156	H	1.394652	0.159838	0.955315
H157	H	1.579198	0.101750	1.016176
H158	H	1.763740	0.043650	0.955274
H159	H	1.885617	0.558423	0.155032
C160	C	1.685209	0.068355	0.725856
C161	C	1.709846	0.134815	0.734619
C162	C	1.603773	0.168196	0.699667
C163	C	1.473062	0.135116	0.655952
C164	C	1.448418	0.068652	0.647187
C165	C	1.554492	0.035271	0.682139
H166	H	1.806612	0.159306	0.766981
H167	H	1.622017	0.217397	0.706156
H168	H	1.394540	0.159827	0.630079
H169	H	1.351653	0.044161	0.614825
H170	H	1.536248	-0.013930	0.675650
C171	C	1.588793	0.098716	0.433273
C172	C	1.613455	0.165178	0.442030
C173	C	1.507402	0.198562	0.407073
C174	C	1.376687	0.165485	0.363358
C175	C	1.352020	0.099019	0.354598
C176	C	1.458073	0.065635	0.389556
H177	H	1.710223	0.189667	0.474393
H178	H	1.525663	0.247765	0.413558
H179	H	1.298180	0.190198	0.337480
H180	H	1.255252	0.074530	0.322236
H181	H	1.439811	0.016432	0.383071
C182	C	1.685063	0.068345	0.140674
C183	C	1.762752	0.118113	0.096945
C184	C	1.656725	0.151498	0.061973
C185	C	1.473011	0.135115	0.070730
C186	C	1.395312	0.085345	0.114460
C187	C	1.501339	0.051960	0.149432
H188	H	1.898757	0.130242	0.090461
H189	H	1.714244	0.188341	0.029600
H190	H	1.394524	0.159829	0.044841
H191	H	1.259307	0.073216	0.120944
H192	H	1.443820	0.015117	0.181805
H193	H	2.158909	-0.080782	0.442261
H194	H	2.062576	-0.050437	0.734864
H195	H	1.616354	0.090047	0.557740
H196	H	1.712618	0.059671	0.265157
