data_functionalizedCrystal
_audit_creation_method	'MofGen! by Chris Wilmer'
_symmetry_space_group_name_H-M	'P1'
_symmetry_Int_Tables_number	1
_symmetry_cell_setting	triclinic
loop_
_symmetry_equiv_pos_as_xyz
  x,y,z
_cell_length_a	10.489711
_cell_length_b	10.489741
_cell_length_c	12.376457
_cell_angle_alpha	101.393369
_cell_angle_beta	78.590085
_cell_angle_gamma	84.533091
loop_
_atom_site_label
_atom_site_type_symbol
_atom_site_fract_x
_atom_site_fract_y
_atom_site_fract_z
O1	O	1.718325	0.155549	-0.094046
O2	O	1.347123	0.172483	-0.094039
O3	O	1.541169	-0.021581	-0.094036
O4	O	1.524279	0.349613	-0.094049
O5	O	1.492674	0.026869	0.093975
O6	O	1.298628	0.220933	0.093972
O7	O	1.669830	0.203999	0.093965
Zn8	Zn	1.476530	0.220158	0.123820
Zn9	Zn	1.540423	0.156324	-0.123893
O10	O	1.475784	0.398063	0.093962
C11	C	1.275343	0.195437	-0.000033
C12	C	1.133711	0.191636	-0.000030
C13	C	0.951329	0.308336	-0.000047
C14	C	1.067384	0.226154	-0.092743
C15	C	1.019545	0.273890	0.092622
C16	C	0.997454	0.102589	-0.092826
C17	C	0.949584	0.150364	0.092622
C18	C	1.065618	0.068086	-0.000096
C19	C	1.515646	-0.044888	-0.000031
C20	C	1.511829	-0.186517	-0.000033
C21	C	1.388364	-0.254646	-0.000039
C22	C	1.422778	-0.322887	0.092659
C23	C	1.470619	-0.370629	-0.092705
C24	C	1.546274	-0.252873	0.092742
C25	C	1.594120	-0.300627	-0.092706
C26	C	1.628618	-0.368835	0.000015
C27	C	1.741611	0.181044	-0.000044
C28	C	1.883245	0.184843	-0.000054
C29	C	1.501308	0.421369	-0.000045
C30	C	1.505127	0.562997	-0.000051
N31	N	1.432933	0.263723	0.292877
N32	N	1.584030	0.112749	-0.292951
C33	C	1.685231	0.011597	0.647866
C34	C	1.715737	-0.018894	0.529527
C35	C	1.645039	0.051757	0.470359
C36	C	1.543829	0.152905	0.529542
C37	C	1.513327	0.183406	0.647892
C38	C	1.473134	0.223566	0.470385
C39	C	1.371924	0.324715	0.529568
C40	C	1.341427	0.355210	0.647907
C41	C	1.412125	0.284559	0.707075
C42	C	1.503636	0.193065	0.352034
C43	C	1.331732	0.364875	0.352060
C44	C	1.301226	0.395366	0.470399
H45	H	1.115086	-0.033520	-0.000140
H46	H	1.438579	-0.421784	-0.171082
H47	H	0.901663	0.409813	-0.000143
H48	H	1.259026	0.437580	0.696094
C49	C	0.880350	0.107123	0.198504
N50	N	0.828193	0.074567	0.278264
H51	H	1.030287	0.346358	0.170990
H52	H	0.986883	0.030168	-0.171285
C53	C	1.136574	0.269470	-0.198609
N54	N	1.188687	0.302106	-0.278341
C55	C	1.253955	0.442595	0.286980
N56	N	1.195380	0.501129	0.237954
C57	C	1.251196	-0.187510	0.000091
N58	N	1.147883	-0.136938	0.000196
H59	H	1.798142	-0.101247	0.481345
H60	H	1.578233	-0.201829	0.171199
C61	C	1.691946	-0.285974	-0.198589
N62	N	1.765621	-0.274937	-0.278349
C63	C	1.614957	0.081798	0.286947
N64	N	1.698807	-0.002018	0.237924
C65	C	1.762990	-0.066105	0.712959
N66	N	1.821562	-0.124636	0.761988
C67	C	1.324894	-0.337498	0.198533
N68	N	1.251160	-0.348501	0.278273
H69	H	1.730209	-0.418257	0.000065
C70	C	1.189894	0.506625	0.535516
N71	N	1.106038	0.590424	0.584562
H72	H	1.669881	0.026926	0.374002
C73	C	1.378548	0.318069	0.837257
N74	N	1.353251	0.343298	0.935311
