data_functionalizedCrystal
_audit_creation_method	'MofGen! by Chris Wilmer'
_symmetry_space_group_name_H-M	'P1'
_symmetry_Int_Tables_number	1
_symmetry_cell_setting	triclinic
loop_
_symmetry_equiv_pos_as_xyz
  x,y,z
_cell_length_a	13.635800
_cell_length_b	19.453067
_cell_length_c	19.263440
_cell_angle_alpha	97.031542
_cell_angle_beta	81.429371
_cell_angle_gamma	78.291536
loop_
_atom_site_label
_atom_site_type_symbol
_atom_site_fract_x
_atom_site_fract_y
_atom_site_fract_z
V1	V	1.981670	-0.097910	-0.219325
O2	O	1.980579	0.003956	-0.214816
O3	O	1.953270	-0.193418	-0.218145
O4	O	1.945635	-0.096733	-0.314833
O5	O	1.988267	-0.093399	-0.117459
V6	V	2.225561	-0.085687	-0.207102
O7	O	2.107626	-0.124722	-0.246137
O8	O	2.324703	-0.058874	-0.180290
O9	O	2.142358	0.009822	-0.208281
O10	O	2.285351	-0.187553	-0.211610
O11	O	2.277663	-0.090197	-0.308968
O12	O	2.149993	-0.086864	-0.111593
V13	V	2.481670	-0.097910	-0.219325
O14	O	2.480579	0.003956	-0.214816
O15	O	2.453270	-0.193418	-0.218145
O16	O	2.445635	-0.096733	-0.314833
O17	O	2.488267	-0.093399	-0.117459
V18	V	2.725561	-0.085687	-0.207102
O19	O	2.607626	-0.124722	-0.246137
O20	O	2.824703	-0.058874	-0.180290
O21	O	2.642358	0.009822	-0.208281
O22	O	2.785351	-0.187553	-0.211610
O23	O	2.777663	-0.090197	-0.308968
O24	O	2.649993	-0.086864	-0.111593
C25	C	1.875132	-0.216691	-0.214768
C26	C	1.892476	-0.294773	-0.214441
C27	C	2.005587	-0.841949	-0.147825
C28	C	1.989281	-0.768582	-0.148125
C29	C	1.991851	-0.742098	-0.212594
C30	C	2.010703	-0.788988	-0.276766
C31	C	2.026998	-0.862353	-0.276463
N32	N	2.030800	-0.636810	-0.263555
N33	N	2.015322	-0.567115	-0.263838
C34	C	1.942755	-0.521053	-0.213511
N35	N	1.886261	-0.547318	-0.162878
N36	N	1.901745	-0.617018	-0.162593
C37	C	1.974183	-0.662547	-0.212930
C38	C	1.906218	-0.394620	-0.149668
C39	C	1.889907	-0.321251	-0.149971
C40	C	1.911339	-0.341659	-0.278614
C41	C	1.927640	-0.415026	-0.278309
C42	C	1.925083	-0.441501	-0.213834
C43	C	1.865392	-0.093358	-0.338102
C44	C	1.876544	-0.093027	-0.416183
C45	C	2.052167	0.033091	-0.211656
C46	C	2.024441	0.111171	-0.211988
C47	C	2.061907	-0.090241	-0.088320
C48	C	2.040375	-0.090568	-0.010239
C49	C	2.375132	-0.216691	-0.214768
C50	C	2.392476	-0.294773	-0.214441
C51	C	2.365392	-0.093358	-0.338102
C52	C	2.376544	-0.093027	-0.416183
C53	C	1.912295	-0.157231	0.536898
C54	C	1.932536	-0.156929	0.463531
C55	C	1.917005	-0.092420	0.437086
C56	C	1.881253	-0.028207	0.484015
C57	C	1.861022	-0.028511	0.557381
N58	N	1.875412	-0.046233	0.327280
N59	N	1.894630	-0.045949	0.257585
C60	C	1.977958	-0.091502	0.216041
N61	N	2.041335	-0.137360	0.246822
N62	N	2.022112	-0.137646	0.316522
C63	C	1.938939	-0.092084	0.357535
C64	C	2.035660	-0.155383	0.089569
C65	C	2.055907	-0.155078	0.016201
C66	C	2.004612	-0.026355	0.036687
C67	C	1.984377	-0.026661	0.110053
C68	C	1.999898	-0.091177	0.136489
C69	C	2.552167	0.033091	-0.211656
C70	C	2.524441	0.111171	-0.211988
C71	C	2.561907	-0.090241	-0.088320
C72	C	2.540375	-0.090568	-0.010239
C73	C	2.491087	-0.335034	-0.217808
C74	C	2.507400	-0.408402	-0.217511
C75	C	2.425100	-0.441507	-0.213842
C76	C	2.326481	-0.401241	-0.210476
C77	C	2.310170	-0.327875	-0.210778
C78	C	2.472239	-0.096386	-0.456443
C79	C	2.482729	-0.096066	-0.529807
C80	C	2.397524	-0.092393	-0.562912
C81	C	2.301820	-0.089031	-0.522646
C82	C	2.291330	-0.089346	-0.449283
C83	C	2.598323	0.151432	-0.208623
C84	C	2.572282	0.224800	-0.208923
C85	C	2.472359	0.257904	-0.212594
C86	C	2.398471	0.217639	-0.215958
C87	C	2.424512	0.144273	-0.215652
C88	C	2.443348	-0.094234	0.022848
C89	C	2.423099	-0.094533	0.096214
C90	C	2.499880	-0.091171	0.136493
C91	C	2.596914	-0.087503	0.103402
C92	C	2.617160	-0.087199	0.030038
H93	H	2.003501	-0.863500	-0.095324
N94	N	2.479209	-0.091479	0.211434
N95	N	2.489136	-0.040282	0.253710
H96	H	2.474533	-0.040500	0.306638
H97	H	2.659423	-0.084764	0.136209
N98	N	2.716281	-0.083456	-0.003744
N99	N	2.784819	-0.080457	0.032234
H100	H	2.854828	-0.077812	0.008380
N101	N	1.903574	-0.421665	-0.083809
N102	N	1.840236	-0.457469	-0.066055
H103	H	1.838366	-0.476568	-0.019541
N104	N	1.970014	-0.720694	-0.082574
N105	N	1.967728	-0.744342	-0.025014
H106	H	1.954120	-0.710524	0.021282
H107	H	2.012793	-0.767420	-0.329257
H108	H	1.868610	0.024316	0.462479
N109	N	2.046252	-0.910233	-0.342014
N110	N	2.048536	-0.886583	-0.399573
H111	H	2.062135	-0.920399	-0.445870
N112	N	1.870649	-0.273352	-0.084432
N113	N	1.856094	-0.207849	-0.084710
H114	H	1.842492	-0.174018	-0.038422
N115	N	1.913946	-0.314604	-0.344462
N116	N	1.899386	-0.249098	-0.344725
H117	H	1.901220	-0.229986	-0.391231
N118	N	2.214676	-0.085131	-0.556359
N119	N	2.165060	-0.132468	-0.553676
H120	H	2.103470	-0.129654	-0.577446
H121	H	2.085026	-0.207363	-0.022000
H122	H	2.632458	0.257574	-0.206185
N123	N	1.988759	0.039535	0.009672
N124	N	2.006830	0.039799	-0.055833
H125	H	1.995638	0.086335	-0.074916
N126	N	1.947834	0.038929	0.157971
N127	N	1.865718	0.079339	0.153859
H128	H	1.839910	0.125666	0.187701
N129	N	1.946903	-0.462907	-0.343858
N130	N	1.949191	-0.439255	-0.401416
H131	H	1.962793	-0.473070	-0.447714
N132	N	2.445757	0.332849	-0.212887
N133	N	2.378813	0.371915	-0.164819
H134	H	2.360032	0.424846	-0.165020
N135	N	1.969062	-0.222521	0.415603
N136	N	1.982919	-0.280118	0.439217
H137	H	2.008714	-0.326443	0.405370
H138	H	2.344084	-0.097519	0.123146
H139	H	1.924941	-0.209765	0.558417
N140	N	2.441788	-0.516450	-0.213537
N141	N	2.529845	-0.552383	-0.216544
H142	H	2.541638	-0.605313	-0.216328
N143	N	2.559270	-0.100126	-0.422625
N144	N	2.549908	-0.100402	-0.357121
H145	H	2.611376	-0.103039	-0.333239
H146	H	2.317112	0.244604	-0.218946
H147	H	1.831910	0.023774	0.595583
N148	N	2.193567	-0.085916	-0.408173
N149	N	2.117507	-0.082638	-0.437747
H150	H	2.048456	-0.080215	-0.408717
N151	N	2.051413	-0.221291	0.116562
N152	N	2.083274	-0.278617	0.074655
H153	H	2.094360	-0.325168	0.093715
N154	N	2.575175	-0.301239	-0.221554
N155	N	2.663212	-0.337207	-0.224564
H156	H	2.722607	-0.313345	-0.227212
H157	H	2.587707	-0.441176	-0.220250
N158	N	2.349034	0.103153	-0.219085
N159	N	2.271402	0.116872	-0.171709
H160	H	2.218089	0.087834	-0.174132
H161	H	2.259477	-0.428206	-0.207488
H162	H	2.229869	-0.295099	-0.208032
N163	N	2.580498	-0.099499	-0.570917
N164	N	2.656563	-0.102787	-0.541347
H165	H	2.725613	-0.105211	-0.570378
H166	H	2.406080	-0.092137	-0.622650
H167	H	2.679691	0.124488	-0.205634
N168	N	2.364891	-0.097652	-0.018274
N169	N	2.278261	-0.100908	0.011292
H170	H	2.222839	-0.103312	-0.017744
