data_functionalizedCrystal
_audit_creation_method	'MofGen! by Chris Wilmer'
_symmetry_space_group_name_H-M	'P1'
_symmetry_Int_Tables_number	1
_symmetry_cell_setting	triclinic
loop_
_symmetry_equiv_pos_as_xyz
  x,y,z
_cell_length_a	6.817900
_cell_length_b	9.109307
_cell_length_c	16.255661
_cell_angle_alpha	99.830078
_cell_angle_beta	103.488922
_cell_angle_gamma	111.764999
loop_
_atom_site_label
_atom_site_type_symbol
_atom_site_fract_x
_atom_site_fract_y
_atom_site_fract_z
V1	V	-4.082548	-0.226755	-0.280342
O2	O	-4.011841	0.009542	-0.258155
O3	O	-4.088657	-0.448315	-0.294631
O4	O	-4.033398	-0.223862	-0.395215
O5	O	-4.067483	-0.216465	-0.156874
V6	V	-4.559211	-0.198421	-0.263606
O7	O	-4.358857	-0.288909	-0.317055
O8	O	-4.733099	-0.136268	-0.226893
O9	O	-4.329895	0.023139	-0.249317
O10	O	-4.747315	-0.434719	-0.285793
O11	O	-4.691673	-0.208711	-0.387073
O12	O	-4.385155	-0.201315	-0.148732
C13	C	-3.946943	-0.502308	-0.294390
C14	C	-4.033219	-0.683440	-0.306839
C15	C	-3.876452	-0.215993	-0.422694
C16	C	-3.917911	-0.215093	-0.516710
C17	C	-3.825820	-0.204344	-0.738748
C18	C	-4.016398	-0.343078	-0.818301
C19	C	-3.993880	-0.213406	-0.688836
C20	C	-3.877201	-0.073085	-0.776805
C21	C	-4.067244	-0.211769	-0.855101
C22	C	-4.183970	-0.352263	-0.767168
C23	C	-4.044681	-0.082148	-0.725647
C24	C	-4.235405	-0.220921	-0.805184
C25	C	-3.951611	-0.214351	-0.593055
C26	C	-4.109533	-0.210837	-0.950881
C27	C	-4.134954	0.077123	-0.249556
C28	C	-4.027916	0.258253	-0.237113
C29	C	-4.205443	-0.209189	-0.121249
C30	C	-4.143222	-0.210080	-0.027232
H31	H	-4.103744	-0.772105	-0.376080
N32	N	-4.453198	-0.229766	-0.841380
N33	N	-4.621761	-0.351149	-0.844108
H34	H	-4.775582	-0.357404	-0.869673
N35	N	-3.608254	-0.195789	-0.702403
N36	N	-3.559343	-0.306562	-0.735199
H37	H	-3.405693	-0.300528	-0.709532
H38	H	-3.957414	-0.653092	-0.167876
N39	N	-4.059058	0.056225	-0.675309
N40	N	-4.235885	0.073781	-0.695244
H41	H	-4.246021	0.171519	-0.659689
N42	N	-4.001945	-0.481467	-0.868597
N43	N	-3.823998	-0.497629	-0.849437
H44	H	-3.813775	-0.595364	-0.884952
N45	N	-3.715068	0.074900	-0.783138
N46	N	-3.590374	0.067071	-0.827539
H47	H	-3.475872	0.171571	-0.832025
N48	N	-4.346178	-0.500425	-0.761030
N49	N	-4.340237	-0.525076	-0.687352
H50	H	-4.454791	-0.629714	-0.683014
