data_functionalizedCrystal
_audit_creation_method	'MofGen! by Chris Wilmer'
_symmetry_space_group_name_H-M	'P1'
_symmetry_Int_Tables_number	1
_symmetry_cell_setting	triclinic
loop_
_symmetry_equiv_pos_as_xyz
  x,y,z
_cell_length_a	17.038275
_cell_length_b	18.266242
_cell_length_c	17.038272
_cell_angle_alpha	90.006273
_cell_angle_beta	88.888330
_cell_angle_gamma	89.997581
loop_
_atom_site_label
_atom_site_type_symbol
_atom_site_fract_x
_atom_site_fract_y
_atom_site_fract_z
O1	O	-1.048760	0.060776	0.170540
O2	O	-0.820948	0.060800	0.167832
O3	O	-0.933500	0.060782	0.055280
O4	O	-0.936208	0.060794	0.283092
O5	O	-0.933479	-0.060980	0.055273
O6	O	-0.820927	-0.060962	0.167825
O7	O	-1.048739	-0.060986	0.170533
Zn8	Zn	-0.934830	-0.080306	0.169177
Zn9	Zn	-0.934857	0.080120	0.169187
O10	O	-0.936187	-0.060968	0.283084
C11	C	-0.791645	-0.000078	0.165365
C12	C	-0.704361	-0.000068	0.158017
N13	N	-0.934817	-0.189793	0.169171
C14	C	-0.658752	-0.000065	0.225481
C15	C	-0.576740	-0.000074	0.218572
C16	C	-0.540339	-0.000082	0.144198
C17	C	-0.585954	-0.000087	0.076730
C18	C	-0.667965	-0.000083	0.083639
C19	C	-0.292951	-0.000099	0.119787
C20	C	-0.210935	-0.000101	0.112882
C21	C	-0.201726	-0.000089	0.254725
C22	C	-0.283739	-0.000081	0.261628
C23	C	-0.329347	-0.000090	0.194160
C24	C	-0.456510	-0.000089	0.137134
C25	C	-0.413174	-0.000088	0.201224
C26	C	-0.984674	-0.228110	0.119360
C27	C	-0.984679	-0.304755	0.119357
C28	C	-0.934834	-0.343080	0.169178
C29	C	-0.884967	-0.304754	0.218992
C30	C	-0.884958	-0.228111	0.218988
N31	N	-0.929461	-0.463408	0.238003
N32	N	-0.929474	-0.536217	0.238004
C33	C	-0.934857	-0.574003	0.169191
N34	N	-0.940243	-0.536230	0.100375
N35	N	-0.940234	-0.463415	0.100375
C36	C	-0.934838	-0.426187	0.169187
C37	C	-0.984722	-0.695427	0.119373
C38	C	-0.984721	-0.772073	0.119368
C39	C	-0.885015	-0.772070	0.219010
C40	C	-0.885011	-0.695426	0.219008
C41	C	-0.934869	-0.657108	0.169190
C42	C	-0.078042	-0.000103	0.172999
C43	C	-0.165325	-0.000098	0.180346
C44	C	-0.931026	-0.000098	0.025984
C45	C	-0.923678	-0.000097	-0.061300
N46	N	-0.934876	0.189607	0.169189
C47	C	-0.991142	-0.000105	-0.106909
C48	C	-0.984233	-0.000098	-0.188921
C49	C	-0.909860	-0.000087	-0.225322
C50	C	-0.842391	-0.000077	-0.179707
C51	C	-0.849301	-0.000079	-0.097696
C52	C	-0.885449	-0.000074	-0.472710
C53	C	-0.878545	-0.000074	-0.554726
C54	C	-1.020387	-0.000094	-0.563935
C55	C	-1.027290	-0.000100	-0.481922
C56	C	-0.959822	-0.000086	-0.436314
C57	C	-0.902796	-0.000082	-0.309151
C58	C	-0.966886	-0.000087	-0.352487
C59	C	-0.938660	-0.000086	0.312381
C60	C	-0.946008	-0.000082	0.399665
H61	H	-0.688383	-0.000058	0.286043
H62	H	-0.539608	-0.000071	0.273508
O63	O	-1.033155	-0.342064	0.071079
C64	C	-1.139341	-0.428546	0.061576
C65	C	-1.084479	-0.386358	0.116339
H66	H	-1.180862	-0.464356	0.098147
H67	H	-1.102881	-0.464490	0.020080
H68	H	-1.174933	-0.387976	0.025953
H69	H	-1.048876	-0.426875	0.152012
H70	H	-1.120984	-0.350403	0.157783
O71	O	-1.063406	0.000016	-0.071588
C72	C	-1.186777	0.063066	-0.054400
C73	C	-1.104955	0.063025	-0.094434
H74	H	-1.220399	0.113996	-0.072869
H75	H	-1.180176	0.063112	0.012057
H76	H	-1.220353	0.012084	-0.072792
H77	H	-1.071334	0.113998	-0.076105
H78	H	-1.111612	0.062940	-0.160883
O79	O	-1.099497	-0.000008	-0.446479
C80	C	-1.189650	0.063085	-0.359268
C81	C	-1.107845	0.063066	-0.399340
H82	H	-1.196432	0.114082	-0.321160
H83	H	-1.196441	0.012161	-0.321058
H84	H	-1.236664	0.063046	-0.405972
H85	H	-1.060781	0.063130	-0.352689
H86	H	-1.101121	0.113985	-0.437565
H87	H	-0.844358	-0.196912	0.259550
H88	H	-1.039169	-0.000106	-0.226052
O89	O	-1.085979	-0.000002	-0.608156
C90	C	-1.205081	0.063095	-0.641144
C91	C	-1.130837	0.063070	-0.591004
H92	H	-1.241361	0.114091	-0.627307
H93	H	-1.241461	0.012170	-0.627287
H94	H	-1.187351	0.063065	-0.706006
H95	H	-1.148496	0.063127	-0.526127
H96	H	-1.094475	0.113991	-0.604928
H97	H	-0.817978	-0.000078	-0.584361
H98	H	-1.025317	-0.664227	0.078805
H99	H	-0.830511	-0.000063	-0.435585
O100	O	-0.319120	0.000073	0.333864
C101	C	-0.406367	0.063191	0.423962
C102	C	-0.366342	0.063099	0.342135
H103	H	-0.444568	0.114134	0.430670
H104	H	-0.359701	0.063247	0.471016
H105	H	-0.444507	0.012222	0.430758
H106	H	-0.328205	0.114059	0.335263
H107	H	-0.413048	0.063004	0.295122
H108	H	-1.025319	-0.803271	0.078802
H109	H	-0.426863	-0.000116	0.076579
O110	O	-0.836481	-0.809257	0.267322
C111	C	-0.702992	-0.832682	0.304210
C112	C	-0.757870	-0.790533	0.249436
H113	H	-0.639425	-0.817547	0.289779
H114	H	-0.711491	-0.894053	0.295653
H115	H	-0.717445	-0.817610	0.367793
H116	H	-0.743451	-0.805543	0.185832
H117	H	-0.749362	-0.729172	0.258060
H118	H	-0.844416	-0.664226	0.259571
O119	O	-0.830595	0.000020	-0.344605
C120	C	-0.740477	0.063131	-0.431815
C121	C	-0.822274	0.063098	-0.391726
H122	H	-0.733717	0.114132	-0.469909
H123	H	-0.733681	0.012211	-0.470042
H124	H	-0.693452	0.063096	-0.385122
H125	H	-0.869348	0.063158	-0.438366
H126	H	-0.829002	0.114014	-0.353482
O127	O	-0.770204	-0.000099	-0.215190
C128	C	-0.696696	-0.000048	-0.337448
C129	C	-0.778496	-0.000037	-0.297367
H130	H	-0.703372	0.000017	-0.403893
H131	H	-0.663057	-0.051013	-0.319114
H132	H	-0.663095	0.050901	-0.318998
H133	H	-0.812162	-0.050952	-0.315796
H134	H	-0.812076	0.050962	-0.315700
O135	O	-1.033123	-0.191003	0.070889
C136	C	-1.132052	-0.199098	-0.027905
C137	C	-1.077213	-0.241214	0.026937
H138	H	-1.167725	-0.239675	-0.063442
H139	H	-1.095572	-0.163249	-0.069468
H140	H	-1.173498	-0.163182	0.008644
H141	H	-1.035757	-0.277169	-0.009548
H142	H	-1.113742	-0.277017	0.068503
H143	H	-0.442816	-0.000086	0.261779
H144	H	-1.027441	-0.000079	-0.322845
O145	O	-0.157506	-0.000183	0.320317
C146	C	-0.124509	-0.063283	0.439408
C147	C	-0.174648	-0.063256	0.365163
H148	H	-0.138338	-0.114279	0.475679
H149	H	-0.138376	-0.012358	0.475798
H150	H	-0.059646	-0.063251	0.421680
H151	H	-0.239525	-0.063313	0.382821
H152	H	-0.160715	-0.114176	0.328792
H153	H	-0.794365	-0.000073	-0.060562
O154	O	-0.836510	-0.342061	0.267279
C155	C	-0.730352	-0.428577	0.276798
C156	C	-0.785197	-0.386387	0.222027
H157	H	-0.688840	-0.464413	0.240233
H158	H	-0.766826	-0.464497	0.318296
H159	H	-0.694750	-0.388010	0.312419
H160	H	-0.820810	-0.426902	0.186355
H161	H	-0.748678	-0.350456	0.180581
H162	H	-0.181300	-0.000106	0.052316
H163	H	-0.556310	-0.000104	0.016173
O164	O	-0.337131	-0.000073	0.054170
C165	C	-0.337602	-0.000130	-0.087247
C166	C	-0.287471	-0.000142	-0.012997
H167	H	-0.297473	-0.000202	-0.141571
H168	H	-0.376213	0.050838	-0.087616
H169	H	-0.376243	-0.051076	-0.087517
H170	H	-0.248784	0.050769	-0.012679
H171	H	-0.248912	-0.051144	-0.012657
O172	O	-0.712155	-0.000050	0.018025
C173	C	-0.712639	-0.000102	-0.123392
C174	C	-0.662501	-0.000119	-0.049147
H175	H	-0.672514	-0.000174	-0.177719
H176	H	-0.751247	0.050868	-0.123756
H177	H	-0.751283	-0.051046	-0.123660
H178	H	-0.623811	0.050790	-0.048829
H179	H	-0.623945	-0.051124	-0.048811
