data_functionalizedCrystal
_audit_creation_method	'MofGen! by Chris Wilmer'
_symmetry_space_group_name_H-M	'P1'
_symmetry_Int_Tables_number	1
_symmetry_cell_setting	triclinic
loop_
_symmetry_equiv_pos_as_xyz
  x,y,z
_cell_length_a	14.853567
_cell_length_b	19.288871
_cell_length_c	18.366186
_cell_angle_alpha	89.990878
_cell_angle_beta	89.998262
_cell_angle_gamma	96.613061
loop_
_atom_site_label
_atom_site_type_symbol
_atom_site_fract_x
_atom_site_fract_y
_atom_site_fract_z
O1	O	1.195847	-0.090687	0.060501
O2	O	1.695847	0.409313	0.560501
O3	O	0.933326	-0.101490	0.060514
O4	O	1.433326	0.398510	0.560514
O5	O	1.072169	0.005016	0.060500
O6	O	1.572169	0.505016	0.560500
O7	O	1.057004	-0.197193	0.060515
O8	O	1.557004	0.302807	0.560515
O9	O	1.072167	0.005026	-0.060599
O10	O	1.572167	0.505026	0.439401
O11	O	0.933324	-0.101479	-0.060585
O12	O	1.433324	0.398521	0.439415
O13	O	1.195845	-0.090677	-0.060598
O14	O	1.695845	0.409323	0.439402
Zn15	Zn	1.064584	-0.096076	-0.079819
Zn16	Zn	1.564584	0.403924	0.420181
Zn17	Zn	1.064587	-0.096090	0.079735
Zn18	Zn	1.564587	0.403910	0.579735
O19	O	1.057002	-0.197183	-0.060584
O20	O	1.557002	0.302817	0.439416
C21	C	0.899739	-0.100995	-0.000034
C22	C	1.399739	0.399005	0.499966
C23	C	0.799664	-0.099528	-0.000029
C24	C	1.299664	0.400472	0.499971
C25	C	1.071679	0.030899	-0.000049
C26	C	1.571679	0.530899	0.499951
C27	C	1.070211	0.108007	-0.000050
C28	C	1.570211	0.608007	0.499950
N29	N	1.064589	-0.096066	-0.188710
N30	N	1.564589	0.403934	0.311290
C31	C	0.387523	-0.030061	-0.000051
C32	C	0.887523	0.469939	0.499949
C33	C	0.365526	-0.156593	-0.000041
C34	C	0.865526	0.343407	0.499959
C35	C	0.459552	-0.157972	-0.000039
C36	C	0.959552	0.342028	0.499961
C37	C	0.517568	-0.095395	-0.000041
C38	C	1.017568	0.404605	0.499959
C39	C	0.481558	-0.031439	-0.000046
C40	C	0.981558	0.468561	0.499954
C41	C	0.495570	-0.221927	-0.000026
C42	C	0.995570	0.278073	0.499974
C43	C	0.589601	-0.223309	-0.000023
C44	C	1.089601	0.276691	0.499977
C45	C	0.647619	-0.160731	-0.000031
C46	C	1.147619	0.339269	0.499969
C47	C	0.611603	-0.096772	-0.000036
C48	C	1.111603	0.403228	0.499964
C49	C	0.669619	-0.034195	-0.000039
C50	C	1.169619	0.465805	0.499961
C51	C	0.633605	0.029764	-0.000050
C52	C	1.133605	0.529764	0.499950
C53	C	0.539576	0.031139	-0.000054
C54	C	1.039576	0.531139	0.499946
C55	C	0.741648	-0.162105	-0.000027
C56	C	1.241648	0.337895	0.499973
C57	C	0.763654	-0.035572	-0.000034
C58	C	1.263654	0.464428	0.499966
C59	C	1.229432	-0.091172	-0.000048
C60	C	1.729432	0.408828	0.499952
C61	C	1.329507	-0.092638	-0.000048
C62	C	1.829507	0.407362	0.499952
C63	C	1.059672	0.663619	-0.066049
C64	C	1.559672	1.163619	0.433951
C65	C	1.061041	0.591166	-0.066052
C66	C	1.561041	1.091166	0.433948
C67	C	1.061731	0.554927	-0.000042
C68	C	1.561731	1.054927	0.499958
C69	C	1.061029	0.591144	0.065977
C70	C	1.561029	1.091144	0.565977
C71	C	1.059650	0.663594	0.065979
C72	C	1.559650	1.163594	0.565979
C73	C	1.116718	0.445405	0.050528
C74	C	1.616718	0.945405	0.550528
C75	C	1.118102	0.372957	0.050524
C76	C	1.618102	0.872957	0.550524
C77	C	1.065978	0.331466	-0.000043
C78	C	1.565978	0.831466	0.499957
C79	C	1.012483	0.362433	-0.050618
C80	C	1.512483	0.862433	0.449382
C81	C	1.011104	0.434884	-0.050617
C82	C	1.511104	0.934884	0.449383
C83	C	1.063225	0.476367	-0.000036
C84	C	1.563225	0.976367	0.499964
C85	C	1.068159	0.216696	-0.066061
C86	C	1.568159	0.716696	0.433939
C87	C	1.069523	0.144242	-0.066062
C88	C	1.569523	0.644242	0.433938
C89	C	1.069520	0.144221	0.065970
C90	C	1.569520	0.644221	0.565970
C91	C	1.068147	0.216674	0.065969
C92	C	1.568147	0.716674	0.565969
C93	C	1.067471	0.252907	-0.000049
C94	C	1.567471	0.752907	0.499951
C95	C	1.057496	0.776935	-0.000036
C96	C	1.557496	1.276935	0.499964
C97	C	1.058974	0.699827	-0.000039
C98	C	1.558974	1.199827	0.499961
N99	N	1.064590	-0.096095	0.188626
N100	N	1.564590	0.403905	0.688626
C101	C	1.126189	-0.049011	0.773170
C102	C	1.626189	0.450989	1.273170
C103	C	1.126186	-0.049010	0.696943
C104	C	1.626186	0.450990	1.196943
C105	C	1.064592	-0.096076	0.658837
C106	C	1.564592	0.403924	1.158837
C107	C	1.002981	-0.143135	0.696966
C108	C	1.502981	0.356865	1.196966
C109	C	1.002979	-0.143130	0.773193
C110	C	1.502979	0.356870	1.273193
C111	C	1.052357	-0.159322	0.538087
C112	C	1.552357	0.340678	1.038087
C113	C	1.052365	-0.159328	0.461862
C114	C	1.552365	0.340672	0.961862
C115	C	1.064593	-0.096091	0.423730
C116	C	1.564593	0.403909	0.923730
C117	C	1.076832	-0.032846	0.461832
C118	C	1.576832	0.467154	0.961832
C119	C	1.076830	-0.032841	0.538058
C120	C	1.576830	0.467159	1.038058
C121	C	1.064587	-0.096087	0.576183
C122	C	1.564587	0.403913	1.076183
C123	C	1.126194	-0.049031	0.302955
C124	C	1.626194	0.450969	0.802955
C125	C	1.126185	-0.049029	0.226726
C126	C	1.626185	0.450971	0.726726
C127	C	1.002984	-0.143160	0.226751
C128	C	1.502984	0.356840	0.726751
C129	C	1.002989	-0.143156	0.302979
C130	C	1.502989	0.356844	0.802979
C131	C	1.064598	-0.096092	0.341076
C132	C	1.564598	0.403908	0.841076
H133	H	0.810885	0.015386	-0.000039
H134	H	1.310885	0.515386	0.499961
O135	O	0.628445	-0.292288	-0.000016
O136	O	1.128445	0.207712	0.499984
H137	H	0.670766	-0.295932	-0.049372
H138	H	1.170766	0.204068	0.450628
H139	H	1.176358	-0.010706	0.333975
H140	H	1.676358	0.489294	0.833975
O141	O	0.936574	-0.193935	0.185649
O142	O	1.436574	0.306065	0.685649
H143	H	0.947718	-0.248121	0.200299
H144	H	1.447718	0.251879	0.700299
O145	O	0.348685	0.038921	-0.000069
O146	O	0.848685	0.538921	0.499931
H147	H	0.372004	0.068994	0.049284
H148	H	0.872004	0.568994	0.549284
O149	O	0.302960	-0.224085	-0.000046
O150	O	0.802960	0.275915	0.499954
H151	H	0.231525	-0.212383	-0.000056
H152	H	0.731525	0.287617	0.499944
O153	O	1.039177	-0.227543	0.420776
O154	O	1.539177	0.272457	0.920776
H155	H	0.977846	-0.228964	0.386039
H156	H	1.477846	0.271036	0.886039
H157	H	0.510244	0.083212	-0.000080
H158	H	1.010244	0.583212	0.499920
O159	O	0.433001	-0.289418	-0.000033
O160	O	0.933001	0.210582	0.499967
H161	H	0.361567	-0.277714	-0.000051
H162	H	0.861567	0.222286	0.499949
H163	H	1.176345	-0.010707	0.195688
H164	H	1.676345	0.489293	0.695688
H165	H	0.680854	0.080714	-0.000047
H166	H	1.180854	0.580714	0.499953
H167	H	1.059081	0.693074	0.119734
H168	H	1.559081	1.193074	0.619734
H169	H	0.770967	-0.214180	-0.000019
H170	H	1.270967	0.285820	0.499981
H171	H	1.067601	0.246198	-0.119817
H172	H	1.567601	0.746198	0.380183
O173	O	1.039175	-0.227532	0.579215
O174	O	1.539175	0.272468	1.079215
H175	H	1.030682	-0.271510	0.539916
H176	H	1.530682	0.228490	1.039916
O177	O	1.067399	0.255739	0.137164
O178	O	1.567399	0.755739	0.637164
H179	H	1.005332	0.282608	0.140314
H180	H	1.505332	0.782608	0.640314
H181	H	1.059120	0.693115	-0.119806
H182	H	1.559120	1.193115	0.380194
H183	H	0.952829	-0.181456	0.665937
H184	H	1.452829	0.318544	1.165937
O185	O	1.061806	0.552100	-0.137251
O186	O	1.561806	1.052100	0.362749
H187	H	1.061112	0.589468	-0.183156
H188	H	1.561112	1.089468	0.316844
H189	H	0.967547	0.460094	-0.091797
H190	H	1.467547	0.960094	0.408203
H191	H	1.070088	0.114762	-0.119817
H192	H	1.570088	0.614762	0.380183
O193	O	0.956250	0.317695	-0.105160
O194	O	1.456250	0.817695	0.394840
H195	H	0.966183	0.262112	-0.096661
H196	H	1.466183	0.762112	0.403339
H197	H	1.070071	0.114715	0.119718
H198	H	1.570071	0.614715	0.619718
O199	O	1.089790	0.035376	0.579151
O200	O	1.589790	0.535376	1.079151
H201	H	1.087654	0.024754	0.638560
H202	H	1.587654	0.524754	1.138560
H203	H	0.952832	-0.181476	0.334018
H204	H	1.452832	0.318524	0.834018
O205	O	0.936544	-0.193890	0.814315
O206	O	1.436544	0.306110	1.314315
H207	H	0.893714	-0.226622	0.775015
H208	H	1.393714	0.273378	1.275015
H209	H	1.161665	0.347750	0.091702
H210	H	1.661665	0.847750	0.591702
O211	O	1.172944	0.490156	0.105068
O212	O	1.672944	0.990156	0.605068
H213	H	1.210385	0.456454	0.140226
H214	H	1.710385	0.956454	0.640226
H215	H	1.061587	0.561633	0.119724
H216	H	1.561587	1.061633	0.619724
H217	H	1.176353	-0.010687	0.804187
H218	H	1.676353	0.489313	1.304187
O219	O	1.192637	0.001737	0.655813
O220	O	1.692637	0.501737	1.155813
H221	H	1.235482	0.034459	0.695111
H222	H	1.735482	0.534459	1.195111
H223	H	1.086788	0.018648	0.430786
H224	H	1.586788	0.518648	0.930786
