data_functionalizedCrystal
_audit_creation_method	'MofGen! by Chris Wilmer'
_symmetry_space_group_name_H-M	'P1'
_symmetry_Int_Tables_number	1
_symmetry_cell_setting	triclinic
loop_
_symmetry_equiv_pos_as_xyz
  x,y,z
_cell_length_a	16.959455
_cell_length_b	29.839131
_cell_length_c	16.959447
_cell_angle_alpha	90.041568
_cell_angle_beta	90.014322
_cell_angle_gamma	90.032176
loop_
_atom_site_label
_atom_site_type_symbol
_atom_site_fract_x
_atom_site_fract_y
_atom_site_fract_z
Zn1	Zn	1.208301	-0.178881	0.446847
Zn2	Zn	1.208188	-0.254014	0.314642
Zn3	Zn	1.076129	-0.178895	0.314684
Zn4	Zn	1.076059	-0.253981	0.446781
O5	O	1.142169	-0.216443	0.380739
O6	O	1.318896	-0.188856	0.429320
O7	O	1.190652	-0.244070	0.204037
O8	O	1.093738	-0.116026	0.332261
O9	O	1.318814	-0.244056	0.332190
O10	O	1.190844	-0.116016	0.429360
O11	O	1.093629	-0.188880	0.204068
O12	O	0.965509	-0.188847	0.332197
O13	O	1.093618	-0.243999	0.557401
O14	O	0.965457	-0.244012	0.429248
O15	O	1.190776	-0.188823	0.557449
O16	O	1.190584	-0.316877	0.332126
O17	O	1.093509	-0.316852	0.429207
C18	C	0.936803	-0.216428	0.380721
C19	C	0.848946	-0.216433	0.380732
C20	C	0.477473	-0.187695	0.330310
C21	C	0.477468	-0.245228	0.431213
C22	C	0.560014	-0.245221	0.431208
C23	C	0.601293	-0.216452	0.380752
C24	C	0.560027	-0.187688	0.330302
C25	C	0.601287	-0.273987	0.481652
C26	C	0.683838	-0.273982	0.481648
C27	C	0.725118	-0.245210	0.431196
C28	C	0.683847	-0.216445	0.380744
C29	C	0.725126	-0.187676	0.330289
C30	C	0.683856	-0.158908	0.279840
C31	C	0.601307	-0.158916	0.279850
C32	C	0.807667	-0.245202	0.431187
C33	C	0.807680	-0.187669	0.330281
C34	C	1.142048	-0.333165	0.380672
C35	C	1.142069	-0.383100	0.380670
C36	C	1.192721	-0.692703	0.431370
C37	C	1.192807	-0.880376	0.431418
O38	O	1.235755	-0.904607	0.474476
N39	N	1.142303	-0.903885	0.380826
C40	C	1.091771	-0.880473	0.330223
O41	O	1.048811	-0.904775	0.287199
C42	C	1.091682	-0.692800	0.330180
C43	C	1.142194	-0.669294	0.380769
C44	C	1.243229	-0.669196	0.481956
C45	C	1.243210	-0.622281	0.481940
C46	C	1.192683	-0.598872	0.431339
C47	C	1.142175	-0.622379	0.380754
C48	C	1.041146	-0.669389	0.279582
C49	C	1.041127	-0.622468	0.279577
C50	C	1.091639	-0.598962	0.330166
C51	C	1.091630	-0.552054	0.330137
N52	N	1.142133	-0.528545	0.380729
C53	C	1.192660	-0.551954	0.431330
C54	C	1.091823	-0.979003	0.330248
C55	C	1.091846	-1.025921	0.330258
C56	C	1.192881	-1.025821	0.431454
C57	C	1.192861	-0.978902	0.431439
C58	C	1.142326	-0.955494	0.380840
C59	C	1.192617	-0.453428	0.431293
C60	C	1.192596	-0.406509	0.431271
C61	C	1.091558	-0.406613	0.330078
C62	C	1.091582	-0.453528	0.330097
C63	C	1.142114	-0.476935	0.380711
O64	O	1.048698	-0.527795	0.287109
O65	O	1.235601	-0.527644	0.474360
C66	C	1.192740	-0.739618	0.431386
C67	C	1.142232	-0.763125	0.380800
C68	C	1.091705	-0.739716	0.330199
C69	C	1.142255	-0.810043	0.380810
C70	C	1.192782	-0.833452	0.431411
C71	C	1.243286	-0.809943	0.482002
C72	C	1.243267	-0.763027	0.481987
C73	C	1.041202	-0.763225	0.279608
C74	C	1.041226	-0.810140	0.279627
C75	C	1.091752	-0.833549	0.330228
C76	C	1.348337	-0.216458	0.380757
C77	C	1.436194	-0.216465	0.380765
C78	C	1.142202	-0.216406	0.586907
C79	C	1.142216	-0.216390	0.674764
C80	C	1.142312	-0.099264	0.380823
C81	C	1.142372	-0.049330	0.380859
C82	C	1.142182	-0.216447	0.175372
C83	C	1.142321	-0.216337	0.087516
C84	C	1.091725	-0.245070	1.046217
C85	C	1.192896	-0.187615	1.046262
C86	C	1.192875	-0.187625	0.963716
C87	C	1.142279	-0.216358	0.922417
C88	C	1.091704	-0.245081	0.963663
C89	C	1.243455	-0.158905	0.922464
C90	C	1.243436	-0.158914	0.839913
C91	C	1.192836	-0.187645	0.798612
C92	C	1.142258	-0.216369	0.839863
C93	C	1.091662	-0.245102	0.798564
C94	C	1.041080	-0.273824	0.839814
C95	C	1.041103	-0.273812	0.922362
C96	C	1.192812	-0.187657	0.716063
C97	C	1.091641	-0.245113	0.716010
H98	H	0.567698	-0.135496	0.238776
H99	H	0.841265	-0.268625	0.472259
H100	H	0.443854	-0.268653	0.472286
O101	O	1.247363	-0.156685	0.671567
H102	H	1.233856	-0.121421	0.687436
O103	O	1.297728	-0.694440	0.536541
H104	H	1.337977	-0.715815	0.501207
O105	O	0.728350	-0.305002	0.536066
H106	H	0.685776	-0.325006	0.571156
H107	H	1.050540	-0.268453	1.079806
O108	O	1.297784	-0.835195	0.536580
H109	H	1.284184	-0.826164	0.598601
O110	O	1.037049	-0.276097	0.671475
H111	H	1.050553	-0.311357	0.687283
H112	H	0.999925	-0.297198	0.955955
H113	H	1.050422	-0.387546	0.288877
O114	O	1.247123	-0.478666	0.485883
H115	H	1.211734	-0.500034	0.526084
O116	O	1.247453	-0.156627	1.090819
H117	H	1.309481	-0.164335	1.074984
O118	O	1.037370	-1.051273	0.275690
H119	H	1.002229	-1.027109	0.240511
H120	H	1.233732	-0.387371	0.472466
O121	O	1.247344	-0.953549	0.485999
H122	H	1.282479	-0.977714	0.521183
H123	H	0.841283	-0.164238	0.289198
H124	H	1.284652	-0.135515	0.956096
H125	H	1.000093	-0.829275	0.238424
H126	H	1.000056	-0.744169	0.238403
H127	H	1.284339	-0.603145	0.523137
H128	H	0.443867	-0.164272	0.289238
H129	H	0.567671	-0.297413	0.522724
H130	H	1.284623	-0.135526	0.806334
H131	H	0.717476	-0.135486	0.238756
H132	H	1.050670	-0.959948	0.289042
O133	O	1.247371	-1.051073	0.486042
H134	H	1.238889	-1.087646	0.477550
O135	O	1.297755	-0.737682	0.536551
H136	H	1.262354	-0.716299	0.576734
H137	H	0.999973	-0.603411	0.238373
O138	O	0.986659	-0.694736	0.225023
H139	H	0.951518	-0.670569	0.189849
O140	O	1.037105	-0.478886	0.275534
H141	H	1.001965	-0.454724	0.240348
O142	O	0.986506	-0.304814	0.795268
H143	H	0.994991	-0.299993	0.730938
