data_functionalizedCrystal
_audit_creation_method	'MofGen! by Chris Wilmer'
_symmetry_space_group_name_H-M	'P1'
_symmetry_Int_Tables_number	1
_symmetry_cell_setting	triclinic
loop_
_symmetry_equiv_pos_as_xyz
  x,y,z
_cell_length_a	16.956984
_cell_length_b	14.519709
_cell_length_c	15.455313
_cell_angle_alpha	92.679852
_cell_angle_beta	87.522272
_cell_angle_gamma	79.866782
loop_
_atom_site_label
_atom_site_type_symbol
_atom_site_fract_x
_atom_site_fract_y
_atom_site_fract_z
O1	O	1.054598	0.042507	0.072136
O2	O	1.554598	0.542507	0.572136
O3	O	0.822486	0.074882	0.072137
O4	O	1.322486	0.574882	0.572137
O5	O	0.944697	-0.076025	0.072129
O6	O	1.444697	0.423975	0.572129
O7	O	0.932388	0.193414	0.072144
O8	O	1.432388	0.693414	0.572144
O9	O	0.951677	-0.084630	-0.072134
O10	O	1.451677	0.415370	0.427866
O11	O	0.829467	0.066277	-0.072125
O12	O	1.329467	0.566277	0.427875
O13	O	1.061579	0.033902	-0.072127
O14	O	1.561579	0.533902	0.427873
Cu15	Cu	0.946160	0.049304	-0.085298
Cu16	Cu	1.446160	0.549304	0.414702
Cu17	Cu	0.937905	0.059480	0.085309
Cu18	Cu	1.437905	0.559480	0.585309
O19	O	0.939369	0.184810	-0.072118
O20	O	1.439369	0.684810	0.427882
C21	C	0.796271	0.072238	0.000006
C22	C	1.296271	0.572238	0.500006
C23	C	0.707757	0.077166	0.000006
C24	C	1.207757	0.577166	0.500006
C25	C	0.675556	-0.005243	-0.000000
C26	C	1.175556	0.494757	0.500000
C27	C	0.592387	-0.000606	0.000006
C28	C	1.092387	0.499394	0.500006
C29	C	0.541421	0.086441	0.000013
C30	C	1.041421	0.586441	0.500013
C31	C	0.573628	0.168857	0.000022
C32	C	1.073628	0.668857	0.500022
C33	C	0.656795	0.164219	0.000022
C34	C	1.156795	0.664219	0.500022
C35	C	0.291681	0.109397	0.000020
C36	C	0.791681	0.609397	0.500020
C37	C	0.208509	0.114028	0.000018
C38	C	0.708509	0.614028	0.500018
C39	C	0.227274	-0.055435	0.000004
C40	C	0.727274	0.444565	0.500004
C41	C	0.310442	-0.060065	-0.000001
C42	C	0.810442	0.439935	0.499999
C43	C	0.342641	0.022350	0.000012
C44	C	0.842641	0.522350	0.500012
N45	N	0.456409	0.091183	0.000017
N46	N	0.956409	0.591183	0.500017
N47	N	0.427651	0.017608	0.000014
N48	N	0.927651	0.517608	0.500014
C49	C	0.947613	-0.114643	-0.000003
C50	C	1.447613	0.385357	0.499997
C51	C	0.945895	-0.216890	-0.000003
C52	C	1.445895	0.283110	0.499997
C53	C	0.939565	-0.591290	0.000019
C54	C	1.439565	-0.091290	0.500019
C55	C	0.941323	-0.487119	0.000013
C56	C	1.441323	0.012881	0.500013
C57	C	0.942730	-0.404093	0.000007
C58	C	1.442730	0.095907	0.500007
C59	C	0.944488	-0.299916	0.000002
C60	C	1.444488	0.200084	0.500002
C61	C	1.087794	0.036547	0.000006
C62	C	1.587794	0.536547	0.500006
C63	C	1.176307	0.031618	0.000012
C64	C	1.676307	0.531618	0.500012
C65	C	0.936452	0.223427	0.000015
C66	C	1.436452	0.723427	0.500015
C67	C	0.938170	0.325674	0.000021
C68	C	1.438170	0.825674	0.500021
N69	N	0.932099	0.066630	0.205305
N70	N	1.432099	0.566630	0.705305
N71	N	0.951973	0.042146	-0.205294
N72	N	1.451973	0.542146	0.294706
C73	C	0.984117	0.002628	0.250695
C74	C	1.484117	0.502628	0.750695
C75	C	0.979725	0.008034	0.341503
C76	C	1.479725	0.508034	0.841503
C77	C	0.923309	0.077439	0.386919
C78	C	1.423309	0.577439	0.886919
C79	C	0.871289	0.141448	0.341523
C80	C	1.371289	0.641448	0.841523
C81	C	0.875685	0.136045	0.250716
C82	C	1.375685	0.636045	0.750716
C83	C	0.904349	0.100752	0.658502
C84	C	1.404349	0.600752	1.158502
C85	C	0.899954	0.106148	0.749315
C86	C	1.399954	0.606148	1.249315
C87	C	1.008392	-0.027265	0.749290
C88	C	1.508392	0.472735	1.249290
C89	C	1.012781	-0.032664	0.658481
C90	C	1.512781	0.467336	1.158481
C91	C	0.960763	0.031347	0.613093
C92	C	1.460763	0.531347	1.113093
N93	N	0.918816	0.082964	0.479740
N94	N	1.418816	0.582964	0.979740
N95	N	0.965260	0.025825	0.520274
N96	N	1.465260	0.525825	1.020274
H97	H	0.532124	0.239732	0.000033
H98	H	1.032124	0.739732	0.500033
H99	H	0.717048	-0.076127	-0.000009
H100	H	1.217048	0.423873	0.499991
C101	C	0.327091	0.200049	0.000019
C102	C	0.827091	0.700049	0.500019
H103	H	0.284825	0.252552	0.000010
H104	H	0.784825	0.752552	0.500010
H105	H	0.356711	0.204774	0.050324
H106	H	0.856711	0.704774	0.550324
H107	H	0.361576	0.198757	-0.050297
H108	H	0.861576	0.698757	0.449703
H109	H	1.058718	-0.089179	0.621506
H110	H	1.558718	0.410821	1.121506
C111	C	1.036972	-0.062335	0.391434
C112	C	1.536972	0.437665	0.891434
H113	H	1.026292	-0.049162	0.452019
H114	H	1.526292	0.450838	0.952019
H115	H	1.029081	-0.124166	0.376560
H116	H	1.529081	0.375834	0.876560
H117	H	1.090879	-0.057066	0.376534
H118	H	1.590879	0.442934	0.876534
H119	H	0.833328	0.188164	0.213760
H120	H	1.333328	0.688164	0.713760
H121	H	0.201048	-0.122533	0.000003
H122	H	0.701048	0.377467	0.500003
H123	H	0.825357	0.197963	0.378506
H124	H	1.325357	0.697963	0.878506
C125	C	0.837891	0.182490	0.799276
C126	C	1.337891	0.682490	1.299276
H127	H	0.842716	0.176527	0.859857
H128	H	1.342716	0.676527	1.359857
H129	H	0.847246	0.242540	0.784417
H130	H	1.347246	0.742540	1.284417
H131	H	0.785416	0.175479	0.784384
H132	H	1.285416	0.675479	1.284384
C133	C	0.556969	-0.091257	-0.000010
C134	C	1.056969	0.408743	0.499990
H135	H	0.599234	-0.143763	-0.000027
H136	H	1.099234	0.356237	0.499973
H137	H	0.522482	-0.089980	0.050296
H138	H	1.022482	0.410020	0.550296
H139	H	0.527351	-0.095964	-0.050325
H140	H	1.027351	0.404036	0.449675
C141	C	1.065616	-0.097660	0.799219
C142	C	1.565616	0.402340	1.299219
H143	H	1.054925	-0.084500	0.859805
H144	H	1.554925	0.415500	1.359805
H145	H	1.057703	-0.159479	0.784326
H146	H	1.557703	0.340521	1.284326
H147	H	1.119532	-0.092417	0.784338
H148	H	1.619532	0.407583	1.284338
H149	H	0.351934	-0.130949	-0.000011
H150	H	0.851934	0.369051	0.499989
C151	C	0.152447	0.209784	0.000039
C152	C	0.652447	0.709784	0.500039
H153	H	0.183533	0.258205	0.000058
H154	H	0.683533	0.758205	0.500058
H155	H	0.122045	0.212124	-0.050266
H156	H	0.622045	0.712124	0.449734
H157	H	0.117182	0.218102	0.050355
H158	H	0.617182	0.718102	0.550355
H159	H	0.683012	0.231325	0.000023
H160	H	1.183012	0.731325	0.500023
C161	C	1.046174	-0.073719	0.200746
C162	C	1.546174	0.426281	0.700746
H163	H	1.076529	-0.111056	0.240788
H164	H	1.576529	0.388944	0.740788
H165	H	1.019227	-0.112123	0.165312
H166	H	1.519227	0.387877	0.665312
H167	H	1.081064	-0.045072	0.165331
H168	H	1.581064	0.454928	0.665331
H169	H	0.861992	0.152872	0.621554
H170	H	1.361992	0.652872	1.121554
