data_functionalizedCrystal
_audit_creation_method	'MofGen! by Chris Wilmer'
_symmetry_space_group_name_H-M	'P1'
_symmetry_Int_Tables_number	1
_symmetry_cell_setting	triclinic
loop_
_symmetry_equiv_pos_as_xyz
  x,y,z
_cell_length_a	12.837943
_cell_length_b	11.892095
_cell_length_c	12.837942
_cell_angle_alpha	85.697431
_cell_angle_beta	85.171060
_cell_angle_gamma	85.689438
loop_
_atom_site_label
_atom_site_type_symbol
_atom_site_fract_x
_atom_site_fract_y
_atom_site_fract_z
O1	O	1.408367	-0.093982	-0.266110
O2	O	1.908367	0.406018	0.233890
O3	O	1.105234	-0.093989	-0.252667
O4	O	1.605234	0.406011	0.247333
O5	O	1.250078	-0.093979	-0.107822
O6	O	1.750078	0.406021	0.392178
O7	O	1.263522	-0.093992	-0.410955
O8	O	1.763522	0.406008	0.089045
O9	O	1.237999	0.094028	-0.119879
O10	O	1.737999	0.594028	0.380121
O11	O	1.093155	0.094018	-0.264723
O12	O	1.593155	0.594018	0.235277
O13	O	1.396288	0.094025	-0.278167
O14	O	1.896288	0.594025	0.221833
Zn15	Zn	1.242803	0.123871	-0.273359
Zn16	Zn	1.742803	0.623871	0.226641
Zn17	Zn	1.258718	-0.123836	-0.257474
Zn18	Zn	1.758718	0.376164	0.242526
O19	O	1.251443	0.094014	-0.423011
O20	O	1.751443	0.594014	0.076989
C21	C	1.060125	0.000014	-0.254153
C22	C	1.560125	0.500014	0.245847
C23	C	0.943710	0.000011	-0.240609
C24	C	1.443710	0.500011	0.259391
N25	N	1.231950	0.292925	-0.284200
N26	N	1.731950	0.792925	0.215800
N27	N	1.269579	-0.292889	-0.246626
N28	N	1.769579	0.207111	0.253374
C29	C	0.718835	0.000020	-0.403439
C30	C	1.218835	0.500020	0.096561
C31	C	0.609453	0.000019	-0.390717
C32	C	1.109453	0.500019	0.109283
C33	C	0.615561	0.000015	-0.202446
C34	C	1.115561	0.500015	0.297554
C35	C	0.724943	0.000017	-0.215167
C36	C	1.224943	0.500017	0.284833
C37	C	0.776577	0.000017	-0.315667
C38	C	1.276577	0.500017	0.184333
C39	C	0.885961	0.000011	-0.328387
C40	C	1.385961	0.500011	0.171613
C41	C	0.892066	0.000015	-0.140117
C42	C	1.392066	0.500015	0.359883
C43	C	0.782684	0.000014	-0.127395
C44	C	1.282684	0.500014	0.372605
C45	C	1.441397	0.000020	-0.276680
C46	C	1.941397	0.500020	0.223320
C47	C	1.557812	0.000015	-0.290224
C48	C	2.057812	0.500015	0.209776
C49	C	1.239497	0.000024	-0.074781
C50	C	1.739497	0.500024	0.425219
C51	C	1.225953	0.000022	0.041634
C52	C	1.725953	0.500022	0.541634
C53	C	1.345098	0.529580	-0.171130
C54	C	1.845098	1.029580	0.328870
C55	C	1.337519	0.647922	-0.178716
C56	C	1.837519	1.147922	0.321284
C57	C	1.209210	0.647951	-0.306952
C58	C	1.709210	1.147951	0.193048
C59	C	1.216788	0.529610	-0.299366
C60	C	1.716788	1.029610	0.200634
C61	C	1.284736	0.470428	-0.231454
C62	C	1.784736	0.970428	0.268546
C63	C	1.292319	0.352085	-0.223874
C64	C	1.792319	0.852085	0.276126
C65	C	1.164005	0.352116	-0.352104
C66	C	1.664005	0.852116	0.147896
C67	C	1.156426	0.470458	-0.359690
C68	C	1.656426	0.970458	0.140310
C69	C	1.262024	0.000009	-0.456052
C70	C	1.762024	0.500009	0.043948
C71	C	1.275569	0.000004	-0.572467
C72	C	1.775569	0.500004	-0.072467
C73	C	1.388784	0.000002	0.266509
C74	C	1.888784	0.500002	0.766509
C75	C	1.376062	-0.000000	0.375892
C76	C	1.876062	0.500000	0.875892
C77	C	1.187791	0.000007	0.369784
C78	C	1.687791	0.500007	0.869784
C79	C	1.200512	0.000009	0.260402
C80	C	1.700512	0.500009	0.760402
C81	C	1.301011	0.000008	0.208768
C82	C	1.801011	0.500008	0.708768
C83	C	1.313731	0.000019	0.099383
C84	C	1.813731	0.500019	0.599383
C85	C	1.125461	0.000018	0.093278
C86	C	1.625461	0.500018	0.593278
C87	C	1.112740	0.000016	0.202660
C88	C	1.612740	0.500016	0.702660
H89	H	0.928000	0.000013	-0.410219
H90	H	1.428000	0.500013	0.089781
H91	H	0.562444	0.000024	-0.462191
H92	H	1.062444	0.500024	0.037809
H93	H	1.030916	0.000012	0.244716
H94	H	1.530916	0.500012	0.744716
Br95	Br	0.545467	0.000034	-0.066066
Br96	Br	1.045467	0.500034	0.433934
Br97	Br	1.384536	0.271769	-0.131714
Br98	Br	1.884536	0.771769	0.368286
Br99	Br	0.788916	0.000000	-0.539825
Br100	Br	1.288916	0.500000	-0.039825
H101	H	1.153882	0.696151	-0.362237
H102	H	1.653882	1.196151	0.137763
H103	H	0.740628	0.000026	-0.045572
H104	H	1.240628	0.500026	0.454428
Br105	Br	1.006333	0.000047	0.014908
Br106	Br	1.506333	0.500047	0.514908
H107	H	1.101102	0.518656	-0.414980
H108	H	1.601102	1.018656	0.085020
H109	H	1.400430	0.481394	-0.115841
H110	H	1.900430	0.981394	0.384159
Br111	Br	1.419437	0.728198	-0.096839
Br112	Br	1.919437	1.228198	0.403161
Br113	Br	1.082092	0.271828	-0.433986
Br114	Br	1.582092	0.771828	0.066014
H115	H	0.939091	0.000005	-0.068646
H116	H	1.439091	0.500005	0.431354
H117	H	1.395563	0.000022	0.057344
H118	H	1.895563	0.500022	0.557344
H119	H	1.470613	0.000012	0.224468
H120	H	1.970613	0.500012	0.724468
H121	H	1.447536	-0.000009	0.422901
H122	H	1.947536	0.499991	0.922901
H123	H	1.105969	-0.000004	0.411844
H124	H	1.605969	0.499996	0.911844
