data_functionalizedCrystal
_audit_creation_method	'MofGen! by Chris Wilmer'
_symmetry_space_group_name_H-M	'P1'
_symmetry_Int_Tables_number	1
_symmetry_cell_setting	triclinic
loop_
_symmetry_equiv_pos_as_xyz
  x,y,z
_cell_length_a	19.188933
_cell_length_b	17.038272
_cell_length_c	18.266242
_cell_angle_alpha	89.995358
_cell_angle_beta	90.004209
_cell_angle_gamma	92.871437
loop_
_atom_site_label
_atom_site_type_symbol
_atom_site_fract_x
_atom_site_fract_y
_atom_site_fract_z
O1	O	0.932208	-0.097598	0.060857
O2	O	0.729713	-0.110734	0.060864
O3	O	0.829757	0.009646	0.060855
O4	O	0.832164	-0.217977	0.060866
O5	O	0.829746	0.009649	-0.060907
O6	O	0.729702	-0.110731	-0.060898
O7	O	0.932197	-0.097595	-0.060905
Zn8	Zn	0.830947	-0.104163	-0.080234
Zn9	Zn	0.830963	-0.104166	0.080193
O10	O	0.832153	-0.217975	-0.060896
C11	C	0.703670	-0.110307	-0.000016
C12	C	0.626086	-0.109029	-0.000014
C13	C	0.072271	-0.099911	0.066351
C14	C	0.145169	-0.101107	0.066353
C15	C	0.181617	-0.101707	-0.000019
C16	C	0.145162	-0.101091	-0.066399
C17	C	0.072265	-0.099887	-0.066400
N18	N	0.293513	-0.148077	-0.049420
N19	N	0.362762	-0.149223	-0.049415
C20	C	0.401251	-0.105332	-0.000020
N21	N	0.367875	-0.060263	0.049381
N22	N	0.298619	-0.059122	0.049377
C23	C	0.260662	-0.103012	-0.000025
C24	C	0.516743	-0.107239	0.066359
C25	C	0.589643	-0.108430	0.066359
C26	C	0.589634	-0.108422	-0.066395
C27	C	0.516735	-0.107223	-0.066393
C28	C	0.480294	-0.106636	-0.000014
C29	C	0.827562	0.038769	-0.000026
C30	C	0.821031	0.125541	-0.000025
C31	C	0.958240	-0.098022	-0.000023
C32	C	1.035824	-0.099300	-0.000021
C33	C	0.834348	-0.247097	-0.000013
C34	C	0.840879	-0.333870	-0.000009
N35	N	0.830942	-0.104160	-0.189721
C36	C	0.880997	0.175842	-0.000028
C37	C	0.874856	0.257374	-0.000021
C38	C	0.808748	0.288602	-0.000016
C39	C	0.748777	0.238295	-0.000011
C40	C	0.754919	0.156765	-0.000013
C41	C	0.787050	0.534293	-0.000006
C42	C	0.780913	0.615829	-0.000006
C43	C	0.906993	0.634902	-0.000014
C44	C	0.913129	0.553370	-0.000021
C45	C	0.853158	0.503070	-0.000012
C46	C	0.802469	0.371940	-0.000011
C47	C	0.859437	0.419733	-0.000012
C48	C	0.875275	-0.050874	-0.772002
C49	C	0.875276	-0.050875	-0.695357
C50	C	0.830963	-0.104159	-0.657033
C51	C	0.786659	-0.157459	-0.695361
C52	C	0.786664	-0.157461	-0.772004
N53	N	0.769780	-0.114289	-0.536704
N54	N	0.769777	-0.114282	-0.463896
C55	C	0.830946	-0.104158	-0.426111
N56	N	0.892119	-0.094024	-0.463884
N57	N	0.892121	-0.094027	-0.536699
C58	C	0.830953	-0.104163	-0.573926
C59	C	0.875252	-0.050867	-0.304685
C60	C	0.875254	-0.050874	-0.228039
C61	C	0.786631	-0.157454	-0.228044
C62	C	0.786635	-0.157450	-0.304689
C63	C	0.830944	-0.104153	-0.343005
N64	N	0.830973	-0.104163	0.189680
H65	H	0.042605	-0.099430	0.120402
H66	H	0.750588	-0.200856	-0.803203
H67	H	0.487071	-0.106758	0.120409
H68	H	0.911334	-0.007471	-0.335884
C69	C	0.629735	-0.109093	0.139377
N70	N	0.659933	-0.109592	0.194375
C71	C	0.737913	-0.216070	-0.653203
N72	N	0.701197	-0.260219	-0.621450
C73	C	0.923992	0.007752	-0.185889
N74	N	0.960701	0.051911	-0.154142
H75	H	0.750557	-0.200841	-0.335890
C76	C	0.185269	-0.101789	0.139370
N77	N	0.215469	-0.102306	0.194366
C78	C	0.185255	-0.101773	-0.139408
N79	N	0.215452	-0.102292	-0.194402
H80	H	0.042590	-0.099393	-0.120449
H81	H	0.750553	-0.200842	-0.196841
C82	C	0.708185	0.650177	0.000005
N83	N	0.653410	0.676049	0.000013
H84	H	0.619309	-0.108908	-0.120436
C85	C	0.688951	0.101433	-0.000012
N86	N	0.639261	0.059758	-0.000009
H87	H	0.487060	-0.106728	-0.120440
C88	C	0.953722	0.141499	-0.000034
N89	N	1.008500	0.115635	-0.000034
H90	H	0.923687	0.298326	-0.000025
H91	H	0.966961	0.527950	-0.000025
H92	H	0.694950	0.263727	-0.000003
H93	H	0.955817	0.675865	-0.000020
H94	H	0.738217	0.493347	0.000001
C95	C	0.932154	0.385379	-0.000020
N96	N	0.986925	0.359496	-0.000032
H97	H	0.748643	0.397376	-0.000009
C98	C	0.924007	0.007766	-0.814145
N99	N	0.960708	0.051938	-0.845889
C100	C	0.924009	0.007754	-0.653199
N101	N	0.960713	0.051915	-0.621447
