data_functionalizedCrystal
_audit_creation_method	'MofGen! by Chris Wilmer'
_symmetry_space_group_name_H-M	'P1'
_symmetry_Int_Tables_number	1
_symmetry_cell_setting	triclinic
loop_
_symmetry_equiv_pos_as_xyz
  x,y,z
_cell_length_a	11.169417
_cell_length_b	21.295416
_cell_length_c	11.169409
_cell_angle_alpha	89.961074
_cell_angle_beta	90.019824
_cell_angle_gamma	89.968790
loop_
_atom_site_label
_atom_site_type_symbol
_atom_site_fract_x
_atom_site_fract_y
_atom_site_fract_z
Zn1	Zn	1.834796	0.250543	0.678488
Zn2	Zn	1.834615	0.355832	0.477782
Zn3	Zn	1.634081	0.250582	0.477822
Zn4	Zn	1.634019	0.355780	0.678426
O5	O	1.734378	0.303184	0.578129
O6	O	2.002721	0.264516	0.651872
O7	O	1.807964	0.341908	0.309837
O8	O	1.660808	0.162487	0.504483
O9	O	2.002589	0.341870	0.504414
O10	O	1.808272	0.162459	0.651912
O11	O	1.660633	0.264581	0.309867
O12	O	1.466124	0.264531	0.504424
O13	O	1.660702	0.341783	0.846384
O14	O	1.466078	0.341820	0.651807
O15	O	1.808212	0.264466	0.846429
O16	O	1.807904	0.443914	0.504355
O17	O	1.660527	0.443877	0.651768
C18	C	1.734221	0.466736	0.578076
C19	C	1.734264	0.536704	0.578094
C20	C	1.422553	0.303175	0.578114
C21	C	1.289153	0.303186	0.578136
C22	C	1.811072	0.569569	0.501417
C23	C	1.811129	0.635312	0.501450
C24	C	1.734356	0.668187	0.578146
C25	C	1.657543	0.635313	0.654838
C26	C	1.657497	0.569572	0.654812
N27	N	1.629367	0.771452	0.587299
N28	N	1.629414	0.833904	0.587317
C29	C	1.734492	0.866261	0.578231
N30	N	1.839523	0.833808	0.569104
N31	N	1.839475	0.771351	0.569080
C32	C	1.734398	0.739472	0.578184
C33	C	1.811367	0.970412	0.501586
C34	C	1.811426	1.036156	0.501627
C35	C	1.657830	1.036156	0.655008
C36	C	1.657782	0.970413	0.654974
C37	C	1.734549	0.937546	0.578256
C38	C	2.047420	0.303194	0.578146
C39	C	2.180820	0.303199	0.578153
C40	C	1.734470	0.303114	0.891172
C41	C	1.734509	0.303085	1.024572
C42	C	1.734569	1.138994	0.578230
C43	C	1.734654	1.069026	0.578325
C44	C	1.734355	0.303209	0.266305
C45	C	1.734548	0.303061	0.132905
H46	H	1.873679	0.662076	0.439011
H47	H	1.873583	0.542810	0.438952
N48	N	1.574920	0.934966	0.737664
H49	H	1.519311	0.907740	0.688826
H50	H	1.623727	0.907676	0.793300
N51	N	1.894266	1.071609	0.418918
H52	H	1.949886	1.098833	0.467747
H53	H	1.942805	1.040770	0.370330
H54	H	1.595326	1.062922	0.717461
N55	N	1.574728	0.670769	0.737548
H56	H	1.526060	0.639970	0.786120
H57	H	1.623568	0.697999	0.793142
H58	H	1.594950	0.542812	0.717252
H59	H	1.873880	0.943650	0.439121
