data_functionalizedCrystal
_audit_creation_method	'MofGen! by Chris Wilmer'
_symmetry_space_group_name_H-M	'P1'
_symmetry_Int_Tables_number	1
_symmetry_cell_setting	triclinic
loop_
_symmetry_equiv_pos_as_xyz
  x,y,z
_cell_length_a	23.532355
_cell_length_b	23.532407
_cell_length_c	14.472310
_cell_angle_alpha	89.994233
_cell_angle_beta	89.992822
_cell_angle_gamma	82.838088
loop_
_atom_site_label
_atom_site_type_symbol
_atom_site_fract_x
_atom_site_fract_y
_atom_site_fract_z
O1	O	0.755286	0.068990	-0.076725
O2	O	0.589419	0.079024	-0.076755
O3	O	0.677354	-0.008925	-0.076722
O4	O	0.667351	0.156940	-0.076758
O5	O	0.677332	-0.008920	0.076960
O6	O	0.589396	0.079029	0.076927
O7	O	0.755264	0.068995	0.076957
Cu8	Cu	0.672328	0.074013	0.090974
Cu9	Cu	0.672354	0.074007	-0.090772
O10	O	0.667328	0.156945	0.076924
C11	C	0.568191	0.078776	0.000082
C12	C	0.504972	0.078022	0.000071
C13	C	0.677088	-0.030139	0.000121
C14	C	0.676322	-0.093356	0.000128
C15	C	0.112946	0.073287	0.083883
C16	C	0.053547	0.072569	0.083887
O17	O	0.022818	0.072181	0.155131
N18	N	0.023850	0.072211	0.000115
C19	C	0.053557	0.072564	-0.083666
O20	O	0.022844	0.072192	-0.154920
C21	C	0.112956	0.073277	-0.083669
C22	C	0.142649	0.073641	0.000108
C23	C	0.142638	0.073650	0.167653
C24	C	0.202034	0.074369	0.167649
C25	C	0.231736	0.074724	0.083875
C26	C	0.202044	0.074360	0.000104
C27	C	0.142663	0.073626	-0.167449
C28	C	0.202066	0.074339	-0.167444
C29	C	0.231758	0.074703	-0.083667
C30	C	0.291142	0.075433	-0.083674
N31	N	0.320838	0.075792	0.000097
C32	C	0.291135	0.075437	0.083872
C33	C	-0.071184	0.071065	-0.083654
C34	C	-0.130582	0.070355	-0.083652
C35	C	-0.130589	0.070360	0.083901
C36	C	-0.071190	0.071073	0.083898
C37	C	-0.041488	0.071423	0.000118
C38	C	0.415869	0.076946	0.083857
C39	C	0.475269	0.077667	0.083845
C40	C	0.475271	0.077660	-0.083707
C41	C	0.415876	0.076942	-0.083696
C42	C	0.386177	0.076583	0.000093
O43	O	0.321909	0.075819	-0.154882
O44	O	0.321857	0.075801	0.155114
C45	C	0.723557	-0.492468	0.000086
C46	C	0.722845	-0.551868	0.000079
O47	O	0.766632	-0.588620	0.000053
N48	N	0.670568	-0.574484	0.000070
C49	C	0.618998	-0.537697	0.000059
O50	O	0.574467	-0.562388	0.000050
C51	C	0.619710	-0.478298	0.000059
C52	C	0.671991	-0.455685	0.000078
C53	C	0.775834	-0.469854	0.000104
C54	C	0.776545	-0.410458	0.000113
C55	C	0.724979	-0.373676	0.000104
C56	C	0.672703	-0.396289	0.000087
C57	C	0.568141	-0.441512	0.000042
C58	C	0.568858	-0.382110	0.000041
C59	C	0.621139	-0.359497	0.000060
C60	C	0.621848	-0.300110	0.000087
N61	N	0.674126	-0.277494	0.000096
C62	C	0.725691	-0.314277	0.000105
C63	C	0.617507	-0.662439	0.000056
C64	C	0.616794	-0.721837	0.000062
C65	C	0.720642	-0.736004	0.000081
C66	C	0.721354	-0.676605	0.000081
C67	C	0.669784	-0.639823	0.000065
C68	C	0.727181	-0.189540	0.000124
C69	C	0.727888	-0.130138	0.000137
C70	C	0.624041	-0.115977	0.000113
C71	C	0.623334	-0.175373	0.000105
C72	C	0.674909	-0.212154	0.000108
O73	O	0.578084	-0.263323	0.000109
O74	O	0.770216	-0.289577	0.000102
C75	C	0.776491	0.069244	0.000118
C76	C	0.839710	0.069998	0.000123
C77	C	0.667594	0.178158	0.000079
C78	C	0.668360	0.241375	0.000066
N79	N	0.672313	0.074017	0.218805
N80	N	0.672374	0.073998	-0.218603
C81	C	0.672354	0.074004	0.592897
C82	C	0.625145	0.120909	0.553713
C83	C	0.625252	0.121078	0.446625
C84	C	0.672333	0.074011	0.407306
C85	C	0.731685	0.086643	0.446150
C86	C	0.731420	0.086976	0.553272
C87	C	0.660741	0.014327	0.553436
C88	C	0.659376	0.014733	0.446308
C89	C	0.672325	0.074013	0.302417
C90	C	0.672365	0.074003	0.697785
H91	H	0.499442	0.077966	0.152070
H92	H	0.767628	0.054141	0.579191
H93	H	0.118461	0.073360	0.235876
F94	F	0.384270	0.076564	0.173035
F95	F	-0.039595	0.071460	0.173064
F96	F	0.602311	0.002191	0.413127
F97	F	0.776997	-0.652544	0.000101
H98	H	0.819117	-0.392053	0.000124
F99	F	0.569164	-0.076820	0.000105
H100	H	0.575510	-0.632494	0.000051
H101	H	0.762629	-0.765963	0.000084
H102	H	-0.047005	0.071355	-0.151882
F103	F	0.384273	0.076563	-0.172860
F104	F	0.783535	-0.106076	0.000156
H105	H	0.769178	-0.219481	0.000122
F106	F	0.830722	-0.508993	0.000112
H107	H	0.574222	-0.740243	0.000063
F108	F	0.512496	-0.465565	0.000018
F109	F	0.745462	0.142864	0.411064
H110	H	0.226204	0.074662	0.235869
F111	F	0.233674	0.074710	-0.256617
H112	H	-0.154784	0.070070	0.152115
H113	H	0.526863	-0.352164	0.000027
F114	F	-0.162178	0.069978	-0.172819
H115	H	0.580762	-0.193785	0.000116
F116	F	0.567565	0.111337	0.412296
H117	H	0.580873	0.113562	0.579495
H118	H	0.632422	0.164952	0.580615
H119	H	0.118498	0.073329	-0.235669
H120	H	0.499466	0.077951	-0.151914
F121	F	0.778682	0.043158	0.412864
F122	F	0.605414	-0.001653	0.588782
H123	H	0.632633	0.165371	0.420983
H124	H	0.741704	0.130487	0.578240
H125	H	0.691553	-0.021779	0.419547
H126	H	0.695172	-0.020573	0.578776
