data_functionalizedCrystal
_audit_creation_method	'MofGen! by Chris Wilmer'
_symmetry_space_group_name_H-M	'P1'
_symmetry_Int_Tables_number	1
_symmetry_cell_setting	triclinic
loop_
_symmetry_equiv_pos_as_xyz
  x,y,z
_cell_length_a	13.897449
_cell_length_b	19.805404
_cell_length_c	19.805399
_cell_angle_alpha	90.027110
_cell_angle_beta	90.020133
_cell_angle_gamma	90.030420
loop_
_atom_site_label
_atom_site_type_symbol
_atom_site_fract_x
_atom_site_fract_y
_atom_site_fract_z
Zn1	Zn	1.474592	-0.269464	0.382732
Zn2	Zn	1.974592	0.230536	0.882732
Zn3	Zn	1.474461	-0.382652	0.269545
Zn4	Zn	1.974461	0.117348	0.769545
Zn5	Zn	1.313290	-0.269484	0.269555
Zn6	Zn	1.813290	0.230516	0.769555
Zn7	Zn	1.313229	-0.382618	0.382690
Zn8	Zn	1.813229	0.117382	0.882690
O9	O	1.393893	-0.326055	0.326131
O10	O	1.893893	0.173945	0.826131
O11	O	1.609556	-0.284484	0.367730
O12	O	2.109556	0.215516	0.867730
O13	O	1.453053	-0.367663	0.174829
O14	O	1.953053	0.132337	0.674829
O15	O	1.334767	-0.174765	0.284591
O16	O	1.834767	0.325235	0.784591
O17	O	1.609460	-0.367644	0.284572
O18	O	2.109460	0.132356	0.784572
O19	O	1.453275	-0.174750	0.367741
O20	O	1.953275	0.325250	0.867741
O21	O	1.334641	-0.284519	0.174837
O22	O	1.834641	0.215481	0.674837
O23	O	1.178300	-0.284486	0.284550
O24	O	1.678300	0.215514	0.784550
O25	O	1.334663	-0.367585	0.477412
O26	O	1.834663	0.132415	0.977412
O27	O	1.178256	-0.367605	0.367670
O28	O	1.678256	0.132395	0.867670
O29	O	1.453216	-0.284451	0.477443
O30	O	1.953216	0.215549	0.977443
O31	O	1.452994	-0.477364	0.284532
O32	O	1.952994	0.022636	0.784532
O33	O	1.334537	-0.477339	0.367659
O34	O	1.834537	0.022661	0.867659
C35	C	1.393771	-0.501911	0.326105
C36	C	1.893771	-0.001911	0.826105
C37	C	1.393807	-0.577143	0.326116
C38	C	1.893807	-0.077143	0.826116
C39	C	1.143279	-0.326044	0.326107
C40	C	1.643279	0.173956	0.826107
C41	C	1.036065	-0.326056	0.326113
C42	C	1.536065	0.173944	0.826113
C43	C	1.455810	-1.038924	0.282941
C44	C	1.955810	-0.538924	0.782941
C45	C	1.455765	-0.968236	0.282928
C46	C	1.955765	-0.468236	0.782928
C47	C	1.394020	-0.932904	0.326166
C48	C	1.894020	-0.432904	0.826166
C49	C	1.332308	-0.968265	0.369417
C50	C	1.832308	-0.468265	0.869417
C51	C	1.332349	-1.038952	0.369426
C52	C	1.832349	-0.538952	0.869426
C53	C	1.332140	-0.683192	0.369379
C54	C	1.832140	-0.183192	0.869379
C55	C	1.332106	-0.612500	0.369368
C56	C	1.832106	-0.112500	0.869368
C57	C	1.455556	-0.612475	0.282881
C58	C	1.955556	-0.112475	0.782881
C59	C	1.455597	-0.683163	0.282890
C60	C	1.955597	-0.183163	0.782890
C61	C	1.393883	-0.718517	0.326138
C62	C	1.893883	-0.218517	0.826138
C63	C	1.393931	-0.795165	0.326151
C64	C	1.893931	-0.295165	0.826151
C65	C	1.393975	-0.856257	0.326157
C66	C	1.893975	-0.356257	0.826157
C67	C	0.948995	-0.326058	0.326124
C68	C	1.448995	0.173942	0.826124
C69	C	0.839763	-0.326063	0.326145
C70	C	1.339763	0.173937	0.826145
C71	C	1.645486	-0.326066	0.326155
C72	C	2.145486	0.173934	0.826155
C73	C	1.752700	-0.326070	0.326165
C74	C	2.252700	0.173930	0.826165
C75	C	1.393947	-0.326012	0.502673
C76	C	1.893947	0.173988	1.002673
C77	C	1.393970	-0.325994	0.577905
C78	C	1.893970	0.174006	1.077905
C79	C	1.394042	-0.149512	0.326172
C80	C	1.894042	0.350488	0.826172
C81	C	1.394106	-0.074280	0.326189
C82	C	1.894106	0.425720	0.826189
C83	C	1.393895	-0.326048	0.150275
C84	C	1.893895	0.173952	0.650275
C85	C	1.394059	-0.325876	0.075043
C86	C	1.894059	0.174124	0.575043
C87	C	1.455702	-0.282704	0.613267
C88	C	1.955702	0.217296	1.113267
C89	C	1.455712	-0.282684	0.683955
C90	C	1.955712	0.217316	1.183955
C91	C	1.393994	-0.325958	0.719281
C92	C	1.893994	0.174042	1.219281
C93	C	1.332256	-0.369250	0.683915
C94	C	1.832256	0.130750	1.183915
C95	C	1.332242	-0.369266	0.613228
C96	C	1.832242	0.130734	1.113228
C97	C	1.332310	-0.369187	0.968988
C98	C	1.832310	0.130813	1.468988
C99	C	1.332331	-0.369170	1.039681
C100	C	1.832331	0.130830	1.539681
C101	C	1.455780	-0.282605	1.039716
C102	C	1.955780	0.217395	1.539716
C103	C	1.455766	-0.282621	0.969029
C104	C	1.955766	0.217379	1.469029
C105	C	1.394025	-0.325910	0.933669
C106	C	1.894025	0.174090	1.433669
C107	C	1.394013	-0.325930	0.857020
C108	C	1.894013	0.174070	1.357020
C109	C	1.394010	-0.325943	0.795928
C110	C	1.894010	0.174057	1.295928
H111	H	1.506096	-1.067686	0.247734
H112	H	2.006096	-0.567686	0.747734
H113	H	1.505963	-0.247467	0.584509
H114	H	2.005963	0.252533	1.084509
H115	H	1.282108	-1.067738	0.404646
H116	H	1.782108	-0.567738	0.904646
O117	O	1.272326	-0.411113	1.074073
O118	O	1.772326	0.088887	1.574073
C119	C	1.142080	-0.420185	1.153841
C120	C	1.642080	0.079815	1.653841
C121	C	1.209981	-0.372611	1.114945
C122	C	1.709981	0.127389	1.614945
H123	H	1.091643	-0.389076	1.186884
H124	H	1.591643	0.110924	1.686884
H125	H	1.186294	-0.455561	1.186976
H126	H	1.686294	0.044439	1.686976
H127	H	1.097991	-0.451144	1.116416
H128	H	1.597991	0.048856	1.616416
H129	H	1.254084	-0.341609	1.152321
H130	H	1.754084	0.158391	1.652321
H131	H	1.165712	-0.337280	1.081800
H132	H	1.665712	0.162720	1.581800
H133	H	1.505805	-0.583682	0.247665
H134	H	2.005805	-0.083682	0.747665
H135	H	1.282001	-0.404482	0.712683
H136	H	1.782001	0.095518	1.212683
H137	H	1.506009	-0.939450	0.247711
H138	H	2.006009	-0.439450	0.747711
H139	H	1.505880	-0.711926	0.247683
H140	H	2.005880	-0.211926	0.747683
O141	O	1.272237	-0.717634	0.411332
O142	O	1.772237	-0.217634	0.911332
C143	C	1.217631	-0.826539	0.449723
C144	C	1.717631	-0.326539	0.949723
C145	C	1.285503	-0.787615	0.402160
C146	C	1.785503	-0.287615	0.902160
H147	H	1.228348	-0.883125	0.442334
H148	H	1.728348	-0.383125	0.942334
H149	H	1.139831	-0.812749	0.437789
H150	H	1.639831	-0.312749	0.937789
H151	H	1.234515	-0.812552	0.504300
H152	H	1.734515	-0.312552	1.004300
H153	H	1.268705	-0.801581	0.347568
H154	H	1.768705	-0.301581	0.847568
H155	H	1.363283	-0.801408	0.414153
H156	H	1.863283	-0.301408	0.914153
H157	H	1.281822	-0.583734	0.404580
H158	H	1.781822	-0.083734	0.904580
O159	O	1.272244	-0.934051	0.411446
O160	O	1.772244	-0.434051	0.911446
C161	C	1.149857	-0.941541	0.497275
C162	C	1.649857	-0.441541	0.997275
C163	C	1.217809	-0.980370	0.449694
C164	C	1.717809	-0.480370	0.949694
H165	H	1.105843	-0.978973	0.528221
H166	H	1.605843	-0.478973	1.028221
H167	H	1.099360	-0.908512	0.466202
H168	H	1.599360	-0.408512	0.966202
H169	H	1.194119	-0.908383	0.532661
H170	H	1.694119	-0.408383	1.032661
H171	H	1.173624	-1.013564	0.414299
H172	H	1.673624	-0.513564	0.914299
H173	H	1.268308	-1.013356	0.480809
H174	H	1.768308	-0.513356	0.980809
O175	O	1.272391	-0.411420	0.578902
O176	O	1.772391	0.088580	1.078902
C177	C	1.225451	-0.526558	0.557261
C178	C	1.725451	-0.026558	1.057261
C179	C	1.293306	-0.478895	0.596166
C180	C	1.793306	0.021105	1.096166
H181	H	1.242323	-0.581120	0.571215
H182	H	1.742323	-0.081120	1.071215
H183	H	1.236052	-0.519192	0.500664
H184	H	1.736052	-0.019192	1.000664
H185	H	1.147686	-0.514637	0.571137
H186	H	1.647686	-0.014637	1.071137
H187	H	1.371096	-0.490786	0.582347
H188	H	1.871096	0.009214	1.082347
H189	H	1.282621	-0.486270	0.652753
H190	H	1.782621	0.013730	1.152753
H191	H	1.506050	-0.247355	1.068514
H192	H	2.006050	0.252645	1.568514
H193	H	1.282051	-0.404446	0.940207
H194	H	1.782051	0.095554	1.440207
H195	H	1.505982	-0.247435	0.712743
H196	H	2.005982	0.252565	1.212743
H197	H	1.506026	-0.247385	0.940270
H198	H	2.006026	0.252615	1.440270
