data_functionalizedCrystal
_audit_creation_method	'MofGen! by Chris Wilmer'
_symmetry_space_group_name_H-M	'P1'
_symmetry_Int_Tables_number	1
_symmetry_cell_setting	triclinic
loop_
_symmetry_equiv_pos_as_xyz
  x,y,z
_cell_length_a	12.759401
_cell_length_b	13.897447
_cell_length_c	12.759393
_cell_angle_alpha	89.967926
_cell_angle_beta	89.981504
_cell_angle_gamma	90.019691
loop_
_atom_site_label
_atom_site_type_symbol
_atom_site_fract_x
_atom_site_fract_y
_atom_site_fract_z
Zn1	Zn	1.606220	-0.383954	-0.593978
Zn2	Zn	1.606100	-0.545283	-0.418296
Zn3	Zn	1.430522	-0.384004	-0.418317
Zn4	Zn	1.430496	-0.545209	-0.593938
O5	O	1.518334	-0.464613	-0.506132
O6	O	1.753225	-0.405365	-0.570681
O7	O	1.582769	-0.523942	-0.271278
O8	O	1.453890	-0.249016	-0.441644
O9	O	1.753137	-0.523893	-0.441609
O10	O	1.582975	-0.248979	-0.570701
O11	O	1.453773	-0.405451	-0.271293
O12	O	1.283498	-0.405379	-0.441605
O13	O	1.453846	-0.523766	-0.740964
O14	O	1.283478	-0.523815	-0.570633
O15	O	1.582949	-0.405293	-0.740993
O16	O	1.582744	-0.680255	-0.441570
O17	O	1.453729	-0.680201	-0.570613
C18	C	1.245367	-0.464595	-0.506118
C19	C	1.128590	-0.464611	-0.506137
C20	C	1.518249	-0.715227	-0.506108
C21	C	1.518309	-0.822441	-0.506132
C22	C	1.073746	-0.526379	-0.573210
C23	C	0.964022	-0.526391	-0.573222
C24	C	0.963997	-0.402864	-0.439077
C25	C	1.073719	-0.402847	-0.439072
C26	C	1.128618	-0.588142	-0.640275
C27	C	1.073773	-0.649917	-0.707354
C28	C	0.964049	-0.649929	-0.707365
C29	C	0.909170	-0.588167	-0.640298
C30	C	1.518359	-0.909511	-0.506156
C31	C	1.518433	-1.018743	-0.506183
C32	C	1.792368	-0.464631	-0.506147
C33	C	1.909144	-0.464639	-0.506153
C34	C	1.518408	-0.464515	-0.780166
C35	C	1.518439	-0.464474	-0.896942
C36	C	1.518449	-0.213020	-0.506180
C37	C	1.518498	-0.105806	-0.506200
C38	C	1.585673	-0.402779	-0.951821
C39	C	1.585698	-0.402744	-1.061546
C40	C	1.451253	-0.526107	-1.061502
C41	C	1.451223	-0.526137	-0.951780
C42	C	1.652889	-0.341116	-0.896984
C43	C	1.720129	-0.279417	-0.951863
C44	C	1.720154	-0.279382	-1.061587
C45	C	1.652939	-0.341046	-1.116432
C46	C	1.518322	-0.464640	-0.233165
C47	C	1.518494	-0.464410	-0.116389
H48	H	1.217961	-0.588141	-0.640272
H49	H	1.652879	-0.341139	-0.807641
H50	H	1.774846	-0.229206	-0.907201
C51	C	1.794114	-0.211509	-1.121951
N52	N	1.849828	-0.160388	-1.167415
C53	C	1.134142	-0.717849	-0.781125
N54	N	1.179611	-0.769019	-0.836689
C55	C	0.788469	-0.588183	-0.640316
N56	N	0.697559	-0.588201	-0.640325
C57	C	1.652965	-0.341000	-1.237133
N58	N	1.652990	-0.340966	-1.328043
H59	H	1.396529	-0.576311	-1.106165
C60	C	1.377268	-0.594010	-0.891409
N61	N	1.321563	-0.645133	-0.845938
H62	H	0.919397	-0.700221	-0.761991
C63	C	0.903625	-0.334936	-0.365302
N64	N	0.858153	-0.283774	-0.309731
C65	C	1.134051	-0.334902	-0.365284
N66	N	1.179494	-0.283722	-0.309706
