data_functionalizedCrystal
_audit_creation_method	'MofGen! by Chris Wilmer'
_symmetry_space_group_name_H-M	'P1'
_symmetry_Int_Tables_number	1
_symmetry_cell_setting	triclinic
loop_
_symmetry_equiv_pos_as_xyz
  x,y,z
_cell_length_a	14.971506
_cell_length_b	10.540510
_cell_length_c	13.448316
_cell_angle_alpha	89.995897
_cell_angle_beta	89.992937
_cell_angle_gamma	84.067849
loop_
_atom_site_label
_atom_site_type_symbol
_atom_site_fract_x
_atom_site_fract_y
_atom_site_fract_z
O1	O	1.187856	0.165548	-0.082693
O2	O	0.927569	0.185331	-0.082693
O3	O	1.063665	-0.009336	-0.082693
O4	O	1.051760	0.360215	-0.082694
O5	O	1.063647	-0.009348	0.082691
O6	O	0.927551	0.185319	0.082691
O7	O	1.187839	0.165536	0.082690
Cu8	Cu	1.057694	0.175426	0.097791
Cu9	Cu	1.057714	0.175441	-0.097794
O10	O	1.051743	0.360203	0.082690
C11	C	0.894231	0.184436	-0.000001
C12	C	0.794920	0.181771	-0.000001
C13	C	0.357217	0.285964	-0.000012
C14	C	0.450531	0.288458	-0.000016
C15	C	0.507115	0.174083	-0.000011
C16	C	0.470380	0.057207	-0.000013
C17	C	0.377068	0.054714	-0.000015
C18	C	0.664872	0.062411	-0.000004
C19	C	0.758191	0.064903	0.000000
C20	C	0.738335	0.296155	-0.000005
C21	C	0.645023	0.293662	-0.000008
C22	C	0.608295	0.176785	-0.000007
C23	C	1.062769	-0.056636	-0.000003
C24	C	1.060115	-0.197556	-0.000009
C25	C	1.154660	-0.416075	0.000370
C26	C	1.157491	-0.269511	-0.000008
C27	C	1.010277	-0.241747	-0.094449
C28	C	1.008136	-0.388484	-0.094523
C29	C	1.006088	-0.388284	0.093549
C30	C	1.010707	-0.241994	0.094792
C31	C	1.221177	0.166431	-0.000004
C32	C	1.320488	0.169096	-0.000010
C33	C	1.052639	0.407503	-0.000002
C34	C	1.055293	0.548423	-0.000002
N35	N	1.057686	0.175416	0.235356
N36	N	1.057729	0.175441	-0.235358
C37	C	1.117968	0.089252	0.287396
C38	C	1.117974	0.089251	0.391499
C39	C	1.057701	0.175421	0.443560
C40	C	0.997412	0.261588	0.391513
C41	C	0.997403	0.261582	0.287411
C42	C	0.997437	0.261597	0.608493
C43	C	0.997447	0.261605	0.712601
C44	C	1.118008	0.089266	0.712581
C45	C	1.117999	0.089260	0.608480
C46	C	1.057711	0.175429	0.556439
H47	H	0.347166	-0.040451	-0.000016
H48	H	0.935305	-0.410660	-0.098802
H49	H	1.046971	-0.213795	0.164658
O50	O	0.583988	0.417019	-0.000003
H51	H	0.597136	0.472944	-0.067415
O52	O	0.909245	-0.416532	0.094403
H53	H	0.895816	-0.469363	0.163298
H54	H	1.167053	0.019089	0.245015
H55	H	1.037026	-0.430819	0.165135
H56	H	0.948365	0.331771	0.754984
H57	H	1.196487	-0.240610	0.067689
O58	O	0.531411	-0.066154	-0.000009
H59	H	0.490192	-0.147839	-0.000018
H60	H	1.192590	-0.458461	0.068098
H61	H	1.192386	-0.460000	-0.066975
H62	H	0.948313	0.331743	0.245041
O63	O	0.819227	-0.058453	-0.000012
H64	H	0.778013	-0.140144	-0.000031
O65	O	1.209455	-0.232458	-0.089844
H66	H	1.268394	-0.184864	-0.065173
H67	H	1.167096	0.019104	0.754958
O68	O	0.915322	-0.177905	-0.099120
H69	H	0.902614	-0.113844	-0.034026
H70	H	1.044902	-0.211275	-0.164731
O71	O	0.777952	0.422210	-0.000005
H72	H	0.755284	0.477158	0.067411
O73	O	0.916545	-0.175912	0.102358
H74	H	0.877591	-0.198582	0.035609
H75	H	1.042209	-0.429078	-0.165119
H76	H	0.948341	0.331761	0.566125
O77	O	0.296185	0.409324	-0.000011
H78	H	0.309337	0.465243	-0.067425
O79	O	0.932407	0.354542	0.447657
H80	H	0.888608	0.301012	0.495113
H81	H	0.634973	-0.032763	-0.000009
H82	H	1.167060	0.019090	0.433870
H83	H	1.167082	0.019101	0.566092
H84	H	0.480430	0.383623	-0.000027
