data_functionalizedCrystal
_audit_creation_method	'MofGen! by Chris Wilmer'
_symmetry_space_group_name_H-M	'P1'
_symmetry_Int_Tables_number	1
_symmetry_cell_setting	triclinic
loop_
_symmetry_equiv_pos_as_xyz
  x,y,z
_cell_length_a	18.215407
_cell_length_b	19.121449
_cell_length_c	18.215399
_cell_angle_alpha	92.467880
_cell_angle_beta	90.016899
_cell_angle_gamma	87.582716
loop_
_atom_site_label
_atom_site_type_symbol
_atom_site_fract_x
_atom_site_fract_y
_atom_site_fract_z
Zn1	Zn	1.137565	-0.279665	0.403564
Zn2	Zn	1.142720	-0.397118	0.275250
Zn3	Zn	1.014498	-0.279681	0.280517
Zn4	Zn	1.019708	-0.397073	0.398283
O5	O	1.078623	-0.338384	0.339403
O6	O	1.241233	-0.295257	0.386548
O7	O	1.125688	-0.381566	0.172963
O8	O	1.026485	-0.181396	0.301253
O9	O	1.245021	-0.381549	0.292277
O10	O	1.116902	-0.181384	0.391655
O11	O	1.031484	-0.295286	0.176833
O12	O	0.912204	-0.295242	0.296133
O13	O	1.035365	-0.381472	0.501969
O14	O	0.916032	-0.381489	0.382655
O15	O	1.121954	-0.295213	0.505849
O16	O	1.130740	-0.495395	0.287157
O17	O	1.040363	-0.495362	0.377549
C18	C	0.887415	-0.338363	0.339393
C19	C	0.805617	-0.338370	0.339405
C20	C	0.542575	-0.383366	0.384388
C21	C	0.619434	-0.383361	0.384385
C22	C	0.615412	-0.293417	0.294431
C23	C	0.538555	-0.293428	0.294431
C24	C	0.502139	-0.338401	0.339414
C25	C	0.655854	-0.338385	0.339410
C26	C	0.739187	-0.338378	0.339407
C27	C	0.418800	-0.338409	0.339417
C28	C	1.086696	-0.520862	0.331224
C29	C	1.090217	-0.598927	0.327750
C30	C	1.044785	-0.635610	0.373141
C31	C	1.048097	-0.708960	0.369873
C32	C	1.096845	-0.745626	0.321218
C33	C	1.142279	-0.708937	0.275822
C34	C	1.138963	-0.635589	0.279086
C35	C	1.109210	-0.967092	0.309005
C36	C	1.112524	-1.040446	0.305746
C37	C	1.018341	-1.040463	0.399797
C38	C	1.015032	-0.967113	0.403060
C39	C	1.060463	-0.930431	0.357661
C40	C	1.100233	-0.820602	0.317878
C41	C	1.057071	-0.855457	0.360998
C42	C	1.270576	-0.338406	0.339414
C43	C	1.352376	-0.338416	0.339419
C44	C	1.078665	-0.338336	0.531359
C45	C	1.078683	-0.338315	0.613158
C46	C	1.070537	-0.155194	0.347631
C47	C	1.067092	-0.077129	0.351137
C48	C	1.078620	-0.338382	0.148197
C49	C	1.078736	-0.338204	0.066407
C50	C	1.123785	-0.293358	0.803376
C51	C	1.123793	-0.293337	0.880235
C52	C	1.033629	-0.383164	0.876184
C53	C	1.033617	-0.383180	0.799326
C54	C	1.078700	-0.338278	0.762924
C55	C	1.078719	-0.338241	0.916641
C56	C	1.078727	-0.338219	0.999976
C57	C	1.078691	-0.338299	0.679584
H58	H	0.645071	-0.256801	0.257809
O59	O	0.499180	-0.249723	0.250837
C60	C	0.452724	-0.204404	0.294831
H61	H	0.442340	-0.229229	0.349457
H62	H	0.480020	-0.152351	0.305318
C63	C	0.391890	-0.161192	0.187838
C64	C	0.379130	-0.191685	0.254928
H65	H	0.346494	-0.153342	0.163224
H66	H	0.423189	-0.191721	0.158198
H67	H	0.414638	-0.117817	0.196587
H68	H	0.356391	-0.235062	0.246178
H69	H	0.347825	-0.161162	0.284566
O70	O	0.658790	-0.426940	0.428117
C71	C	0.701475	-0.387001	0.477515
H72	H	0.710620	-0.333746	0.454030
H73	H	0.671531	-0.379346	0.532407
C74	C	0.764968	-0.491061	0.517892
C75	C	0.776205	-0.425655	0.489045
H76	H	0.811064	-0.514905	0.525008
H77	H	0.736208	-0.517969	0.484614
H78	H	0.740012	-0.484673	0.563633
H79	H	0.801152	-0.432044	0.443301
H80	H	0.804971	-0.398748	0.522315
O81	O	1.167592	-0.249671	0.768131
C82	C	1.207399	-0.210031	0.820320
H83	H	1.177155	-0.207588	0.875211
H84	H	1.264430	-0.235752	0.827346
C85	C	1.251843	-0.138290	0.726268
C86	C	1.214694	-0.135283	0.793685
H87	H	1.256347	-0.092182	0.709838
H88	H	1.225027	-0.164997	0.691106
H89	H	1.299365	-0.159726	0.732132
H90	H	1.167170	-0.113855	0.787818
H91	H	1.241502	-0.108570	0.828845
O92	O	0.997473	-0.600072	0.420506
C93	C	1.014335	-0.617924	0.493073
H94	H	1.045029	-0.671156	0.492253
H95	H	1.050290	-0.576596	0.519733
C96	C	0.905021	-0.555966	0.538446
C97	C	0.942715	-0.621349	0.537439
H98	H	0.860844	-0.558076	0.565815
H99	H	0.893662	-0.543936	0.489557
H100	H	0.934992	-0.521533	0.560661
H101	H	0.912748	-0.655779	0.515217
H102	H	0.954068	-0.633385	0.586326
H103	H	0.512928	-0.419987	0.421015
H104	H	1.011095	-0.738825	0.406829
O105	O	0.989903	-0.426920	0.760054
C106	C	1.009069	-0.496917	0.775700
H107	H	1.068020	-0.500465	0.796679
H108	H	0.970428	-0.515266	0.819479
C109	C	0.930163	-0.539443	0.679547
C110	C	1.002570	-0.543801	0.705308
H111	H	0.926151	-0.568365	0.636127
H112	H	0.917248	-0.492285	0.669007
H113	H	0.897970	-0.554732	0.716036
H114	H	1.034759	-0.528504	0.668822
H115	H	1.015490	-0.590958	0.715840
H116	H	0.975338	-0.937261	0.442679
H117	H	0.981353	-1.070338	0.436757
O118	O	1.183130	-0.599876	0.235100
C119	C	1.228731	-0.557392	0.278928
H120	H	1.202248	-0.546389	0.335167
H121	H	1.284540	-0.585607	0.285804
C122	C	1.271454	-0.501246	0.172471
C123	C	1.238924	-0.487728	0.241543
H124	H	1.277745	-0.458275	0.149410
H125	H	1.240734	-0.529870	0.142942
H126	H	1.317958	-0.524760	0.178211
H127	H	1.192417	-0.464222	0.235801
H128	H	1.269636	-0.459098	0.271070
O129	O	1.159897	-1.075955	0.258412
C130	C	1.199298	-1.027851	0.219054
H131	H	1.166794	-0.975593	0.218801
H132	H	1.254821	-1.019984	0.246399
C133	C	1.251163	-1.120710	0.139775
C134	C	1.211238	-1.056527	0.139459
H135	H	1.258532	-1.138399	0.090678
H136	H	1.224620	-1.153119	0.166293
H137	H	1.297428	-1.114145	0.162566
H138	H	1.164971	-1.063094	0.116677
H139	H	1.237774	-1.024119	0.112936
H140	H	1.160505	-0.256758	0.913168
O141	O	0.989910	-0.426760	0.911661
C142	C	0.999574	-0.417103	0.988174
H143	H	1.055354	-0.394103	0.999713
H144	H	0.954273	-0.379693	1.011661
C145	C	0.927464	-0.516405	1.010265
C146	C	0.995977	-0.488162	1.024437
H147	H	0.925242	-0.560236	1.032635
H148	H	0.920950	-0.522910	0.958717
H149	H	0.889721	-0.485223	1.029838
H150	H	1.033718	-0.519339	1.004857
H151	H	1.002496	-0.481664	1.075983
H152	H	1.146203	-0.937231	0.272041
H153	H	1.181967	-0.738796	0.236202
H154	H	1.017378	-0.825602	0.400610
O155	O	1.147676	-0.856158	0.270658
C156	C	1.220214	-0.838203	0.287602
H157	H	1.219344	-0.784921	0.318250
H158	H	1.246829	-0.879441	0.323633
C159	C	1.265744	-0.900300	0.178397
C160	C	1.264676	-0.834855	0.216034
H161	H	1.293172	-0.898237	0.134251
H162	H	1.216874	-0.912399	0.166982
H163	H	1.287921	-0.934658	0.208430
H164	H	1.242491	-0.800500	0.186004
H165	H	1.313543	-0.822750	0.227442
