data_functionalizedCrystal
_audit_creation_method	'MofGen! by Chris Wilmer'
_symmetry_space_group_name_H-M	'P1'
_symmetry_Int_Tables_number	1
_symmetry_cell_setting	triclinic
loop_
_symmetry_equiv_pos_as_xyz
  x,y,z
_cell_length_a	34.571875
_cell_length_b	34.571051
_cell_length_c	34.567439
_cell_angle_alpha	60.004367
_cell_angle_beta	60.008842
_cell_angle_gamma	59.994195
loop_
_atom_site_label
_atom_site_type_symbol
_atom_site_fract_x
_atom_site_fract_y
_atom_site_fract_z
O1	O	0.053721	-0.565181	0.472559
O2	O	0.020283	-0.440038	0.380761
O3	O	0.099534	-0.519209	0.380676
O4	O	-0.025530	-0.486010	0.472643
O5	O	0.125831	-0.492917	0.406885
O6	O	0.046580	-0.413746	0.406969
O7	O	0.080018	-0.538889	0.498767
Zn8	Zn	0.067475	-0.472143	0.457030
Zn9	Zn	0.032827	-0.506784	0.422498
O10	O	0.000767	-0.459718	0.498852
N11	N	0.091122	-0.448505	0.480598
N12	N	0.009184	-0.530426	0.398930
C13	C	0.124402	-0.415465	0.717633
C14	C	0.328327	-0.415388	0.513477
C15	C	0.124221	-0.415437	0.513630
C16	C	0.124201	-0.211364	0.513624
C17	C	0.157075	-0.309853	0.546423
C18	C	0.157084	-0.382601	0.546423
C19	C	0.175289	-0.364414	0.564591
C20	C	0.254624	-0.350722	0.522790
C21	C	0.304220	-0.367243	0.506229
C22	C	0.304249	-0.447494	0.536832
C23	C	0.254655	-0.430972	0.553394
C24	C	0.169014	-0.285043	0.497667
C25	C	0.152454	-0.235444	0.481153
C26	C	0.112020	-0.235469	0.562154
C27	C	0.128580	-0.285068	0.578668
C28	C	0.108321	-0.370634	0.558439
C29	C	0.091776	-0.387168	0.541918
C30	C	0.172754	-0.427637	0.501375
C31	C	0.189301	-0.411103	0.517891
C32	C	0.108399	-0.370649	0.643978
C33	C	0.091911	-0.387197	0.693575
C34	C	0.172928	-0.427676	0.693511
C35	C	0.189415	-0.411128	0.643912
C36	C	0.157149	-0.382613	0.619147
C37	C	0.229844	-0.382585	0.546371
C38	C	0.105624	-0.433333	0.772186
C39	C	0.382878	-0.432925	0.495007
C40	C	0.105380	-0.433313	0.495792
C41	C	0.105683	-0.156808	0.496094
C42	C	-0.023527	-0.563458	0.161535
C43	C	-0.023851	-0.767445	0.365663
C44	C	-0.023821	-0.563448	0.365756
C45	C	-0.227785	-0.563229	0.365355
C46	C	-0.129302	-0.596153	0.332678
C47	C	-0.056593	-0.596234	0.332823
C48	C	-0.074746	-0.614396	0.314578
C49	C	-0.088477	-0.693710	0.356299
C50	C	-0.071982	-0.743310	0.372851
C51	C	0.008266	-0.743392	0.342376
C52	C	-0.008230	-0.693794	0.325823
C53	C	-0.154162	-0.608103	0.381422
C54	C	-0.203757	-0.591517	0.397874
C55	C	-0.203630	-0.551037	0.316836
C56	C	-0.154034	-0.567623	0.300384
C57	C	-0.068543	-0.547475	0.320829
C58	C	-0.052041	-0.530969	0.337421
C59	C	-0.011639	-0.611977	0.377990
C60	C	-0.028141	-0.628485	0.361404
C61	C	-0.068417	-0.547482	0.235199
C62	C	-0.051814	-0.530977	0.185602
C63	C	-0.011349	-0.611990	0.185649
C64	C	-0.027951	-0.628493	0.235248
C65	C	-0.056486	-0.596238	0.260022
C66	C	-0.056602	-0.668955	0.332787
C67	C	-0.005599	-0.544662	0.106983
C68	C	-0.006342	-0.821999	0.384121
C69	C	-0.005979	-0.544649	0.383673
C70	C	-0.282336	-0.544682	0.382817
N71	N	0.427518	-0.448428	0.480350
O72	O	0.589573	-0.456297	0.363634
O73	O	0.589761	-0.548399	0.488643
O74	O	0.589681	-0.548188	0.409364
O75	O	0.589654	-0.456508	0.442913
O76	O	0.510890	-0.521988	0.435708
O77	O	0.510970	-0.522199	0.514987
O78	O	0.510782	-0.430098	0.389978
Zn79	Zn	0.498366	-0.471989	0.456665
Zn80	Zn	0.602177	-0.506508	0.421956
O81	O	0.510862	-0.430308	0.469257
N82	N	0.673025	-0.530068	0.398267
N83	N	0.091092	-0.112167	0.480590
O84	O	-0.025539	0.049976	0.472612
O85	O	0.099472	0.050011	0.380491
O86	O	0.020155	0.049979	0.380751
O87	O	0.053778	0.050009	0.472352
O88	O	0.046458	-0.028818	0.407008
O89	O	0.125775	-0.028785	0.406748
O90	O	0.000764	-0.028821	0.498869
Zn91	Zn	0.067445	-0.041314	0.456977
Zn92	Zn	0.032791	0.062504	0.422382
O93	O	0.080081	-0.028788	0.498609
N94	N	0.009138	0.133358	0.398771
N95	N	0.091421	-0.448552	0.816827
O96	O	0.083469	-0.565164	0.978960
O97	O	-0.008614	-0.440110	0.979002
O98	O	-0.008399	-0.519410	0.978978
O99	O	0.083253	-0.485863	0.978984
O100	O	0.017837	-0.493128	0.900185
O101	O	0.017621	-0.413827	0.900208
O102	O	0.109704	-0.538881	0.900167
Zn103	Zn	0.067828	-0.472181	0.887677
Zn104	Zn	0.033262	-0.506810	0.991491
O105	O	0.109489	-0.459581	0.900191
N106	N	0.009668	-0.530444	1.062341
C107	C	0.030297	-0.411123	0.381218
C108	C	0.128439	-0.509167	0.381113
C109	C	0.070004	-0.567805	0.498310
C110	C	-0.028138	-0.469761	0.498415
C111	C	0.550388	-0.547982	0.517564
C112	C	0.550290	-0.547721	0.419387
C113	C	0.550153	-0.430514	0.361058
C114	C	0.550253	-0.430775	0.459234
C115	C	0.128339	0.010714	0.380902
C116	C	0.030148	0.010577	0.381256
C117	C	-0.028136	0.010574	0.498426
C118	C	0.070089	0.010613	0.498104
C119	C	-0.008178	-0.411214	0.939610
C120	C	-0.007906	-0.509413	0.939566
C121	C	0.109268	-0.567777	0.939558
C122	C	0.109002	-0.469572	0.939586
H123	H	0.082121	-0.347425	0.623816
H124	H	0.022945	0.010574	0.352477
H125	H	0.023152	-0.375173	0.352387
H126	H	0.550436	-0.576894	0.553469
O127	O	0.171062	0.010960	0.346269
C128	C	0.170987	0.011051	0.305473
H129	H	0.143052	-0.004026	0.315990
H130	H	0.207348	-0.011646	0.287591
H131	H	0.162500	0.048899	0.279849
O132	O	0.171323	-0.517674	0.346717
C133	C	0.200767	-0.564230	0.363830
H134	H	0.187919	-0.576779	0.404184
H135	H	0.238729	-0.564824	0.349313
H136	H	0.199462	-0.588731	0.351832
H137	H	0.077150	-0.603753	0.527142
H138	H	-0.064060	-0.462687	0.527292
O139	O	0.078591	0.010640	0.532485
C140	C	0.037933	0.010616	0.573386
H141	H	0.005346	0.025523	0.563062
H142	H	0.033796	0.033497	0.591023
H143	H	0.041781	-0.027189	0.599149
H144	H	0.550303	-0.576522	0.412207
H145	H	0.550093	-0.401597	0.325157
O146	O	-0.096242	-0.516189	0.293123
C147	C	-0.140353	-0.523272	0.315603
H148	H	-0.136400	-0.560903	0.341819
H149	H	-0.153013	-0.517741	0.287870
H150	H	-0.167315	-0.496901	0.335297
H151	H	0.550247	-0.401977	0.466412
H152	H	0.138179	-0.603691	0.939539
O153	O	-0.071000	0.010592	0.532867
C154	C	-0.100500	0.010568	0.515840
H155	H	-0.087690	0.025479	0.475484
H156	H	-0.138448	0.033446	0.530371
H157	H	-0.099215	-0.027237	0.527895
O158	O	-0.042260	-0.517881	0.939461
C159	C	-0.054986	-0.485396	0.898640
H160	H	-0.045551	-0.452565	0.885066
H161	H	-0.094725	-0.474793	0.907795
H162	H	-0.034974	-0.502561	0.870050
O163	O	-0.042624	-0.368349	0.939646
C164	C	-0.025567	-0.338861	0.939641
H165	H	0.004854	-0.361642	0.954551
H166	H	-0.055337	-0.316167	0.962526
H167	H	-0.012426	-0.314930	0.901842
O168	O	-0.096061	-0.516132	0.259248
C169	C	-0.071009	-0.487488	0.247170
H170	H	-0.031331	-0.506676	0.233588
H171	H	-0.079916	-0.479988	0.279800
H172	H	-0.081522	-0.452640	0.218358
H173	H	0.137795	-0.462392	0.939581
H174	H	0.199204	-0.450885	0.713670
O175	O	0.044536	-0.375505	0.717618
C176	C	0.019598	-0.346798	0.685121
H177	H	0.043228	-0.328760	0.649757
H178	H	-0.013496	-0.318741	0.699471
H179	H	0.008894	-0.369678	0.679857
H180	H	0.229113	-0.420876	0.623698
O181	O	0.230603	-0.461934	0.576223
C182	C	0.242709	-0.485163	0.545875
H183	H	0.256311	-0.462574	0.507478
H184	H	0.210090	-0.490745	0.551753
H185	H	0.271514	-0.520954	0.553851
O186	O	0.077005	-0.342878	0.586082
C187	C	0.048291	-0.301286	0.561069
H188	H	0.067413	-0.294378	0.521385
H189	H	0.040794	-0.270047	0.569947
H190	H	0.013448	-0.305801	0.571649
O191	O	0.044403	-0.375605	0.553671
C192	C	0.023848	-0.392577	0.603351
H193	H	0.052115	-0.423162	0.619310
H194	H	-0.005383	-0.405466	0.612863
H195	H	0.008192	-0.362829	0.618051
H196	H	0.229008	-0.420842	0.508101
O197	O	0.204115	-0.455304	0.473651
C198	C	0.250701	-0.462330	0.466603
H199	H	0.250613	-0.432428	0.472144
H200	H	0.274223	-0.462578	0.428980
H201	H	0.264940	-0.497665	0.492985
H202	H	0.324395	-0.341295	0.487026
O203	O	0.328428	-0.494480	0.543592
C204	C	0.377516	-0.502230	0.523928
H205	H	0.384264	-0.468092	0.495498
H206	H	0.396359	-0.531207	0.507442
H207	H	0.391619	-0.513659	0.552942
O208	O	0.230577	-0.303701	0.515886
C209	C	0.242647	-0.278106	0.466917
H210	H	0.278650	-0.299770	0.447371
H211	H	0.244338	-0.243138	0.460361
H212	H	0.214714	-0.270711	0.453423
O213	O	0.196621	-0.309100	0.466329
C214	C	0.171547	-0.296974	0.437676
H215	H	0.131874	-0.283353	0.456853
H216	H	0.180418	-0.329590	0.430177
H217	H	0.182075	-0.268175	0.402829
O218	O	0.163989	-0.211266	0.433804
C219	C	0.143274	-0.162174	0.426143
H220	H	0.111456	-0.155415	0.458703
H221	H	0.131211	-0.143319	0.394013
H222	H	0.170405	-0.148091	0.419516
O223	O	0.084398	-0.211439	0.593517
C224	C	0.109478	-0.223540	0.622153
H225	H	0.138360	-0.259545	0.622624
H226	H	0.084057	-0.225246	0.659774
H227	H	0.126298	-0.195614	0.607219
O228	O	0.117067	-0.309225	0.626021
C229	C	0.158760	-0.337898	0.637977
H230	H	0.189905	-0.345313	0.605279
H231	H	0.154352	-0.372785	0.666734
H232	H	0.165736	-0.318784	0.651585
H233	H	0.011877	-0.638258	0.165483
O234	O	-0.063434	-0.483623	0.161443
C235	C	-0.088357	-0.471621	0.132699
H236	H	-0.079400	-0.504306	0.125265
H237	H	-0.077763	-0.442875	0.097828
H238	H	-0.128059	-0.457976	0.151759
O239	O	-0.016335	-0.675874	0.259285
C240	C	0.012417	-0.700801	0.226782
H241	H	0.006146	-0.677147	0.191396
H242	H	0.003099	-0.733878	0.241090
H243	H	0.051253	-0.711536	0.221577
H244	H	0.011532	-0.638242	0.401256
O245	O	-0.063557	-0.483616	0.325753
C246	C	-0.021860	-0.471693	0.300850
H247	H	0.009265	-0.504407	0.309855
H248	H	-0.026298	-0.442939	0.311417
H249	H	-0.014831	-0.458091	0.261142
O250	O	-0.016472	-0.675865	0.373077
C251	C	0.012171	-0.700793	0.401869
H252	H	0.030204	-0.677166	0.395586
H253	H	0.040229	-0.733911	0.392605
H254	H	-0.010759	-0.711459	0.440698
H255	H	0.017729	-0.673638	0.306677
H256	H	0.047655	-0.763617	0.336709
H257	H	-0.127865	-0.673490	0.361973
O258	O	-0.103008	-0.767284	0.395669
C259	C	-0.126216	-0.755163	0.365293
H260	H	-0.125006	-0.719185	0.337025
H261	H	-0.164678	-0.753387	0.386710
H262	H	-0.107733	-0.783114	0.347583
O263	O	-0.130187	-0.635864	0.412835
C264	C	-0.142342	-0.677438	0.441486
H265	H	-0.178337	-0.670748	0.441908
H266	H	-0.144094	-0.687892	0.479119
H267	H	-0.114426	-0.707291	0.426599
O268	O	-0.227963	-0.603142	0.445216
C269	C	-0.256650	-0.628079	0.457138
H270	H	-0.264022	-0.619127	0.424414
H271	H	-0.291554	-0.617492	0.485859
H272	H	-0.237573	-0.667783	0.470782
O273	O	-0.227585	-0.523315	0.285403
C274	C	-0.195007	-0.516344	0.238850
H275	H	-0.159669	-0.521921	0.239001
H276	H	-0.209288	-0.478727	0.215270
H277	H	-0.189722	-0.542744	0.224635
H278	H	-0.133793	-0.557888	0.260690
