data_functionalizedCrystal
_audit_creation_method	'MofGen! by Chris Wilmer'
_symmetry_space_group_name_H-M	'P1'
_symmetry_Int_Tables_number	1
_symmetry_cell_setting	triclinic
loop_
_symmetry_equiv_pos_as_xyz
  x,y,z
_cell_length_a	23.096457
_cell_length_b	23.096457
_cell_length_c	18.878441
_cell_angle_alpha	59.999589
_cell_angle_beta	89.999551
_cell_angle_gamma	60.004020
loop_
_atom_site_label
_atom_site_type_symbol
_atom_site_fract_x
_atom_site_fract_y
_atom_site_fract_z
Zr1	Zr	0.557825	0.633720	-0.092957
O2	O	0.465385	0.754503	-0.206055
O3	O	0.586155	0.512937	-0.058290
O4	O	0.586162	0.633723	-0.206066
O5	O	0.465382	0.633714	0.058293
O6	O	0.681443	0.633725	-0.206070
O7	O	0.465378	0.633717	-0.058279
O8	O	0.681429	0.417661	0.058274
O9	O	0.465395	0.849778	-0.206051
O10	O	0.669354	0.562618	-0.043504
O11	O	0.598250	0.562614	0.043496
O12	O	0.598259	0.704824	-0.130491
O13	O	0.527155	0.704820	-0.043491
Zr14	Zr	0.709792	0.633717	0.092955
Zr15	Zr	0.709787	0.633722	-0.092964
Zr16	Zr	0.557831	0.633714	0.092962
Zr17	Zr	0.557841	0.785672	-0.092950
Zr18	Zr	0.709777	0.481765	0.092948
O19	O	0.681463	0.754499	0.058288
O20	O	0.681455	0.754507	-0.206065
O21	O	0.465394	0.754495	0.058298
O22	O	0.802232	0.512933	0.206053
O23	O	0.802224	0.512941	-0.058300
O24	O	0.586163	0.512930	0.206063
O25	O	0.802236	0.633723	-0.058295
O26	O	0.681455	0.633713	0.206064
O27	O	0.586175	0.633711	0.206068
O28	O	0.802240	0.633719	0.058277
O29	O	0.586184	0.849780	-0.206056
O30	O	0.681434	0.417657	0.206054
O31	O	0.802223	0.417659	0.206049
O32	O	0.802218	0.417663	0.058268
O33	O	0.465400	0.849774	-0.058270
O34	O	0.586189	0.849776	-0.058275
O35	O	0.669359	0.562613	0.130489
O36	O	0.740463	0.562616	0.043489
O37	O	0.669368	0.704823	-0.043498
O38	O	0.598264	0.704819	0.043502
C39	C	0.633790	0.443649	-0.000009
C40	C	0.633783	0.379142	-0.000012
C41	C	0.443729	0.633715	0.000008
C42	C	0.379217	0.633714	0.000010
C43	C	0.686277	0.296355	0.064200
C44	C	0.686282	0.235733	0.064209
C45	C	0.633798	0.257903	-0.000009
C46	C	0.581296	0.340704	-0.064227
C47	C	0.581288	0.401323	-0.064229
N48	N	0.617917	0.201795	-0.076163
N49	N	0.617929	0.144206	-0.076159
C50	C	0.633817	0.075264	-0.000008
N51	N	0.649707	0.066079	0.076143
N52	N	0.649699	0.123671	0.076138
C53	C	0.633800	0.192178	-0.000014
C54	C	0.686319	-0.073259	0.064219
C55	C	0.686319	-0.133879	0.064228
C56	C	0.581336	-0.028907	-0.064215
C57	C	0.581333	0.031711	-0.064217
C58	C	0.633828	0.009530	-0.000000
C59	C	0.386022	0.559486	0.045408
C60	C	0.325407	0.559485	0.045412
C61	C	0.257986	0.633716	0.000001
C62	C	0.251184	0.707954	-0.045399
C63	C	0.311799	0.707953	-0.045394
N64	N	0.135194	0.688971	-0.073906
N65	N	0.077614	0.688967	-0.073909
C66	C	0.075354	0.633723	-0.000014
N67	N	0.132854	0.578471	0.073882
N68	N	0.190440	0.578473	0.073883
C69	C	0.192255	0.633725	-0.000009
C70	C	0.016435	0.559489	0.045392
C71	C	-0.044183	0.559491	0.045398
C72	C	-0.118406	0.707962	-0.045422
C73	C	-0.057788	0.707958	-0.045419
C74	C	0.009630	0.633719	-0.000015
C75	C	0.823889	0.633721	-0.000009
C76	C	0.888401	0.633723	-0.000012
C77	C	0.633802	0.633725	-0.232557
C78	C	0.633799	0.633727	-0.311485
C79	C	0.633828	0.823787	0.000007
C80	C	0.633834	0.888295	0.000010
C81	C	0.596688	0.707957	-0.393971
C82	C	0.596695	0.707954	-0.468129
C83	C	0.633809	0.633721	-0.459798
C84	C	0.670925	0.559486	-0.377303
C85	C	0.670922	0.559489	-0.303147
C86	C	0.670927	0.559484	-0.531870
C87	C	0.670929	0.559480	-0.606031
C88	C	0.596701	0.707948	-0.696852
C89	C	0.596698	0.707952	-0.622696
C90	C	0.633812	0.633716	-0.540206
C91	C	0.633816	0.633711	0.232555
C92	C	0.633819	0.633709	0.311483
C93	C	0.823870	0.443652	-0.000018
C94	C	0.888375	0.379146	-0.000023
C95	C	0.633797	0.443642	0.232547
C96	C	0.633793	0.379132	0.311472
C97	C	0.823877	0.443646	0.232538
C98	C	0.888385	0.379137	0.311460
C99	C	0.443740	0.823791	-0.232540
C100	C	0.379233	0.888300	-0.311462
C101	C	0.443748	0.823784	0.000016
C102	C	0.379243	0.888291	0.000021
C103	C	0.633821	0.823794	-0.232549
C104	C	0.633825	0.888304	-0.311473
C105	C	0.881549	0.348854	-0.045443
C106	C	0.942153	0.288251	-0.045466
C107	C	1.009581	0.257938	-0.000063
C108	C	1.016406	0.288236	0.045358
C109	C	0.955803	0.348842	0.045375
C110	C	0.670909	0.348837	0.393953
C111	C	0.670903	0.288232	0.468118
C112	C	0.633784	0.257918	0.459800
C113	C	0.596663	0.288220	0.377310
C114	C	0.596666	0.348828	0.303147
C115	C	0.955800	0.348845	0.303110
C116	C	1.016418	0.288240	0.377258
C117	C	1.009618	0.257925	0.459756
C118	C	0.942196	0.288223	0.468104
C119	C	0.881580	0.348830	0.393957
C120	C	0.311818	0.918599	-0.303112
C121	C	0.251200	0.979223	-0.377260
C122	C	0.257999	1.009541	-0.459758
C123	C	0.325422	0.979239	-0.468106
C124	C	0.386038	0.918621	-0.393959
C125	C	0.386069	0.918589	0.045434
C126	C	0.325465	0.979208	0.045436
C127	C	0.258036	1.009524	0.000030
C128	C	0.251211	0.979223	-0.045387
C129	C	0.311814	0.918609	-0.045394
C130	C	0.670951	0.918598	-0.303128
C131	C	0.670969	0.979204	-0.377279
C132	C	0.633855	1.009519	-0.459775
C133	C	0.596728	0.979219	-0.468119
C134	C	0.596715	0.918610	-0.393968
H135	H	0.729029	0.168316	0.116500
H136	H	0.566479	0.893951	-0.400776
H137	H	0.566472	0.768399	-0.629485
N138	N	0.332753	1.011938	-0.557087
H139	H	0.309261	1.072782	-0.589873
H140	H	0.309256	1.001336	-0.589801
N141	N	0.178487	1.011896	-0.368244
H142	H	0.183383	0.983481	-0.304730
H143	H	0.151713	1.001355	-0.397038
N144	N	0.556633	0.255517	0.368345
H145	H	0.562273	0.212521	0.427848
H146	H	0.576127	0.230407	0.335560
H147	H	1.071310	0.263578	0.370445
H148	H	0.936670	0.263531	0.535284
H149	H	0.701147	0.499044	-0.370525
H150	H	0.440929	0.893952	-0.400768
H151	H	0.701173	0.893925	-0.235962
H152	H	0.633787	0.208567	0.520196
H153	H	1.058981	0.208574	0.520124
H154	H	0.538602	-0.010854	-0.116502
N155	N	0.458791	0.885900	0.094410
H156	H	0.453908	0.914303	0.123171
H157	H	0.485555	0.896449	0.052709
N158	N	0.633862	1.074897	-0.539752
H159	H	0.654984	1.053808	-0.575451
H160	H	0.663000	1.089465	-0.521877
N161	N	0.710947	0.479417	-0.597050
H162	H	0.734459	0.432389	-0.533542
H163	H	0.748260	0.476179	-0.625845
H164	H	0.701134	0.263568	0.535277
N165	N	0.556588	0.381543	0.214186
H166	H	0.533062	0.353152	0.220179
H167	H	0.590630	0.371022	0.181389
H168	H	0.701141	0.499044	-0.235983
H169	H	1.058922	0.208588	-0.000083
N170	N	0.192676	1.074887	0.000060
H171	H	0.148921	1.089496	-0.035591
H172	H	0.192721	1.125136	-0.025756
N173	N	0.304478	0.885910	-0.214136
H174	H	0.327960	0.825068	-0.181345
H175	H	0.252556	0.914370	-0.220179
H176	H	0.208636	1.058900	-0.520126
N177	N	0.963144	0.381528	0.214136
H178	H	1.015054	0.353135	0.220110
H179	H	0.939614	0.442373	0.181386
H180	H	0.330948	0.499038	0.082381
N181	N	0.556700	1.011920	-0.557098
H182	H	0.562344	1.054914	-0.602799
H183	H	0.504793	1.037030	-0.563970
H184	H	0.826690	0.373486	0.400768
N185	N	0.332835	1.011882	0.094425
H186	H	0.384748	0.983470	0.123193
H187	H	0.309302	1.001337	0.140079
N188	N	1.089133	0.255531	0.094340
H189	H	1.094830	0.301764	0.070533
H190	H	1.126441	0.212526	0.087424
N191	N	0.742932	-0.097179	0.133484
H192	H	0.720030	-0.074370	0.167227
H193	H	0.770494	-0.074365	0.105397
H194	H	0.196303	1.003915	-0.082355
H195	H	0.306246	0.893941	-0.082372
N196	N	0.711017	1.011875	-0.368268
H197	H	0.734518	0.983476	-0.304754
H198	H	0.676947	1.072721	-0.397056
H199	H	0.538563	0.358751	-0.116513
N200	N	0.742896	0.272424	0.133465
H201	H	0.740605	0.238921	0.192424
H202	H	0.734899	0.323421	0.123650
N203	N	0.524677	0.490620	-0.133500
H204	H	0.491430	0.495470	-0.174184
H205	H	0.547642	0.518047	-0.167176
H206	H	0.440913	0.499035	0.082375
N207	N	0.742939	-0.223177	0.133486
H208	H	0.740653	-0.235582	0.192448
H209	H	0.791094	-0.235504	0.130591
N210	N	0.524731	0.121007	-0.133495
H211	H	0.491487	0.125856	-0.174182
H212	H	0.547701	0.148428	-0.167166
H213	H	0.196286	0.768393	-0.082373
H214	H	0.306253	0.768400	-0.082361
N215	N	0.089151	0.479420	0.094367
H216	H	0.094827	0.446967	0.157893
H217	H	0.126475	0.490748	0.087409
N218	N	-0.036844	0.479427	0.094371
H219	H	0.015063	0.432401	0.123132
H220	H	-0.060381	0.476200	0.052670
H221	H	-0.173300	0.768402	-0.082397
N222	N	-0.065122	0.788018	-0.094399
H223	H	-0.091899	0.820476	-0.070583
H224	H	-0.091873	0.820401	-0.157914
N225	N	0.556654	0.788023	-0.402959
H226	H	0.533147	0.835046	-0.466470
H227	H	0.590735	0.791259	-0.374169
N228	N	0.556707	0.788015	-0.557097
H229	H	0.533204	0.835042	-0.551122
H230	H	0.519389	0.791281	-0.589885
H231	H	0.566478	0.768393	-0.764021
H232	H	0.701151	0.499033	-0.464704
H233	H	0.826650	0.373534	-0.082426
H234	H	0.961371	0.373498	0.082367
N235	N	0.934783	0.255581	-0.094459
H236	H	0.882870	0.283978	-0.123209
H237	H	0.958312	0.194735	-0.052772
H238	H	0.701137	0.373512	0.400742
