data_functionalizedCrystal
_audit_creation_method	'MofGen! by Chris Wilmer'
_symmetry_space_group_name_H-M	'P1'
_symmetry_Int_Tables_number	1
_symmetry_cell_setting	triclinic
loop_
_symmetry_equiv_pos_as_xyz
  x,y,z
_cell_length_a	15.944551
_cell_length_b	27.732048
_cell_length_c	14.421503
_cell_angle_alpha	89.999321
_cell_angle_beta	89.996859
_cell_angle_gamma	83.070697
loop_
_atom_site_label
_atom_site_type_symbol
_atom_site_fract_x
_atom_site_fract_y
_atom_site_fract_z
O1	O	1.113714	0.062334	-0.077025
O2	O	1.363714	0.312334	0.172975
O3	O	1.613714	0.562334	0.422975
O4	O	1.863714	0.812334	0.672975
O5	O	0.869064	0.070020	-0.077050
O6	O	1.119064	0.320020	0.172950
O7	O	1.369064	0.570020	0.422950
O8	O	1.619064	0.820020	0.672950
O9	O	0.998987	-0.004187	-0.077019
O10	O	1.248987	0.245813	0.172981
O11	O	1.498987	0.495813	0.422981
O12	O	1.748987	0.745813	0.672981
O13	O	0.983791	0.136540	-0.077056
O14	O	1.233791	0.386540	0.172944
O15	O	1.483791	0.636540	0.422944
O16	O	1.733791	0.886540	0.672944
O17	O	0.998966	-0.004176	0.077204
O18	O	1.248966	0.245824	0.327204
O19	O	1.498966	0.495824	0.577204
O20	O	1.748966	0.745824	0.827204
O21	O	0.869042	0.070031	0.077174
O22	O	1.119042	0.320031	0.327174
O23	O	1.369042	0.570031	0.577174
O24	O	1.619042	0.820031	0.827174
O25	O	1.113693	0.062345	0.077198
O26	O	1.363693	0.312345	0.327198
O27	O	1.613693	0.562345	0.577198
O28	O	1.863693	0.812345	0.827198
Cu29	Cu	0.991366	0.066189	0.091268
Cu30	Cu	1.241366	0.316189	0.341268
Cu31	Cu	1.491366	0.566189	0.591268
Cu32	Cu	1.741366	0.816189	0.841268
Cu33	Cu	0.991391	0.066176	-0.091119
Cu34	Cu	1.241391	0.316176	0.158881
Cu35	Cu	1.491391	0.566176	0.408881
Cu36	Cu	1.741391	0.816176	0.658881
O37	O	0.983769	0.136552	0.077168
O38	O	1.233769	0.386552	0.327168
O39	O	1.483769	0.636552	0.577168
O40	O	1.733769	0.886552	0.827168
C41	C	0.837763	0.069706	0.000059
C42	C	1.087763	0.319706	0.250059
C43	C	1.337763	0.569706	0.500059
C44	C	1.587763	0.819706	0.750059
C45	C	0.744530	0.068749	0.000051
C46	C	0.994530	0.318749	0.250051
C47	C	1.244530	0.568749	0.500051
C48	C	1.494530	0.818749	0.750051
C49	C	0.530305	0.020466	0.000081
C50	C	0.780305	0.270466	0.250081
C51	C	1.030305	0.520466	0.500081
C52	C	1.280305	0.770466	0.750081
C53	C	0.469002	0.042882	-0.075965
C54	C	0.719002	0.292882	0.174035
C55	C	0.969002	0.542882	0.424035
C56	C	1.219002	0.792882	0.674035
C57	C	0.573827	0.067019	0.000062
C58	C	0.823827	0.317019	0.250062
C59	C	1.073827	0.567019	0.500062
C60	C	1.323827	0.817019	0.750062
C61	C	0.469003	0.042904	0.076087
C62	C	0.719003	0.292904	0.326087
C63	C	0.969003	0.542904	0.576087
C64	C	1.219003	0.792904	0.826087
C65	C	0.408936	0.065344	0.000077
C66	C	0.658936	0.315344	0.250077
C67	C	0.908936	0.565344	0.500077
C68	C	1.158936	0.815344	0.750077
C69	C	0.513752	0.089447	-0.076047
C70	C	0.763752	0.339447	0.173953
C71	C	1.013752	0.589447	0.423953
C72	C	1.263752	0.839447	0.673953
C73	C	0.513759	0.089463	0.076074
C74	C	0.763759	0.339463	0.326074
C75	C	1.013759	0.589463	0.576074
C76	C	1.263759	0.839463	0.826074
C77	C	0.452474	0.111912	0.000009
C78	C	0.702474	0.361912	0.250009
C79	C	0.952474	0.611912	0.500009
C80	C	1.202474	0.861912	0.750009
C81	C	0.668816	0.067983	0.000053
C82	C	0.918816	0.317983	0.250053
C83	C	1.168816	0.567983	0.500053
C84	C	1.418816	0.817983	0.750053
C85	C	0.313947	0.064384	0.000080
C86	C	0.563947	0.314384	0.250080
C87	C	0.813947	0.564384	0.500080
C88	C	1.063947	0.814384	0.750080
C89	C	0.998658	-0.022190	0.000095
C90	C	1.248658	0.227810	0.250095
C91	C	1.498658	0.477810	0.500095
C92	C	1.748658	0.727810	0.750095
C93	C	0.997697	-0.075849	0.000103
C94	C	1.247697	0.174151	0.250103
C95	C	1.497697	0.424151	0.500103
C96	C	1.747697	0.674151	0.750103
C97	C	1.068426	-0.414358	0.000062
C98	C	1.318426	-0.164358	0.250062
C99	C	1.568426	0.085642	0.500062
C100	C	1.818426	0.335642	0.750062
C101	C	1.064862	-0.616033	0.000049
C102	C	1.314862	-0.366033	0.250049
C103	C	1.564862	-0.116033	0.500049
C104	C	1.814862	0.133967	0.750049
O105	O	1.129539	-0.647008	0.000015
O106	O	1.379539	-0.397008	0.250015
O107	O	1.629539	-0.147008	0.500015
O108	O	1.879539	0.102992	0.750015
N109	N	0.987823	-0.635490	0.000042
N110	N	1.237823	-0.385490	0.250042
N111	N	1.487823	-0.135490	0.500042
N112	N	1.737823	0.114510	0.750042
C113	C	0.911669	-0.604525	0.000032
C114	C	1.161669	-0.354525	0.250032
C115	C	1.411669	-0.104525	0.500032
C116	C	1.661669	0.145475	0.750032
O117	O	0.846061	-0.625703	0.000017
O118	O	1.096061	-0.375703	0.250017
O119	O	1.346061	-0.125703	0.500017
O120	O	1.596061	0.124297	0.750017
C121	C	0.915234	-0.402851	0.000039
C122	C	1.165234	-0.152851	0.250039
C123	C	1.415234	0.097149	0.500039
C124	C	1.665234	0.347149	0.750039
C125	C	0.992278	-0.383397	0.000055
C126	C	1.242278	-0.133397	0.250055
C127	C	1.492278	0.116603	0.500055
C128	C	1.742278	0.366603	0.750055
C129	C	1.145464	-0.394903	0.000077
C130	C	1.395464	-0.144903	0.250077
C131	C	1.645464	0.105097	0.500077
C132	C	1.895464	0.355097	0.750077
C133	C	1.146354	-0.344487	0.000086
C134	C	1.396354	-0.094487	0.250086
C135	C	1.646354	0.155513	0.500086
C136	C	1.896354	0.405513	0.750086
C137	C	1.070206	-0.313526	0.000079
C138	C	1.320206	-0.063526	0.250079
C139	C	1.570206	0.186474	0.500079
C140	C	1.820206	0.436474	0.750079
C141	C	0.993168	-0.332981	0.000064
C142	C	1.243168	-0.082981	0.250064
C143	C	1.493168	0.167019	0.500064
C144	C	1.743168	0.417019	0.750064
C145	C	0.839081	-0.371887	0.000023
C146	C	1.089081	-0.121887	0.250023
C147	C	1.339081	0.128113	0.500023
C148	C	1.589081	0.378113	0.750023
C149	C	0.839979	-0.321466	0.000022
C150	C	1.089979	-0.071466	0.250022
C151	C	1.339979	0.178534	0.500022
C152	C	1.589979	0.428534	0.750022
C153	C	0.917024	-0.302012	0.000038
C154	C	1.167024	-0.052012	0.250038
C155	C	1.417024	0.197988	0.500038
C156	C	1.667024	0.447988	0.750038
C157	C	0.917911	-0.251604	0.000065
C158	C	1.167911	-0.001604	0.250065
C159	C	1.417911	0.248396	0.500065
C160	C	1.667911	0.498396	0.750065
N161	N	0.994950	-0.232147	0.000072
N162	N	1.244950	0.017853	0.250072
N163	N	1.494950	0.267853	0.500072
N164	N	1.744950	0.517853	0.750072
C165	C	1.071098	-0.263108	0.000079
C166	C	1.321098	-0.013108	0.250079
C167	C	1.571098	0.236892	0.500079
C168	C	1.821098	0.486892	0.750079
C169	C	0.909803	-0.710408	0.000031
C170	C	1.159803	-0.460408	0.250031
C171	C	1.409803	-0.210408	0.500031
C172	C	1.659803	0.039592	0.750031
C173	C	0.908912	-0.760826	0.000031
C174	C	1.158912	-0.510826	0.250031
C175	C	1.408912	-0.260826	0.500031
C176	C	1.658912	-0.010826	0.750031
C177	C	1.062105	-0.772330	0.000045
C178	C	1.312105	-0.522330	0.250045
C179	C	1.562105	-0.272330	0.500045
C180	C	1.812105	-0.022330	0.750045
C181	C	1.062995	-0.721911	0.000052
C182	C	1.312995	-0.471911	0.250052
C183	C	1.562995	-0.221911	0.500052
C184	C	1.812995	0.028089	0.750052
C185	C	0.986842	-0.690950	0.000038
C186	C	1.236842	-0.440950	0.250038
C187	C	1.486842	-0.190950	0.500038
C188	C	1.736842	0.059050	0.750038
C189	C	1.072961	-0.157231	0.000097
C190	C	1.322961	0.092769	0.250097
C191	C	1.572961	0.342769	0.500097
C192	C	1.822961	0.592769	0.750097
C193	C	1.073845	-0.106810	0.000109
C194	C	1.323845	0.143190	0.250109
C195	C	1.573845	0.393190	0.500109
C196	C	1.823845	0.643190	0.750109
C197	C	0.920652	-0.095310	0.000090
C198	C	1.170652	0.154690	0.250090
C199	C	1.420652	0.404690	0.500090
C200	C	1.670652	0.654690	0.750090
C201	C	0.919768	-0.145727	0.000083
C202	C	1.169768	0.104273	0.250083
C203	C	1.419768	0.354273	0.500083
C204	C	1.669768	0.604273	0.750083
C205	C	0.995930	-0.176686	0.000083
C206	C	1.245930	0.073314	0.250083
C207	C	1.495930	0.323314	0.500083
C208	C	1.745930	0.573314	0.750083
O209	O	0.853269	-0.220600	0.000089
O210	O	1.103269	0.029400	0.250089
O211	O	1.353269	0.279400	0.500089
O212	O	1.603269	0.529400	0.750089
O213	O	1.136697	-0.241921	0.000074
O214	O	1.386697	0.008079	0.250074
O215	O	1.636697	0.258079	0.500074
O216	O	1.886697	0.508079	0.750074
C217	C	1.067536	-0.464774	0.000054
C218	C	1.317536	-0.214774	0.250054
C219	C	1.567536	0.035226	0.500054
C220	C	1.817536	0.285226	0.750054
C221	C	0.990498	-0.484228	0.000039
C222	C	1.240498	-0.234228	0.250039
C223	C	1.490498	0.015772	0.500039
C224	C	1.740498	0.265772	0.750039
C225	C	0.914350	-0.453268	0.000032
C226	C	1.164350	-0.203268	0.250032
C227	C	1.414350	0.046732	0.500032
C228	C	1.664350	0.296732	0.750032
C229	C	0.989607	-0.534647	0.000039
C230	C	1.239607	-0.284647	0.250039
C231	C	1.489607	-0.034647	0.500039
C232	C	1.739607	0.215353	0.750039
C233	C	1.065754	-0.565608	0.000045
C234	C	1.315754	-0.315608	0.250045
C235	C	1.565754	-0.065608	0.500045
C236	C	1.815754	0.184392	0.750045
C237	C	1.142794	-0.546150	0.000052
C238	C	1.392794	-0.296150	0.250052
C239	C	1.642794	-0.046150	0.500052
C240	C	1.892794	0.203850	0.750052
C241	C	1.143684	-0.495734	0.000061
C242	C	1.393684	-0.245734	0.250061
C243	C	1.643684	0.004266	0.500061
C244	C	1.893684	0.254266	0.750061
C245	C	0.837311	-0.472725	0.000025
C246	C	1.087311	-0.222725	0.250025
C247	C	1.337311	0.027275	0.500025
C248	C	1.587311	0.277275	0.750025
C249	C	0.836427	-0.523141	0.000018
C250	C	1.086427	-0.273141	0.250018
C251	C	1.336427	-0.023141	0.500018
C252	C	1.586427	0.226859	0.750018
C253	C	0.912575	-0.554102	0.000024
C254	C	1.162575	-0.304102	0.250024
C255	C	1.412575	-0.054102	0.500024
C256	C	1.662575	0.195898	0.750024
C257	C	1.144993	0.062658	0.000087
C258	C	1.394993	0.312658	0.250087
C259	C	1.644993	0.562658	0.500087
C260	C	1.894993	0.812658	0.750087
C261	C	1.238227	0.063615	0.000090
C262	C	1.488227	0.313615	0.250090
C263	C	1.738227	0.563615	0.500090
C264	C	1.988227	0.813615	0.750090
C265	C	0.984099	0.154554	0.000051
C266	C	1.234099	0.404554	0.250051
C267	C	1.484099	0.654554	0.500051
C268	C	1.734099	0.904554	0.750051
C269	C	0.985059	0.208213	0.000038
C270	C	1.235059	0.458213	0.250038
C271	C	1.485059	0.708213	0.500038
C272	C	1.735059	0.958213	0.750038
N273	N	0.991354	0.066198	0.219549
N274	N	1.241354	0.316198	0.469549
N275	N	1.491354	0.566198	0.719549
N276	N	1.741354	0.816198	0.969549
N277	N	0.991409	0.066163	-0.219401
N278	N	1.241409	0.316163	0.030599
N279	N	1.491409	0.566163	0.280599
N280	N	1.741409	0.816163	0.530599
C281	C	0.931267	0.100495	0.469189
C282	C	1.181267	0.350495	0.719189
C283	C	1.431267	0.600495	0.969189
C284	C	1.681267	0.850495	1.219189
C285	C	1.007044	0.109880	0.530996
C286	C	1.257044	0.359880	0.780996
C287	C	1.507044	0.609880	1.030996
C288	C	1.757044	0.859880	1.280996
C289	C	0.991374	0.066186	0.408710
C290	C	1.241374	0.316186	0.658710
C291	C	1.491374	0.566186	0.908710
C292	C	1.741374	0.816186	1.158710
C293	C	0.915616	0.056813	0.530997
C294	C	1.165616	0.306813	0.780997
C295	C	1.415616	0.556813	1.030997
C296	C	1.665616	0.806813	1.280997
C297	C	0.991387	0.066176	0.591432
C298	C	1.241387	0.316176	0.841432
C299	C	1.491387	0.566176	1.091432
C300	C	1.741387	0.816176	1.341432
C301	C	1.067190	0.075592	0.469157
C302	C	1.317190	0.325592	0.719157
C303	C	1.567190	0.575592	0.969157
C304	C	1.817190	0.825592	1.219157
C305	C	0.975712	0.022507	0.469153
C306	C	1.225712	0.272507	0.719153
C307	C	1.475712	0.522507	0.969153
C308	C	1.725712	0.772507	1.219153
C309	C	1.051545	0.031872	0.530932
C310	C	1.301545	0.281872	0.780932
C311	C	1.551545	0.531872	1.030932
C312	C	1.801545	0.781872	1.280932
C313	C	0.991366	0.066193	0.303449
C314	C	1.241366	0.316193	0.553449
C315	C	1.491366	0.566193	0.803449
C316	C	1.741366	0.816193	1.053449
C317	C	0.991405	0.066169	0.696691
C318	C	1.241405	0.316169	0.946691
C319	C	1.491405	0.566169	1.196691
C320	C	1.741405	0.816169	1.446691
H321	H	1.136586	-0.090973	0.000125
H322	H	1.386586	0.159027	0.250125
H323	H	1.636586	0.409027	0.500125
H324	H	1.886586	0.659027	0.750125
H325	H	0.775301	-0.447521	0.000017
H326	H	1.025301	-0.197521	0.250017
H327	H	1.275301	0.052479	0.500017
H328	H	1.525301	0.302479	0.750017
H329	H	1.131276	0.083559	0.442107
H330	H	1.381276	0.333559	0.692107
H331	H	1.631276	0.583559	0.942107
H332	H	1.881276	0.833559	1.192107
H333	H	1.207476	-0.420107	0.000079
H334	H	1.457476	-0.170107	0.250079
H335	H	1.707476	0.079893	0.500079
H336	H	1.957476	0.329893	0.750079
H337	H	1.124107	-0.797547	0.000051
H338	H	1.374107	-0.547547	0.250051
H339	H	1.624107	-0.297547	0.500051
H340	H	1.874107	-0.047547	0.750051
H341	H	1.102436	0.002852	0.557872
H342	H	1.352436	0.252852	0.807872
H343	H	1.602436	0.502852	1.057872
H344	H	1.852436	0.752852	1.307872
H345	H	0.962429	-0.014416	0.441967
H346	H	1.212429	0.235584	0.691967
H347	H	1.462429	0.485584	0.941967
H348	H	1.712429	0.735584	1.191967
H349	H	0.533624	0.109141	0.140358
H350	H	0.783624	0.359141	0.390358
H351	H	1.033624	0.609141	0.640358
H352	H	1.283624	0.859141	0.890358
H353	H	0.564143	-0.018169	-0.000003
H354	H	0.814143	0.231831	0.249997
H355	H	1.064143	0.481831	0.499997
H356	H	1.314143	0.731831	0.749997
H357	H	1.134979	-0.182432	0.000094
H358	H	1.384979	0.067568	0.250094
H359	H	1.634979	0.317568	0.500094
H360	H	1.884979	0.567568	0.750094
H361	H	0.418809	0.150587	-0.000044
H362	H	0.668809	0.400587	0.249956
H363	H	0.918809	0.650587	0.499956
H364	H	1.168809	0.900587	0.749956
H365	H	0.449158	0.023187	-0.140246
H366	H	0.699158	0.273187	0.109754
H367	H	0.949158	0.523187	0.359754
H368	H	1.199158	0.773187	0.609754
H369	H	0.533491	0.109118	-0.140408
H370	H	0.783491	0.359118	0.109592
H371	H	1.033491	0.609118	0.359592
H372	H	1.283491	0.859118	0.609592
H373	H	1.206421	-0.479900	0.000073
H374	H	1.456421	-0.229900	0.250073
H375	H	1.706421	0.020100	0.500073
H376	H	1.956421	0.270100	0.750073
H377	H	0.851544	0.048890	0.558163
H378	H	1.101544	0.298890	0.808163
H379	H	1.351544	0.548890	1.058163
H380	H	1.601544	0.798890	1.308163
H381	H	0.449165	0.023210	0.140376
H382	H	0.699165	0.273210	0.390376
H383	H	0.949165	0.523210	0.640376
H384	H	1.199165	0.773210	0.890376
H385	H	1.209091	-0.328652	0.000095
H386	H	1.459091	-0.078652	0.250095
H387	H	1.709091	0.171348	0.500095
H388	H	1.959091	0.421348	0.750095
H389	H	0.846175	-0.776661	0.000034
H390	H	1.096175	-0.526661	0.250034
H391	H	1.346175	-0.276661	0.500034
H392	H	1.596175	-0.026661	0.750034
H393	H	1.125732	-0.706075	0.000065
H394	H	1.375732	-0.456075	0.250065
H395	H	1.625732	-0.206075	0.500065
H396	H	1.875732	0.043925	0.750065
H397	H	0.776344	-0.387718	0.000004
H398	H	1.026344	-0.137718	0.250004
H399	H	1.276344	0.112282	0.500004
H400	H	1.526344	0.362282	0.750004
H401	H	0.847786	-0.685203	0.000019
H402	H	1.097786	-0.435203	0.250019
H403	H	1.347786	-0.185203	0.500019
H404	H	1.597786	0.064797	0.750019
H405	H	0.777965	-0.296260	0.000009
H406	H	1.027965	-0.046260	0.250009
H407	H	1.277965	0.203740	0.500009
H408	H	1.527965	0.453740	0.750009
H409	H	0.857033	-0.161567	0.000095
H410	H	1.107033	0.088433	0.250095
H411	H	1.357033	0.338433	0.500095
H412	H	1.607033	0.588433	0.750095
H413	H	0.858655	-0.070093	0.000088
H414	H	1.108655	0.179907	0.250088
H415	H	1.358655	0.429907	0.500088
H416	H	1.608655	0.679907	0.750088
H417	H	1.204796	-0.571368	0.000062
H418	H	1.454796	-0.321368	0.250062
H419	H	1.704796	-0.071368	0.500062
H420	H	1.954796	0.178632	0.750062
H421	H	0.773684	-0.538976	0.000013
H422	H	1.023684	-0.288976	0.250013
H423	H	1.273684	-0.038976	0.500013
H424	H	1.523684	0.211024	0.750013
H425	H	0.880487	0.129533	0.442079
H426	H	1.130487	0.379533	0.692079
H427	H	1.380487	0.629533	0.942079
H428	H	1.630487	0.879533	1.192079
H429	H	1.020304	0.146814	0.558160
H430	H	1.270304	0.396814	0.808160
H431	H	1.520304	0.646814	1.058160
H432	H	1.770304	0.896814	1.308160
