data_functionalizedCrystal
_audit_creation_method	'MofGen! by Chris Wilmer'
_symmetry_space_group_name_H-M	'P1'
_symmetry_Int_Tables_number	1
_symmetry_cell_setting	triclinic
loop_
_symmetry_equiv_pos_as_xyz
  x,y,z
_cell_length_a	17.699083
_cell_length_b	15.944551
_cell_length_c	16.776229
_cell_angle_alpha	89.992397
_cell_angle_beta	89.998886
_cell_angle_gamma	83.390877
loop_
_atom_site_label
_atom_site_type_symbol
_atom_site_fract_x
_atom_site_fract_y
_atom_site_fract_z
O1	O	1.004260	0.106222	-0.066178
O2	O	0.783905	0.120042	-0.066204
O3	O	0.900100	-0.009156	-0.066183
O4	O	0.888065	0.235419	-0.066199
O5	O	0.900084	-0.009164	0.066393
O6	O	0.783890	0.120034	0.066372
O7	O	1.004244	0.106214	0.066398
Zn8	Zn	0.894065	0.113123	0.087435
Zn9	Zn	0.894085	0.113133	-0.087241
O10	O	0.888050	0.235411	0.066377
C11	C	0.755700	0.119542	0.000080
C12	C	0.671679	0.118057	0.000071
C13	C	0.899593	-0.040453	0.000105
C14	C	0.898095	-0.133696	0.000105
C15	C	0.623187	0.193893	0.000066
C16	C	0.544242	0.192492	0.000076
C17	C	0.513789	0.115254	0.000086
C18	C	0.562287	0.039412	0.000093
C19	C	0.641231	0.040814	0.000088
C20	C	0.243914	0.033758	0.000113
C21	C	0.164964	0.032362	0.000115
C22	C	0.146925	0.185436	0.000101
C23	C	0.225869	0.186837	0.000096
C24	C	0.274360	0.110996	0.000108
C25	C	0.359962	0.112516	0.000098
C26	C	0.428189	0.113733	0.000090
C27	C	0.822492	-0.348393	0.000085
C28	C	0.857592	-0.409488	0.065458
C29	C	0.895385	-0.304416	0.000099
C30	C	0.857624	-0.409464	-0.065252
C31	C	0.892762	-0.469323	0.000089
C32	C	0.930505	-0.364283	0.065525
C33	C	0.930527	-0.364252	-0.065244
C34	C	0.965680	-0.425329	0.000145
C35	C	0.896894	-0.209417	0.000105
C36	C	0.891259	-0.564321	0.000089
C37	C	1.032450	0.106713	0.000112
C38	C	1.116471	0.108199	0.000116
C39	C	0.888557	0.266708	0.000087
C40	C	0.890055	0.359951	0.000082
N41	N	0.894056	0.113115	0.206646
N42	N	0.894099	0.113134	-0.206452
C43	C	0.945523	0.055930	0.248372
C44	C	0.945527	0.055929	0.331824
C45	C	0.894068	0.113118	0.373549
C46	C	0.842595	0.170306	0.331816
C47	C	0.842588	0.170302	0.248366
C48	C	0.842623	0.170323	0.668364
C49	C	0.842636	0.170324	0.751820
C50	C	0.945562	0.055949	0.751822
C51	C	0.945555	0.055945	0.668372
C52	C	0.894080	0.113130	0.626647
C53	C	0.894075	0.113129	0.536158
C54	C	0.894076	0.113124	0.464036
H55	H	0.647975	0.256789	0.000058
C56	C	0.694572	-0.042612	0.000091
N57	N	0.734747	-0.105451	0.000095
H58	H	0.987473	0.009384	0.785804
H59	H	0.826790	-0.429473	-0.120524
H60	H	0.800692	0.216868	0.365793
C61	C	0.297244	-0.049671	0.000120
N62	N	0.337415	-0.112513	0.000124
H63	H	0.800712	0.216886	0.634398
H64	H	1.026238	-0.458615	0.000189
C65	C	0.786018	0.233234	0.797715
N66	N	0.743376	0.280615	0.832283
C67	C	0.972151	-0.337136	-0.139902
N68	N	1.003496	-0.316710	-0.196141
C69	C	1.002162	-0.006969	0.622480
N70	N	1.044798	-0.054360	0.587915
H71	H	0.537486	-0.023476	0.000112
H72	H	0.761987	-0.314958	0.000143
H73	H	0.826754	-0.429535	0.120718
C74	C	0.490904	0.275918	0.000085
N75	N	0.450730	0.338758	0.000098
C76	C	0.785977	0.233217	0.202467
N77	N	0.743336	0.280607	0.167897
C78	C	1.002133	-0.006984	0.202483
N79	N	1.044771	-0.054376	0.167922
H80	H	0.250659	0.249732	0.000085
C81	C	0.093578	0.268864	0.000099
N82	N	0.053398	0.331700	0.000097
C83	C	0.131468	-0.052610	0.000135
N84	N	0.106239	-0.116607	0.000152
H85	H	0.987435	0.009364	0.365798
H86	H	0.961304	-0.344360	0.120853
