data_functionalizedCrystal
_audit_creation_method	'MofGen! by Chris Wilmer'
_symmetry_space_group_name_H-M	'P1'
_symmetry_Int_Tables_number	1
_symmetry_cell_setting	triclinic
loop_
_symmetry_equiv_pos_as_xyz
  x,y,z
_cell_length_a	19.805407
_cell_length_b	21.295417
_cell_length_c	19.805399
_cell_angle_alpha	89.969157
_cell_angle_beta	89.980427
_cell_angle_gamma	90.030507
loop_
_atom_site_label
_atom_site_type_symbol
_atom_site_fract_x
_atom_site_fract_y
_atom_site_fract_z
Zn1	Zn	1.034716	-0.250624	-0.382704
Zn2	Zn	1.034623	-0.355893	-0.269510
Zn3	Zn	0.921531	-0.250641	-0.269529
Zn4	Zn	0.921486	-0.355859	-0.382656
O5	O	0.978089	-0.303254	-0.326100
O6	O	1.129421	-0.264595	-0.367701
O7	O	1.019601	-0.341952	-0.174796
O8	O	0.936603	-0.162549	-0.284570
O9	O	1.129352	-0.341935	-0.284537
O10	O	1.019760	-0.162537	-0.367719
O11	O	0.936513	-0.264624	-0.174810
O12	O	0.826809	-0.264592	-0.284523
O13	O	0.936527	-0.341878	-0.477379
O14	O	0.826776	-0.341895	-0.367638
O15	O	1.019717	-0.264562	-0.477415
O16	O	1.019558	-0.443977	-0.284491
O17	O	0.936437	-0.443953	-0.367619
C18	C	0.802233	-0.303242	-0.326078
C19	C	0.727001	-0.303252	-0.326085
C20	C	0.691658	-0.343564	-0.369292
C21	C	0.620969	-0.343566	-0.369302
C22	C	0.585626	-0.303257	-0.326100
C23	C	0.620974	-0.262940	-0.282890
C24	C	0.691661	-0.262936	-0.282885
C25	C	0.335901	-0.262954	-0.282913
C26	C	0.265209	-0.262962	-0.282920
C27	C	0.265209	-0.343583	-0.369330
C28	C	0.335896	-0.343579	-0.369324
C29	C	0.371238	-0.303261	-0.326117
C30	C	0.447887	-0.303259	-0.326109
C31	C	0.508979	-0.303261	-0.326105
C32	C	0.978001	-0.466806	-0.326062
C33	C	0.978024	-0.536774	-0.326069
C34	C	1.021344	-0.569632	-0.282828
C35	C	1.021376	-0.635375	-0.282844
C36	C	0.978076	-0.668256	-0.326092
C37	C	0.934753	-0.635390	-0.369341
C38	C	0.934728	-0.569649	-0.369330
N39	N	0.918865	-0.771522	-0.331245
N40	N	0.918892	-0.833974	-0.331252
C41	C	0.978152	-0.866331	-0.326131
N42	N	1.037386	-0.833878	-0.320989
N43	N	1.037358	-0.771421	-0.320979
C44	C	0.978099	-0.739542	-0.326110
C45	C	1.021509	-0.970475	-0.282905
C46	C	1.021542	-1.036219	-0.282925
C47	C	0.934914	-1.036233	-0.369419
C48	C	0.934887	-0.970490	-0.369402
C49	C	0.978184	-0.937615	-0.326142
C50	C	1.154632	-0.303267	-0.326122
C51	C	1.229864	-0.303272	-0.326132
C52	C	0.978127	-0.303214	-0.502643
C53	C	0.978143	-0.303198	-0.577875
C54	C	0.978197	-0.139064	-0.326152
C55	C	0.978243	-0.069096	-0.326175
C56	C	1.021461	-0.262937	-0.613238
C57	C	1.021468	-0.262919	-0.683927
C58	C	0.978160	-0.303165	-0.719250
C59	C	0.934838	-0.343427	-0.683882
C60	C	0.934828	-0.343442	-0.613195
C61	C	0.934876	-0.343368	-0.968955
C62	C	0.934891	-0.343352	-1.039647
C63	C	1.021516	-0.262846	-1.039687
C64	C	1.021506	-0.262860	-0.969000
C65	C	0.978182	-0.303120	-0.933638
C66	C	0.978174	-0.303138	-0.856989
C67	C	0.978171	-0.303150	-0.795897
C68	C	0.978090	-0.303248	-0.150244
C69	C	0.978205	-0.303088	-0.075012
H70	H	0.236434	-0.230134	-0.247740
N71	N	1.068235	-0.219416	-1.077835
H72	H	1.057751	-0.174441	-1.065543
H73	H	1.116570	-0.229252	-1.065529
N74	N	1.068052	-0.534175	-0.236181
H75	H	1.057578	-0.545655	-0.187811
H76	H	1.116389	-0.545589	-0.246805
H77	H	0.592192	-0.230118	-0.247718
N78	N	0.888143	-0.386797	-0.930838
H79	H	0.915614	-0.415984	-0.901503
H80	H	0.856790	-0.361178	-0.901557
H81	H	0.899661	-1.063004	-0.404636
N82	N	0.888100	-0.386864	-0.575056
H83	H	0.898581	-0.431840	-0.587342
H84	H	0.894680	-0.380713	-0.524928
N85	N	1.068101	-0.670826	-0.236205
H86	H	1.095526	-0.640024	-0.208799
H87	H	1.040574	-0.698145	-0.204865
H88	H	0.899573	-0.376193	-0.712648
H89	H	0.592196	-0.376393	-0.404485
H90	H	0.364668	-0.230129	-0.247726
N91	N	1.068208	-0.935007	-0.236255
H92	H	1.057732	-0.946490	-0.187886
H93	H	1.116549	-0.946410	-0.246874
H94	H	1.056743	-0.230136	-0.712717
H95	H	0.720437	-0.230107	-0.247704
N96	N	0.227090	-0.387071	-0.415934
H97	H	0.176947	-0.380958	-0.409386
H98	H	0.239473	-0.377335	-0.464293
H99	H	0.899499	-0.662166	-0.404556
H100	H	0.899451	-0.542895	-0.404542
H101	H	1.056822	-1.062971	-0.247714
N102	N	0.374017	-0.387059	-0.415916
H103	H	0.340900	-0.412597	-0.443290
H104	H	0.403372	-0.361471	-0.447287
H105	H	0.720429	-0.376391	-0.404470
H106	H	0.899609	-0.943735	-0.404610
H107	H	1.056730	-0.230166	-0.584483
N108	N	1.068220	-0.219456	-0.930901
H109	H	1.095663	-0.193947	-0.964031
H110	H	1.040683	-0.190330	-0.901576
H111	H	0.899621	-0.376126	-1.068406
