data_functionalizedCrystal
_audit_creation_method	'MofGen! by Chris Wilmer'
_symmetry_space_group_name_H-M	'P1'
_symmetry_Int_Tables_number	1
_symmetry_cell_setting	triclinic
loop_
_symmetry_equiv_pos_as_xyz
  x,y,z
_cell_length_a	10.654550
_cell_length_b	19.188930
_cell_length_c	9.130313
_cell_angle_alpha	90.013579
_cell_angle_beta	89.995861
_cell_angle_gamma	83.814856
loop_
_atom_site_label
_atom_site_type_symbol
_atom_site_fract_x
_atom_site_fract_y
_atom_site_fract_z
O1	O	1.665756	0.098066	0.121709
O2	O	1.300079	0.107409	0.121737
O3	O	1.493470	0.001151	0.121693
O4	O	1.472365	0.204324	0.121752
O5	O	1.493475	0.001139	-0.121905
O6	O	1.300084	0.107397	-0.121862
O7	O	1.665760	0.098054	-0.121890
Cu8	Cu	1.482923	0.102724	-0.144118
Cu9	Cu	1.482917	0.102739	0.143965
O10	O	1.472370	0.204312	-0.121847
C11	C	1.253298	0.106717	-0.000059
C12	C	1.113898	0.104665	-0.000049
C13	C	1.492789	-0.024870	-0.000110
C14	C	1.490737	-0.102388	-0.000123
C15	C	1.033089	0.167228	-0.000035
C16	C	0.902109	0.165295	-0.000061
C17	C	0.932761	0.038231	-0.000109
C18	C	1.063738	0.040164	-0.000094
C19	C	1.604213	-0.146570	-0.000138
C20	C	1.602285	-0.219407	-0.000115
C21	C	1.486876	-0.248058	-0.000105
C22	C	1.373386	-0.203866	-0.000081
C23	C	1.375316	-0.131032	-0.000090
N24	N	1.398661	-0.356644	-0.082999
N25	N	1.396834	-0.425835	-0.082994
C26	C	1.481052	-0.467505	-0.000075
N27	N	1.567184	-0.437372	0.082821
N28	N	1.569014	-0.368175	0.082809
C29	C	1.484770	-0.327034	-0.000094
C30	C	1.592445	-0.590665	-0.000063
C31	C	1.590513	-0.663502	-0.000030
C32	C	1.361610	-0.647960	-0.000011
C33	C	1.363545	-0.575124	-0.000029
C34	C	1.478966	-0.546481	-0.000062
C35	C	1.712541	0.098746	-0.000091
C36	C	1.851941	0.100799	-0.000091
C37	C	1.473051	0.230334	-0.000040
C38	C	1.475102	0.307852	-0.000018
N39	N	1.482914	0.102744	0.346588
N40	N	1.482936	0.102714	-0.346741
C41	C	1.407155	0.059911	0.423223
C42	C	1.407169	0.059894	0.576560
C43	C	1.558703	0.145548	0.576613
C44	C	1.558695	0.145561	0.423279
H45	H	1.073924	0.219748	-0.000010
H46	H	1.620400	0.180410	0.639073
H47	H	1.345450	0.025046	0.360786
C48	C	1.323828	0.012781	0.660853
H49	H	1.278690	-0.012711	0.593213
H50	H	1.375560	-0.019045	0.720633
H51	H	1.265794	0.041040	0.720699
H52	H	1.620394	0.180441	0.360881
H53	H	0.836318	0.216240	-0.000053
H54	H	0.891904	-0.014283	-0.000154
H55	H	1.698197	-0.123254	-0.000160
C56	C	1.152635	-0.028658	-0.000103
H57	H	1.104004	-0.067349	-0.000109
H58	H	1.204381	-0.030548	-0.085044
H59	H	1.204350	-0.030539	0.084863
H60	H	1.694693	-0.255386	-0.000122
H61	H	1.279418	-0.227199	-0.000069
C62	C	1.250492	-0.082427	-0.000075
H63	H	1.268172	-0.034946	-0.000075
H64	H	1.203145	-0.091183	-0.085012
H65	H	1.203157	-0.091157	0.084895
H66	H	1.686428	-0.567342	-0.000083
C67	C	1.715342	-0.712103	-0.000050
H68	H	1.784354	-0.684609	-0.000086
H69	H	1.719357	-0.740827	0.084901
H70	H	1.719337	-0.740850	-0.085006
H71	H	1.271141	-0.539150	-0.000024
C72	C	1.234662	-0.679468	0.000005
H73	H	1.249762	-0.729174	0.000002
H74	H	1.187952	-0.664325	0.084955
H75	H	1.187957	-0.664353	-0.084952
