data_functionalizedCrystal
_audit_creation_method	'MofGen! by Chris Wilmer'
_symmetry_space_group_name_H-M	'P1'
_symmetry_Int_Tables_number	1
_symmetry_cell_setting	triclinic
loop_
_symmetry_equiv_pos_as_xyz
  x,y,z
_cell_length_a	19.288867
_cell_length_b	10.540539
_cell_length_c	17.766277
_cell_angle_alpha	90.002391
_cell_angle_beta	90.004231
_cell_angle_gamma	83.831280
loop_
_atom_site_label
_atom_site_type_symbol
_atom_site_fract_x
_atom_site_fract_y
_atom_site_fract_z
O1	O	0.922405	0.158355	0.062564
O2	O	0.720287	0.179712	0.062571
O3	O	0.825957	-0.015776	0.062567
O4	O	0.816735	0.353843	0.062569
O5	O	0.825946	-0.015780	-0.062622
O6	O	0.720276	0.179708	-0.062617
O7	O	0.922393	0.158350	-0.062624
Cu8	Cu	0.821333	0.169028	-0.074051
Cu9	Cu	0.821347	0.169034	0.073999
O10	O	0.816723	0.353838	-0.062620
C11	C	0.694400	0.179022	-0.000022
C12	C	0.617283	0.176958	-0.000019
C13	C	0.061625	0.162092	0.068212
C14	C	0.134085	0.164024	0.068215
C15	C	0.170314	0.164994	-0.000025
C16	C	0.134078	0.163998	-0.068273
C17	C	0.061620	0.162053	-0.068274
C18	C	0.280153	0.242416	-0.052305
C19	C	0.352609	0.244368	-0.052302
C20	C	0.393800	0.170986	-0.000025
C21	C	0.362524	0.095667	0.052260
C22	C	0.290065	0.093723	0.052259
C23	C	0.248883	0.167101	-0.000032
C24	C	0.508597	0.174067	0.068221
C25	C	0.581059	0.175991	0.068221
C26	C	0.581050	0.175978	-0.068269
C27	C	0.508590	0.174041	-0.068267
C28	C	0.472367	0.173092	-0.000020
C29	C	0.825260	-0.063066	-0.000026
C30	C	0.823191	-0.203968	-0.000022
C31	C	0.743902	-0.385628	0.000262
C32	C	0.745999	-0.239057	-0.000020
C33	C	0.860332	-0.266455	-0.071512
C34	C	0.857698	-0.412941	-0.071572
C35	C	0.859281	-0.413489	0.070790
C36	C	0.859992	-0.266523	0.071736
C37	C	0.948280	0.159040	-0.000029
C38	C	1.025398	0.161104	-0.000027
C39	C	0.817421	0.401128	-0.000025
C40	C	0.819490	0.542030	-0.000024
N41	N	0.821329	0.169024	-0.178182
C42	C	0.868150	0.082490	-0.782473
C43	C	0.868151	0.082493	-0.703671
C44	C	0.821348	0.169022	-0.664271
C45	C	0.774552	0.255577	-0.703679
C46	C	0.774557	0.255580	-0.782479
C47	C	0.758168	0.185962	-0.539437
C48	C	0.758163	0.185950	-0.460638
C49	C	0.821332	0.169020	-0.421224
C50	C	0.884511	0.152076	-0.460619
C51	C	0.884516	0.152079	-0.539420
C52	C	0.821337	0.169029	-0.578825
C53	C	0.868129	0.082480	-0.296380
C54	C	0.868131	0.082492	-0.217576
C55	C	0.774527	0.255570	-0.217586
C56	C	0.774531	0.255564	-0.296388
C57	C	0.821331	0.169013	-0.335780
N58	N	0.821358	0.169029	0.178129
H59	H	0.032137	0.161314	0.123784
H60	H	0.163581	0.164785	-0.123835
H61	H	0.264604	0.032393	0.094830
C62	C	0.919617	-0.012710	-0.660319
H63	H	0.912911	-0.000311	-0.607747
H64	H	0.911649	-0.097385	-0.673240
H65	H	0.966045	0.000851	-0.673221
H66	H	0.834303	-0.444483	0.124975
H67	H	0.830239	-0.440531	-0.125011
C68	C	0.620912	0.177085	0.143286
H69	H	0.669255	0.178367	0.133514
H70	H	0.604108	0.250781	0.171318
H71	H	0.613969	0.102764	0.171333
H72	H	0.915036	-0.461957	0.071269
H73	H	0.479093	0.173241	-0.123834
H74	H	0.736453	0.326052	-0.814558
H75	H	0.246622	0.302167	-0.094884
C76	C	0.688673	0.204628	-0.417307
H77	H	0.697716	0.202198	-0.364732
H78	H	0.664322	0.284813	-0.430229
H79	H	0.661114	0.138385	-0.430221
H80	H	0.832816	-0.225057	0.124622
C81	C	0.620893	0.177043	-0.143332
H82	H	0.669235	0.178349	-0.133559
H83	H	0.613946	0.102720	-0.171371
H84	H	0.604086	0.250736	-0.171371
H85	H	0.479103	0.173290	0.123792
H86	H	0.378067	0.305728	-0.094860
H87	H	0.163587	0.164836	0.123785
H88	H	0.032124	0.161254	-0.123844
H89	H	0.716774	-0.195801	0.051227
H90	H	0.916271	-0.243555	0.076051
C91	C	0.702708	-0.423355	0.069510
H92	H	0.731234	-0.483568	0.098868
H93	H	0.689109	-0.349635	0.098951
H94	H	0.662368	-0.460169	0.053430
H95	H	0.713529	-0.415161	-0.050716
H96	H	0.396059	0.035916	0.094831
H97	H	0.716560	-0.196647	-0.051351
H98	H	0.935958	0.138286	-0.571492
H99	H	0.913212	-0.462146	-0.074817
H100	H	0.906259	0.012018	-0.814543
C101	C	0.936909	-0.237959	-0.075114
H102	H	0.946932	-0.187573	-0.032951
H103	H	0.966640	-0.315880	-0.074453
H104	H	0.944393	-0.192815	-0.120158
H105	H	0.834522	-0.223283	-0.124711
H106	H	0.935950	0.138300	-0.428531
H107	H	0.906239	0.012008	-0.328454
H108	H	0.906239	0.012026	-0.185497
H109	H	0.736422	0.326029	-0.185507
H110	H	0.736426	0.326027	-0.328468
C111	C	0.688682	0.204790	-0.582784
H112	H	0.651057	0.214924	-0.548038
H113	H	0.687716	0.278751	-0.613476
H114	H	0.684401	0.132351	-0.613572
C115	C	0.723070	0.350756	-0.660342
H116	H	0.729764	0.338353	-0.607768
H117	H	0.731033	0.435437	-0.673250
H118	H	0.676647	0.337184	-0.673266
