data_functionalizedCrystal
_audit_creation_method	'MofGen! by Chris Wilmer'
_symmetry_space_group_name_H-M	'P1'
_symmetry_Int_Tables_number	1
_symmetry_cell_setting	triclinic
loop_
_symmetry_equiv_pos_as_xyz
  x,y,z
_cell_length_a	10.540539
_cell_length_b	10.540510
_cell_length_c	13.930277
_cell_angle_alpha	89.997952
_cell_angle_beta	89.994842
_cell_angle_gamma	84.519401
loop_
_atom_site_label
_atom_site_type_symbol
_atom_site_fract_x
_atom_site_fract_y
_atom_site_fract_z
O1	O	1.685873	0.178902	-0.079780
O2	O	1.316458	0.195758	-0.079791
O3	O	1.509614	0.002621	-0.079785
O4	O	1.492718	0.372039	-0.079786
O5	O	1.509586	0.002617	0.079877
O6	O	1.316431	0.195754	0.079871
O7	O	1.685846	0.178897	0.079882
Zn8	Zn	1.501134	0.187325	0.105226
Zn9	Zn	1.501170	0.187331	-0.105135
O10	O	1.492691	0.372034	0.079876
C11	C	1.269142	0.194492	0.000038
C12	C	1.128194	0.190710	0.000034
C13	C	1.508341	-0.044685	0.000044
C14	C	1.504574	-0.185635	0.000038
C15	C	1.638758	-0.403090	0.000408
C16	C	1.642776	-0.256495	0.000043
C17	C	1.433843	-0.230391	-0.091137
C18	C	1.430804	-0.377152	-0.091208
C19	C	1.427895	-0.376965	0.090357
C20	C	1.434450	-0.230624	0.091557
C21	C	0.944783	0.045791	0.000407
C22	C	1.091401	0.049624	0.000037
C23	C	1.066530	0.258608	-0.091138
C24	C	0.919986	0.253793	-0.091204
C25	C	0.919466	0.256659	0.090361
C26	C	1.066448	0.257958	0.091556
C27	C	1.733163	0.180164	0.000050
C28	C	1.874110	0.183946	0.000049
C29	C	1.493964	0.419340	0.000045
C30	C	1.497731	0.560290	0.000044
N31	N	1.501119	0.187320	0.248792
N32	N	1.501195	0.187325	-0.248701
C33	C	1.415637	0.272818	0.701059
C34	C	1.586738	0.101834	0.701034
C35	C	1.586723	0.101830	0.600538
C36	C	1.501165	0.187322	0.550298
C37	C	1.415622	0.272819	0.600554
C38	C	1.672272	0.016343	0.550275
C39	C	1.672262	0.016337	0.449773
C40	C	1.586697	0.101824	0.399531
C41	C	1.501150	0.187323	0.449793
C42	C	1.415592	0.272816	0.399553
C43	C	1.330038	0.358310	0.449813
C44	C	1.330057	0.358306	0.550312
C45	C	1.586677	0.101828	0.299032
C46	C	1.415577	0.272817	0.299048
H47	H	1.698119	-0.227152	0.065400
F48	F	1.119854	0.193021	0.179716
H49	H	1.482986	-0.199532	-0.158986
H50	H	1.090662	0.360818	0.097061
F51	F	1.095762	0.394024	-0.095590
H52	H	0.891793	0.203614	-0.159355
H53	H	1.741923	-0.053277	0.408857
H54	H	1.332102	-0.183002	-0.094530
F55	F	1.145958	-0.020409	-0.085670
H56	H	1.327438	-0.400147	-0.095342
H57	H	0.916193	-0.009948	0.065791
F58	F	0.857270	0.386414	-0.096614
F59	F	1.501712	-0.193220	0.179722
H60	H	1.345900	0.342431	0.258149
H61	H	1.741937	-0.053256	0.591183
F62	F	1.239014	0.449291	0.603806
F63	F	0.857725	0.389855	0.091167
H64	H	1.471803	-0.419149	0.159468
F65	F	1.677798	0.010858	0.754502
F66	F	1.238991	0.449302	0.396333
F67	F	1.677731	0.010852	0.245548
F68	F	1.122213	0.196965	-0.179827
H69	H	1.134009	-0.003801	0.065393
H70	H	1.692589	-0.445047	0.065794
H71	H	0.887913	0.210998	0.159469
F72	F	1.324584	0.363798	0.754547
H73	H	1.333551	-0.181558	0.097060
H74	H	1.698463	-0.228087	-0.065424
F75	F	1.708746	-0.459950	-0.084569
H76	H	1.324132	-0.399115	0.090968
F77	F	1.494021	-0.429718	-0.180284
H78	H	0.914593	-0.009708	-0.064613
