data_functionalizedCrystal
_audit_creation_method	'MofGen! by Chris Wilmer'
_symmetry_space_group_name_H-M	'P1'
_symmetry_Int_Tables_number	1
_symmetry_cell_setting	triclinic
loop_
_symmetry_equiv_pos_as_xyz
  x,y,z
_cell_length_a	10.489741
_cell_length_b	10.489716
_cell_length_c	14.586319
_cell_angle_alpha	90.005519
_cell_angle_beta	89.999881
_cell_angle_gamma	84.534155
loop_
_atom_site_label
_atom_site_type_symbol
_atom_site_fract_x
_atom_site_fract_y
_atom_site_fract_z
O1	O	0.179810	1.694075	0.076232
O2	O	0.196736	1.322876	0.076236
O3	O	0.002674	1.516922	0.076229
O4	O	0.373871	1.500029	0.076240
O5	O	0.002686	1.516898	-0.076252
O6	O	0.196747	1.322852	-0.076245
O7	O	0.179821	1.694051	-0.076248
Cu8	Cu	0.188285	1.508449	-0.090169
Cu9	Cu	0.188272	1.508478	0.090157
O10	O	0.373883	1.500005	-0.076241
C11	C	0.195470	1.275332	-0.000004
C12	C	0.191665	1.133701	-0.000003
C13	C	0.310669	1.036027	0.000003
C14	C	0.247791	0.958669	-0.075184
C15	C	0.247751	0.958699	0.075150
C16	C	0.128836	1.058208	-0.075252
C17	C	0.128814	1.058244	0.075150
C18	C	0.065848	0.980935	-0.000056
C19	C	-0.044852	1.515634	-0.000011
C20	C	-0.186481	1.511817	-0.000010
C21	C	-0.254610	1.388351	-0.000002
C22	C	-0.346732	1.446663	-0.075183
C23	C	-0.346718	1.446716	0.075151
C24	C	-0.276737	1.570180	-0.075253
C25	C	-0.276714	1.570216	0.075149
C26	C	-0.368808	1.628618	-0.000051
C27	C	0.421409	1.501293	0.000001
C28	C	0.563038	1.505110	0.000005
C29	C	0.181087	1.741596	-0.000006
C30	C	0.184892	1.883227	-0.000002
N31	N	0.188294	1.508439	-0.217001
C32	C	0.266390	1.586534	-0.452006
C33	C	0.266381	1.586547	-0.547987
C34	C	0.110148	1.430400	-0.548000
C35	C	0.110151	1.430395	-0.452021
C36	C	0.188279	1.508459	-0.404026
C37	C	0.188268	1.508478	-0.595987
C38	C	0.188258	1.508492	-0.700054
C39	C	0.188288	1.508448	-0.299952
N40	N	0.188253	1.508498	0.216989
H41	H	0.078633	1.101515	-0.138879
Cl42	Cl	-0.094084	0.943201	-0.000127
H43	H	0.414185	1.060696	-0.000064
Cl44	Cl	0.364580	1.684705	-0.608301
H45	H	-0.245905	1.622366	-0.138884
Cl46	Cl	0.364597	1.684682	-0.391673
H47	H	0.046541	1.366841	-0.587089
H48	H	0.046538	1.366816	-0.412954
Cl49	Cl	-0.394557	1.366042	0.173278
H50	H	-0.245678	1.622423	0.138711
H51	H	-0.418241	1.730222	-0.000094
Cl52	Cl	0.051318	1.125438	0.173288
Cl53	Cl	0.325356	0.891516	-0.173316
Cl54	Cl	-0.394599	1.365996	-0.173315
Cl55	Cl	-0.177938	1.231625	-0.000111
H56	H	0.298007	0.915225	0.138705
