data_functionalizedCrystal
_audit_creation_method	'MofGen! by Chris Wilmer'
_symmetry_space_group_name_H-M	'P1'
_symmetry_Int_Tables_number	1
_symmetry_cell_setting	triclinic
loop_
_symmetry_equiv_pos_as_xyz
  x,y,z
_cell_length_a	10.540535
_cell_length_b	10.540510
_cell_length_c	16.176319
_cell_angle_alpha	89.995706
_cell_angle_beta	89.994990
_cell_angle_gamma	84.518476
loop_
_atom_site_label
_atom_site_type_symbol
_atom_site_fract_x
_atom_site_fract_y
_atom_site_fract_z
O1	O	1.685877	0.178879	-0.068696
O2	O	1.316461	0.195741	-0.068707
O3	O	1.509616	0.002601	-0.068701
O4	O	1.492721	0.372019	-0.068703
O5	O	1.509589	0.002588	0.068792
O6	O	1.316434	0.195728	0.068786
O7	O	1.685850	0.178866	0.068797
Cu8	Cu	1.501139	0.187296	0.081345
Cu9	Cu	1.501171	0.187311	-0.081256
O10	O	1.492694	0.372006	0.068791
C11	C	1.269145	0.194471	0.000038
C12	C	1.128197	0.190691	0.000033
C13	C	1.091541	0.049676	0.000037
C14	C	0.944941	0.045698	0.000357
C15	C	0.918838	0.255055	0.078405
C16	C	1.065604	0.258056	0.078463
C17	C	1.065518	0.260122	-0.077898
C18	C	0.919172	0.253601	-0.078920
C19	C	1.508344	-0.044709	0.000044
C20	C	1.504577	-0.185659	0.000038
C21	C	1.638761	-0.403117	0.000357
C22	C	1.642779	-0.256521	0.000043
C23	C	1.433846	-0.230409	-0.078477
C24	C	1.430807	-0.377170	-0.078539
C25	C	1.427898	-0.376993	0.077816
C26	C	1.434453	-0.230652	0.078850
C27	C	1.733166	0.180136	0.000050
C28	C	1.874114	0.183915	0.000049
C29	C	1.493967	0.419316	0.000044
C30	C	1.497733	0.560266	0.000044
N31	N	1.501126	0.187285	0.195711
N32	N	1.501194	0.187312	-0.195621
C33	C	1.586682	0.101798	0.238978
C34	C	1.586688	0.101796	0.325525
C35	C	1.501144	0.187289	0.368803
C36	C	1.415579	0.272780	0.325530
C37	C	1.415568	0.272774	0.238985
C38	C	1.415623	0.272804	0.674559
C39	C	1.415644	0.272806	0.761110
C40	C	1.586743	0.101827	0.761098
C41	C	1.586732	0.101821	0.674553
C42	C	1.501163	0.187307	0.631288
C43	C	1.501156	0.187305	0.537443
C44	C	1.501157	0.187298	0.462646
H45	H	0.916483	-0.009676	0.056859
H46	H	1.656394	0.032209	0.639318
H47	H	1.485920	-0.202046	0.136935
H48	H	1.692304	-0.446618	-0.055629
H49	H	1.324135	-0.399142	0.078342
H50	H	0.870114	0.354476	-0.083895
H51	H	1.327440	-0.400163	-0.082099
H52	H	1.656347	0.032185	0.203746
H53	H	0.887930	0.206237	0.136944
H54	H	1.692593	-0.445078	0.056665
H55	H	1.656353	0.032186	0.360752
H56	H	1.333554	-0.181584	0.083588
H57	H	1.698466	-0.228111	-0.056334
H58	H	0.890587	0.201830	-0.136889
H59	H	1.656415	0.032215	0.796334
H60	H	1.345953	0.342412	0.639339
H61	H	1.107993	0.216125	-0.137310
H62	H	1.087692	0.363875	-0.078656
H63	H	1.345979	0.342427	0.796346
H64	H	1.105769	0.210002	0.137261
H65	H	1.479167	-0.417381	-0.137228
H66	H	1.345921	0.342386	0.360773
H67	H	1.345898	0.342385	0.203758
H68	H	1.482989	-0.199548	-0.136906
H69	H	0.915620	-0.009939	-0.055801
H70	H	1.134994	-0.003574	0.056146
H71	H	1.133527	-0.004470	-0.056146
H72	H	1.471806	-0.419181	0.137331
H73	H	1.088623	0.361431	0.081811
H74	H	0.871471	0.356822	0.081098
H75	H	1.698123	-0.227183	0.056325
H76	H	1.332104	-0.183019	-0.081400
