data_functionalizedCrystal
_audit_creation_method	'MofGen! by Chris Wilmer'
_symmetry_space_group_name_H-M	'P1'
_symmetry_Int_Tables_number	1
_symmetry_cell_setting	triclinic
loop_
_symmetry_equiv_pos_as_xyz
  x,y,z
_cell_length_a	18.215407
_cell_length_b	16.120444
_cell_length_c	18.215399
_cell_angle_alpha	87.129468
_cell_angle_beta	90.019833
_cell_angle_gamma	92.927051
loop_
_atom_site_label
_atom_site_type_symbol
_atom_site_fract_x
_atom_site_fract_y
_atom_site_fract_z
Zn1	Zn	1.110207	-0.331908	0.430964
Zn2	Zn	1.103872	-0.471330	0.314134
Zn3	Zn	0.987139	-0.331935	0.307912
Zn4	Zn	0.980864	-0.471284	0.437157
O5	O	1.045520	-0.401614	0.372542
O6	O	1.212351	-0.350410	0.415478
O7	O	1.088361	-0.452870	0.210326
O8	O	1.008741	-0.215265	0.319039
O9	O	1.207696	-0.452843	0.329644
O10	O	1.099160	-0.215245	0.409445
O11	O	1.002598	-0.350457	0.205755
O12	O	0.883322	-0.350412	0.325045
O13	O	0.998047	-0.452764	0.539319
O14	O	0.878712	-0.452791	0.420001
O15	O	1.093075	-0.350365	0.534768
O16	O	1.082277	-0.587990	0.335650
O17	O	0.991903	-0.587956	0.426034
C18	C	0.854315	-0.401600	0.372520
C19	C	0.772515	-0.401614	0.372529
C20	C	0.581936	-0.455006	0.421917
C21	C	0.505077	-0.455009	0.421927
C22	C	0.509856	-0.348237	0.323183
C23	C	0.586713	-0.348231	0.323178
C24	C	0.622751	-0.401620	0.372544
C25	C	0.469035	-0.401629	0.372559
C26	C	0.385701	-0.401631	0.372568
C27	C	0.706090	-0.401617	0.372536
C28	C	1.035742	-0.618223	0.382205
C29	C	1.031625	-0.710890	0.386364
C30	C	1.067053	-0.921830	0.351127
C31	C	1.024124	-0.880547	0.393964
C32	C	1.028299	-0.786141	0.389734
C33	C	1.062879	-1.016244	0.355356
C34	C	1.237472	-0.401629	0.372564
C35	C	1.319271	-0.401635	0.372574
C36	C	1.045568	-0.401557	0.564492
C37	C	1.045588	-0.401532	0.646290
C38	C	1.055357	-0.184159	0.362857
C39	C	1.059549	-0.091492	0.358730
C40	C	1.045518	-0.401611	0.181336
C41	C	1.045651	-0.401401	0.099528
C42	C	1.095088	-0.348163	0.832114
C43	C	1.095098	-0.348139	0.908971
C44	C	0.996145	-0.454772	0.913699
C45	C	0.996133	-0.454792	0.836842
C46	C	1.045608	-0.401488	0.796052
C47	C	1.045631	-0.401445	0.949766
C48	C	1.045641	-0.401419	1.033099
C49	C	1.045597	-0.401513	0.712714
H50	H	0.611276	-0.498477	0.462116
H51	H	1.106937	-0.886276	0.311279
C52	C	1.149504	-0.289525	0.787243
C53	C	1.203927	-0.230864	0.826914
C54	C	1.258343	-0.172221	0.782046
C55	C	1.258334	-0.172239	0.697507
C56	C	1.203909	-0.230902	0.657831
C57	C	1.149493	-0.289545	0.702699
H58	H	1.203936	-0.230849	0.889499
H59	H	1.298632	-0.128795	0.811417
H60	H	1.298616	-0.128828	0.664292
H61	H	1.203900	-0.230917	0.595246
H62	H	1.109204	-0.332971	0.673328
H63	H	0.471849	-0.498480	0.462132
C64	C	0.470211	-0.289518	0.268877
C65	C	0.385671	-0.289526	0.268876
C66	C	0.346029	-0.230807	0.214566
C67	C	0.390927	-0.172082	0.160257
C68	C	0.475472	-0.172072	0.160256
C69	C	0.515114	-0.230790	0.214566
H70	H	0.352430	-0.333000	0.309080
H71	H	0.283443	-0.230815	0.214567
H72	H	0.361581	-0.128615	0.120053
H73	H	0.508713	-0.128598	0.120051
H74	H	0.577701	-0.230783	0.214564
H75	H	0.955835	-0.498215	0.807480
C76	C	0.631614	-0.289505	0.268860
C77	C	0.625326	-0.194737	0.270768
C78	C	0.670226	-0.136012	0.216454
C79	C	0.721415	-0.172056	0.160232
C80	C	0.727706	-0.266828	0.158323
C81	C	0.682806	-0.325553	0.212637
H82	H	0.587430	-0.168051	0.312388
H83	H	0.665569	-0.065855	0.217868
H84	H	0.754653	-0.128584	0.120026
H85	H	0.765601	-0.293514	0.116702
H86	H	0.687463	-0.395710	0.211223
H87	H	0.955866	-0.498171	0.946920
C88	C	0.970228	-0.928574	0.447794
C89	C	0.909870	-0.988545	0.418475
C90	C	0.855972	-1.036575	0.472299
C91	C	0.862434	-1.024634	0.555444
C92	C	0.922795	-0.964661	0.584768
C93	C	0.976692	-0.916631	0.530943
H94	H	0.905084	-0.997386	0.356923
H95	H	0.811289	-1.080971	0.450592
H96	H	0.822536	-1.060189	0.595288
H97	H	0.927580	-0.955820	0.646320
H98	H	1.021376	-0.872235	0.552651
C99	C	1.149529	-0.289481	0.948639
C100	C	1.232881	-0.296295	0.938393
C101	C	1.287314	-0.237633	0.978059
C102	C	1.258394	-0.172158	1.027972
C103	C	1.175038	-0.165342	1.038220
C104	C	1.120605	-0.224003	0.998554
H105	H	1.254293	-0.344766	0.901443
H106	H	1.349020	-0.242679	0.970473
H107	H	1.298688	-0.128733	1.057335
H108	H	1.153626	-0.116871	1.075170
H109	H	1.058899	-0.218957	1.006140
