data_functionalizedCrystal
_audit_creation_method	'MofGen! by Chris Wilmer'
_symmetry_space_group_name_H-M	'P1'
_symmetry_Int_Tables_number	1
_symmetry_cell_setting	triclinic
loop_
_symmetry_equiv_pos_as_xyz
  x,y,z
_cell_length_a	19.121725
_cell_length_b	16.120566
_cell_length_c	16.120297
_cell_angle_alpha	89.874982
_cell_angle_beta	95.429393
_cell_angle_gamma	95.185145
loop_
_atom_site_label
_atom_site_type_symbol
_atom_site_fract_x
_atom_site_fract_y
_atom_site_fract_z
Zn1	Zn	-0.357336	-1.264532	-0.553588
Zn2	Zn	-0.469621	-1.276854	-0.420487
Zn3	Zn	-0.345418	-1.131952	-0.406866
Zn4	Zn	-0.468972	-1.130780	-0.552414
O5	O	-0.410337	-1.201030	-0.483339
O6	O	-0.377490	-1.382784	-0.542123
O7	O	-0.448429	-1.263280	-0.302065
O8	O	-0.248299	-1.144873	-0.421120
O9	O	-0.459985	-1.391837	-0.444334
O10	O	-0.257056	-1.242279	-0.528916
O11	O	-0.357177	-1.156822	-0.292058
O12	O	-0.356548	-1.015179	-0.419982
O13	O	-0.458880	-1.142875	-0.669185
O14	O	-0.447323	-1.014318	-0.526915
O15	O	-0.376861	-1.241142	-0.670047
O16	O	-0.568234	-1.262144	-0.443196
O17	O	-0.567758	-1.154824	-0.540122
C18	C	-0.400573	-0.984511	-0.471844
C19	C	-0.396413	-0.891883	-0.466947
C20	C	-0.388803	-0.722290	-0.458012
C21	C	-0.431931	-0.680612	-0.508675
C22	C	-0.427697	-0.586245	-0.503704
C23	C	-0.393037	-0.816666	-0.462982
C24	C	-0.593589	-1.209715	-0.493029
C25	C	-0.671990	-1.213506	-0.497207
C26	C	-0.704327	-1.164623	-0.443014
C27	C	-0.777994	-1.168193	-0.446943
C28	C	-0.819322	-1.220642	-0.505070
C29	C	-0.786979	-1.269530	-0.559265
C30	C	-0.713314	-1.265964	-0.555331
C31	C	-1.041967	-1.233948	-0.519754
C32	C	-1.115637	-1.237508	-0.523685
C33	C	-1.106647	-1.136172	-0.411362
C34	C	-1.032981	-1.132607	-0.407436
C35	C	-1.000645	-1.181498	-0.461629
C36	C	-0.894621	-1.224290	-0.509089
C37	C	-0.925347	-1.177854	-0.457604
C38	C	-0.226370	-1.192332	-0.473630
C39	C	-0.147975	-1.188626	-0.469492
C40	C	-0.419127	-1.190503	-0.700698
C41	C	-0.422874	-1.186017	-0.793324
C42	C	-0.420141	-0.418395	-0.494865
C43	C	-0.424323	-0.511024	-0.499743
C44	C	-0.429696	-1.177796	-0.962910
C45	C	-0.390774	-1.224418	-1.004616
C46	C	-0.394570	-1.219843	-1.098980
C47	C	-0.425901	-1.182369	-0.868538
C48	C	-0.401531	-1.211561	-0.266824
C49	C	-0.397594	-1.216199	-0.174197
H50	H	-0.472032	-0.715803	-0.555782
H51	H	-0.348705	-0.687102	-0.410909
C52	C	-0.874817	-1.279581	-0.676398
C53	C	-0.832409	-1.327177	-0.623162
H54	H	-0.902860	-1.315169	-0.715850
H55	H	-0.904613	-1.250985	-0.644682
H56	H	-0.845735	-1.240318	-0.704777
H57	H	-0.861492	-1.366436	-0.594778
H58	H	-0.802610	-1.355787	-0.654882
C59	C	-0.347571	-1.276187	-0.871503
C60	C	-0.341931	-1.282929	-0.957152
H61	H	-0.317419	-1.312310	-0.842200
H62	H	-0.334169	-1.220386	-0.853773
H63	H	-0.394950	-1.291309	-0.860450
H64	H	-0.294552	-1.267801	-0.968205
H65	H	-0.355328	-1.338744	-0.974888
C66	C	-0.702848	-1.064818	-0.332381
C67	C	-0.658903	-1.106967	-0.379120
H68	H	-0.674805	-1.029229	-0.292931
H69	H	-0.731619	-1.032550	-0.368505
H70	H	-0.731914	-1.104095	-0.303999
H71	H	-0.629840	-1.067690	-0.407507
H72	H	-0.630120	-1.139238	-0.342991
H73	H	-0.804319	-1.128389	-0.402812
H74	H	-0.465867	-1.134451	-0.998072
H75	H	-0.999333	-1.089899	-0.360105
C76	C	-1.184061	-1.028665	-0.398168
C77	C	-1.142194	-1.082440	-0.351791
H78	H	-1.206009	-0.995498	-0.361386
H79	H	-1.155364	-0.993613	-0.431213
H80	H	-1.219214	-1.060420	-0.433346
H81	H	-1.107037	-1.050685	-0.316617
H82	H	-1.170893	-1.117497	-0.318732
C83	C	-1.117129	-1.337300	-0.634342
C84	C	-1.161067	-1.295146	-0.587600
H85	H	-1.145177	-1.372876	-0.673801
H86	H	-1.088053	-1.298032	-0.662707
H87	H	-1.088368	-1.369592	-0.598217
H88	H	-1.189825	-1.262849	-0.623724
H89	H	-1.190155	-1.334419	-0.559233
H90	H	-1.015645	-1.273756	-0.563880
H91	H	-0.891696	-1.135153	-0.410275
C92	C	-0.698069	-1.298496	-0.697409
C93	C	-0.677763	-1.319690	-0.614905
H94	H	-0.676117	-1.331664	-0.734186
H95	H	-0.747849	-1.308131	-0.708068
H96	H	-0.684001	-1.241320	-0.705931
H97	H	-0.691836	-1.376865	-0.606382
H98	H	-0.627972	-1.310062	-0.604243
C99	C	-0.982467	-1.234323	-0.626213
C100	C	-0.940057	-1.281928	-0.572990
H101	H	-1.010517	-1.269905	-0.665664
H102	H	-1.012256	-1.205726	-0.594488
H103	H	-0.953387	-1.195060	-0.654594
H104	H	-0.969138	-1.321186	-0.544604
H105	H	-0.910265	-1.310538	-0.604719
