data_functionalizedCrystal
_audit_creation_method	'MofGen! by Chris Wilmer'
_symmetry_space_group_name_H-M	'P1'
_symmetry_Int_Tables_number	1
_symmetry_cell_setting	triclinic
loop_
_symmetry_equiv_pos_as_xyz
  x,y,z
_cell_length_a	14.908558
_cell_length_b	19.120786
_cell_length_c	14.908308
_cell_angle_alpha	89.316475
_cell_angle_beta	89.824401
_cell_angle_gamma	89.019029
loop_
_atom_site_label
_atom_site_type_symbol
_atom_site_fract_x
_atom_site_fract_y
_atom_site_fract_z
Zn1	Zn	1.326488	-0.364772	0.566465
Zn2	Zn	1.826488	0.135228	1.066465
Zn3	Zn	1.329367	-0.475326	0.409708
Zn4	Zn	1.829367	0.024674	0.909708
Zn5	Zn	1.185495	-0.351345	0.408241
Zn6	Zn	1.685495	0.148655	0.908241
Zn7	Zn	1.170437	-0.474494	0.551409
Zn8	Zn	1.670437	0.025506	1.051409
O9	O	1.252947	-0.416484	0.483956
O10	O	1.752947	0.083516	0.983956
O11	O	1.452388	-0.385405	0.552585
O12	O	1.952388	0.114595	1.052585
O13	O	1.317789	-0.453609	0.283994
O14	O	1.817789	0.046391	0.783994
O15	O	1.209295	-0.255320	0.434916
O16	O	1.709295	0.244680	0.934916
O17	O	1.454504	-0.466628	0.437417
O18	O	1.954504	0.033372	0.937417
O19	O	1.312881	-0.265185	0.551162
O20	O	1.812881	0.234815	1.051162
O21	O	1.212087	-0.362521	0.282915
O22	O	1.712087	0.137479	0.782915
O23	O	1.057979	-0.361713	0.420317
O24	O	1.557979	0.138287	0.920317
O25	O	1.183631	-0.465210	0.678926
O26	O	1.683631	0.034790	1.178926
O27	O	1.046916	-0.452190	0.525503
O28	O	1.546916	0.047810	1.025503
O29	O	1.298281	-0.384597	0.689987
O30	O	1.798281	0.115403	1.189987
O31	O	1.303188	-0.573021	0.422819
O32	O	1.803188	-0.073021	0.922819
O33	O	1.186423	-0.572410	0.526926
O34	O	1.686423	-0.072410	1.026926
C35	C	1.019902	-0.405405	0.471118
C36	C	1.519902	0.094595	0.971118
C37	C	0.920202	-0.400683	0.465646
C38	C	1.420202	0.099317	0.965646
C39	C	0.785412	-0.346860	0.403267
C40	C	1.285412	0.153140	0.903267
C41	C	0.879089	-0.351293	0.408405
C42	C	1.379089	0.148707	0.908405
C43	C	0.867632	-0.445642	0.517755
C44	C	1.367632	0.054358	1.017755
C45	C	0.773955	-0.441209	0.512617
C46	C	1.273955	0.058791	1.012617
C47	C	0.732848	-0.391817	0.455370
C48	C	1.232848	0.108183	0.955370
C49	C	0.639169	-0.387388	0.450228
C50	C	1.139169	0.112612	0.950228
C51	C	0.627714	-0.481733	0.559582
C52	C	1.127714	0.018267	1.059582
C53	C	0.721392	-0.486166	0.564720
C54	C	1.221392	0.013834	1.064720
C55	C	1.243507	-0.598078	0.473419
C56	C	1.743507	-0.098078	0.973419
C57	C	1.239549	-0.675769	0.468945
C58	C	1.739549	-0.175769	0.968945
C59	C	1.291576	-0.717344	0.527412
C60	C	1.791576	-0.217344	1.027412
C61	C	1.287853	-0.790344	0.523210
C62	C	1.787853	-0.290344	1.023210
C63	C	1.232108	-0.821767	0.460537
C64	C	1.732108	-0.321767	0.960537
C65	C	1.180075	-0.780186	0.402068
C66	C	1.680075	-0.280186	0.902068
C67	C	1.183794	-0.707188	0.406275
C68	C	1.683794	-0.207188	0.906275
C69	C	1.218180	-1.041919	0.444809
C70	C	1.718180	-0.541919	0.944809
C71	C	1.214468	-1.114923	0.440605
C72	C	1.714468	-0.614923	0.940605
C73	C	1.322245	-1.125076	0.561748
C74	C	1.822245	-0.625076	1.061748
C75	C	1.325963	-1.052076	0.565946
C76	C	1.825963	-0.552076	1.065946
C77	C	1.273927	-1.010502	0.507480
C78	C	1.773927	-0.510502	1.007480
C79	C	1.228304	-0.896384	0.456239
C80	C	1.728304	-0.396384	0.956239
C81	C	1.277727	-0.935886	0.511784
C82	C	1.777727	-0.435886	1.011784
C83	C	1.486901	-0.427607	0.496844
C84	C	1.986901	0.072393	0.996844
C85	C	1.586599	-0.432347	0.502337
C86	C	2.086599	0.067653	1.002337
C87	C	1.238955	-0.426308	0.717913
C88	C	1.738955	0.073692	1.217913
C89	C	1.232993	-0.430495	0.817611
C90	C	1.732993	0.069505	1.317611
C91	C	1.262447	-0.234184	0.494555
C92	C	1.762447	0.265816	0.994555
C93	C	1.266495	-0.156498	0.499071
C94	C	1.766495	0.343502	0.999071
C95	C	1.266938	-0.406650	0.250915
C96	C	1.766938	0.093350	0.750915
C97	C	1.273085	-0.402275	0.151238
C98	C	1.773085	0.097725	0.651238
C99	C	1.341171	-0.354404	1.016476
C100	C	1.841171	0.145596	1.516476
C101	C	1.335572	-0.358335	1.110152
C102	C	1.835572	0.141665	1.610152
C103	C	1.216191	-0.442285	1.098641
C104	C	1.716191	0.057715	1.598641
C105	C	1.221790	-0.438353	1.004965
C106	C	1.721790	0.061647	1.504965
C107	C	1.284283	-0.394412	0.963886
C108	C	1.784283	0.105588	1.463886
C109	C	1.289886	-0.390485	0.870208
C110	C	1.789886	0.109515	1.370208
C111	C	1.170502	-0.474431	0.858699
C112	C	1.670502	0.025569	1.358699
C113	C	1.164902	-0.478362	0.952375
C114	C	1.664902	0.021638	1.452375
H115	H	0.754874	-0.526378	0.611331
H116	H	1.254874	-0.026378	1.111331
H117	H	1.165312	-0.478059	1.132104
H118	H	1.665312	0.021941	1.632104
C119	C	0.912866	-0.499969	0.580721
C120	C	1.412866	0.000031	1.080721
N121	N	0.946938	-0.540890	0.628146
N122	N	1.446938	-0.040890	1.128146
H123	H	1.323111	-0.910299	0.562815
H124	H	1.823111	-0.410299	1.062815
H125	H	1.340773	-0.354707	0.836763
H126	H	1.840773	0.145293	1.336763
C127	C	1.409917	-0.306072	0.971287
C128	C	1.909917	0.193928	1.471287
N129	N	1.461698	-0.269668	0.937252
N130	N	1.961698	0.230332	1.437252
H131	H	1.182918	-0.921976	0.405208
H132	H	1.682918	-0.421976	0.905208
H133	H	0.584907	-0.518341	0.602008
H134	H	1.084907	-0.018341	1.102008
H135	H	1.114021	-0.514136	0.985834
H136	H	1.614021	-0.014136	1.485834
H137	H	0.921883	-0.314682	0.365980
H138	H	1.421883	0.185318	0.865980
H139	H	0.751942	-0.306644	0.356653
H140	H	1.251942	0.193356	0.856653
H141	H	0.605702	-0.347170	0.403615
H142	H	1.105702	0.152830	0.903615
C143	C	1.398155	-0.314325	1.167998
C144	C	1.898155	0.185675	1.667998
N145	N	1.445297	-0.281174	1.211567
N146	N	1.945297	0.218826	1.711567
C147	C	1.107921	-0.518443	0.800842
C148	C	1.607921	-0.018443	1.300842
N149	N	1.060789	-0.551594	0.757263
N150	N	1.560789	-0.051594	1.257263
H151	H	1.336974	-0.691765	0.578443
H152	H	1.836974	-0.191765	1.078443
C153	C	1.387305	-1.017517	0.634875
C154	C	1.887305	-0.517517	1.134875
N155	N	1.433517	-0.991487	0.686786
N156	N	1.933517	-0.491487	1.186786
C157	C	1.345100	-0.836074	0.587516
C158	C	1.845100	-0.336074	1.087516
N159	N	1.388225	-0.870517	0.635952
N160	N	1.888225	-0.370517	1.135952
C161	C	1.379475	-1.170813	0.626062
C162	C	1.879475	-0.670813	1.126062
N163	N	1.422579	-1.205263	0.674508
N164	N	1.922579	-0.705263	1.174508
H165	H	1.169069	-1.140505	0.389569
H166	H	1.669069	-0.640505	0.889569
C167	C	1.160917	-0.996197	0.380514
C168	C	1.660917	-0.496197	0.880514
N169	N	1.117774	-0.961756	0.332091
N170	N	1.617774	-0.461756	0.832091
H171	H	1.134682	-0.805776	0.351042
H172	H	1.634682	-0.305776	0.851042
H173	H	1.141427	-0.673337	0.358667
H174	H	1.641427	-0.173337	0.858667
