data_functionalizedCrystal
_audit_creation_method	'MofGen! by Chris Wilmer'
_symmetry_space_group_name_H-M	'P1'
_symmetry_Int_Tables_number	1
_symmetry_cell_setting	triclinic
loop_
_symmetry_equiv_pos_as_xyz
  x,y,z
_cell_length_a	8.497374
_cell_length_b	18.215407
_cell_length_c	18.215405
_cell_angle_alpha	90.028876
_cell_angle_beta	90.011019
_cell_angle_gamma	89.998471
loop_
_atom_site_label
_atom_site_type_symbol
_atom_site_fract_x
_atom_site_fract_y
_atom_site_fract_z
Zn1	Zn	0.891791	1.124966	-0.292991
Zn2	Zn	0.627982	1.124914	-0.416027
Zn3	Zn	0.628033	1.001933	-0.292992
Zn4	Zn	0.891728	1.001869	-0.416034
O5	O	0.759884	1.063420	-0.354511
O6	O	0.856801	1.227943	-0.309309
O7	O	0.407226	1.108605	-0.399704
O8	O	0.663069	1.018302	-0.190008
O9	O	0.662981	1.227905	-0.399703
O10	O	0.856851	1.108694	-0.190007
O11	O	0.407264	1.018252	-0.309310
O12	O	0.663008	0.898940	-0.309317
O13	O	1.112499	1.018193	-0.399714
O14	O	0.856744	0.898893	-0.399715
O15	O	1.112545	1.108632	-0.309316
O16	O	0.662921	1.108543	-0.519012
O17	O	0.856694	1.018142	-0.519017
C18	C	0.759829	1.063350	-0.545717
C19	C	0.759859	1.063387	-0.627516
C20	C	0.759876	0.872214	-0.354517
C21	C	0.759910	0.790415	-0.354538
C22	C	0.860898	1.110476	-0.815649
C23	C	0.860927	1.110503	-0.892508
C24	C	0.658968	1.016455	-0.892621
C25	C	0.658947	1.016425	-0.815764
C26	C	0.759910	1.063440	-0.777280
C27	C	0.759960	1.063497	-0.930996
C28	C	0.759991	1.063525	-1.014329
C29	C	0.759881	1.063411	-0.693941
C30	C	1.171364	1.063415	-0.354512
C31	C	1.350008	1.063416	-0.354520
C32	C	0.759892	1.255373	-0.354505
C33	C	0.759896	1.337172	-0.354503
C34	C	0.759973	1.063511	-0.162558
C35	C	0.760011	1.063550	-0.080759
C36	C	0.860815	1.525387	-0.307456
C37	C	0.860821	1.602246	-0.307463
C38	C	0.658987	1.602195	-0.401590
C39	C	0.658990	1.525337	-0.401586
C40	C	0.759901	1.486936	-0.354515
C41	C	0.759905	1.640652	-0.354526
C42	C	0.759911	1.723985	-0.354533
C43	C	0.759898	1.403597	-0.354508
H44	H	0.943110	1.148757	-0.784317
O45	O	0.969665	1.483972	-0.256691
H46	H	0.899078	1.448984	-0.219238
H47	H	0.943165	1.148803	-0.923744
O48	O	0.550143	1.483858	-0.452346
H49	H	0.469913	1.448855	-0.419401
O50	O	0.550136	1.643620	-0.452347
H51	H	0.577165	1.628845	-0.510107
H52	H	0.576765	0.978179	-0.923964
O53	O	0.550006	0.965698	-0.774371
H54	H	0.479782	0.933021	-0.814042
H55	H	0.942996	1.633550	-0.269144
