data_functionalizedCrystal
_audit_creation_method	'MofGen! by Chris Wilmer'
_symmetry_space_group_name_H-M	'P1'
_symmetry_Int_Tables_number	1
_symmetry_cell_setting	triclinic
loop_
_symmetry_equiv_pos_as_xyz
  x,y,z
_cell_length_a	17.699083
_cell_length_b	14.519709
_cell_length_c	16.776229
_cell_angle_alpha	89.992406
_cell_angle_beta	89.998886
_cell_angle_gamma	83.481580
loop_
_atom_site_label
_atom_site_type_symbol
_atom_site_fract_x
_atom_site_fract_y
_atom_site_fract_z
O1	O	1.004412	0.116624	-0.066178
O2	O	0.784077	0.131797	-0.066204
O3	O	0.900087	-0.010052	-0.066183
O4	O	0.888403	0.258474	-0.066199
O5	O	0.900071	-0.010061	0.066393
O6	O	0.784062	0.131789	0.066372
O7	O	1.004397	0.116616	0.066398
Zn8	Zn	0.894227	0.124201	0.087435
Zn9	Zn	0.894247	0.124212	-0.087241
O10	O	0.888388	0.258465	0.066377
C11	C	0.755871	0.131249	0.000080
C12	C	0.671848	0.129618	0.000071
C13	C	0.899534	-0.044414	0.000105
C14	C	0.897903	-0.146789	0.000105
C15	C	0.623466	0.212881	0.000066
C16	C	0.544518	0.211343	0.000076
C17	C	0.513954	0.126541	0.000086
C18	C	0.562343	0.043272	0.000093
C19	C	0.641289	0.044811	0.000088
C20	C	0.243962	0.037064	0.000113
C21	C	0.165010	0.035531	0.000115
C22	C	0.147191	0.203596	0.000101
C23	C	0.226137	0.205135	0.000097
C24	C	0.274519	0.121866	0.000108
C25	C	0.360123	0.123535	0.000098
C26	C	0.428352	0.124872	0.000090
C27	C	0.891896	-0.521659	0.000084
C28	C	0.893564	-0.417358	0.000090
C29	C	0.894899	-0.334227	0.000095
C30	C	0.896568	-0.229920	0.000100
C31	C	1.032603	0.117164	0.000112
C32	C	1.116626	0.118795	0.000116
C33	C	0.888940	0.292827	0.000087
C34	C	0.890572	0.395202	0.000082
N35	N	0.894219	0.124192	0.206646
N36	N	0.894262	0.124213	-0.206452
C37	C	0.945603	0.061407	0.248372
C38	C	0.945607	0.061406	0.331824
C39	C	0.894230	0.124196	0.373549
C40	C	0.842840	0.186984	0.331816
C41	C	0.842833	0.186980	0.248366
C42	C	0.842867	0.187002	0.668364
C43	C	0.842880	0.187004	0.751820
C44	C	0.945642	0.061429	0.751822
C45	C	0.945635	0.061424	0.668372
C46	C	0.894242	0.124209	0.626647
C47	C	0.894238	0.124208	0.536158
C48	C	0.894238	0.124202	0.464036
H49	H	0.648344	0.281937	0.000058
O50	O	0.792891	0.248061	0.207954
C51	C	0.747533	0.303468	0.262673
H52	H	0.778569	0.304468	0.322155
H53	H	0.691274	0.273608	0.271561
C54	C	0.693940	0.401751	0.157031
C55	C	0.732062	0.402985	0.230086
H56	H	0.684393	0.463136	0.136930
H57	H	0.724496	0.364420	0.120165
H58	H	0.647062	0.376863	0.164448
H59	H	0.778943	0.427862	0.222667
H60	H	0.701513	0.440322	0.266951
H61	H	0.987487	0.010303	0.785804
O62	O	0.792891	0.248030	0.792229
C63	C	0.747539	0.303459	0.737508
H64	H	0.746630	0.265649	0.678026
H65	H	0.772193	0.371937	0.728619
C66	C	0.667042	0.369017	0.843147
C67	C	0.665919	0.322574	0.770093
H68	H	0.616696	0.380813	0.863248
H69	H	0.697598	0.331677	0.880015
H70	H	0.687590	0.426077	0.835730
H71	H	0.645380	0.265511	0.777513
H72	H	0.635358	0.359906	0.733227
H73	H	0.987444	0.010280	0.214406
O74	O	0.497628	0.292310	0.000035
C75	C	0.541533	0.367487	0.000042
H76	H	0.600418	0.343947	-0.025063
H77	H	0.547195	0.393488	0.063642
C78	C	0.429974	0.475195	-0.021121
C79	C	0.502296	0.446284	-0.051961
H80	H	0.405770	0.523803	-0.053195
H81	H	0.400393	0.424547	-0.021122
H82	H	0.434702	0.496856	0.031878
H83	H	0.497566	0.424613	-0.104955
H84	H	0.531875	0.496930	-0.051970
H85	H	0.537452	-0.025775	0.000112
H86	H	0.107789	0.271397	0.000096
H87	H	0.680683	-0.022990	0.000091
O88	O	0.995604	0.000392	0.372234
C89	C	1.040944	-0.055035	0.317512
H90	H	1.041832	-0.017228	0.258018
H91	H	1.016293	-0.123517	0.308654
C92	C	1.121478	-0.120576	0.423141
C93	C	1.122574	-0.074138	0.350071
H94	H	1.171831	-0.132364	0.443225
H95	H	1.090931	-0.083237	0.460008
H96	H	1.100932	-0.177640	0.415749
H97	H	1.143110	-0.017071	0.357465
H98	H	1.153127	-0.111468	0.313205
H99	H	0.987474	0.010298	0.634402
H100	H	0.801023	0.238126	0.634398
H101	H	0.251017	0.274189	0.000085
H102	H	0.140129	-0.033529	0.000124
H103	H	0.801004	0.238106	0.365793
H104	H	0.283346	-0.030739	0.000123
