data_functionalizedCrystal
_audit_creation_method	'MofGen! by Chris Wilmer'
_symmetry_space_group_name_H-M	'P1'
_symmetry_Int_Tables_number	1
_symmetry_cell_setting	triclinic
loop_
_symmetry_equiv_pos_as_xyz
  x,y,z
_cell_length_a	10.723022
_cell_length_b	10.723024
_cell_length_c	9.130313
_cell_angle_alpha	90.003351
_cell_angle_beta	90.003216
_cell_angle_gamma	84.467548
loop_
_atom_site_label
_atom_site_type_symbol
_atom_site_fract_x
_atom_site_fract_y
_atom_site_fract_z
O1	O	1.657188	0.175018	0.121786
O2	O	1.294035	0.191773	0.121790
O3	O	1.483988	0.001819	0.121783
O4	O	1.467235	0.364972	0.121794
O5	O	1.483975	0.001814	-0.121816
O6	O	1.294022	0.191767	-0.121808
O7	O	1.657175	0.175012	-0.121813
Cu8	Cu	1.475597	0.183389	-0.144053
Cu9	Cu	1.475613	0.183396	0.144031
O10	O	1.467222	0.364966	-0.121805
C11	C	1.247529	0.190551	-0.000008
C12	C	1.108975	0.186904	-0.000007
C13	C	0.890796	0.289421	-0.000001
C14	C	1.033999	0.293192	-0.000002
C15	C	1.482763	-0.044683	-0.000015
C16	C	1.479115	-0.183238	-0.000010
C17	C	1.585403	-0.258221	-0.000009
C18	C	1.581635	-0.401424	-0.000004
C19	C	1.703681	0.176234	-0.000011
C20	C	1.842235	0.179881	-0.000003
C21	C	1.468448	0.411468	-0.000004
C22	C	1.472095	0.550023	0.000000
N23	N	1.475595	0.183384	-0.346676
C24	C	1.559735	0.099308	-0.423331
C25	C	1.559747	0.099308	-0.576668
C26	C	1.391476	0.267471	-0.576681
C27	C	1.391459	0.267464	-0.423347
N28	N	1.475624	0.183391	0.346653
H29	H	1.075811	0.386980	-0.000009
F30	F	1.353154	-0.365770	-0.000011
F31	F	1.301896	0.356948	-0.341758
H32	H	1.067171	0.093113	0.000030
H33	H	0.906678	0.088892	0.000003
F34	F	1.649278	0.009819	-0.341738
H35	H	1.679188	-0.216399	-0.000019
F36	F	1.700571	-0.485639	-0.000014
H37	H	1.385329	-0.225059	0.000001
F38	F	1.301938	0.356954	-0.658289
F39	F	0.806572	0.408354	0.000018
F40	F	1.649297	0.009821	-0.658245
