data_functionalizedCrystal
_audit_creation_method	'MofGen! by Chris Wilmer'
_symmetry_space_group_name_H-M	'P1'
_symmetry_Int_Tables_number	1
_symmetry_cell_setting	triclinic
loop_
_symmetry_equiv_pos_as_xyz
  x,y,z
_cell_length_a	25.639239
_cell_length_b	21.395364
_cell_length_c	25.639233
_cell_angle_alpha	90.014151
_cell_angle_beta	89.981253
_cell_angle_gamma	89.944613
loop_
_atom_site_label
_atom_site_type_symbol
_atom_site_fract_x
_atom_site_fract_y
_atom_site_fract_z
Zn1	Zn	-0.207981	-0.957756	-0.295631
Zn2	Zn	-0.295400	-0.957664	-0.208195
Zn3	Zn	-0.208006	-0.852991	-0.208207
Zn4	Zn	-0.295413	-0.852925	-0.295597
O5	O	-0.251700	-0.905334	-0.251907
O6	O	-0.219562	-1.045421	-0.284041
O7	O	-0.283812	-0.943768	-0.135031
O8	O	-0.134838	-0.866954	-0.219823
O9	O	-0.283788	-1.045354	-0.219802
O10	O	-0.134819	-0.943924	-0.284053
O11	O	-0.219604	-0.866865	-0.135040
O12	O	-0.219617	-0.765304	-0.219790
O13	O	-0.283810	-0.866842	-0.368767
O14	O	-0.283834	-0.765256	-0.283995
O15	O	-0.219575	-0.943860	-0.368791
O16	O	-0.368567	-0.943704	-0.219770
O17	O	-0.368577	-0.866753	-0.283984
C18	C	-0.251730	-0.742546	-0.251891
C19	C	-0.251755	-0.672905	-0.251896
C20	C	-0.218368	-0.640249	-0.285397
C21	C	-0.218356	-0.574814	-0.285398
C22	C	-0.251740	-0.542037	-0.251904
C23	C	-0.285129	-0.574700	-0.218397
C24	C	-0.285137	-0.640134	-0.218393
C25	C	-0.298828	-0.438305	-0.247699
C26	C	-0.298821	-0.372872	-0.247706
C27	C	-0.251716	-0.340216	-0.251914
C28	C	-0.204617	-0.373000	-0.256124
C29	C	-0.204624	-0.438435	-0.256120
C30	C	-0.251735	-0.471084	-0.251905
C31	C	-0.218313	-0.236608	-0.285417
C32	C	-0.218300	-0.171171	-0.285415
C33	C	-0.285078	-0.171059	-0.218417
C34	C	-0.285087	-0.236494	-0.218417
C35	C	-0.251705	-0.269265	-0.251920
C36	C	-0.387543	-0.905229	-0.251883
C37	C	-0.445657	-0.905241	-0.251891
C38	C	-0.806002	-0.945507	-0.218528
C39	C	-0.860607	-0.945531	-0.218535
O40	O	-0.888828	-0.979658	-0.190143
N41	N	-0.887939	-0.905444	-0.251942
C42	C	-0.860665	-0.865334	-0.285348
O43	O	-0.888927	-0.831240	-0.313764
C44	C	-0.806061	-0.865314	-0.285343
C45	C	-0.778732	-0.905399	-0.251930
C46	C	-0.778673	-0.985589	-0.185118
C47	C	-0.724072	-0.985564	-0.185111
C48	C	-0.696801	-0.945456	-0.218513
C49	C	-0.724131	-0.905374	-0.251923
C50	C	-0.778788	-0.825208	-0.318751
C51	C	-0.724181	-0.825191	-0.318744
C52	C	-0.696851	-0.865276	-0.285331
C53	C	-0.642260	-0.865241	-0.285317
N54	N	-0.614927	-0.905328	-0.251910
C55	C	-0.642198	-0.945436	-0.218508
C56	C	-0.975335	-0.865382	-0.285356
C57	C	-1.029938	-0.865399	-0.285358
C58	C	-1.029876	-0.945596	-0.218546
C59	C	-0.975272	-0.945576	-0.218541
C60	C	-0.948003	-0.905469	-0.251949
C61	C	-0.527533	-0.945379	-0.218495
C62	C	-0.472928	-0.945349	-0.218488
C63	C	-0.472994	-0.865154	-0.285302
C64	C	-0.527595	-0.865182	-0.285307
C65	C	-0.554863	-0.905299	-0.251901
O66	O	-0.614003	-0.831134	-0.313697
O67	O	-0.613929	-0.979530	-0.190102
C68	C	-0.115327	-0.905457	-0.251943
C69	C	-0.057213	-0.905509	-0.251958
C70	C	-0.251691	-0.905354	-0.388280
C71	C	-0.251687	-0.905363	-0.446394
C72	C	-0.251677	-0.068757	-0.251921
C73	C	-0.251684	-0.138398	-0.251920
C74	C	-0.218140	-0.945517	-0.806776
C75	C	-0.218126	-0.945525	-0.861380
O76	O	-0.189665	-0.979615	-0.889633
N77	N	-0.251565	-0.905432	-0.888677
C78	C	-0.285016	-0.865324	-0.861367
O79	O	-0.313457	-0.831222	-0.889599
C80	C	-0.285028	-0.865314	-0.806763
C81	C	-0.251590	-0.905414	-0.779469
C82	C	-0.184705	-0.985613	-0.779482
C83	C	-0.184721	-0.985606	-0.724882
C84	C	-0.218171	-0.945503	-0.697575
C85	C	-0.251606	-0.905407	-0.724869
C86	C	-0.318476	-0.825203	-0.779454
C87	C	-0.318485	-0.825196	-0.724847
C88	C	-0.285047	-0.865296	-0.697553
C89	C	-0.285071	-0.865296	-0.642962
N90	N	-0.251632	-0.905389	-0.615665
C91	C	-0.218182	-0.945493	-0.642972
C92	C	-0.284989	-0.865348	-0.976037
C93	C	-0.284981	-0.865361	-1.030640
C94	C	-0.218089	-0.945561	-1.030650
C95	C	-0.218101	-0.945551	-0.976046
C96	C	-0.251550	-0.905441	-0.948741
C97	C	-0.218217	-0.945475	-0.528306
C98	C	-0.218237	-0.945466	-0.473701
C99	C	-0.285126	-0.865264	-0.473696
C100	C	-0.285108	-0.865275	-0.528296
C101	C	-0.251650	-0.905382	-0.555600
O102	O	-0.313516	-0.831222	-0.614674
O103	O	-0.189742	-0.979583	-0.614733
C104	C	-0.251672	-0.905350	-0.116065
C105	C	-0.251528	-0.905463	-0.057951
H106	H	-0.166260	-0.346413	-0.259550
H107	H	-0.312214	-0.832715	-1.052858
H108	H	-0.191128	-0.263291	-0.312694
O109	O	-0.351017	-0.786339	-0.805978
C110	C	-0.384772	-0.821978	-0.837570
H111	H	-0.387991	-0.871324	-0.821127
H112	H	-0.368608	-0.824146	-0.878959
C113	C	-0.435178	-0.730713	-0.858576
C114	C	-0.439135	-0.791319	-0.838377
H115	H	-0.468710	-0.711800	-0.859076
H116	H	-0.412435	-0.706702	-0.837293
H117	H	-0.421705	-0.732528	-0.893065
H118	H	-0.452601	-0.789502	-0.803887
H119	H	-0.461881	-0.815329	-0.859654
H120	H	-0.166275	-0.465125	-0.259547
O121	O	-0.805164	-1.024655	-0.152759
C122	C	-0.836681	-1.065106	-0.182578
H123	H	-0.820212	-1.068881	-0.223765
H124	H	-0.878099	-1.045791	-0.184344
C125	C	-0.857632	-1.125650	-0.106540
C126	C	-0.837403	-1.130290	-0.157126
H127	H	-0.858080	-1.165858	-0.090839
H128	H	-0.836401	-1.098397	-0.086450
H129	H	-0.892145	-1.109552	-0.108019
H130	H	-0.802888	-1.146381	-0.155646
H131	H	-0.858629	-1.157548	-0.177215
O132	O	-0.351034	-0.786219	-0.698404
C133	C	-0.380534	-0.750825	-0.734208
H134	H	-0.382321	-0.776490	-0.773134
H135	H	-0.361400	-0.703253	-0.740007
C136	C	-0.433997	-0.710229	-0.665089
C137	C	-0.436195	-0.741754	-0.712899
H138	H	-0.468331	-0.704631	-0.651945
H139	H	-0.414122	-0.734073	-0.640967
H140	H	-0.418049	-0.670589	-0.669929
H141	H	-0.452136	-0.781396	-0.708058
H142	H	-0.456075	-0.717917	-0.737020
H143	H	-0.191186	-0.666927	-0.312677
O144	O	-0.317609	-0.826268	-0.554732
C145	C	-0.347148	-0.790886	-0.518918
H146	H	-0.325745	-0.788734	-0.479995
H147	H	-0.386854	-0.813794	-0.513115
C148	C	-0.380977	-0.726838	-0.588023
C149	C	-0.354688	-0.724191	-0.540218
H150	H	-0.385631	-0.685699	-0.601161
H151	H	-0.361078	-0.750678	-0.612151
H152	H	-0.414063	-0.745932	-0.583180
H153	H	-0.321600	-0.705105	-0.545062
H154	H	-0.374582	-0.700347	-0.516090
O155	O	-0.185921	-0.139476	-0.318034
C156	C	-0.197424	-0.155480	-0.370121
H157	H	-0.239200	-0.173410	-0.372680
H158	H	-0.169421	-0.193506	-0.383839
C159	C	-0.140075	-0.075352	-0.401885
C160	C	-0.191387	-0.097369	-0.405029
H161	H	-0.136349	-0.039508	-0.423420
H162	H	-0.132323	-0.064571	-0.366794
H163	H	-0.116745	-0.107046	-0.413317
H164	H	-0.214715	-0.065678	-0.393592
H165	H	-0.199142	-0.108143	-0.440120
O166	O	-0.185605	-0.984453	-1.057262
C167	C	-0.192775	-0.975866	-1.111308
H168	H	-0.209913	-0.927501	-1.118752
H169	H	-0.220602	-1.013011	-1.126808
C170	C	-0.118816	-1.041045	-1.130206
C171	C	-0.139862	-0.981641	-1.139349
H172	H	-0.086178	-1.044610	-1.147504
H173	H	-0.113987	-1.046833	-1.093794
H174	H	-0.142011	-1.071993	-1.143123
H175	H	-0.116671	-0.950695	-1.126426
H176	H	-0.144686	-0.975848	-1.175760
H177	H	-0.312260	-0.144372	-0.191146
O178	O	-0.317643	-0.826400	-0.447102
C179	C	-0.351417	-0.862044	-0.415528
H180	H	-0.332970	-0.909544	-0.407366
H181	H	-0.390161	-0.868888	-0.436562
C182	C	-0.383547	-0.769226	-0.373671
C183	C	-0.360888	-0.827566	-0.363644
H184	H	-0.389391	-0.747958	-0.341667
H185	H	-0.360794	-0.745212	-0.394944
H186	H	-0.415831	-0.774938	-0.391201
H187	H	-0.328601	-0.821853	-0.346120
H188	H	-0.383636	-0.851579	-0.342366
H189	H	-0.312310	-0.548009	-0.191126
O190	O	-1.056402	-0.826435	-0.317861
C191	C	-1.020616	-0.791021	-0.347328
H192	H	-0.981665	-0.816669	-0.349150
H193	H	-1.014870	-0.743449	-0.328142
C194	C	-1.089746	-0.750449	-0.400734
C195	C	-1.041906	-0.781954	-0.402975
H196	H	-1.102879	-0.744853	-0.435060
H197	H	-1.113856	-0.774307	-0.380881
H198	H	-1.084950	-0.710810	-0.384744
H199	H	-1.046703	-0.821595	-0.418959
H200	H	-1.017798	-0.758103	-0.422833
O201	O	-0.317573	-0.268123	-0.185862
C202	C	-0.347027	-0.225164	-0.156289
H203	H	-0.348864	-0.178525	-0.177703
H204	H	-0.327821	-0.218216	-0.116615
C205	C	-0.400409	-0.307907	-0.122349
C206	C	-0.402669	-0.250626	-0.148653
H207	H	-0.434731	-0.323614	-0.117637
H208	H	-0.380564	-0.336850	-0.142271
H209	H	-0.384402	-0.302109	-0.089291
H210	H	-0.418670	-0.256426	-0.181714
H211	H	-0.422518	-0.221685	-0.128737
O212	O	-0.185701	-0.984496	-0.554744
C213	C	-0.156189	-1.019869	-0.518936
H214	H	-0.177619	-1.022006	-0.480013
H215	H	-0.116485	-0.996962	-0.513127
C216	C	-0.122317	-1.083943	-0.588050
C217	C	-0.148639	-1.086572	-0.540246
H218	H	-0.117657	-1.125088	-0.601196
H219	H	-0.142198	-1.060110	-0.612175
H220	H	-0.089233	-1.064851	-0.583203
H221	H	-0.181725	-1.105656	-0.545095
H222	H	-0.128763	-1.110409	-0.516122
O223	O	-0.948790	-0.826382	-0.317732
C224	C	-0.917273	-0.785913	-0.287932
H225	H	-0.909079	-0.808042	-0.248327
H226	H	-0.938373	-0.739498	-0.282148
C227	C	-0.875473	-0.747336	-0.365333
C228	C	-0.865406	-0.774517	-0.316691
H229	H	-0.843480	-0.740303	-0.383073
H230	H	-0.896709	-0.774598	-0.385411
H231	H	-0.893059	-0.708659	-0.360506
H232	H	-0.847827	-0.813196	-0.321518
H233	H	-0.844167	-0.747260	-0.296615
O234	O	-0.344615	-0.341126	-0.243588
C235	C	-0.386193	-0.383978	-0.239878
H236	H	-0.370931	-0.430636	-0.224753
H237	H	-0.404372	-0.390929	-0.280033
C238	C	-0.446413	-0.301065	-0.220591
C239	C	-0.427669	-0.358369	-0.202010
H240	H	-0.471999	-0.285268	-0.197234
H241	H	-0.418402	-0.272193	-0.223093
H242	H	-0.461559	-0.306865	-0.254054
H243	H	-0.412518	-0.352567	-0.168551
H244	H	-0.455679	-0.387239	-0.199502
O245	O	-0.185909	-0.543180	-0.317995
C246	C	-0.156438	-0.586136	-0.347554
H247	H	-0.177858	-0.632755	-0.349318
H248	H	-0.116698	-0.593135	-0.328486
C249	C	-0.122687	-0.503371	-0.401049
C250	C	-0.148997	-0.560628	-0.403220
H251	H	-0.118094	-0.487636	-0.435387
H252	H	-0.142540	-0.474430	-0.381134
H253	H	-0.089572	-0.509211	-0.385158
H254	H	-0.182113	-0.554785	-0.419106
H255	H	-0.129149	-0.589567	-0.423140
H256	H	-0.953024	-0.978217	-0.191334
H257	H	-0.801030	-0.792563	-0.345957
H258	H	-0.337189	-0.464889	-0.244272
H259	H	-0.701980	-0.792532	-0.345950
H260	H	-0.549848	-0.832543	-0.312516
H261	H	-0.312325	-0.666722	-0.191113
H262	H	-0.450677	-0.977991	-0.191278
H263	H	-0.549728	-0.978048	-0.191294
H264	H	-0.312230	-0.832685	-0.953808
O265	O	-0.697608	-1.024569	-0.152642
C266	C	-0.733397	-1.059961	-0.123159
H267	H	-0.772307	-1.062117	-0.144583
H268	H	-0.739246	-1.037057	-0.083431
C269	C	-0.664237	-1.124000	-0.089365
C270	C	-0.712026	-1.126652	-0.115681
H271	H	-0.651054	-1.165137	-0.084750
H272	H	-0.640125	-1.100154	-0.109227
H273	H	-0.669117	-1.104910	-0.056261
H274	H	-0.707143	-1.145734	-0.148787
H275	H	-0.736136	-1.150502	-0.095825
H276	H	-0.450782	-0.832496	-0.312496
O277	O	-0.152186	-1.024575	-0.698453
C278	C	-0.122671	-1.059977	-0.734273
H279	H	-0.120864	-1.034318	-0.773192
H280	H	-0.141805	-1.107548	-0.740083
C281	C	-0.069243	-1.100567	-0.665176
C282	C	-0.067021	-1.069048	-0.712977
H283	H	-0.034916	-1.106165	-0.652040
H284	H	-0.089129	-1.076718	-0.641043
H285	H	-0.085191	-1.140206	-0.670025
H286	H	-0.051080	-1.029408	-0.708126
H287	H	-0.047131	-1.092891	-0.737108
O288	O	-0.152152	-1.024484	-0.806025
C289	C	-0.118384	-0.988859	-0.837620
H290	H	-0.115169	-0.939507	-0.821170
H291	H	-0.134534	-0.986704	-0.879005
C292	C	-0.067976	-1.080134	-0.858657
C293	C	-0.064023	-1.019522	-0.838450
H294	H	-0.034444	-1.099050	-0.859171
H295	H	-0.090727	-1.104137	-0.837372
H296	H	-0.081436	-1.078330	-0.893142
H297	H	-0.050569	-1.021327	-0.803963
H298	H	-0.041268	-0.995520	-0.859729
H299	H	-1.052089	-0.978257	-0.191350
H300	H	-0.191008	-0.978123	-0.451481
H301	H	-0.190872	-0.978203	-0.953827
