data_functionalizedCrystal
_audit_creation_method	'MofGen! by Chris Wilmer'
_symmetry_space_group_name_H-M	'P1'
_symmetry_Int_Tables_number	1
_symmetry_cell_setting	triclinic
loop_
_symmetry_equiv_pos_as_xyz
  x,y,z
_cell_length_a	12.811438
_cell_length_b	15.944551
_cell_length_c	11.295501
_cell_angle_alpha	94.599352
_cell_angle_beta	99.998097
_cell_angle_gamma	83.772108
loop_
_atom_site_label
_atom_site_type_symbol
_atom_site_fract_x
_atom_site_fract_y
_atom_site_fract_z
O1	O	1.408682	0.125994	0.251143
O2	O	1.100982	0.136595	0.217919
O3	O	1.263234	0.009095	0.235428
O4	O	1.246430	0.253495	0.233635
O5	O	1.250518	-0.001117	0.036003
O6	O	1.088266	0.126383	0.018495
O7	O	1.395966	0.115783	0.051719
Cu8	Cu	1.240955	0.120151	0.016898
Cu9	Cu	1.255993	0.132227	0.252740
O10	O	1.233714	0.243283	0.034210
C11	C	1.055249	0.130582	0.113955
C12	C	0.937924	0.127869	0.101287
C13	C	1.256178	-0.027311	0.135640
C14	C	1.254087	-0.120576	0.135413
C15	C	0.765628	0.118480	-0.025268
C16	C	0.875865	0.121029	-0.013371
C17	C	0.889737	0.132163	0.204054
C18	C	0.779500	0.129614	0.192156
C19	C	0.717450	0.122771	0.077491
C20	C	0.607212	0.120215	0.065595
C21	C	0.621084	0.131355	0.283018
C22	C	0.731322	0.133905	0.294916
C23	C	1.148517	-0.336378	0.124031
C24	C	1.191271	-0.401991	0.030996
C25	C	1.250304	-0.291336	0.135014
C26	C	1.203832	-0.391906	0.227615
C27	C	1.246642	-0.456280	0.134633
C28	C	1.293080	-0.355725	0.041901
C29	C	1.305633	-0.345629	0.238607
C30	C	1.348459	-0.411225	0.145556
C31	C	1.252410	-0.196315	0.135232
C32	C	1.244543	-0.551300	0.134407
C33	C	1.441700	0.121796	0.155685
C34	C	1.559025	0.124509	0.168362
C35	C	1.240770	0.279689	0.134001
C36	C	1.242862	0.372955	0.134235
N37	N	1.230386	0.111656	-0.148980
C38	C	1.342642	0.201903	-0.386142
C39	C	1.334663	0.195477	-0.511668
C40	C	1.206455	0.092374	-0.525559
C41	C	1.214434	0.098800	-0.400033
C42	C	1.282529	0.153567	-0.330329
C43	C	1.290501	0.159997	-0.204802
C44	C	1.162300	0.056890	-0.218695
C45	C	1.154321	0.050464	-0.344221
N46	N	1.266571	0.140715	0.418619
H47	H	0.556690	0.114649	-0.027772
H48	H	1.098884	0.005872	-0.400990
N49	N	0.925099	0.116634	-0.118324
N50	N	1.023525	0.118907	-0.107689
H51	H	1.058298	0.115803	-0.181816
H52	H	1.345943	0.204595	-0.148050
N53	N	1.156479	-0.412251	0.326081
N54	N	1.208949	-0.457845	0.404872
H55	H	1.175502	-0.472211	0.474410
N56	N	1.454532	-0.451884	0.156920
N57	N	1.479915	-0.504823	0.076551
H58	H	1.554827	-0.533540	0.084569
H59	H	1.142918	-0.426741	-0.056781
N60	N	0.953140	0.139188	0.321162
N61	N	1.051559	0.141487	0.331762
H62	H	1.096338	0.146458	0.414470
H63	H	0.715105	0.112913	-0.118633
N64	N	0.571856	0.135726	0.387981
N65	N	0.473432	0.133439	0.377346
H66	H	0.438663	0.136521	0.451473
H67	H	1.383615	0.234836	-0.557105
N68	N	0.794722	0.140905	0.412027
N69	N	0.893145	0.143187	0.422638
H70	H	0.937922	0.148132	0.505350
N71	N	1.412214	0.257830	-0.314940
N72	N	1.509811	0.247976	-0.318303
H73	H	1.558954	0.287471	-0.268014
H74	H	1.064022	-0.303832	0.114810
N75	N	1.340390	-0.335503	-0.056664
N76	N	1.349592	-0.260126	-0.072428
H77	H	1.383001	-0.245841	-0.142040
H78	H	1.353948	-0.320857	0.326385
H79	H	1.151027	0.047776	-0.582332
N80	N	1.100889	0.007525	-0.161665
N81	N	1.108014	0.013274	-0.049590
H82	H	1.064640	-0.021585	-0.009310
