data_functionalizedCrystal
_audit_creation_method	'MofGen! by Chris Wilmer'
_symmetry_space_group_name_H-M	'P1'
_symmetry_Int_Tables_number	1
_symmetry_cell_setting	triclinic
loop_
_symmetry_equiv_pos_as_xyz
  x,y,z
_cell_length_a	11.792241
_cell_length_b	10.654545
_cell_length_c	9.730223
_cell_angle_alpha	89.997167
_cell_angle_beta	89.999420
_cell_angle_gamma	95.661753
loop_
_atom_site_label
_atom_site_type_symbol
_atom_site_fract_x
_atom_site_fract_y
_atom_site_fract_z
O1	O	-0.159395	1.667391	-0.114260
O2	O	0.340605	2.167391	0.385740
O3	O	-0.174589	1.301869	-0.114264
O4	O	0.325411	1.801869	0.385736
O5	O	-0.001842	1.493501	-0.114270
O6	O	0.498158	1.993501	0.385730
O7	O	-0.332142	1.475760	-0.114253
O8	O	0.167858	1.975760	0.385747
O9	O	-0.001837	1.493488	0.114310
O10	O	0.498163	1.993488	0.614310
O11	O	-0.174584	1.301857	0.114316
O12	O	0.325416	1.801857	0.614316
O13	O	-0.159390	1.667379	0.114320
O14	O	0.340610	2.167379	0.614320
Zn15	Zn	-0.166987	1.484616	0.150610
Zn16	Zn	0.333013	1.984616	0.650610
Zn17	Zn	-0.166993	1.484632	-0.150554
Zn18	Zn	0.333007	1.984632	0.349446
O19	O	-0.332138	1.475748	0.114326
O20	O	0.167862	1.975748	0.614326
C21	C	-0.173472	1.255068	0.000025
C22	C	0.326528	1.755068	0.500025
C23	C	-0.170138	1.115634	0.000023
C24	C	0.329862	1.615634	0.500023
C25	C	-0.168565	1.050127	0.124623
C26	C	0.331435	1.550127	0.624623
C27	C	-0.165413	0.919117	0.124623
C28	C	0.334587	1.419117	0.624623
C29	C	-0.165411	0.919131	-0.124588
C30	C	0.334589	1.419131	0.375412
C31	C	-0.168555	1.050140	-0.124586
C32	C	0.331445	1.550140	0.375414
C33	C	-0.374433	1.476868	0.000039
C34	C	0.125567	1.976868	0.500039
C35	C	-0.500455	1.480204	0.000045
C36	C	-0.000455	1.980204	0.500045
C37	C	-0.731181	1.486337	0.000010
C38	C	-0.231181	1.986337	0.500010
C39	C	-0.602788	1.482929	0.000029
C40	C	-0.102788	1.982929	0.500029
C41	C	0.040454	1.492380	0.000015
C42	C	0.540454	1.992380	0.500015
C43	C	0.166475	1.489045	0.000000
C44	C	0.666475	1.989045	0.500000
C45	C	-0.160507	1.714180	0.000028
C46	C	0.339493	2.214180	0.500028
C47	C	-0.163842	1.853614	0.000022
C48	C	0.336158	2.353614	0.500022
N49	N	-0.166982	1.484614	0.356147
N50	N	0.333018	1.984614	0.856147
N51	N	-0.166989	1.484644	-0.356090
N52	N	0.333011	1.984644	0.143910
C53	C	-0.090522	1.569497	0.428070
C54	C	0.409478	2.069497	0.928070
C55	C	-0.090522	1.569510	0.571953
C56	C	0.409478	2.069510	1.071953
C57	C	-0.243452	1.399752	0.571977
C58	C	0.256548	1.899752	1.071977
C59	C	-0.243446	1.399734	0.428096
C60	C	0.256554	1.899734	0.928096
H61	H	-0.164133	0.865787	0.226084
H62	H	0.335867	1.365787	0.726084
H63	H	-0.305709	1.330606	0.369532
H64	H	0.194291	1.830606	0.869532
H65	H	-0.305709	1.330646	0.630572
H66	H	0.194291	1.830646	1.130572
H67	H	-0.169832	1.103478	-0.226056
H68	H	0.330168	1.603478	0.273944
N69	N	-0.170197	1.117007	0.251915
N70	N	0.329803	1.617007	0.751915
N71	N	-0.168801	1.058496	0.363155
N72	N	0.331199	1.558496	0.863155
H73	H	-0.169956	1.105725	0.453060
H74	H	0.330044	1.605725	0.953060
H75	H	-0.028259	1.638610	0.369492
H76	H	0.471741	2.138610	0.869492
N77	N	-0.012397	1.656201	0.645407
N78	N	0.487603	2.156201	1.145407
N79	N	0.092529	1.653762	0.629321
N80	N	0.592529	2.153762	1.129321
H81	H	0.147715	1.714989	0.681193
H82	H	0.647715	2.214989	1.181193
N83	N	-0.163793	0.852208	-0.251854
N84	N	0.336207	1.352208	0.248146
N85	N	-0.160987	0.735237	-0.251841
N86	N	0.339013	1.235237	0.248159
H87	H	-0.159846	0.687973	-0.341725
H88	H	0.340154	1.187973	0.158275
