data_functionalizedCrystal
_audit_creation_method	'MofGen! by Chris Wilmer'
_symmetry_space_group_name_H-M	'P1'
_symmetry_Int_Tables_number	1
_symmetry_cell_setting	triclinic
loop_
_symmetry_equiv_pos_as_xyz
  x,y,z
_cell_length_a	19.805407
_cell_length_b	19.076808
_cell_length_c	19.805399
_cell_angle_alpha	87.672943
_cell_angle_beta	89.980427
_cell_angle_gamma	92.323385
loop_
_atom_site_label
_atom_site_type_symbol
_atom_site_fract_x
_atom_site_fract_y
_atom_site_fract_z
Zn1	Zn	1.023914	-0.280233	-0.371886
Zn2	Zn	1.019283	-0.397938	-0.254147
Zn3	Zn	0.910727	-0.280252	-0.258710
Zn4	Zn	0.906148	-0.397901	-0.367295
O5	O	0.965018	-0.339081	-0.313009
O6	O	1.118016	-0.295854	-0.356279
O7	O	1.004861	-0.382351	-0.160035
O8	O	0.929597	-0.181753	-0.277553
O9	O	1.114613	-0.382332	-0.269777
O10	O	1.012754	-0.181739	-0.360703
O11	O	0.925106	-0.295887	-0.163387
O12	O	0.815404	-0.295851	-0.273102
O13	O	0.921791	-0.382268	-0.462622
O14	O	0.812039	-0.382287	-0.352879
O15	O	1.008313	-0.295818	-0.465994
O16	O	1.000421	-0.496429	-0.265326
O17	O	0.917301	-0.496402	-0.348455
C18	C	0.789162	-0.339067	-0.312988
C19	C	0.713930	-0.339079	-0.312994
C20	C	0.957879	-0.521955	-0.305912
C21	C	0.954888	-0.600189	-0.302898
C22	C	0.676849	-0.384154	-0.354462
C23	C	0.606160	-0.384155	-0.354471
C24	C	0.572554	-0.339084	-0.313009
C25	C	0.609640	-0.294004	-0.271540
C26	C	0.680328	-0.294000	-0.271535
C27	C	0.324567	-0.294020	-0.271562
C28	C	0.253874	-0.294029	-0.271569
C29	C	0.250399	-0.384175	-0.354498
C30	C	0.321086	-0.384170	-0.354493
C31	C	0.358167	-0.339088	-0.313027
C32	C	0.434815	-0.339086	-0.313018
C33	C	0.495907	-0.339089	-0.313014
C34	C	0.996745	-0.636876	-0.344809
C35	C	0.993931	-0.710385	-0.341979
C36	C	0.949263	-0.747206	-0.297233
C37	C	0.907400	-0.710515	-0.255321
C38	C	0.910211	-0.637007	-0.258155
C39	C	0.936213	-0.967059	-0.284114
C40	C	0.933407	-1.040572	-0.281281
C41	C	1.019937	-1.040437	-0.367940
C42	C	1.022747	-0.966928	-0.370768
C43	C	0.980882	-0.930243	-0.328858
N44	N	0.946387	-0.822345	-0.294338
N45	N	0.983755	-0.855106	-0.331757
C46	C	1.141560	-0.339095	-0.313031
C47	C	1.216792	-0.339101	-0.313041
C48	C	0.965058	-0.339037	-0.489554
C49	C	0.965074	-0.339018	-0.564787
C50	C	0.972203	-0.155493	-0.320149
C51	C	0.975264	-0.077259	-0.323192
C52	C	1.010128	-0.294001	-0.601888
C53	C	1.010135	-0.293980	-0.672577
C54	C	0.965093	-0.338981	-0.706164
C55	C	0.920035	-0.384000	-0.669057
C56	C	0.920024	-0.384016	-0.598369
C57	C	0.920075	-0.383934	-0.954133
C58	C	0.920091	-0.383916	-1.024826
C59	C	1.010187	-0.293899	-1.028341
C60	C	1.010176	-0.293915	-0.957653
C61	C	0.965116	-0.338931	-0.920553
C62	C	0.965107	-0.338951	-0.843904
C63	C	0.965104	-0.338964	-0.782812
C64	C	0.965019	-0.339074	-0.137154
C65	C	0.965141	-0.338895	-0.061929
H66	H	0.704206	-0.420858	-0.388223
H67	H	1.046857	-0.257273	-0.930311
C68	C	0.870469	-0.433542	-0.557557
C69	C	0.897629	-0.488816	-0.506818
C70	C	0.848071	-0.538343	-0.466008
C71	C	0.771352	-0.532596	-0.475937
C72	C	0.744187	-0.477320	-0.526679
C73	C	0.793746	-0.427793	-0.567489
H74	H	0.954425	-0.493072	-0.499465
H75	H	0.868181	-0.579262	-0.428446
H76	H	0.734666	-0.569259	-0.445727
H77	H	0.687392	-0.473064	-0.534032
H78	H	0.773636	-0.386874	-0.605051
H79	H	0.348445	-0.420874	-0.388253
C80	C	1.065981	-1.080791	-0.414045
C81	C	1.060797	-1.070637	-0.491376
C82	C	1.106841	-1.110990	-0.537485
C83	C	1.158069	-1.161497	-0.506264
C84	C	1.163254	-1.171653	-0.428929
C85	C	1.117210	-1.131300	-0.382820
H86	H	1.022874	-1.033247	-0.514491
H87	H	1.103002	-1.103471	-0.594734
H88	H	1.192153	-1.191368	-0.540397
H89	H	1.201178	-1.209043	-0.405814
H90	H	1.121049	-1.138819	-0.325571
H91	H	0.582273	-0.257304	-0.237784
H92	H	0.226514	-0.257323	-0.237806
H93	H	0.354749	-0.257317	-0.237792
C94	C	0.721121	-0.244417	-0.225921
C95	C	0.714523	-0.164410	-0.234680
C96	C	0.755317	-0.114822	-0.189069
C97	C	0.802709	-0.145241	-0.134699
C98	C	0.809309	-0.225252	-0.125938
C99	C	0.768515	-0.274840	-0.171549
H100	H	0.679439	-0.141888	-0.274930
H101	H	0.750431	-0.055592	-0.195555
H102	H	0.832906	-0.108533	-0.100935
H103	H	0.844393	-0.247774	-0.085688
H104	H	0.773401	-0.334070	-0.165063
H105	H	0.220200	-0.420880	-0.388265
C106	C	0.870503	-0.433429	-0.913315
C107	C	0.897637	-0.488696	-0.862552
C108	C	0.848056	-0.538180	-0.821724
C109	C	0.771341	-0.532398	-0.831659
C110	C	0.744203	-0.477129	-0.882424
C111	C	0.793784	-0.427644	-0.923252
H112	H	0.954429	-0.492978	-0.855196
H113	H	0.868145	-0.579094	-0.784145
H114	H	0.734638	-0.569030	-0.801435
H115	H	0.687411	-0.472847	-0.889780
H116	H	0.773694	-0.386730	-0.960831
C117	C	0.864168	-0.596647	-0.212052
C118	C	0.895458	-0.546115	-0.160891
C119	C	0.849410	-0.505756	-0.114790
C120	C	0.772073	-0.515930	-0.119850
C121	C	0.740779	-0.566465	-0.171014
C122	C	0.786827	-0.606824	-0.217115
H123	H	0.952711	-0.538581	-0.157142
H124	H	0.872576	-0.468347	-0.076915
H125	H	0.737986	-0.486054	-0.085724
H126	H	0.683526	-0.573999	-0.174763
H127	H	0.763661	-0.644233	-0.254990
H128	H	1.059120	-0.936950	-0.407203
H129	H	0.897029	-1.070550	-0.244843
H130	H	0.575972	-0.420860	-0.388237
C131	C	0.858265	-0.751014	-0.206097
C132	C	0.781700	-0.740975	-0.211933
C133	C	0.732566	-0.781472	-0.162705
C134	C	0.759998	-0.832007	-0.107641
C135	C	0.836567	-0.842048	-0.101803
C136	C	0.885701	-0.801552	-0.151031
H137	H	0.761390	-0.703563	-0.252697
H138	H	0.675885	-0.774038	-0.167027
H139	H	0.723626	-0.861985	-0.071200
H140	H	0.856876	-0.879460	-0.061039
H141	H	0.942382	-0.808985	-0.146709
C142	C	1.045883	-0.596375	-0.394030
C143	C	1.091923	-0.636734	-0.440134
C144	C	1.141060	-0.596236	-0.489357
C145	C	1.144158	-0.515380	-0.492477
C146	C	1.098117	-0.475017	-0.446372
C147	C	1.048979	-0.515515	-0.397148
H148	H	1.089631	-0.696592	-0.437825
H149	H	1.175143	-0.626115	-0.523487
H150	H	1.180533	-0.485401	-0.528915
H151	H	1.100408	-0.415159	-0.448680
H152	H	1.014896	-0.485635	-0.363018
H153	H	1.028021	-0.740252	-0.376102
H154	H	0.902127	-0.937196	-0.249987
C155	C	1.059699	-0.244463	-0.713386
C156	C	1.111651	-0.274955	-0.760807
C157	C	1.161217	-0.225434	-0.801614
C158	C	1.158832	-0.145421	-0.794999
C159	C	1.106878	-0.114924	-0.747576
C160	C	1.057312	-0.164445	-0.706769
H161	H	1.113418	-0.334190	-0.765706
H162	H	1.199676	-0.248010	-0.836720
H163	H	1.195523	-0.108762	-0.825207
H164	H	1.105110	-0.055689	-0.742677
H165	H	1.018852	-0.141869	-0.671663
H166	H	1.046809	-0.257358	-0.574547
H167	H	1.046874	-0.257242	-1.058557
H168	H	0.883409	-0.420562	-1.052170
H169	H	0.883358	-0.420637	-0.696409
