data_functionalizedCrystal
_audit_creation_method	'MofGen! by Chris Wilmer'
_symmetry_space_group_name_H-M	'P1'
_symmetry_Int_Tables_number	1
_symmetry_cell_setting	triclinic
loop_
_symmetry_equiv_pos_as_xyz
  x,y,z
_cell_length_a	8.559649
_cell_length_b	14.044220
_cell_length_c	7.088929
_cell_angle_alpha	83.206932
_cell_angle_beta	95.325015
_cell_angle_gamma	81.483771
loop_
_atom_site_label
_atom_site_type_symbol
_atom_site_fract_x
_atom_site_fract_y
_atom_site_fract_z
O1	O	2.100735	-0.021003	-0.158955
O2	O	1.642435	0.027448	-0.158968
O3	O	1.864708	-0.134262	-0.158943
O4	O	1.878463	0.140708	-0.158981
O5	O	1.894406	-0.155917	0.159035
O6	O	1.672134	0.005793	0.159010
O7	O	2.130433	-0.042657	0.159023
Cu8	Cu	1.903995	-0.020409	0.188051
Cu9	Cu	1.868874	0.005200	-0.187996
O10	O	1.908161	0.119053	0.158998
C11	C	1.598278	0.020292	0.000019
C12	C	1.422455	0.031222	0.000015
C13	C	1.873535	-0.179966	0.000047
C14	C	1.855571	-0.283884	0.000048
C15	C	1.822727	-0.474153	0.000020
C16	C	1.950133	-0.541060	0.000018
C17	C	1.931858	-0.646933	0.000002
C18	C	1.841000	-0.368270	0.000036
C19	C	2.174590	-0.035501	0.000031
C20	C	2.350412	-0.046430	0.000023
C21	C	1.899334	0.164757	0.000004
C22	C	1.917296	0.268676	-0.000011
N23	N	1.928709	-0.038422	0.452541
N24	N	1.844171	0.023205	-0.452487
H25	H	2.072921	-0.518820	-0.000107
O26	O	1.437432	-0.135653	-0.000219
C27	C	1.616427	-0.236710	-0.164997
C28	C	1.517968	-0.135614	-0.164937
H29	H	1.681539	-0.236717	-0.298178
H30	H	1.706637	-0.254877	-0.032012
H31	H	1.533892	-0.293404	-0.164898
H32	H	1.600378	-0.078853	-0.165104
H33	H	1.427742	-0.117529	-0.297910
O34	O	1.739820	0.099506	0.450197
C35	C	1.664991	0.273537	0.388663
C36	C	1.783305	0.187214	0.498971
H37	H	1.700086	0.344469	0.428086
H38	H	1.667012	0.272142	0.228431
H39	H	1.540201	0.267895	0.427909
H40	H	1.908150	0.192799	0.459885
H41	H	1.781144	0.188637	0.659176
O42	O	1.335380	0.120485	-0.000258
C43	C	1.125613	0.243992	-0.165081
C44	C	1.224081	0.142883	-0.164986
H45	H	1.035627	0.262141	-0.298270
H46	H	1.060239	0.244050	-0.032105
H47	H	1.208170	0.300671	-0.164992
H48	H	1.141636	0.086147	-0.165143
H49	H	1.289473	0.142907	-0.297951
H50	H	1.699936	-0.496383	0.000012
O51	O	2.033470	-0.114535	0.549864
C52	C	2.306199	-0.193848	0.611336
C53	C	2.187741	-0.107591	0.501037
H54	H	2.430948	-0.188274	0.571870
H55	H	2.304330	-0.192386	0.771569
H56	H	2.270981	-0.264787	0.572125
H57	H	2.222876	-0.036608	0.540089
H58	H	2.189629	-0.109139	0.340831
