data_functionalizedCrystal
_audit_creation_method	'MofGen! by Chris Wilmer'
_symmetry_space_group_name_H-M	'P1'
_symmetry_Int_Tables_number	1
_symmetry_cell_setting	triclinic
loop_
_symmetry_equiv_pos_as_xyz
  x,y,z
_cell_length_a	14.853558
_cell_length_b	14.853567
_cell_length_c	14.586319
_cell_angle_alpha	90.000002
_cell_angle_beta	89.997019
_cell_angle_gamma	83.633032
loop_
_atom_site_label
_atom_site_type_symbol
_atom_site_fract_x
_atom_site_fract_y
_atom_site_fract_z
O1	O	1.196369	0.117663	-0.076221
O2	O	1.696369	0.617663	0.423779
O3	O	0.933908	0.131693	-0.076225
O4	O	1.433908	0.631693	0.423775
O5	O	1.072149	-0.006552	-0.076226
O6	O	1.572149	0.493448	0.423774
O7	O	1.058128	0.255908	-0.076220
O8	O	1.558128	0.755908	0.423780
O9	O	1.072140	-0.006554	0.076255
O10	O	1.572140	0.493446	0.576255
O11	O	0.933898	0.131691	0.076256
O12	O	1.433898	0.631691	0.576256
O13	O	1.196359	0.117661	0.076260
O14	O	1.696359	0.617661	0.576260
Cu15	Cu	1.065128	0.124676	0.090181
Cu16	Cu	1.565128	0.624676	0.590181
Cu17	Cu	1.065139	0.124678	-0.090146
Cu18	Cu	1.565139	0.624678	0.409854
O19	O	1.058118	0.255906	0.076261
O20	O	1.558118	0.755906	0.576261
C21	C	0.900314	0.131058	0.000015
C22	C	1.400314	0.631058	0.500015
C23	C	0.800230	0.129158	0.000014
C24	C	1.300230	0.629158	0.500014
C25	C	0.753215	0.128267	-0.083107
C26	C	1.253215	0.628267	0.416893
C27	C	0.753203	0.128254	0.083133
C28	C	1.253203	0.628254	0.583133
C29	C	0.659170	0.126464	0.083135
C30	C	1.159170	0.626464	0.583135
C31	C	0.612155	0.125574	0.000014
C32	C	1.112155	0.625574	0.500014
C33	C	0.659173	0.126474	-0.083108
C34	C	1.159173	0.626474	0.416892
C35	C	0.612145	0.125554	0.166255
C36	C	1.112145	0.625554	0.666255
C37	C	0.518106	0.123763	0.166260
C38	C	1.018106	0.623763	0.666260
C39	C	0.471088	0.122879	0.083139
C40	C	0.971088	0.622879	0.583139
C41	C	0.518113	0.123781	0.000013
C42	C	1.018113	0.623781	0.500013
C43	C	0.471098	0.122890	-0.083108
C44	C	0.971098	0.622890	0.416892
C45	C	0.518119	0.123798	-0.166234
C46	C	1.018119	0.623798	0.333766
C47	C	0.612156	0.125590	-0.166230
C48	C	1.112156	0.625590	0.333770
C49	C	0.377052	0.121087	0.083134
C50	C	0.877052	0.621087	0.583134
C51	C	0.377056	0.121097	-0.083109
C52	C	0.877056	0.621097	0.416891
C53	C	1.071509	-0.040141	0.000012
C54	C	1.571509	0.459859	0.500012
C55	C	1.069605	-0.140225	0.000004
C56	C	1.569605	0.359775	0.500004
C57	C	0.979439	-0.552756	0.000020
C58	C	1.479439	-0.052756	0.500020
C59	C	1.143673	-0.574042	0.000023
C60	C	1.643673	-0.074042	0.500023
C61	C	1.145463	-0.480009	0.000017
C62	C	1.645463	0.019991	0.500017
C63	C	1.064240	-0.422344	0.000015
C64	C	1.564240	0.077656	0.500015
C65	C	0.981227	-0.458713	0.000018
C66	C	1.481227	0.041287	0.500018
C67	C	1.228474	-0.443632	0.000023
C68	C	1.728474	0.056368	0.500023
C69	C	1.230268	-0.349593	0.000019
C70	C	1.730268	0.150407	0.500019
C71	C	1.149044	-0.291927	0.000010
C72	C	1.649044	0.208073	0.500010
C73	C	1.066027	-0.328301	0.000012
C74	C	1.566027	0.171699	0.500012
C75	C	0.984805	-0.270637	0.000010
C76	C	1.484805	0.229363	0.500010
C77	C	0.901787	-0.307009	0.000005
C78	C	1.401787	0.192991	0.500005
C79	C	0.900003	-0.401047	0.000009
C80	C	1.400003	0.098953	0.500009
C81	C	1.150828	-0.197890	0.000006
C82	C	1.650828	0.302110	0.500006
C83	C	0.986592	-0.176594	0.000007
C84	C	1.486592	0.323406	0.500007
C85	C	1.229953	0.118296	0.000018
C86	C	1.729953	0.618296	0.500018
C87	C	1.330037	0.120197	0.000013
C88	C	1.830037	0.620197	0.500013
C89	C	1.058758	0.289496	0.000021
C90	C	1.558758	0.789496	0.500021
C91	C	1.060662	0.389580	0.000023
C92	C	1.560662	0.889580	0.500023
N93	N	1.065127	0.124674	0.217012
N94	N	1.565127	0.624674	0.717012
N95	N	1.065148	0.124674	-0.216977
N96	N	1.565148	0.624674	0.283023
C97	C	1.126360	0.063479	0.452018
C98	C	1.626360	0.563479	0.952018
C99	C	1.126363	0.063477	0.548000
C100	C	1.626363	0.563477	1.048000
C101	C	1.003908	0.185871	0.548010
C102	C	1.503908	0.685871	1.048010
C103	C	1.003902	0.185868	0.452030
C104	C	1.503902	0.685868	0.952030
C105	C	1.065133	0.124673	0.404037
C106	C	1.565133	0.624673	0.904037
C107	C	1.065142	0.124674	0.595998
C108	C	1.565142	0.624674	1.095998
C109	C	1.065144	0.124672	0.700065
C110	C	1.565144	0.624672	1.200065
C111	C	1.065130	0.124674	0.299963
C112	C	1.565130	0.624674	0.799963
H113	H	0.791504	0.129010	-0.150787
H114	H	1.291504	0.629010	0.349213
H115	H	0.650450	0.126328	-0.233907
H116	H	1.150450	0.626328	0.266093
N117	N	1.316067	-0.505834	0.000037
N118	N	1.816067	-0.005834	0.500037
H119	H	1.318990	-0.545325	-0.056487
H120	H	1.818990	-0.045325	0.443513
H121	H	1.368882	-0.468468	0.000079
H122	H	1.868882	0.031532	0.500079
N123	N	0.937882	0.251882	0.599778
N124	N	1.437882	0.751882	1.099778
H125	H	0.899093	0.290647	0.554815
H126	H	1.399093	0.790647	1.054815
H127	H	0.897987	0.217301	0.639610
H128	H	1.397987	0.717301	1.139610
N129	N	1.240356	-0.158657	0.000021
N130	N	1.740356	0.341343	0.500021
H131	H	1.291538	-0.209456	0.000029
H132	H	1.791538	0.290544	0.500029
H133	H	1.244684	-0.120107	-0.056507
H134	H	1.744684	0.379893	0.443493
N135	N	1.192397	-0.002521	0.400252
N136	N	1.692397	0.497479	0.900252
H137	H	1.231183	-0.041288	0.445216
H138	H	1.731183	0.458712	0.945216
H139	H	1.157833	-0.042439	0.360434
H140	H	1.657833	0.457561	0.860434
H141	H	0.338770	0.120356	0.150814
H142	H	0.838770	0.620356	0.650814
H143	H	0.791489	0.128972	0.150806
H144	H	1.291489	0.628972	0.650806
N145	N	0.326348	0.120142	-0.172762
N146	N	0.826348	0.620142	0.327238
H147	H	0.370407	0.120989	-0.225417
H148	H	0.870407	0.620989	0.274583
H149	H	0.294578	0.063552	-0.176390
H150	H	0.794578	0.563552	0.323610
H151	H	1.297865	-0.319987	0.000022
H152	H	1.797865	0.180013	0.500022
N153	N	0.937865	0.251880	0.400274
N154	N	1.437865	0.751880	0.900274
H155	H	0.947152	0.242589	0.332190
H156	H	1.447152	0.742589	0.832190
H157	H	0.873900	0.241354	0.417058
H158	H	1.373900	0.741354	0.917058
N159	N	0.467401	0.122828	-0.255880
N160	N	0.967401	0.622828	0.244120
H161	H	0.421138	0.177923	-0.259576
H162	H	0.921138	0.677923	0.240424
H163	H	0.511511	0.123642	-0.308491
H164	H	1.011511	0.623642	0.191509
N165	N	0.662850	0.126514	0.255902
N166	N	1.162850	0.626514	0.755902
H167	H	0.729556	0.127795	0.243287
H168	H	1.229556	0.627795	0.743287
H169	H	0.639165	0.182042	0.292202
H170	H	1.139165	0.682042	0.792202
H171	H	0.835656	-0.260047	0.000010
H172	H	1.335656	0.239953	0.500010
H173	H	0.479829	0.123023	0.233947
H174	H	0.979829	0.623023	0.733947
H175	H	1.176218	0.013647	0.587063
H176	H	1.676218	0.513647	1.087063
N177	N	0.810470	-0.440276	0.000008
N178	N	1.310470	0.059724	0.500008
H179	H	0.821664	-0.508598	0.000016
H180	H	1.321664	-0.008598	0.500016
H181	H	0.774922	-0.419186	0.056534
H182	H	1.274922	0.080814	0.556534
H183	H	0.920449	-0.129649	0.000001
H184	H	1.420449	0.370351	0.500001
H185	H	0.911848	-0.582375	0.000013
H186	H	1.411848	-0.082375	0.500013
H187	H	1.209801	-0.620998	0.000032
H188	H	1.709801	-0.120998	0.500032
