data_functionalizedCrystal
_audit_creation_method	'MofGen! by Chris Wilmer'
_symmetry_space_group_name_H-M	'P1'
_symmetry_Int_Tables_number	1
_symmetry_cell_setting	triclinic
loop_
_symmetry_equiv_pos_as_xyz
  x,y,z
_cell_length_a	17.699077
_cell_length_b	17.699083
_cell_length_c	16.776229
_cell_angle_alpha	89.995692
_cell_angle_beta	89.994802
_cell_angle_gamma	83.281795
loop_
_atom_site_label
_atom_site_type_symbol
_atom_site_fract_x
_atom_site_fract_y
_atom_site_fract_z
O1	O	1.004080	0.095688	-0.066279
O2	O	1.504080	0.595688	0.433721
O3	O	0.783701	0.108145	-0.066283
O4	O	1.283701	0.608145	0.433717
O5	O	0.900117	-0.008273	-0.066274
O6	O	1.400117	0.491727	0.433726
O7	O	0.887664	0.212106	-0.066288
O8	O	1.387664	0.712106	0.433712
O9	O	0.900104	-0.008273	0.066302
O10	O	1.400104	0.491727	0.566302
O11	O	0.783688	0.108145	0.066293
O12	O	1.283688	0.608145	0.566293
O13	O	1.004067	0.095688	0.066297
O14	O	1.504067	0.595688	0.566297
Zn15	Zn	0.893875	0.101916	0.087345
Zn16	Zn	1.393875	0.601916	0.587345
Zn17	Zn	0.893893	0.101917	-0.087331
Zn18	Zn	1.393893	0.601917	0.412669
O19	O	0.887651	0.212106	0.066288
O20	O	1.387651	0.712106	0.566288
C21	C	0.755498	0.107700	0.000004
C22	C	1.255498	0.607700	0.500004
C23	C	0.671479	0.106363	0.000003
C24	C	1.171479	0.606363	0.500003
C25	C	0.899664	-0.036470	0.000014
C26	C	1.399664	0.463530	0.500014
C27	C	0.898326	-0.120488	0.000015
C28	C	1.398326	0.379512	0.500015
C29	C	0.632005	0.105733	0.072271
C30	C	1.132005	0.605733	0.572271
C31	C	0.553062	0.104464	0.072272
C32	C	1.053062	0.604464	0.572272
C33	C	0.513595	0.103832	0.000004
C34	C	1.013595	0.603832	0.500004
C35	C	0.553075	0.104460	-0.072270
C36	C	1.053075	0.604460	0.427730
C37	C	0.632017	0.105722	-0.072270
C38	C	1.132017	0.605722	0.427730
C39	C	0.234712	0.099366	-0.072271
C40	C	0.734712	0.599366	0.427729
C41	C	0.155764	0.098106	-0.072265
C42	C	0.655764	0.598106	0.427735
C43	C	0.155757	0.098108	0.072271
C44	C	0.655757	0.598108	0.572271
C45	C	0.234699	0.099371	0.072271
C46	C	0.734699	0.599371	0.572271
C47	C	0.274173	0.099995	-0.000002
C48	C	0.774173	0.599995	0.499998
C49	C	0.359772	0.101369	-0.000002
C50	C	0.859772	0.601369	0.499998
C51	C	0.427997	0.102464	0.000003
C52	C	0.927997	0.602464	0.500003
C53	C	0.966659	-0.169110	0.000017
C54	C	1.466659	0.330890	0.500017
C55	C	0.965397	-0.248054	0.000010
C56	C	1.465397	0.251946	0.500010
C57	C	0.895800	-0.278373	0.000006
C58	C	1.395800	0.221627	0.500006
C59	C	0.827461	-0.229744	0.000001
C60	C	1.327461	0.270256	0.500001
C61	C	0.828724	-0.150803	0.000003
C62	C	1.328724	0.349197	0.500003
C63	C	0.822366	-0.548107	-0.000005
C64	C	1.322366	-0.048107	0.499995
C65	C	0.821108	-0.627055	-0.000004
C66	C	1.321108	-0.127055	0.499996
C67	C	0.959039	-0.645358	0.000002
C68	C	1.459039	-0.145358	0.500002
C69	C	0.960302	-0.566417	0.000003
C70	C	1.460302	-0.066417	0.500003
C71	C	0.891963	-0.517795	-0.000006
C72	C	1.391963	-0.017795	0.499994
C73	C	0.893333	-0.432196	0.000000
C74	C	1.393333	0.067804	0.500000
C75	C	0.894430	-0.363971	0.000006
C76	C	1.394430	0.136029	0.500006
C77	C	1.032271	0.096133	0.000008
C78	C	1.532271	0.596133	0.500008
C79	C	1.116289	0.097470	0.000004
C80	C	1.616289	0.597470	0.500004
C81	C	0.888104	0.240303	-0.000002
C82	C	1.388104	0.740303	0.499998
C83	C	0.889443	0.324321	-0.000008
C84	C	1.389443	0.824321	0.499992
N85	N	0.893869	0.101916	0.206556
N86	N	1.393869	0.601916	0.706556
N87	N	0.893905	0.101911	-0.206542
N88	N	1.393905	0.601911	0.293458
C89	C	0.939684	0.147763	0.248267
C90	C	1.439684	0.647763	0.748267
C91	C	0.939693	0.147760	0.331719
C92	C	1.439693	0.647760	0.831719
C93	C	0.893881	0.101913	0.373459
C94	C	1.393881	0.601913	0.873459
C95	C	0.848064	0.056060	0.331742
C96	C	1.348064	0.556060	0.831742
C97	C	0.848061	0.056060	0.248291
C98	C	1.348061	0.556060	0.748291
C99	C	0.848080	0.056061	0.668289
C100	C	1.348080	0.556061	1.168289
C101	C	0.848085	0.056067	0.751745
C102	C	1.348085	0.556067	1.251745
C103	C	0.939712	0.147762	0.751717
C104	C	1.439712	0.647762	1.251717
C105	C	0.939708	0.147761	0.668267
C106	C	1.439708	0.647761	1.168267
C107	C	0.893894	0.101906	0.626557
C108	C	1.393894	0.601906	1.126557
C109	C	0.893887	0.101908	0.536068
C110	C	1.393887	0.601908	1.036068
C111	C	0.893884	0.101914	0.463946
C112	C	1.393884	0.601914	0.963946
H113	H	0.664132	0.106254	0.131121
H114	H	1.164132	0.606254	0.631121
O115	O	0.514707	0.103712	0.142457
O116	O	1.014707	0.603712	0.642457
C117	C	0.477735	0.037461	0.146779
C118	C	0.977735	0.537461	0.646779
H119	H	0.507606	-0.007950	0.105764
H120	H	1.007606	0.492050	0.605764
H121	H	0.479765	0.015448	0.210698
H122	H	0.979765	0.515448	0.710698
H123	H	0.415938	0.051312	0.127373
H124	H	0.915938	0.551312	0.627373
O125	O	0.803450	0.011613	0.627826
O126	O	1.303450	0.511613	1.127826
C127	C	0.726600	0.032685	0.648260
C128	C	1.226600	0.532685	1.148260
H129	H	0.719183	0.093735	0.671184
H130	H	1.219183	0.593735	1.171184
H131	H	0.689357	0.028318	0.593398
H132	H	1.189357	0.528318	1.093398
H133	H	0.709116	-0.006959	0.696721
H134	H	1.209116	0.493041	1.196721
H135	H	0.766721	-0.508528	-0.000012
H136	H	1.266721	-0.008528	0.499988
H137	H	0.810768	0.018727	0.365732
H138	H	1.310768	0.518727	0.865732
H139	H	0.773080	-0.111214	0.000001
H140	H	1.273080	0.388786	0.500001
H141	H	0.123608	0.097597	0.131120
H142	H	0.623608	0.597597	0.631120
O143	O	0.984256	0.192321	0.207849
O144	O	1.484256	0.692321	0.707849
C145	C	1.024681	0.232800	0.262564
C146	C	1.524681	0.732800	0.762564
H147	H	1.029159	0.201461	0.322052
H148	H	1.529159	0.701461	0.822052
H149	H	1.084184	0.237419	0.238444
H150	H	1.584184	0.737419	0.738444
H151	H	0.993390	0.292250	0.271439
H152	H	1.493390	0.792250	0.771439
H153	H	0.977001	0.185093	0.365677
H154	H	1.477001	0.685093	0.865677
O155	O	0.117494	0.097589	-0.142522
O156	O	0.617494	0.597589	0.357478
C157	C	0.128075	0.163426	-0.186492
C158	C	0.628075	0.663426	0.313508
H159	H	0.182494	0.186188	-0.165952
H160	H	0.682494	0.686188	0.334048
H161	H	0.132732	0.148726	-0.252604
H162	H	0.632732	0.648726	0.247396
H163	H	0.077557	0.208601	-0.176476
H164	H	0.577557	0.708601	0.323524
O165	O	0.272924	0.099950	0.142544
O166	O	0.772924	0.599950	0.642544
C167	C	0.221152	0.099139	0.206332
C168	C	0.721152	0.599139	0.706332
H169	H	0.168059	0.074288	0.185148
H170	H	0.668059	0.574288	0.685148
H171	H	0.248833	0.062771	0.256878
H172	H	0.748833	0.562771	0.756878
H173	H	0.204699	0.159701	0.228552
H174	H	0.704699	0.659701	0.728552
O175	O	0.670415	0.106204	-0.142452
O176	O	1.170415	0.606204	0.357548
C177	C	0.724788	0.041419	-0.146764
C178	C	1.224788	0.541419	0.353236
H179	H	0.707074	-0.004758	-0.105749
H180	H	1.207074	0.495242	0.394251
H181	H	0.728607	0.019439	-0.210681
H182	H	1.228607	0.519439	0.289319
H183	H	0.782649	0.057190	-0.127351
H184	H	1.282649	0.557190	0.372649
O185	O	0.803440	0.011613	0.207806
O186	O	1.303440	0.511613	0.707806
C187	C	0.726582	0.032668	0.228221
C188	C	1.226582	0.532668	0.728221
H189	H	0.719149	0.093715	0.251155
H190	H	1.219149	0.593715	0.751155
H191	H	0.689356	0.028303	0.173346
H192	H	1.189356	0.528303	0.673346
H193	H	0.709093	-0.006988	0.276667
H194	H	1.209093	0.493012	0.776667
H195	H	0.977009	0.185098	0.634287
H196	H	1.477009	0.685098	1.134287
O197	O	0.759902	-0.259285	-0.000109
O198	O	1.259902	0.240715	0.499891
C199	C	0.755044	-0.304382	-0.068781
C200	C	1.255044	0.195618	0.431219
H201	H	0.814737	-0.324154	-0.091671
H202	H	1.314737	0.175846	0.408329
H203	H	0.724967	-0.356021	-0.053338
H204	H	1.224967	0.143979	0.446662
H205	H	0.721501	-0.269439	-0.116862
H206	H	1.221501	0.230561	0.383138
H207	H	1.014683	-0.684956	0.000005
H208	H	1.514683	-0.184956	0.500005
O209	O	0.984203	0.192231	0.792359
O210	O	1.484203	0.692231	1.292359
C211	C	0.974376	0.182416	0.874965
C212	C	1.474376	0.682416	1.374965
H213	H	0.952913	0.125116	0.886374
H214	H	1.452913	0.625116	1.386374
H215	H	1.031100	0.184253	0.906669
H216	H	1.531100	0.684253	1.406669
H217	H	0.931170	0.229941	0.898651
H218	H	1.431170	0.729941	1.398651
O219	O	0.803673	0.011412	0.792257
O220	O	1.303673	0.511412	1.292257
C221	C	0.824781	-0.065440	0.771862
C222	C	1.324781	0.434560	1.271862
H223	H	0.885826	-0.072831	0.748911
H224	H	1.385826	0.427169	1.248911
H225	H	0.820451	-0.102665	0.826751
H226	H	1.320451	0.397335	1.326751
H227	H	0.785137	-0.082966	0.723434
H228	H	1.285137	0.417034	1.223434
H229	H	1.023333	-0.144431	0.000025
H230	H	1.523333	0.355569	0.500025
H231	H	0.266843	0.099872	-0.131120
H232	H	0.766843	0.599872	0.368880
H233	H	0.520935	0.103939	-0.131112
H234	H	1.020935	0.603939	0.368888
H235	H	1.016974	-0.541735	0.000010
H236	H	1.516974	-0.041735	0.500010
O237	O	1.031846	-0.295177	0.000053
O238	O	1.531846	0.204823	0.500053
C239	C	1.093544	-0.251489	0.000044
C240	C	1.593544	0.248511	0.500044
H241	H	1.074219	-0.192535	0.025142
H242	H	1.574219	0.307465	0.525142
H243	H	1.141407	-0.280702	0.038540
H244	H	1.641407	0.219298	0.538540
H245	H	1.114897	-0.245903	-0.063557
H246	H	1.614897	0.254097	0.436443
H247	H	0.764431	-0.651737	-0.000006
H248	H	1.264431	-0.151737	0.499994
