data_functionalizedCrystal
_audit_creation_method	'MofGen! by Chris Wilmer'
_symmetry_space_group_name_H-M	'P1'
_symmetry_Int_Tables_number	1
_symmetry_cell_setting	triclinic
loop_
_symmetry_equiv_pos_as_xyz
  x,y,z
_cell_length_a	15.995300
_cell_length_b	19.188924
_cell_length_c	15.072220
_cell_angle_alpha	89.996779
_cell_angle_beta	89.985917
_cell_angle_gamma	83.306886
loop_
_atom_site_label
_atom_site_type_symbol
_atom_site_fract_x
_atom_site_fract_y
_atom_site_fract_z
O1	O	1.110690	0.089824	-0.073819
O2	O	0.866868	0.100975	-0.073814
O3	O	0.995819	-0.006240	-0.073806
O4	O	0.981740	0.197039	-0.073827
O5	O	0.995787	-0.006234	0.073759
O6	O	0.866836	0.100981	0.073751
O7	O	1.110659	0.089830	0.073746
Zn8	Zn	0.988743	0.095406	0.097178
Zn9	Zn	0.988784	0.095399	-0.097246
O10	O	0.981708	0.197045	0.073738
C11	C	0.835659	0.100523	-0.000031
C12	C	0.742711	0.099159	-0.000029
C13	C	0.995348	-0.032249	-0.000023
C14	C	0.993982	-0.109757	-0.000021
C15	C	0.572537	0.096642	-0.000035
C16	C	0.524790	0.172980	-0.000041
C17	C	0.428107	0.171588	-0.000378
C18	C	0.404990	0.094163	-0.000041
C19	C	0.446280	0.056286	-0.084138
C20	C	0.542907	0.058217	-0.084206
C21	C	0.543154	0.057094	0.083609
C22	C	0.446209	0.057101	0.084712
C23	C	0.310300	0.092759	-0.000047
C24	C	0.667228	0.098044	-0.000035
C25	C	0.993362	-0.146161	-0.080459
C26	C	0.992067	-0.218986	-0.080465
C27	C	0.991409	-0.255408	-0.000029
C28	C	0.992024	-0.218995	0.080419
C29	C	0.993311	-0.146169	0.080424
N30	N	1.037025	-0.374959	0.059836
N31	N	1.035804	-0.444140	0.059826
C32	C	0.987530	-0.474826	-0.000038
N33	N	0.940533	-0.433718	-0.059906
N34	N	0.941758	-0.364531	-0.059899
C35	C	0.990013	-0.334374	-0.000025
C36	C	0.985505	-0.590196	-0.080489
C37	C	0.984204	-0.663022	-0.080492
C38	C	0.984170	-0.663030	0.080395
C39	C	0.985462	-0.590204	0.080396
C40	C	0.986133	-0.553791	-0.000048
C41	C	1.141868	0.090282	-0.000039
C42	C	1.234816	0.091646	-0.000047
C43	C	0.982179	0.223054	-0.000047
C44	C	0.983545	0.300562	-0.000055
N45	N	0.988720	0.095411	0.229866
N46	N	0.988814	0.095388	-0.229935
C47	C	0.988783	0.095396	0.589068
C48	C	0.919554	0.152572	0.551457
C49	C	0.919711	0.152780	0.448631
C50	C	0.988751	0.095404	0.410864
C51	C	1.076059	0.111302	0.448151
C52	C	1.075671	0.111708	0.551009
C53	C	0.971483	0.022152	0.551176
C54	C	0.969477	0.022641	0.448313
C55	C	0.988738	0.095407	0.310150
C56	C	0.988801	0.095394	0.689781
H57	H	0.399521	0.201350	0.059892
Br58	Br	0.937670	0.242659	0.594492
Br59	Br	0.938037	0.243383	0.407588
H60	H	0.575388	0.002161	-0.087794
Br61	Br	0.596485	-0.036710	0.084981
H62	H	0.993812	-0.116529	0.145928
H63	H	0.985974	-0.560564	0.145897
H64	H	0.983628	-0.692683	0.145887
H65	H	0.543154	0.203661	0.060255
Br66	Br	0.811513	0.137045	0.406610
H67	H	0.561139	0.085511	-0.147314
H68	H	0.993906	-0.116518	-0.145962
H69	H	0.991486	-0.248653	0.145910
H70	H	0.431078	0.000653	0.090045
Br71	Br	1.163959	0.043738	0.407382
H72	H	0.991557	-0.248631	-0.145970
Br73	Br	0.986411	-0.540774	-0.189660
Br74	Br	0.423136	-0.038535	-0.088953
H75	H	0.983695	-0.692660	-0.145997
H76	H	0.854437	0.143257	0.576221
Br77	Br	1.101148	0.200737	0.590975
H78	H	1.128781	0.071705	0.575887
H79	H	1.091717	0.164109	0.422376
Br80	Br	0.867682	-0.003321	0.594468
Br81	Br	0.862432	0.002527	0.407700
H82	H	1.016645	-0.021899	0.422608
Br83	Br	0.577145	0.098986	0.189884
Br84	Br	0.557303	0.223352	-0.100413
Br85	Br	0.381524	0.220971	-0.101452
Br86	Br	0.398922	0.099620	-0.188856
H87	H	1.021972	-0.020396	0.575498
H88	H	0.418754	0.084762	0.146928
