data_functionalizedCrystal
_audit_creation_method	'MofGen! by Chris Wilmer'
_symmetry_space_group_name_H-M	'P1'
_symmetry_Int_Tables_number	1
_symmetry_cell_setting	triclinic
loop_
_symmetry_equiv_pos_as_xyz
  x,y,z
_cell_length_a	14.519731
_cell_length_b	14.519709
_cell_length_c	10.268362
_cell_angle_alpha	90.002293
_cell_angle_beta	90.004709
_cell_angle_gamma	83.684499
loop_
_atom_site_label
_atom_site_type_symbol
_atom_site_fract_x
_atom_site_fract_y
_atom_site_fract_z
O1	O	1.223856	0.120980	0.108306
O2	O	0.955382	0.135196	0.108308
O3	O	1.096737	-0.006150	0.108295
O4	O	1.082501	0.262326	0.108319
O5	O	1.096724	-0.006145	-0.108305
O6	O	0.955368	0.135201	-0.108292
O7	O	1.223842	0.120985	-0.108295
Cu8	Cu	1.089604	0.128093	-0.128071
Cu9	Cu	1.089620	0.128088	0.128084
O10	O	1.082487	0.262331	-0.108282
C11	C	0.921016	0.134532	0.000008
C12	C	0.818635	0.132536	0.000009
C13	C	0.735491	0.130915	0.000014
C14	C	0.631182	0.128888	0.000014
C15	C	0.548043	0.127280	0.000014
C16	C	0.443728	0.125253	0.000017
C17	C	1.096067	-0.040507	-0.000005
C18	C	1.094079	-0.142889	-0.000006
C19	C	1.086759	-0.517785	0.000028
C20	C	1.088792	-0.413477	0.000018
C21	C	1.090419	-0.330340	0.000010
C22	C	1.092452	-0.226025	0.000002
C23	C	1.258209	0.121649	0.000008
C24	C	1.360589	0.123645	0.000016
C25	C	1.083157	0.296688	0.000022
C26	C	1.085146	0.399070	0.000031
N27	N	1.089600	0.128097	-0.308237
C28	C	1.089606	0.128097	-0.426079
C29	C	1.089618	0.128089	-0.573917
N30	N	1.089632	0.128077	0.308250
