data_functionalizedCrystal
_audit_creation_method	'MofGen! by Chris Wilmer'
_symmetry_space_group_name_H-M	'P1'
_symmetry_Int_Tables_number	1
_symmetry_cell_setting	triclinic
loop_
_symmetry_equiv_pos_as_xyz
  x,y,z
_cell_length_a	16.625546
_cell_length_b	12.759401
_cell_length_c	12.759393
_cell_angle_alpha	90.019902
_cell_angle_beta	89.963602
_cell_angle_gamma	89.978597
loop_
_atom_site_label
_atom_site_type_symbol
_atom_site_fract_x
_atom_site_fract_y
_atom_site_fract_z
Zn1	Zn	-0.320975	-1.606187	-0.594018
Zn2	Zn	-0.455833	-1.606061	-0.418324
Zn3	Zn	-0.321015	-1.430492	-0.418350
Zn4	Zn	-0.455767	-1.430454	-0.593958
O5	O	-0.388398	-1.518299	-0.506163
O6	O	-0.338875	-1.753191	-0.570727
O7	O	-0.437993	-1.582735	-0.271306
O8	O	-0.208177	-1.453868	-0.441689
O9	O	-0.437954	-1.753099	-0.441645
O10	O	-0.208148	-1.582950	-0.570751
O11	O	-0.338943	-1.453745	-0.271325
O12	O	-0.338880	-1.283466	-0.441630
O13	O	-0.437843	-1.453802	-0.740987
O14	O	-0.437881	-1.283438	-0.570649
O15	O	-0.338812	-1.582912	-0.741031
O16	O	-0.568656	-1.582697	-0.441586
O17	O	-0.568608	-1.453680	-0.570624
C18	C	-0.388378	-1.245331	-0.506136
C19	C	-0.388389	-1.128555	-0.506150
C20	C	-0.439896	-1.073648	-0.438844
C21	C	-0.439908	-0.963924	-0.438860
C22	C	-0.336900	-0.964023	-0.573490
C23	C	-0.336892	-1.073745	-0.573479
C24	C	-0.491393	-1.128458	-0.371515
C25	C	-0.542904	-1.073551	-0.304203
C26	C	-0.542916	-0.963827	-0.304219
C27	C	-0.491417	-0.909010	-0.371546
C28	C	-0.597888	-1.518199	-0.506119
C29	C	-0.687510	-1.518253	-0.506135
C30	C	-1.015685	-1.518436	-0.506244
C31	C	-0.924377	-1.518382	-0.506217
C32	C	-0.851600	-1.518344	-0.506189
C33	C	-0.760286	-1.518291	-0.506163
C34	C	-0.178089	-1.518427	-0.506230
C35	C	-0.088467	-1.518482	-0.506258
C36	C	-0.388315	-1.518367	-0.780196
C37	C	-0.388280	-1.518396	-0.896973
C38	C	-0.388413	-0.792332	-0.506183
C39	C	-0.388409	-0.909109	-0.506177
C40	C	-0.336696	-1.451260	-0.951851
C41	C	-0.336672	-1.451291	-1.061575
C42	C	-0.439819	-1.585605	-1.061533
C43	C	-0.439847	-1.585567	-0.951811
C44	C	-0.285129	-1.384089	-0.897012
C45	C	-0.233540	-1.316948	-0.951890
C46	C	-0.233516	-1.316979	-1.061614
C47	C	-0.285081	-1.384152	-1.116460
C48	C	-0.388421	-1.518291	-0.233195
C49	C	-0.388229	-1.518466	-0.116419
H50	H	-0.584837	-1.118190	-0.249395
C51	C	-0.599578	-0.903428	-0.230183
C52	C	-0.656221	-0.963721	-0.156130
C53	C	-0.712882	-0.903324	-0.082088
C54	C	-0.712900	-0.782634	-0.082101
C55	C	-0.656254	-0.722334	-0.156157
C56	C	-0.599593	-0.782731	-0.230198
H57	H	-0.656210	-1.053069	-0.156118
H58	H	-0.754815	-0.947962	-0.027267
H59	H	-0.754844	-0.737924	-0.027291
H60	H	-0.656266	-0.632986	-0.156168
H61	H	-0.557660	-0.738092	-0.285020
H62	H	-0.491437	-0.819665	-0.371561
H63	H	-0.285060	-1.384170	-1.205805
H64	H	-0.294971	-0.919382	-0.628304
H65	H	-0.294949	-1.118451	-0.628283
C66	C	-0.496588	-1.659420	-0.891437
C67	C	-0.553301	-1.733316	-0.951752
C68	C	-0.610046	-1.807166	-0.891377
C69	C	-0.610077	-1.807120	-0.770687
C70	C	-0.553361	-1.733221	-0.710365
C71	C	-0.496617	-1.659371	-0.770740
H72	H	-0.553280	-1.733352	-1.041100
H73	H	-0.652030	-1.861870	-0.936032
H74	H	-0.652082	-1.861788	-0.725994
H75	H	-0.553382	-1.733185	-0.621017
H76	H	-0.454632	-1.604666	-0.726085
H77	H	-0.491388	-1.217801	-0.371493
H78	H	-0.285141	-1.384057	-0.807669
H79	H	-0.191561	-1.262252	-0.907227
H80	H	-0.191514	-1.262303	-1.106293
H81	H	-0.481800	-1.640296	-1.106198
