data_functionalizedCrystal
_audit_creation_method	'MofGen! by Chris Wilmer'
_symmetry_space_group_name_H-M	'P1'
_symmetry_Int_Tables_number	1
_symmetry_cell_setting	triclinic
loop_
_symmetry_equiv_pos_as_xyz
  x,y,z
_cell_length_a	12.837943
_cell_length_b	19.288865
_cell_length_c	17.766277
_cell_angle_alpha	89.989546
_cell_angle_beta	89.991809
_cell_angle_gamma	88.982594
loop_
_atom_site_label
_atom_site_type_symbol
_atom_site_fract_x
_atom_site_fract_y
_atom_site_fract_z
O1	O	-1.374618	-0.180512	0.062599
O2	O	-1.072854	-0.171595	0.062602
O3	O	-1.232456	-0.075519	0.062586
O4	O	-1.215017	-0.276589	0.062616
O5	O	-1.232427	-0.075514	-0.062603
O6	O	-1.072826	-0.171590	-0.062586
O7	O	-1.374590	-0.180507	-0.062590
Cu8	Cu	-1.223705	-0.176048	-0.074019
Cu9	Cu	-1.223739	-0.176054	0.074031
O10	O	-1.214988	-0.276584	-0.062573
C11	C	-1.034234	-0.168581	0.000008
C12	C	-0.919198	-0.159596	0.000009
C13	C	-1.231880	-0.049602	-0.000011
C14	C	-1.230196	0.027617	-0.000017
C15	C	-1.413211	-0.183522	0.000006
C16	C	-1.528246	-0.192506	0.000010
C17	C	-0.677736	-0.267602	0.000014
C18	C	-0.569649	-0.259164	0.000015
C19	C	-0.594937	-0.134283	0.000004
C20	C	-0.703023	-0.142721	0.000004
C21	C	-0.744419	-0.209382	0.000010
C22	C	-0.852507	-0.217820	0.000016
C23	C	-0.877793	-0.092940	-0.000000
C24	C	-0.769706	-0.084501	-0.000000
C25	C	-1.215564	-0.302501	0.000025
C26	C	-1.217248	-0.379720	0.000037
N27	N	-1.223689	-0.176044	-0.178149
C28	C	-1.323843	0.065919	-0.000022
C29	C	-1.322260	0.138474	-0.000010
C30	C	-1.227026	0.172724	-0.000009
C31	C	-1.133367	0.134414	0.000000
C32	C	-1.134952	0.061860	-0.000004
C33	C	-1.152150	0.286126	-0.043859
C34	C	-1.150569	0.358678	-0.043859
C35	C	-1.222133	0.396504	0.000008
C36	C	-1.295295	0.361769	0.043866
C37	C	-1.296881	0.289215	0.043862
C38	C	-1.225296	0.251396	-0.000003
C39	C	-1.314070	0.513478	0.000017
C40	C	-1.312484	0.586035	0.000034
C41	C	-1.123587	0.581973	0.000037
C42	C	-1.125176	0.509418	0.000028
C43	C	-1.220421	0.475175	0.000015
C44	C	-1.286332	-0.222346	-0.217524
C45	C	-1.286349	-0.222345	-0.296325
C46	C	-1.223702	-0.176049	-0.335749
C47	C	-1.161055	-0.129739	-0.296365
C48	C	-1.161049	-0.129737	-0.217565
C49	C	-1.130288	-0.167914	-0.460608
C50	C	-1.130292	-0.167921	-0.539407
C51	C	-1.223724	-0.176053	-0.578796
C52	C	-1.317153	-0.184192	-0.539376
C53	C	-1.317146	-0.184190	-0.460576
C54	C	-1.223703	-0.176047	-0.421195
C55	C	-1.286390	-0.222356	-0.703616
C56	C	-1.286409	-0.222350	-0.782420
C57	C	-1.161106	-0.129748	-0.782458
C58	C	-1.161097	-0.129750	-0.703656
C59	C	-1.223737	-0.176058	-0.664240
N60	N	-1.223763	-0.176053	0.178162
H61	H	-0.886209	-0.272099	0.000020
H62	H	-1.054198	-0.161296	-0.428545
C63	C	-1.410185	-0.313890	-0.288381
C64	C	-1.355206	-0.273246	-0.339618
H65	H	-1.452688	-0.345317	-0.315108
H66	H	-1.452803	-0.284765	-0.257650
H67	H	-1.362346	-0.339162	-0.257643
H68	H	-1.403045	-0.247970	-0.370352
H69	H	-1.312584	-0.302375	-0.370362
C70	C	-0.987583	-0.090917	-0.193346
C71	C	-1.092174	-0.078844	-0.174282
H72	H	-0.945061	-0.059500	-0.166621
H73	H	-0.978636	-0.084288	-0.245912
H74	H	-0.968117	-0.137147	-0.180423
H75	H	-1.111642	-0.032614	-0.187210
H76	H	-1.101127	-0.085467	-0.121704
C77	C	-1.439768	0.299549	0.130585
C78	C	-1.377285	0.251034	0.092076
H79	H	-1.489399	0.275976	0.160355
H80	H	-1.474973	0.328622	0.095323
H81	H	-1.397304	0.326945	0.162202
H82	H	-1.419748	0.223641	0.060454
H83	H	-1.342078	0.221949	0.127342
H84	H	-1.110049	-0.092044	-0.328469
C85	C	-1.326536	-0.341387	-0.679324
C86	C	-1.355253	-0.273249	-0.660284
H87	H	-1.369055	-0.372805	-0.652576
H88	H	-1.255582	-0.349565	-0.666417
H89	H	-1.335514	-0.348004	-0.731892
H90	H	-1.346268	-0.266631	-0.607717
H91	H	-1.426225	-0.265068	-0.673186
H92	H	-1.046045	0.609859	0.000042
H93	H	-0.711440	-0.321880	0.000021
H94	H	-1.337344	-0.260051	-0.185436
C95	C	-0.514831	-0.363010	0.064385
C96	C	-0.496348	-0.323159	0.000025
H97	H	-0.469572	-0.402517	0.064391
H98	H	-0.585120	-0.377572	0.064378
H99	H	-0.502319	-0.335967	0.108033
H100	H	-0.508868	-0.350201	-0.043623
H101	H	-0.426043	-0.308597	0.000024
C102	C	-0.440469	-0.065906	-0.000014
C103	C	-0.549422	-0.061013	-0.000010
H104	H	-0.412373	-0.020671	-0.000020
H105	H	-0.417568	-0.090175	-0.043665
H106	H	-0.417577	-0.090181	0.043648
H107	H	-0.572314	-0.036742	-0.043676
H108	H	-0.572332	-0.036733	0.043644
H109	H	-0.735987	-0.030227	-0.000014
C110	C	-1.053512	-0.051161	-0.000007
C111	C	-1.032008	0.019753	-0.000001
H112	H	-0.989957	-0.077156	-0.000001
H113	H	-1.092557	-0.062202	-0.043664
H114	H	-1.092592	-0.062221	0.043649
H115	H	-0.992934	0.030813	-0.043660
H116	H	-0.992947	0.030798	0.043660
H117	H	-1.353569	0.392565	0.079587
H118	H	-1.401398	0.038043	-0.000031
C119	C	-1.482804	0.164269	0.064326
C120	C	-1.425204	0.180586	-0.000020
H121	H	-1.546359	0.190264	0.064315
H122	H	-1.443756	0.175319	0.107978
H123	H	-1.497376	0.116157	0.064315
H124	H	-1.410626	0.228698	-0.000007
H125	H	-1.464260	0.169541	-0.043684
C126	C	-0.938307	0.512694	0.000021
C127	C	-1.022235	0.467312	0.000020
H128	H	-0.874754	0.486698	0.000012
H129	H	-0.941624	0.541064	0.043677
H130	H	-0.941618	0.541089	-0.043636
H131	H	-1.018928	0.438920	0.043679
H132	H	-1.018917	0.438930	-0.043641
C133	C	-1.127206	0.203981	-0.144063
C134	C	-1.073478	0.244553	-0.092083
H135	H	-1.078636	0.178314	-0.173828
H136	H	-1.168415	0.233191	-0.175676
H137	H	-1.170993	0.172913	-0.117934
H138	H	-1.029697	0.275624	-0.118212
H139	H	-1.032252	0.215340	-0.060466
C140	C	-1.475565	0.494575	0.064379
C141	C	-1.418756	0.475829	0.000019
H142	H	-1.540189	0.471329	0.064383
H143	H	-1.488026	0.543261	0.064378
H144	H	-1.437010	0.481838	0.108027
H145	H	-1.457308	0.488571	-0.043629
H146	H	-1.406298	0.427132	0.000013
C147	C	-0.891928	0.031351	-0.000008
C148	C	-0.951093	-0.028938	-0.000005
H149	H	-0.937182	0.070861	-0.000004
H150	H	-0.849242	0.032050	-0.043663
H151	H	-0.849246	0.032035	0.043649
H152	H	-0.993769	-0.029624	-0.043665
H153	H	-0.993797	-0.029637	0.043655
H154	H	-1.393220	-0.190815	-0.428483
H155	H	-1.393234	-0.190817	-0.571444
H156	H	-1.055826	0.162305	0.000003
H157	H	-1.090991	0.386954	-0.079566
C158	C	-1.459868	-0.261190	-0.806633
C159	C	-1.355275	-0.273250	-0.825701
H160	H	-1.502381	-0.292618	-0.833350
H161	H	-1.479349	-0.214969	-0.819559
H162	H	-1.468808	-0.267816	-0.754059
H163	H	-1.346333	-0.266618	-0.878274
H164	H	-1.335788	-0.319482	-0.812781
C165	C	-1.037235	-0.038226	-0.711612
C166	C	-1.092223	-0.078861	-0.660370
H167	H	-0.994711	-0.006811	-0.684887
H168	H	-1.085060	-0.012948	-0.742342
H169	H	-0.994627	-0.067364	-0.742349
H170	H	-1.134837	-0.049724	-0.629636
H171	H	-1.044392	-0.104141	-0.629627
C172	C	-0.984111	-0.095271	-0.563710
C173	C	-1.027592	-0.158984	-0.582729
H174	H	-0.920709	-0.089756	-0.590456
H175	H	-0.970746	-0.094106	-0.511148
H176	H	-1.031386	-0.058741	-0.576639
H177	H	-0.980320	-0.195514	-0.569795
H178	H	-1.040953	-0.160155	-0.635302
C179	C	-1.420312	0.669956	0.064397
C180	C	-1.415431	0.628137	0.000034
H181	H	-1.483873	0.695944	0.064398
H182	H	-1.363376	0.700735	0.064399
H183	H	-1.417015	0.641547	0.108043
H184	H	-1.418721	0.656546	-0.043612
H185	H	-1.472383	0.597354	0.000025
H186	H	-1.110099	-0.092052	-0.814556
