data_functionalizedCrystal
_audit_creation_method	'MofGen! by Chris Wilmer'
_symmetry_space_group_name_H-M	'P1'
_symmetry_Int_Tables_number	1
_symmetry_cell_setting	triclinic
loop_
_symmetry_equiv_pos_as_xyz
  x,y,z
_cell_length_a	6.817900
_cell_length_b	12.908943
_cell_length_c	13.168018
_cell_angle_alpha	100.243938
_cell_angle_beta	74.244000
_cell_angle_gamma	79.139369
loop_
_atom_site_label
_atom_site_type_symbol
_atom_site_fract_x
_atom_site_fract_y
_atom_site_fract_z
V1	V	4.014055	-0.343109	-0.147492
O2	O	3.983285	-0.321597	0.008469
O3	O	3.983476	-0.355170	-0.293780
O4	O	3.951985	-0.486177	-0.144617
O5	O	4.014995	-0.189683	-0.141727
V6	V	4.497146	-0.323008	-0.128909
O7	O	4.276263	-0.387203	-0.188255
O8	O	4.685135	-0.278914	-0.088145
O9	O	4.304518	-0.310946	0.017380
O10	O	4.645313	-0.344520	-0.284870
O11	O	4.613603	-0.476434	-0.134674
O12	O	4.336010	-0.179939	-0.131784
C13	C	3.833255	-0.353475	-0.329461
C14	C	3.889449	-0.364290	-0.449050
C15	C	4.001729	-0.477531	-0.632570
C16	C	3.948936	-0.467374	-0.520207
C17	C	3.882762	-0.271358	-0.490265
C18	C	3.935554	-0.281516	-0.602628
C19	C	3.995034	-0.384606	-0.673778
C20	C	4.047814	-0.394763	-0.786143
C21	C	3.981653	-0.198749	-0.756199
C22	C	3.928860	-0.188591	-0.643836
C23	C	3.793083	-0.520586	-0.139187
C24	C	3.823734	-0.637640	-0.137804
C25	C	4.245883	-0.869377	-0.145881
C26	C	4.274693	-0.979359	-0.144583
C27	C	3.910162	-0.967588	-0.133901
C28	C	3.881352	-0.857606	-0.135199
C29	C	4.049222	-0.808504	-0.141191
C30	C	4.020414	-0.698521	-0.142498
C31	C	3.655881	-0.686751	-0.131808
C32	C	3.684691	-0.796733	-0.130510
C33	C	4.118083	-0.312639	0.053055
C34	C	4.041127	-0.301831	0.172643
C35	C	4.158255	-0.145525	-0.137217
C36	C	4.106841	-0.028470	-0.138594
H37	H	3.834349	-0.187429	-0.432317
H38	H	3.976190	-0.123082	-0.789760
H39	H	3.954404	-0.543044	-0.486662
O40	O	4.465707	-1.038643	-0.149284
C41	C	4.758050	-1.193074	-0.247627
C42	C	4.541714	-1.126046	-0.242422
H43	H	4.819586	-1.263740	-0.322935
H44	H	4.741786	-1.225994	-0.171754
H45	H	4.873010	-1.139052	-0.252079
H46	H	4.426639	-1.179998	-0.238006
H47	H	4.558145	-1.093115	-0.318294
H48	H	3.548021	-0.836726	-0.125627
O49	O	4.059799	-0.577615	-0.701807
C50	C	4.331089	-0.708377	-0.851196
C51	C	4.265576	-0.594997	-0.772872
H52	H	4.497480	-0.722475	-0.908657
H53	H	4.217642	-0.713600	-0.900437
H54	H	4.326682	-0.773029	-0.802418
H55	H	4.269997	-0.530279	-0.821566
H56	H	4.379035	-0.589866	-0.723630
O57	O	3.465010	-0.627593	-0.127471
C58	C	3.269246	-0.520269	-0.216514
C59	C	3.485523	-0.587178	-0.221500
H60	H	3.285749	-0.487593	-0.292537
H61	H	3.207502	-0.449435	-0.141351
H62	H	3.154329	-0.574317	-0.211990
H63	H	3.600594	-0.533218	-0.226064
H64	H	3.547092	-0.658020	-0.296651
H65	H	4.157106	-0.658546	-0.147381
O66	O	3.870943	-0.088534	-0.574563
C67	C	3.760403	0.013984	-0.388195
C68	C	3.825918	-0.099396	-0.466519
H69	H	3.724025	0.005240	-0.300826
H70	H	3.614437	0.064785	-0.398630
H71	H	3.894406	0.055867	-0.407161
H72	H	3.692054	-0.141372	-0.447603
H73	H	3.971946	-0.150117	-0.456069
O74	O	4.105556	-0.494815	-0.855409
C75	C	4.216350	-0.597345	-1.041783
C76	C	4.150938	-0.483967	-0.963465
H77	H	4.253102	-0.588614	-1.129164
H78	H	4.082355	-0.639254	-1.022964
H79	H	4.362175	-0.648113	-1.031196
H80	H	4.005163	-0.433111	-0.974008
H81	H	4.285056	-0.442142	-0.982304
H82	H	4.382576	-0.829400	-0.150772
O83	O	3.747200	-1.015383	-0.127932
C84	C	3.519920	-1.109212	-0.026649
C85	C	3.704521	-1.055139	-0.033289
H86	H	3.485327	-1.141349	0.049876
H87	H	3.563209	-1.179426	-0.101301
H88	H	3.374449	-1.046815	-0.023574
H89	H	3.850065	-1.117454	-0.036330
H90	H	3.661055	-0.984905	0.041362
