data_functionalizedCrystal
_audit_creation_method	'MofGen! by Chris Wilmer'
_symmetry_space_group_name_H-M	'P1'
_symmetry_Int_Tables_number	1
_symmetry_cell_setting	triclinic
loop_
_symmetry_equiv_pos_as_xyz
  x,y,z
_cell_length_a	6.817900
_cell_length_b	9.582889
_cell_length_c	11.168136
_cell_angle_alpha	91.014113
_cell_angle_beta	108.508683
_cell_angle_gamma	111.207298
loop_
_atom_site_label
_atom_site_type_symbol
_atom_site_fract_x
_atom_site_fract_y
_atom_site_fract_z
V1	V	-4.124189	-0.207078	-0.393468
O2	O	-4.068780	0.009928	-0.386216
O3	O	-4.114537	-0.410579	-0.390548
O4	O	-4.100261	-0.203903	-0.565177
O5	O	-4.083156	-0.198179	-0.210378
V6	V	-4.599626	-0.181121	-0.371597
O7	O	-4.403187	-0.264018	-0.441444
O8	O	-4.770825	-0.124180	-0.323620
O9	O	-4.386071	0.022380	-0.374517
O10	O	-4.772431	-0.398127	-0.378849
O11	O	-4.758056	-0.190020	-0.554687
O12	O	-4.400348	-0.184296	-0.199887
C13	C	-3.968173	-0.460188	-0.384282
C14	C	-4.041731	-0.626552	-0.383039
C15	C	-3.949960	-0.196550	-0.607037
C16	C	-4.011935	-0.195301	-0.747409
C17	C	-4.214895	-0.201842	-0.816094
C18	C	-4.278954	-0.200550	-0.961175
C19	C	-4.195779	0.071981	-0.380779
C20	C	-4.101460	0.238344	-0.382030
C21	C	-4.213991	-0.191653	-0.158021
C22	C	-4.131252	-0.192895	-0.017648
H23	H	-4.452826	-0.206157	-1.020220
H24	H	-3.957385	-0.187305	-0.958613
O25	O	-3.844547	-0.187101	-0.811639
H26	H	-3.692807	-0.081423	-0.770009
H27	H	-4.341227	-0.208387	-0.767488
