data_functionalizedCrystal
_audit_creation_method	'MofGen! by Chris Wilmer'
_symmetry_space_group_name_H-M	'P1'
_symmetry_Int_Tables_number	1
_symmetry_cell_setting	triclinic
loop_
_symmetry_equiv_pos_as_xyz
  x,y,z
_cell_length_a	15.944551
_cell_length_b	8.559649
_cell_length_c	7.681481
_cell_angle_alpha	85.086760
_cell_angle_beta	84.256492
_cell_angle_gamma	103.361299
loop_
_atom_site_label
_atom_site_type_symbol
_atom_site_fract_x
_atom_site_fract_y
_atom_site_fract_z
O1	O	-0.019570	-2.105021	-0.146399
O2	O	0.023810	-1.639821	-0.146411
O3	O	-0.120976	-1.885126	-0.146389
O4	O	0.125215	-1.859716	-0.146421
O5	O	-0.138833	-1.915319	0.146471
O6	O	0.005953	-1.670014	0.146450
O7	O	-0.037427	-2.135214	0.146461
Zn8	Zn	-0.018572	-1.907408	0.192953
Zn9	Zn	0.004955	-1.867627	-0.192903
O10	O	0.107359	-1.889909	0.146439
C11	C	0.018169	-1.595387	0.000018
C12	C	0.027954	-1.418008	0.000014
C13	C	-0.161130	-1.899168	0.000042
C14	C	-0.254172	-1.896006	0.000042
N15	N	-0.034630	-1.934569	0.456290
C16	C	-0.458726	-1.736394	0.000014
C17	C	-0.533331	-1.825398	0.144414
C18	C	-0.424528	-1.890284	0.000029
C19	C	-0.515712	-1.795667	-0.144323
C20	C	-0.589082	-1.884744	0.000008
C21	C	-0.497915	-1.979342	0.144548
C22	C	-0.480280	-1.949576	-0.144319
C23	C	-0.554877	-2.038696	0.000116
C24	C	-0.329732	-1.893471	0.000042
C25	C	-0.683878	-1.881571	0.000007
C26	C	0.147513	-1.875866	0.000005
C27	C	0.240556	-1.879027	-0.000008
C28	C	-0.031786	-2.179647	0.000028
C29	C	-0.041570	-2.357025	0.000021
N30	N	0.021005	-1.840479	-0.456240
H31	H	-0.417184	-1.608675	0.000155
O32	O	0.107836	-1.318187	0.000075
C33	C	0.100159	-1.157358	0.000020
H34	H	0.031193	-1.156827	0.055474
H35	H	0.148089	-1.090515	0.085032
H36	H	0.114988	-1.094681	-0.140484
O37	O	0.088784	-1.726086	0.453860
C38	C	0.141493	-1.800890	0.347231
H39	H	0.101590	-1.923034	0.319776
H40	H	0.166954	-1.720947	0.217524
H41	H	0.198558	-1.819175	0.418167
H42	H	-0.556682	-1.772895	0.266489
O43	O	-0.102308	-2.049378	0.545924
C44	C	-0.096228	-2.202998	0.500935
H45	H	-0.025977	-2.198764	0.450136
H46	H	-0.118436	-2.295595	0.622242
H47	H	-0.139353	-2.238856	0.394053
H48	H	-0.489573	-2.056976	0.266760
H49	H	-0.524143	-1.717971	-0.266411
H50	H	-0.596291	-2.166550	0.000200
O51	O	-0.452250	-2.011925	-0.290003
C52	C	-0.382336	-1.896627	-0.388963
H53	H	-0.350175	-1.807306	-0.299461
H54	H	-0.332832	-1.960349	-0.448573
H55	H	-0.407466	-1.828994	-0.498875
O56	O	-0.121457	-1.456853	0.000109
C57	C	-0.113771	-1.617670	0.000064
H58	H	-0.051565	-1.629627	0.055501
H59	H	-0.172067	-1.702043	0.085095
H60	H	-0.111466	-1.651382	-0.140436
