data_functionalizedCrystal
_audit_creation_method	'MofGen! by Chris Wilmer'
_symmetry_space_group_name_H-M	'P1'
_symmetry_Int_Tables_number	1
_symmetry_cell_setting	triclinic
loop_
_symmetry_equiv_pos_as_xyz
  x,y,z
_cell_length_a	15.995343
_cell_length_b	15.072220
_cell_length_c	14.519709
_cell_angle_alpha	90.010326
_cell_angle_beta	83.584664
_cell_angle_gamma	89.999635
loop_
_atom_site_label
_atom_site_type_symbol
_atom_site_fract_x
_atom_site_fract_y
_atom_site_fract_z
O1	O	1.111166	0.073695	0.118845
O2	O	1.611166	0.573695	0.618845
O3	O	0.867412	0.073717	0.133532
O4	O	1.367412	0.573717	0.633532
O5	O	0.995752	0.073698	-0.008062
O6	O	1.495752	0.573698	0.491938
O7	O	0.982826	0.073715	0.260439
O8	O	1.482826	0.573715	0.760439
O9	O	0.995743	-0.073868	-0.008079
O10	O	1.495743	0.426132	0.491921
O11	O	0.867404	-0.073848	0.133515
O12	O	1.367404	0.426152	0.633515
O13	O	1.111158	-0.073870	0.118828
O14	O	1.611158	0.426130	0.618828
Zn15	Zn	0.989279	-0.097288	0.126169
Zn16	Zn	1.489279	0.402712	0.626169
Zn17	Zn	0.989290	0.097135	0.126191
Zn18	Zn	1.489290	0.597135	0.626191
O19	O	0.982818	-0.073850	0.260422
O20	O	1.482818	0.426150	0.760422
C21	C	0.836212	-0.000063	0.132918
C22	C	1.336212	0.499937	0.632918
C23	C	0.743259	-0.000055	0.131101
C24	C	1.243259	0.499945	0.631101
C25	C	0.573067	-0.000067	0.127804
C26	C	1.073067	0.499933	0.627804
C27	C	0.549569	-0.000073	0.025595
C28	C	1.049569	0.499927	0.525595
C29	C	0.452888	-0.000414	0.023672
C30	C	0.952888	0.499586	0.523672
C31	C	0.405503	-0.000078	0.124556
C32	C	0.905503	0.499922	0.624556
C33	C	0.434666	-0.084174	0.175939
C34	C	0.934666	0.415826	0.675939
C35	C	0.531460	-0.084239	0.177151
C36	C	1.031460	0.415761	0.677151
C37	C	0.531383	0.083576	0.178667
C38	C	1.031383	0.583576	0.678667
C39	C	0.434882	0.084676	0.174894
C40	C	0.934882	0.584676	0.674894
C41	C	0.310802	-0.000087	0.122726
C42	C	0.810802	0.499913	0.622726
C43	C	0.667768	-0.000064	0.129637
C44	C	1.167768	0.499936	0.629637
N45	N	0.989278	-0.229977	0.126153
N46	N	1.489278	0.270023	0.626153
C47	C	0.989291	-0.589178	0.126184
C48	C	1.489291	-0.089178	0.626184
C49	C	1.058187	-0.551554	0.050673
C50	C	1.558187	-0.051554	0.550673
C51	C	1.058006	-0.448729	0.050394
C52	C	1.558006	0.051271	0.550394
C53	C	0.989285	-0.410974	0.126169
C54	C	1.489285	0.089026	0.626169
C55	C	0.901896	-0.448311	0.105155
C56	C	1.401896	0.051689	0.605155
C57	C	0.902304	-0.551169	0.104622
C58	C	1.402304	-0.051169	0.604622
C59	C	1.006998	-0.551251	0.222931
C60	C	1.506998	-0.051251	0.722931
C61	C	1.008979	-0.448387	0.222283
C62	C	1.508979	0.051613	0.722283
C63	C	0.989276	-0.310261	0.126162
C64	C	1.489276	0.189739	0.626162
C65	C	0.989294	-0.689892	0.126189
C66	C	1.489294	-0.189892	0.626189
C67	C	1.142358	-0.000088	0.119443
C68	C	1.642358	0.499912	0.619443
C69	C	1.235311	-0.000090	0.121259
C70	C	1.735311	0.499910	0.621259
C71	C	0.995145	-0.000085	-0.042429
C72	C	1.495145	0.499915	0.457571
C73	C	0.993340	-0.000085	-0.144807
C74	C	1.493340	0.499915	0.355193
N75	N	0.989299	0.229824	0.126200
N76	N	1.489299	0.729824	0.626200
C77	C	0.986695	-0.000062	-0.519690
C78	C	1.486695	0.499938	-0.019690
C79	C	0.988540	-0.000069	-0.415386
C80	C	1.488540	0.499931	0.084614
C81	C	0.990017	-0.000074	-0.332252
C82	C	1.490017	0.499926	0.167748
C83	C	0.991863	-0.000080	-0.227941
C84	C	1.491863	0.499920	0.272059
C85	C	0.983425	-0.000066	0.294789
C86	C	1.483425	0.499934	0.794789
C87	C	0.985230	-0.000060	0.397167
C88	C	1.485230	0.499940	0.897167
H89	H	0.434387	-0.061055	-0.016376
H90	H	0.934387	0.438945	0.483624
O91	O	0.880756	-0.414222	0.012750
O92	O	1.380756	0.085778	0.512750
H93	H	0.877977	-0.340650	0.014462
H94	H	1.377977	0.159350	0.514462
H95	H	1.047023	-0.577416	-0.020717
H96	H	1.547023	-0.077416	0.479283
O97	O	0.586591	0.079797	-0.026877
O98	O	1.086591	0.579797	0.473123
H99	H	0.569146	0.078298	-0.098734
H100	H	1.069146	0.578298	0.401266
H101	H	1.069367	-0.577189	0.243128
H102	H	1.569367	-0.077189	0.743128
O103	O	0.550923	-0.088997	0.276429
O104	O	1.050923	0.411003	0.776429
H105	H	0.523133	-0.030635	0.315186
H106	H	1.023133	0.469365	0.815186
H107	H	0.402036	0.090019	0.248506
H108	H	0.902036	0.590019	0.748506
H109	H	0.558190	-0.147346	0.141968
H110	H	1.058190	0.352654	0.641968
O111	O	0.587868	-0.079844	-0.026046
O112	O	1.087868	0.420156	0.473954
H113	H	0.623565	-0.119488	0.020769
H114	H	1.123565	0.380512	0.520769
H115	H	1.046678	-0.424134	-0.021403
H116	H	1.546678	0.075866	0.478597
O117	O	0.392615	-0.088024	0.274281
O118	O	0.892615	0.411976	0.774281
H119	H	0.350382	-0.029901	0.287609
H120	H	0.850382	0.470099	0.787609
H121	H	1.123360	-0.576288	0.062983
H122	H	1.623360	-0.076288	0.562983
H123	H	0.956759	-0.575586	0.279125
H124	H	1.456759	-0.075586	0.779125
O125	O	0.881694	-0.582975	0.011153
O126	O	1.381694	-0.082975	0.511153
H127	H	0.871531	-0.524891	-0.033241
H128	H	1.371531	-0.024891	0.466759
O129	O	0.408006	-0.167402	0.129213
O130	O	0.908006	0.332598	0.629213
H131	H	0.373992	-0.149085	0.069406
H132	H	0.873992	0.350915	0.569406
H133	H	0.849387	-0.423856	0.158689
H134	H	1.349387	0.076144	0.658689
H135	H	0.559608	0.147338	0.146427
H136	H	1.059608	0.647338	0.646427
H137	H	0.849489	-0.576058	0.157529
H138	H	1.349489	-0.076058	0.657529
O139	O	0.410224	0.167096	0.125347
O140	O	0.910224	0.667096	0.625347
H141	H	0.377649	0.147778	0.064779
H142	H	0.877649	0.647778	0.564779
O143	O	1.094130	-0.416062	0.243420
O144	O	1.594130	0.083938	0.743420
H145	H	1.122313	-0.373523	0.185721
H146	H	1.622313	0.126477	0.685721
H147	H	0.962062	-0.422685	0.281106
H148	H	1.462062	0.077315	0.781106
H149	H	0.433812	0.059857	-0.016551
H150	H	0.933812	0.559857	0.483449
H151	H	0.545509	0.084391	0.253899
H152	H	1.045509	0.584391	0.753899
O153	O	1.144048	-0.415278	0.066951
O154	O	1.644048	0.084722	0.566951
H155	H	1.186163	-0.472569	0.075227
H156	H	1.686163	0.027431	0.575227
