data_functionalizedCrystal
_audit_creation_method	'MofGen! by Chris Wilmer'
_symmetry_space_group_name_H-M	'P1'
_symmetry_Int_Tables_number	1
_symmetry_cell_setting	triclinic
loop_
_symmetry_equiv_pos_as_xyz
  x,y,z
_cell_length_a	20.453700
_cell_length_b	9.541907
_cell_length_c	9.582880
_cell_angle_alpha	89.850191
_cell_angle_beta	68.792966
_cell_angle_gamma	110.563696
loop_
_atom_site_label
_atom_site_type_symbol
_atom_site_fract_x
_atom_site_fract_y
_atom_site_fract_z
V1	V	-1.384292	-0.206425	0.466331
O2	O	-1.366844	0.010569	0.457733
O3	O	-1.379852	-0.409931	0.462874
O4	O	-1.381014	-0.202965	0.669837
O5	O	-1.365673	-0.197830	0.249337
V6	V	-1.542320	-0.180504	0.440410
O7	O	-1.478279	-0.263286	0.523193
O8	O	-1.598399	-0.123643	0.383548
O9	O	-1.472358	0.023002	0.443867
O10	O	-1.598901	-0.397498	0.449008
O11	O	-1.600071	-0.189099	0.657404
O12	O	-1.471196	-0.183964	0.236904
V13	V	-1.208982	-0.180504	0.440410
O14	O	-1.227600	-0.189099	0.657404
O15	O	-1.212260	-0.183964	0.236904
O16	O	-1.213422	0.023002	0.443867
O17	O	-1.226430	-0.397498	0.449008
V18	V	-1.050954	-0.206425	0.466331
O19	O	-1.114995	-0.123643	0.383548
O20	O	-0.994875	-0.263286	0.523193
O21	O	-1.122078	-0.202965	0.669837
O22	O	-0.993203	-0.197830	0.249337
O23	O	-0.994373	0.010569	0.457733
O24	O	-1.120916	-0.409931	0.462874
C25	C	-1.409377	0.072614	0.451289
C26	C	-1.378906	0.238979	0.452769
V27	V	-0.717625	-0.206425	0.466331
O28	O	-0.700177	0.010569	0.457733
O29	O	-0.713185	-0.409931	0.462874
O30	O	-0.714347	-0.202965	0.669837
O31	O	-0.699007	-0.197830	0.249337
V32	V	-0.875653	-0.180504	0.440410
O33	O	-0.811612	-0.263286	0.523193
O34	O	-0.931732	-0.123643	0.383548
O35	O	-0.805691	0.023002	0.443867
O36	O	-0.932234	-0.397498	0.449008
O37	O	-0.933404	-0.189099	0.657404
O38	O	-0.804529	-0.183964	0.236904
C39	C	-1.330614	-0.459550	0.455448
C40	C	-1.354165	-0.625917	0.453978
C41	C	-1.332096	-0.195542	0.719448
C42	C	-1.356588	-0.194060	0.885813
C43	C	-1.407894	-0.191391	0.187285
C44	C	-1.376482	-0.192866	0.020919
C45	C	-1.261177	-0.191392	0.187285
C46	C	-1.236685	-0.192868	0.020919
C47	C	-1.262661	0.072614	0.451290
C48	C	-1.239112	0.238979	0.452773
C49	C	-1.185379	-0.195542	0.719448
C50	C	-1.216792	-0.194057	0.885813
C51	C	-1.183897	-0.459551	0.455450
C52	C	-1.214370	-0.625919	0.453987
C53	C	-0.663947	-0.459550	0.455448
C54	C	-0.687498	-0.625917	0.453978
C55	C	-0.665429	-0.195542	0.719448
C56	C	-0.689921	-0.194060	0.885813
C57	C	-0.742710	0.072614	0.451289
C58	C	-0.712239	0.238979	0.452769
C59	C	-0.741228	-0.191391	0.187285
C60	C	-0.709815	-0.192866	0.020919
