data_functionalizedCrystal
_audit_creation_method	'MofGen! by Chris Wilmer'
_symmetry_space_group_name_H-M	'P1'
_symmetry_Int_Tables_number	1
_symmetry_cell_setting	triclinic
loop_
_symmetry_equiv_pos_as_xyz
  x,y,z
_cell_length_a	16.109318
_cell_length_b	10.967829
_cell_length_c	14.586319
_cell_angle_alpha	77.868327
_cell_angle_beta	90.000075
_cell_angle_gamma	84.104047
loop_
_atom_site_label
_atom_site_type_symbol
_atom_site_fract_x
_atom_site_fract_y
_atom_site_fract_z
O1	O	1.104067	0.160496	-0.101518
O2	O	0.862125	0.180434	-0.104687
O3	O	0.988675	-0.011187	-0.074400
O4	O	0.977517	0.352116	-0.131806
O5	O	0.988667	-0.011190	0.078082
O6	O	0.862116	0.180431	0.047795
O7	O	1.104058	0.160493	0.050963
Cu8	Cu	0.983086	0.170462	0.063301
Cu9	Cu	0.983097	0.170465	-0.117025
O10	O	0.977508	0.352114	0.020676
C11	C	0.831141	0.179621	-0.028320
C12	C	0.738832	0.177188	-0.027943
C13	C	0.439717	0.169333	-0.109803
C14	C	0.526452	0.171610	-0.110168
C15	C	0.526461	0.171590	0.056078
C16	C	0.439728	0.169304	0.056444
C17	C	0.396358	0.168181	-0.026500
C18	C	0.569825	0.172745	-0.027232
C19	C	0.663867	0.175214	-0.027627
C20	C	0.302311	0.165709	-0.026105
C21	C	0.987858	-0.057678	0.009185
C22	C	0.985427	-0.196202	0.031067
C23	C	0.984348	-0.257953	-0.038168
C24	C	0.981835	-0.401124	-0.015554
C25	C	1.135042	0.161306	-0.025406
C26	C	1.227351	0.163738	-0.025789
C27	C	0.978325	0.398604	-0.062911
C28	C	0.980756	0.537128	-0.084799
N29	N	0.983085	0.170458	0.190134
N30	N	0.983105	0.170458	-0.243856
C31	C	1.039141	0.085637	0.438547
C32	C	1.039143	0.085634	0.534529
C33	C	0.927043	0.255283	0.507724
C34	C	0.927038	0.255279	0.411745
C35	C	0.983091	0.170458	0.377159
C36	C	0.983099	0.170459	0.569119
C37	C	0.983101	0.170456	0.673187
C38	C	0.983088	0.170459	0.273085
H39	H	0.404425	0.168365	0.124283
H40	H	1.084783	0.016564	0.584510
C41	C	0.865398	0.348591	0.545771
H42	H	0.873434	0.336456	0.611723
H43	H	0.809833	0.335016	0.532193
H44	H	0.874908	0.431878	0.516874
H45	H	0.980894	-0.454245	0.060468
C46	C	0.392013	0.168095	-0.201036
H47	H	0.430262	0.169098	-0.250698
H48	H	0.352255	0.239928	-0.215836
H49	H	0.364102	0.094473	-0.192862
C50	C	0.574142	0.172885	-0.201802
H51	H	0.535887	0.171899	-0.251146
H52	H	0.613901	0.101054	-0.193919
H53	H	0.602050	0.246510	-0.216886
C54	C	0.865387	0.348593	0.344208
H55	H	0.873409	0.336434	0.282095
H56	H	0.874894	0.431878	0.346773
H57	H	0.809821	0.335012	0.362084
C58	C	0.574168	0.172804	0.147314
H59	H	0.535922	0.171769	0.196982
H60	H	0.602087	0.246409	0.139157
H61	H	0.613920	0.100953	0.162102
C62	C	0.985614	-0.186195	-0.140862
H63	H	0.987143	-0.099382	-0.142589
H64	H	0.936847	-0.197932	-0.173188
H65	H	1.033648	-0.216993	-0.170162
H66	H	0.981682	-0.409749	-0.160821
C67	C	0.984160	-0.267953	0.133762
H68	H	0.985157	-0.210644	0.174267
H69	H	1.031664	-0.328268	0.146703
H70	H	0.934862	-0.309196	0.143677
C71	C	1.100789	-0.007673	0.400506
H72	H	1.134164	-0.058197	0.450818
H73	H	1.135652	0.037225	0.355964
H74	H	1.070577	-0.059638	0.371282
