data_functionalizedCrystal
_audit_creation_method	'MofGen! by Chris Wilmer'
_symmetry_space_group_name_H-M	'P1'
_symmetry_Int_Tables_number	1
_symmetry_cell_setting	triclinic
loop_
_symmetry_equiv_pos_as_xyz
  x,y,z
_cell_length_a	27.732048
_cell_length_b	27.732048
_cell_length_c	7.540329
_cell_angle_alpha	89.991480
_cell_angle_beta	90.002547
_cell_angle_gamma	82.642655
loop_
_atom_site_label
_atom_site_type_symbol
_atom_site_fract_x
_atom_site_fract_y
_atom_site_fract_z
O1	O	0.640926	0.057516	-0.147273
O2	O	1.140926	0.557516	0.352727
O3	O	0.500133	0.066262	-0.147329
O4	O	1.000133	0.566262	0.352671
O5	O	0.574902	-0.008508	-0.147265
O6	O	1.074902	0.491492	0.352735
O7	O	0.566157	0.132286	-0.147336
O8	O	1.066157	0.632286	0.352664
O9	O	0.574898	-0.008509	0.147700
O10	O	1.074898	0.491491	0.647700
O11	O	0.500128	0.066261	0.147636
O12	O	1.000128	0.566261	0.647636
O13	O	0.640922	0.057515	0.147692
O14	O	1.140922	0.557515	0.647692
Cu15	Cu	0.570525	0.061888	0.174597
Cu16	Cu	1.070525	0.561888	0.674597
Cu17	Cu	0.570530	0.061889	-0.174234
Cu18	Cu	1.070530	0.561889	0.325766
O19	O	0.566152	0.132285	0.147629
O20	O	1.066152	0.632285	0.647629
C21	C	0.482124	0.066078	0.000147
C22	C	0.982124	0.566078	0.500147
C23	C	0.428469	0.065525	0.000127
C24	C	0.928469	0.565525	0.500127
C25	C	0.089654	0.106229	0.000183
C26	C	0.589654	0.606229	0.500183
C27	C	-0.112006	0.104178	0.000200
C28	C	0.387994	0.604178	0.500200
O29	O	-0.143262	0.141398	0.000258
O30	O	0.356738	0.641398	0.500258
N31	N	-0.131130	0.059843	0.000219
N32	N	0.368870	0.559843	0.500219
C33	C	-0.099835	0.016017	0.000246
C34	C	0.400165	0.516017	0.500246
O35	O	-0.120728	-0.021740	0.000281
O36	O	0.379272	0.478260	0.500281
C37	C	0.101824	0.018068	0.000241
C38	C	0.601824	0.518068	0.500241
C39	C	0.120944	0.062407	0.000204
C40	C	0.620944	0.562407	0.500204
C41	C	0.108775	0.150563	0.000148
C42	C	0.608775	0.650563	0.500148
C43	C	0.159187	0.151075	0.000134
C44	C	0.659187	0.651075	0.500134
C45	C	0.190477	0.107253	0.000155
C46	C	0.690477	0.607253	0.500155
C47	C	0.171356	0.062919	0.000190
C48	C	0.671356	0.562919	0.500190
C49	C	0.133117	-0.025757	0.000281
C50	C	0.633117	0.474243	0.500281
C51	C	0.183535	-0.025240	0.000284
C52	C	0.683535	0.474760	0.500284
C53	C	0.202655	0.019098	0.000247
C54	C	0.702655	0.519098	0.500247
C55	C	0.253059	0.019609	0.000198
C56	C	0.753059	0.519609	0.500198
N57	N	0.272183	0.063944	0.000179
N58	N	0.772183	0.563944	0.500179
C59	C	0.240892	0.107766	0.000157
C60	C	0.740892	0.607766	0.500157
C61	C	-0.205709	0.014943	0.000244
C62	C	0.294291	0.514943	0.500244
C63	C	-0.256124	0.014430	0.000242
C64	C	0.243876	0.514430	0.500242
C65	C	-0.268291	0.102591	0.000200
C66	C	0.231709	0.602591	0.500200
C67	C	-0.217876	0.103104	0.000189
C68	C	0.282124	0.603104	0.500189
C69	C	-0.186585	0.059278	0.000225
C70	C	0.313415	0.559278	0.500225
C71	C	0.346761	0.108839	0.000127
C72	C	0.846761	0.608839	0.500127
C73	C	0.397178	0.109347	0.000105
C74	C	0.897178	0.609347	0.500105
C75	C	0.409341	0.021186	0.000157
C76	C	0.909341	0.521186	0.500157
C77	C	0.358929	0.020678	0.000169
C78	C	0.858929	0.520678	0.500169
C79	C	0.327639	0.064508	0.000160
C80	C	0.827639	0.564508	0.500160
O81	O	0.284343	-0.017592	0.000160
O82	O	0.784343	0.482408	0.500160
O83	O	0.261794	0.145518	0.000162
O84	O	0.761794	0.645518	0.500162
C85	C	0.039242	0.105716	0.000197
C86	C	0.539242	0.605716	0.500197
C87	C	0.020120	0.061382	0.000232
C88	C	0.520120	0.561382	0.500232
C89	C	0.051411	0.017560	0.000253
C90	C	0.551411	0.517560	0.500253
C91	C	-0.030294	0.060869	0.000230
C92	C	0.469706	0.560869	0.500230
C93	C	-0.061585	0.104691	0.000209
C94	C	0.438415	0.604691	0.500209
C95	C	-0.042461	0.149026	0.000189
C96	C	0.457539	0.649026	0.500189
C97	C	0.007951	0.149539	0.000176
C98	C	0.507951	0.649539	0.500176
C99	C	0.032287	-0.026775	0.000273
C100	C	0.532287	0.473225	0.500273
C101	C	-0.018125	-0.027284	0.000284
C102	C	0.481875	0.472716	0.500284
C103	C	-0.049416	0.016538	0.000263
C104	C	0.450584	0.516538	0.500263
C105	C	0.574716	-0.026515	0.000222
C106	C	1.074716	0.473485	0.500222
C107	C	0.574164	-0.080170	0.000236
C108	C	1.074164	0.419830	0.500236
C109	C	0.614867	-0.418985	0.000162
C110	C	1.114867	0.081015	0.500162
C111	C	0.612816	-0.620645	0.000136
C112	C	1.112816	-0.120645	0.500136
O113	O	0.650037	-0.651900	0.000073
O114	O	1.150037	-0.151900	0.500073
N115	N	0.568481	-0.639768	0.000120
N116	N	1.068481	-0.139768	0.500120
C117	C	0.524656	-0.608474	0.000099
C118	C	1.024656	-0.108474	0.500099
O119	O	0.486899	-0.629367	0.000066
O120	O	0.986899	-0.129367	0.500066
C121	C	0.526707	-0.406815	0.000111
C122	C	1.026707	0.093185	0.500111
C123	C	0.571045	-0.387694	0.000145
C124	C	1.071045	0.112306	0.500145
C125	C	0.659202	-0.399864	0.000194
C126	C	1.159202	0.100136	0.500194
C127	C	0.659714	-0.349452	0.000210
C128	C	1.159714	0.150548	0.500210
C129	C	0.615892	-0.318161	0.000194
C130	C	1.115892	0.181839	0.500194
C131	C	0.571557	-0.337282	0.000162
C132	C	1.071557	0.162718	0.500162
C133	C	0.482882	-0.375521	0.000077
C134	C	0.982882	0.124479	0.500077
C135	C	0.483399	-0.325104	0.000076
C136	C	0.983399	0.174896	0.500076
C137	C	0.527737	-0.305983	0.000110
C138	C	1.027737	0.194017	0.500110
C139	C	0.528248	-0.255580	0.000162
C140	C	1.028248	0.244420	0.500162
N141	N	0.572583	-0.236456	0.000178
N142	N	1.072583	0.263544	0.500178
C143	C	0.616405	-0.267747	0.000194
C144	C	1.116405	0.232253	0.500194
C145	C	0.523582	-0.714348	0.000095
C146	C	1.023582	-0.214348	0.500095
C147	C	0.523069	-0.764762	0.000095
C148	C	1.023069	-0.264762	0.500095
C149	C	0.611230	-0.776930	0.000129
C150	C	1.111230	-0.276930	0.500129
C151	C	0.611742	-0.726514	0.000142
C152	C	1.111742	-0.226514	0.500142
C153	C	0.567917	-0.695224	0.000111
C154	C	1.067917	-0.195224	0.500111
C155	C	0.617477	-0.161878	0.000229
C156	C	1.117477	0.338122	0.500229
C157	C	0.617986	-0.111461	0.000252
C158	C	1.117986	0.388539	0.500252
C159	C	0.529825	-0.099298	0.000209
C160	C	1.029825	0.400702	0.500209
C161	C	0.529316	-0.149710	0.000195
C162	C	1.029316	0.350290	0.500195
C163	C	0.573147	-0.180999	0.000199
C164	C	1.073147	0.319001	0.500199
O165	O	0.491047	-0.224296	0.000204
O166	O	0.991047	0.275704	0.500204
O167	O	0.654156	-0.246844	0.000187
O168	O	1.154156	0.253156	0.500187
C169	C	0.614355	-0.469397	0.000145
C170	C	1.114355	0.030603	0.500145
C171	C	0.570021	-0.488518	0.000113
C172	C	1.070021	0.011482	0.500113
C173	C	0.526198	-0.457228	0.000097
C174	C	1.026198	0.042772	0.500097
C175	C	0.569508	-0.538933	0.000113
C176	C	1.069508	-0.038933	0.500113
C177	C	0.613330	-0.570223	0.000129
C178	C	1.113330	-0.070223	0.500129
C179	C	0.657665	-0.551100	0.000145
C180	C	1.157665	-0.051100	0.500145
C181	C	0.658177	-0.500688	0.000161
C182	C	1.158177	-0.000688	0.500161
C183	C	0.481863	-0.476351	0.000081
C184	C	0.981863	0.023649	0.500081
C185	C	0.481355	-0.526764	0.000067
C186	C	0.981355	-0.026764	0.500067
C187	C	0.525177	-0.558054	0.000083
C188	C	1.025177	-0.058054	0.500083
C189	C	0.658931	0.057699	0.000213
C190	C	1.158931	0.557699	0.500213
C191	C	0.712586	0.058252	0.000221
C192	C	1.212586	0.558252	0.500221
C193	C	0.566338	0.150292	0.000137
C194	C	1.066338	0.650292	0.500137
C195	C	0.566891	0.203947	0.000111
C196	C	1.066891	0.703947	0.500111
N197	N	0.570524	0.061887	0.419945
N198	N	1.070524	0.561887	0.919945
N199	N	0.570534	0.061886	-0.419582
N200	N	1.070534	0.561886	0.080418
H201	H	-0.271687	-0.021674	0.000245
H202	H	0.228313	0.478326	0.500245
H203	H	0.174750	0.187180	0.000103
H204	H	0.674750	0.687180	0.500103
O205	O	0.664752	-0.195619	0.000262
O206	O	1.164752	0.304381	0.500262
H207	H	0.666641	-0.218872	-0.119967
H208	H	1.166641	0.281128	0.380033
O209	O	0.075029	0.197832	0.000127
O210	O	0.575029	0.697832	0.500127
H211	H	0.081788	0.219062	-0.120118
H212	H	0.581788	0.719062	0.379882
H213	H	0.447710	-0.299629	0.000048
H214	H	0.947710	0.200371	0.500048
H215	H	0.321291	0.144530	0.000125
H216	H	0.821291	0.644530	0.500125
O217	O	-0.197253	0.150924	0.000183
O218	O	0.302747	0.650924	0.500183
H219	H	-0.227486	0.181307	0.000182
H220	H	0.272514	0.681307	0.500182
H221	H	0.446777	-0.391080	0.000039
H222	H	0.946777	0.108920	0.500039
O223	O	0.338300	-0.027142	0.000203
O224	O	0.838300	0.472858	0.500203
H225	H	0.368531	-0.057528	0.000223
H226	H	0.868531	0.442472	0.500223
O227	O	0.417802	0.157171	0.000068
O228	O	0.917802	0.657171	0.500068
H229	H	0.440486	0.159510	0.120277
H230	H	0.940486	0.659510	0.620277
H231	H	-0.293777	0.138273	0.000183
H232	H	0.206223	0.638273	0.500183
H233	H	0.695819	-0.333889	0.000230
H234	H	1.195819	0.166111	0.500230
O235	O	0.434595	-0.442605	0.000070
O236	O	0.934595	0.057395	0.500070
H237	H	0.432721	-0.419351	0.120296
H238	H	0.932721	0.080649	0.620296
H239	H	0.487892	-0.688875	0.000071
H240	H	0.987892	-0.188875	0.500071
H241	H	-0.180236	-0.020747	0.000274
H242	H	0.319764	0.479253	0.500274
O243	O	0.482562	-0.065541	0.000186
O244	O	0.982562	0.434459	0.500186
H245	H	0.461323	-0.072299	0.120400
H246	H	0.961323	0.427701	0.620400
O247	O	0.706471	-0.433610	0.000236
O248	O	1.206471	0.066390	0.500236
H249	H	0.737381	-0.411835	0.000276
H250	H	1.237381	0.088165	0.500276
O251	O	0.658497	-0.810682	0.000145
O252	O	1.158497	-0.310682	0.500145
H253	H	0.660370	-0.833933	-0.120088
H254	H	1.160370	-0.333933	0.379912
O255	O	0.112505	-0.073581	0.000358
O256	O	0.612505	0.426419	0.500358
H257	H	0.125104	-0.094626	-0.119832
H258	H	0.625104	0.405374	0.380168
O259	O	0.217285	-0.072509	0.000316
O260	O	0.717285	0.427491	0.500316
H261	H	0.195515	-0.103423	0.000329
H262	H	0.695515	0.396577	0.500329
O263	O	-0.076217	0.196292	0.000190
O264	O	0.423783	0.696292	0.500190
H265	H	-0.099486	0.198166	-0.120015
H266	H	0.400514	0.698166	0.379985
O267	O	0.443094	-0.026078	0.000205
O268	O	0.943094	0.473922	0.500205
H269	H	0.481361	-0.018269	0.000219
H270	H	0.981361	0.481731	0.500219
O271	O	-0.038741	-0.075112	0.000335
O272	O	0.461259	0.424888	0.500335
H273	H	-0.061420	-0.077465	-0.119880
H274	H	0.438580	0.422535	0.380120
O275	O	0.028572	0.197360	0.000172
O276	O	0.528572	0.697360	0.500172
H277	H	-0.001662	0.227742	0.000182
H278	H	0.498338	0.727742	0.500182
O279	O	0.659566	-0.705897	0.000152
O280	O	1.159566	-0.205897	0.500152
H281	H	0.661913	-0.683226	0.120378
H282	H	1.161913	-0.183226	0.620378
H283	H	0.057760	-0.062462	0.000294
H284	H	0.557760	0.437538	0.500294
H285	H	0.654093	-0.095896	0.000285
H286	H	1.154093	0.404104	0.500285
O287	O	0.475247	-0.785384	0.000082
O288	O	0.975247	-0.285384	0.500082
H289	H	0.444864	-0.755151	0.000054
H290	H	0.944864	-0.255151	0.500054
O291	O	0.481497	-0.170338	0.000164
O292	O	0.981497	0.329662	0.500164
H293	H	0.451111	-0.140108	0.000148
H294	H	0.951111	0.359892	0.500148
H295	H	0.694282	-0.485125	0.000189
H296	H	1.194282	0.014875	0.500189
H297	H	0.693347	-0.576585	0.000166
H298	H	1.193347	-0.076585	0.500166
H299	H	0.445246	-0.542327	0.000055
H300	H	0.945246	-0.042327	0.500055
