data_functionalizedCrystal
_audit_creation_method	'MofGen! by Chris Wilmer'
_symmetry_space_group_name_H-M	'P1'
_symmetry_Int_Tables_number	1
_symmetry_cell_setting	triclinic
loop_
_symmetry_equiv_pos_as_xyz
  x,y,z
_cell_length_a	10.654541
_cell_length_b	10.654554
_cell_length_c	9.130313
_cell_angle_alpha	89.999214
_cell_angle_beta	90.002567
_cell_angle_gamma	95.515844
loop_
_atom_site_label
_atom_site_type_symbol
_atom_site_fract_x
_atom_site_fract_y
_atom_site_fract_z
O1	O	-1.667843	0.176344	-0.121877
O2	O	-1.302363	0.193161	-0.121862
O3	O	-1.493503	0.002013	-0.121862
O4	O	-1.476703	0.367491	-0.121877
O5	O	-1.493501	0.002018	0.121737
O6	O	-1.302361	0.193166	0.121736
O7	O	-1.667840	0.176349	0.121722
Cu8	Cu	-1.485101	0.184758	0.143972
Cu9	Cu	-1.485103	0.184752	-0.144112
O10	O	-1.476701	0.367497	0.121721
C11	C	-1.255564	0.191931	-0.000061
C12	C	-1.116120	0.188243	-0.000055
C13	C	-0.919578	0.183040	0.132728
C14	C	-1.050599	0.186512	0.132731
C15	C	-1.050612	0.186514	-0.132854
C16	C	-0.919591	0.183051	-0.132856
C17	C	-0.919572	0.183034	0.286061
C18	C	-1.050594	0.186506	0.286065
C19	C	-1.492267	-0.044782	-0.000064
C20	C	-1.488573	-0.184225	-0.000067
C21	C	-1.597647	-0.394737	-0.000090
C22	C	-1.601118	-0.263715	-0.000075
C23	C	-1.372548	-0.235762	-0.000059
C24	C	-1.369078	-0.366781	-0.000063
C25	C	-1.729610	-0.410874	-0.000106
C26	C	-1.733082	-0.279853	-0.000091
C27	C	-0.714639	0.177589	-0.000073
C28	C	-0.854079	0.181307	-0.000060
C29	C	-1.477936	0.414292	-0.000080
C30	C	-1.481631	0.553735	-0.000087
N31	N	-1.485108	0.184762	0.346594
N32	N	-1.485106	0.184738	-0.346735
C33	C	-1.569766	0.100150	0.423246
C34	C	-1.569763	0.100135	0.576583
C35	C	-1.400438	0.269353	0.576602
C36	C	-1.400437	0.269362	0.423268
C37	C	-1.667529	0.002457	0.423237
C38	C	-1.667525	0.002442	0.576573
H39	H	-1.096876	0.099708	0.344932
Br40	Br	-1.631790	-0.158430	0.353860
H41	H	-1.769481	-0.456516	-0.105289
Br42	Br	-1.803097	-0.220462	0.175230
H43	H	-1.331500	0.338232	0.639047
H44	H	-1.784688	-0.250486	-0.102037
H45	H	-1.331490	0.338247	0.360859
H46	H	-1.758713	0.033043	0.375673
H47	H	-0.866265	0.181656	-0.240984
Br48	Br	-0.842418	0.327688	0.384183
H49	H	-1.637011	-0.088779	0.624125
Br50	Br	-1.211622	-0.436709	-0.000026
H51	H	-1.764037	0.023958	0.618185
H52	H	-1.280912	-0.171030	-0.000037
Br53	Br	-0.870253	0.030468	0.365602
H54	H	-1.103968	0.187935	-0.240971
H55	H	-1.080160	0.278107	0.333640
Br56	Br	-1.812491	-0.480483	0.169787
