data_functionalizedCrystal
_audit_creation_method	'MofGen! by Chris Wilmer'
_symmetry_space_group_name_H-M	'P1'
_symmetry_Int_Tables_number	1
_symmetry_cell_setting	triclinic
loop_
_symmetry_equiv_pos_as_xyz
  x,y,z
_cell_length_a	18.215407
_cell_length_b	21.295418
_cell_length_c	21.295411
_cell_angle_alpha	89.975438
_cell_angle_beta	89.983429
_cell_angle_gamma	90.028835
loop_
_atom_site_label
_atom_site_type_symbol
_atom_site_fract_x
_atom_site_fract_y
_atom_site_fract_z
Zn1	Zn	1.125030	-0.250629	-0.355932
Zn2	Zn	1.458364	0.082704	-0.022598
Zn3	Zn	1.791697	0.416037	0.310735
Zn4	Zn	1.124938	-0.355894	-0.250665
Zn5	Zn	1.458272	-0.022561	0.082669
Zn6	Zn	1.791605	0.310772	0.416002
Zn7	Zn	1.001970	-0.250644	-0.250676
Zn8	Zn	1.335303	0.082690	0.082657
Zn9	Zn	1.668637	0.416023	0.415990
Zn10	Zn	1.001921	-0.355866	-0.355896
Zn11	Zn	1.335255	-0.022532	-0.022563
Zn12	Zn	1.668588	0.310801	0.310770
O13	O	1.063465	-0.303258	-0.303292
O14	O	1.396798	0.030075	0.030041
O15	O	1.730132	0.363408	0.363374
O16	O	1.228002	-0.264599	-0.341978
O17	O	1.561336	0.068734	-0.008644
O18	O	1.894669	0.402068	0.324689
O19	O	1.108608	-0.341951	-0.162577
O20	O	1.441941	-0.008617	0.170756
O21	O	1.775275	0.324716	0.504090
O22	O	1.018353	-0.162552	-0.264659
O23	O	1.351686	0.170781	0.068675
O24	O	1.685020	0.504114	0.402008
O25	O	1.227935	-0.341937	-0.264639
O26	O	1.561268	-0.008603	0.068695
O27	O	1.894601	0.324730	0.402028
O28	O	1.108765	-0.162542	-0.341989
O29	O	1.442098	0.170791	-0.008656
O30	O	1.775432	0.504125	0.324678
O31	O	1.018264	-0.264623	-0.162586
O32	O	1.351597	0.068710	0.170748
O33	O	1.684930	0.402043	0.504081
O34	O	0.898979	-0.264596	-0.264624
O35	O	1.232313	0.068738	0.068709
O36	O	1.565646	0.402071	0.402042
O37	O	1.018270	-0.341888	-0.443990
O38	O	1.351603	-0.008554	-0.110657
O39	O	1.684937	0.324779	0.222676
O40	O	0.898943	-0.341902	-0.341929
O41	O	1.232277	-0.008568	-0.008595
O42	O	1.565610	0.324765	0.324738
O43	O	1.108718	-0.264571	-0.444016
O44	O	1.442051	0.068762	-0.110683
O45	O	1.775385	0.402095	0.222650
O46	O	1.108561	-0.443980	-0.264604
O47	O	1.441894	-0.110647	0.068729
O48	O	1.775228	0.222687	0.402063
O49	O	1.018181	-0.443959	-0.341917
O50	O	1.351514	-0.110625	-0.008584
O51	O	1.684847	0.222708	0.324749
C52	C	0.872259	-0.303247	-0.303274
C53	C	1.205592	0.030086	0.030059
C54	C	1.538925	0.363419	0.363392
C55	C	0.790460	-0.303258	-0.303281
C56	C	1.123793	0.030075	0.030052
C57	C	1.457126	0.363409	0.363385
C58	C	0.602267	-0.343575	-0.343483
C59	C	0.935600	-0.010241	-0.010150
C60	C	1.268933	0.323092	0.323183
C61	C	0.525408	-0.343577	-0.343491
C62	C	0.858741	-0.010243	-0.010158
C63	C	1.192074	0.323090	0.323175
C64	C	0.525415	-0.262953	-0.263115
C65	C	0.858749	0.070380	0.070218
C66	C	1.192082	0.403713	0.403552
C67	C	0.602273	-0.262949	-0.263111
C68	C	0.935606	0.070385	0.070223
C69	C	1.268939	0.403718	0.403556
C70	C	0.640696	-0.303263	-0.303294
C71	C	0.974030	0.030070	0.030039
C72	C	1.307363	0.363404	0.363373
C73	C	0.486980	-0.303270	-0.303306
C74	C	0.820314	0.030064	0.030027
C75	C	1.153647	0.363397	0.363361
C76	C	0.403647	-0.303271	-0.303314
C77	C	0.736980	0.030062	0.030019
C78	C	1.070313	0.363395	0.363352
C79	C	0.724035	-0.303260	-0.303287
C80	C	1.057369	0.030073	0.030047
C81	C	1.390702	0.363406	0.363380
C82	C	1.063376	-0.466810	-0.303269
C83	C	1.396709	-0.133477	0.030064
C84	C	1.730042	0.199857	0.363397
C85	C	1.063405	-0.536778	-0.303280
C86	C	1.396738	-0.203445	0.030053
C87	C	1.730071	0.129889	0.363386
C88	C	1.110634	-1.036177	-0.343639
C89	C	1.443967	-0.702844	-0.010306
C90	C	1.777301	-0.369511	0.323028
C91	C	1.110613	-0.970435	-0.343629
C92	C	1.443946	-0.637101	-0.010296
C93	C	1.777279	-0.303768	0.323038
C94	C	1.063565	-0.937617	-0.303332
C95	C	1.396899	-0.604284	0.030002
C96	C	1.730232	-0.270951	0.363335
C97	C	1.016549	-0.970548	-0.263030
C98	C	1.349883	-0.637215	0.070304
C99	C	1.683216	-0.303881	0.403637
C100	C	1.016577	-1.036289	-0.263036
C101	C	1.349911	-0.702956	0.070297
C102	C	1.683244	-0.369623	0.403630
N103	N	0.999106	-0.834448	-0.298441
N104	N	1.332439	-0.501115	0.034893
N105	N	1.665772	-0.167781	0.368226
N106	N	0.999081	-0.771997	-0.298438
N107	N	1.332414	-0.438663	0.034895
N108	N	1.665748	-0.105330	0.368229
C109	C	1.063479	-0.739543	-0.303308
C110	C	1.396812	-0.406209	0.030025
C111	C	1.730145	-0.072876	0.363359
N112	N	1.127903	-0.771899	-0.308193
N113	N	1.461237	-0.438566	0.025140
N114	N	1.794570	-0.105233	0.358474
N115	N	1.127927	-0.834357	-0.308199
N116	N	1.461261	-0.501023	0.025134
N117	N	1.794594	-0.167690	0.358468
C118	C	1.063530	-0.866332	-0.303320
C119	C	1.396863	-0.532999	0.030014
C120	C	1.730196	-0.199665	0.363347
C121	C	1.110472	-0.635334	-0.343594
C122	C	1.443805	-0.302001	-0.010260
C123	C	1.777139	0.031332	0.323073
C124	C	1.110452	-0.569591	-0.343579
C125	C	1.443785	-0.236257	-0.010246
C126	C	1.777118	0.097076	0.323087
C127	C	1.016382	-0.569705	-0.262983
C128	C	1.349715	-0.236372	0.070350
C129	C	1.683048	0.096961	0.403684
C130	C	1.016409	-0.635448	-0.262994
C131	C	1.349742	-0.302114	0.070339
C132	C	1.683075	0.031219	0.403673
C133	C	1.063453	-0.668258	-0.303303
C134	C	1.396786	-0.334925	0.030031
C135	C	1.730119	-0.001592	0.363364
C136	C	1.255418	-0.303270	-0.303311
C137	C	1.588751	0.030064	0.030023
C138	C	1.922084	0.363397	0.363356
C139	C	1.337217	-0.303274	-0.303319
C140	C	1.670550	0.030059	0.030015
C141	C	2.003883	0.363392	0.363348
C142	C	1.063499	-0.303225	-0.467483
C143	C	1.396832	0.030109	-0.134149
C144	C	1.730166	0.363442	0.199184
C145	C	1.063513	-0.303210	-0.537451
C146	C	1.396847	0.030123	-0.204117
C147	C	1.730180	0.363456	0.129216
C148	C	1.063575	-0.139068	-0.303329
C149	C	1.396908	0.194265	0.030004
C150	C	1.730241	0.527599	0.363338
C151	C	1.063622	-0.069100	-0.303345
C152	C	1.396955	0.264233	0.029988
C153	C	1.730288	0.597567	0.363322
C154	C	1.110638	-0.343344	-1.036905
C155	C	1.443971	-0.010011	-0.703572
C156	C	1.777304	0.323323	-0.370238
C157	C	1.110624	-0.343364	-0.971162
C158	C	1.443958	-0.010031	-0.637829
C159	C	1.777291	0.323302	-0.304496
C160	C	1.063583	-0.303112	-0.938290
C161	C	1.396916	0.030221	-0.604957
C162	C	1.730250	0.363554	-0.271624
C163	C	1.016538	-0.262849	-0.971166
C164	C	1.349871	0.070485	-0.637833
C165	C	1.683204	0.403818	-0.304500
C166	C	1.016547	-0.262834	-1.036908
C167	C	1.349880	0.070499	-0.703574
C168	C	1.683214	0.403833	-0.370241
N169	N	1.057959	-0.248033	-0.835081
N170	N	1.391293	0.085300	-0.501748
N171	N	1.724626	0.418634	-0.168414
N172	N	1.057955	-0.248048	-0.772630
N173	N	1.391288	0.085285	-0.439296
N174	N	1.724621	0.418618	-0.105963
C175	C	1.063551	-0.303155	-0.740216
C176	C	1.396884	0.030179	-0.406882
C177	C	1.730217	0.363512	-0.073549
N178	N	1.069166	-0.358246	-0.772612
N179	N	1.402499	-0.024913	-0.439279
N180	N	1.735832	0.308421	-0.105946
N181	N	1.069174	-0.358230	-0.835069
N182	N	1.402508	-0.024896	-0.501736
N183	N	1.735841	0.308437	-0.168403
C184	C	1.063567	-0.303124	-0.867005
C185	C	1.396900	0.030209	-0.533672
C186	C	1.730234	0.363543	-0.200338
C187	C	1.110575	-0.343441	-0.636062
C188	C	1.443908	-0.010107	-0.302729
C189	C	1.777241	0.323226	0.030605
C190	C	1.110556	-0.343462	-0.570318
C191	C	1.443890	-0.010129	-0.236985
C192	C	1.777223	0.323205	0.096348
C193	C	1.016473	-0.262941	-0.570323
C194	C	1.349807	0.070393	-0.236990
C195	C	1.683140	0.403726	0.096343
C196	C	1.016488	-0.262925	-0.636066
C197	C	1.349821	0.070408	-0.302733
C198	C	1.683155	0.403741	0.030601
C199	C	1.063543	-0.303174	-0.668931
C200	C	1.396876	0.030159	-0.335598
C201	C	1.730209	0.363492	-0.002265
C202	C	1.063474	-0.303246	-0.139741
C203	C	1.396807	0.030087	0.193593
C204	C	1.730140	0.363420	0.526926
C205	C	1.063602	-0.303083	-0.069773
C206	C	1.396935	0.030250	0.263560
C207	C	1.730268	0.363583	0.596894
H208	H	0.494122	-0.376401	-0.376218
H209	H	0.827455	-0.043068	-0.042885
H210	H	1.160788	0.290265	0.290448
Cl211	Cl	0.477106	-0.212277	-0.212600
Cl212	Cl	0.810440	0.121056	0.120733
Cl213	Cl	1.143773	0.454390	0.454066
Cl214	Cl	0.957402	-0.212245	-0.929842
Cl215	Cl	1.290735	0.121089	-0.596509
Cl216	Cl	1.624068	0.454422	-0.263176
Cl217	Cl	0.957407	-0.929293	-0.212367
Cl218	Cl	1.290740	-0.595960	0.120966
Cl219	Cl	1.624074	-0.262626	0.454299
H220	H	0.633549	-0.376399	-0.376205
H221	H	0.966882	-0.043066	-0.042871
H222	H	1.300215	0.290267	0.290462
Cl223	Cl	1.169759	-0.393982	-0.929834
Cl224	Cl	1.503093	-0.060649	-0.596501
Cl225	Cl	1.836426	0.272684	-0.263167
Cl226	Cl	0.957299	-0.676839	-0.212339
Cl227	Cl	1.290632	-0.343505	0.120994
Cl228	Cl	1.623965	-0.010172	0.454327
Cl229	Cl	0.650588	-0.212263	-0.212587
Cl230	Cl	0.983922	0.121071	0.120747
Cl231	Cl	1.317255	0.454404	0.454080
Cl232	Cl	1.169620	-0.676585	-0.394259
Cl233	Cl	1.502954	-0.343252	-0.060925
Cl234	Cl	1.836287	-0.009918	0.272408
Cl235	Cl	1.169563	-0.528202	-0.394236
Cl236	Cl	1.502896	-0.194868	-0.060903
Cl237	Cl	1.836229	0.138465	0.272430
Cl238	Cl	1.169784	-0.393950	-1.078218
Cl239	Cl	1.503117	-0.060617	-0.744885
Cl240	Cl	1.836450	0.272717	-0.411551
H241	H	1.148947	-1.062888	-0.376457
H242	H	1.482280	-0.729554	-0.043123
H243	H	1.815614	-0.396221	0.290210
H244	H	1.148887	-0.376216	-0.662822
H245	H	1.482221	-0.042882	-0.329489
H246	H	1.815554	0.290451	0.003844
Cl247	Cl	1.169719	-0.929037	-0.394288
Cl248	Cl	1.503052	-0.595704	-0.060955
Cl249	Cl	1.836385	-0.262371	0.272378
Cl250	Cl	0.957343	-0.212317	-0.677388
Cl251	Cl	1.290677	0.121016	-0.344055
Cl252	Cl	1.624010	0.454350	-0.010721
Cl253	Cl	0.957407	-0.212220	-1.078230
Cl254	Cl	1.290740	0.121114	-0.744896
Cl255	Cl	1.624073	0.454447	-0.411563
H256	H	0.978293	-1.063095	-0.230223
H257	H	1.311626	-0.729761	0.103110
H258	H	1.644959	-0.396428	0.436444
Cl259	Cl	1.169689	-0.394084	-0.528998
Cl260	Cl	1.503023	-0.060750	-0.195664
Cl261	Cl	1.836356	0.272583	0.137669
H262	H	0.978169	-0.230168	-0.543560
H263	H	1.311503	0.103165	-0.210226
H264	H	1.644836	0.436498	0.123107
H265	H	0.978078	-0.542986	-0.230169
H266	H	1.311411	-0.209653	0.103164
H267	H	1.644745	0.123681	0.436497
