data_functionalizedCrystal
_audit_creation_method	'MofGen! by Chris Wilmer'
_symmetry_space_group_name_H-M	'P1'
_symmetry_Int_Tables_number	1
_symmetry_cell_setting	triclinic
loop_
_symmetry_equiv_pos_as_xyz
  x,y,z
_cell_length_a	14.519709
_cell_length_b	15.455313
_cell_length_c	16.992695
_cell_angle_alpha	87.152573
_cell_angle_beta	92.825816
_cell_angle_gamma	87.319402
loop_
_atom_site_label
_atom_site_type_symbol
_atom_site_fract_x
_atom_site_fract_y
_atom_site_fract_z
O1	O	1.235028	-0.072018	-0.099376
O2	O	0.967421	-0.072044	-0.111480
O3	O	1.100152	-0.072024	0.008716
O4	O	1.102298	-0.072038	-0.219572
O5	O	1.092559	0.072237	0.001871
O6	O	0.959829	0.072217	-0.118325
O7	O	1.227436	0.072243	-0.106221
Cu8	Cu	1.092939	0.085402	-0.112898
Cu9	Cu	1.101918	-0.085203	-0.104803
O10	O	1.094706	0.072223	-0.226417
C11	C	0.929225	0.000083	-0.114338
C12	C	0.826723	0.000073	-0.112647
N13	N	1.086631	0.205397	-0.118591
N14	N	1.108233	-0.205198	-0.099104
C15	C	0.451378	0.000113	-0.106425
C16	C	0.555811	0.000101	-0.108153
C17	C	0.639047	0.000092	-0.109536
C18	C	0.743487	0.000082	-0.111264
C19	C	1.265632	0.000114	-0.103363
C20	C	1.368134	0.000118	-0.105053
C21	C	1.093595	0.000106	0.034510
C22	C	1.085360	0.000105	0.121566
C23	C	1.143042	0.250799	-0.067546
C24	C	1.138280	0.341606	-0.071859
C25	C	1.077111	0.387009	-0.127221
C26	C	1.020694	0.341600	-0.178268
C27	C	1.025452	0.250795	-0.173951
C28	C	1.056574	0.658588	-0.145834
C29	C	1.051822	0.749400	-0.150148
C30	C	1.169407	0.749399	-0.043738
C31	C	1.174163	0.658592	-0.039429
C32	C	1.117743	0.613191	-0.090473
N33	N	1.072245	0.479829	-0.131632
N34	N	1.122606	0.520373	-0.086058
C35	C	1.101262	0.000091	-0.252211
C36	C	1.109498	0.000086	-0.339266
C37	C	1.164819	0.000114	0.171694
C38	C	1.157076	0.000105	0.253492
C39	C	1.069873	0.000093	0.285159
C40	C	0.990408	0.000082	0.235025
C41	C	0.998152	0.000084	0.153229
C42	C	1.037776	0.000078	0.528803
C43	C	1.030038	0.000078	0.610605
C44	C	1.196708	0.000099	0.629067
C45	C	1.204444	0.000107	0.547269
C46	C	1.124979	0.000091	0.497141
N47	N	1.061956	0.000087	0.368770
N48	N	1.132897	0.000091	0.413533
H49	H	1.184213	0.378573	-0.030294
N50	N	0.940966	0.000071	0.642972
N51	N	0.914859	0.060881	0.683674
H52	H	0.851957	0.060880	0.706537
N53	N	1.236818	0.612231	0.016992
N54	N	1.287292	0.652780	0.062475
H55	H	1.331608	0.620038	0.102272
H56	H	1.261404	0.000110	0.669890
H57	H	1.275454	0.000117	0.521492
N58	N	0.956598	0.000068	0.477617
N59	N	0.878745	0.000064	0.505905
H60	H	0.821408	0.000060	0.469752
N61	N	0.958197	0.387964	-0.234814
N62	N	0.873400	0.377831	-0.233089
H63	H	0.829258	0.410574	-0.273026
N64	N	1.227015	0.795776	0.008415
N65	N	1.220936	0.785646	0.081382
H66	H	1.261621	0.818400	0.118221
N67	N	0.916995	0.000088	0.102009
N68	N	0.923920	0.000091	0.028979
H69	H	0.866601	0.000091	-0.007196
N70	N	0.989325	0.795766	-0.206701
N71	N	0.938950	0.755220	-0.252268
H72	H	0.894811	0.787966	-0.292205
N73	N	0.967846	0.204414	-0.226105
N74	N	1.003350	0.153732	-0.272428
H75	H	0.962663	0.120976	-0.309263
H76	H	0.919405	0.000067	0.260815
H77	H	1.192855	0.213838	-0.022468
H78	H	1.235830	0.000128	0.145917
N79	N	0.998934	0.612233	-0.197975
N80	N	0.944324	0.652785	-0.247400
H81	H	0.903612	0.620045	-0.284227
H82	H	1.221781	0.000114	0.294304
