data_functionalizedCrystal
_audit_creation_method	'MofGen! by Chris Wilmer'
_symmetry_space_group_name_H-M	'P1'
_symmetry_Int_Tables_number	1
_symmetry_cell_setting	triclinic
loop_
_symmetry_equiv_pos_as_xyz
  x,y,z
_cell_length_a	13.339070
_cell_length_b	13.339070
_cell_length_c	12.996460
_cell_angle_alpha	89.997058
_cell_angle_beta	90.007645
_cell_angle_gamma	115.629294
loop_
_atom_site_label
_atom_site_type_symbol
_atom_site_fract_x
_atom_site_fract_y
_atom_site_fract_z
O1	O	-1.496809	-0.550520	-0.085594
O2	O	-0.996809	-0.050520	0.414406
O3	O	-1.181999	-0.478260	-0.085589
O4	O	-0.681999	0.021740	0.414411
O5	O	-1.303274	-0.356985	-0.085588
O6	O	-0.803274	0.143015	0.414412
O7	O	-1.375534	-0.671795	-0.085595
O8	O	-0.875534	-0.171795	0.414405
O9	O	-1.303255	-0.356989	0.085546
O10	O	-0.803255	0.143011	0.585546
O11	O	-1.181980	-0.478264	0.085545
O12	O	-0.681980	0.021736	0.585545
O13	O	-1.496790	-0.550524	0.085540
O14	O	-0.996790	-0.050524	0.585540
Cu15	Cu	-1.339383	-0.514394	0.101168
Cu16	Cu	-0.839383	-0.014394	0.601168
Cu17	Cu	-1.339406	-0.514390	-0.101217
Cu18	Cu	-0.839406	-0.014390	0.398783
O19	O	-1.375515	-0.671798	0.085539
O20	O	-0.875515	-0.171798	0.585539
C21	C	-1.140874	-0.466056	-0.000022
C22	C	-0.640874	0.033944	0.499978
C23	C	-1.018360	-0.429672	-0.000020
C24	C	-0.518360	0.070328	0.499980
C25	C	-1.291058	-0.315872	-0.000022
C26	C	-0.791058	0.184128	0.499978
C27	C	-1.254675	-0.193358	-0.000026
C28	C	-0.754675	0.306642	0.499974
C29	C	-1.537914	-0.562728	-0.000030
C30	C	-1.037914	-0.062728	0.499970
C31	C	-1.660428	-0.599111	-0.000038
C32	C	-1.160428	-0.099111	0.499962
C33	C	-1.387730	-0.712912	-0.000029
C34	C	-0.887730	-0.212912	0.499971
C35	C	-1.424114	-0.835426	-0.000032
C36	C	-0.924114	-0.335426	0.499968
C37	C	-0.732973	-0.712571	-0.000042
C38	C	-0.232973	-0.212571	0.499958
C39	C	-0.848081	-0.746759	-0.000047
C40	C	-0.348081	-0.246759	0.499953
C41	C	-0.890657	-0.667490	-0.000040
C42	C	-0.390657	-0.167490	0.499960
C43	C	-0.818112	-0.554028	-0.000029
C44	C	-0.318112	-0.054028	0.499971
C45	C	-0.702992	-0.519837	-0.000032
C46	C	-0.202992	-0.019837	0.499968
C47	C	-0.860676	-0.474756	-0.000029
C48	C	-0.360676	0.025244	0.499971
C49	C	-0.788132	-0.361294	-0.000018
C50	C	-0.288132	0.138706	0.499982
C51	C	-0.673023	-0.327109	-0.000020
C52	C	-0.173023	0.172891	0.499980
C53	C	-0.630448	-0.406377	-0.000028
C54	C	-0.130448	0.093623	0.499972
C55	C	-0.975796	-0.508947	-0.000026
C56	C	-0.475796	-0.008947	0.499974
C57	C	-0.945816	-0.316213	-0.000016
C58	C	-0.445816	0.183787	0.499984
C59	C	-0.830707	-0.282025	-0.000011
C60	C	-0.330707	0.217975	0.499989
N61	N	-1.339375	-0.514399	0.243515
N62	N	-0.839375	-0.014399	0.743515
C63	C	-1.537574	0.092030	-0.000029
C64	C	-1.037574	0.592030	0.499971
C65	C	-1.571761	-0.023079	-0.000020
C66	C	-1.071761	0.476921	0.499980
C67	C	-1.492492	-0.065654	-0.000022
C68	C	-0.992492	0.434346	0.499978
C69	C	-1.379030	0.006890	-0.000032
C70	C	-0.879030	0.506890	0.499968
C71	C	-1.344839	0.122010	-0.000033
C72	C	-0.844839	0.622010	0.499967
C73	C	-1.299758	-0.035674	-0.000026
C74	C	-0.799758	0.464326	0.499974
C75	C	-1.186296	0.036871	-0.000036
C76	C	-0.686296	0.536871	0.499964
C77	C	-1.152111	0.151979	-0.000038
C78	C	-0.652111	0.651979	0.499962
C79	C	-1.231380	0.194555	-0.000036
C80	C	-0.731380	0.694555	0.499964
C81	C	-1.333949	-0.150794	-0.000025
C82	C	-0.833949	0.349206	0.499975
C83	C	-1.141215	-0.120813	-0.000029
C84	C	-0.641215	0.379187	0.499971
C85	C	-1.107028	-0.005705	-0.000038
C86	C	-0.607028	0.494295	0.499962
N87	N	-1.339420	-0.514379	-0.243564
N88	N	-0.839420	-0.014379	0.256436
C89	C	-1.339381	-0.514403	0.336621
C90	C	-0.839381	-0.014403	0.836621
C91	C	-1.339389	-0.514398	0.453426
C92	C	-0.839389	-0.014398	0.953426
C93	C	-1.339399	-0.514390	0.546525
C94	C	-0.839399	-0.014390	1.046525
C95	C	-1.339409	-0.514387	0.663337
C96	C	-0.839409	-0.014387	1.163337
H97	H	-1.034852	-0.601328	-0.000032
H98	H	-0.534852	-0.101328	0.499968
H99	H	-0.984385	-0.695333	-0.000047
H100	H	-0.484385	-0.195333	0.499953
F101	F	-0.925280	-0.867508	-0.000064
F102	F	-0.425280	-0.367508	0.499936
F103	F	-1.194999	0.317067	-0.000143
F104	F	-0.694999	0.817067	0.499857
H105	H	-0.771625	-0.189642	-0.000010
H106	H	-0.271625	0.310358	0.499990
F107	F	-1.621923	0.137350	-0.000012
F108	F	-1.121923	0.637350	0.499988
F109	F	-1.056845	-0.166119	-0.000024
F110	F	-0.556845	0.333881	0.499976
H111	H	-0.698296	-0.777099	-0.000057
H112	H	-0.198296	-0.277099	0.499943
H113	H	-1.059723	0.211043	-0.000038
H114	H	-0.559723	0.711043	0.499962
F115	F	-1.528881	-0.188164	-0.000016
F116	F	-1.028881	0.311836	0.499984
F117	F	-0.507935	-0.369997	-0.000020
F118	F	-0.007935	0.130003	0.499980
F119	F	-0.991121	-0.231842	-0.000015
F120	F	-0.491121	0.268158	0.499985
H121	H	-0.613959	-0.234721	-0.000022
H122	H	-0.113959	0.265279	0.499978
H123	H	-1.426331	-0.209849	-0.000016
H124	H	-0.926331	0.290151	0.499984
F125	F	-1.692510	-0.100278	-0.000026
F126	F	-1.192510	0.399722	0.499974
H127	H	-1.014645	0.053377	-0.000045
H128	H	-0.514645	0.553377	0.499955
