data_functionalizedCrystal
_audit_creation_method	'MofGen! by Chris Wilmer'
_symmetry_space_group_name_H-M	'P1'
_symmetry_Int_Tables_number	1
_symmetry_cell_setting	triclinic
loop_
_symmetry_equiv_pos_as_xyz
  x,y,z
_cell_length_a	18.050591
_cell_length_b	21.295418
_cell_length_c	18.050582
_cell_angle_alpha	90.022598
_cell_angle_beta	90.019760
_cell_angle_gamma	90.024834
loop_
_atom_site_label
_atom_site_type_symbol
_atom_site_fract_x
_atom_site_fract_y
_atom_site_fract_z
Zn1	Zn	1.135292	-0.250709	0.420008
Zn2	Zn	1.135202	-0.355970	0.295818
Zn3	Zn	1.011111	-0.250712	0.295822
Zn4	Zn	1.011058	-0.355938	0.419956
O5	O	1.073166	-0.303332	0.357901
O6	O	1.239204	-0.264684	0.403554
O7	O	1.118725	-0.342022	0.191894
O8	O	1.027643	-0.162622	0.312319
O9	O	1.239138	-0.342019	0.312312
O10	O	1.118878	-0.162620	0.403558
O11	O	1.027556	-0.264690	0.191897
O12	O	0.907179	-0.264658	0.312268
O13	O	1.027554	-0.341964	0.523888
O14	O	0.907141	-0.341967	0.403469
O15	O	1.118827	-0.264653	0.523926
O16	O	1.118675	-0.444055	0.312262
O17	O	1.027467	-0.444031	0.403466
C18	C	0.880214	-0.303310	0.357864
C19	C	0.797668	-0.303316	0.357866
C20	C	0.548842	-0.261232	0.308388
C21	C	0.598274	-0.245906	0.376164
C22	C	0.500547	-0.303348	0.357926
C23	C	0.598197	-0.318628	0.290124
C24	C	0.646533	-0.303330	0.357893
C25	C	0.548892	-0.287992	0.425739
C26	C	0.548811	-0.360741	0.339653
C27	C	0.598221	-0.345437	0.407476
C28	C	0.416449	-0.303356	0.357945
C29	C	0.730629	-0.303322	0.357882
C30	C	1.073076	-0.466884	0.357874
C31	C	1.073105	-0.536852	0.357887
C32	C	1.120764	-1.036255	0.405505
C33	C	1.120743	-0.970513	0.405493
C34	C	1.073267	-0.937691	0.357947
C35	C	1.025823	-0.970618	0.310397
C36	C	1.025851	-1.036359	0.310405
N37	N	1.008219	-0.834518	0.352172
N38	N	1.008194	-0.772066	0.352169
C39	C	1.073180	-0.739617	0.357920
N40	N	1.138192	-0.771977	0.363688
N41	N	1.138217	-0.834435	0.363695
C42	C	1.073231	-0.866406	0.357933
C43	C	1.120601	-0.635413	0.405451
C44	C	1.120580	-0.569669	0.405434
C45	C	1.025654	-0.569775	0.310342
C46	C	1.025681	-0.635517	0.310355
C47	C	1.073153	-0.668332	0.357913
C48	C	1.266871	-0.303355	0.357939
C49	C	1.349417	-0.303365	0.357955
C50	C	1.073195	-0.303304	0.551607
C51	C	1.073207	-0.303292	0.634153
C52	C	1.073277	-0.139142	0.357945
C53	C	1.073324	-0.069174	0.357963
C54	C	1.073180	-0.303315	0.164949
C55	C	1.073311	-0.303149	0.082404
C56	C	1.023611	-0.345277	0.833583
C57	C	1.091366	-0.360668	0.882980
C58	C	1.073244	-0.303244	0.785283
C59	C	1.005526	-0.287836	0.882968
C60	C	1.073273	-0.303199	0.931268
C61	C	1.141035	-0.318665	0.833593
C62	C	1.055149	-0.245807	0.833577
C63	C	1.122951	-0.261176	0.882951
C64	C	1.073226	-0.303272	0.701185
C65	C	1.073299	-0.303171	1.015365
H66	H	0.527324	-0.275004	0.483080
H67	H	0.987001	-0.543052	0.271626
H68	H	0.987047	-0.662320	0.271644
C69	C	0.602290	-0.377347	0.534975
C70	C	0.627315	-0.393507	0.464072
H71	H	0.620258	-0.407019	0.569915
H72	H	0.549674	-0.377371	0.535573
H73	H	0.619980	-0.336692	0.547527
H74	H	0.609620	-0.434160	0.451518
H75	H	0.679942	-0.393489	0.463472
H76	H	1.159376	-0.943706	0.444208
C77	C	1.214967	-0.184056	0.852099
C78	C	1.179696	-0.213167	0.912033
H79	H	1.250004	-0.154423	0.870054
H80	H	1.179157	-0.163155	0.822472
H81	H	1.239671	-0.214849	0.823133
H82	H	1.154987	-0.182374	0.940996
H83	H	1.215512	-0.234069	0.941673
H84	H	1.159216	-0.542866	0.444146
C85	C	0.986151	-0.453416	0.829253
C86	C	0.967003	-0.393320	0.804312
H87	H	0.951208	-0.483076	0.811177
H88	H	0.986083	-0.453991	0.881868
H89	H	1.034145	-0.463940	0.811617
H90	H	0.919010	-0.382795	0.821953
H91	H	0.967063	-0.392743	0.751685
C92	C	1.112493	-0.425331	0.989851
C93	C	1.112048	-0.426211	0.912286
H94	H	1.125260	-0.465795	1.007941
H95	H	1.064721	-0.414112	1.007474
H96	H	1.147811	-0.395496	1.006741
H97	H	1.076726	-0.456043	0.895395
H98	H	1.159826	-0.437438	0.894656
H99	H	1.159250	-0.662132	0.444181
H100	H	0.619986	-0.197359	0.391619
H101	H	1.198332	-0.331734	0.811995
C102	C	1.131057	-1.110129	0.505430
C103	C	1.172955	-1.072320	0.457775
H104	H	1.163280	-1.132390	0.537701
H105	H	1.102815	-1.139147	0.477121
H106	H	1.098668	-1.084488	0.533797
H107	H	1.205340	-1.097961	0.429404
H108	H	1.201209	-1.043298	0.486088
H109	H	1.039807	-0.197267	0.811860
C110	C	0.876309	-0.314370	0.887321
C111	C	0.928201	-0.270262	0.912246
H112	H	0.828572	-0.303521	0.905392
H113	H	0.889516	-0.354862	0.904965
H114	H	0.875641	-0.314631	0.834698
H115	H	0.928874	-0.270005	0.964869
H116	H	0.914991	-0.229760	0.894605
C117	C	0.931998	-0.977324	0.216406
C118	C	0.973634	-0.934544	0.258136
H119	H	0.899782	-0.955053	0.184138
H120	H	0.903582	-1.002972	0.248736
H121	H	0.964394	-1.002955	0.188036
H122	H	0.941237	-0.908916	0.286511
H123	H	1.002052	-0.908885	0.225802
C124	C	0.544534	-0.153046	0.271230
C125	C	0.519562	-0.213128	0.251926
H126	H	0.526452	-0.123350	0.236377
H127	H	0.597149	-0.152447	0.271139
H128	H	0.526923	-0.142592	0.319261
H129	H	0.537177	-0.223584	0.203896
H130	H	0.466936	-0.213729	0.252009
H131	H	0.527070	-0.409272	0.324187
H132	H	0.987218	-1.063161	0.271690
H133	H	0.619857	-0.331560	0.232799
