data_functionalizedCrystal
_audit_creation_method	'MofGen! by Chris Wilmer'
_symmetry_space_group_name_H-M	'P1'
_symmetry_Int_Tables_number	1
_symmetry_cell_setting	triclinic
loop_
_symmetry_equiv_pos_as_xyz
  x,y,z
_cell_length_a	19.077105
_cell_length_b	19.077068
_cell_length_c	19.077174
_cell_angle_alpha	94.657148
_cell_angle_beta	85.483752
_cell_angle_gamma	90.115316
loop_
_atom_site_label
_atom_site_type_symbol
_atom_site_fract_x
_atom_site_fract_y
_atom_site_fract_z
Zn1	Zn	1.080478	-0.341972	-0.455027
Zn2	Zn	1.580478	0.158028	0.044973
Zn3	Zn	1.071301	-0.454742	-0.341487
Zn4	Zn	1.571301	0.045258	0.158513
Zn5	Zn	0.958244	-0.332134	-0.332045
Zn6	Zn	1.458244	0.167866	0.167955
Zn7	Zn	0.958197	-0.454696	-0.454603
Zn8	Zn	1.458197	0.045304	0.045397
O9	O	1.017055	-0.395886	-0.395791
O10	O	1.517055	0.104114	0.104209
O11	O	1.177751	-0.361068	-0.444095
O12	O	1.677751	0.138932	0.055905
O13	O	1.052483	-0.434380	-0.241427
O14	O	1.552483	0.065620	0.258573
O15	O	0.978319	-0.234951	-0.344585
O16	O	1.478319	0.265049	0.155415
O17	O	1.171009	-0.443920	-0.360677
O18	O	1.671009	0.056080	0.139323
O19	O	1.068124	-0.242180	-0.434939
O20	O	1.568124	0.257820	0.065061
O21	O	0.969420	-0.344300	-0.234490
O22	O	1.469420	0.155700	0.265510
O23	O	0.859748	-0.344255	-0.344174
O24	O	1.359748	0.155745	0.155826
O25	O	0.978239	-0.443841	-0.553467
O26	O	1.478239	0.056159	-0.053467
O27	O	0.859713	-0.434301	-0.434217
O28	O	1.359713	0.065699	0.065783
O29	O	1.068079	-0.361024	-0.553779
O30	O	1.568079	0.138976	-0.053779
O31	O	1.052438	-0.553224	-0.360266
O32	O	1.552438	-0.053224	0.139734
O33	O	0.969340	-0.553190	-0.443372
O34	O	1.469340	-0.053190	0.056628
C35	C	0.834193	-0.388206	-0.388125
C36	C	1.334193	0.111794	0.111875
C37	C	0.755964	-0.384938	-0.384863
C38	C	1.255964	0.115062	0.115137
C39	C	0.719207	-0.430350	-0.430143
C40	C	1.219207	0.069650	0.069857
C41	C	0.645702	-0.427270	-0.427081
C42	C	1.145702	0.072730	0.072919
C43	C	0.608956	-0.378782	-0.378736
C44	C	1.108956	0.121218	0.121264
C45	C	0.645719	-0.333365	-0.333454
C46	C	1.145719	0.166635	0.166546
C47	C	0.719222	-0.336442	-0.336520
C48	C	1.219222	0.163558	0.163480
C49	C	0.389126	-0.364542	-0.364550
C50	C	0.889126	0.135458	0.135450
C51	C	0.315618	-0.361471	-0.361486
C52	C	0.815618	0.138529	0.138514
C53	C	0.315607	-0.455375	-0.455114
C54	C	0.815607	0.044625	0.044886
C55	C	0.389111	-0.458451	-0.458173
C56	C	0.889111	0.041549	0.041827
C57	C	0.425867	-0.413032	-0.412894
C58	C	0.925867	0.086968	0.087106
N59	N	0.533823	-0.375634	-0.375603
N60	N	1.033823	0.124366	0.124397
N61	N	0.500999	-0.416176	-0.416030
N62	N	1.000999	0.083824	0.083970
C63	C	1.009908	-0.578745	-0.402813
C64	C	1.509908	-0.078745	0.097187
C65	C	1.006916	-0.656976	-0.405844
C66	C	1.506916	-0.156976	0.094156
C67	C	1.048810	-0.693727	-0.364038
C68	C	1.548810	-0.193727	0.135962
C69	C	1.046000	-0.767234	-0.366893
C70	C	1.546000	-0.267234	0.133107
C71	C	1.001291	-0.803989	-0.411551
C72	C	1.501291	-0.303989	0.088449
C73	C	0.959395	-0.767233	-0.453361
C74	C	1.459395	-0.267233	0.046639
C75	C	0.962209	-0.693728	-0.450510
C76	C	1.462209	-0.193728	0.049490
C77	C	0.988234	-1.023827	-0.424718
C78	C	1.488234	-0.523827	0.075282
C79	C	0.985422	-1.097337	-0.427565
C80	C	1.485422	-0.597337	0.072435
C81	C	1.072029	-1.097333	-0.341097
C82	C	1.572029	-0.597333	0.158903
C83	C	1.074836	-1.023826	-0.338247
C84	C	1.574836	-0.523826	0.161753
C85	C	1.032942	-0.987077	-0.380060
C86	C	1.532942	-0.487077	0.119940
N87	N	0.998416	-0.879124	-0.414468
N88	N	1.498416	-0.379124	0.085532
N89	N	1.035821	-0.911943	-0.377146
N90	N	1.535821	-0.411943	0.122854
C91	C	1.200631	-0.403597	-0.403486
C92	C	1.700631	0.096403	0.096514
C93	C	1.278861	-0.406882	-0.406766
C94	C	1.778861	0.093118	0.093234
C95	C	1.024177	-0.403525	-0.579959
C96	C	1.524177	0.096475	-0.079959
C97	C	1.027212	-0.406780	-0.658440
C98	C	1.527212	0.093220	-0.158440
C99	C	1.024250	-0.212315	-0.388757
C100	C	1.524250	0.287685	0.111243
C101	C	1.027316	-0.134088	-0.385759
C102	C	1.527316	0.365912	0.114241
C103	C	0.985394	-0.361410	-0.691699
C104	C	1.485394	0.138590	-0.191699
C105	C	0.988242	-0.364475	-0.765441
C106	C	1.488242	0.135525	-0.265441
C107	C	1.032914	-0.412906	-0.805923
C108	C	1.532914	0.087094	-0.305923
C109	C	1.074734	-0.458280	-0.772659
C110	C	1.574734	0.041720	-0.272659
C111	C	1.071881	-0.455219	-0.698918
C112	C	1.571881	0.044781	-0.198918
C113	C	1.046080	-0.427094	-1.026851
C114	C	1.546080	0.072906	-0.526851
C115	C	1.048931	-0.430150	-1.100597
C116	C	1.548931	0.069850	-0.600597
C117	C	0.962438	-0.336345	-1.093373
C118	C	1.462438	0.163655	-0.593373
C119	C	0.959592	-0.333285	-1.019632
C120	C	1.459592	0.166715	-0.519632
C121	C	1.001410	-0.378662	-0.986374
C122	C	1.501410	0.121338	-0.486374
N123	N	1.035828	-0.416037	-0.881299
N124	N	1.535828	0.083963	-0.381299
N125	N	0.998491	-0.375533	-0.911000
N126	N	1.498491	0.124467	-0.411000
C127	C	1.010004	-0.388228	-0.212338
C128	C	1.510004	0.111772	0.287662
C129	C	1.007113	-0.384781	-0.133855
C130	C	1.507113	0.115219	0.366145
H131	H	0.285672	-0.492352	-0.491979
H132	H	0.785672	0.007648	0.008021
H133	H	0.922995	-0.797165	-0.489726
H134	H	1.422995	-0.297165	0.010274
C135	C	1.117545	-1.137104	-0.295627
C136	C	1.617545	-0.637104	0.204373
C137	C	1.157290	-1.089182	-0.255897
C138	C	1.657290	-0.589182	0.244103
C139	C	1.199225	-1.125792	-0.213995
C140	C	1.699225	-0.625792	0.286005
H141	H	1.148198	-1.168150	-0.324982
H142	H	1.648198	-0.668150	0.175018
H143	H	1.088374	-1.163394	-0.264787
H144	H	1.588374	-0.663394	0.235213
H145	H	1.186458	-1.062904	-0.286734
H146	H	1.686458	-0.562904	0.213266
H147	H	1.126655	-1.058135	-0.226528
H148	H	1.626655	-0.558135	0.273472
H149	H	1.170053	-1.152081	-0.183155
H150	H	1.670053	-0.652081	0.316845
H151	H	1.229873	-1.156836	-0.243356
H152	H	1.729873	-0.656836	0.256644
H153	H	1.226191	-1.093282	-0.187028
H154	H	1.726191	-0.593282	0.312972
C155	C	0.911208	-0.280624	-0.975643
C156	C	1.411208	0.219376	-0.475643
C157	C	0.951192	-0.235421	-0.933264
C158	C	1.451192	0.264579	-0.433264
C159	C	0.906647	-0.186894	-0.892737
C160	C	1.406647	0.313106	-0.392737
H161	H	0.878363	-0.304982	-0.946561
H162	H	1.378363	0.195018	-0.446561
H163	H	0.886719	-0.253998	-1.005986
H164	H	1.386719	0.246002	-0.505986
H165	H	0.975669	-0.262044	-0.902924
H166	H	1.475669	0.237956	-0.402924
H167	H	0.984035	-0.211047	-0.962328
H168	H	1.484035	0.288953	-0.462328
H169	H	0.882159	-0.160268	-0.923081
H170	H	1.382159	0.339732	-0.423081
H171	H	0.873805	-0.211258	-0.863660
H172	H	1.373805	0.288742	-0.363660
H173	H	0.933771	-0.156214	-0.863984
H174	H	1.433771	0.343786	-0.363984
H175	H	0.615778	-0.464250	-0.463952
H176	H	1.115778	0.035750	0.036048
C177	C	1.117162	-0.504557	-0.662766
C178	C	1.617162	-0.004557	-0.162766
C179	C	1.073900	-0.546246	-0.620504
C180	C	1.573900	-0.046246	-0.120504
C181	C	1.115586	-0.591715	-0.587198
C182	C	1.615586	-0.091715	-0.087198
H183	H	1.147779	-0.477810	-0.634198
H184	H	1.647779	0.022190	-0.134198
H185	H	1.144163	-0.533880	-0.697413
H186	H	1.644163	-0.033880	-0.197413
H187	H	1.046912	-0.516927	-0.585862
H188	H	1.546912	-0.016927	-0.085862
H189	H	1.043284	-0.573008	-0.649055
H190	H	1.543284	-0.073008	-0.149055
H191	H	1.142586	-0.621037	-0.621845
H192	H	1.642586	-0.121037	-0.121845
H193	H	1.146201	-0.564962	-0.558634
H194	H	1.646201	-0.064962	-0.058634
H195	H	1.086239	-0.620010	-0.558525
H196	H	1.586239	-0.120010	-0.058525
C197	C	0.916644	-0.653949	-0.495931
C198	C	1.416644	-0.153949	0.004069
C199	C	0.876875	-0.701867	-0.535639
C200	C	1.376875	-0.201867	-0.035639
C201	C	0.834890	-0.665250	-0.577487
C202	C	1.334890	-0.165250	-0.077487
H203	H	0.945762	-0.627644	-0.526789
H204	H	1.445762	-0.127644	-0.026789
H205	H	0.886012	-0.622917	-0.466519
H206	H	1.386012	-0.122917	0.033481
H207	H	0.907504	-0.732887	-0.565048
H208	H	1.407504	-0.232887	-0.065048
H209	H	0.847744	-0.728174	-0.504798
H210	H	1.347744	-0.228174	-0.004798
H211	H	0.804257	-0.634218	-0.548076
H212	H	1.304257	-0.134218	-0.048076
H213	H	0.864012	-0.638946	-0.608341
H214	H	1.364012	-0.138946	-0.108341
H215	H	0.807896	-0.697756	-0.604429
H216	H	1.307896	-0.197756	-0.104429
C217	C	0.917061	-0.287170	-1.129614
C218	C	1.417061	0.212830	-0.629614
C219	C	0.929104	-0.300227	-1.202857
C220	C	1.429104	0.199773	-0.702857
C221	C	0.887304	-0.254947	-1.236263
C222	C	1.387304	0.245053	-0.736263
H223	H	0.928705	-0.239786	-1.116232
H224	H	1.428705	0.260214	-0.616232
H225	H	0.868888	-0.294994	-1.115980
H226	H	1.368888	0.205006	-0.615980
H227	H	0.977267	-0.292398	-1.216485
H228	H	1.477267	0.207602	-0.716485
H229	H	0.917456	-0.347602	-1.216259
H230	H	1.417456	0.152398	-0.716259
H231	H	0.839130	-0.262770	-1.222629
H232	H	1.339130	0.237230	-0.722629
H233	H	0.898951	-0.207566	-1.222876
H234	H	1.398951	0.292434	-0.722876
H235	H	0.895464	-0.263804	-1.285962
H236	H	1.395464	0.236196	-0.785962
C237	C	1.091573	-0.476384	-0.990881
C238	C	1.591573	0.023616	-0.490881
C239	C	1.131322	-0.519433	-1.042119
C240	C	1.631322	-0.019433	-0.542119
C241	C	1.173250	-0.564840	-1.009007
C242	C	1.673250	-0.064840	-0.509007
H243	H	1.062418	-0.504794	-0.962162
H244	H	1.562418	-0.004794	-0.462162
H245	H	1.122218	-0.449568	-0.962389
H246	H	1.622218	0.050432	-0.462389
H247	H	1.100680	-0.546246	-1.070599
H248	H	1.600680	-0.046246	-0.570599
H249	H	1.160490	-0.491041	-1.070841
H250	H	1.660490	0.008959	-0.570841
H251	H	1.203895	-0.538024	-0.980514
H252	H	1.703895	-0.038024	-0.480514
H253	H	1.144089	-0.593246	-0.980288
H254	H	1.644089	-0.093246	-0.480288
H255	H	1.200229	-0.594049	-1.043766
H256	H	1.700229	-0.094049	-0.543766
H257	H	0.419044	-0.327564	-0.327676
H258	H	0.919044	0.172436	0.172324
C259	C	0.605697	-0.280788	-0.280992
C260	C	1.105697	0.219212	0.219008
C261	C	0.533457	-0.287824	-0.287985
C262	C	1.033457	0.212176	0.212015
C263	C	0.496569	-0.239407	-0.239662
C264	C	0.996569	0.260593	0.260338
H265	H	0.619909	-0.234419	-0.290045
H266	H	1.119909	0.265581	0.209955
H267	H	0.615457	-0.289551	-0.234411
H268	H	1.115457	0.210449	0.265589
H269	H	0.523702	-0.279056	-0.334556
H270	H	1.023702	0.220944	0.165444
H271	H	0.519224	-0.334183	-0.278926
H272	H	1.019224	0.165817	0.221074
H273	H	0.506329	-0.248170	-0.193080
H274	H	1.006329	0.251830	0.306920
H275	H	0.510787	-0.193042	-0.248718
H276	H	1.010787	0.306958	0.251282
H277	H	0.447550	-0.244179	-0.244395
H278	H	0.947550	0.255821	0.255605
C279	C	1.123262	-0.983881	-0.289667
C280	C	1.623262	-0.483881	0.210333
C281	C	1.083308	-0.938201	-0.241061
C282	C	1.583308	-0.438201	0.258939
C283	C	1.127892	-0.901401	-0.196289
C284	C	1.627892	-0.401401	0.303711
H285	H	1.156065	-0.957515	-0.316787
H286	H	1.656065	-0.457515	0.183213
H287	H	1.147797	-1.016276	-0.265136
H288	H	1.647797	-0.516276	0.234864
H289	H	1.058785	-0.905811	-0.265590
H290	H	1.558785	-0.405811	0.234410
H291	H	1.050507	-0.964549	-0.213925
H292	H	1.550507	-0.464549	0.286075
H293	H	1.152426	-0.933795	-0.171759
H294	H	1.652426	-0.433795	0.328241
H295	H	1.160693	-0.875039	-0.223415
H296	H	1.660693	-0.375039	0.276585
H297	H	1.100789	-0.870407	-0.163301
H298	H	1.600789	-0.370407	0.336699
H299	H	1.111103	-0.497717	-0.805625
H300	H	1.611103	0.002283	-0.305625
H301	H	0.419024	-0.497937	-0.497539
H302	H	0.919024	0.002063	0.002461
H303	H	0.749120	-0.469837	-0.469509
H304	H	1.249120	0.030163	0.030491
H305	H	1.085214	-0.663806	-0.327670
H306	H	1.585214	-0.163806	0.172330
H307	H	0.285702	-0.321977	-0.322122
H308	H	0.785702	0.178023	0.177878
H309	H	0.954121	-0.993911	-0.458763
H310	H	1.454121	-0.493911	0.041237
H311	H	0.949021	-0.321969	-0.658744
H312	H	1.449021	0.178031	-0.158744
H313	H	0.749149	-0.299459	-0.299652
H314	H	1.249149	0.200541	0.200348
H315	H	1.080115	-0.797153	-0.332849
H316	H	1.580115	-0.297153	0.167151
C317	C	0.936864	-1.137120	-0.476131
C318	C	1.436864	-0.637120	0.023869
C319	C	0.900793	-1.089206	-0.512155
C320	C	1.400793	-0.589206	-0.012155
C321	C	0.856066	-1.125829	-0.556903
C322	C	1.356066	-0.625829	-0.056903
H323	H	0.904013	-1.163428	-0.449003
H324	H	1.404013	-0.663428	0.050997
H325	H	0.963849	-1.168150	-0.509187
H326	H	1.463849	-0.668150	-0.009187
H327	H	0.873809	-1.058188	-0.479103
H328	H	1.373809	-0.558188	0.020897
H329	H	0.933625	-1.062896	-0.539296
H330	H	1.433625	-0.562896	-0.039296
H331	H	0.883051	-1.156859	-0.589960
H332	H	1.383051	-0.656859	-0.089960
H333	H	0.823219	-1.152136	-0.529771
H334	H	1.323219	-0.652136	-0.029771
H335	H	0.831591	-1.093326	-0.581356
H336	H	1.331591	-0.593326	-0.081356
H337	H	0.954186	-0.327532	-0.792517
H338	H	1.454186	0.172468	-0.292517
H339	H	1.085311	-0.469589	-1.133555
H340	H	1.585311	0.030411	-0.633555
