data_functionalizedCrystal
_audit_creation_method	'MofGen! by Chris Wilmer'
_symmetry_space_group_name_H-M	'P1'
_symmetry_Int_Tables_number	1
_symmetry_cell_setting	triclinic
loop_
_symmetry_equiv_pos_as_xyz
  x,y,z
_cell_length_a	10.654550
_cell_length_b	11.792241
_cell_length_c	9.130313
_cell_angle_alpha	89.995332
_cell_angle_beta	89.999724
_cell_angle_gamma	84.339173
loop_
_atom_site_label
_atom_site_type_symbol
_atom_site_fract_x
_atom_site_fract_y
_atom_site_fract_z
O1	O	1.667388	0.159420	-0.121691
O2	O	1.301867	0.174608	-0.121718
O3	O	1.493498	0.001864	-0.121693
O4	O	1.475758	0.332164	-0.121715
O5	O	1.493485	0.001859	0.121906
O6	O	1.301854	0.174603	0.121881
O7	O	1.667375	0.159415	0.121908
Cu8	Cu	1.484613	0.167009	0.144137
Cu9	Cu	1.484629	0.167015	-0.143947
O10	O	1.475744	0.332159	0.121884
C11	C	1.255066	0.173491	0.000078
C12	C	1.115632	0.170154	0.000068
C13	C	1.035859	0.271863	0.000066
C14	C	0.904847	0.268721	0.000092
C15	C	0.933394	0.062152	0.000116
C16	C	1.064403	0.065295	0.000101
C17	C	1.492377	-0.040432	0.000106
C18	C	1.489042	-0.166453	0.000104
C19	C	1.482908	-0.397180	0.000079
C20	C	1.486316	-0.268787	0.000093
C21	C	1.714177	0.160533	0.000109
C22	C	1.853611	0.163869	0.000109
C23	C	1.476865	0.374455	0.000082
C24	C	1.480201	0.500477	0.000074
N25	N	1.484612	0.167004	0.346760
N26	N	1.484641	0.167011	-0.346569
C27	C	1.569495	0.090545	0.423422
C28	C	1.569507	0.090545	0.576759
C29	C	1.399749	0.243473	0.576757
C30	C	1.399732	0.243466	0.423423
H31	H	0.839900	0.351543	0.000092
O32	O	0.883420	-0.039605	0.000071
C33	C	0.750681	-0.020572	0.000117
H34	H	0.720517	0.067761	-0.046009
H35	H	0.710002	-0.087728	-0.070596
H36	H	0.714186	-0.026360	0.116987
H37	H	1.077564	0.357246	0.000050
O38	O	1.141725	-0.033618	0.000037
C39	C	1.068420	-0.126843	0.000093
H40	H	0.970843	-0.098811	-0.046021
H41	H	1.116256	-0.198169	-0.070624
H42	H	1.058884	-0.158933	0.116965
O43	O	1.652085	0.016234	0.651002
C44	C	1.726970	-0.051271	0.550450
H45	H	1.728689	-0.004723	0.441142
H46	H	1.827149	-0.067740	0.594741
H47	H	1.685628	-0.135936	0.534159
H48	H	1.330643	0.305729	0.639192
O49	O	1.651737	0.016171	0.348822
C50	C	1.583953	-0.054437	0.260227
H51	H	1.486013	-0.010014	0.237228
H52	H	1.636237	-0.072032	0.152411
H53	H	1.574799	-0.138359	0.319398
O54	O	1.317226	0.317853	0.349170
C55	C	1.242298	0.385330	0.449712
H56	H	1.293803	0.387057	0.559006
H57	H	1.223742	0.475810	0.405387
H58	H	1.148762	0.347688	0.466042
