data_functionalizedCrystal
_audit_creation_method	'MofGen! by Chris Wilmer'
_symmetry_space_group_name_H-M	'P1'
_symmetry_Int_Tables_number	1
_symmetry_cell_setting	triclinic
loop_
_symmetry_equiv_pos_as_xyz
  x,y,z
_cell_length_a	19.188930
_cell_length_b	10.654550
_cell_length_c	9.130313
_cell_angle_alpha	90.000276
_cell_angle_beta	89.990369
_cell_angle_gamma	96.185144
loop_
_atom_site_label
_atom_site_type_symbol
_atom_site_fract_x
_atom_site_fract_y
_atom_site_fract_z
O1	O	0.098062	-1.665764	-0.121709
O2	O	0.107405	-1.300088	-0.121737
O3	O	0.001147	-1.493479	-0.121693
O4	O	0.204320	-1.472374	-0.121752
O5	O	0.001143	-1.493466	0.121905
O6	O	0.107401	-1.300075	0.121862
O7	O	0.098059	-1.665751	0.121890
Cu8	Cu	0.102730	-1.482912	0.144118
Cu9	Cu	0.102734	-1.482928	-0.143965
O10	O	0.204317	-1.472361	0.121847
C11	C	0.106717	-1.253298	0.000059
C12	C	0.104665	-1.113898	0.000049
C13	C	-0.024870	-1.492789	0.000110
C14	C	-0.102388	-1.490737	0.000123
C15	C	0.098746	-1.712541	0.000091
C16	C	0.100799	-1.851941	0.000091
C17	C	-0.146570	-1.604213	0.000138
C18	C	-0.219407	-1.602285	0.000115
C19	C	-0.248058	-1.486876	0.000105
C20	C	-0.203866	-1.373386	0.000081
C21	C	-0.131032	-1.375316	0.000090
N22	N	-0.356641	-1.398655	0.082999
N23	N	-0.425831	-1.396828	0.082994
C24	C	-0.467505	-1.481052	0.000075
N25	N	-0.437375	-1.567190	-0.082821
N26	N	-0.368178	-1.569020	-0.082809
C27	C	-0.327034	-1.484770	0.000094
C28	C	-0.590665	-1.592445	0.000063
C29	C	-0.663502	-1.590513	0.000030
C30	C	-0.647960	-1.361610	0.000011
C31	C	-0.575124	-1.363545	0.000029
C32	C	-0.546481	-1.478966	0.000062
C33	C	0.230334	-1.473051	0.000040
C34	C	0.307852	-1.475102	0.000018
N35	N	0.102727	-1.482910	0.346741
C36	C	0.167228	-1.033089	0.000035
C37	C	0.165295	-0.902109	0.000061
C38	C	0.038231	-0.932761	0.000109
C39	C	0.040164	-1.063738	0.000094
N40	N	0.102731	-1.482939	-0.346588
C41	C	0.055696	-1.568572	0.423412
C42	C	0.055696	-1.568584	0.576749
C43	C	0.149764	-1.397268	0.576730
C44	C	0.149760	-1.397251	0.423396
H45	H	-0.255386	-1.694693	0.000122
C46	C	0.237324	-1.087307	0.000077
C47	C	0.291700	-0.988496	0.000111
C48	C	0.356284	-1.038388	0.000173
H49	H	0.240822	-1.137737	-0.084855
H50	H	0.240756	-1.137735	0.085052
H51	H	0.288269	-0.938089	-0.084856
H52	H	0.288225	-0.938057	0.085037
H53	H	0.359716	-1.088816	0.085149
H54	H	0.359774	-1.088818	-0.084760
H55	H	0.393185	-0.971354	0.000210
H56	H	0.017398	-1.638336	0.639171
H57	H	0.188059	-1.327489	0.360966
C58	C	-0.115514	-1.729563	-0.000142
C59	C	-0.137895	-1.798134	-0.125480
C60	C	-0.109293	-1.913606	-0.125800
H61	H	-0.130633	-1.776415	0.084712
H62	H	-0.065805	-1.714523	-0.000218
H63	H	-0.187594	-1.813179	-0.125390
H64	H	-0.122777	-1.751322	-0.210354
H65	H	-0.059583	-1.898565	-0.125876
H66	H	-0.124414	-1.960446	-0.040941
H67	H	-0.124469	-1.960141	-0.210846
H68	H	-0.567342	-1.686428	0.000083
C69	C	-0.027842	-1.151277	0.000033
C70	C	-0.084743	-1.079319	0.000024
C71	C	-0.147397	-1.159915	-0.000046
H72	H	-0.029827	-1.203043	0.084954
H73	H	-0.029766	-1.202985	-0.084954
H74	H	-0.082820	-1.027632	0.085002
H75	H	-0.082782	-1.027556	-0.084891
H76	H	-0.149321	-1.211623	-0.085033
H77	H	-0.149374	-1.211676	0.084876
H78	H	-0.186012	-1.111103	-0.000066
C79	C	-0.235105	-1.248211	0.000146
C80	C	-0.308348	-1.270806	0.000184
C81	C	-0.337147	-1.155521	0.000255
H82	H	-0.220047	-1.201413	-0.084785
H83	H	-0.220022	-1.201485	0.085123
H84	H	-0.323424	-1.317512	-0.084785
H85	H	-0.323425	-1.317584	0.085107
H86	H	-0.322064	-1.108795	0.085233
H87	H	-0.322083	-1.108732	-0.084676
H88	H	-0.386844	-1.170836	0.000295
C89	C	-0.527267	-1.240205	0.000107
C90	C	-0.567945	-1.138718	0.000132
C91	C	-0.523884	-1.025073	0.000219
H92	H	-0.498506	-1.236024	-0.084813
H93	H	-0.498552	-1.236130	0.085094
H94	H	-0.596648	-1.142791	-0.084847
H95	H	-0.596705	-1.142858	0.085046
H96	H	-0.495168	-1.020998	0.085207
H97	H	-0.495125	-1.020905	-0.084702
H98	H	-0.551477	-0.956201	0.000250
H99	H	-0.095058	-1.282908	0.000077
H100	H	-0.699475	-1.682922	0.000035
C101	C	0.004549	-1.661617	0.340450
C102	C	-0.036651	-1.736614	0.440423
C103	C	-0.083784	-1.822329	0.364057
H104	H	0.029851	-1.713865	0.280608
H105	H	-0.024788	-1.616633	0.280689
H106	H	-0.007317	-1.781596	0.500160
H107	H	-0.061968	-1.684402	0.500269
H108	H	-0.113121	-1.777345	0.304296
H109	H	-0.058476	-1.874568	0.304217
H110	H	-0.111748	-1.873217	0.431877
C111	C	0.200748	-1.304076	0.659886
C112	C	0.188770	-1.180741	0.622647
C113	C	0.235717	-1.094859	0.699234
H114	H	0.247445	-1.317273	0.634797
H115	H	0.194010	-1.316273	0.762201
H116	H	0.195513	-1.168550	0.520354
H117	H	0.142081	-1.167504	0.647740
H118	H	0.228980	-1.107056	0.801549
H119	H	0.282412	-1.108068	0.674138
H120	H	0.227592	-1.011168	0.673988
H121	H	-0.671287	-1.267641	-0.000005
H122	H	0.216240	-0.836318	0.000053
H123	H	-0.014283	-0.891904	0.000154
