data_functionalizedCrystal
_audit_creation_method	'MofGen! by Chris Wilmer'
_symmetry_space_group_name_H-M	'P1'
_symmetry_Int_Tables_number	1
_symmetry_cell_setting	triclinic
loop_
_symmetry_equiv_pos_as_xyz
  x,y,z
_cell_length_a	10.654550
_cell_length_b	14.586319
_cell_length_c	10.654551
_cell_angle_alpha	90.002027
_cell_angle_beta	84.485180
_cell_angle_gamma	90.000265
loop_
_atom_site_label
_atom_site_type_symbol
_atom_site_fract_x
_atom_site_fract_y
_atom_site_fract_z
O1	O	1.667840	0.076168	0.176397
O2	O	2.001174	0.409501	0.509731
O3	O	2.334507	0.742835	0.843064
O4	O	1.302362	0.076184	0.193203
O5	O	1.635695	0.409518	0.526537
O6	O	1.969029	0.742851	0.859870
O7	O	1.493503	0.076174	0.002061
O8	O	1.826837	0.409507	0.335395
O9	O	2.160170	0.742841	0.668728
O10	O	1.476699	0.076179	0.367540
O11	O	1.810032	0.409512	0.700873
O12	O	2.143366	0.742845	1.034206
O13	O	1.493490	-0.076307	0.002058
O14	O	1.826823	0.257026	0.335392
O15	O	2.160157	0.590360	0.668725
O16	O	1.302349	-0.076296	0.193200
O17	O	1.635682	0.257037	0.526534
O18	O	1.969015	0.590370	0.859867
O19	O	1.667827	-0.076313	0.176394
O20	O	2.001160	0.257021	0.509728
O21	O	2.334494	0.590354	0.843061
Cu22	Cu	1.485086	-0.090227	0.184797
Cu23	Cu	1.818420	0.243106	0.518131
Cu24	Cu	2.151753	0.576439	0.851464
Cu25	Cu	1.485102	0.090099	0.184801
Cu26	Cu	1.818436	0.423432	0.518134
Cu27	Cu	2.151769	0.756766	0.851467
O28	O	1.476685	-0.076302	0.367537
O29	O	1.810019	0.257031	0.700870
O30	O	2.143352	0.590365	1.034203
C31	C	1.255557	-0.000054	0.191968
C32	C	1.588891	0.333280	0.525301
C33	C	1.922224	0.666613	0.858635
C34	C	1.116114	-0.000047	0.188276
C35	C	1.449447	0.333286	0.521609
C36	C	1.782781	0.666619	0.854943
N37	N	1.485084	-0.217059	0.184794
N38	N	1.818418	0.116274	0.518127
N39	N	2.151751	0.449608	0.851461
C40	C	1.036629	-0.000049	0.300818
C41	C	1.369962	0.333285	0.634151
C42	C	1.703296	0.666618	0.967484
C43	C	0.905608	-0.000065	0.297341
C44	C	1.238941	0.333269	0.630674
C45	C	1.572275	0.666602	0.964008
C46	C	0.933570	-0.000074	0.068772
C47	C	1.266904	0.333259	0.402105
C48	C	1.600237	0.666592	0.735438
C49	C	1.064589	-0.000065	0.072249
C50	C	1.397922	0.333268	0.405583
C51	C	1.731255	0.666602	0.738916
C52	C	1.569750	-0.452070	0.100185
C53	C	1.903084	-0.118737	0.433518
C54	C	2.236417	0.214597	0.766852
C55	C	1.569754	-0.548051	0.100182
C56	C	1.903087	-0.214718	0.433515
C57	C	2.236421	0.118615	0.766849
C58	C	1.400439	-0.548051	0.269407
C59	C	1.733773	-0.214718	0.602740
C60	C	2.067106	0.118615	0.936074
C61	C	1.400431	-0.452072	0.269403
C62	C	1.733764	-0.118739	0.602736
C63	C	2.067097	0.214595	0.936069
C64	C	1.485093	-0.404084	0.184793
C65	C	1.818427	-0.070750	0.518127
C66	C	2.151760	0.262583	0.851460
C67	C	1.485105	-0.596045	0.184794
C68	C	1.818439	-0.262711	0.518128
C69	C	2.151772	0.070622	0.851461
C70	C	1.485109	-0.700112	0.184792
C71	C	1.818442	-0.366778	0.518125
C72	C	2.151775	-0.033445	0.851459
C73	C	1.485089	-0.300010	0.184794
C74	C	1.818422	0.033323	0.518127
C75	C	2.151755	0.366657	0.851461
C76	C	1.714632	-0.000072	0.177630
C77	C	2.047965	0.333261	0.510963
C78	C	2.381298	0.666594	0.844297
C79	C	1.854075	-0.000073	0.181322
C80	C	2.187408	0.333260	0.514655
C81	C	2.520742	0.666594	0.847988
C82	C	1.492262	-0.000065	-0.044738
C83	C	1.825596	0.333268	0.288595
C84	C	2.158929	0.666602	0.621928
C85	C	1.488570	-0.000061	-0.184181
C86	C	1.821903	0.333273	0.149152
C87	C	2.155237	0.666606	0.482485
N88	N	1.485114	0.216931	0.184794
N89	N	1.818448	0.550264	0.518127
N90	N	2.151781	0.883597	0.851461
C91	C	1.486844	0.083058	-0.249684
C92	C	1.820178	0.416391	0.083650
C93	C	2.153511	0.749724	0.416983
C94	C	1.483364	0.083059	-0.380704
C95	C	1.816698	0.416392	-0.047371
C96	C	2.150031	0.749725	0.285963
C97	C	1.483341	-0.083184	-0.380709
C98	C	1.816674	0.250149	-0.047376
C99	C	2.150008	0.583482	0.285958
C100	C	1.486812	-0.083184	-0.249690
C101	C	1.820145	0.250149	0.083643
C102	C	2.153479	0.583482	0.416977
C103	C	1.477926	-0.000061	0.414336
C104	C	1.811260	0.333272	0.747669
C105	C	2.144593	0.666605	1.081003
C106	C	1.481619	-0.000060	0.553779
C107	C	1.814952	0.333274	0.887113
C108	C	2.148286	0.666607	1.220446
H109	H	1.078576	-0.000041	0.395294
H110	H	1.411909	0.333292	0.728627
H111	H	1.745243	0.666626	1.061960
Cl112	Cl	0.868785	-0.000091	-0.077082
Cl113	Cl	1.202119	0.333243	0.256251
Cl114	Cl	1.535452	0.666576	0.589584
H115	H	1.129309	-0.000067	-0.019401
H116	H	1.462642	0.333267	0.313932
H117	H	1.795976	0.666600	0.647266
H118	H	0.840896	-0.000067	0.388984
H119	H	1.174229	0.333266	0.722317
H120	H	1.507562	0.666599	1.055651
H121	H	1.638686	-0.413000	0.031289
H122	H	1.972019	-0.079667	0.364623
H123	H	2.305353	0.253666	0.697956
H124	H	1.331486	-0.412999	0.338302
H125	H	1.664820	-0.079665	0.671635
H126	H	1.998153	0.253668	1.004968
Cl127	Cl	1.676182	-0.608375	-0.006190
Cl128	Cl	2.009515	-0.275041	0.327144
Cl129	Cl	2.342849	0.058292	0.660477
H130	H	1.331510	-0.587133	0.338296
H131	H	1.664844	-0.253800	0.671629
H132	H	1.998177	0.079534	1.004962
Cl133	Cl	1.489047	0.187556	-0.167333
Cl134	Cl	1.822380	0.520889	0.166000
Cl135	Cl	2.155713	0.854222	0.499333
Cl136	Cl	1.481192	0.187555	-0.463044
Cl137	Cl	1.814525	0.520888	-0.129711
Cl138	Cl	2.147859	0.854222	0.203623
Cl139	Cl	1.481132	-0.187677	-0.463072
Cl140	Cl	1.814465	0.145657	-0.129738
Cl141	Cl	2.147798	0.478990	0.203595
Cl142	Cl	1.488967	-0.187685	-0.167336
Cl143	Cl	1.822301	0.145649	0.165997
Cl144	Cl	2.155634	0.478982	0.499331
