data_functionalizedCrystal
_audit_creation_method	'MofGen! by Chris Wilmer'
_symmetry_space_group_name_H-M	'P1'
_symmetry_Int_Tables_number	1
_symmetry_cell_setting	triclinic
loop_
_symmetry_equiv_pos_as_xyz
  x,y,z
_cell_length_a	23.532407
_cell_length_b	10.654550
_cell_length_c	9.730223
_cell_angle_alpha	90.000193
_cell_angle_beta	90.005152
_cell_angle_gamma	96.333210
loop_
_atom_site_label
_atom_site_type_symbol
_atom_site_fract_x
_atom_site_fract_y
_atom_site_fract_z
O1	O	0.756249	-0.152433	-0.114115
O2	O	0.590530	-0.174490	-0.114155
O3	O	0.677200	0.019399	-0.114129
O4	O	0.669579	-0.346321	-0.114141
O5	O	0.677199	0.019394	0.114451
O6	O	0.590529	-0.174495	0.114425
O7	O	0.756248	-0.152438	0.114465
Zn8	Zn	0.673388	-0.163467	0.150737
Zn9	Zn	0.673390	-0.163461	-0.150427
O10	O	0.669578	-0.346326	0.114439
C11	C	0.569310	-0.173931	0.000130
C12	C	0.506081	-0.172242	0.000115
N13	N	0.673392	-0.163471	0.356273
C14	C	0.676640	0.066176	0.000159
C15	C	0.674966	0.205567	0.000154
C16	C	0.107657	-0.276389	0.000173
C17	C	0.048247	-0.274820	0.000182
O18	O	0.012131	-0.371366	0.000229
N19	N	0.024869	-0.159554	0.000183
C20	C	0.060906	-0.045849	0.000190
O21	O	0.035567	0.052339	0.000194
C22	C	0.120315	-0.047419	0.000192
C23	C	0.143689	-0.162693	0.000176
C24	C	0.131031	-0.391654	0.000160
C25	C	0.190438	-0.393222	0.000149
C26	C	0.226470	-0.279525	0.000151
C27	C	0.203095	-0.164261	0.000165
C28	C	0.156351	0.066285	0.000209
C29	C	0.215764	0.064705	0.000211
C30	C	0.239138	-0.050569	0.000196
C31	C	0.298534	-0.052133	0.000157
N32	N	0.321911	-0.167399	0.000156
C33	C	0.285879	-0.281096	0.000153
C34	C	-0.063858	-0.042560	0.000190
C35	C	-0.123266	-0.040989	0.000179
C36	C	-0.135922	-0.269961	0.000173
C37	C	-0.076512	-0.271531	0.000174
C38	C	-0.040481	-0.157827	0.000188
C39	C	0.410637	-0.284380	0.000128
C40	C	0.470049	-0.285938	0.000112
C41	C	0.482700	-0.056967	0.000125
C42	C	0.423293	-0.055408	0.000134
C43	C	0.387262	-0.169125	0.000141
O44	O	0.334684	0.044362	0.000116
O45	O	0.311227	-0.379267	0.000168
C46	C	0.777469	-0.152997	0.000177
C47	C	0.840697	-0.154686	0.000183
C48	C	0.670138	-0.393104	0.000148
C49	C	0.671812	-0.532494	0.000144
C50	C	0.725996	0.286669	0.000170
C51	C	0.724419	0.417640	0.000160
C52	C	0.620779	0.386393	0.000123
C53	C	0.622356	0.255425	0.000123
C54	C	0.785832	0.304710	0.000198
C55	C	0.784256	0.435681	0.000188
N56	N	0.673391	-0.163447	-0.355963
C57	C	0.711779	-0.077646	0.428211
C58	C	0.711778	-0.077630	0.572094
C59	C	0.634999	-0.249276	0.572089
C60	C	0.634999	-0.249285	0.428209
C61	C	0.756108	0.021450	0.428215
C62	C	0.756107	0.021465	0.572098
H63	H	0.489077	-0.379812	0.000098
Br64	Br	0.531611	0.097328	0.000132
H65	H	0.381308	-0.376980	0.000138
H66	H	0.806801	0.478154	0.095852
Br67	Br	0.582891	-0.365742	0.330576
Br68	Br	0.829044	-0.012073	0.637215
Br69	Br	0.824841	0.257005	-0.159214
Br70	Br	0.391570	0.101036	0.000160
Br71	Br	0.222149	-0.549673	0.000134
H72	H	0.804885	0.269685	0.098899
Br73	Br	0.549382	0.454066	0.000074
H74	H	0.137331	0.160153	0.000222
H75	H	0.802339	0.481899	-0.098502
H76	H	0.245099	0.157299	0.000224
Br77	Br	-0.044797	-0.427979	0.000154
Br78	Br	-0.014963	0.111768	0.000197
H79	H	0.101699	-0.484244	0.000162
Br80	Br	-0.184834	-0.424265	0.000172
H81	H	0.580802	0.189394	0.000091
H82	H	0.603740	-0.319143	0.630674
Br83	Br	0.739904	0.181824	0.363109
H84	H	-0.142291	0.052879	0.000170
Br85	Br	0.825014	-0.027372	0.353835
H86	H	0.742271	0.112249	0.616712
