data_functionalizedCrystal
_audit_creation_method	'MofGen! by Chris Wilmer'
_symmetry_space_group_name_H-M	'P1'
_symmetry_Int_Tables_number	1
_symmetry_cell_setting	triclinic
loop_
_symmetry_equiv_pos_as_xyz
  x,y,z
_cell_length_a	18.101398
_cell_length_b	18.101397
_cell_length_c	13.897441
_cell_angle_alpha	90.034904
_cell_angle_beta	90.027215
_cell_angle_gamma	90.015732
loop_
_atom_site_label
_atom_site_type_symbol
_atom_site_fract_x
_atom_site_fract_y
_atom_site_fract_z
Zn1	Zn	1.132197	-0.294899	0.545519
Zn2	Zn	1.632197	0.205101	1.045519
Zn3	Zn	1.132110	-0.418755	0.384208
Zn4	Zn	1.632110	0.081245	0.884208
Zn5	Zn	1.008350	-0.294922	0.384219
Zn6	Zn	1.508350	0.205078	0.884219
Zn7	Zn	1.008330	-0.418693	0.545443
Zn8	Zn	1.508330	0.081307	1.045443
O9	O	1.070246	-0.356817	0.464847
O10	O	1.570246	0.143183	0.964847
O11	O	1.235818	-0.311346	0.524148
O12	O	1.735818	0.188654	1.024148
O13	O	1.115664	-0.402363	0.249228
O14	O	1.615664	0.097637	0.749228
O15	O	1.024823	-0.191286	0.405652
O16	O	1.524823	0.308714	0.905652
O17	O	1.235754	-0.402342	0.405634
O18	O	1.735754	0.097658	0.905634
O19	O	1.115813	-0.191269	0.524159
O20	O	1.615813	0.308731	1.024159
O21	O	1.024738	-0.311384	0.249236
O22	O	1.524738	0.188616	0.749236
O23	O	0.904714	-0.311324	0.405578
O24	O	1.404714	0.188676	0.905578
O25	O	1.024789	-0.402237	0.680435
O26	O	1.524789	0.097763	1.180435
O27	O	0.904699	-0.402258	0.524029
O28	O	1.404699	0.097742	1.024029
O29	O	1.115794	-0.311286	0.680491
O30	O	1.615794	0.188714	1.180491
O31	O	1.115645	-0.522380	0.405560
O32	O	1.615645	-0.022380	0.905560
O33	O	1.024704	-0.522335	0.524018
O34	O	1.524704	-0.022335	1.024018
C35	C	0.877836	-0.356787	0.464797
C36	C	1.377836	0.143213	0.964797
C37	C	0.795522	-0.356792	0.464798
C38	C	1.295522	0.143208	0.964798
C39	C	1.070183	-0.549228	0.464801
C40	C	1.570183	-0.049228	0.964801
C41	C	1.070224	-0.631542	0.464813
C42	C	1.570224	-0.131542	0.964813
C43	C	0.496431	-0.356839	0.464879
C44	C	0.996431	0.143161	0.964879
C45	C	0.527741	-0.299339	0.390717
C46	C	1.027741	0.200661	0.890717
C47	C	0.613359	-0.299493	0.390401
C48	C	1.113359	0.200507	0.890401
C49	C	0.644813	-0.356815	0.464839
C50	C	1.144813	0.143185	0.964839
C51	C	0.613709	-0.434828	0.437059
C52	C	1.113709	0.065172	0.937059
C53	C	0.528063	-0.434509	0.436544
C54	C	1.028063	0.065491	0.936544
C55	C	0.528046	-0.337003	0.566996
C56	C	1.028046	0.162997	1.066996
C57	C	0.613696	-0.335266	0.566438
C58	C	1.113696	0.164734	1.066438
C59	C	0.728673	-0.356806	0.464818
C60	C	1.228673	0.143194	0.964818
C61	C	0.412571	-0.356852	0.464898
C62	C	0.912571	0.143148	0.964898
C63	C	1.070318	-0.930633	0.464901
C64	C	1.570318	-0.430633	0.964901
C65	C	1.127376	-0.899305	0.390170
C66	C	1.627376	-0.399305	0.890170
C67	C	1.127574	-0.813687	0.390364
C68	C	1.627574	-0.313687	0.890364
C69	C	1.070271	-0.782250	0.464856
C70	C	1.570271	-0.282250	0.964856
C71	C	1.091431	-0.813254	0.566533
C72	C	1.591431	-0.313254	1.066533
C73	C	1.091873	-0.898899	0.566126
C74	C	1.591873	-0.398899	1.066126
C75	C	0.991948	-0.899137	0.438835
C76	C	1.491948	-0.399137	0.938835
C77	C	0.992335	-0.813488	0.436565
C78	C	1.492335	-0.313488	0.936565
C79	C	1.070244	-0.698391	0.464837
C80	C	1.570244	-0.198391	0.964837
C81	C	1.070348	-1.014492	0.464927
C82	C	1.570348	-0.514492	0.964927
C83	C	1.263408	-0.356848	0.464898
C84	C	1.763408	0.143152	0.964898
C85	C	1.345722	-0.356861	0.464920
C86	C	1.845722	0.143139	0.964920
C87	C	1.070299	-0.356752	0.716440
C88	C	1.570299	0.143248	1.216440
C89	C	1.070321	-0.356724	0.823654
C90	C	1.570321	0.143276	1.323654
C91	C	1.070330	-0.163655	0.464915
C92	C	1.570330	0.336345	0.964915
C93	C	1.070366	-0.081341	0.464944
C94	C	1.570366	0.418659	0.964944
C95	C	1.070237	-0.356829	0.214233
C96	C	1.570237	0.143171	0.714233
C97	C	1.070358	-0.356648	0.107020
C98	C	1.570358	0.143352	0.607020
C99	C	1.070341	-0.356674	1.019950
C100	C	1.570341	0.143326	1.519950
C101	C	1.070328	-0.356704	0.910717
C102	C	1.570328	0.143296	1.410717
H103	H	0.634389	-0.241643	0.407814
H104	H	1.134389	0.258357	0.907814
H105	H	1.114335	-0.792729	0.314973
H106	H	1.614335	-0.292729	0.814973
O107	O	1.039213	-0.926341	0.642397
O108	O	1.539213	-0.426341	1.142397
H109	H	0.995502	-0.960448	0.608209
H110	H	1.495502	-0.460448	1.108209
H111	H	0.507799	-0.378884	0.622253
H112	H	1.007799	0.121116	1.122253
H113	H	0.947536	-0.792096	0.487008
H114	H	1.447536	-0.292096	0.987008
H115	H	1.149158	-0.918821	0.588205
H116	H	1.649158	-0.418821	1.088205
O117	O	1.110500	-0.927241	0.290152
O118	O	1.610500	-0.427241	0.790152
H119	H	1.061208	-0.963675	0.292611
H120	H	1.561208	-0.463675	0.792611
H121	H	0.507352	-0.478801	0.488204
H122	H	1.007352	0.021199	0.988204
O123	O	0.640694	-0.493106	0.506360
O124	O	1.140694	0.006894	1.006360
H125	H	0.676651	-0.467023	0.561467
H126	H	1.176651	0.032977	1.061467
O127	O	0.935663	-0.926126	0.510869
O128	O	1.435663	-0.426126	1.010869
H129	H	0.951457	-0.907087	0.583975
H130	H	1.451457	-0.407087	1.083975
O131	O	0.640445	-0.316836	0.290159
O132	O	1.140445	0.183164	0.790159
H133	H	0.619666	-0.371973	0.267973
H134	H	1.119666	0.128027	0.767973
H135	H	0.506191	-0.312304	0.315491
H136	H	1.006191	0.187696	0.815491
O137	O	1.038077	-0.786275	0.642283
O138	O	1.538077	-0.286275	1.142283
H139	H	0.995813	-0.750395	0.608185
H140	H	1.495813	-0.250395	1.108185
O141	O	1.166466	-0.784784	0.596278
O142	O	1.666466	-0.284784	1.096278
H143	H	1.188808	-0.748563	0.538816
H144	H	1.688808	-0.248563	1.038816
H145	H	0.508052	-0.451329	0.361892
H146	H	1.008052	0.048671	0.861892
O147	O	0.500429	-0.222489	0.413508
O148	O	1.000429	0.277511	0.913508
H149	H	0.518835	-0.206593	0.486850
H150	H	1.018835	0.293407	0.986850
O151	O	0.642062	-0.457500	0.339238
O152	O	1.142062	0.042500	0.839238
H153	H	0.678297	-0.413336	0.310248
H154	H	1.178297	0.086664	0.810248
O155	O	1.203858	-0.927730	0.412754
O156	O	1.703858	-0.427730	0.912754
H157	H	1.201410	-0.964072	0.476973
H158	H	1.701410	-0.464072	0.976973
O159	O	1.204467	-0.786469	0.413210
O160	O	1.704467	-0.286469	0.913210
H161	H	1.241655	-0.834479	0.424173
H162	H	1.741655	-0.334479	0.924173
H163	H	0.972699	-0.920800	0.365977
H164	H	1.472699	-0.420800	0.865977
H165	H	0.506464	-0.281106	0.592252
H166	H	1.006464	0.218894	1.092252
H167	H	0.634030	-0.277857	0.587385
H168	H	1.134030	0.222143	1.087385
H169	H	0.635111	-0.374093	0.624656
H170	H	1.135111	0.125907	1.124656
H171	H	0.976380	-0.793232	0.361740
H172	H	1.476380	-0.293232	0.861740
