data_functionalizedCrystal
_audit_creation_method	'MofGen! by Chris Wilmer'
_symmetry_space_group_name_H-M	'P1'
_symmetry_Int_Tables_number	1
_symmetry_cell_setting	triclinic
loop_
_symmetry_equiv_pos_as_xyz
  x,y,z
_cell_length_a	34.408637
_cell_length_b	34.407814
_cell_length_c	34.404193
_cell_angle_alpha	60.004510
_cell_angle_beta	60.009006
_cell_angle_gamma	59.994604
loop_
_atom_site_label
_atom_site_type_symbol
_atom_site_fract_x
_atom_site_fract_y
_atom_site_fract_z
O1	O	0.053973	-0.567860	0.474801
O2	O	0.553973	-0.067860	0.974801
O3	O	0.020377	-0.442124	0.382567
O4	O	0.520377	0.057876	0.882567
O5	O	0.100004	-0.521670	0.382483
O6	O	0.600004	-0.021670	0.882483
O7	O	-0.025653	-0.488314	0.474886
O8	O	0.474347	0.011686	0.974886
O9	O	0.126426	-0.495253	0.408816
O10	O	0.626426	0.004747	0.908816
O11	O	0.046800	-0.415707	0.408900
O12	O	0.546800	0.084293	0.908900
O13	O	0.080396	-0.541443	0.501134
O14	O	0.580396	-0.041443	1.001134
Zn15	Zn	0.067793	-0.474381	0.459198
Zn16	Zn	0.567793	0.025619	0.959198
Zn17	Zn	0.032980	-0.509186	0.424503
Zn18	Zn	0.532980	-0.009186	0.924503
O19	O	0.000769	-0.461897	0.501219
O20	O	0.500769	0.038103	1.001219
N21	N	0.091552	-0.450631	0.482879
N22	N	0.591552	0.049369	0.982879
N23	N	0.009225	-0.532940	0.400823
N24	N	0.509225	-0.032940	0.900823
C25	C	0.142848	-0.268847	0.534081
C26	C	0.642848	0.231153	1.034081
C27	C	0.142979	-0.399386	0.664559
C28	C	0.642979	0.100614	1.164559
C29	C	0.142862	-0.399365	0.534081
C30	C	0.642862	0.100635	1.034081
C31	C	0.273409	-0.399338	0.533986
C32	C	0.773409	0.100662	1.033986
C33	C	0.157225	-0.311914	0.548422
C34	C	0.657225	0.188086	1.048422
C35	C	0.157300	-0.385019	0.621491
C36	C	0.657300	0.114981	1.121491
C37	C	0.230339	-0.384991	0.548370
C38	C	0.730339	0.115009	1.048370
C39	C	0.157235	-0.385007	0.548422
C40	C	0.657235	0.114993	1.048422
C41	C	0.124548	-0.214028	0.515827
C42	C	0.624548	0.285972	1.015827
C43	C	0.124571	-0.417639	0.515827
C44	C	0.624571	0.082361	1.015827
C45	C	0.175526	-0.366733	0.566676
C46	C	0.675526	0.133267	1.066676
C47	C	0.353121	-0.385580	0.491988
C48	C	0.853121	0.114420	0.991988
C49	C	0.402952	-0.402180	0.475348
C50	C	0.902952	0.097820	0.975348
C51	C	0.402981	-0.482812	0.506096
C52	C	0.902981	0.017188	1.006096
C53	C	0.353151	-0.466211	0.522737
C54	C	0.853151	0.033789	1.022737
C55	C	0.136544	-0.189099	0.466839
C56	C	0.636544	0.310901	0.966839
C57	C	0.119905	-0.139265	0.450247
C58	C	0.619905	0.360735	0.950247
C59	C	0.079280	-0.139291	0.531632
C60	C	0.579280	0.360709	1.031632
C61	C	0.095918	-0.189125	0.548224
C62	C	0.595918	0.310875	1.048224
C63	C	0.075577	-0.405615	0.527900
C64	C	0.575577	0.094385	1.027900
C65	C	0.058953	-0.422228	0.511301
C66	C	0.558953	0.077772	1.011301
C67	C	0.140315	-0.462889	0.470566
C68	C	0.640315	0.037111	0.970566
C69	C	0.156941	-0.446276	0.487159
C70	C	0.656941	0.053724	0.987159
C71	C	0.075772	-0.405653	0.744326
C72	C	0.575772	0.094347	1.244326
C73	C	0.059206	-0.422280	0.794159
C74	C	0.559206	0.077720	1.294159
C75	C	0.140607	-0.462951	0.794094
C76	C	0.640607	0.037049	1.294094
C77	C	0.157172	-0.446325	0.744260
C78	C	0.657172	0.053675	1.244260
C79	C	0.124753	-0.417674	0.719377
C80	C	0.624753	0.082326	1.219377
C81	C	0.328223	-0.417595	0.515681
C82	C	0.828223	0.082405	1.015681
C83	C	-0.172390	-0.583988	0.349141
C84	C	0.327610	-0.083988	0.849141
C85	C	-0.041751	-0.584138	0.218783
C86	C	0.458249	-0.084138	0.718783
C87	C	-0.041941	-0.584130	0.349402
C88	C	0.458059	-0.084130	0.849402
C89	C	-0.041957	-0.714607	0.349338
C90	C	0.458043	-0.214607	0.849338
C91	C	-0.129326	-0.598388	0.334853
C92	C	0.370674	-0.098388	0.834853
C93	C	-0.056165	-0.598473	0.261852
C94	C	0.443835	-0.098473	0.761852
C95	C	-0.056282	-0.671535	0.334962
C96	C	0.443718	-0.171535	0.834962
C97	C	-0.056272	-0.598469	0.334999
C98	C	0.443728	-0.098469	0.834999
C99	C	-0.227205	-0.565659	0.367327
C100	C	0.272795	-0.065659	0.867327
C101	C	-0.023703	-0.565882	0.367734
C102	C	0.476297	-0.065882	0.867734
C103	C	-0.074511	-0.616717	0.316667
C104	C	0.425489	-0.116717	0.816667
C105	C	-0.055754	-0.794298	0.391257
C106	C	0.444246	-0.294298	0.891257
C107	C	-0.039181	-0.844132	0.407888
C108	C	0.460819	-0.344132	0.907888
C109	C	0.041447	-0.844215	0.377269
C110	C	0.541447	-0.344215	0.877269
C111	C	0.024873	-0.794381	0.360637
C112	C	0.524873	-0.294381	0.860637
C113	C	-0.252183	-0.577666	0.416302
C114	C	0.247817	-0.077666	0.916302
C115	C	-0.302014	-0.561001	0.432833
C116	C	0.197986	-0.061001	0.932833
C117	C	-0.301886	-0.520329	0.351410
C118	C	0.198114	-0.020329	0.851410
C119	C	-0.252055	-0.536994	0.334880
C120	C	0.247945	-0.036994	0.834880
C121	C	-0.035709	-0.516892	0.355682
C122	C	0.464291	-0.016892	0.855682
C123	C	-0.019129	-0.500308	0.372353
C124	C	0.480871	-0.000308	0.872353
C125	C	0.021465	-0.581700	0.413115
C126	C	0.521465	-0.081700	0.913115
C127	C	0.004884	-0.598286	0.396450
C128	C	0.504884	-0.098286	0.896450
C129	C	-0.035389	-0.516907	0.139026
C130	C	0.464611	-0.016907	0.639026
C131	C	-0.018707	-0.500324	0.089193
C132	C	0.481293	-0.000324	0.589193
C133	C	0.021949	-0.581721	0.089240
C134	C	0.521949	-0.081721	0.589240
C135	C	0.005268	-0.598303	0.139074
C136	C	0.505268	-0.098303	0.639074
C137	C	-0.023402	-0.565894	0.163965
C138	C	0.476598	-0.065894	0.663965
C139	C	-0.023728	-0.769425	0.367633
C140	C	0.476272	-0.269425	0.867633
N141	N	0.427173	-0.450553	0.482630
N142	N	0.927173	0.049447	0.982630
O143	O	0.589997	-0.458460	0.365361
O144	O	1.089997	0.041540	0.865361
O145	O	0.590185	-0.550997	0.490963
O146	O	1.090185	-0.050997	0.990963
O147	O	0.590104	-0.550786	0.411309
O148	O	1.090104	-0.050786	0.911309
O149	O	0.590077	-0.458671	0.445016
O150	O	1.090077	0.041329	0.945016
O151	O	0.510940	-0.524462	0.437777
O152	O	1.010940	-0.024462	0.937777
O153	O	0.511020	-0.524674	0.517432
O154	O	1.011020	-0.024674	1.017432
O155	O	0.510832	-0.432136	0.391830
O156	O	1.010832	0.067864	0.891830
Zn157	Zn	0.498357	-0.474225	0.458833
Zn158	Zn	0.998357	0.025775	0.958833
Zn159	Zn	0.602660	-0.508908	0.423960
Zn160	Zn	1.102660	-0.008908	0.923960
O161	O	0.510913	-0.432348	0.471484
O162	O	1.010913	0.067652	0.971484
N163	N	0.673844	-0.532580	0.400158
N164	N	1.173844	-0.032580	0.900158
N165	N	0.091520	-0.115070	0.482873
N166	N	0.591520	0.384930	0.982873
O167	O	-0.025663	0.047841	0.474857
O168	O	0.474337	0.547841	0.974857
O169	O	0.099940	0.047877	0.382299
O170	O	0.599940	0.547877	0.882299
O171	O	0.020247	0.047844	0.382560
O172	O	0.520247	0.547844	0.882560
O173	O	0.054030	0.047874	0.474596
O174	O	0.554030	0.547874	0.974596
O175	O	0.046674	-0.031326	0.408942
O176	O	0.546674	0.468674	0.908942
O177	O	0.126367	-0.031293	0.408680
O178	O	0.626367	0.468707	0.908680
O179	O	0.000764	-0.031329	0.501238
O180	O	0.500764	0.468671	1.001238
Zn181	Zn	0.067761	-0.043881	0.459148
Zn182	Zn	0.567761	0.456119	0.959148
Zn183	Zn	0.032943	0.060429	0.424389
Zn184	Zn	0.532943	0.560429	0.924389
O185	O	0.080457	-0.031296	0.500977
O186	O	0.580457	0.468704	1.000977
N187	N	0.009178	0.131618	0.400665
N188	N	0.509178	0.631618	0.900665
N189	N	0.091852	-0.450680	0.818332
N190	N	0.591852	0.049320	1.318332
O191	O	0.083862	-0.567845	0.981235
O192	O	0.583862	-0.067845	1.481235
O193	O	-0.008657	-0.442198	0.981276
O194	O	0.491343	0.057802	1.481276
O195	O	-0.008441	-0.521875	0.981252
O196	O	0.491559	-0.021875	1.481252
O197	O	0.083646	-0.488168	0.981258
O198	O	0.583646	0.011832	1.481258
O199	O	0.017919	-0.495468	0.902085
O200	O	0.517919	0.004532	1.402085
O201	O	0.017703	-0.415791	0.902109
O202	O	0.517703	0.084209	1.402109
O203	O	0.110222	-0.541438	0.902067
O204	O	0.610222	-0.041438	1.402067
Zn205	Zn	0.068148	-0.474422	0.889518
Zn206	Zn	0.568148	0.025578	1.389518
Zn207	Zn	0.033417	-0.509214	0.993825
Zn208	Zn	0.533417	-0.009214	1.493825
O209	O	0.110006	-0.461761	0.902091
O210	O	0.610006	0.038239	1.402091
N211	N	0.009712	-0.532961	1.065011
N212	N	0.509712	-0.032961	1.565011
C213	C	0.030439	-0.413071	0.383027
C214	C	0.530439	0.086929	0.883027
C215	C	0.129046	-0.511580	0.382922
C216	C	0.629046	-0.011580	0.882922
C217	C	0.070334	-0.570496	0.500675
C218	C	0.570334	-0.070496	1.000675
C219	C	-0.028274	-0.471987	0.500780
C220	C	0.471726	0.028013	1.000780
C221	C	0.550625	-0.550579	0.520021
C222	C	1.050625	-0.050579	1.020021
C223	C	0.550527	-0.550317	0.421379
C224	C	1.050527	-0.050317	0.921379
C225	C	0.550389	-0.432554	0.362773
C226	C	1.050389	0.067446	0.862773
C227	C	0.550491	-0.432816	0.461414
C228	C	1.050491	0.067184	0.961414
C229	C	0.128944	0.008394	0.382712
C230	C	0.628944	0.508394	0.882712
C231	C	0.030287	0.008256	0.383068
C232	C	0.530287	0.508256	0.883068
C233	C	-0.028273	0.008252	0.500793
C234	C	0.471727	0.508252	1.000793
C235	C	0.070417	0.008292	0.500470
C236	C	0.570417	0.508292	1.000470
C237	C	-0.008218	-0.413165	0.941698
C238	C	0.491782	0.086835	1.441698
C239	C	-0.007945	-0.511830	0.941653
C240	C	0.492055	-0.011830	1.441653
C241	C	0.109783	-0.570471	0.941646
C242	C	0.609783	-0.070471	1.441646
C243	C	0.109516	-0.471800	0.941673
C244	C	0.609516	0.028200	1.441673
H245	H	0.049370	-0.382321	0.724071
H246	H	0.549370	0.117679	1.224071
H247	H	0.023050	0.008252	0.354152
H248	H	0.523050	0.508252	0.854152
C249	C	0.591142	-0.380944	0.438745
C250	C	1.091142	0.119056	0.938745
C251	C	0.550481	-0.393752	0.471147
C252	C	1.050481	0.106248	0.971147
H253	H	0.591137	-0.356830	0.444756
H254	H	1.091137	0.143170	0.944756
H255	H	0.591097	-0.369309	0.407242
H256	H	1.091097	0.130691	0.907242
H257	H	0.618769	-0.408005	0.442267
H258	H	1.118769	0.091995	0.942267
H259	H	0.522854	-0.366691	0.467623
H260	H	1.022854	0.133309	0.967623
H261	H	0.550522	-0.405386	0.502657
H262	H	1.050522	0.094614	1.002657
C263	C	0.509588	-0.353485	0.320278
C264	C	1.009588	0.146515	0.820278
C265	C	0.550310	-0.393330	0.314079
C266	C	1.050310	0.106670	0.814079
H267	H	0.509538	-0.329271	0.290216
H268	H	1.009538	0.170729	0.790216
H269	H	0.509606	-0.341993	0.340272
H270	H	1.009606	0.158007	0.840272
H271	H	0.482002	-0.362168	0.334543
H272	H	0.982002	0.137832	0.834543
H273	H	0.577896	-0.384647	0.299817
H274	H	1.077896	0.115353	0.799817
H275	H	0.550297	-0.404824	0.294078
H276	H	1.050297	0.095176	0.794078
C277	C	0.188856	-0.613022	0.900926
C278	C	0.688856	-0.113022	1.400926
C279	C	0.148998	-0.619183	0.941627
C280	C	0.648998	-0.119183	1.441627
H281	H	0.213064	-0.643096	0.900915
H282	H	0.713064	-0.143096	1.400915
H283	H	0.200344	-0.593024	0.900937
H284	H	0.700344	-0.093024	1.400937
H285	H	0.180191	-0.598775	0.873325
H286	H	0.680191	-0.098775	1.373325
H287	H	0.157663	-0.633426	0.969229
H288	H	0.657663	-0.133426	1.469229
H289	H	0.137509	-0.639189	0.941621
H290	H	0.637509	-0.139189	1.441621
H291	H	0.164941	0.008624	0.353583
H292	H	0.664941	0.508624	0.853583
C293	C	-0.079018	-0.506178	0.215390
C294	C	0.420982	-0.006178	0.715390
C295	C	-0.066906	-0.481281	0.166384
C296	C	0.433094	0.018719	0.666384
H297	H	-0.098476	-0.484184	0.232280
H298	H	0.401524	0.015816	0.732280
H299	H	-0.050872	-0.525636	0.223610
H300	H	0.449128	-0.025636	0.723610
H301	H	-0.095929	-0.525593	0.223517
H302	H	0.404071	-0.025593	0.723517
H303	H	-0.049992	-0.461868	0.158257
H304	H	0.450008	0.038132	0.658257
H305	H	-0.095057	-0.461815	0.158161
H306	H	0.404943	0.038185	0.658161
C307	C	-0.097942	0.048943	0.552762
C308	C	0.402058	0.548943	1.052762
C309	C	-0.076966	0.008242	0.540024
C310	C	0.423034	0.508242	1.040024
H311	H	-0.128002	0.048935	0.576983
H312	H	0.371998	0.548935	1.076983
H313	H	-0.102134	0.076544	0.525715
H314	H	0.397866	0.576544	1.025715
H315	H	-0.077920	0.048948	0.564233
H316	H	0.422080	0.548948	1.064233
H317	H	-0.096986	0.008239	0.528549
H318	H	0.403014	0.508239	1.028549
H319	H	-0.072776	-0.019366	0.567075
H320	H	0.427224	0.480634	1.067075
C321	C	0.126643	0.008301	0.522339
C322	C	0.626643	0.508301	1.022339
C323	C	0.080185	0.008290	0.539510
C324	C	0.580185	0.508290	1.039510
H325	H	0.132673	0.008294	0.546444
H326	H	0.632673	0.508294	1.046444
H327	H	0.130167	0.035913	0.495276
H328	H	0.630167	0.535913	0.995276
H329	H	0.148596	-0.019304	0.513660
H330	H	0.648596	0.480696	1.013660
H331	H	0.058231	0.035896	0.548186
H332	H	0.558231	0.535896	1.048186
H333	H	0.076656	-0.019326	0.566582
H334	H	0.576656	0.480674	1.066582
H335	H	-0.037264	-0.377079	0.941710
H336	H	0.462736	0.122921	1.441710
C337	C	0.131423	-0.415605	0.941677
C338	C	0.631423	0.084395	1.441677
C339	C	0.148575	-0.462065	0.941665
C340	C	0.648575	0.037935	1.441665
H341	H	0.155538	-0.409595	0.941669
H342	H	0.655538	0.090405	1.441669
H343	H	0.104366	-0.412063	0.969289
H344	H	0.604366	0.087937	1.469289
H345	H	0.122741	-0.393646	0.914074
H346	H	0.622741	0.106354	1.414074
H347	H	0.157254	-0.484024	0.969270
H348	H	0.657254	0.015976	1.469270
H349	H	0.175641	-0.465612	0.914050
H350	H	0.675641	0.034388	1.414050
C351	C	-0.057899	-0.559829	0.982279
C352	C	0.442101	-0.059829	1.482279
C353	C	-0.046985	-0.521547	0.941605
C354	C	0.453015	-0.021547	1.441605
H355	H	-0.081998	-0.565830	0.982247
H356	H	0.418002	-0.065830	1.482247
H357	H	-0.068908	-0.552282	1.009896
H358	H	0.431092	-0.052282	1.509896
H359	H	-0.030191	-0.587342	0.982275
H360	H	0.469809	-0.087342	1.482275
H361	H	-0.074691	-0.494034	0.941611
H362	H	0.425309	0.005966	1.441611
H363	H	-0.035976	-0.529093	0.913981
H364	H	0.464024	-0.029093	1.413981
C365	C	-0.019589	-0.380394	0.789210
C366	C	0.480411	0.119606	1.289210
C367	C	0.005362	-0.409055	0.821578
C368	C	0.505362	0.090945	1.321578
H369	H	-0.052830	-0.372228	0.806139
H370	H	0.447170	0.127772	1.306139
H371	H	-0.011436	-0.397295	0.769774
H372	H	0.488564	0.102705	1.269774
H373	H	-0.011429	-0.352215	0.769772
H374	H	0.488571	0.147785	1.269772
H375	H	-0.002796	-0.437236	0.841014
H376	H	0.497204	0.062764	1.341014
H377	H	-0.002795	-0.392154	0.841023
H378	H	0.497205	0.107846	1.341023
H379	H	0.167007	-0.486271	0.814352
H380	H	0.667007	0.013729	1.314352
H381	H	0.077514	-0.606615	0.529644
H382	H	0.577514	-0.106615	1.029644
H383	H	0.023260	-0.376951	0.354059
H384	H	0.523260	0.123049	0.854059
H385	H	0.165136	-0.518689	0.353905
H386	H	0.665136	-0.018689	0.853905
H387	H	0.550674	-0.579628	0.556096
H388	H	1.050674	-0.079628	1.056096
C389	C	0.235970	-0.488190	0.749204
C390	C	0.735970	0.011810	1.249204
C391	C	0.211016	-0.459537	0.716838
C392	C	0.711016	0.040463	1.216838
H393	H	0.269210	-0.496343	0.732274
H394	H	0.769210	0.003657	1.232274
H395	H	0.227821	-0.516371	0.768639
H396	H	0.727821	-0.016371	1.268639
H397	H	0.227806	-0.471282	0.768644
H398	H	0.727806	0.028718	1.268644
H399	H	0.219177	-0.476446	0.697401
H400	H	0.719177	0.023554	1.197401
H401	H	0.219169	-0.431352	0.697395
H402	H	0.719169	0.068648	1.197395
H403	H	-0.064365	-0.464880	0.529794
H404	H	0.435635	0.035120	1.029794
H405	H	0.019058	-0.412426	0.521121
H406	H	0.519058	0.087574	1.021121
C407	C	-0.006519	-0.367083	0.566490
C408	C	0.493481	0.132917	1.066490
C409	C	0.039995	-0.374133	0.559406
C410	C	0.539995	0.125867	1.059406
H411	H	-0.028485	-0.347645	0.585939
H412	H	0.471515	0.152355	1.085939
H413	H	-0.011291	-0.396952	0.581706
H414	H	0.488709	0.103048	1.081706
H415	H	-0.011328	-0.351864	0.536629
H416	H	0.488672	0.148136	1.036629
H417	H	0.044805	-0.389356	0.589266
H418	H	0.544805	0.110644	1.089266
H419	H	0.044769	-0.344258	0.544191
H420	H	0.544769	0.155742	1.044191
C421	C	0.222414	-0.501415	0.431966
C422	C	0.722414	-0.001415	0.931966
C423	C	0.175900	-0.494369	0.439055
C424	C	0.675900	0.005631	0.939055
H425	H	0.244380	-0.520846	0.412511
H426	H	0.744380	-0.020846	0.912511
H427	H	0.227228	-0.516636	0.461821
H428	H	0.727228	-0.016636	0.961821
H429	H	0.227182	-0.471539	0.416752
H430	H	0.727182	0.028461	0.916752
H431	H	0.171131	-0.524245	0.454273
H432	H	0.671131	-0.024245	0.954273
H433	H	0.171084	-0.479149	0.409195
H434	H	0.671084	0.020851	0.909195
H435	H	0.332881	-0.492283	0.542031
H436	H	0.832881	0.007717	1.042031
C437	C	0.222801	-0.417937	0.448970
C438	C	0.722801	0.082063	0.948970
C439	C	0.210796	-0.459488	0.473890
C440	C	0.710796	0.040512	0.973890
H441	H	0.256049	-0.426094	0.440777
H442	H	0.756049	0.073906	0.940777
H443	H	0.205902	-0.398510	0.468420
H444	H	0.705902	0.101490	0.968420
H445	H	0.214599	-0.401031	0.420808
H446	H	0.714599	0.098969	0.920808
H447	H	0.218995	-0.476392	0.502054
H448	H	0.718995	0.023608	1.002054
H449	H	0.227701	-0.478922	0.454440
H450	H	0.727701	0.021078	0.954440
C451	C	0.509817	-0.573196	0.400557
C452	C	1.009817	-0.073196	0.900557
C453	C	0.550540	-0.589384	0.411648
C454	C	1.050540	-0.089384	0.911648
H455	H	0.509824	-0.597316	0.394553
H456	H	1.009824	-0.097316	0.894553
H457	H	0.509776	-0.545489	0.373057
H458	H	1.009776	-0.045489	0.873057
H459	H	0.482232	-0.565812	0.426546
H460	H	0.982232	-0.065812	0.926546
H461	H	0.578125	-0.596765	0.385658
H462	H	1.078125	-0.096765	0.885658
H463	H	0.550585	-0.617100	0.439151
H464	H	1.050585	-0.117100	0.939151
C465	C	0.398005	-0.560847	0.538161
C466	C	0.898005	-0.060847	1.038161
C467	C	0.430383	-0.536250	0.513849
C468	C	0.930383	-0.036250	1.013849
H469	H	0.414925	-0.593839	0.542949
H470	H	0.914925	-0.093839	1.042949
H471	H	0.378549	-0.549162	0.519921
H472	H	0.878549	-0.049162	1.019921
H473	H	0.378589	-0.556228	0.568106
H474	H	0.878589	-0.056228	1.068106
H475	H	0.449797	-0.540867	0.483903
H476	H	0.949797	-0.040867	0.983903
H477	H	0.449847	-0.547939	0.532090
H478	H	0.949847	-0.047939	1.032090
H479	H	0.423225	-0.376108	0.456057
H480	H	0.923225	0.123892	0.956057
H481	H	0.159856	-0.209371	0.440456
H482	H	0.659856	0.290629	0.940456
C483	C	0.358099	-0.307547	0.459927
C484	C	0.858099	0.192453	0.959927
C485	C	0.325718	-0.332139	0.484235
C486	C	0.825718	0.167861	0.984235
H487	H	0.341182	-0.274556	0.455142
H488	H	0.841182	0.225444	0.955142
H489	H	0.377514	-0.312165	0.429985
H490	H	0.877514	0.187835	0.929985
H491	H	0.377556	-0.319238	0.478172
H492	H	0.877556	0.180762	0.978172
H493	H	0.306263	-0.320451	0.465987
H494	H	0.806263	0.179549	0.965987
H495	H	0.306295	-0.327518	0.514181
H496	H	0.806295	0.172482	1.014181
H497	H	0.055974	-0.119015	0.558014
H498	H	0.555974	0.380985	1.058014
C499	C	0.161733	-0.144242	0.371466
C500	C	0.661733	0.355758	0.871466
C501	C	0.133088	-0.111860	0.396397
C502	C	0.633088	0.388140	0.896397
H503	H	0.169872	-0.127323	0.338221
H504	H	0.669872	0.372677	0.838221
H505	H	0.144833	-0.163687	0.379648
H506	H	0.644833	0.336313	0.879648
H507	H	0.189925	-0.163673	0.379615
H508	H	0.689925	0.336327	0.879615
H509	H	0.104895	-0.092432	0.388250
H510	H	0.604895	0.407568	0.888250
H511	H	0.149988	-0.092407	0.388211
H512	H	0.649988	0.407593	0.888211
H513	H	0.086148	-0.209418	0.588113
H514	H	0.586148	0.290582	1.088113
H515	H	0.045284	-0.608113	0.068976
H516	H	0.545284	-0.108113	0.568976
C517	C	-0.060586	-0.421534	0.094158
C518	C	0.439414	0.078466	0.594158
C519	C	-0.031895	-0.446474	0.061783
C520	C	0.468105	0.053526	0.561783
H521	H	-0.068728	-0.388289	0.077235
H522	H	0.431272	0.111711	0.577235
H523	H	-0.043718	-0.429716	0.113639
H524	H	0.456282	0.070284	0.613639
H525	H	-0.088774	-0.429680	0.113551
H526	H	0.411226	0.070320	0.613551
H527	H	-0.003705	-0.438331	0.042392
H528	H	0.496295	0.061669	0.542392
H529	H	-0.048763	-0.438289	0.042294
H530	H	0.451237	0.061711	0.542294
H531	H	-0.058984	-0.490504	0.332300
H532	H	0.441016	0.009496	0.832300
C533	C	0.001564	-0.672748	0.154391
C534	C	0.501564	-0.172748	0.654391
C535	C	0.018441	-0.652154	0.166488
C536	C	0.518441	-0.152154	0.666488
H537	H	0.009693	-0.705992	0.171317
H538	H	0.509693	-0.205992	0.671317
H539	H	0.015602	-0.667510	0.121155
H540	H	0.515602	-0.167510	0.621155
H541	H	-0.032053	-0.658712	0.162504
H542	H	0.467947	-0.158712	0.662504
H543	H	0.052059	-0.666188	0.158372
H544	H	0.552059	-0.166188	0.658372
H545	H	0.004404	-0.657395	0.199732
H546	H	0.504404	-0.157395	0.699732
C547	C	-0.015327	-0.425874	0.309543
C548	C	0.484673	0.074126	0.809543
C549	C	-0.032308	-0.446458	0.359102
C550	C	0.467692	0.053542	0.859102
H551	H	-0.023457	-0.392631	0.301363
H552	H	0.476543	0.107369	0.801363
H553	H	-0.029299	-0.431105	0.295509
H554	H	0.470701	0.068895	0.795509
H555	H	0.018293	-0.439922	0.298150
H556	H	0.518293	0.060078	0.798150
H557	H	-0.065929	-0.432412	0.370496
H558	H	0.434071	0.067588	0.870496
H559	H	-0.018338	-0.441223	0.373142
H560	H	0.481662	0.058777	0.873142
C561	C	0.059930	-0.663825	0.451731
C562	C	0.559930	-0.163825	0.951731
C563	C	0.052892	-0.617322	0.444677
C564	C	0.552892	-0.117322	0.944677
H565	H	0.079328	-0.685814	0.471218
H566	H	0.579328	-0.185814	0.971218
H567	H	0.075180	-0.668625	0.421868
H568	H	0.575180	-0.168625	0.921868
H569	H	0.030051	-0.668574	0.466897
H570	H	0.530051	-0.168574	0.966897
H571	H	0.082771	-0.612572	0.429507
H572	H	0.582771	-0.112572	0.929507
H573	H	0.037642	-0.612520	0.474544
H574	H	0.537642	-0.112520	0.974544
H575	H	0.050956	-0.774133	0.341399
H576	H	0.550956	-0.274133	0.841399
C577	C	-0.002502	-0.659854	0.388993
C578	C	0.497498	-0.159854	0.888993
C579	C	0.018086	-0.652138	0.409688
C580	C	0.518086	-0.152138	0.909688
H581	H	0.005649	-0.693099	0.397167
H582	H	0.505649	-0.193099	0.897167
H583	H	0.009004	-0.645874	0.355377
H584	H	0.509004	-0.145874	0.855377
H585	H	-0.036124	-0.645827	0.400407
H586	H	0.463876	-0.145827	0.900407
H587	H	0.051708	-0.666161	0.398272
H588	H	0.551708	-0.166161	0.898272
H589	H	0.006582	-0.666124	0.443311
H590	H	0.506582	-0.166124	0.943311
C591	C	0.120528	-0.859637	0.320747
C592	C	0.620528	-0.359637	0.820747
C593	C	0.094870	-0.871649	0.369580
C594	C	0.594870	-0.371649	0.869580
H595	H	0.153509	-0.876578	0.316001
H596	H	0.653509	-0.376578	0.816001
H597	H	0.115242	-0.826402	0.307466
H598	H	0.615242	-0.326402	0.807466
H599	H	0.110239	-0.867793	0.305657
H600	H	0.610239	-0.367793	0.805657
H601	H	0.105157	-0.863490	0.384669
H602	H	0.605157	-0.363490	0.884669
H603	H	0.100159	-0.904891	0.382867
H604	H	0.600159	-0.404891	0.882867
C605	C	-0.120546	-0.839050	0.436490
C606	C	0.379454	-0.339050	0.936490
C607	C	-0.074385	-0.871478	0.433859
C608	C	0.425615	-0.371478	0.933859
H609	H	-0.142278	-0.855933	0.452527
H610	H	0.357722	-0.355933	0.952527
H611	H	-0.121772	-0.819621	0.405258
H612	H	0.378228	-0.319621	0.905258
H613	H	-0.128895	-0.819608	0.453476
H614	H	0.371105	-0.319608	0.953476
H615	H	-0.066035	-0.890917	0.416869
H616	H	0.433965	-0.390917	0.916869
H617	H	-0.073157	-0.890914	0.465097
H618	H	0.426843	-0.390914	0.965097
H619	H	-0.095331	-0.773979	0.396956
H620	H	0.404669	-0.273979	0.896956
H621	H	-0.231954	-0.601008	0.442726
H622	H	0.268046	-0.101008	0.942726
H623	H	-0.322118	-0.496994	0.324987
H624	H	0.177882	0.003006	0.824987
C625	C	-0.317481	-0.623758	0.507303
C626	C	0.182519	-0.123758	1.007303
C627	C	-0.329478	-0.574200	0.486669
C628	C	0.170522	-0.074200	0.986669
H629	H	-0.334439	-0.631906	0.540539
H630	H	0.165561	-0.131906	1.040539
H631	H	-0.284253	-0.637781	0.502106
H632	H	0.215747	-0.137781	1.002106
H633	H	-0.325625	-0.635197	0.493264
H634	H	0.174375	-0.135197	0.993264
H635	H	-0.321331	-0.562762	0.500706
H636	H	0.178669	-0.062762	1.000706
H637	H	-0.362714	-0.560172	0.491869
H638	H	0.137286	-0.060172	0.991869
C639	C	-0.256937	-0.495116	0.256058
C640	C	0.243063	0.004884	0.756058
C641	C	-0.224601	-0.523797	0.281044
C642	C	0.275399	-0.023797	0.781044
H643	H	-0.239986	-0.486970	0.222821
H644	H	0.260014	0.013030	0.722821
H645	H	-0.276370	-0.466932	0.264212
H646	H	0.223630	0.033068	0.764212
H647	H	-0.276381	-0.511999	0.264191
H648	H	0.223619	-0.011999	0.764191
H649	H	-0.205159	-0.506912	0.272914
H650	H	0.294841	-0.006912	0.772914
H651	H	-0.205159	-0.551986	0.272887
H652	H	0.294841	-0.051986	0.772887
