data_functionalizedCrystal
_audit_creation_method	'MofGen! by Chris Wilmer'
_symmetry_space_group_name_H-M	'P1'
_symmetry_Int_Tables_number	1
_symmetry_cell_setting	triclinic
loop_
_symmetry_equiv_pos_as_xyz
  x,y,z
_cell_length_a	29.917948
_cell_length_b	29.917021
_cell_length_c	29.913391
_cell_angle_alpha	60.005297
_cell_angle_beta	60.010472
_cell_angle_gamma	59.993667
loop_
_atom_site_label
_atom_site_type_symbol
_atom_site_fract_x
_atom_site_fract_y
_atom_site_fract_z
O1	O	0.061938	-0.653075	0.546110
O2	O	0.561938	-0.153075	1.046110
O3	O	0.023328	-0.508466	0.440017
O4	O	0.523328	-0.008466	0.940017
O5	O	0.114898	-0.599963	0.439941
O6	O	0.614898	-0.099963	0.939941
O7	O	-0.029633	-0.561578	0.546186
O8	O	0.470367	-0.061578	1.046186
O9	O	0.145278	-0.569587	0.470242
O10	O	0.645278	-0.069587	0.970242
O11	O	0.053708	-0.478090	0.470318
O12	O	0.553708	0.021910	0.970318
O13	O	0.092318	-0.622699	0.576411
O14	O	0.592318	-0.122699	1.076411
Zn15	Zn	0.077836	-0.545572	0.528175
Zn16	Zn	0.577836	-0.045572	1.028175
Zn17	Zn	0.037809	-0.585593	0.488253
Zn18	Zn	0.537809	-0.085593	0.988253
O19	O	0.000747	-0.531202	0.576487
O20	O	0.500747	-0.031202	1.076487
N21	N	0.105154	-0.518262	0.555424
N22	N	0.605154	-0.018262	1.055424
N23	N	0.010496	-0.612908	0.461004
N24	N	0.510496	-0.112908	0.961004
C25	C	0.164136	-0.309209	0.614352
C26	C	0.664136	0.190791	1.114352
C27	C	0.164251	-0.459335	0.764424
C28	C	0.664251	0.040665	1.264424
C29	C	0.164150	-0.459313	0.614341
C30	C	0.664150	0.040687	1.114341
C31	C	0.314282	-0.459305	0.614278
C32	C	0.814282	0.040695	1.114278
C33	C	0.180666	-0.358742	0.630849
C34	C	0.680666	0.141258	1.130849
C35	C	0.180732	-0.442815	0.714891
C36	C	0.680732	0.057185	1.214891
C37	C	0.264747	-0.442797	0.630809
C38	C	0.764747	0.057203	1.130809
C39	C	0.180676	-0.442802	0.630843
C40	C	0.680676	0.057198	1.130843
C41	C	0.143097	-0.246161	0.593354
C42	C	0.643097	0.253839	1.093354
C43	C	0.143120	-0.480326	0.593337
C44	C	0.643120	0.019674	1.093337
C45	C	0.201706	-0.421790	0.651848
C46	C	0.701706	0.078210	1.151848
C47	C	0.405963	-0.443499	0.565998
C48	C	0.905963	0.056501	1.065998
C49	C	0.463273	-0.462598	0.546874
C50	C	0.963273	0.037402	1.046874
C51	C	0.463297	-0.555329	0.582235
C52	C	0.963297	-0.055329	1.082235
C53	C	0.405988	-0.536228	0.601360
C54	C	0.905988	-0.036228	1.101360
C55	C	0.156905	-0.217495	0.537012
C56	C	0.656905	0.282505	1.037012
C57	C	0.137776	-0.160180	0.517926
C58	C	0.637776	0.339820	1.017926
C59	C	0.091035	-0.160201	0.611524
C60	C	0.591035	0.339799	1.111524
C61	C	0.110164	-0.217516	0.630611
C62	C	0.610164	0.282484	1.130611
C63	C	0.086772	-0.466488	0.607209
C64	C	0.586772	0.033512	1.107209
C65	C	0.067659	-0.485590	0.588108
C66	C	0.567659	0.014410	1.088108
C67	C	0.161236	-0.532368	0.541277
C68	C	0.661236	-0.032368	1.041277
C69	C	0.180352	-0.513266	0.560371
C70	C	0.680352	-0.013266	1.060371
C71	C	0.086942	-0.466529	0.856152
C72	C	0.586942	0.033471	1.356152
C73	C	0.067877	-0.485647	0.913465
C74	C	0.567877	0.014353	1.413465
C75	C	0.161489	-0.532436	0.913415
C76	C	0.661489	-0.032436	1.413415
C77	C	0.180552	-0.513318	0.856101
C78	C	0.680552	-0.013318	1.356101
C79	C	0.143277	-0.480363	0.827471
C80	C	0.643277	0.019637	1.327471
C81	C	0.377323	-0.480313	0.593239
C82	C	0.877323	0.019687	1.093239
C83	C	-0.111377	-0.650681	0.422736
C84	C	0.388623	-0.150681	0.922736
C85	C	-0.027364	-0.650787	0.422929
C86	C	0.472636	-0.150787	0.922929
C87	C	-0.048335	-0.671770	0.401835
C88	C	0.451665	-0.171770	0.901835
C89	C	-0.064214	-0.763416	0.450041
C90	C	0.435786	-0.263416	0.950041
C91	C	-0.045160	-0.820731	0.469172
C92	C	0.454840	-0.320731	0.969172
C93	C	0.047573	-0.820841	0.433980
C94	C	0.547573	-0.320841	0.933980
C95	C	0.028517	-0.763527	0.414847
C96	C	0.528517	-0.263527	0.914847
C97	C	-0.140115	-0.664483	0.479060
C98	C	0.359885	-0.164483	0.979060
C99	C	-0.197425	-0.645309	0.498058
C100	C	0.302575	-0.145309	0.998058
C101	C	-0.197256	-0.598535	0.404405
C102	C	0.302744	-0.098535	0.904405
C103	C	-0.139946	-0.617709	0.385407
C104	C	0.360054	-0.117709	0.885407
C105	C	-0.041168	-0.594444	0.409067
C106	C	0.458832	-0.094444	0.909067
C107	C	-0.022104	-0.575374	0.428250
C108	C	0.477896	-0.075374	0.928250
C109	C	0.024568	-0.668986	0.475143
C110	C	0.524568	-0.168986	0.975143
C111	C	0.005504	-0.688059	0.455967
C112	C	0.505504	-0.188059	0.955967
C113	C	-0.041000	-0.594453	0.310105
C114	C	0.459000	-0.094453	0.810105
C115	C	-0.021803	-0.575386	0.252792
C116	C	0.478197	-0.075386	0.752792
C117	C	0.024951	-0.669004	0.252854
C118	C	0.524951	-0.169004	0.752854
C119	C	0.005755	-0.688070	0.310168
C120	C	0.505755	-0.188070	0.810168
C121	C	-0.027222	-0.650793	0.338792
C122	C	0.472778	-0.150793	0.838792
C123	C	-0.027377	-0.734817	0.422881
C124	C	0.472623	-0.234817	0.922881
N125	N	0.491125	-0.518235	0.555255
N126	N	0.991125	-0.018235	1.055255
O127	O	0.678406	-0.527360	0.420422
O128	O	1.178406	-0.027360	0.920422
O129	O	0.678588	-0.633782	0.564887
O130	O	1.178588	-0.133782	1.064887
O131	O	0.678516	-0.633539	0.473265
O132	O	1.178516	-0.133539	0.973265
O133	O	0.678478	-0.527602	0.512044
O134	O	1.178478	-0.027602	1.012044
O135	O	0.587469	-0.603251	0.503685
O136	O	1.087469	-0.103251	1.003685
O137	O	0.587541	-0.603493	0.595307
O138	O	1.087541	-0.103493	1.095307
O139	O	0.587359	-0.497071	0.450842
O140	O	1.087359	0.002929	0.950842
Zn141	Zn	0.572994	-0.545473	0.527905
Zn142	Zn	1.072994	-0.045473	1.027905
Zn143	Zn	0.692953	-0.585380	0.487825
Zn144	Zn	1.192953	-0.085380	0.987825
O145	O	0.587431	-0.497313	0.542465
O146	O	1.087431	0.002687	1.042465
N147	N	0.774821	-0.612618	0.460470
N148	N	1.274821	-0.112618	0.960470
N149	N	0.105125	-0.132348	0.555445
N150	N	0.605125	0.367652	1.055445
O151	O	-0.029633	0.055031	0.546198
O152	O	0.470367	0.555031	1.046198
O153	O	0.114837	0.055047	0.439777
O154	O	0.614837	0.555047	0.939777
O155	O	0.023189	0.055024	0.440050
O156	O	0.523189	0.555024	0.940050
O157	O	0.062016	0.055054	0.545925
O158	O	0.562016	0.555054	1.045925
O159	O	0.053572	-0.036031	0.470398
O160	O	0.553572	0.463969	0.970398
O161	O	0.145220	-0.036008	0.470125
O162	O	0.645220	0.463992	0.970125
O163	O	0.000750	-0.036024	0.576546
O164	O	0.500750	0.463976	1.076546
Zn165	Zn	0.077809	-0.050473	0.528154
Zn166	Zn	0.577809	0.449527	1.028154
Zn167	Zn	0.037778	0.069496	0.488169
Zn168	Zn	0.537778	0.569496	0.988169
O169	O	0.092399	-0.036001	0.576273
O170	O	0.592399	0.463999	1.076273
N171	N	0.010456	0.151371	0.460879
N172	N	0.510456	0.651371	0.960879
N173	N	0.105414	-0.518315	0.941279
N174	N	0.605414	-0.018315	1.441279
O175	O	0.096182	-0.653057	1.128644
O176	O	0.596182	-0.153057	1.628644
O177	O	-0.010215	-0.508539	1.128670
O178	O	0.489785	-0.008539	1.628670
O179	O	-0.009968	-0.600172	1.128636
O180	O	0.490032	-0.100172	1.628636
O181	O	0.095935	-0.561424	1.128678
O182	O	0.595935	-0.061424	1.628678
O183	O	0.020367	-0.569808	1.037586
O184	O	0.520367	-0.069808	1.537586
O185	O	0.020121	-0.478175	1.037620
O186	O	0.520121	0.021825	1.537620
O187	O	0.126517	-0.622693	1.037594
O188	O	0.626517	-0.122693	1.537594
Zn189	Zn	0.078135	-0.545613	1.023151
Zn190	Zn	0.578135	-0.045613	1.523151
Zn191	Zn	0.038167	-0.585619	1.143113
Zn192	Zn	0.538167	-0.085619	1.643113
O193	O	0.126270	-0.531061	1.037628
O194	O	0.626270	-0.031061	1.537628
N195	N	0.010887	-0.612923	1.224985
N196	N	0.510887	-0.112923	1.724985
C197	C	0.034899	-0.475056	0.440551
C198	C	0.534899	0.024944	0.940551
C199	C	0.148298	-0.588365	0.440456
C200	C	0.648298	-0.088365	0.940456
C201	C	0.080746	-0.656109	0.575876
C202	C	0.580746	-0.156109	1.075876
C203	C	-0.032653	-0.542801	0.575971
C204	C	0.467347	-0.042801	1.075971
C205	C	0.633086	-0.633292	0.598298
C206	C	1.133086	-0.133292	1.098298
C207	C	0.632998	-0.632993	0.484834
C208	C	1.132998	-0.132993	0.984834
C209	C	0.632857	-0.497559	0.417433
C210	C	1.132857	0.002441	0.917433
C211	C	0.632949	-0.497860	0.530895
C212	C	1.132949	0.002140	1.030895
C213	C	0.148191	0.009634	0.440259
C214	C	0.648191	0.509634	0.940259
C215	C	0.034733	0.009493	0.440634
C216	C	0.534733	0.509493	0.940634
C217	C	-0.032641	0.009502	0.576027
C218	C	0.467359	0.509502	1.076027
C219	C	0.080854	0.009529	0.575690
C220	C	0.580854	0.509529	1.075690
C221	C	-0.009699	-0.475150	1.083148
C222	C	0.490301	0.024850	1.583148
C223	C	-0.009388	-0.588620	1.083088
C224	C	0.490612	-0.088620	1.583088
C225	C	0.126001	-0.656082	1.083116
C226	C	0.626001	-0.156082	1.583116
C227	C	0.125697	-0.542605	1.083155
C228	C	0.625697	-0.042605	1.583155
H229	H	0.022003	-0.474373	0.936811
H230	H	0.522003	0.025627	1.436811
H231	H	0.632798	-0.464146	0.375944
H232	H	1.132798	0.035854	0.875944
H233	H	0.026418	0.009490	0.407371
H234	H	0.526418	0.509490	0.907371
H235	H	0.056452	-0.439666	0.634048
H236	H	0.556452	0.060334	1.134048
O237	O	0.197816	-0.598210	0.400669
O238	O	0.697816	-0.098210	0.900669
C239	C	0.207599	-0.642507	0.388018
C240	C	0.707599	-0.142507	0.888018
H241	H	0.182016	-0.668810	0.424221
H242	H	0.682016	-0.168810	0.924221
H243	H	0.195835	-0.626240	0.350468
H244	H	0.695835	-0.126240	0.850468
C245	C	0.300155	-0.645032	0.331553
C246	C	0.800155	-0.145032	0.831553
C247	C	0.268737	-0.677341	0.376020
C248	C	0.768737	-0.177341	0.876020
H249	H	0.337868	-0.666518	0.324149
H250	H	0.837868	-0.166518	0.824149
H251	H	0.293564	-0.615187	0.340074
H252	H	0.793564	-0.115187	0.840074
H253	H	0.290345	-0.631478	0.300267
H254	H	0.790345	-0.131478	0.800267
H255	H	0.278542	-0.690888	0.407306
H256	H	0.778542	-0.190888	0.907306
H257	H	0.275331	-0.707189	0.367503
H258	H	0.775331	-0.207189	0.867503
O259	O	0.632910	-0.458208	0.540889
O260	O	1.132910	0.041792	1.040889
C261	C	0.632982	-0.478158	0.594688
C262	C	1.132982	0.021842	1.094688
H263	H	0.615785	-0.513322	0.620593
H264	H	1.115785	-0.013322	1.120593
H265	H	0.676674	-0.493404	0.593849
H266	H	1.176674	0.006596	1.093849
C267	C	0.618388	-0.388667	0.587780
C268	C	1.118388	0.111333	1.087780
C269	C	0.597263	-0.431853	0.619598
C270	C	1.097263	0.068147	1.119598
H271	H	0.596358	-0.360103	0.603145
H272	H	1.096358	0.139897	1.103145
H273	H	0.618342	-0.375226	0.551533
H274	H	1.118342	0.124774	1.051533
H275	H	0.654798	-0.401379	0.587083
H276	H	1.154798	0.098621	1.087083
H277	H	0.560857	-0.419142	0.620288
H278	H	1.060857	0.080858	1.120288
H279	H	0.597302	-0.445290	0.655845
H280	H	1.097302	0.054710	1.155845
H281	H	0.089168	0.009538	0.608950
H282	H	0.589168	0.509538	1.108950
O283	O	0.633125	-0.673206	0.647771
O284	O	1.133125	-0.173206	1.147771
C285	C	0.633171	-0.720344	0.647744
C286	C	1.133171	-0.220344	1.147744
H287	H	0.615900	-0.708214	0.615342
H288	H	1.115900	-0.208214	1.115342
H289	H	0.676865	-0.750079	0.638149
H290	H	1.176865	-0.250079	1.138149
C291	C	0.618740	-0.762951	0.744241
C292	C	1.118740	-0.262951	1.244241
C293	C	0.597523	-0.748052	0.704448
C294	C	1.097523	-0.248052	1.204448
H295	H	0.596753	-0.780045	0.779219
H296	H	1.096753	-0.280045	1.279219
H297	H	0.618711	-0.731195	0.744259
H298	H	1.118711	-0.231195	1.244259
H299	H	0.655151	-0.787728	0.736238
H300	H	1.155151	-0.287728	1.236238
H301	H	0.561115	-0.723271	0.712447
H302	H	1.061115	-0.223271	1.212447
H303	H	0.597545	-0.779805	0.704432
H304	H	1.097545	-0.279805	1.204432
O305	O	0.012927	-0.472086	0.601487
O306	O	0.512927	0.027914	1.101487
C307	C	-0.000961	-0.443233	0.553349
C308	C	0.499039	0.056767	1.053349
H309	H	0.031328	-0.423829	0.518911
H310	H	0.531328	0.076171	1.018911
H311	H	-0.002871	-0.472698	0.541283
H312	H	0.497129	0.027302	1.041283
C313	C	-0.096828	-0.421957	0.605880
C314	C	0.403172	0.078043	1.105880
C315	C	-0.057172	-0.398120	0.563584
C316	C	0.442828	0.101880	1.063584
H317	H	-0.131502	-0.394130	0.612193
H318	H	0.368498	0.105870	1.112193
H319	H	-0.087472	-0.441397	0.638312
H320	H	0.412528	0.058603	1.138312
H321	H	-0.098413	-0.446510	0.595820
H322	H	0.401587	0.053490	1.095820
H323	H	-0.055583	-0.373572	0.573647
H324	H	0.444417	0.126428	1.073647
H325	H	-0.066529	-0.378674	0.531154
H326	H	0.433471	0.121326	1.031154
H327	H	0.088995	-0.697649	0.609197
H328	H	0.588995	-0.197649	1.109197
O329	O	0.197606	0.009968	0.400350
O330	O	0.697606	0.509968	0.900350
C331	C	0.231661	0.010070	0.420011
C332	C	0.731661	0.510070	0.920011
H333	H	0.205330	0.027129	0.455282
H334	H	0.705330	0.527129	0.955282
H335	H	0.259516	-0.033554	0.435018
H336	H	0.759516	0.466446	0.935018
C337	C	0.299141	0.025114	0.330253
C338	C	0.799141	0.525114	0.830253
C339	C	0.266801	0.046071	0.373570
C340	C	0.766801	0.546071	0.873570
H341	H	0.320819	0.047319	0.301606
H342	H	0.820819	0.547319	0.801606
H343	H	0.276199	0.025044	0.317007
H344	H	0.776199	0.525044	0.817007
H345	H	0.322349	-0.011239	0.342766
H346	H	0.822349	0.488761	0.842766
H347	H	0.243589	0.082421	0.361058
H348	H	0.743589	0.582421	0.861058
H349	H	0.289740	0.046149	0.386813
H350	H	0.789740	0.546149	0.886813
O351	O	-0.048996	-0.598571	1.083003
O352	O	0.451004	-0.098571	1.583003
C353	C	-0.029054	-0.652388	1.082987
C354	C	0.470946	-0.152388	1.582987
H355	H	0.017577	-0.666808	1.065781
H356	H	0.517577	-0.166808	1.565781
H357	H	-0.042918	-0.680716	1.126655
H358	H	0.457082	-0.180716	1.626655
C359	C	-0.108808	-0.635718	1.068355
C360	C	0.391192	-0.135718	1.568355
C361	C	-0.051535	-0.653427	1.047218
C362	C	0.448465	-0.153427	1.547218
H363	H	-0.122676	-0.636360	1.046294
H364	H	0.377324	-0.136360	1.546294
H365	H	-0.122244	-0.599461	1.068368
H366	H	0.377756	-0.099461	1.568368
H367	H	-0.120354	-0.659327	1.104745
H368	H	0.379646	-0.159327	1.604745
H369	H	-0.039990	-0.629814	1.010832
H370	H	0.460010	-0.129814	1.510832
H371	H	-0.038097	-0.689680	1.047199
H372	H	0.461903	-0.189680	1.547199
H373	H	-0.116855	-0.691337	0.509456
H374	H	0.383145	-0.191337	1.009456
O375	O	0.165787	-0.705634	1.083129
O376	O	0.665787	-0.205634	1.583129
C377	C	0.146088	-0.739694	1.083095
C378	C	0.646088	-0.239694	1.583095
H379	H	0.099456	-0.724864	1.100332
H380	H	0.599456	-0.224864	1.600332
H381	H	0.159998	-0.738206	1.039407
H382	H	0.659998	-0.238206	1.539407
C383	C	0.226044	-0.817157	1.097617
C384	C	0.726044	-0.317157	1.597617
C385	C	0.168770	-0.798945	1.118793
C386	C	0.668770	-0.298945	1.618793
H387	H	0.240037	-0.853707	1.119635
H388	H	0.740037	-0.353707	1.619635
H389	H	0.239317	-0.794211	1.097638
H390	H	0.739317	-0.294211	1.597638
H391	H	0.237628	-0.815913	1.061211
H392	H	0.737628	-0.315913	1.561211
H393	H	0.157187	-0.800184	1.155195
H394	H	0.657187	-0.300184	1.655195
H395	H	0.155496	-0.821894	1.118778
H396	H	0.655496	-0.321894	1.618778
H397	H	-0.074131	0.009496	0.609437
H398	H	0.425869	0.509496	1.109437
O399	O	-0.049500	-0.425613	1.083180
O400	O	0.450500	0.074387	1.583180
C401	C	-0.029790	-0.391543	1.083183
C402	C	0.470210	0.108457	1.583183
H403	H	0.005356	-0.417872	1.100423
H404	H	0.505356	0.082128	1.600423
H405	H	-0.014595	-0.363893	1.039506
H406	H	0.485405	0.136107	1.539506
C407	C	-0.119428	-0.323772	1.097723
C408	C	0.380572	0.176228	1.597723
C409	C	-0.076265	-0.356110	1.118902
C410	C	0.423735	0.143890	1.618902
H411	H	-0.148096	-0.301914	1.119754
H412	H	0.351904	0.198086	1.619754
H413	H	-0.132707	-0.346725	1.097719
H414	H	0.367293	0.153275	1.597719
H415	H	-0.106759	-0.300736	1.061326
H416	H	0.393241	0.199264	1.561326
H417	H	-0.088933	-0.379151	1.155296
H418	H	0.411067	0.120849	1.655296
H419	H	-0.062989	-0.333161	1.118913
H420	H	0.437011	0.166839	1.618913
H421	H	-0.074166	-0.534620	0.609333
H422	H	0.425834	-0.034620	1.109333
H423	H	0.633014	-0.666272	0.476534
H424	H	1.133014	-0.166272	0.976534
H425	H	0.158967	-0.534314	1.083161
H426	H	0.658967	-0.034314	1.583161
H427	H	0.056584	-0.439691	0.832846
H428	H	0.556584	0.060309	1.332846
H429	H	0.226428	-0.524588	0.832752
H430	H	0.726428	-0.024588	1.332752
O431	O	0.197772	-0.564459	0.941142
O432	O	0.697772	-0.064459	1.441142
C433	C	0.251584	-0.572559	0.903537
C434	C	0.751584	-0.072559	1.403537
H435	H	0.251453	-0.566142	0.862687
H436	H	0.751453	-0.066142	1.362687
H437	H	0.268002	-0.542057	0.897443
H438	H	0.768002	-0.042057	1.397443
C439	C	0.288527	-0.639161	0.976048
C440	C	0.788527	-0.139161	1.476048
C441	C	0.288366	-0.631284	0.925876
C442	C	0.788366	-0.131284	1.425876
H443	H	0.311217	-0.675384	0.989828
H444	H	0.811217	-0.175384	1.489828
H445	H	0.252273	-0.633702	1.001383
H446	H	0.752273	-0.133702	1.501383
H447	H	0.302207	-0.613738	0.970962
H448	H	0.802207	-0.113738	1.470962
H449	H	0.274680	-0.656701	0.930964
H450	H	0.774680	-0.156701	1.430964
H451	H	0.324619	-0.636748	0.900542
H452	H	0.824619	-0.136748	1.400542
H453	H	0.191560	-0.559196	0.514439
H454	H	0.691560	-0.059196	1.014439
H455	H	0.226235	-0.524529	0.549071
H456	H	0.726235	-0.024529	1.049071
H457	H	0.486634	-0.600858	0.588843
H458	H	0.986634	-0.100858	1.088843
O459	O	0.378198	-0.572004	0.627732
O460	O	0.878198	-0.072004	1.127732
C461	C	0.392201	-0.598847	0.592655
C462	C	0.892201	-0.098847	1.092655
H463	H	0.407925	-0.572744	0.548289
H464	H	0.907925	-0.072744	1.048289
H465	H	0.425487	-0.640205	0.601878
H466	H	0.925487	-0.140205	1.101878
C467	C	0.321982	-0.639625	0.656305
C468	C	0.821982	-0.139625	1.156305
C469	C	0.341290	-0.607561	0.601813
C470	C	0.841290	-0.107561	1.101813
H471	H	0.290579	-0.645003	0.661955
H472	H	0.790579	-0.145003	1.161955
H473	H	0.312549	-0.621542	0.679938
H474	H	0.812549	-0.121542	1.179938
H475	H	0.349725	-0.674086	0.663984
H476	H	0.849725	-0.174086	1.163984
H477	H	0.313549	-0.573099	0.594137
H478	H	0.813549	-0.073099	1.094137
H479	H	0.350717	-0.625639	0.578179
H480	H	0.850717	-0.125639	1.078179
O481	O	0.491073	-0.426803	0.520327
O482	O	0.991073	0.073197	1.020327
C483	C	0.477024	-0.387888	0.473094
C484	C	0.977024	0.112112	0.973094
H485	H	0.461254	-0.405548	0.459936
H486	H	0.961254	0.094452	0.959936
H487	H	0.443759	-0.349253	0.482474
H488	H	0.943759	0.150747	0.982474
C489	C	0.547283	-0.352022	0.442767
C490	C	1.047283	0.147978	0.942767
C491	C	0.527919	-0.373714	0.426603
C492	C	1.027919	0.126286	0.926603
H493	H	0.578677	-0.343276	0.414090
H494	H	1.078677	0.156724	0.914090
H495	H	0.556748	-0.378238	0.474590
H496	H	1.056748	0.121762	0.974590
H497	H	0.519558	-0.319829	0.450584
H498	H	1.019558	0.180171	0.950584
H499	H	0.555642	-0.405910	0.418794
H500	H	1.055642	0.094090	0.918794
H501	H	0.518460	-0.347502	0.394778
H502	H	1.018460	0.152498	0.894778
O503	O	0.378031	-0.389196	0.558137
O504	O	0.878031	0.110804	1.058137
C505	C	0.321305	-0.380229	0.580868
C506	C	0.821305	0.119771	1.080868
H507	H	0.313478	-0.415259	0.583629
H508	H	0.813478	0.084741	1.083629
H509	H	0.305065	-0.378202	0.623582
H510	H	0.805065	0.121798	1.123582
C511	C	0.301468	-0.282827	0.540877
C512	C	0.801468	0.217173	1.040877
C513	C	0.291854	-0.325849	0.544264
C514	C	0.791854	0.174151	1.044264
H515	H	0.283300	-0.249282	0.518300
H516	H	0.783300	0.250718	1.018300
H517	H	0.339685	-0.288868	0.525564
H518	H	0.839685	0.211132	1.025564
H519	H	0.287934	-0.281145	0.576474
H520	H	0.787934	0.218855	1.076474
H521	H	0.305394	-0.327535	0.508668
H522	H	0.805394	0.172465	1.008668
H523	H	0.253638	-0.319808	0.559569
H524	H	0.753638	0.180192	1.059569
O525	O	0.188813	-0.245294	0.500798
O526	O	0.688813	0.254706	1.000798
C527	C	0.159849	-0.231277	0.467675
C528	C	0.659849	0.268723	0.967675
H529	H	0.114003	-0.215532	0.489825
H530	H	0.614003	0.284468	0.989825
H531	H	0.172022	-0.198000	0.427410
H532	H	0.672022	0.302000	0.927410
C533	C	0.230007	-0.301526	0.428758
C534	C	0.730007	0.198474	0.928758
C535	C	0.173698	-0.282192	0.455965
C536	C	0.673698	0.217808	0.955965
H537	H	0.238551	-0.332931	0.421532
H538	H	0.738551	0.167069	0.921532
H539	H	0.249522	-0.310968	0.451072
H540	H	0.749522	0.189032	0.951072
H541	H	0.240144	-0.273790	0.395206
H542	H	0.740144	0.226210	0.895206
H543	H	0.163563	-0.309925	0.489519
H544	H	0.663563	0.190075	0.989519
H545	H	0.154182	-0.272756	0.433656
H546	H	0.654182	0.227244	0.933656
O547	O	0.151117	-0.132244	0.463211
O548	O	0.651117	0.367756	0.963211
C549	C	0.127183	-0.075514	0.454353
C550	C	0.627183	0.424486	0.954353
H551	H	0.090409	-0.067698	0.491972
H552	H	0.590409	0.432302	0.991972
H553	H	0.158532	-0.059244	0.446704
H554	H	0.658532	0.440756	0.946704
C555	C	0.153532	-0.055682	0.357986
C556	C	0.653532	0.444318	0.857986
C557	C	0.108363	-0.046082	0.404190
C558	C	0.608363	0.453918	0.904190
H559	H	0.141925	-0.037526	0.327042
H560	H	0.641925	0.462474	0.827042
H561	H	0.169659	-0.093902	0.363954
H562	H	0.669659	0.406098	0.863954
H563	H	0.179653	-0.042123	0.351619
H564	H	0.679653	0.457877	0.851619
H565	H	0.082247	-0.059647	0.410560
H566	H	0.582247	0.440353	0.910560
H567	H	0.092231	-0.007863	0.398222
H568	H	0.592231	0.492137	0.898222
O569	O	0.059035	-0.132457	0.647789
O570	O	0.559035	0.367543	1.147789
C571	C	0.050969	-0.170051	0.701612
C572	C	0.550969	0.329949	1.201612
H573	H	0.057377	-0.210907	0.701508
H574	H	0.557377	0.289093	1.201508
H575	H	0.081493	-0.176143	0.718010
H576	H	0.581493	0.323857	1.218010
C577	C	-0.015601	-0.097518	0.738525
C578	C	0.484399	0.402482	1.238525
C579	C	-0.007735	-0.147697	0.738397
C580	C	0.492265	0.352303	1.238397
H581	H	-0.051812	-0.083729	0.761216
H582	H	0.448188	0.416271	1.261216
H583	H	-0.010166	-0.072190	0.702263
H584	H	0.489834	0.427810	1.202263
H585	H	0.009839	-0.102602	0.752188
H586	H	0.509839	0.397398	1.252188
H587	H	-0.033171	-0.142611	0.724727
H588	H	0.466829	0.357389	1.224727
H589	H	-0.013177	-0.173024	0.774657
H590	H	0.486823	0.326976	1.274657
H591	H	-0.033030	-0.529506	0.229442
H592	H	0.466970	-0.029506	0.729442
O593	O	0.096816	-0.245445	0.685323
O594	O	0.596816	0.254555	1.185323
C595	C	0.120788	-0.302176	0.694185
C596	C	0.620788	0.197824	1.194185
H597	H	0.129375	-0.310007	0.656596
H598	H	0.629375	0.189993	1.156596
H599	H	0.160799	-0.318412	0.701758
H600	H	0.660799	0.181588	1.201758
C601	C	0.070778	-0.322015	0.790576
C602	C	0.570778	0.177985	1.290576
C603	C	0.081321	-0.331634	0.744411
C604	C	0.581321	0.168366	1.244411
H605	H	0.046435	-0.340188	0.821559
H606	H	0.546435	0.159812	1.321559
H607	H	0.054629	-0.283795	0.784607
H608	H	0.554629	0.216205	1.284607
H609	H	0.104124	-0.335546	0.796880
H610	H	0.604124	0.164454	1.296880
H611	H	0.047977	-0.318098	0.738104
H612	H	0.547977	0.181902	1.238104
H613	H	0.097464	-0.369853	0.750380
H614	H	0.597464	0.130147	1.250380
O615	O	-0.072947	-0.558222	0.337891
O616	O	0.427053	-0.058222	0.837891
C617	C	-0.043996	-0.525129	0.323944
C618	C	0.456004	-0.025129	0.823944
H619	H	0.001853	-0.547308	0.308259
H620	H	0.501853	-0.047308	0.808259
H621	H	-0.056136	-0.484860	0.290644
H622	H	0.443864	0.015140	0.790644
C623	C	-0.114223	-0.486177	0.394143
C624	C	0.385777	0.013823	0.894143
C625	C	-0.057909	-0.513419	0.374883
C626	C	0.442091	-0.013419	0.874883
H627	H	-0.122806	-0.478951	0.425563
H628	H	0.377194	0.021049	0.925563
H629	H	-0.133729	-0.508471	0.403538
H630	H	0.366271	-0.008471	0.903538
H631	H	-0.124332	-0.452622	0.366388
H632	H	0.375668	0.047378	0.866388
H633	H	-0.047802	-0.546976	0.402635
H634	H	0.452198	-0.046976	0.902635
H635	H	-0.038401	-0.491131	0.365493
H636	H	0.461599	0.008869	0.865493
O637	O	0.056897	-0.705195	0.225028
O638	O	0.556897	-0.205195	0.725028
C639	C	0.030920	-0.696908	0.191782
C640	C	0.530920	-0.196908	0.691782
H641	H	-0.015025	-0.676051	0.208972
H642	H	0.484975	-0.176051	0.708972
H643	H	0.047892	-0.669899	0.148356
H644	H	0.547892	-0.169899	0.648356
C645	C	0.098113	-0.778133	0.169792
C646	C	0.598113	-0.278133	0.669792
C647	C	0.041682	-0.752521	0.190908
C648	C	0.541682	-0.252521	0.690908
H649	H	0.104754	-0.812437	0.169251
H650	H	0.604754	-0.312437	0.669251
H651	H	0.115616	-0.783716	0.192189
H652	H	0.615616	-0.283716	0.692189
H653	H	0.112250	-0.755620	0.133606
H654	H	0.612250	-0.255620	0.633606
H655	H	0.027548	-0.775031	0.227096
H656	H	0.527548	-0.275031	0.727096
H657	H	0.024178	-0.746943	0.168517
H658	H	0.524178	-0.246943	0.668517
O659	O	0.019170	-0.742821	0.337949
O660	O	0.519170	-0.242821	0.837949
C661	C	0.052399	-0.771630	0.300392
C662	C	0.552399	-0.271630	0.800392
H663	H	0.045163	-0.744297	0.259497
H664	H	0.545163	-0.244297	0.759497
H665	H	0.097275	-0.784042	0.294389
H666	H	0.597275	-0.284042	0.794389
C667	C	0.046739	-0.856828	0.372948
C668	C	0.546739	-0.356828	0.872948
C669	C	0.037848	-0.823259	0.322721
C670	C	0.537848	-0.323259	0.822721
H671	H	0.037765	-0.888677	0.386722
H672	H	0.537765	-0.388677	0.886722
H673	H	0.024354	-0.837419	0.398251
H674	H	0.524354	-0.337419	0.898251
H675	H	0.084135	-0.867166	0.367939
H676	H	0.584135	-0.367166	0.867939
H677	H	0.000451	-0.812916	0.327732
H678	H	0.500451	-0.312916	0.827732
H679	H	0.060227	-0.842667	0.297419
H680	H	0.560227	-0.342667	0.797419
H681	H	-0.067926	-0.564092	0.382165
H682	H	0.432074	-0.064092	0.882165
H683	H	-0.033345	-0.529494	0.416965
H684	H	0.466655	-0.029494	0.916965
H685	H	0.051334	-0.699339	0.502037
H686	H	0.551334	-0.199339	1.002037
H687	H	0.016742	-0.733938	0.467255
H688	H	0.516742	-0.233938	0.967255
H689	H	0.058518	-0.740243	0.392731
H690	H	0.558518	-0.240243	0.892731
H691	H	0.093086	-0.844219	0.427442
H692	H	0.593086	-0.344219	0.927442
H693	H	-0.109727	-0.740044	0.456586
H694	H	0.390273	-0.240044	0.956586
O695	O	-0.081029	-0.848429	0.495630
O696	O	0.418971	-0.348429	0.995630
C697	C	-0.134453	-0.810798	0.498641
C698	C	0.365547	-0.310798	0.998641
H699	H	-0.136642	-0.769937	0.494826
H700	H	0.363358	-0.269937	0.994826
H701	H	-0.145151	-0.804738	0.463926
H702	H	0.354849	-0.304738	0.963926
C703	C	-0.172713	-0.883259	0.558664
C704	C	0.327287	-0.383259	1.058664
C705	C	-0.175402	-0.833075	0.553983
C706	C	0.324598	-0.333075	1.053983
H707	H	-0.197973	-0.897001	0.592800
H708	H	0.302027	-0.397001	1.092800
H709	H	-0.136720	-0.908613	0.556635
H710	H	0.363280	-0.408613	1.056635
H711	H	-0.181627	-0.878202	0.529731
H712	H	0.318373	-0.378202	1.029731
H713	H	-0.166482	-0.838134	0.582911
H714	H	0.333518	-0.338134	1.082911
H715	H	-0.211394	-0.807722	0.556019
H716	H	0.288606	-0.307722	1.056019
H717	H	-0.220824	-0.656545	0.543924
H718	H	0.279176	-0.156545	1.043924
H719	H	-0.116547	-0.606465	0.339541
H720	H	0.383453	-0.106465	0.839541
O721	O	-0.224926	-0.566498	0.368072
O722	O	0.275074	-0.066498	0.868072
C723	C	-0.187272	-0.558449	0.314283
C724	C	0.312728	-0.058449	0.814283
H725	H	-0.146440	-0.564901	0.314469
H726	H	0.353560	-0.064901	0.814469
H727	H	-0.181163	-0.588956	0.297854
H728	H	0.318837	-0.088956	0.797854
C729	C	-0.259703	-0.491809	0.277237
C730	C	0.240297	0.008191	0.777237
C731	C	-0.209553	-0.499728	0.277465
C732	C	0.290447	0.000272	0.777465
H733	H	-0.273448	-0.455587	0.254525
H734	H	0.226552	0.044413	0.754525
H735	H	-0.285072	-0.497232	0.313476
H736	H	0.214928	0.002768	0.813476
H737	H	-0.254605	-0.517235	0.263548
H738	H	0.245395	-0.017235	0.763548
H739	H	-0.214653	-0.474306	0.291161
H740	H	0.285347	0.025694	0.791161
H741	H	-0.184186	-0.494298	0.241228
H742	H	0.315814	0.005702	0.741228
H743	H	0.026652	-0.433515	0.407232
H744	H	0.526652	0.066485	0.907232
