data_functionalizedCrystal
_audit_creation_method	'MofGen! by Chris Wilmer'
_symmetry_space_group_name_H-M	'P1'
_symmetry_Int_Tables_number	1
_symmetry_cell_setting	triclinic
loop_
_symmetry_equiv_pos_as_xyz
  x,y,z
_cell_length_a	11.792254
_cell_length_b	11.792254
_cell_length_c	9.482900
_cell_angle_alpha	99.398945
_cell_angle_beta	80.645607
_cell_angle_gamma	84.198598
loop_
_atom_site_label
_atom_site_type_symbol
_atom_site_fract_x
_atom_site_fract_y
_atom_site_fract_z
O1	O	1.524487	0.137974	-0.120894
O2	O	1.194149	0.153991	-0.120898
O3	O	1.367326	-0.019185	-0.120886
O4	O	1.351311	0.311150	-0.120906
O5	O	1.332150	0.016133	0.120904
O6	O	1.158974	0.189309	0.120892
O7	O	1.489312	0.173292	0.120896
Cu8	Cu	1.320931	0.184525	0.142971
Cu9	Cu	1.362530	0.142758	-0.142973
O10	O	1.316136	0.346468	0.120884
C11	C	1.134271	0.170641	-0.000003
C12	C	1.008258	0.167621	-0.000004
C13	C	1.348729	-0.043817	0.000009
C14	C	1.345709	-0.169830	0.000008
C15	C	0.905922	0.165166	-0.000010
C16	C	0.777536	0.162097	-0.000011
C17	C	1.343256	-0.272168	0.000002
C18	C	1.340190	-0.400557	-0.000011
C19	C	1.549191	0.156641	-0.000002
C20	C	1.675205	0.159660	-0.000011
C21	C	1.334733	0.371100	-0.000014
C22	C	1.337754	0.497111	-0.000022
N23	N	1.291681	0.213902	0.344089
N24	N	1.391789	0.113372	-0.344092
C25	C	1.353895	0.151416	0.416293
C26	C	1.329566	0.175867	0.583709
H27	H	1.258284	0.247465	0.645828
H28	H	1.463064	0.041766	0.593789
O29	O	1.206500	0.299195	0.418128
C30	C	1.099314	0.274932	0.381040
H31	H	1.104010	0.177992	0.339104
H32	H	1.079288	0.324874	0.292810
C33	C	0.997171	0.430980	0.567868
C34	C	1.002936	0.311914	0.516372
H35	H	0.937719	0.453796	0.651344
H36	H	1.069384	0.447330	0.592852
H37	H	0.980487	0.472583	0.494330
H38	H	1.019634	0.270312	0.589903
H39	H	0.930723	0.295557	0.491404
O40	O	1.438821	0.065967	0.341999
C41	C	1.390164	-0.017095	0.253957
H42	H	1.304976	0.024417	0.231355
H43	H	1.373294	-0.092517	0.312482
C44	C	1.579506	-0.113009	0.137018
C45	C	1.474881	-0.062019	0.109248
H46	H	1.631765	-0.140725	0.047757
H47	H	1.612289	-0.057051	0.196337
H48	H	1.565432	-0.175854	0.185792
H49	H	1.488954	0.000832	0.060491
H50	H	1.442104	-0.117968	0.049917
