data_functionalizedCrystal
_audit_creation_method	'MofGen! by Chris Wilmer'
_symmetry_space_group_name_H-M	'P1'
_symmetry_Int_Tables_number	1
_symmetry_cell_setting	triclinic
loop_
_symmetry_equiv_pos_as_xyz
  x,y,z
_cell_length_a	17.640112
_cell_length_b	17.640280
_cell_length_c	17.640968
_cell_angle_alpha	65.682561
_cell_angle_beta	92.139080
_cell_angle_gamma	92.184069
loop_
_atom_site_label
_atom_site_type_symbol
_atom_site_fract_x
_atom_site_fract_y
_atom_site_fract_z
Zn1	Zn	1.251359	-0.023073	-0.189698
Zn2	Zn	1.251298	-0.188752	-0.024069
Zn3	Zn	1.106797	-0.075311	-0.076159
Zn4	Zn	1.148399	-0.178182	-0.179117
O5	O	1.189463	-0.116329	-0.117261
O6	O	1.354914	-0.027613	-0.150355
O7	O	1.214694	-0.199989	0.081425
O8	O	1.108588	0.044008	-0.117448
O9	O	1.354870	-0.149337	-0.028669
O10	O	1.214797	0.082386	-0.200865
O11	O	1.108529	-0.116644	0.043155
O12	O	1.008752	-0.106394	-0.107188
O13	O	1.179493	-0.131321	-0.292925
O14	O	1.039317	-0.181973	-0.182831
O15	O	1.255137	-0.017364	-0.300699
O16	O	1.255033	-0.299739	-0.018409
O17	O	1.179434	-0.291973	-0.132322
C18	C	0.997182	-0.148705	-0.149514
C19	C	0.914929	-0.162571	-0.163327
C20	C	0.564743	-0.010979	-0.012337
C21	C	0.487458	-0.024022	-0.025323
C22	C	0.519334	-0.102905	-0.103880
C23	C	0.596623	-0.089865	-0.090904
C24	C	0.619321	-0.043903	-0.045131
C25	C	0.651201	-0.122789	-0.123697
C26	C	0.728483	-0.109754	-0.110718
C27	C	0.751188	-0.063796	-0.064946
C28	C	0.696603	-0.030868	-0.032152
C29	C	0.628502	-0.168756	-0.169465
C30	C	0.683080	-0.201680	-0.202259
C31	C	0.760364	-0.188640	-0.189285
C32	C	0.783068	-0.142682	-0.143512
C33	C	0.814949	-0.221568	-0.222079
C34	C	0.892231	-0.208534	-0.209100
C35	C	0.860351	-0.129647	-0.130533
C36	C	1.221764	-0.324990	-0.068579
C37	C	1.235655	-0.414238	-0.047768
C38	C	1.084287	-0.687787	-0.275600
C39	C	1.097337	-0.771655	-0.256019
C40	C	1.176134	-0.779643	-0.137496
C41	C	1.163094	-0.695773	-0.157069
C42	C	1.117169	-0.649852	-0.226122
C43	C	1.195976	-0.657837	-0.107591
C44	C	1.182933	-0.573976	-0.127160
C45	C	1.137009	-0.528050	-0.196208
C46	C	1.104127	-0.565990	-0.245691
C47	C	1.241896	-0.703761	-0.038535
C48	C	1.274778	-0.665825	0.010944
C49	C	1.261740	-0.581961	-0.008629
C50	C	1.215815	-0.536035	-0.077677
C51	C	1.294622	-0.544020	0.040854
C52	C	1.281579	-0.460159	0.021285
C53	C	1.202773	-0.452173	-0.097246
C54	C	1.382495	-0.083827	-0.084882
C55	C	1.464754	-0.069977	-0.071084
C56	C	1.221962	-0.067336	-0.326772
C57	C	1.235811	-0.046458	-0.416053
C58	C	1.157059	0.093153	-0.166147
C59	C	1.143250	0.182422	-0.186980
C60	C	1.084469	-0.274453	-0.689444
C61	C	1.097496	-0.254822	-0.773337
C62	C	1.176258	-0.136168	-0.781421
C63	C	1.163234	-0.155787	-0.697528
C64	C	1.117340	-0.224930	-0.651546
C65	C	1.196105	-0.106264	-0.659630
C66	C	1.183085	-0.125884	-0.575743
C67	C	1.137195	-0.195026	-0.529754
C68	C	1.104320	-0.244550	-0.567659
C69	C	1.242004	-0.037124	-0.705612
C70	C	1.274874	0.012398	-0.667713
C71	C	1.261851	-0.007218	-0.583827
C72	C	1.215960	-0.076360	-0.537838
C73	C	1.294725	0.042306	-0.545922
C74	C	1.281706	0.022686	-0.462035
C75	C	1.202940	-0.095980	-0.453951
C76	C	1.157124	-0.165067	0.091429
C77	C	1.143383	-0.185695	0.180681
H78	H	0.443020	0.002799	0.001378
H79	H	1.252515	-0.772045	-0.022606
H80	H	1.126598	-0.211002	-0.461447
N81	N	1.061874	-0.812573	-0.309391
H82	H	1.027951	-0.860815	-0.274336
H83	H	1.030843	-0.770698	-0.356095
H84	H	0.796456	-0.258998	-0.259340
N85	N	1.256025	-0.015945	-0.796098
H86	H	1.290085	0.035372	-0.819477
H87	H	1.281253	-0.064062	-0.801121
N88	N	1.324375	0.086969	-0.717309
H89	H	1.327637	0.091885	-0.776202
H90	H	1.301704	0.138958	-0.717965
N91	N	0.589228	0.038603	0.037025
H92	H	0.568782	0.010526	0.095067
H93	H	0.646470	0.041850	0.040206
H94	H	1.070726	-0.295154	-0.804190
H95	H	1.332007	-0.581424	0.097081
N96	N	1.122941	-0.437598	-0.217318
H97	H	1.088858	-0.414266	-0.268569
H98	H	1.097720	-0.432660	-0.169141
N99	N	0.951101	-0.244047	-0.244465
H100	H	0.944657	-0.220503	-0.307024
H101	H	1.003474	-0.228809	-0.229233
H102	H	0.565572	-0.179368	-0.180031
N103	N	1.054604	-0.516448	-0.320177
H104	H	1.035755	-0.553202	-0.348559
H105	H	1.009897	-0.495105	-0.301305
H106	H	1.165383	-0.414780	-0.153481
N107	N	1.324299	-0.715359	0.085426
H108	H	1.327570	-0.774243	0.090319
H109	H	1.376805	-0.688822	0.078312
N110	N	1.034765	-0.638245	-0.350087
H111	H	1.015915	-0.674999	-0.378468
H112	H	0.990058	-0.616902	-0.331214
N113	N	1.225655	-0.829177	-0.063013
H114	H	1.228926	-0.888061	-0.058120
H115	H	1.278162	-0.802639	-0.070127
N116	N	1.344232	0.116872	-0.595517
H117	H	1.347495	0.121783	-0.654409
H118	H	1.321566	0.168865	-0.596178
H119	H	0.500842	-0.140330	-0.141145
N120	N	1.317038	-0.419237	0.074651
H121	H	1.348111	-0.461052	0.121363
H122	H	1.350919	-0.370987	0.039535
H123	H	1.165548	-0.152268	-0.416517
N124	N	1.054815	-0.319123	-0.518056
H125	H	1.035962	-0.347520	-0.554793
H126	H	1.085290	-0.359357	-0.469524
N127	N	1.034964	-0.349025	-0.639842
H128	H	1.016111	-0.377422	-0.676578
H129	H	1.065439	-0.389259	-0.591309
N130	N	1.317160	0.076093	-0.421150
H131	H	1.348208	0.122873	-0.463009
H132	H	1.275883	0.100045	-0.400072
H133	H	0.878832	-0.092205	-0.093275
N134	N	0.834542	-0.049741	-0.050941
H135	H	0.859449	-0.019030	-0.106362
H136	H	0.840575	-0.015656	-0.016941
N137	N	0.721089	0.018714	0.017211
H138	H	0.700642	-0.009362	0.075253
H139	H	0.778330	0.021961	0.020391
H140	H	0.664588	-0.239106	-0.239524
H141	H	1.213628	-0.079873	-0.818870
