data_functionalizedCrystal
_audit_creation_method	'MofGen! by Chris Wilmer'
_symmetry_space_group_name_H-M	'P1'
_symmetry_Int_Tables_number	1
_symmetry_cell_setting	triclinic
loop_
_symmetry_equiv_pos_as_xyz
  x,y,z
_cell_length_a	17.038272
_cell_length_b	27.732048
_cell_length_c	16.098538
_cell_angle_alpha	92.695138
_cell_angle_beta	87.069734
_cell_angle_gamma	86.877106
loop_
_atom_site_label
_atom_site_type_symbol
_atom_site_fract_x
_atom_site_fract_y
_atom_site_fract_z
O1	O	1.039664	0.102899	-0.069167
O2	O	0.812054	0.101233	-0.069192
O3	O	0.932928	0.031993	-0.069163
O4	O	0.918791	0.172139	-0.069196
O5	O	0.925867	0.036021	0.069348
O6	O	0.804994	0.105261	0.069320
O7	O	1.032604	0.106927	0.069344
Zn8	Zn	0.917678	0.106733	0.091323
Zn9	Zn	0.926980	0.101427	-0.091171
O10	O	0.911730	0.176167	0.069315
C11	C	0.779414	0.101731	0.000061
C12	C	0.692674	0.097211	0.000053
C13	C	0.929100	0.015987	0.000095
C14	C	0.928206	-0.037709	0.000102
C15	C	0.642076	0.138713	0.000043
C16	C	0.560575	0.134463	0.000056
C17	C	0.529672	0.088710	0.000072
C18	C	0.580276	0.047205	0.000083
C19	C	0.661776	0.051455	0.000077
C20	C	0.284088	0.073694	0.000098
C21	C	0.202582	0.069446	0.000102
C22	C	0.182886	0.156706	0.000076
C23	C	0.264389	0.160952	0.000064
C24	C	0.314985	0.119446	0.000080
C25	C	0.446365	0.084365	0.000082
C26	C	0.398290	0.123792	0.000076
C27	C	0.994011	-0.373515	0.000066
C28	C	0.990696	-0.575327	0.000054
O29	O	1.050870	-0.603831	0.000024
N30	N	0.919023	-0.597729	0.000047
C31	C	0.848173	-0.569676	0.000038
O32	O	0.787135	-0.593361	0.000023
C33	C	0.851490	-0.367865	0.000044
C34	C	0.923167	-0.345465	0.000059
C35	C	1.065683	-0.351115	0.000080
C36	C	1.066511	-0.300665	0.000088
C37	C	0.995667	-0.272615	0.000081
C38	C	0.923995	-0.295015	0.000067
C39	C	0.780641	-0.339813	0.000029
C40	C	0.781477	-0.289357	0.000028
C41	C	0.853155	-0.266957	0.000043
C42	C	0.853979	-0.216515	0.000067
N43	N	0.925652	-0.194113	0.000074
C44	C	0.996496	-0.222163	0.000081
C45	C	0.846437	-0.675629	0.000036
C46	C	0.845608	-0.726081	0.000036
C47	C	0.988131	-0.731729	0.000051
C48	C	0.988959	-0.681276	0.000057
C49	C	0.918111	-0.653227	0.000043
C50	C	0.998229	-0.116214	0.000098
C51	C	0.999051	-0.065759	0.000109
C52	C	0.856528	-0.060116	0.000090
C53	C	0.855706	-0.110566	0.000083
C54	C	0.926563	-0.138614	0.000084
O55	O	0.793838	-0.187981	0.000088
O56	O	1.057527	-0.198469	0.000077
C57	C	0.993184	-0.423965	0.000059
C58	C	0.921512	-0.446365	0.000044
C59	C	0.850668	-0.418315	0.000037
C60	C	0.920682	-0.496818	0.000044
C61	C	0.991526	-0.524868	0.000051
C62	C	1.063200	-0.502465	0.000058
C63	C	1.064028	-0.452015	0.000065
C64	C	0.778994	-0.440718	0.000030
C65	C	0.778172	-0.491168	0.000024
C66	C	0.849016	-0.519218	0.000031
C67	C	1.065245	0.106428	0.000089
C68	C	1.151985	0.110949	0.000092
C69	C	0.915558	0.192173	0.000055
C70	C	0.916452	0.245869	0.000043
N71	N	0.911335	0.110355	0.215871
N72	N	0.933330	0.097802	-0.215719
C73	C	0.962657	0.080979	0.259468
C74	C	0.958226	0.083517	0.346656
C75	C	0.902478	0.115434	0.390245
C76	C	0.851150	0.144812	0.346642
C77	C	0.855577	0.142270	0.259456
C78	C	0.886429	0.124638	0.653492
C79	C	0.882008	0.127178	0.740684
C80	C	0.989084	0.065882	0.740692
C81	C	0.993509	0.063346	0.653504
C82	C	0.942179	0.092721	0.609908
C83	C	0.897950	0.118031	0.479365
C84	C	0.946704	0.090122	0.520790
H85	H	0.519381	0.168259	0.000048
H86	H	1.030873	0.041965	0.776196
H87	H	1.038904	0.037356	0.618016
H88	H	0.992092	0.064133	0.485297
N89	N	0.825049	0.159781	0.785198
N90	N	0.779219	0.186004	0.746265
H91	H	0.738992	0.209028	0.777702
H92	H	0.844636	0.148557	0.618003
N93	N	0.840998	0.150627	0.523896
N94	N	0.790213	0.134699	0.572559
H95	H	0.749989	0.157719	0.604012
N96	N	1.010627	0.053506	0.391211
N97	N	1.056466	0.072249	0.439877
H98	H	1.093462	0.051048	0.471353
H99	H	0.421194	0.047113	0.000118
N100	N	0.794202	0.177408	0.391177
N101	N	0.790256	0.179673	0.469021
H102	H	0.750036	0.202696	0.500474
H103	H	0.788740	-0.652796	0.000025
H104	H	0.813784	0.166191	0.223960
H105	H	0.667230	0.175970	0.000030
N106	N	1.072278	-0.042886	0.000131
N107	N	1.135524	-0.067941	0.000137
H108	H	1.187240	-0.051789	0.000152
N109	N	0.295964	0.207685	0.000068
N110	N	0.368732	0.211473	0.000068
H111	H	0.391033	0.244479	0.000070
N112	N	0.335767	0.031299	0.000090
N113	N	0.386410	0.022238	-0.058298
H114	H	0.422913	-0.007705	-0.058305
H115	H	0.141682	0.190497	0.000064
N116	N	0.171026	0.022705	0.000131
N117	N	0.183749	-0.004331	0.058530
H118	H	0.161461	-0.037340	0.058551
H119	H	0.702973	0.017659	0.000084
N120	N	0.429839	0.170530	0.000069
N121	N	0.411176	0.200969	0.058445
H122	H	0.433462	0.233979	0.058438
N123	N	0.548700	0.000473	0.000108
N124	N	0.475932	-0.003317	0.000113
H125	H	0.453631	-0.036323	0.000129
H126	H	1.055928	-0.139045	0.000095
N127	N	1.139736	-0.277796	0.000100
N128	N	1.202978	-0.302854	0.000103
H129	H	1.254698	-0.286707	0.000109
N130	N	1.138063	-0.379755	0.000082
N131	N	1.202044	-0.359739	0.000092
H132	H	1.253167	-0.379963	0.000097
H133	H	1.045815	-0.754576	0.000057
N134	N	1.062174	-0.658396	0.000084
N135	N	1.106814	-0.664231	0.058480
H136	H	1.158526	-0.648074	0.058500
N137	N	0.772383	-0.748951	0.000040
N138	N	0.709139	-0.723894	0.000035
H139	H	0.657420	-0.740044	0.000035
N140	N	0.707422	-0.362684	0.000021
N141	N	0.656818	-0.353461	0.058395
H142	H	0.605102	-0.369612	0.058388
N143	N	0.709098	-0.260714	0.000004
N144	N	0.645112	-0.280725	-0.000014
H145	H	0.593993	-0.260497	-0.000032
H146	H	0.797339	-0.128804	0.000094
N147	N	1.019567	0.048345	0.214960
N148	N	1.065353	0.022098	0.253901
H149	H	1.105530	-0.000963	0.222470
N150	N	0.784169	-0.031457	0.000058
N151	N	0.739351	-0.036889	-0.058347
H152	H	0.688248	-0.016647	-0.058378
N153	N	1.137245	-0.429138	0.000093
N154	N	1.181886	-0.434977	0.058486
H155	H	1.233600	-0.418823	0.058506
N156	N	1.135559	-0.531130	0.000074
N157	N	1.134798	-0.576175	0.000070
H158	H	1.185898	-0.596422	0.000079
H159	H	0.719799	-0.509401	0.000019
N160	N	0.706617	-0.412077	0.000021
N161	N	0.642634	-0.432091	0.000014
H162	H	0.591512	-0.411865	0.000011
