data_functionalizedCrystal
_audit_creation_method	'MofGen! by Chris Wilmer'
_symmetry_space_group_name_H-M	'P1'
_symmetry_Int_Tables_number	1
_symmetry_cell_setting	triclinic
loop_
_symmetry_equiv_pos_as_xyz
  x,y,z
_cell_length_a	12.837943
_cell_length_b	9.730223
_cell_length_c	12.837943
_cell_angle_alpha	90.001646
_cell_angle_beta	85.171060
_cell_angle_gamma	89.999322
loop_
_atom_site_label
_atom_site_type_symbol
_atom_site_fract_x
_atom_site_fract_y
_atom_site_fract_z
O1	O	1.402329	0.114247	-0.272135
O2	O	1.099196	0.114256	-0.258692
O3	O	1.244041	0.114253	-0.113847
O4	O	1.257484	0.114250	-0.416980
O5	O	1.244039	-0.114327	-0.113851
O6	O	1.099194	-0.114324	-0.258696
O7	O	1.402328	-0.114333	-0.272139
Zn8	Zn	1.250761	-0.150621	-0.265418
Zn9	Zn	1.250763	0.150543	-0.265413
O10	O	1.257483	-0.114330	-0.416984
C11	C	1.060126	-0.000033	-0.254153
C12	C	0.943711	-0.000029	-0.240608
C13	C	0.718837	-0.000050	-0.403437
C14	C	0.609454	-0.000048	-0.390716
C15	C	0.615562	-0.000031	-0.202445
C16	C	0.724944	-0.000034	-0.215166
C17	C	0.776578	-0.000041	-0.315666
C18	C	0.885962	-0.000034	-0.328386
C19	C	0.892067	-0.000027	-0.140116
C20	C	0.782685	-0.000025	-0.127395
N21	N	1.250767	-0.356157	-0.265422
C22	C	1.314925	-0.428084	-0.201310
C23	C	1.314921	-0.571967	-0.201297
C24	C	1.186599	-0.571983	-0.329516
C25	C	1.186598	-0.428102	-0.329523
C26	C	1.379094	-0.356139	-0.137209
C27	C	1.443258	-0.428067	-0.073093
C28	C	1.443254	-0.571949	-0.073080
C29	C	1.379086	-0.643905	-0.137183
C30	C	1.441398	-0.000041	-0.276679
C31	C	1.557813	-0.000036	-0.290223
N32	N	1.250764	0.356080	-0.265402
C33	C	1.262025	-0.000040	-0.456052
C34	C	1.275569	-0.000041	-0.572467
C35	C	1.112740	-0.000011	-0.797341
C36	C	1.125461	-0.000011	-0.906723
C37	C	1.313732	-0.000032	-0.900616
C38	C	1.301011	-0.000032	-0.791233
C39	C	1.200512	-0.000024	-0.739600
C40	C	1.187791	-0.000033	-0.630215
C41	C	1.376061	-0.000044	-0.624110
C42	C	1.388783	-0.000044	-0.733493
C43	C	1.239499	-0.000034	-0.074780
C44	C	1.225954	-0.000024	0.041635
H45	H	0.760878	-0.000054	-0.485268
O46	O	0.553523	0.000011	-0.476089
C47	C	0.622557	-0.000033	-0.567514
H48	H	0.701424	0.043240	-0.548986
H49	H	0.588819	0.066326	-0.629677
H50	H	0.633250	-0.109697	-0.597809
H51	H	1.105960	-0.000039	-0.588177
H52	H	1.134354	-0.369539	-0.381728
O53	O	0.936003	0.000140	-0.426060
C54	C	0.907434	0.118533	-0.480215
H55	H	0.828884	0.158006	-0.444211
H56	H	0.900894	0.091895	-0.565893
H57	H	0.969419	0.201431	-0.474333
H58	H	0.573502	-0.000139	-0.120623
O59	O	1.015047	0.000054	-0.747342
C60	C	0.940303	0.000021	-0.821763
H61	H	0.976966	0.043293	-0.898840
H62	H	0.870792	0.066388	-0.792292
H63	H	0.912709	-0.109639	-0.834334
H64	H	1.470607	-0.000056	-0.775548
H65	H	1.053988	-0.000000	-0.953732
H66	H	1.447532	-0.000056	-0.577086
O67	O	1.505515	-0.357963	-0.010881
C68	C	1.491723	-0.215546	-0.024597
H69	H	1.460865	-0.195889	-0.103960
H70	H	1.569833	-0.160841	-0.020767
H71	H	1.433321	-0.174745	0.039844
O72	O	0.732475	0.000229	-0.029797
C73	C	0.669364	0.118596	-0.016824
H74	H	0.700594	0.201331	-0.074082
H75	H	0.670821	0.158347	0.066574
H76	H	0.585646	0.091826	-0.032472
H77	H	0.939092	-0.000011	-0.068646
O78	O	1.505518	-0.641670	-0.010650
C79	C	1.478260	-0.606518	0.094670
H80	H	1.437922	-0.502050	0.098545
H81	H	1.551863	-0.601588	0.138400
H82	H	1.422958	-0.687488	0.132232
O83	O	1.379234	-0.783673	-0.137071
C84	C	1.449594	-0.831735	-0.066710
H85	H	1.510159	-0.748825	-0.054658
H86	H	1.490638	-0.928006	-0.099977
H87	H	1.404883	-0.857237	0.011399
O88	O	1.124374	-0.642089	-0.391759
C89	C	1.138115	-0.784505	-0.377986
H90	H	1.217481	-0.804149	-0.347129
H91	H	1.134297	-0.839198	-0.456104
H92	H	1.073681	-0.825331	-0.319592
O93	O	1.411369	0.000222	-0.950740
C94	C	1.465534	0.118587	-0.922129
H95	H	1.406957	0.201321	-0.893825
H96	H	1.516584	0.158341	-0.992681
H97	H	1.516859	0.091814	-0.856747
H98	H	1.379105	-0.238982	-0.137216
