data_functionalizedCrystal
_audit_creation_method	'MofGen! by Chris Wilmer'
_symmetry_space_group_name_H-M	'P1'
_symmetry_Int_Tables_number	1
_symmetry_cell_setting	triclinic
loop_
_symmetry_equiv_pos_as_xyz
  x,y,z
_cell_length_a	14.519731
_cell_length_b	14.519731
_cell_length_c	9.482900
_cell_angle_alpha	99.351580
_cell_angle_beta	80.692239
_cell_angle_gamma	83.688853
loop_
_atom_site_label
_atom_site_type_symbol
_atom_site_fract_x
_atom_site_fract_y
_atom_site_fract_z
O1	O	1.238214	0.106568	-0.120901
O2	O	1.488214	0.356568	0.129099
O3	O	1.738214	0.606568	0.379099
O4	O	1.988214	0.856568	0.629099
O5	O	0.969741	0.120784	-0.120904
O6	O	1.219741	0.370784	0.129096
O7	O	1.469741	0.620784	0.379096
O8	O	1.719741	0.870784	0.629096
O9	O	1.111084	-0.020559	-0.120889
O10	O	1.361084	0.229441	0.129111
O11	O	1.611084	0.479441	0.379111
O12	O	1.861084	0.729441	0.629111
O13	O	1.096871	0.247911	-0.120916
O14	O	1.346871	0.497911	0.129084
O15	O	1.596871	0.747911	0.379084
O16	O	1.846871	0.997911	0.629084
O17	O	1.082374	0.008266	0.120900
O18	O	1.332374	0.258266	0.370900
O19	O	1.582374	0.508266	0.620900
O20	O	1.832374	0.758266	0.870900
O21	O	0.941032	0.149609	0.120886
O22	O	1.191032	0.399609	0.370886
O23	O	1.441032	0.649609	0.620886
O24	O	1.691032	0.899609	0.870886
O25	O	1.209504	0.135393	0.120888
O26	O	1.459504	0.385393	0.370888
O27	O	1.709504	0.635393	0.620888
O28	O	1.959504	0.885393	0.870888
Cu29	Cu	1.072647	0.145133	0.142964
Cu30	Cu	1.322647	0.395133	0.392964
Cu31	Cu	1.572647	0.645133	0.642964
Cu32	Cu	1.822647	0.895133	0.892964
Cu33	Cu	1.106599	0.111044	-0.142980
Cu34	Cu	1.356599	0.361044	0.107020
Cu35	Cu	1.606599	0.611044	0.357020
Cu36	Cu	1.856599	0.861044	0.607020
O37	O	1.068162	0.276736	0.120874
O38	O	1.318162	0.526736	0.370874
O39	O	1.568162	0.776736	0.620874
O40	O	1.818162	1.026736	0.870874
C41	C	1.096063	-0.040506	0.000006
C42	C	1.346063	0.209494	0.250006
C43	C	1.596063	0.459494	0.500006
C44	C	1.846063	0.709494	0.750006
C45	C	1.094067	-0.142886	0.000007
C46	C	1.344067	0.107114	0.250007
C47	C	1.594067	0.357114	0.500007
C48	C	1.844067	0.607114	0.750007
C49	C	0.921027	0.134530	-0.000009
C50	C	1.171027	0.384530	0.249991
C51	C	1.421027	0.634530	0.499991
C52	C	1.671027	0.884530	0.749991
C53	C	0.818647	0.132534	-0.000010
C54	C	1.068647	0.382534	0.249990
C55	C	1.318647	0.632534	0.499990
C56	C	1.568647	0.882534	0.749990
C57	C	1.092445	-0.226031	0.000003
C58	C	1.342445	0.023969	0.250003
C59	C	1.592445	0.273969	0.500003
C60	C	1.842445	0.523969	0.750003
C61	C	1.090420	-0.330341	-0.000008
C62	C	1.340420	-0.080341	0.249992
C63	C	1.590420	0.169659	0.499992
C64	C	1.840420	0.419659	0.749992
C65	C	1.088813	-0.413482	-0.000017
C66	C	1.338813	-0.163482	0.249983
C67	C	1.588813	0.086518	0.499983
C68	C	1.838813	0.336518	0.749983
C69	C	1.086788	-0.517798	-0.000025
C70	C	1.336788	-0.267798	0.249975
C71	C	1.586788	-0.017798	0.499975
C72	C	1.836788	0.232202	0.749975
C73	C	0.735503	0.130911	-0.000015
C74	C	0.985503	0.380911	0.249985
C75	C	1.235503	0.630911	0.499985
C76	C	1.485503	0.880911	0.749985
C77	C	0.631194	0.128885	-0.000016
C78	C	0.881194	0.378885	0.249984
C79	C	1.131194	0.628885	0.499984
C80	C	1.381194	0.878885	0.749984
C81	C	0.548055	0.127276	-0.000016
C82	C	0.798055	0.377276	0.249984
C83	C	1.048055	0.627276	0.499984
C84	C	1.298055	0.877276	0.749984
C85	C	0.443740	0.125250	-0.000019
C86	C	0.693740	0.375250	0.249981
C87	C	0.943740	0.625250	0.499981
C88	C	1.193740	0.875250	0.749981
C89	C	1.258219	0.121646	-0.000009
C90	C	1.508219	0.371646	0.249991
C91	C	1.758219	0.621646	0.499991
C92	C	2.008219	0.871646	0.749991
C93	C	1.360601	0.123641	-0.000018
C94	C	1.610601	0.373641	0.249982
C95	C	1.860601	0.623641	0.499982
C96	C	2.110601	0.873641	0.749982
C97	C	1.083183	0.296682	-0.000024
C98	C	1.333183	0.546682	0.249976
C99	C	1.583183	0.796682	0.499976
C100	C	1.833183	1.046682	0.749976
C101	C	1.085180	0.399062	-0.000035
C102	C	1.335180	0.649062	0.249965
C103	C	1.585180	0.899062	0.499965
C104	C	1.835180	1.149062	0.749965
N105	N	1.048773	0.169109	0.344082
N106	N	1.298773	0.419109	0.594082
N107	N	1.548773	0.669109	0.844082
N108	N	1.798773	0.919109	1.094082
N109	N	1.130480	0.087060	-0.344097
N110	N	1.380480	0.337060	-0.094097
N111	N	1.630480	0.587060	0.155903
N112	N	1.880480	0.837060	0.405903
C113	C	1.099551	0.118111	0.416287
C114	C	1.349551	0.368111	0.666287
C115	C	1.599551	0.618111	0.916287
C116	C	1.849551	0.868111	1.166287
C117	C	1.079694	0.138066	0.583702
C118	C	1.329694	0.388066	0.833702
C119	C	1.579694	0.638066	1.083702
C120	C	1.829694	0.888066	1.333702
H121	H	1.021514	0.196502	0.645820
H122	H	1.271514	0.446502	0.895820
H123	H	1.521514	0.696502	1.145820
H124	H	1.771514	0.946502	1.395820
Cl125	Cl	1.189161	0.027682	0.320383
Cl126	Cl	1.439161	0.277682	0.570383
Cl127	Cl	1.689161	0.527682	0.820383
Cl128	Cl	1.939161	0.777682	1.070383
Cl129	Cl	1.220500	-0.002969	0.560008
Cl130	Cl	1.470500	0.247031	0.810008
Cl131	Cl	1.720500	0.497031	1.060008
Cl132	Cl	1.970500	0.747031	1.310008
Cl133	Cl	0.958950	0.259327	0.439987
Cl134	Cl	1.208950	0.509327	0.689987
Cl135	Cl	1.458950	0.759327	0.939987
Cl136	Cl	1.708950	1.009327	1.189987
