data_functionalizedCrystal
_audit_creation_method	'MofGen! by Chris Wilmer'
_symmetry_space_group_name_H-M	'P1'
_symmetry_Int_Tables_number	1
_symmetry_cell_setting	triclinic
loop_
_symmetry_equiv_pos_as_xyz
  x,y,z
_cell_length_a	12.759394
_cell_length_b	17.077404
_cell_length_c	17.077396
_cell_angle_alpha	90.017244
_cell_angle_beta	89.972850
_cell_angle_gamma	89.984938
loop_
_atom_site_label
_atom_site_type_symbol
_atom_site_fract_x
_atom_site_fract_y
_atom_site_fract_z
Zn1	Zn	-0.418252	-1.200081	-0.443855
Zn2	Zn	-0.593955	-1.200012	-0.312593
Zn3	Zn	-0.418291	-1.068818	-0.312602
Zn4	Zn	-0.593890	-1.068799	-0.443817
O5	O	-0.506097	-1.134428	-0.378217
O6	O	-0.441570	-1.309919	-0.426454
O7	O	-0.570696	-1.182587	-0.202748
O8	O	-0.271265	-1.086267	-0.330033
O9	O	-0.570658	-1.309868	-0.330017
O10	O	-0.271236	-1.182706	-0.426463
O11	O	-0.441637	-1.086200	-0.202754
O12	O	-0.441574	-0.958969	-0.329996
O13	O	-0.570547	-1.086235	-0.553669
O14	O	-0.570586	-0.958955	-0.426399
O15	O	-0.441507	-1.182687	-0.553697
O16	O	-0.740967	-1.182569	-0.329981
O17	O	-0.740920	-1.086168	-0.426391
C18	C	-0.506078	-0.930480	-0.378195
C19	C	-0.506095	-0.843230	-0.378205
C20	C	-0.779064	-1.134380	-0.378198
C21	C	-0.895841	-1.134432	-0.378216
C22	C	-0.506015	-1.134467	-0.582961
C23	C	-0.505981	-1.134484	-0.670211
C24	C	-0.895837	-1.234890	-0.277900
C25	C	-0.950696	-1.285139	-0.227751
C26	C	-1.060418	-1.285185	-0.227773
C27	C	-1.115283	-1.234978	-0.277950
C28	C	-1.060424	-1.184729	-0.328099
C29	C	-0.950700	-1.184687	-0.328070
C30	C	-1.060428	-1.084276	-0.428417
C31	C	-0.950706	-1.084225	-0.428393
C32	C	-1.115293	-1.034069	-0.478594
C33	C	-1.060434	-0.983814	-0.528740
C34	C	-0.950706	-0.983770	-0.528716
C35	C	-0.895847	-1.033975	-0.478542
C36	C	-0.232063	-1.134496	-0.378253
C37	C	-0.115287	-1.134525	-0.378269
C38	C	-0.506117	-1.339172	-0.378239
C39	C	-0.506125	-1.426422	-0.378249
C40	C	-0.573373	-0.802253	-0.428321
C41	C	-0.573375	-0.720273	-0.428334
C42	C	-0.506104	-0.679270	-0.378225
C43	C	-0.438819	-0.720253	-0.328107
C44	C	-0.438812	-0.802232	-0.328099
C45	C	-0.438839	-0.549383	-0.328125
C46	C	-0.438847	-0.467398	-0.328132
C47	C	-0.573402	-0.467424	-0.428360
C48	C	-0.573396	-0.549403	-0.428352
C49	C	-0.506112	-0.590379	-0.378233
C50	C	-0.438771	-1.084310	-0.711204
C51	C	-0.438748	-1.084323	-0.793185
C52	C	-0.505928	-1.134514	-0.834171
C53	C	-0.573145	-1.184690	-0.793172
C54	C	-0.573174	-1.184672	-0.711193
C55	C	-0.573079	-1.184724	-0.964042
C56	C	-0.573050	-1.184742	-1.046027
C57	C	-0.438654	-1.084374	-1.046034
C58	C	-0.438682	-1.084357	-0.964055
C59	C	-0.505897	-1.134534	-0.923062
C60	C	-0.506102	-1.134433	-0.174269
C61	C	-0.505841	-1.134569	-0.087020
H62	H	-0.806496	-1.234847	-0.277868
H63	H	-1.105114	-0.942943	-0.569594
H64	H	-0.384023	-1.043464	-0.826557
H65	H	-0.628156	-0.835631	-0.469123
H66	H	-1.204624	-1.235027	-0.277970
O67	O	-1.113757	-1.334084	-0.179174
C68	C	-1.177142	-1.384769	-0.223926
H69	H	-1.144005	-1.389568	-0.285746
H70	H	-1.260321	-1.360530	-0.226628
C71	C	-1.219482	-1.460502	-0.109721
C72	C	-1.178777	-1.466401	-0.185649
H73	H	-1.220495	-1.510856	-0.086109
H74	H	-1.176781	-1.426354	-0.079570
H75	H	-1.288794	-1.440300	-0.111983
H76	H	-1.109462	-1.486594	-0.183385
H77	H	-1.221466	-1.500555	-0.215799
H78	H	-0.384022	-0.835594	-0.287293
O79	O	-0.373657	-1.035515	-0.671307
C80	C	-0.433487	-0.984778	-0.623888
H81	H	-0.513113	-1.012442	-0.611596
H82	H	-0.445017	-0.926611	-0.655475
C83	C	-0.277910	-0.936583	-0.561122
C84	C	-0.375704	-0.970564	-0.546019
H85	H	-0.242266	-0.927812	-0.513090
H86	H	-0.237601	-0.970763	-0.593071
H87	H	-0.287532	-0.888114	-0.587447
H88	H	-0.366081	-1.019036	-0.519703
H89	H	-0.416011	-0.936392	-0.514063
H90	H	-0.383973	-1.043490	-0.930686
H91	H	-0.806506	-1.033939	-0.478512
H92	H	-0.627850	-1.225552	-0.826549
H93	H	-1.204634	-1.034113	-0.478612
O94	O	-0.897238	-1.333834	-0.179036
C95	C	-0.788630	-1.323035	-0.189779
H96	H	-0.773683	-1.262437	-0.215436
H97	H	-0.757400	-1.369562	-0.231612
C98	C	-0.750732	-1.404673	-0.078837
C99	C	-0.732372	-1.330243	-0.110343
H100	H	-0.716027	-1.409123	-0.029838
H101	H	-0.823902	-1.411951	-0.071600
H102	H	-0.724706	-1.443438	-0.113705
H103	H	-0.758409	-1.291481	-0.075479
H104	H	-0.659204	-1.322959	-0.117572
O105	O	-0.897581	-0.934886	-0.577460
C106	C	-0.969539	-0.890604	-0.621764
H107	H	-1.047787	-0.887933	-0.589625
H108	H	-0.981118	-0.919330	-0.681404
C109	C	-0.830695	-0.810317	-0.672485
C110	C	-0.926798	-0.807031	-0.633008
H111	H	-0.804330	-0.758766	-0.679425
H112	H	-0.782215	-0.840152	-0.642639
H113	H	-0.840357	-0.834259	-0.722181
H114	H	-0.917132	-0.783098	-0.583310
H115	H	-0.975276	-0.777190	-0.662846
O116	O	-0.638519	-1.233424	-0.924304
C117	C	-0.743224	-1.216233	-0.944302
H118	H	-0.745380	-1.186073	-1.003823
H119	H	-0.778620	-1.175854	-0.898156
C120	C	-0.804226	-1.329785	-0.874977
C121	C	-0.806874	-1.292748	-0.948084
H122	H	-0.843490	-1.376982	-0.877306
H123	H	-0.733685	-1.341366	-0.861501
H124	H	-0.833720	-1.296128	-0.836529
H125	H	-0.777368	-1.326401	-0.986528
H126	H	-0.877412	-1.281175	-0.961567
H127	H	-0.627894	-1.225535	-0.677817
O128	O	-0.638840	-0.680589	-0.477032
C129	C	-0.698205	-0.734358	-0.521263
H130	H	-0.701769	-0.792783	-0.489101
H131	H	-0.659849	-0.743103	-0.580936
C132	C	-0.805673	-0.630597	-0.571917
C133	C	-0.810058	-0.702354	-0.532412
H134	H	-0.874668	-0.610855	-0.578797
H135	H	-0.765676	-0.594372	-0.542120
H136	H	-0.773705	-0.637895	-0.621640
H137	H	-0.842013	-0.695054	-0.482686
H138	H	-0.850063	-0.738578	-0.562200
H139	H	-0.628184	-0.434056	-0.469172
O140	O	-0.373599	-0.589156	-0.279324
C141	C	-0.396424	-0.569073	-0.201063
H142	H	-0.480349	-0.546517	-0.197002
H143	H	-0.340064	-0.521492	-0.180617
C144	C	-0.281044	-0.669583	-0.153671
C145	C	-0.384125	-0.641886	-0.148682
H146	H	-0.273453	-0.714495	-0.121358
H147	H	-0.265662	-0.683112	-0.206396
H148	H	-0.234088	-0.629925	-0.136634
H149	H	-0.431077	-0.681539	-0.165728
H150	H	-0.399514	-0.628365	-0.095958
O151	O	-0.373520	-1.035535	-1.085880
C152	C	-0.433319	-0.984839	-1.133290
H153	H	-0.516075	-0.979975	-1.108571
H154	H	-0.436915	-1.009109	-1.195427
C155	C	-0.280352	-0.909218	-1.164895
C156	C	-0.381992	-0.903239	-1.134530
H157	H	-0.248689	-0.858885	-1.165664
H158	H	-0.240063	-0.943375	-1.132956
H159	H	-0.283363	-0.929446	-1.216673
H160	H	-0.378979	-0.883021	-1.082750
H161	H	-0.422280	-0.869077	-1.166460
H162	H	-0.628179	-0.582784	-0.469151
H163	H	-0.384041	-0.686862	-0.287311
H164	H	-0.384057	-0.434017	-0.287339
H165	H	-0.627755	-1.225612	-1.079395
