data_functionalizedCrystal
_audit_creation_method	'MofGen! by Chris Wilmer'
_symmetry_space_group_name_H-M	'P1'
_symmetry_Int_Tables_number	1
_symmetry_cell_setting	triclinic
loop_
_symmetry_equiv_pos_as_xyz
  x,y,z
_cell_length_a	18.050590
_cell_length_b	18.050590
_cell_length_c	12.759393
_cell_angle_alpha	90.035753
_cell_angle_beta	90.006011
_cell_angle_gamma	90.007719
loop_
_atom_site_label
_atom_site_type_symbol
_atom_site_fract_x
_atom_site_fract_y
_atom_site_fract_z
Zn1	Zn	1.135392	-0.295830	0.593601
Zn2	Zn	1.135309	-0.420041	0.417908
Zn3	Zn	1.011197	-0.295846	0.417978
Zn4	Zn	1.011180	-0.419960	0.593588
O5	O	1.073269	-0.357919	0.505769
O6	O	1.239306	-0.312335	0.570270
O7	O	1.118817	-0.403606	0.270896
O8	O	1.027713	-0.191919	0.441310
O9	O	1.239245	-0.403592	0.441190
O10	O	1.118959	-0.191908	0.570339
O11	O	1.027632	-0.312360	0.270948
O12	O	0.907270	-0.312282	0.441297
O13	O	1.027685	-0.403453	0.740610
O14	O	0.907258	-0.403468	0.570317
O15	O	1.118943	-0.312256	0.740620
O16	O	1.118801	-0.523955	0.441177
O17	O	1.027605	-0.523895	0.570248
C18	C	0.880317	-0.357868	0.505814
C19	C	0.797772	-0.357865	0.505858
C20	C	0.598336	-0.407594	0.575852
C21	C	0.548933	-0.339875	0.601707
C22	C	0.646641	-0.357906	0.505807
C23	C	0.548962	-0.425664	0.479951
C24	C	0.500656	-0.357952	0.505759
C25	C	0.598326	-0.290151	0.531712
C26	C	0.598359	-0.375986	0.409911
C27	C	0.548979	-0.308220	0.435729
C28	C	0.730739	-0.357880	0.505837
C29	C	0.416560	-0.357970	0.505729
C30	C	1.073212	-0.550871	0.505727
C31	C	1.073256	-0.633417	0.505744
C32	C	1.122952	-0.832873	0.435653
C33	C	1.141095	-0.882200	0.531534
C34	C	1.073298	-0.784547	0.505786
C35	C	1.055230	-0.882302	0.409948
C36	C	1.073340	-0.930532	0.505818
C37	C	1.091476	-0.832787	0.601717
C38	C	1.005579	-0.832884	0.480067
C39	C	1.023697	-0.882189	0.576014
C40	C	1.073276	-0.700449	0.505766
C41	C	1.073362	-1.014629	0.505848
C42	C	1.266975	-0.357971	0.505724
C43	C	1.349521	-0.357992	0.505705
C44	C	1.073321	-0.357844	0.779802
C45	C	1.073344	-0.357812	0.896579
C46	C	1.073347	-0.164213	0.505834
C47	C	1.073380	-0.081668	0.505861
C48	C	1.073260	-0.357940	0.232801
C49	C	1.073382	-0.357763	0.116025
C50	C	1.120868	-0.310321	0.951447
C51	C	1.120886	-0.310295	1.061172
C52	C	1.025852	-0.405256	1.061149
C53	C	1.025831	-0.405278	0.951427
C54	C	1.168380	-0.262855	0.896600
C55	C	1.215909	-0.215361	0.951468
C56	C	1.215927	-0.215334	1.061193
C57	C	1.168416	-0.262802	1.116048
H58	H	1.164957	-0.811218	0.376405
N59	N	0.521762	-0.497518	0.452509
N60	N	0.482170	-0.505576	0.372933
H61	H	0.462962	-0.556324	0.353556
H62	H	0.981725	-0.903707	0.635405
H63	H	0.987121	-0.443938	0.906751
H64	H	1.039931	-0.904050	0.328886
H65	H	1.198382	-0.903864	0.553308
H66	H	0.527223	-0.324597	0.682784
N67	N	0.521942	-0.255485	0.361392
N68	N	0.482352	-0.276424	0.286646
H69	H	0.463254	-0.239179	0.234148
N70	N	1.168356	-0.262895	0.784521
N71	N	1.183838	-0.320846	0.735524
H72	H	1.183820	-0.320877	0.656368
H73	H	0.619919	-0.232852	0.553652
N74	N	0.625518	-0.460213	0.650249
N75	N	0.609659	-0.453471	0.745136
H76	H	0.628857	-0.490631	0.797682
N77	N	1.110754	-0.805614	0.703433
N78	N	1.113873	-0.737406	0.719825
H79	H	1.127490	-0.718212	0.791659
N80	N	0.933734	-0.805692	0.452708
N81	N	0.906119	-0.821549	0.365696
H82	H	0.855377	-0.802344	0.346362
N83	N	0.625609	-0.395182	0.308229
N84	N	0.609826	-0.456645	0.268946
H85	H	0.629072	-0.470210	0.197131
H86	H	1.254587	-0.176710	0.906798
N87	N	1.264470	-0.166810	1.117225
N88	N	1.306882	-0.124433	1.068237
H89	H	1.341169	-0.090162	1.107807
H90	H	1.168425	-0.262767	1.205393
H91	H	0.987171	-0.443901	1.105821
