data_functionalizedCrystal
_audit_creation_method	'MofGen! by Chris Wilmer'
_symmetry_space_group_name_H-M	'P1'
_symmetry_Int_Tables_number	1
_symmetry_cell_setting	triclinic
loop_
_symmetry_equiv_pos_as_xyz
  x,y,z
_cell_length_a	27.354012
_cell_length_b	27.353283
_cell_length_c	27.349551
_cell_angle_alpha	60.005606
_cell_angle_beta	60.011434
_cell_angle_gamma	59.993282
loop_
_atom_site_label
_atom_site_type_symbol
_atom_site_fract_x
_atom_site_fract_y
_atom_site_fract_z
O1	O	0.067635	-0.714267	0.597330
O2	O	0.025429	-0.556105	0.481282
O3	O	0.125575	-0.656186	0.481214
O4	O	-0.032512	-0.614186	0.597397
O5	O	0.158797	-0.622968	0.514367
O6	O	0.058650	-0.522887	0.514434
O7	O	0.100856	-0.681048	0.630482
Zn8	Zn	0.085028	-0.596693	0.577722
Zn9	Zn	0.041257	-0.640460	0.534042
O10	O	0.000709	-0.580967	0.630549
N11	N	0.114901	-0.566828	0.607534
N12	N	0.011389	-0.670331	0.504229
C13	C	0.179404	-0.338196	0.672015
C14	C	0.179501	-0.502386	0.836160
C15	C	0.179415	-0.502363	0.671996
C16	C	0.343611	-0.502373	0.671960
C17	C	0.197478	-0.392371	0.690061
C18	C	0.197534	-0.484321	0.781984
C19	C	0.289434	-0.484312	0.690032
C20	C	0.197486	-0.484308	0.690051
C21	C	0.156398	-0.269238	0.649045
C22	C	0.156418	-0.525342	0.649015
C23	C	0.220484	-0.461329	0.713032
C24	C	0.443889	-0.485097	0.619172
C25	C	0.506571	-0.505993	0.598266
C26	C	0.506589	-0.607412	0.636940
C27	C	0.443909	-0.586515	0.657848
C28	C	0.171510	-0.237888	0.587422
C29	C	0.150593	-0.175201	0.566543
C30	C	0.099458	-0.175218	0.668913
C31	C	0.120375	-0.237905	0.689792
C32	C	0.094789	-0.510201	0.664176
C33	C	0.073888	-0.531091	0.643278
C34	C	0.176239	-0.582263	0.592072
C35	C	0.197142	-0.561373	0.612963
C36	C	0.094933	-0.510244	0.936476
C37	C	0.074073	-0.531151	0.999161
C38	C	0.176453	-0.582335	0.999126
C39	C	0.197312	-0.561429	0.936439
C40	C	0.156551	-0.525382	0.905116
C41	C	0.412561	-0.525357	0.648961
C42	C	-0.098513	-0.688235	0.485867
C43	C	-0.006461	-0.688368	0.394066
C44	C	-0.006645	-0.780264	0.486040
C45	C	-0.006630	-0.688361	0.486097
C46	C	-0.029562	-0.711308	0.463018
N47	N	0.537030	-0.566846	0.607436
O48	O	0.741877	-0.576849	0.459995
O49	O	0.742050	-0.693241	0.618010
O50	O	0.741986	-0.692977	0.517791
O51	O	0.741941	-0.577114	0.560214
O52	O	0.642405	-0.659839	0.551046
O53	O	0.642469	-0.660104	0.651265
O54	O	0.642296	-0.543712	0.493251
Zn55	Zn	0.626572	-0.596646	0.577538
Zn56	Zn	0.757774	-0.640307	0.533723
O57	O	0.642360	-0.543976	0.593469
N58	N	0.847316	-0.670107	0.503818
N59	N	0.114877	-0.144758	0.607577
O60	O	-0.032498	0.060193	0.597441
O61	O	0.125523	0.060193	0.481067
O62	O	0.025289	0.060179	0.481345
O63	O	0.067736	0.060207	0.597163
O64	O	0.058511	-0.039410	0.514543
O65	O	0.158745	-0.039397	0.514265
O66	O	0.000724	-0.039396	0.630638
Zn67	Zn	0.085009	-0.055208	0.577722
Zn68	Zn	0.041238	0.076005	0.533983
O69	O	0.100958	-0.039382	0.630360
N70	N	0.011362	0.165555	0.504130
N71	N	0.115121	-0.566884	1.029592
O72	O	0.104990	-0.714248	1.234528
O73	O	-0.011371	-0.556177	1.234539
O74	O	-0.011103	-0.656395	1.234497
O75	O	0.104722	-0.614030	1.234569
O76	O	0.022090	-0.623190	1.134913
O77	O	0.021822	-0.522972	1.134954
O78	O	0.138182	-0.681044	1.134943
Zn79	Zn	0.085272	-0.596736	1.119137
Zn80	Zn	0.041539	-0.640484	1.250344
O81	O	0.137914	-0.580826	1.134984
N82	N	0.011689	-0.670343	1.339890
C83	C	0.038085	-0.519567	0.481870
C84	C	0.162104	-0.643505	0.481786
C85	C	0.088200	-0.717587	0.629893
C86	C	-0.035819	-0.593649	0.629977
C87	C	0.692280	-0.692701	0.654545
C88	C	0.692203	-0.692374	0.530435
C89	C	0.692063	-0.544251	0.456717
C90	C	0.692144	-0.544580	0.580825
C91	C	0.162000	0.010521	0.481600
C92	C	0.037914	0.010381	0.481984
C93	C	-0.035795	0.010399	0.630065
C94	C	0.088333	0.010415	0.629722
C95	C	-0.010799	-0.519660	1.184747
C96	C	-0.010461	-0.643761	1.184677
C97	C	0.137610	-0.717561	1.184734
C98	C	0.137280	-0.593452	1.184783
H99	H	0.061737	-0.480889	0.910978
H100	H	0.028825	0.010378	0.445599
H101	H	0.174144	-0.762957	1.184724
O102	O	-0.053929	-0.654459	1.184627
C103	C	-0.105587	-0.603018	1.184591
H104	H	-0.105103	-0.574441	1.203491
H105	H	-0.106270	-0.575979	1.136802
C106	C	-0.162343	-0.657052	1.200361
C107	C	-0.161751	-0.621957	1.223579
H108	H	-0.196988	-0.668734	1.224408
H109	H	-0.127540	-0.691709	1.200383
H110	H	-0.162910	-0.634515	1.160537
H111	H	-0.161176	-0.644497	1.263399
H112	H	-0.196555	-0.587304	1.223565
H113	H	0.207290	0.010797	0.444973
H114	H	0.029071	-0.474132	0.445424
H115	H	0.097215	-0.763020	0.666340
H116	H	0.207509	-0.652460	0.445301
O117	O	0.180636	-0.582537	1.184773
C118	C	0.158823	-0.523679	1.184801
H119	H	0.120387	-0.495339	1.165941
H120	H	0.142124	-0.524561	1.232582
C121	C	0.256685	-0.531284	1.168928
C122	C	0.209479	-0.496475	1.145759
H123	H	0.287932	-0.514503	1.144847
H124	H	0.271380	-0.570938	1.168911
H125	H	0.242761	-0.532016	1.208744
H126	H	0.223402	-0.495750	1.105946
H127	H	0.194787	-0.456820	1.145768
O128	O	-0.089980	0.010438	0.673576
C129	C	-0.127251	0.010418	0.652033
H130	H	-0.111044	0.029256	0.601028
H131	H	-0.125636	-0.037360	0.667268
C132	C	-0.211944	0.026351	0.739463
C133	C	-0.192041	0.049493	0.676818
H134	H	-0.251910	0.050452	0.754754
H135	H	-0.186834	0.026362	0.753979
H136	H	-0.210593	-0.013464	0.752151
H137	H	-0.193385	0.089304	0.664132
H138	H	-0.217153	0.049490	0.662301
O139	O	-0.090011	-0.582864	0.673449
C140	C	-0.127220	-0.524030	0.651793
H141	H	-0.098383	-0.495600	0.613340
H142	H	-0.157459	-0.524938	0.635160
C143	C	-0.201389	-0.531861	0.749776
C144	C	-0.165971	-0.496940	0.702551
H145	H	-0.225295	-0.515151	0.781086
H146	H	-0.176322	-0.571499	0.764367
H147	H	-0.226583	-0.532614	0.735908
H148	H	-0.140773	-0.496193	0.716417
H149	H	-0.191035	-0.457301	0.687964
O150	O	0.692362	-0.736238	0.708708
C151	C	0.692354	-0.714673	0.745980
H152	H	0.711167	-0.676217	0.717193
H153	H	0.644587	-0.698069	0.776239
C154	C	0.708350	-0.812725	0.820061
C155	C	0.731461	-0.765496	0.784705
H156	H	0.732470	-0.844075	0.843951
H157	H	0.708353	-0.827254	0.794952
H158	H	0.668544	-0.798881	0.845272
H159	H	0.771263	-0.779339	0.759490
H160	H	0.731466	-0.750970	0.809811
O161	O	0.692247	-0.735873	0.519700
C162	C	0.692295	-0.787551	0.571110
H163	H	0.711166	-0.787033	0.599692
H164	H	0.644537	-0.788295	0.598155
C165	C	0.708189	-0.844334	0.517016
C166	C	0.731372	-0.843700	0.552120
H167	H	0.732291	-0.878969	0.505303
H168	H	0.708154	-0.809517	0.482381
H169	H	0.668391	-0.844951	0.539560
H170	H	0.771166	-0.843075	0.529574
H171	H	0.731414	-0.878518	0.586751
O172	O	0.692022	-0.500727	0.402539
C173	C	0.691993	-0.522280	0.365280
H174	H	0.710891	-0.573286	0.381473
H175	H	0.644208	-0.507088	0.366931
C176	C	0.707770	-0.434801	0.280588
C177	C	0.730986	-0.497447	0.300473
H178	H	0.731820	-0.419481	0.240611
H179	H	0.707787	-0.420279	0.305690
H180	H	0.667950	-0.422149	0.281969
H181	H	0.770802	-0.510098	0.299099
H182	H	0.730976	-0.511970	0.275369
O183	O	0.099280	0.010386	0.673077
C184	C	0.158134	0.010401	0.651260
H185	H	0.186449	-0.008448	0.612820
H186	H	0.157247	0.058179	0.634562
C187	C	0.150594	-0.005509	0.749125
C188	C	0.185373	-0.028665	0.701914
H189	H	0.167397	-0.029604	0.780370
H190	H	0.110943	-0.005517	0.763823
H191	H	0.149858	0.034305	0.735202
H192	H	0.186103	-0.068475	0.715836
H193	H	0.225026	-0.028665	0.687219
H194	H	0.692134	-0.508185	0.589902
O195	O	-0.054326	-0.465477	1.184776
C196	C	-0.032770	-0.428217	1.184785
H197	H	0.005665	-0.457017	1.203649
H198	H	-0.016144	-0.397979	1.137015
C199	C	-0.130806	-0.354086	1.200672
C200	C	-0.083603	-0.389459	1.223847
H201	H	-0.162162	-0.330176	1.224765
H202	H	-0.145329	-0.379188	1.200664
H203	H	-0.116943	-0.328893	1.160864
H204	H	-0.097464	-0.414657	1.263651
H205	H	-0.069083	-0.364361	1.223863
H206	H	0.023897	-0.518815	1.024687
H207	H	0.209648	-0.611676	1.024626
H208	H	0.061625	-0.480862	0.693528
O209	O	0.257185	-0.576240	0.906044
C210	C	0.283232	-0.639026	0.921335
H211	H	0.253531	-0.660968	0.966850
H212	H	0.287882	-0.653202	0.886054
C213	C	0.382002	-0.631873	0.868313
C214	C	0.345525	-0.658822	0.924217
H215	H	0.420428	-0.644084	0.870088
H216	H	0.364454	-0.589572	0.858009
H217	H	0.385870	-0.643688	0.838917
H218	H	0.341651	-0.647001	0.953610
H219	H	0.363073	-0.701122	0.934527
O220	O	0.215884	-0.617241	0.557038
C221	C	0.274760	-0.626139	0.548156
H222	H	0.274650	-0.588351	0.555164
H223	H	0.292739	-0.670800	0.581510
C224	C	0.315071	-0.672989	0.475323
C225	C	0.314936	-0.626574	0.483926
H226	H	0.339854	-0.673260	0.435704
H227	H	0.275405	-0.666997	0.481309
H228	H	0.330052	-0.710201	0.503122
H229	H	0.299948	-0.589362	0.456133
H230	H	0.354600	-0.632560	0.477935
O231	O	0.014027	-0.516315	0.657901
C232	C	-0.001153	-0.484757	0.605244
H233	H	0.034167	-0.463539	0.567583
H234	H	-0.003241	-0.516982	0.592045
C235	C	-0.106009	-0.461475	0.662683
C236	C	-0.062630	-0.435410	0.616429
H237	H	-0.143932	-0.431037	0.669582
H238	H	-0.095782	-0.482738	0.698159
H239	H	-0.107741	-0.488329	0.651678
H240	H	-0.060893	-0.408563	0.627438
H241	H	-0.072858	-0.414142	0.580955
H242	H	0.418403	-0.619300	0.682106
O243	O	0.257002	-0.575973	0.598169
C244	C	0.272121	-0.523297	0.566635
H245	H	0.236763	-0.485638	0.545439
H246	H	0.274214	-0.510111	0.598871
C247	C	0.377001	-0.580693	0.543310
C248	C	0.333576	-0.534441	0.517272
H249	H	0.414911	-0.587568	0.512861
H250	H	0.366816	-0.616182	0.564556
H251	H	0.378738	-0.569699	0.570172
H252	H	0.331835	-0.545439	0.490416
H253	H	0.343763	-0.498954	0.496019
H254	H	0.532080	-0.473208	0.574011
O255	O	0.537107	-0.666816	0.645602
C256	C	0.573377	-0.688544	0.679696
H257	H	0.582764	-0.649848	0.674786
H258	H	0.549241	-0.710139	0.728819
C259	C	0.621388	-0.782905	0.663245
C260	C	0.632922	-0.735379	0.657210
H261	H	0.658117	-0.811797	0.649377
H262	H	0.596951	-0.768268	0.640277
H263	H	0.601273	-0.800894	0.704182
H264	H	0.653029	-0.717386	0.616273
H265	H	0.657363	-0.750014	0.680171
O266	O	0.413502	-0.425663	0.610438
C267	C	0.428783	-0.393322	0.548546
H268	H	0.474289	-0.420714	0.523858
H269	H	0.393492	-0.383967	0.531468
C270	C	0.375783	-0.299986	0.567682
C271	C	0.431678	-0.333628	0.537360
H272	H	0.377567	-0.263162	0.560781
H273	H	0.365486	-0.321774	0.609380
H274	H	0.346380	-0.292196	0.553447
H275	H	0.461078	-0.341423	0.551601
H276	H	0.441980	-0.311839	0.495664
O277	O	0.206473	-0.268230	0.547758
C278	C	0.215332	-0.227116	0.488889
H279	H	0.177533	-0.182434	0.489015
H280	H	0.259982	-0.220445	0.470917
C281	C	0.262182	-0.306455	0.448535
C282	C	0.215753	-0.251576	0.448689
H283	H	0.262445	-0.321543	0.423736
H284	H	0.256216	-0.334155	0.488196
H285	H	0.299385	-0.300888	0.433560
H286	H	0.178551	-0.257145	0.463671
H287	H	0.221714	-0.223878	0.409029
H288	H	0.162897	-0.149674	0.516363
H289	H	0.108067	-0.263426	0.739970
O290	O	0.064454	-0.144871	0.708574
C291	C	0.055623	-0.185986	0.767443
H292	H	0.062631	-0.230670	0.767329
H293	H	0.089003	-0.192652	0.785386
C294	C	-0.017188	-0.106649	0.807808
C295	C	-0.008586	-0.161529	0.807667
H296	H	-0.056794	-0.091563	0.832621
H297	H	-0.011237	-0.078949	0.768147
H298	H	0.010633	-0.112212	0.822758
H299	H	-0.036402	-0.155964	0.792709
H300	H	-0.014544	-0.189228	0.847327
