data_functionalizedCrystal
_audit_creation_method	'MofGen! by Chris Wilmer'
_symmetry_space_group_name_H-M	'P1'
_symmetry_Int_Tables_number	1
_symmetry_cell_setting	triclinic
loop_
_symmetry_equiv_pos_as_xyz
  x,y,z
_cell_length_a	8.559649
_cell_length_b	14.519731
_cell_length_c	7.681481
_cell_angle_alpha	84.245782
_cell_angle_beta	94.913240
_cell_angle_gamma	76.733759
loop_
_atom_site_label
_atom_site_type_symbol
_atom_site_fract_x
_atom_site_fract_y
_atom_site_fract_z
O1	O	2.104959	-0.021482	-0.146399
O2	O	1.639896	0.026136	-0.146411
O3	O	1.884742	-0.132795	-0.146389
O4	O	1.860113	0.137449	-0.146421
O5	O	1.914878	-0.152396	0.146472
O6	O	1.670033	0.006535	0.146450
O7	O	2.135095	-0.041083	0.146461
Zn8	Zn	1.907349	-0.020386	0.192953
Zn9	Zn	1.867643	0.005439	-0.192903
O10	O	1.890249	0.117848	0.146439
C11	C	1.595445	0.019944	0.000018
C12	C	1.418097	0.030685	0.000014
C13	C	1.898656	-0.176872	0.000042
C14	C	1.895199	-0.279005	0.000043
C15	C	1.892389	-0.361947	0.000039
C16	C	1.888877	-0.466003	0.000025
C17	C	1.886090	-0.548941	0.000014
C18	C	1.882578	-0.653004	0.000003
C19	C	2.179546	-0.034891	0.000028
C20	C	2.356893	-0.045632	0.000021
C21	C	1.876335	0.161925	0.000005
C22	C	1.879791	0.264058	-0.000008
N23	N	1.934459	-0.038013	0.456290
N24	N	1.840545	0.023057	-0.456240
H25	H	1.334809	0.104247	-0.000004
H26	H	2.030343	-0.100346	0.531504
H27	H	1.744679	0.085392	0.468555
C28	C	1.469386	-0.145007	0.000036
C29	C	1.477779	-0.224233	0.152118
C30	C	1.590283	-0.323609	0.152133
C31	C	1.694394	-0.343760	0.000066
C32	C	1.686004	-0.264532	-0.152027
C33	C	1.573500	-0.165155	-0.152042
H34	H	1.400707	-0.209318	0.264697
H35	H	1.596493	-0.382259	0.264724
H36	H	1.777677	-0.417324	0.000078
H37	H	1.763077	-0.279446	-0.264606
H38	H	1.567290	-0.106505	-0.264633
