data_functionalizedCrystal
_audit_creation_method	'MofGen! by Chris Wilmer'
_symmetry_space_group_name_H-M	'P1'
_symmetry_Int_Tables_number	1
_symmetry_cell_setting	triclinic
loop_
_symmetry_equiv_pos_as_xyz
  x,y,z
_cell_length_a	19.805407
_cell_length_b	19.077068
_cell_length_c	19.805398
_cell_angle_alpha	92.268147
_cell_angle_beta	89.986879
_cell_angle_gamma	92.327086
loop_
_atom_site_label
_atom_site_type_symbol
_atom_site_fract_x
_atom_site_fract_y
_atom_site_fract_z
Zn1	Zn	1.023860	-0.280211	-0.393534
Zn2	Zn	1.019237	-0.397912	-0.284888
Zn3	Zn	0.910687	-0.280232	-0.280359
Zn4	Zn	0.906089	-0.397872	-0.398033
O5	O	0.964968	-0.339057	-0.339203
O6	O	1.117963	-0.295832	-0.379134
O7	O	1.004827	-0.382327	-0.189571
O8	O	0.929558	-0.181738	-0.291594
O9	O	1.114567	-0.382306	-0.299312
O10	O	1.012706	-0.181722	-0.374742
O11	O	0.925075	-0.295868	-0.186244
O12	O	0.815360	-0.295830	-0.295956
O13	O	0.921723	-0.382239	-0.492152
O14	O	0.811983	-0.382260	-0.382411
O15	O	1.008248	-0.295793	-0.488846
O16	O	1.000370	-0.496398	-0.303675
O17	O	0.917240	-0.496369	-0.386802
C18	C	0.789113	-0.339043	-0.339181
C19	C	0.713880	-0.339055	-0.339188
C20	C	0.676793	-0.384126	-0.384137
C21	C	0.606104	-0.384127	-0.384147
C22	C	0.572505	-0.339060	-0.339203
C23	C	0.609597	-0.293983	-0.294252
C24	C	0.680285	-0.293979	-0.294246
C25	C	0.324524	-0.293999	-0.294275
C26	C	0.253831	-0.294008	-0.294283
C27	C	0.250343	-0.384147	-0.384176
C28	C	0.321030	-0.384143	-0.384170
C29	C	0.358117	-0.339064	-0.339221
C30	C	0.434766	-0.339062	-0.339212
C31	C	0.495857	-0.339065	-0.339209
C32	C	0.957823	-0.521921	-0.346233
C33	C	0.954828	-0.600151	-0.349263
C34	C	0.996735	-0.636895	-0.307442
C35	C	0.993923	-0.710401	-0.310296
C36	C	0.949198	-0.747160	-0.354968
C37	C	0.907289	-0.710411	-0.396793
C38	C	0.910106	-0.636907	-0.393942
C39	C	0.936132	-0.966995	-0.368134
C40	C	0.933317	-1.040504	-0.370981
C41	C	1.019952	-1.040489	-0.284485
C42	C	1.022762	-0.966983	-0.281635
C43	C	0.980855	-0.930240	-0.323462
N44	N	0.946320	-0.822295	-0.357884
N45	N	0.983737	-0.855107	-0.320549
C46	C	1.141510	-0.339071	-0.339226
C47	C	1.216742	-0.339077	-0.339236
C48	C	0.964988	-0.339009	-0.515744
C49	C	0.964997	-0.338989	-0.590975
C50	C	0.972160	-0.155479	-0.332161
C51	C	0.975225	-0.077249	-0.329160
C52	C	1.006635	-0.383896	-1.054492
C53	C	1.006615	-0.383915	-0.983805
C54	C	0.965084	-0.338910	-0.946734
C55	C	0.923564	-0.293887	-0.980355
C56	C	0.923581	-0.293872	-1.051042
C57	C	0.923497	-0.293947	-0.695284
C58	C	0.923485	-0.293964	-0.624593
C59	C	1.006531	-0.383990	-0.628047
C60	C	1.006547	-0.383975	-0.698734
C61	C	0.965026	-0.338956	-0.732349
C62	C	0.965046	-0.338937	-0.808996
C63	C	0.965066	-0.338925	-0.870088
C64	C	0.964989	-0.339053	-0.163347
C65	C	0.965120	-0.338875	-0.088109
H66	H	0.575910	-0.420830	-0.420749
F67	F	0.865504	-0.597801	-0.438455
F68	F	0.879280	-0.246058	-0.731052
H69	H	1.054071	-1.070413	-0.250432
F70	F	0.363985	-0.246020	-0.246438
F71	F	0.210867	-0.432124	-0.432015
H72	H	1.059180	-0.937055	-0.245260
F73	F	0.573837	-0.246015	-0.246423
H74	H	1.040338	-0.420650	-0.600669
F75	F	1.050843	-0.431794	-1.093939
H76	H	0.889746	-0.257246	-0.950167
F77	F	1.038529	-0.749504	-0.265787
F78	F	1.050752	-0.431875	-0.738183
F79	F	0.218073	-0.246038	-0.246446
H80	H	0.710481	-0.257273	-0.257647
H81	H	1.033152	-0.606970	-0.271063
F82	F	1.050802	-0.431831	-0.948031
F83	F	0.885706	-1.079625	-0.418521
F84	F	0.891530	-0.927900	-0.412651
F85	F	0.859694	-0.749535	-0.444339
F86	F	0.879279	-0.246061	-0.585141
H87	H	0.889776	-0.257211	-1.078411
H88	H	0.348383	-0.420844	-0.420766
F89	F	0.712545	-0.432097	-0.431970
