data_functionalizedCrystal
_audit_creation_method	'MofGen! by Chris Wilmer'
_symmetry_space_group_name_H-M	'P1'
_symmetry_Int_Tables_number	1
_symmetry_cell_setting	triclinic
loop_
_symmetry_equiv_pos_as_xyz
  x,y,z
_cell_length_a	10.654550
_cell_length_b	23.532407
_cell_length_c	9.130313
_cell_angle_alpha	89.990840
_cell_angle_beta	89.999724
_cell_angle_gamma	83.666804
loop_
_atom_site_label
_atom_site_type_symbol
_atom_site_fract_x
_atom_site_fract_y
_atom_site_fract_z
O1	O	1.665305	0.079985	-0.121707
O2	O	1.299585	0.087605	-0.121735
O3	O	1.493474	0.000935	-0.121693
O4	O	1.471417	0.166655	-0.121749
O5	O	1.493460	0.000933	0.121905
O6	O	1.299572	0.087603	0.121863
O7	O	1.665292	0.079982	0.121892
Cu8	Cu	1.482431	0.083792	0.144120
Cu9	Cu	1.482447	0.083795	-0.143964
O10	O	1.471404	0.166652	0.121850
C11	C	1.252799	0.087044	0.000061
C12	C	1.113408	0.085370	0.000051
C13	C	1.032306	0.136400	0.000038
C14	C	0.901335	0.134824	0.000064
C15	C	0.932582	0.031183	0.000110
C16	C	1.063550	0.032760	0.000094
C17	C	1.492905	-0.020286	0.000110
C18	C	1.491217	-0.083514	0.000121
C19	C	1.595364	-0.481938	0.000049
C20	C	1.593795	-0.541349	0.000037
O21	O	1.690341	-0.577464	-0.000009
N22	N	1.478529	-0.564726	0.000030
C23	C	1.364824	-0.528689	0.000018
O24	O	1.266636	-0.554029	0.000009
C25	C	1.366394	-0.469280	0.000019
C26	C	1.481668	-0.445906	0.000041
C27	C	1.710629	-0.458564	0.000070
C28	C	1.712197	-0.399158	0.000084
C29	C	1.598500	-0.363126	0.000077
C30	C	1.483236	-0.386500	0.000055
C31	C	1.252690	-0.433244	-0.000003
C32	C	1.254270	-0.373831	-0.000004
C33	C	1.369544	-0.350458	0.000019
C34	C	1.371107	-0.291061	0.000062
N35	N	1.486374	-0.267684	0.000070
C36	C	1.600070	-0.303716	0.000077
C37	C	1.361535	-0.653453	0.000014
C38	C	1.359964	-0.712861	0.000023
C39	C	1.588936	-0.725517	0.000040
C40	C	1.590506	-0.666108	0.000041
C41	C	1.476802	-0.630076	0.000022
C42	C	1.603355	-0.178958	0.000108
C43	C	1.604913	-0.119546	0.000128
C44	C	1.375942	-0.106896	0.000104
C45	C	1.374383	-0.166303	0.000091
C46	C	1.488100	-0.202333	0.000088
O47	O	1.274613	-0.254911	0.000103
O48	O	1.698241	-0.278369	0.000067
C49	C	1.712079	0.080543	0.000093
C50	C	1.851469	0.082217	0.000093
C51	C	1.471972	0.187873	0.000044
C52	C	1.473661	0.251101	0.000023
N53	N	1.482429	0.083790	0.346743
N54	N	1.482458	0.083793	-0.346586
C55	C	1.568311	0.045429	0.423413
C56	C	1.568323	0.045429	0.576750
C57	C	1.396567	0.122156	0.576733
C58	C	1.396550	0.122153	0.423399
H59	H	0.835306	0.176378	0.000057
H60	H	1.326648	0.153392	0.639161
O61	O	1.142164	-0.016867	0.000040
C62	C	1.070077	-0.063640	0.000106
H63	H	0.972134	-0.049576	-0.046011
H64	H	1.118845	-0.099426	-0.070604
H65	H	1.060961	-0.079740	0.116981
H66	H	1.326609	0.153392	0.360969
H67	H	1.072896	0.179239	0.000014
H68	H	1.638255	0.014191	0.639171
H69	H	1.806065	-0.380133	0.000096
O70	O	1.265537	-0.071864	-0.000167
C71	C	1.259641	-0.037103	-0.126310
H72	H	1.324141	-0.058597	-0.214477
H73	H	1.158411	-0.030820	-0.168682
H74	H	1.291600	0.006217	-0.097778
O75	O	0.883937	-0.019871	0.000075
C76	C	0.750949	-0.010322	0.000119
H77	H	0.719632	0.033998	-0.046016
H78	H	0.711148	-0.044015	-0.070587
H79	H	0.714531	-0.013226	0.116990
O80	O	1.717007	-0.096936	0.000079
C81	C	1.817017	-0.141483	0.000114
H82	H	1.782331	-0.181971	-0.046016
H83	H	1.897545	-0.128741	-0.070601
H84	H	1.852046	-0.149759	0.116981
O85	O	1.140788	-0.456005	-0.000236
C86	C	1.133024	-0.489966	-0.126429
H87	H	1.232191	-0.504369	-0.168462
H88	H	1.083436	-0.529059	-0.098083
H89	H	1.077166	-0.463932	-0.214783
H90	H	1.268937	-0.624119	0.000011
H91	H	1.803219	-0.487896	0.000070
O92	O	1.702592	-0.643499	-0.000017
C93	C	1.802598	-0.688048	0.000031
H94	H	1.767906	-0.728538	-0.046083
H95	H	1.883127	-0.675312	-0.070691
H96	H	1.837627	-0.696319	0.116900
O97	O	1.713736	-0.214010	0.000307
C98	C	1.719693	-0.248754	0.126484
H99	H	1.620058	-0.252171	0.168527
H100	H	1.767064	-0.293204	0.098111
H101	H	1.776775	-0.228983	0.214840
H102	H	1.681514	-0.754865	0.000040
H103	H	1.266096	-0.731886	0.000030
O104	O	1.143698	-0.338913	0.000043
C105	C	1.041630	-0.372288	-0.000018
H106	H	1.074075	-0.416496	0.046100
H107	H	0.962002	-0.350705	0.070693
H108	H	1.006278	-0.376653	-0.116893
H109	H	1.280517	-0.185334	0.000113
O110	O	1.651771	0.008106	0.349176
C111	C	1.727593	-0.025743	0.449736
H112	H	1.676129	-0.026600	0.559046
H113	H	1.747318	-0.071143	0.405459
H114	H	1.820643	-0.006859	0.466018
