data_functionalizedCrystal
_audit_creation_method	'MofGen! by Chris Wilmer'
_symmetry_space_group_name_H-M	'P1'
_symmetry_Int_Tables_number	1
_symmetry_cell_setting	triclinic
loop_
_symmetry_equiv_pos_as_xyz
  x,y,z
_cell_length_a	23.532407
_cell_length_b	23.532407
_cell_length_c	22.010155
_cell_angle_alpha	90.003069
_cell_angle_beta	89.999577
_cell_angle_gamma	97.151322
loop_
_atom_site_label
_atom_site_type_symbol
_atom_site_fract_x
_atom_site_fract_y
_atom_site_fract_z
O1	O	0.069127	-0.755264	-0.050455
O2	O	0.569127	-0.255264	0.449545
O3	O	0.079130	-0.589400	-0.050474
O4	O	0.579130	-0.089400	0.449526
O5	O	-0.008803	-0.677334	-0.050453
O6	O	0.491197	-0.177334	0.449547
O7	O	0.157060	-0.667330	-0.050476
O8	O	0.657060	-0.167330	0.449524
O9	O	-0.008790	-0.677318	0.050597
O10	O	0.491210	-0.177318	0.550597
O11	O	0.079143	-0.589384	0.050576
O12	O	0.579143	-0.089384	0.550576
O13	O	0.069140	-0.755248	0.050595
O14	O	0.569140	-0.255248	0.550595
Cu15	Cu	0.074143	-0.672315	0.059812
Cu16	Cu	0.574143	-0.172315	0.559812
Cu17	Cu	0.074127	-0.672333	-0.059691
Cu18	Cu	0.574127	-0.172333	0.440309
O19	O	0.157073	-0.667314	0.050574
O20	O	0.657073	-0.167314	0.550574
C21	C	0.078882	-0.568176	0.000049
C22	C	0.578882	-0.068176	0.500049
C23	C	0.078116	-0.504959	0.000042
C24	C	0.578116	-0.004959	0.500042
C25	C	-0.030013	-0.677071	0.000074
C26	C	0.469987	-0.177071	0.500074
C27	C	-0.093230	-0.676305	0.000078
C28	C	0.406770	-0.176305	0.500078
N29	N	0.074153	-0.672305	0.143865
N30	N	0.574153	-0.172305	0.643865
C31	C	-0.492333	-0.723539	0.000050
C32	C	0.007667	-0.223539	0.500050
C33	C	-0.551733	-0.722827	0.000046
C34	C	-0.051733	-0.222827	0.500046
O35	O	-0.588478	-0.766613	0.000028
O36	O	-0.088478	-0.266613	0.500028
N37	N	-0.574359	-0.670551	0.000040
N38	N	-0.074359	-0.170551	0.500040
C39	C	-0.537582	-0.618983	0.000033
C40	C	-0.037582	-0.118983	0.500033
O41	O	-0.562281	-0.574452	0.000027
O42	O	-0.062281	-0.074452	0.500027
C43	C	-0.478182	-0.619695	0.000033
C44	C	0.021818	-0.119695	0.500033
C45	C	-0.455560	-0.671974	0.000045
C46	C	0.044440	-0.171974	0.500045
C47	C	-0.469710	-0.775814	0.000061
C48	C	0.030290	-0.275814	0.500061
C49	C	-0.410313	-0.776525	0.000067
C50	C	0.089687	-0.276525	0.500067
C51	C	-0.373540	-0.724961	0.000062
C52	C	0.126460	-0.224961	0.500062
C53	C	-0.396164	-0.672685	0.000051
C54	C	0.103836	-0.172685	0.500051
C55	C	-0.441406	-0.568127	0.000022
C56	C	0.058594	-0.068127	0.500022
C57	C	-0.382004	-0.568844	0.000022
C58	C	0.117996	-0.068844	0.500022
C59	C	-0.359381	-0.621123	0.000034
C60	C	0.140619	-0.121123	0.500034
C61	C	-0.299995	-0.621832	0.000052
C62	C	0.200005	-0.121832	0.500052
N63	N	-0.277368	-0.674109	0.000057
N64	N	0.222632	-0.174109	0.500057
C65	C	-0.314141	-0.725673	0.000062
C66	C	0.185859	-0.225673	0.500062
C67	C	-0.662324	-0.617491	0.000031
C68	C	-0.162324	-0.117491	0.500031
C69	C	-0.721722	-0.616778	0.000035
C70	C	-0.221722	-0.116778	0.500035
C71	C	-0.735869	-0.720623	0.000047
C72	C	-0.235869	-0.220623	0.500047
C73	C	-0.676470	-0.721335	0.000047
C74	C	-0.176470	-0.221335	0.500047
C75	C	-0.639698	-0.669767	0.000037
C76	C	-0.139698	-0.169767	0.500037
C77	C	-0.189405	-0.727163	0.000075
C78	C	0.310595	-0.227163	0.500075
C79	C	-0.130003	-0.727869	0.000083
C80	C	0.369997	-0.227869	0.500083
C81	C	-0.115860	-0.624025	0.000069
C82	C	0.384140	-0.124025	0.500069
C83	C	-0.175257	-0.623318	0.000064
C84	C	0.324743	-0.123318	0.500064
C85	C	-0.212029	-0.674891	0.000065
C86	C	0.287971	-0.174891	0.500065
O87	O	-0.263215	-0.578070	0.000067
O88	O	0.236785	-0.078070	0.500067
O89	O	-0.289433	-0.770196	0.000060
O90	O	0.210567	-0.270196	0.500060
C91	C	0.178283	-0.667577	0.000046
C92	C	0.678283	-0.167577	0.500046
C93	C	0.241500	-0.668343	0.000037
C94	C	0.741500	-0.168343	0.500037
C95	C	0.069388	-0.776472	0.000071
C96	C	0.569388	-0.276472	0.500071
C97	C	0.070154	-0.839689	0.000073
C98	C	0.570154	-0.339689	0.500073
C99	C	0.125350	-0.105856	0.000063
C100	C	0.625350	0.394144	0.500063
C101	C	0.124638	-0.046456	0.000067
C102	C	0.624638	0.453544	0.500067
O103	O	0.168424	-0.009711	0.000083
O104	O	0.668424	0.490289	0.500083
N105	N	0.072362	-0.023830	0.000073
N106	N	0.572362	0.476170	0.500073
C107	C	0.020794	-0.060607	0.000082
C108	C	0.520794	0.439393	0.500082
O109	O	-0.023737	-0.035908	0.000088
O110	O	0.476263	0.464092	0.500088
C111	C	0.021506	-0.120006	0.000082
C112	C	0.521506	0.379994	0.500082
C113	C	0.073785	-0.142629	0.000070
C114	C	0.573785	0.357371	0.500070
C115	C	0.177625	-0.128479	0.000051
C116	C	0.677625	0.371521	0.500051
C117	C	0.178336	-0.187876	0.000046
C118	C	0.678336	0.312124	0.500046
C119	C	0.126772	-0.224649	0.000053
C120	C	0.626772	0.275351	0.500053
C121	C	0.074497	-0.202025	0.000065
C122	C	0.574497	0.297975	0.500065
C123	C	-0.030062	-0.156783	0.000096
C124	C	0.469938	0.343217	0.500096
C125	C	-0.029345	-0.216185	0.000097
C126	C	0.470655	0.283815	0.500097
C127	C	0.022934	-0.238808	0.000084
C128	C	0.522934	0.261192	0.500084
C129	C	0.023643	-0.298194	0.000067
C130	C	0.523643	0.201806	0.500067
N131	N	0.075920	-0.320820	0.000061
N132	N	0.575920	0.179180	0.500061
C133	C	0.127484	-0.284048	0.000054
C134	C	0.627484	0.215952	0.500054
C135	C	0.019302	0.064135	0.000082
C136	C	0.519302	0.564135	0.500082
C137	C	0.018589	0.123533	0.000077
C138	C	0.518589	0.623533	0.500077
C139	C	0.122434	0.137680	0.000063
C140	C	0.622434	0.637680	0.500063
C141	C	0.123146	0.078281	0.000064
C142	C	0.623146	0.578281	0.500064
C143	C	0.071578	0.041509	0.000076
C144	C	0.571578	0.541509	0.500076
C145	C	0.128974	-0.408784	0.000043
C146	C	0.628974	0.091216	0.500043
C147	C	0.129680	-0.468186	0.000035
C148	C	0.629680	0.031814	0.500035
C149	C	0.025836	-0.482329	0.000052
C150	C	0.525836	0.017671	0.500052
C151	C	0.025129	-0.422932	0.000057
C152	C	0.525129	0.077068	0.500057
C153	C	0.076702	-0.386160	0.000054
C154	C	0.576702	0.113840	0.500054
O155	O	-0.020119	-0.334974	0.000054
O156	O	0.479881	0.165026	0.500054
O157	O	0.172007	-0.308755	0.000055
O158	O	0.672007	0.191245	0.500055
N159	N	0.074112	-0.672347	-0.143744
N160	N	0.574112	-0.172347	0.356256
C161	C	0.035196	-0.711273	0.563653
C162	C	0.535196	-0.211273	1.063653
C163	C	0.035192	-0.711275	0.627261
C164	C	0.535192	-0.211275	1.127261
O165	O	0.002076	-0.744384	0.660160
O166	O	0.502076	-0.244384	1.160160
N167	N	0.074115	-0.672333	0.659072
N168	N	0.574115	-0.172333	1.159072
C169	C	0.113041	-0.633382	0.627272
C170	C	0.613041	-0.133382	1.127272
O171	O	0.146148	-0.600259	0.660170
O172	O	0.646148	-0.100259	1.160170
C173	C	0.113042	-0.633377	0.563665
C174	C	0.613042	-0.133377	1.063665
C175	C	0.074120	-0.672326	0.531858
C176	C	0.574120	-0.172326	1.031858
C177	C	-0.003723	-0.750217	0.531846
C178	C	0.496277	-0.250217	1.031846
C179	C	-0.003719	-0.750215	0.468243
C180	C	0.496281	-0.250215	0.968243
C181	C	0.035205	-0.711268	0.436447
C182	C	0.535205	-0.211268	0.936447
C183	C	0.074125	-0.672324	0.468255
C184	C	0.574125	-0.172324	0.968255
C185	C	0.151965	-0.594424	0.531866
C186	C	0.651965	-0.094424	1.031866
C187	C	0.151962	-0.594422	0.468256
C188	C	0.651962	-0.094422	0.968256
C189	C	0.113040	-0.633370	0.436448
C190	C	0.613040	-0.133370	0.936448
C191	C	0.113054	-0.633374	0.372856
C192	C	0.613054	-0.133374	0.872856
N193	N	0.074130	-0.672317	0.341045
N194	N	0.574130	-0.172317	0.841045
C195	C	0.035206	-0.711263	0.372841
C196	C	0.535206	-0.211263	0.872841
C197	C	0.113036	-0.633395	0.760850
C198	C	0.613036	-0.133395	1.260850
C199	C	0.113039	-0.633402	0.824455
C200	C	0.613039	-0.133402	1.324455
C201	C	0.035188	-0.711294	0.824440
C202	C	0.535188	-0.211294	1.324440
C203	C	0.035189	-0.711290	0.760833
C204	C	0.535189	-0.211290	1.260833
C205	C	0.074113	-0.672337	0.729039
C206	C	0.574113	-0.172337	1.229039
C207	C	0.035220	-0.711256	0.239269
C208	C	0.535220	-0.211256	0.739269
C209	C	0.035229	-0.711252	0.175660
C210	C	0.535229	-0.211252	0.675660
C211	C	0.113077	-0.633358	0.175681
C212	C	0.613077	-0.133358	0.675681
C213	C	0.113070	-0.633364	0.239284
C214	C	0.613070	-0.133364	0.739284
C215	C	0.074136	-0.672315	0.271077
C216	C	0.574136	-0.172315	0.771077
O217	O	0.146151	-0.600282	0.339916
O218	O	0.646151	-0.100282	0.839916
O219	O	0.002100	-0.744376	0.339935
O220	O	0.502100	-0.244376	0.839935
H221	H	-0.111587	-0.770443	0.000094
H222	H	0.388413	-0.270443	0.500094
F223	F	0.183864	-0.369658	0.000040
F224	F	0.683864	0.130342	0.500040
H225	H	-0.740136	-0.574207	0.000036
H226	H	-0.240136	-0.074207	0.500036
H227	H	0.003534	-0.742971	0.149765
H228	H	0.503534	-0.242971	0.649765
F229	F	-0.030513	-0.398854	0.000070
F230	F	0.469487	0.101146	0.500070
F231	F	-0.085706	-0.132720	0.000100
F232	F	0.414294	0.367280	0.500100
F233	F	-0.775016	-0.775503	0.000049
F234	F	-0.275016	-0.275503	0.500049
H235	H	-0.499645	-0.817806	0.000063
H236	H	0.000355	-0.317806	0.500063
F237	F	0.232512	-0.089351	0.000044
F238	F	0.732512	0.410649	0.500044
F239	F	-0.652399	-0.776978	0.000059
F240	F	-0.152399	-0.276978	0.500059
H241	H	-0.023982	0.141947	0.000078
H242	H	0.476018	0.641947	0.500078
F243	F	-0.199335	-0.567676	0.000062
F244	F	0.300665	-0.067676	0.500062
H245	H	-0.071339	-0.246123	0.000107
H246	H	0.428661	0.253877	0.500107
F247	F	0.233980	-0.211944	0.000036
F248	F	0.733980	0.288056	0.500036
F249	F	-0.623192	-0.562602	0.000026
F250	F	-0.123192	-0.062602	0.500026
F251	F	-0.342871	-0.513956	0.000010
F252	F	0.157129	-0.013956	0.500010
F253	F	-0.076714	-0.569149	0.000064
F254	F	0.423286	-0.069149	0.500064
F255	F	-0.465469	-0.512483	0.000007
F256	F	0.034531	-0.012483	0.500007
H257	H	0.165717	0.059867	0.000057
H258	H	0.665717	0.559867	0.500057
H259	H	0.183658	-0.562708	0.557755
H260	H	0.683658	-0.062708	1.057755
F261	F	0.154472	-0.591955	0.858300
F262	F	0.654472	-0.091955	1.358300
F263	F	0.185326	-0.492259	0.000020
F264	F	0.685326	0.007741	0.500020
F265	F	0.177314	0.176828	0.000058
F266	F	0.677314	0.676828	0.500058
H267	H	-0.022693	0.034198	0.000086
H268	H	0.477307	0.534198	0.500086
H269	H	-0.016146	-0.512280	0.000056
H270	H	0.483854	-0.012280	0.500056
F271	F	-0.386245	-0.832169	0.000066
F272	F	0.113755	-0.332169	0.500066
F273	F	-0.006237	-0.752743	0.726987
F274	F	0.493763	-0.252743	1.226987
H275	H	0.003516	-0.742973	0.265148
H276	H	0.503516	-0.242973	0.765148
H277	H	-0.035414	-0.781929	0.442349
H278	H	0.464586	-0.281929	0.942349
H279	H	-0.035423	-0.781933	0.557728
H280	H	0.464577	-0.281933	1.057728
H281	H	0.144737	-0.601676	0.734966
H282	H	0.644737	-0.101676	1.234966
H283	H	0.003493	-0.743006	0.850339
H284	H	0.503493	-0.243006	1.350339
F285	F	0.193390	-0.552960	0.434422
F286	F	0.693390	-0.052960	0.934422
H287	H	0.144769	-0.601654	0.265183
H288	H	0.644769	-0.101654	0.765183
H289	H	-0.219337	-0.769159	0.000073
H290	H	0.280663	-0.269159	0.500073
F291	F	0.154503	-0.591911	0.141832
F292	F	0.654503	-0.091911	0.641832
