data_functionalizedCrystal
_audit_creation_method	'MofGen! by Chris Wilmer'
_symmetry_space_group_name_H-M	'P1'
_symmetry_Int_Tables_number	1
_symmetry_cell_setting	triclinic
loop_
_symmetry_equiv_pos_as_xyz
  x,y,z
_cell_length_a	19.805407
_cell_length_b	25.639239
_cell_length_c	19.805398
_cell_angle_alpha	89.970248
_cell_angle_beta	89.986879
_cell_angle_gamma	90.038686
loop_
_atom_site_label
_atom_site_type_symbol
_atom_site_fract_x
_atom_site_fract_y
_atom_site_fract_z
Zn1	Zn	1.034635	-0.208158	-0.382714
Zn2	Zn	1.534635	0.291842	0.117286
Zn3	Zn	1.034538	-0.295593	-0.269524
Zn4	Zn	1.534538	0.204407	0.230476
Zn5	Zn	0.921462	-0.208174	-0.269539
Zn6	Zn	1.421462	0.291826	0.230461
Zn7	Zn	0.921389	-0.295564	-0.382670
Zn8	Zn	1.421389	0.204436	0.117330
O9	O	0.978006	-0.251872	-0.326112
O10	O	1.478006	0.248128	0.173888
O11	O	1.129339	-0.219762	-0.367711
O12	O	1.629339	0.280238	0.132289
O13	O	1.019529	-0.284016	-0.174809
O14	O	1.519529	0.215984	0.325191
O15	O	0.936546	-0.135006	-0.284576
O16	O	1.436546	0.364994	0.215424
O17	O	1.129268	-0.284000	-0.284551
O18	O	1.629268	0.216000	0.215449
O19	O	1.019693	-0.134995	-0.367726
O20	O	1.519693	0.365005	0.132274
O21	O	0.936452	-0.219789	-0.174820
O22	O	1.436452	0.280211	0.325180
O23	O	0.826736	-0.219761	-0.284534
O24	O	1.326736	0.280239	0.215466
O25	O	0.936421	-0.283950	-0.477393
O26	O	1.436421	0.216050	0.022607
O27	O	0.826682	-0.283966	-0.367651
O28	O	1.326682	0.216034	0.132349
O29	O	1.019622	-0.219733	-0.477425
O30	O	1.519622	0.280267	0.022575
O31	O	1.019457	-0.368755	-0.284508
O32	O	1.519457	0.131245	0.215492
O33	O	0.936327	-0.368733	-0.367637
O34	O	1.436327	0.131267	0.132363
C35	C	0.802150	-0.251862	-0.326090
C36	C	1.302150	0.248138	0.173910
C37	C	0.726918	-0.251870	-0.326097
C38	C	1.226918	0.248130	0.173903
C39	C	0.691563	-0.285352	-0.369306
C40	C	1.191563	0.214648	0.130694
C41	C	0.620875	-0.285353	-0.369315
C42	C	1.120875	0.214647	0.130685
C43	C	0.585542	-0.251874	-0.326112
C44	C	1.085542	0.248126	0.173888
C45	C	0.620902	-0.218389	-0.282901
C46	C	1.120902	0.281611	0.217099
C47	C	0.691589	-0.218386	-0.282895
C48	C	1.191589	0.281614	0.217105
C49	C	0.335829	-0.218400	-0.282923
C50	C	0.835829	0.281600	0.217077
C51	C	0.265137	-0.218407	-0.282931
C52	C	0.765137	0.281593	0.217069
C53	C	0.265115	-0.285368	-0.369343
C54	C	0.765115	0.214632	0.130657
C55	C	0.335802	-0.285365	-0.369338
C56	C	0.835802	0.214635	0.130662
C57	C	0.371155	-0.251877	-0.326129
C58	C	0.871155	0.248123	0.173871
C59	C	0.447803	-0.251876	-0.326121
C60	C	0.947803	0.248124	0.173879
C61	C	0.508895	-0.251878	-0.326117
C62	C	1.008895	0.248122	0.173883
C63	C	0.977892	-0.387715	-0.326081
C64	C	1.477892	0.112285	0.173919
C65	C	0.977905	-0.445829	-0.326090
C66	C	1.477905	0.054171	0.173910
C67	C	1.021405	-0.806190	-0.282901
C68	C	1.521405	-0.306190	0.217099
C69	C	1.021431	-0.860795	-0.282910
C70	C	1.521431	-0.360795	0.217090
O71	O	1.058298	-0.889030	-0.246154
O72	O	1.558298	-0.389030	0.253846
N73	N	0.978125	-0.888111	-0.326157
N74	N	1.478125	-0.388111	0.173843
C75	C	0.934795	-0.860820	-0.369402
C76	C	1.434795	-0.360820	0.130598
O77	O	0.897962	-0.889069	-0.406189
O78	O	1.397962	-0.389069	0.093811
C79	C	0.934772	-0.806217	-0.369396
C80	C	1.434772	-0.306217	0.130604
C81	C	0.978076	-0.778903	-0.326141
C82	C	1.478076	-0.278903	0.173859
C83	C	1.064706	-0.778877	-0.239650
C84	C	1.564706	-0.278877	0.260350
C85	C	1.064679	-0.724276	-0.239640
C86	C	1.564679	-0.224276	0.260360
C87	C	1.021350	-0.696989	-0.282881
C88	C	1.521350	-0.196989	0.217119
C89	C	0.978049	-0.724303	-0.326132
C90	C	1.478049	-0.224303	0.173868
C91	C	0.891446	-0.778927	-0.412645
C92	C	1.391446	-0.278927	0.087355
C93	C	0.891428	-0.724320	-0.412635
C94	C	1.391428	-0.224320	0.087365
C95	C	0.934732	-0.697007	-0.369381
C96	C	1.434732	-0.197007	0.130619
C97	C	0.934693	-0.642416	-0.369363
C98	C	1.434693	-0.142416	0.130637
N99	N	0.978000	-0.615099	-0.326116
N100	N	1.478000	-0.115099	0.173884
C101	C	1.021328	-0.642386	-0.282875
C102	C	1.521328	-0.142386	0.217125
C103	C	0.934846	-0.975491	-0.369413
C104	C	1.434846	-0.475491	0.130587
C105	C	0.934864	-1.030093	-0.369416
C106	C	1.434864	-0.530093	0.130584
C107	C	1.021502	-1.030064	-0.282924
C108	C	1.521502	-0.530064	0.217076
C109	C	1.021479	-0.975461	-0.282918
C110	C	1.521479	-0.475461	0.217082
C111	C	0.978152	-0.948175	-0.326166
C112	C	1.478152	-0.448175	0.173834
C113	C	1.021267	-0.527721	-0.282857
C114	C	1.521267	-0.027721	0.217143
C115	C	1.021234	-0.473116	-0.282849
C116	C	1.521234	0.026884	0.217151
C117	C	0.934599	-0.473150	-0.369343
C118	C	1.434599	0.026850	0.130657
C119	C	0.934629	-0.527750	-0.369349
C120	C	1.434629	-0.027750	0.130651
C121	C	0.977969	-0.555035	-0.326104
C122	C	1.477969	-0.055035	0.173896
O123	O	0.897847	-0.614145	-0.406101
O124	O	1.397847	-0.114145	0.093899
O125	O	1.058161	-0.614131	-0.246101
O126	O	1.558161	-0.114131	0.253899
C127	C	1.154549	-0.251883	-0.326134
C128	C	1.654549	0.248117	0.173866
C129	C	1.229781	-0.251887	-0.326144
C130	C	1.729781	0.248113	0.173856
C131	C	0.978024	-0.251837	-0.502655
C132	C	1.478024	0.248163	-0.002655
C133	C	0.978032	-0.251822	-0.577887
C134	C	1.478032	0.248178	-0.077887
C135	C	0.978139	-0.115499	-0.326158
C136	C	1.478139	0.384501	0.173842
C137	C	0.978195	-0.057385	-0.326177
C138	C	1.478195	0.442615	0.173823
C139	C	1.021396	-0.285181	-1.039670
C140	C	1.521396	0.214819	-0.539670
C141	C	1.021378	-0.285196	-0.968981
C142	C	1.521378	0.214804	-0.468981
C143	C	0.978116	-0.251763	-0.933649
C144	C	1.478116	0.248237	-0.433649
C145	C	0.934865	-0.218317	-0.969008
C146	C	1.434865	0.281683	-0.469008
C147	C	0.934881	-0.218306	-1.039695
C148	C	1.434881	0.281694	-0.539695
C149	C	0.934800	-0.218362	-0.683935
C150	C	1.434800	0.281638	-0.183935
C151	C	0.934789	-0.218375	-0.613242
C152	C	1.434789	0.281625	-0.113242
C153	C	1.021297	-0.285252	-0.613221
C154	C	1.521297	0.214748	-0.113221
C155	C	1.021312	-0.285240	-0.683908
C156	C	1.521312	0.214760	-0.183908
C157	C	0.978059	-0.251797	-0.719261
C158	C	1.478059	0.248203	-0.219261
C159	C	0.978079	-0.251783	-0.795910
C160	C	1.478079	0.248217	-0.295910
C161	C	0.978099	-0.251774	-0.857001
C162	C	1.478099	0.248226	-0.357001
C163	C	0.978027	-0.251870	-0.150256
C164	C	1.478027	0.248130	0.349744
C165	C	0.978150	-0.251737	-0.075024
C166	C	1.478150	0.248263	0.424976
H167	H	0.592129	-0.191127	-0.247727
H168	H	1.092129	0.308873	0.252273
H169	H	0.856180	-0.801157	-0.447864
H170	H	1.356180	-0.301157	0.052136
H171	H	0.720326	-0.312617	-0.404485
H172	H	1.220326	0.187383	0.095515
H173	H	0.236321	-0.312633	-0.404528
H174	H	0.736321	0.187367	0.095472
O175	O	1.068021	-0.321265	-0.930843
O176	O	1.568021	0.178735	-0.430843
H177	H	1.102463	-0.297867	-0.898642
H178	H	1.602463	0.202133	-0.398642
H179	H	1.056560	-0.549929	-0.247644
H180	H	1.556560	-0.049929	0.252356
H181	H	0.899579	-0.191131	-0.712711
H182	H	1.399579	0.308869	-0.212711
O183	O	0.844686	-0.694889	-0.459273
O184	O	1.344686	-0.194889	0.040727
H185	H	0.814576	-0.723059	-0.489343
H186	H	1.314576	-0.223059	0.010657
O187	O	1.111395	-0.694819	-0.192997
O188	O	1.611395	-0.194819	0.307003
H189	H	1.141531	-0.722974	-0.162941
H190	H	1.641531	-0.222974	0.337059
H191	H	1.099993	-0.801088	-0.204438
H192	H	1.599993	-0.301088	0.295562
H193	H	1.056784	-1.052291	-0.247717
H194	H	1.556784	-0.552291	0.252283
O195	O	1.067944	-0.321330	-0.575091
O196	O	1.567944	0.178670	-0.075091
H197	H	1.060662	-0.315728	-0.520002
H198	H	1.560662	0.184272	-0.020002
H199	H	0.899370	-0.549990	-0.404573
H200	H	1.399370	-0.049990	0.095427
H201	H	0.899666	-0.191072	-1.068480
H202	H	1.399666	0.308928	-0.568480
O203	O	1.067952	-0.443659	-0.236200
O204	O	1.567952	0.056341	0.263800
H205	H	1.060656	-0.401105	-0.243453
H206	H	1.560656	0.098895	0.256547
H207	H	0.720374	-0.191118	-0.247713
H208	H	1.220374	0.308882	0.252287
H209	H	0.236371	-0.191141	-0.247749
H210	H	0.736371	0.308859	0.252251
O211	O	0.888094	-0.946061	-0.416044
O212	O	1.388094	-0.446061	0.083956
H213	H	0.857981	-0.974234	-0.446107
H214	H	1.357981	-0.474234	0.053893
O215	O	0.888153	-1.059552	-0.416064
O216	O	1.388153	-0.559552	0.083936
H217	H	0.858026	-1.031398	-0.446131
H218	H	1.358026	-0.531398	0.053869
O219	O	1.068192	-0.946001	-0.236273
O220	O	1.568192	-0.446001	0.263727
H221	H	1.098325	-0.974155	-0.206212
H222	H	1.598325	-0.474155	0.293788
H223	H	0.899319	-0.450924	-0.404548
H224	H	1.399319	0.049076	0.095452
H225	H	0.899557	-0.191148	-0.584477
H226	H	1.399557	0.308852	-0.084477
O227	O	0.582740	-0.321566	-0.415789
O228	O	1.082740	0.178434	0.084211
H229	H	0.619184	-0.344886	-0.445776
H230	H	1.119184	0.155114	0.054224
H231	H	1.056629	-0.312404	-1.068432
H232	H	1.556629	0.187596	-0.568432
O233	O	0.888205	-0.182253	-0.930904
O234	O	1.388205	0.317747	-0.430904
H235	H	0.895465	-0.187874	-0.875811
H236	H	1.395465	0.312126	-0.375811
H237	H	1.056543	-0.312463	-0.712672
H238	H	1.556543	0.187537	-0.212672
H239	H	0.364566	-0.312629	-0.404516
H240	H	0.864566	0.187371	0.095484
H241	H	0.364605	-0.191137	-0.247735
H242	H	0.864605	0.308863	0.252265
