data_functionalizedCrystal
_audit_creation_method	'MofGen! by Chris Wilmer'
_symmetry_space_group_name_H-M	'P1'
_symmetry_Int_Tables_number	1
_symmetry_cell_setting	triclinic
loop_
_symmetry_equiv_pos_as_xyz
  x,y,z
_cell_length_a	16.109301
_cell_length_b	14.519709
_cell_length_c	15.186229
_cell_angle_alpha	89.995307
_cell_angle_beta	89.999362
_cell_angle_gamma	83.570813
loop_
_atom_site_label
_atom_site_type_symbol
_atom_site_fract_x
_atom_site_fract_y
_atom_site_fract_z
O1	O	1.103336	0.118540	-0.073175
O2	O	0.861299	0.133292	-0.073189
O3	O	0.988735	-0.008336	-0.073174
O4	O	0.975900	0.260168	-0.073190
O5	O	0.988726	-0.008338	0.073284
O6	O	0.861291	0.133290	0.073268
O7	O	1.103327	0.118538	0.073282
Zn8	Zn	0.982308	0.125914	0.096529
Zn9	Zn	0.982319	0.125916	-0.096435
O10	O	0.975892	0.260166	0.073267
C11	C	0.830319	0.132693	0.000038
C12	C	0.738021	0.130902	0.000033
C13	C	0.988132	-0.042696	0.000055
C14	C	0.986340	-0.145073	0.000056
C15	C	0.515887	0.210775	0.000038
C16	C	0.429163	0.209085	0.000044
C17	C	0.448747	0.041048	0.000050
C18	C	0.535468	0.042739	0.000051
C19	C	0.569036	0.127606	0.000040
C20	C	0.395591	0.124224	0.000045
C21	C	0.301562	0.122390	0.000052
C22	C	0.663071	0.129440	0.000036
C23	C	0.979741	-0.519955	0.000032
C24	C	0.981574	-0.415651	0.000039
C25	C	0.983041	-0.332517	0.000045
C26	C	0.984873	-0.228207	0.000050
C27	C	1.134307	0.119136	0.000054
C28	C	1.226606	0.120928	0.000053
C29	C	0.976494	0.294526	0.000036
C30	C	0.978287	0.396903	0.000030
N31	N	0.982306	0.125911	0.228221
N32	N	0.982327	0.125911	-0.228128
C33	C	1.038754	0.063219	0.453951
C34	C	1.038756	0.063217	0.546141
C35	C	0.925873	0.188606	0.546136
C36	C	0.925867	0.188603	0.453948
C37	C	0.982312	0.125911	0.407858
C38	C	0.982321	0.125912	0.592236
C39	C	0.982323	0.125910	0.692192
C40	C	0.982309	0.125911	0.307895
H41	H	0.543214	0.279879	0.000036
O42	O	1.093494	0.002172	0.409237
C43	C	1.079835	-0.089110	0.431822
H44	H	1.013266	-0.089552	0.457156
H45	H	1.125861	-0.116171	0.485352
C46	C	1.174422	-0.151125	0.318844
C47	C	1.092659	-0.151669	0.349953
H48	H	1.182336	-0.189717	0.268345
H49	H	1.183627	-0.089627	0.303630
H50	H	1.212768	-0.173674	0.363460
H51	H	1.054315	-0.129110	0.305341
H52	H	1.083448	-0.213165	0.365157
H53	H	0.879902	0.239654	0.416417
O54	O	0.377451	0.289816	-0.000081
C55	C	0.326716	0.293877	-0.075943
H56	H	0.322222	0.220677	-0.101224
H57	H	0.355307	0.335987	-0.129062
C58	C	0.244262	0.430215	-0.021854
C59	C	0.238737	0.340309	-0.052901
H60	H	0.189993	0.458860	-0.007643
H61	H	0.278445	0.427482	0.029254
H62	H	0.268092	0.465295	-0.066125
H63	H	0.214917	0.305227	-0.008626
H64	H	0.204548	0.343037	-0.104001
O65	O	0.415999	-0.041307	0.000015
C66	C	0.328059	-0.024968	0.000033
H67	H	0.307800	0.047008	-0.027696
H68	H	0.303911	-0.029435	0.070296
C69	C	0.316867	-0.186716	-0.023344
C70	C	0.291984	-0.098317	-0.057409
H71	H	0.294613	-0.231963	-0.058773
H72	H	0.376114	-0.197726	-0.023353
H73	H	0.296742	-0.190426	0.035207
H74	H	0.312118	-0.094605	-0.115955
H75	H	0.232740	-0.087309	-0.057411
H76	H	0.578745	-0.024991	0.000055
H77	H	1.084715	0.012167	0.583667
H78	H	0.879918	0.239650	0.583672
