data_functionalizedCrystal
_audit_creation_method	'MofGen! by Chris Wilmer'
_symmetry_space_group_name_H-M	'P1'
_symmetry_Int_Tables_number	1
_symmetry_cell_setting	triclinic
loop_
_symmetry_equiv_pos_as_xyz
  x,y,z
_cell_length_a	16.992697
_cell_length_b	10.489746
_cell_length_c	16.053948
_cell_angle_alpha	92.855182
_cell_angle_beta	87.287587
_cell_angle_gamma	92.395124
loop_
_atom_site_label
_atom_site_type_symbol
_atom_site_fract_x
_atom_site_fract_y
_atom_site_fract_z
O1	O	-1.038957	0.265523	-0.069308
O2	O	-0.538957	0.765523	0.430692
O3	O	-0.810654	0.262551	-0.069336
O4	O	-0.310654	0.762551	0.430664
O5	O	-0.929999	0.078892	-0.069316
O6	O	-0.429999	0.578892	0.430684
O7	O	-0.919612	0.449182	-0.069329
O8	O	-0.419612	0.949182	0.430671
O9	O	-0.935928	0.089087	0.069541
O10	O	-0.435928	0.589087	0.569541
O11	O	-0.816584	0.272746	0.069520
O12	O	-0.316584	0.772746	0.569520
O13	O	-1.044887	0.275718	0.069548
O14	O	-0.544887	0.775718	0.569548
Zn15	Zn	-0.931677	0.275851	0.091580
Zn16	Zn	-0.431677	0.775851	0.591580
Zn17	Zn	-0.923864	0.262418	-0.091369
Zn18	Zn	-0.423864	0.762418	0.408631
O19	O	-0.925542	0.459377	0.069527
O20	O	-0.425542	0.959377	0.569527
C21	C	-0.784385	0.263829	0.000088
C22	C	-0.284385	0.763829	0.500088
C23	C	-0.697275	0.252433	0.000078
C24	C	-0.197275	0.752433	0.500078
C25	C	-0.932178	0.036390	0.000112
C26	C	-0.432178	0.536390	0.500112
C27	C	-0.929829	-0.105444	0.000111
C28	C	-0.429829	0.394556	0.500111
C29	C	-0.647657	0.362382	0.000073
C30	C	-0.147657	0.862382	0.500073
C31	C	-0.565810	0.351667	0.000084
C32	C	-0.065810	0.851667	0.500084
C33	C	-0.533583	0.231003	0.000093
C34	C	-0.033583	0.731003	0.500093
C35	C	-0.583208	0.121046	0.000099
C36	C	-0.083208	0.621046	0.500099
C37	C	-0.665054	0.131762	0.000095
C38	C	-0.165054	0.631762	0.500095
C39	C	-0.289735	0.186591	0.000113
C40	C	0.210265	0.686591	0.500113
C41	C	-0.207883	0.175883	0.000115
C42	C	0.292117	0.675883	0.500115
C43	C	-0.190491	0.406505	0.000101
C44	C	0.309509	0.906505	0.500101
C45	C	-0.272338	0.417210	0.000092
C46	C	0.227662	0.917210	0.500092
C47	C	-0.321956	0.307254	0.000103
C48	C	0.178044	0.807254	0.500103
N49	N	-0.449923	0.220048	0.000101
N50	N	0.050077	0.720048	0.500101
N51	N	-0.405615	0.318210	0.000100
N52	N	0.094385	0.818210	0.500100
C53	C	-0.852502	-0.265031	0.000092
C54	C	-0.352502	0.234969	0.500092
C55	C	-0.888239	-0.189301	-0.068365
C56	C	-0.388239	0.310699	0.431635
C57	C	-0.894103	-0.179289	0.068536
C58	C	-0.394103	0.320711	0.568536
C59	C	-0.961415	-0.282430	-0.068421
C60	C	-0.461415	0.217570	0.431579
C61	C	-0.967272	-0.272420	0.068542
C62	C	-0.467272	0.227580	0.568542
C63	C	-1.003061	-0.196736	0.000068
C64	C	-0.503061	0.303264	0.500068
C65	C	-0.071156	0.274439	0.000118
C66	C	0.428844	0.774439	0.500118
C67	C	-0.158265	0.285832	0.000111
C68	C	0.341735	0.785832	0.500111
C69	C	-0.923363	0.501880	0.000097
C70	C	-0.423363	1.001880	0.500097
C71	C	-0.925712	0.643713	0.000093
C72	C	-0.425712	1.143713	0.500093
N73	N	-0.937015	0.285018	0.216438
N74	N	-0.437015	0.785018	0.716438
N75	N	-0.918533	0.253242	-0.216227
N76	N	-0.418533	0.753242	0.283773
C77	C	-0.890880	0.205929	0.260153
C78	C	-0.390880	0.705929	0.760153
C79	C	-0.894633	0.212359	0.347558
C80	C	-0.394633	0.712359	0.847558
C81	C	-0.944526	0.297871	0.391247
C82	C	-0.444526	0.797871	0.891247
C83	C	-0.990663	0.376968	0.347526
C84	C	-0.490663	0.876968	0.847526
C85	C	-0.986905	0.370544	0.260122
C86	C	-0.486905	0.870544	0.760122
C87	C	-0.960911	0.325915	0.652649
C88	C	-0.460911	0.825915	1.152649
C89	C	-0.964668	0.332330	0.740058
C90	C	-0.464668	0.832330	1.240058
C91	C	-0.868636	0.167722	0.740085
C92	C	-0.368636	0.667722	1.240085
C93	C	-0.864886	0.161300	0.652680
C94	C	-0.364886	0.661300	1.152680
C95	C	-0.911019	0.240402	0.608966
C96	C	-0.411019	0.740402	1.108966
N97	N	-0.948366	0.304443	0.480589
N98	N	-0.448366	0.804443	0.980589
N99	N	-0.907175	0.233836	0.519626
N100	N	-0.407175	0.733836	1.019626
H101	H	-0.673889	0.460640	0.000066
H102	H	-0.173889	0.960640	0.500066
H103	H	-1.066766	-0.166721	0.000039
H104	H	-0.566766	0.333279	0.500039
F105	F	-0.173588	0.047450	0.000139
F106	F	0.326412	0.547450	0.500139
F107	F	-0.342532	0.069563	0.000125
F108	F	0.157468	0.569563	0.500125
F109	F	-0.548908	-0.007375	0.000114
F110	F	-0.048908	0.492625	0.500114
F111	F	-0.717862	0.014739	0.000102
F112	F	-0.217862	0.514739	0.500102
F113	F	-1.010862	-0.320214	0.144204
F114	F	-0.510862	0.179786	0.644204
H115	H	-0.525413	0.441200	0.000080
H116	H	-0.025413	0.941200	0.500080
F117	F	-0.856921	-0.120464	0.144183
F118	F	-0.356921	0.379536	0.644183
F119	F	-0.769294	-0.304592	-0.000006
F120	F	-0.269294	0.195408	0.499994
F121	F	-0.844615	-0.141548	-0.144026
F122	F	-0.344615	0.358452	0.355974
H123	H	-0.989825	-0.327278	-0.126362
H124	H	-0.489825	0.172722	0.373638
H125	H	-0.850254	0.136292	0.224588
H126	H	-0.350254	0.636292	0.724588
F127	F	-0.845526	0.128186	0.394079
F128	F	-0.345526	0.628186	0.894079
F129	F	-0.811758	0.070323	0.606189
F130	F	-0.311758	0.570323	1.106189
H131	H	-0.831075	0.103324	0.775686
H132	H	-0.331075	0.603324	1.275686
F133	F	-0.306630	0.545637	0.000078
F134	F	0.193370	1.045637	0.500078
F135	F	-0.137679	0.523520	0.000091
F136	F	0.362321	1.023520	0.500091
H137	H	-1.005298	0.401970	0.775627
H138	H	-0.505298	0.901970	1.275627
F139	F	-1.009992	0.410133	0.606137
F140	F	-0.509992	0.910133	1.106137
H141	H	-1.031284	0.446600	0.383104
H142	H	-0.531284	0.946600	0.883104
F143	F	-1.036010	0.454719	0.213598
F144	F	-0.536010	0.954719	0.713598
