data_functionalizedCrystal
_audit_creation_method	'MofGen! by Chris Wilmer'
_symmetry_space_group_name_H-M	'P1'
_symmetry_Int_Tables_number	1
_symmetry_cell_setting	triclinic
loop_
_symmetry_equiv_pos_as_xyz
  x,y,z
_cell_length_a	8.497374
_cell_length_b	8.497365
_cell_length_c	12.759401
_cell_angle_alpha	89.967415
_cell_angle_beta	89.997383
_cell_angle_gamma	90.037770
loop_
_atom_site_label
_atom_site_type_symbol
_atom_site_fract_x
_atom_site_fract_y
_atom_site_fract_z
Zn1	Zn	0.627596	-0.892109	1.606486
Zn2	Zn	0.891539	-0.628374	1.606384
Zn3	Zn	0.627774	-0.628336	1.430750
Zn4	Zn	0.891335	-0.892106	1.430819
O5	O	0.759561	-0.760231	1.518610
O6	O	0.662619	-0.857141	1.753494
O7	O	0.856711	-0.407606	1.583013
O8	O	0.406988	-0.663311	1.454075
O9	O	0.856538	-0.663376	1.753418
O10	O	0.406857	-0.857104	1.583189
O11	O	0.662924	-0.407578	1.453976
O12	O	0.662725	-0.663308	1.283738
O13	O	0.856189	-1.112869	1.454194
O14	O	0.856362	-0.857099	1.283789
O15	O	0.662421	-1.112871	1.583256
O16	O	1.112275	-0.663373	1.583081
O17	O	1.112124	-0.857136	1.454094
C18	C	0.759542	-0.760200	1.245642
C19	C	0.759571	-0.760224	1.128866
C20	C	0.860552	-0.860972	1.074058
C21	C	0.860558	-0.861003	0.964334
C22	C	0.658599	-0.659525	0.964235
C23	C	0.658586	-0.659502	1.073957
C24	C	0.917098	-1.047002	0.814472
C25	C	1.018103	-1.147736	0.759660
C26	C	1.172051	-1.171718	0.795285
C27	C	1.225026	-1.094943	0.885721
C28	C	1.124030	-0.994197	0.940527
C29	C	0.970059	-0.970245	0.904903
C30	C	0.602062	-0.473502	1.223821
C31	C	0.501072	-0.372747	1.278629
C32	C	0.347121	-0.348748	1.243006
C33	C	0.294152	-0.425495	1.152567
C34	C	0.395141	-0.526250	1.097759
C35	C	0.549091	-0.550251	1.133390
C36	C	1.169441	-0.760254	1.518596
C37	C	1.348085	-0.760228	1.518624
C38	C	0.759733	-0.350351	1.518534
C39	C	0.759409	-0.171707	1.518683
C40	C	0.759581	-0.760263	1.792643
C41	C	0.759590	-0.760277	1.909420
H42	H	0.727418	-0.493048	1.252841
H43	H	0.974955	-1.210247	0.686028
H44	H	0.264902	-0.266691	1.287636
H45	H	0.942776	-0.942990	1.118761
H46	H	0.791735	-1.027500	0.785464
H47	H	0.168802	-0.405930	1.123550
C48	C	1.182280	-0.909752	1.040002
C49	C	1.351629	-0.936118	1.079192
C50	C	1.409881	-0.851683	1.178674
C51	C	1.298783	-0.740882	1.238965
C52	C	1.129424	-0.714510	1.199776
C53	C	1.071172	-0.798946	1.100294
H54	H	1.433880	-1.018145	1.034560
H55	H	1.535253	-0.871205	1.207684
H56	H	1.341905	-0.678377	1.312608
H57	H	1.047173	-0.632484	1.244408
H58	H	0.945800	-0.779423	1.071284
C59	C	1.283156	-1.282532	0.734998
C60	C	1.224898	-1.366973	0.635526
C61	C	1.335992	-1.477793	0.575236
C62	C	1.505343	-1.504172	0.614418
C63	C	1.563610	-1.419729	0.713895
C64	C	1.452516	-1.308909	0.774184
H65	H	1.099526	-1.347447	0.606517
H66	H	1.292858	-1.540303	0.501597
H67	H	1.587582	-1.586208	0.569788
H68	H	1.688982	-1.439255	0.742904
H69	H	1.495650	-1.246399	0.847824
H70	H	1.350394	-1.114465	0.914713
C71	C	0.336877	-0.610684	0.998277
C72	C	0.167533	-0.584293	0.959084
C73	C	0.109271	-0.668725	0.859603
C74	C	0.220353	-0.779547	0.799316
C75	C	0.389708	-0.805942	0.838508
C76	C	0.447969	-0.721510	0.937989
H77	H	0.085294	-0.502252	1.003713
H78	H	-0.016097	-0.649185	0.830591
H79	H	0.177225	-0.842048	0.725675
H80	H	0.471947	-0.887984	0.793880
H81	H	0.573337	-0.741051	0.967001
H82	H	0.576383	-0.577519	0.919515
H83	H	0.544214	-0.310254	1.352269
