data_functionalizedCrystal
_audit_creation_method	'MofGen! by Chris Wilmer'
_symmetry_space_group_name_H-M	'P1'
_symmetry_Int_Tables_number	1
_symmetry_cell_setting	triclinic
loop_
_symmetry_equiv_pos_as_xyz
  x,y,z
_cell_length_a	12.594516
_cell_length_b	16.959455
_cell_length_c	16.959447
_cell_angle_alpha	90.014322
_cell_angle_beta	89.974854
_cell_angle_gamma	89.987000
loop_
_atom_site_label
_atom_site_type_symbol
_atom_site_fract_x
_atom_site_fract_y
_atom_site_fract_z
Zn1	Zn	-0.423808	-1.208406	-0.446937
Zn2	Zn	-0.601815	-1.208338	-0.314770
Zn3	Zn	-0.423841	-1.076234	-0.314775
Zn4	Zn	-0.601735	-1.076208	-0.446909
O5	O	-0.512800	-1.142297	-0.380848
O6	O	-0.447440	-1.319008	-0.429415
O7	O	-0.578253	-1.190796	-0.204160
O8	O	-0.274891	-1.093807	-0.332320
O9	O	-0.578221	-1.318958	-0.332313
O10	O	-0.274866	-1.190912	-0.429419
O11	O	-0.447497	-1.093740	-0.204163
O12	O	-0.447420	-0.965620	-0.332293
O13	O	-0.578085	-1.093762	-0.557524
O14	O	-0.578118	-0.965601	-0.429371
O15	O	-0.447363	-1.190887	-0.557544
O16	O	-0.750750	-1.190771	-0.332286
O17	O	-0.750692	-1.093696	-0.429367
C18	C	-0.512765	-0.936930	-0.380830
C19	C	-0.512775	-0.849074	-0.380841
C20	C	-0.789341	-1.142245	-0.380840
C21	C	-0.907646	-1.142295	-0.380863
C22	C	-0.512712	-1.142329	-0.587016
C23	C	-0.512674	-1.142343	-0.674873
C24	C	-0.976906	-1.089491	-0.433629
C25	C	-1.047768	-1.070239	-0.361503
C26	C	-1.047583	-1.161619	-0.453001
C27	C	-0.976950	-1.123005	-0.308699
C28	C	-0.976758	-1.214418	-0.400246
C29	C	-1.047589	-1.195194	-0.328071
C30	C	-0.235179	-1.142370	-0.380873
C31	C	-0.116873	-1.142401	-0.380884
C32	C	-0.512836	-1.348465	-0.380866
C33	C	-0.512851	-1.436321	-0.380874
C34	C	-0.444690	-0.477584	-0.330405
C35	C	-0.580998	-0.477613	-0.431336
C36	C	-0.580982	-0.560158	-0.431332
C37	C	-0.512821	-0.601421	-0.380862
C38	C	-0.444674	-0.560137	-0.330396
C39	C	-0.649135	-0.601448	-0.481790
C40	C	-0.649123	-0.683999	-0.481787
C41	C	-0.580955	-0.725263	-0.431320
C42	C	-0.512806	-0.683974	-0.380854
C43	C	-0.444644	-0.725237	-0.330384
C44	C	-0.376488	-0.683949	-0.279920
C45	C	-0.376507	-0.601401	-0.279930
C46	C	-0.580937	-0.807811	-0.431311
C47	C	-0.444629	-0.807790	-0.330376
C48	C	-0.580623	-1.091869	-1.046340
C49	C	-0.444501	-1.193006	-1.046357
C50	C	-0.444523	-1.192985	-0.963811
C51	C	-0.512598	-1.142406	-0.922526
C52	C	-0.580650	-1.091848	-0.963787
C53	C	-0.376480	-1.243548	-0.922544
C54	C	-0.376501	-1.243530	-0.839993
C55	C	-0.444571	-1.192946	-0.798706
C56	C	-0.512625	-1.142385	-0.839972
C57	C	-0.580699	-1.091806	-0.798687
C58	C	-0.648749	-1.041241	-0.839952
C59	C	-0.648720	-1.041265	-0.922500
C60	C	-0.444600	-1.192922	-0.716158
C61	C	-0.580726	-1.091785	-0.716134
C62	C	-0.512811	-1.142309	-0.175482
C63	C	-0.512548	-1.142448	-0.087625
H64	H	-0.945870	-1.044756	-0.478186
Br65	Br	-0.741068	-0.972650	-0.978506
H66	H	-0.321019	-0.567778	-0.238845
Br67	Br	-1.099305	-1.188787	-0.554666
H68	H	-0.636024	-1.050698	-1.079942
H69	H	-0.704619	-0.717608	-0.522877
Br70	Br	-0.284149	-1.312151	-0.783998
Br71	Br	-0.673525	-0.421614	-0.499808
Br72	Br	-0.924733	-1.315974	-0.427599
H73	H	-1.078983	-1.009295	-0.345126
Br74	Br	-0.352188	-0.421555	-0.261928
Br75	Br	-0.352129	-1.261654	-1.102387
Br76	Br	-0.741141	-0.972607	-0.783912
H77	H	-0.946052	-1.106633	-0.247685
Br78	Br	-0.352265	-1.261548	-0.660159
Br79	Br	-1.098992	-1.269702	-0.253631
Br80	Br	-0.352110	-0.863783	-0.261884
H81	H	-0.636152	-1.050590	-0.682525
H82	H	-0.320996	-0.717556	-0.238824
H83	H	-0.704636	-0.567846	-0.522874
H84	H	-0.636432	-0.841424	-0.472394
Br85	Br	-0.284110	-1.312195	-0.978576
