data_functionalizedCrystal
_audit_creation_method	'MofGen! by Chris Wilmer'
_symmetry_space_group_name_H-M	'P1'
_symmetry_Int_Tables_number	1
_symmetry_cell_setting	triclinic
loop_
_symmetry_equiv_pos_as_xyz
  x,y,z
_cell_length_a	10.654550
_cell_length_b	15.944551
_cell_length_c	9.130313
_cell_angle_alpha	89.994529
_cell_angle_beta	89.999724
_cell_angle_gamma	83.991834
loop_
_atom_site_label
_atom_site_type_symbol
_atom_site_fract_x
_atom_site_fract_y
_atom_site_fract_z
O1	O	1.666313	0.117977	-0.121694
O2	O	1.300689	0.129217	-0.121721
O3	O	1.493485	0.001379	-0.121693
O4	O	1.473517	0.245814	-0.121721
O5	O	1.493472	0.001376	0.121906
O6	O	1.300676	0.129213	0.121878
O7	O	1.666300	0.117973	0.121905
Cu8	Cu	1.483487	0.123592	0.144134
Cu9	Cu	1.483502	0.123597	-0.143950
O10	O	1.473503	0.245810	0.121878
C11	C	1.253895	0.128389	0.000075
C12	C	1.114484	0.125920	0.000065
C13	C	1.034024	0.201189	0.000061
C14	C	0.903034	0.198863	0.000087
C15	C	0.932975	0.045995	0.000115
C16	C	1.063963	0.048321	0.000100
C17	C	1.492650	-0.029921	0.000106
C18	C	1.490165	-0.123182	0.000107
C19	C	1.364720	-0.338764	0.000077
C20	C	1.422966	-0.399446	0.120191
C21	C	1.485668	-0.293933	0.000095
C22	C	1.423007	-0.399426	-0.119979
C23	C	1.481317	-0.458871	0.000078
C24	C	1.543947	-0.353387	0.120308
C25	C	1.543972	-0.353360	-0.119969
C26	C	1.602306	-0.414024	0.000173
C27	C	1.488172	-0.198917	0.000107
C28	C	1.478822	-0.553887	0.000077
C29	C	1.713094	0.118800	0.000106
C30	C	1.852505	0.121269	0.000106
C31	C	1.474339	0.277110	0.000075
C32	C	1.476824	0.370371	0.000065
N33	N	1.483485	0.123589	0.346757
N34	N	1.483514	0.123594	-0.346572
C35	C	1.568884	0.067007	0.423421
C36	C	1.568896	0.067007	0.576758
C37	C	1.398106	0.180179	0.576753
C38	C	1.398089	0.180174	0.423419
H39	H	0.837528	0.260155	0.000086
H40	H	1.264327	-0.306038	0.000190
C41	C	1.304196	0.242461	0.339083
N42	N	1.233498	0.289386	0.275562
C43	C	1.353878	-0.426959	-0.257160
N44	N	1.301802	-0.447693	-0.360480
H45	H	1.638433	0.020931	0.639173
C46	C	1.152475	-0.034485	0.000105
N47	N	1.219141	-0.096851	0.000113
C48	C	1.662811	0.004755	0.339098
N49	N	1.733557	-0.042138	0.275590
C50	C	1.304173	0.242417	0.661095
N51	N	1.233421	0.289297	0.724621
C52	C	1.353848	-0.427019	0.257361
N53	N	1.301780	-0.447784	0.360673
H54	H	1.595055	-0.333102	0.221966
C55	C	1.738046	-0.458043	0.000278
N56	N	1.840283	-0.491201	0.000367
H57	H	0.891824	-0.017184	0.000152
C58	C	1.089592	0.286550	0.000041
N59	N	1.131442	0.350846	0.000034
C60	C	1.613029	-0.325759	-0.257152
N61	N	1.665034	-0.304968	-0.360491
