data_functionalizedCrystal
_audit_creation_method	'MofGen! by Chris Wilmer'
_symmetry_space_group_name_H-M	'P1'
_symmetry_Int_Tables_number	1
_symmetry_cell_setting	triclinic
loop_
_symmetry_equiv_pos_as_xyz
  x,y,z
_cell_length_a	10.723024
_cell_length_b	10.723024
_cell_length_c	9.198806
_cell_angle_alpha	90.002012
_cell_angle_beta	89.996352
_cell_angle_gamma	95.532131
loop_
_atom_site_label
_atom_site_type_symbol
_atom_site_fract_x
_atom_site_fract_y
_atom_site_fract_z
O1	O	1.657188	-0.175024	-0.120879
O2	O	1.294035	-0.191778	-0.120884
O3	O	1.483988	-0.001825	-0.120876
O4	O	1.467235	-0.364977	-0.120887
O5	O	1.483973	-0.001824	0.120909
O6	O	1.294020	-0.191777	0.120901
O7	O	1.657173	-0.175024	0.120906
Cu8	Cu	1.475595	-0.183401	0.142981
Cu9	Cu	1.475613	-0.183401	-0.142958
O10	O	1.467220	-0.364977	0.120898
C11	C	1.247528	-0.190558	0.000008
C12	C	1.108974	-0.186911	0.000007
N13	N	1.475592	-0.183399	0.344095
C14	C	1.482762	0.044675	0.000015
C15	C	1.479114	0.183229	0.000010
C16	C	1.033991	-0.293198	0.000002
C17	C	0.890788	-0.289431	0.000001
C18	C	1.703680	-0.176243	0.000011
C19	C	1.842234	-0.179891	0.000003
C20	C	1.468447	-0.411477	0.000004
C21	C	1.472094	-0.550031	-0.000000
C22	C	1.585401	0.258212	0.000009
C23	C	1.581634	0.401415	0.000004
N24	N	1.475626	-0.183393	-0.344072
C25	C	1.555347	-0.103292	0.416295
C26	C	1.555367	-0.103288	0.583707
H27	H	1.075814	-0.386984	0.000008
H28	H	1.385328	0.225051	-0.000001
O29	O	1.394090	-0.265047	0.418358
C30	C	1.316389	-0.197669	0.506391
H31	H	1.365019	-0.100341	0.529032
H32	H	1.223986	-0.188659	0.447840
C33	C	1.230911	-0.387252	0.623253
C34	C	1.290645	-0.267716	0.651072
H35	H	1.215026	-0.430461	0.712496
H36	H	1.283257	-0.432647	0.563940
H37	H	1.153916	-0.379727	0.574457
H38	H	1.367645	-0.275243	0.699850
H39	H	1.238312	-0.222323	0.710396
O40	O	1.636648	-0.021468	0.342001
C41	C	1.568893	0.055876	0.253958
H42	H	1.471734	0.006834	0.231357
H43	H	1.559484	0.148220	0.312479
C44	C	1.758166	0.142101	0.137020
C45	C	1.638838	0.081862	0.109251
H46	H	1.801313	0.158137	0.047760
H47	H	1.803816	0.089997	0.196339
H48	H	1.750309	0.219048	0.185791
H49	H	1.646697	0.004911	0.060498
H50	H	1.593191	0.133954	0.049920
O51	O	1.697401	0.208538	-0.000059
C52	C	1.795496	0.306060	-0.000025
H53	H	1.759883	0.394843	-0.045795
H54	H	1.830065	0.324137	0.115970
C55	C	1.947798	0.159196	-0.038637
C56	C	1.904060	0.268237	-0.094864
H57	H	2.014769	0.135864	-0.097132
H58	H	1.881711	0.093491	-0.038654
H59	H	1.976597	0.174274	0.058025
H60	H	1.875248	0.253152	-0.191516
H61	H	1.970146	0.333938	-0.094865
O62	O	1.363448	0.373246	-0.000195
C63	C	1.293514	0.396480	-0.125440
H64	H	1.323197	0.494978	-0.167192
H65	H	1.311285	0.325164	-0.213121
C66	C	1.116563	0.264164	-0.036128
C67	C	1.153013	0.385145	-0.087401
H68	H	1.029895	0.257167	-0.012668
H69	H	1.163680	0.248506	0.048250
H70	H	1.131383	0.204747	-0.109204
H71	H	1.138208	0.444558	-0.014319
H72	H	1.105890	0.400812	-0.171767
O73	O	1.636947	-0.021413	0.657543
C74	C	1.711059	0.053091	0.557876
H75	H	1.713129	0.002019	0.449337
H76	H	1.669484	0.146034	0.541751
C77	C	1.842837	0.140644	0.750713
C78	C	1.845388	0.077911	0.617407
H79	H	1.925696	0.155960	0.787436
H80	H	1.792904	0.090453	0.817862
H81	H	1.808186	0.218089	0.737257
H82	H	1.880024	0.000461	0.630868
H83	H	1.895330	0.128090	0.550261
H84	H	1.672624	0.465848	0.000010
O85	O	1.394331	-0.265275	0.581717
C86	C	1.462113	-0.342618	0.493688
H87	H	1.559241	-0.293531	0.471013
H88	H	1.471596	-0.434920	0.552259
C89	C	1.272848	-0.429015	0.376889
C90	C	1.392139	-0.368721	0.349029
H91	H	1.229683	-0.445123	0.287659
H92	H	1.227181	-0.376912	0.436200
H93	H	1.280767	-0.505927	0.425702
H94	H	1.384218	-0.291804	0.300235
H95	H	1.437803	-0.420812	0.289707
H96	H	0.906659	-0.088896	-0.000003
H97	H	0.826355	-0.380421	-0.000009
H98	H	1.067152	-0.093125	-0.000028
