data_functionalizedCrystal
_audit_creation_method	'MofGen! by Chris Wilmer'
_symmetry_space_group_name_H-M	'P1'
_symmetry_Int_Tables_number	1
_symmetry_cell_setting	triclinic
loop_
_symmetry_equiv_pos_as_xyz
  x,y,z
_cell_length_a	21.295420
_cell_length_b	21.295417
_cell_length_c	11.169409
_cell_angle_alpha	89.958601
_cell_angle_beta	89.976675
_cell_angle_gamma	90.028757
loop_
_atom_site_label
_atom_site_type_symbol
_atom_site_fract_x
_atom_site_fract_y
_atom_site_fract_z
Zn1	Zn	0.962347	-0.250588	-0.678579
Zn2	Zn	0.962252	-0.355876	-0.477864
Zn3	Zn	0.857073	-0.250621	-0.477901
Zn4	Zn	0.857039	-0.355820	-0.678497
O5	O	0.909678	-0.303226	-0.578210
O6	O	1.050424	-0.264564	-0.651973
O7	O	0.948274	-0.341951	-0.309919
O8	O	0.871091	-0.162527	-0.504572
O9	O	1.050354	-0.341918	-0.504509
O10	O	0.948436	-0.162503	-0.652009
O11	O	0.870999	-0.264621	-0.309947
O12	O	0.768979	-0.264567	-0.504492
O13	O	0.871035	-0.341823	-0.846458
O14	O	0.768955	-0.341855	-0.651869
O15	O	0.948404	-0.264509	-0.846518
O16	O	0.948242	-0.443958	-0.504429
O17	O	0.870942	-0.443917	-0.651833
C18	C	0.746126	-0.303209	-0.578176
C19	C	0.676158	-0.303217	-0.578190
C20	C	0.176704	-0.343544	-0.654875
C21	C	0.242446	-0.343545	-0.654862
C22	C	0.275319	-0.303240	-0.578248
C23	C	0.242443	-0.262944	-0.501619
C24	C	0.176702	-0.262949	-0.501625
N25	N	0.378559	-0.248124	-0.569225
N26	N	0.441011	-0.248121	-0.569226
C27	C	0.473393	-0.303223	-0.578223
N28	N	0.440965	-0.358329	-0.587242
N29	N	0.378508	-0.358331	-0.587247
C30	C	0.346604	-0.303230	-0.578232
C31	C	0.577547	-0.343520	-0.654827
C32	C	0.643290	-0.343521	-0.654806
C33	C	0.643286	-0.262915	-0.501569
C34	C	0.577543	-0.262919	-0.501584
C35	C	0.544678	-0.303221	-0.578219
C36	C	0.909595	-0.466778	-0.578144
C37	C	0.909617	-0.536746	-0.578156
C38	C	0.949903	-0.569613	-0.501481
C39	C	0.949932	-0.635355	-0.501508
C40	C	0.909665	-0.668228	-0.578197
C41	C	0.869377	-0.635353	-0.654887
C42	C	0.869353	-0.569612	-0.654866
N43	N	0.854598	-0.771492	-0.587335
N44	N	0.854623	-0.833943	-0.587348
C45	C	0.909736	-0.866303	-0.578266
N46	N	0.964825	-0.833852	-0.569147
N47	N	0.964800	-0.771395	-0.569129
C48	C	0.909687	-0.739514	-0.578229
C49	C	0.950056	-0.970456	-0.501616
C50	C	0.950087	-1.036199	-0.501652
C51	C	0.869526	-1.036196	-0.655024
C52	C	0.869501	-0.970453	-0.654995
C53	C	0.909766	-0.937587	-0.578285
C54	C	1.073868	-0.303244	-0.578246
C55	C	1.143836	-0.303251	-0.578261
C56	C	0.909726	-0.303156	-0.891253
C57	C	0.909747	-0.303126	-1.024653
C58	C	0.909778	-0.139036	-0.578303
C59	C	0.909820	-0.069068	-0.578343
C60	C	0.909666	-0.303250	-0.266386
C61	C	0.909767	-0.303103	-0.132986
H62	H	0.149949	-0.376363	-0.717273
F63	F	0.826674	-1.071177	-0.736650
F64	F	0.277428	-0.220051	-0.420077
H65	H	0.836592	-0.662122	-0.717329
F66	F	0.826621	-0.935472	-0.736599
H67	H	0.670049	-0.230100	-0.439184
H68	H	0.269213	-0.376356	-0.717255
H69	H	0.550786	-0.376336	-0.717227
H70	H	0.982896	-1.062959	-0.439217
H71	H	0.550782	-0.230106	-0.439200
H72	H	0.149941	-0.230136	-0.439236
F73	F	0.678271	-0.386413	-0.736347
H74	H	0.982690	-0.542855	-0.439022
H75	H	0.836547	-0.542851	-0.717305
F76	F	0.992908	-0.935475	-0.419975
H77	H	0.982740	-0.662121	-0.439071
