data_functionalizedCrystal
_audit_creation_method	'MofGen! by Chris Wilmer'
_symmetry_space_group_name_H-M	'P1'
_symmetry_Int_Tables_number	1
_symmetry_cell_setting	triclinic
loop_
_symmetry_equiv_pos_as_xyz
  x,y,z
_cell_length_a	17.699083
_cell_length_b	17.699083
_cell_length_c	16.776229
_cell_angle_alpha	90.013676
_cell_angle_beta	90.001114
_cell_angle_gamma	83.283016
loop_
_atom_site_label
_atom_site_type_symbol
_atom_site_fract_x
_atom_site_fract_y
_atom_site_fract_z
O1	O	-1.004078	-0.095713	-0.066189
O2	O	-0.670745	0.237620	0.267145
O3	O	-0.337412	0.570954	0.600478
O4	O	-0.783700	-0.108165	-0.066217
O5	O	-0.450367	0.225168	0.267117
O6	O	-0.117033	0.558501	0.600450
O7	O	-0.900116	0.008250	-0.066182
O8	O	-0.566782	0.341583	0.267151
O9	O	-0.233449	0.674917	0.600484
O10	O	-0.887663	-0.212128	-0.066223
O11	O	-0.554330	0.121205	0.267110
O12	O	-0.220996	0.454538	0.600444
O13	O	-0.900100	0.008257	0.066394
O14	O	-0.566767	0.341590	0.399727
O15	O	-0.233433	0.674924	0.733061
O16	O	-0.783685	-0.108158	0.066360
O17	O	-0.450351	0.225175	0.399693
O18	O	-0.117018	0.558508	0.733027
O19	O	-1.004063	-0.095706	0.066388
O20	O	-0.670730	0.237627	0.399721
O21	O	-0.337396	0.570961	0.733054
Zn22	Zn	-0.893871	-0.101931	0.087423
Zn23	Zn	-0.560538	0.231402	0.420757
Zn24	Zn	-0.227205	0.564736	0.754090
Zn25	Zn	-0.893892	-0.101940	-0.087252
Zn26	Zn	-0.560558	0.231393	0.246081
Zn27	Zn	-0.227225	0.564726	0.579415
O28	O	-0.887648	-0.212121	0.066354
O29	O	-0.554314	0.121212	0.399687
O30	O	-0.220981	0.454545	0.733020
C31	C	-0.755495	-0.107716	0.000068
C32	C	-0.422162	0.225618	0.333402
C33	C	-0.088829	0.558951	0.666735
C34	C	-0.671477	-0.106377	0.000059
C35	C	-0.338144	0.226956	0.333392
C36	C	-0.004811	0.560290	0.666725
C37	C	-0.899662	0.036451	0.000109
C38	C	-0.566328	0.369784	0.333442
C39	C	-0.232995	0.703117	0.666776
C40	C	-0.898323	0.120469	0.000119
C41	C	-0.564990	0.453802	0.333452
C42	C	-0.231656	0.787135	0.666785
C43	C	-1.032268	-0.096156	0.000101
C44	C	-0.698934	0.237178	0.333434
C45	C	-0.365601	0.570511	0.666768
C46	C	-1.116286	-0.097494	0.000105
C47	C	-0.782953	0.235839	0.333439
C48	C	-0.449619	0.569172	0.666772
N49	N	-0.893863	-0.101924	0.206634
N50	N	-0.560530	0.231409	0.539968
N51	N	-0.227196	0.564743	0.873301
C52	C	-0.622856	-0.174711	0.000046
C53	C	-0.289523	0.158623	0.333380
C54	C	0.043810	0.491956	0.666713
C55	C	-0.543913	-0.173448	0.000057
C56	C	-0.210580	0.159885	0.333390
C57	C	0.122754	0.493218	0.666724
C58	C	-0.513592	-0.103852	0.000074
C59	C	-0.180259	0.229482	0.333407
C60	C	0.153074	0.562815	0.666741
C61	C	-0.562219	-0.035513	0.000089
C62	C	-0.228886	0.297820	0.333422
C63	C	0.104447	0.631154	0.666756
C64	C	-0.641161	-0.036776	0.000084
C65	C	-0.307828	0.296557	0.333417
C66	C	0.025505	0.629891	0.666751
C67	C	-0.243856	-0.030418	0.000109
C68	C	0.089477	0.302915	0.333443
C69	C	0.422810	0.636249	0.666776
C70	C	-0.164908	-0.029160	0.000112
C71	C	0.168425	0.304173	0.333445
C72	C	0.501758	0.637507	0.666779
C73	C	-0.146608	-0.167090	0.000083
C74	C	0.186725	0.166243	0.333416
C75	C	0.520058	0.499577	0.666749
C76	C	-0.225550	-0.168353	0.000078
C77	C	0.107783	0.164980	0.333411
C78	C	0.441117	0.498314	0.666744
C79	C	-0.274170	-0.100015	0.000097
C80	C	0.059163	0.233319	0.333430
C81	C	0.392496	0.566652	0.666763
C82	C	-0.359769	-0.101384	0.000087
C83	C	-0.026436	0.231949	0.333420
C84	C	0.306897	0.565282	0.666753
C85	C	-0.427995	-0.102481	0.000078
C86	C	-0.094661	0.230852	0.333412
C87	C	0.238672	0.564185	0.666745
C88	C	-0.966656	0.169090	0.000133
C89	C	-0.633323	0.502423	0.333467
C90	C	-0.299990	0.835756	0.666800
C91	C	-0.965394	0.248033	0.000135
C92	C	-0.632061	0.581366	0.333468
C93	C	-0.298727	0.914700	0.666802
C94	C	-0.895798	0.278354	0.000128
C95	C	-0.562464	0.611687	0.333461
C96	C	-0.229131	0.945020	0.666794
C97	C	-0.827459	0.229727	0.000111
C98	C	-0.494126	0.563060	0.333444
C99	C	-0.160792	0.896393	0.666777
C100	C	-0.828722	0.150785	0.000103
C101	C	-0.495389	0.484118	0.333437
C102	C	-0.162055	0.817451	0.666770
C103	C	-0.822364	0.548090	0.000139
C104	C	-0.489030	0.881423	0.333473
C105	C	-0.155697	1.214756	0.666806
C106	C	-0.821106	0.627038	0.000149
C107	C	-0.487773	0.960371	0.333483
C108	C	-0.154439	1.293704	0.666816
C109	C	-0.959036	0.645338	0.000171
C110	C	-0.625702	0.978671	0.333505
C111	C	-0.292369	1.312004	0.666838
C112	C	-0.960299	0.566396	0.000164
C113	C	-0.626966	0.899729	0.333497
C114	C	-0.293632	1.233063	0.666831
C115	C	-0.891961	0.517776	0.000143
C116	C	-0.558627	0.851109	0.333476
C117	C	-0.225294	1.184442	0.666809
C118	C	-0.893330	0.432177	0.000139
C119	C	-0.559997	0.765510	0.333473
C120	C	-0.226664	1.098843	0.666806
C121	C	-0.894427	0.363951	0.000137
C122	C	-0.561094	0.697285	0.333470
C123	C	-0.227761	1.030618	0.666804
C124	C	-0.888102	0.759678	0.000089
C125	C	-0.554768	1.093011	0.333422
C126	C	-0.221435	1.426345	0.666755
C127	C	-0.889440	0.675660	0.000158
C128	C	-0.556107	1.008993	0.333492
C129	C	-0.222773	1.342327	0.666825
N130	N	-0.893906	-0.101941	-0.206463
N131	N	-0.560573	0.231392	0.126870
N132	N	-0.227239	0.564725	0.460203
C133	C	-0.945428	-0.050396	0.248367
C134	C	-0.612094	0.282937	0.581700
C135	C	-0.278761	0.616270	0.915033
C136	C	-0.945432	-0.050396	0.331819
C137	C	-0.612098	0.282938	0.665152
C138	C	-0.278765	0.616271	0.998485
C139	C	-0.893875	-0.101927	0.373537
C140	C	-0.560541	0.231406	0.706871
C141	C	-0.227208	0.564740	1.040204
C142	C	-0.842305	-0.153457	0.331799
C143	C	-0.508971	0.179876	0.665133
C144	C	-0.175638	0.513210	0.998466
C145	C	-0.842297	-0.153454	0.248349
C146	C	-0.508964	0.179880	0.581682
C147	C	-0.175631	0.513213	0.915015
C148	C	-0.842332	-0.153472	0.668346
C149	C	-0.508999	0.179861	1.001680
C150	C	-0.175665	0.513195	1.335013
C151	C	-0.842345	-0.153473	0.751803
C152	C	-0.509011	0.179860	1.085136
C153	C	-0.175678	0.513194	1.418470
C154	C	-0.945466	-0.050414	0.751817
C155	C	-0.612133	0.282919	1.085150
C156	C	-0.278800	0.616252	1.418483
C157	C	-0.945459	-0.050411	0.668366
C158	C	-0.612126	0.282923	1.001699
C159	C	-0.278792	0.616256	1.335033
C160	C	-0.893887	-0.101938	0.626635
C161	C	-0.560554	0.231396	0.959969
C162	C	-0.227220	0.564729	1.293302
C163	C	-0.893882	-0.101937	0.536147
C164	C	-0.560549	0.231397	0.869480
C165	C	-0.227215	0.564730	1.202814
C166	C	-0.893882	-0.101932	0.464024
C167	C	-0.560549	0.231401	0.797357
C168	C	-0.227216	0.564735	1.130691
H169	H	-0.647537	-0.231384	0.000032
H170	H	-0.314204	0.101949	0.333365
H171	H	0.019130	0.435283	0.666699
H172	H	-0.987444	-0.008452	0.634401
H173	H	-0.654111	0.324882	0.967735
H174	H	-0.320777	0.658215	1.301068
H175	H	-0.764429	0.651721	0.000145
H176	H	-0.431096	0.985054	0.333478
H177	H	-0.097762	1.318388	0.666812
Cl178	Cl	-0.482792	-0.259357	0.000037
Cl179	Cl	-0.149459	0.073976	0.333370
Cl180	Cl	0.183874	0.407309	0.666703
Cl181	Cl	-0.263663	-0.255849	0.000052
Cl182	Cl	0.069670	0.077484	0.333385
Cl183	Cl	0.403004	0.410818	0.666718
Cl184	Cl	-1.044948	0.706465	0.000195
Cl185	Cl	-0.711615	1.039799	0.333528
Cl186	Cl	-0.378282	1.373132	0.666862
H187	H	-0.537526	0.021154	0.000114
H188	H	-0.204193	0.354487	0.333448
H189	H	0.129141	0.687820	0.666781
H190	H	-0.987419	-0.008438	0.365797
H191	H	-0.654085	0.324896	0.699130
H192	H	-0.320752	0.658229	1.032463
H193	H	-0.773078	0.111198	0.000091
H194	H	-0.439745	0.444531	0.333424
H195	H	-0.106411	0.777864	0.666758
H196	H	-0.987414	-0.008437	0.214405
H197	H	-0.654081	0.324896	0.547738
H198	H	-0.320748	0.658230	0.881072
Cl199	Cl	-1.051303	0.309154	0.000156
Cl200	Cl	-0.717970	0.642487	0.333489
Cl201	Cl	-0.384637	0.975820	0.666823
Cl202	Cl	-0.126793	0.058340	0.000134
Cl203	Cl	0.206541	0.391673	0.333467
Cl204	Cl	0.539874	0.725006	0.666801
H205	H	-0.800358	-0.195437	0.785769
H206	H	-0.467024	0.137896	1.119102
H207	H	-0.133691	0.471229	1.452436
Cl208	Cl	-0.304969	0.055494	0.000132
Cl209	Cl	0.028365	0.388827	0.333466
Cl210	Cl	0.361698	0.722160	0.666799
H211	H	-0.800308	-0.195412	0.214371
H212	H	-0.466974	0.137922	0.547704
H213	H	-0.133641	0.471255	0.881038
Cl214	Cl	-1.010299	0.014367	0.804283
Cl215	Cl	-0.676965	0.347700	1.137616
Cl216	Cl	-0.343632	0.681034	1.470949
H217	H	-0.680748	0.018868	0.000094
H218	H	-0.347415	0.352201	0.333427
H219	H	-0.014082	0.685535	0.666760
Cl220	Cl	-1.054154	0.130980	0.000151
Cl221	Cl	-0.720821	0.464314	0.333484
Cl222	Cl	-0.387488	0.797647	0.666818
Cl223	Cl	-0.777503	-0.218250	0.615891
Cl224	Cl	-0.444170	0.115083	0.949224
Cl225	Cl	-0.110837	0.448417	1.282557
Cl226	Cl	-1.047795	0.528283	0.000171
Cl227	Cl	-0.714462	0.861616	0.333504
Cl228	Cl	-0.381128	1.194950	0.666837
H229	H	-0.766718	0.508512	0.000122
H230	H	-0.433385	0.841845	0.333456
H231	H	-0.100052	1.175179	0.666789
H232	H	-0.800322	-0.195412	0.365771
H233	H	-0.466989	0.137921	0.699105
H234	H	-0.133655	0.471254	1.032438
Cl235	Cl	-0.739966	0.267844	0.000092
Cl236	Cl	-0.406632	0.601178	0.333425
Cl237	Cl	-0.073299	0.934511	0.666758
H238	H	-0.107012	-0.222734	0.000071
H239	H	0.226322	0.110599	0.333405
H240	H	0.559655	0.443933	0.666738
