data_functionalizedCrystal
_audit_creation_method	'MofGen! by Chris Wilmer'
_symmetry_space_group_name_H-M	'P1'
_symmetry_Int_Tables_number	1
_symmetry_cell_setting	triclinic
loop_
_symmetry_equiv_pos_as_xyz
  x,y,z
_cell_length_a	34.571875
_cell_length_b	34.571051
_cell_length_c	34.567439
_cell_angle_alpha	60.004367
_cell_angle_beta	60.008842
_cell_angle_gamma	59.994195
loop_
_atom_site_label
_atom_site_type_symbol
_atom_site_fract_x
_atom_site_fract_y
_atom_site_fract_z
O1	O	0.053721	-0.565181	0.472559
O2	O	0.553721	-0.065181	0.972559
O3	O	0.020283	-0.440038	0.380761
O4	O	0.520283	0.059962	0.880761
O5	O	0.099534	-0.519209	0.380676
O6	O	0.599534	-0.019209	0.880676
O7	O	-0.025530	-0.486010	0.472643
O8	O	0.474470	0.013990	0.972643
O9	O	0.125831	-0.492917	0.406885
O10	O	0.625831	0.007083	0.906885
O11	O	0.046580	-0.413746	0.406969
O12	O	0.546580	0.086254	0.906969
O13	O	0.080018	-0.538889	0.498767
O14	O	0.580018	-0.038889	0.998767
Zn15	Zn	0.067475	-0.472143	0.457030
Zn16	Zn	0.567475	0.027857	0.957030
Zn17	Zn	0.032827	-0.506784	0.422498
Zn18	Zn	0.532827	-0.006784	0.922498
O19	O	0.000767	-0.459718	0.498852
O20	O	0.500767	0.040282	0.998852
N21	N	0.091122	-0.448505	0.480598
N22	N	0.591122	0.051495	0.980598
N23	N	0.009184	-0.530426	0.398930
N24	N	0.509184	-0.030426	0.898930
C25	C	0.124402	-0.415465	0.717633
C26	C	0.624402	0.084535	1.217633
C27	C	0.328327	-0.415388	0.513477
C28	C	0.828327	0.084612	1.013477
C29	C	0.124221	-0.415437	0.513630
C30	C	0.624221	0.084563	1.013630
C31	C	0.124201	-0.211364	0.513624
C32	C	0.624201	0.288636	1.013624
C33	C	0.157075	-0.309853	0.546423
C34	C	0.657075	0.190147	1.046423
C35	C	0.157084	-0.382601	0.546423
C36	C	0.657084	0.117399	1.046423
C37	C	0.175289	-0.364414	0.564591
C38	C	0.675289	0.135586	1.064591
C39	C	0.254624	-0.350722	0.522790
C40	C	0.754624	0.149278	1.022790
C41	C	0.304220	-0.367243	0.506229
C42	C	0.804220	0.132757	1.006229
C43	C	0.304249	-0.447494	0.536832
C44	C	0.804249	0.052506	1.036832
C45	C	0.254655	-0.430972	0.553394
C46	C	0.754655	0.069028	1.053394
C47	C	0.169014	-0.285043	0.497667
C48	C	0.669014	0.214957	0.997667
C49	C	0.152454	-0.235444	0.481153
C50	C	0.652454	0.264556	0.981153
C51	C	0.112020	-0.235469	0.562154
C52	C	0.612020	0.264531	1.062154
C53	C	0.128580	-0.285068	0.578668
C54	C	0.628580	0.214932	1.078668
C55	C	0.108321	-0.370634	0.558439
C56	C	0.608321	0.129366	1.058439
C57	C	0.091776	-0.387168	0.541918
C58	C	0.591776	0.112832	1.041918
C59	C	0.172754	-0.427637	0.501375
C60	C	0.672754	0.072363	1.001375
C61	C	0.189301	-0.411103	0.517891
C62	C	0.689301	0.088897	1.017891
C63	C	0.108399	-0.370649	0.643978
C64	C	0.608399	0.129351	1.143978
C65	C	0.091911	-0.387197	0.693575
C66	C	0.591911	0.112803	1.193575
C67	C	0.172928	-0.427676	0.693511
C68	C	0.672928	0.072324	1.193511
C69	C	0.189415	-0.411128	0.643912
C70	C	0.689415	0.088872	1.143912
C71	C	0.157149	-0.382613	0.619147
C72	C	0.657149	0.117387	1.119147
C73	C	0.229844	-0.382585	0.546371
C74	C	0.729844	0.117415	1.046371
C75	C	0.105624	-0.433333	0.772186
C76	C	0.605624	0.066667	1.272186
C77	C	0.382878	-0.432925	0.495007
C78	C	0.882878	0.067075	0.995007
C79	C	0.105380	-0.433313	0.495792
C80	C	0.605380	0.066687	0.995792
C81	C	0.105683	-0.156808	0.496094
C82	C	0.605683	0.343192	0.996094
C83	C	-0.023527	-0.563458	0.161535
C84	C	0.476473	-0.063458	0.661535
C85	C	-0.023851	-0.767445	0.365663
C86	C	0.476149	-0.267445	0.865663
C87	C	-0.023821	-0.563448	0.365756
C88	C	0.476179	-0.063448	0.865756
C89	C	-0.227785	-0.563229	0.365355
C90	C	0.272215	-0.063229	0.865355
C91	C	-0.129302	-0.596153	0.332678
C92	C	0.370698	-0.096153	0.832678
C93	C	-0.056593	-0.596234	0.332823
C94	C	0.443407	-0.096234	0.832823
C95	C	-0.074746	-0.614396	0.314578
C96	C	0.425254	-0.114396	0.814578
C97	C	-0.088477	-0.693710	0.356299
C98	C	0.411523	-0.193710	0.856299
C99	C	-0.071982	-0.743310	0.372851
C100	C	0.428018	-0.243310	0.872851
C101	C	0.008266	-0.743392	0.342376
C102	C	0.508266	-0.243392	0.842376
C103	C	-0.008230	-0.693794	0.325823
C104	C	0.491770	-0.193794	0.825823
C105	C	-0.154162	-0.608103	0.381422
C106	C	0.345838	-0.108103	0.881422
C107	C	-0.203757	-0.591517	0.397874
C108	C	0.296243	-0.091517	0.897874
C109	C	-0.203630	-0.551037	0.316836
C110	C	0.296370	-0.051037	0.816836
C111	C	-0.154034	-0.567623	0.300384
C112	C	0.345966	-0.067623	0.800384
C113	C	-0.068543	-0.547475	0.320829
C114	C	0.431457	-0.047475	0.820829
C115	C	-0.052041	-0.530969	0.337421
C116	C	0.447959	-0.030969	0.837421
C117	C	-0.011639	-0.611977	0.377990
C118	C	0.488361	-0.111977	0.877990
C119	C	-0.028141	-0.628485	0.361404
C120	C	0.471859	-0.128485	0.861404
C121	C	-0.068417	-0.547482	0.235199
C122	C	0.431583	-0.047482	0.735199
C123	C	-0.051814	-0.530977	0.185602
C124	C	0.448186	-0.030977	0.685602
C125	C	-0.011349	-0.611990	0.185649
C126	C	0.488651	-0.111990	0.685649
C127	C	-0.027951	-0.628493	0.235248
C128	C	0.472049	-0.128493	0.735248
C129	C	-0.056486	-0.596238	0.260022
C130	C	0.443514	-0.096238	0.760022
C131	C	-0.056602	-0.668955	0.332787
C132	C	0.443398	-0.168955	0.832787
C133	C	-0.005599	-0.544662	0.106983
C134	C	0.494401	-0.044662	0.606983
C135	C	-0.006342	-0.821999	0.384121
C136	C	0.493658	-0.321999	0.884121
C137	C	-0.005979	-0.544649	0.383673
C138	C	0.494021	-0.044649	0.883673
C139	C	-0.282336	-0.544682	0.382817
C140	C	0.217664	-0.044682	0.882817
N141	N	0.427518	-0.448428	0.480350
N142	N	0.927518	0.051572	0.980350
O143	O	0.589573	-0.456297	0.363634
O144	O	1.089573	0.043703	0.863634
O145	O	0.589761	-0.548399	0.488643
O146	O	1.089761	-0.048399	0.988643
O147	O	0.589681	-0.548188	0.409364
O148	O	1.089681	-0.048188	0.909364
O149	O	0.589654	-0.456508	0.442913
O150	O	1.089654	0.043492	0.942913
O151	O	0.510890	-0.521988	0.435708
O152	O	1.010890	-0.021988	0.935708
O153	O	0.510970	-0.522199	0.514987
O154	O	1.010970	-0.022199	1.014987
O155	O	0.510782	-0.430098	0.389978
O156	O	1.010782	0.069902	0.889978
Zn157	Zn	0.498366	-0.471989	0.456665
Zn158	Zn	0.998366	0.028011	0.956665
Zn159	Zn	0.602177	-0.506508	0.421956
Zn160	Zn	1.102177	-0.006508	0.921956
O161	O	0.510862	-0.430308	0.469257
O162	O	1.010862	0.069692	0.969257
N163	N	0.673025	-0.530068	0.398267
N164	N	1.173025	-0.030068	0.898267
N165	N	0.091092	-0.112167	0.480590
N166	N	0.591092	0.387833	0.980590
O167	O	-0.025539	0.049976	0.472612
O168	O	0.474461	0.549976	0.972612
O169	O	0.099472	0.050011	0.380491
O170	O	0.599472	0.550011	0.880491
O171	O	0.020155	0.049979	0.380751
O172	O	0.520155	0.549979	0.880751
O173	O	0.053778	0.050009	0.472352
O174	O	0.553778	0.550009	0.972352
O175	O	0.046458	-0.028818	0.407008
O176	O	0.546458	0.471182	0.907008
O177	O	0.125775	-0.028785	0.406748
O178	O	0.625775	0.471215	0.906748
O179	O	0.000764	-0.028821	0.498869
O180	O	0.500764	0.471179	0.998869
Zn181	Zn	0.067445	-0.041314	0.456977
Zn182	Zn	0.567445	0.458686	0.956977
Zn183	Zn	0.032791	0.062504	0.422382
Zn184	Zn	0.532791	0.562504	0.922382
O185	O	0.080081	-0.028788	0.498609
O186	O	0.580081	0.471212	0.998609
N187	N	0.009138	0.133358	0.398771
N188	N	0.509138	0.633358	0.898771
N189	N	0.091421	-0.448552	0.816827
N190	N	0.591421	0.051448	1.316827
O191	O	0.083469	-0.565164	0.978960
O192	O	0.583469	-0.065164	1.478960
O193	O	-0.008614	-0.440110	0.979002
O194	O	0.491386	0.059890	1.479002
O195	O	-0.008399	-0.519410	0.978978
O196	O	0.491601	-0.019410	1.478978
O197	O	0.083253	-0.485863	0.978984
O198	O	0.583253	0.014137	1.478984
O199	O	0.017837	-0.493128	0.900185
O200	O	0.517837	0.006872	1.400185
O201	O	0.017621	-0.413827	0.900208
O202	O	0.517621	0.086173	1.400208
O203	O	0.109704	-0.538881	0.900167
O204	O	0.609704	-0.038881	1.400167
Zn205	Zn	0.067828	-0.472181	0.887677
Zn206	Zn	0.567828	0.027819	1.387677
Zn207	Zn	0.033262	-0.506810	0.991491
Zn208	Zn	0.533262	-0.006810	1.491491
O209	O	0.109489	-0.459581	0.900191
O210	O	0.609489	0.040419	1.400191
N211	N	0.009668	-0.530444	1.062341
N212	N	0.509668	-0.030444	1.562341
C213	C	0.030297	-0.411123	0.381218
C214	C	0.530297	0.088877	0.881218
C215	C	0.128439	-0.509167	0.381113
C216	C	0.628439	-0.009167	0.881113
C217	C	0.070004	-0.567805	0.498310
C218	C	0.570004	-0.067805	0.998310
C219	C	-0.028138	-0.469761	0.498415
C220	C	0.471862	0.030239	0.998415
C221	C	0.550388	-0.547982	0.517564
C222	C	1.050388	-0.047982	1.017564
C223	C	0.550290	-0.547721	0.419387
C224	C	1.050290	-0.047721	0.919387
C225	C	0.550153	-0.430514	0.361058
C226	C	1.050153	0.069486	0.861058
C227	C	0.550253	-0.430775	0.459234
C228	C	1.050253	0.069225	0.959234
C229	C	0.128339	0.010714	0.380902
C230	C	0.628339	0.510714	0.880902
C231	C	0.030148	0.010577	0.381256
C232	C	0.530148	0.510577	0.881256
C233	C	-0.028136	0.010574	0.498426
C234	C	0.471864	0.510574	0.998426
C235	C	0.070089	0.010613	0.498104
C236	C	0.570089	0.510613	0.998104
C237	C	-0.008178	-0.411214	0.939610
C238	C	0.491822	0.088786	1.439610
C239	C	-0.007906	-0.509413	0.939566
C240	C	0.492094	-0.009413	1.439566
C241	C	0.109268	-0.567777	0.939558
C242	C	0.609268	-0.067777	1.439558
C243	C	0.109002	-0.469572	0.939586
C244	C	0.609002	0.030428	1.439586
H245	H	0.082121	-0.347425	0.623816
H246	H	0.582121	0.152575	1.123816
H247	H	0.022945	0.010574	0.352477
H248	H	0.522945	0.510574	0.852477
H249	H	0.023152	-0.375173	0.352387
H250	H	0.523152	0.124827	0.852387
H251	H	0.550436	-0.576894	0.553469
H252	H	1.050436	-0.076894	1.053469
O253	O	0.171062	0.010960	0.346269
O254	O	0.671062	0.510960	0.846269
C255	C	0.170987	0.011051	0.305473
C256	C	0.670987	0.511051	0.805473
H257	H	0.143052	-0.004026	0.315990
H258	H	0.643052	0.495974	0.815990
H259	H	0.207348	-0.011646	0.287591
H260	H	0.707348	0.488354	0.787591
H261	H	0.162500	0.048899	0.279849
H262	H	0.662500	0.548899	0.779849
O263	O	0.171323	-0.517674	0.346717
O264	O	0.671323	-0.017674	0.846717
C265	C	0.200767	-0.564230	0.363830
C266	C	0.700767	-0.064230	0.863830
H267	H	0.187919	-0.576779	0.404184
H268	H	0.687919	-0.076779	0.904184
H269	H	0.238729	-0.564824	0.349313
H270	H	0.738729	-0.064824	0.849313
H271	H	0.199462	-0.588731	0.351832
H272	H	0.699462	-0.088731	0.851832
H273	H	0.077150	-0.603753	0.527142
H274	H	0.577150	-0.103753	1.027142
H275	H	-0.064060	-0.462687	0.527292
H276	H	0.435940	0.037313	1.027292
O277	O	0.078591	0.010640	0.532485
O278	O	0.578591	0.510640	1.032485
C279	C	0.037933	0.010616	0.573386
C280	C	0.537933	0.510616	1.073386
H281	H	0.005346	0.025523	0.563062
H282	H	0.505346	0.525523	1.063062
H283	H	0.033796	0.033497	0.591023
H284	H	0.533796	0.533497	1.091023
H285	H	0.041781	-0.027189	0.599149
H286	H	0.541781	0.472811	1.099149
H287	H	0.550303	-0.576522	0.412207
H288	H	1.050303	-0.076522	0.912207
H289	H	0.550093	-0.401597	0.325157
H290	H	1.050093	0.098403	0.825157
O291	O	-0.096242	-0.516189	0.293123
O292	O	0.403758	-0.016189	0.793123
C293	C	-0.140353	-0.523272	0.315603
C294	C	0.359647	-0.023272	0.815603
H295	H	-0.136400	-0.560903	0.341819
H296	H	0.363600	-0.060903	0.841819
H297	H	-0.153013	-0.517741	0.287870
H298	H	0.346987	-0.017741	0.787870
H299	H	-0.167315	-0.496901	0.335297
H300	H	0.332685	0.003099	0.835297
H301	H	0.550247	-0.401977	0.466412
H302	H	1.050247	0.098023	0.966412
H303	H	0.138179	-0.603691	0.939539
H304	H	0.638179	-0.103691	1.439539
O305	O	-0.071000	0.010592	0.532867
O306	O	0.429000	0.510592	1.032867
C307	C	-0.100500	0.010568	0.515840
C308	C	0.399500	0.510568	1.015840
H309	H	-0.087690	0.025479	0.475484
H310	H	0.412310	0.525479	0.975484
H311	H	-0.138448	0.033446	0.530371
H312	H	0.361552	0.533446	1.030371
H313	H	-0.099215	-0.027237	0.527895
H314	H	0.400785	0.472763	1.027895
O315	O	-0.042260	-0.517881	0.939461
O316	O	0.457740	-0.017881	1.439461
C317	C	-0.054986	-0.485396	0.898640
C318	C	0.445014	0.014604	1.398640
H319	H	-0.045551	-0.452565	0.885066
H320	H	0.454449	0.047435	1.385066
H321	H	-0.094725	-0.474793	0.907795
H322	H	0.405275	0.025207	1.407795
H323	H	-0.034974	-0.502561	0.870050
H324	H	0.465026	-0.002561	1.370050
O325	O	-0.042624	-0.368349	0.939646
O326	O	0.457376	0.131651	1.439646
C327	C	-0.025567	-0.338861	0.939641
C328	C	0.474433	0.161139	1.439641
H329	H	0.004854	-0.361642	0.954551
H330	H	0.504854	0.138358	1.454551
H331	H	-0.055337	-0.316167	0.962526
H332	H	0.444663	0.183833	1.462526
H333	H	-0.012426	-0.314930	0.901842
H334	H	0.487574	0.185070	1.401842
O335	O	-0.096061	-0.516132	0.259248
O336	O	0.403939	-0.016132	0.759248
C337	C	-0.071009	-0.487488	0.247170
C338	C	0.428991	0.012512	0.747170
H339	H	-0.031331	-0.506676	0.233588
H340	H	0.468669	-0.006676	0.733588
H341	H	-0.079916	-0.479988	0.279800
H342	H	0.420084	0.020012	0.779800
H343	H	-0.081522	-0.452640	0.218358
H344	H	0.418478	0.047360	0.718358
H345	H	0.137795	-0.462392	0.939581
H346	H	0.637795	0.037608	1.439581
H347	H	0.199204	-0.450885	0.713670
H348	H	0.699204	0.049115	1.213670
O349	O	0.044536	-0.375505	0.717618
O350	O	0.544536	0.124495	1.217618
C351	C	0.019598	-0.346798	0.685121
C352	C	0.519598	0.153202	1.185121
H353	H	0.043228	-0.328760	0.649757
H354	H	0.543228	0.171240	1.149757
H355	H	-0.013496	-0.318741	0.699471
H356	H	0.486504	0.181259	1.199471
H357	H	0.008894	-0.369678	0.679857
H358	H	0.508894	0.130322	1.179857
H359	H	0.229113	-0.420876	0.623698
H360	H	0.729113	0.079124	1.123698
O361	O	0.230603	-0.461934	0.576223
O362	O	0.730603	0.038066	1.076223
C363	C	0.242709	-0.485163	0.545875
C364	C	0.742709	0.014837	1.045875
H365	H	0.256311	-0.462574	0.507478
H366	H	0.756311	0.037426	1.007478
H367	H	0.210090	-0.490745	0.551753
H368	H	0.710090	0.009255	1.051753
H369	H	0.271514	-0.520954	0.553851
H370	H	0.771514	-0.020954	1.053851
O371	O	0.077005	-0.342878	0.586082
O372	O	0.577005	0.157122	1.086082
C373	C	0.048291	-0.301286	0.561069
C374	C	0.548291	0.198714	1.061069
H375	H	0.067413	-0.294378	0.521385
H376	H	0.567413	0.205622	1.021385
H377	H	0.040794	-0.270047	0.569947
H378	H	0.540794	0.229953	1.069947
H379	H	0.013448	-0.305801	0.571649
H380	H	0.513448	0.194199	1.071649
O381	O	0.044403	-0.375605	0.553671
O382	O	0.544403	0.124395	1.053671
C383	C	0.023848	-0.392577	0.603351
C384	C	0.523848	0.107423	1.103351
H385	H	0.052115	-0.423162	0.619310
H386	H	0.552115	0.076838	1.119310
H387	H	-0.005383	-0.405466	0.612863
H388	H	0.494617	0.094534	1.112863
H389	H	0.008192	-0.362829	0.618051
H390	H	0.508192	0.137171	1.118051
H391	H	0.229008	-0.420842	0.508101
H392	H	0.729008	0.079158	1.008101
O393	O	0.204115	-0.455304	0.473651
O394	O	0.704115	0.044696	0.973651
C395	C	0.250701	-0.462330	0.466603
C396	C	0.750701	0.037670	0.966603
H397	H	0.250613	-0.432428	0.472144
H398	H	0.750613	0.067572	0.972144
H399	H	0.274223	-0.462578	0.428980
H400	H	0.774223	0.037422	0.928980
H401	H	0.264940	-0.497665	0.492985
H402	H	0.764940	0.002335	0.992985
H403	H	0.324395	-0.341295	0.487026
H404	H	0.824395	0.158705	0.987026
O405	O	0.328428	-0.494480	0.543592
O406	O	0.828428	0.005520	1.043592
C407	C	0.377516	-0.502230	0.523928
C408	C	0.877516	-0.002230	1.023928
H409	H	0.384264	-0.468092	0.495498
H410	H	0.884264	0.031908	0.995498
H411	H	0.396359	-0.531207	0.507442
H412	H	0.896359	-0.031207	1.007442
H413	H	0.391619	-0.513659	0.552942
H414	H	0.891619	-0.013659	1.052942
O415	O	0.230577	-0.303701	0.515886
O416	O	0.730577	0.196299	1.015886
C417	C	0.242647	-0.278106	0.466917
C418	C	0.742647	0.221894	0.966917
H419	H	0.278650	-0.299770	0.447371
H420	H	0.778650	0.200230	0.947371
H421	H	0.244338	-0.243138	0.460361
H422	H	0.744338	0.256862	0.960361
H423	H	0.214714	-0.270711	0.453423
H424	H	0.714714	0.229289	0.953423
O425	O	0.196621	-0.309100	0.466329
O426	O	0.696621	0.190900	0.966329
C427	C	0.171547	-0.296974	0.437676
C428	C	0.671547	0.203026	0.937676
H429	H	0.131874	-0.283353	0.456853
H430	H	0.631874	0.216647	0.956853
H431	H	0.180418	-0.329590	0.430177
H432	H	0.680418	0.170410	0.930177
H433	H	0.182075	-0.268175	0.402829
H434	H	0.682075	0.231825	0.902829
O435	O	0.163989	-0.211266	0.433804
O436	O	0.663989	0.288734	0.933804
C437	C	0.143274	-0.162174	0.426143
C438	C	0.643274	0.337826	0.926143
H439	H	0.111456	-0.155415	0.458703
H440	H	0.611456	0.344585	0.958703
H441	H	0.131211	-0.143319	0.394013
H442	H	0.631211	0.356681	0.894013
H443	H	0.170405	-0.148091	0.419516
H444	H	0.670405	0.351909	0.919516
O445	O	0.084398	-0.211439	0.593517
O446	O	0.584398	0.288561	1.093517
C447	C	0.109478	-0.223540	0.622153
C448	C	0.609478	0.276460	1.122153
H449	H	0.138360	-0.259545	0.622624
H450	H	0.638360	0.240455	1.122624
H451	H	0.084057	-0.225246	0.659774
H452	H	0.584057	0.274754	1.159774
H453	H	0.126298	-0.195614	0.607219
H454	H	0.626298	0.304386	1.107219
O455	O	0.117067	-0.309225	0.626021
O456	O	0.617067	0.190775	1.126021
C457	C	0.158760	-0.337898	0.637977
C458	C	0.658760	0.162102	1.137977
H459	H	0.189905	-0.345313	0.605279
H460	H	0.689905	0.154687	1.105279
H461	H	0.154352	-0.372785	0.666734
H462	H	0.654352	0.127215	1.166734
H463	H	0.165736	-0.318784	0.651585
H464	H	0.665736	0.181216	1.151585
H465	H	0.011877	-0.638258	0.165483
H466	H	0.511877	-0.138258	0.665483
O467	O	-0.063434	-0.483623	0.161443
O468	O	0.436566	0.016377	0.661443
C469	C	-0.088357	-0.471621	0.132699
C470	C	0.411643	0.028379	0.632699
H471	H	-0.079400	-0.504306	0.125265
H472	H	0.420600	-0.004306	0.625265
H473	H	-0.077763	-0.442875	0.097828
H474	H	0.422237	0.057125	0.597828
H475	H	-0.128059	-0.457976	0.151759
H476	H	0.371941	0.042024	0.651759
O477	O	-0.016335	-0.675874	0.259285
O478	O	0.483665	-0.175874	0.759285
C479	C	0.012417	-0.700801	0.226782
C480	C	0.512417	-0.200801	0.726782
H481	H	0.006146	-0.677147	0.191396
H482	H	0.506146	-0.177147	0.691396
H483	H	0.003099	-0.733878	0.241090
H484	H	0.503099	-0.233878	0.741090
H485	H	0.051253	-0.711536	0.221577
H486	H	0.551253	-0.211536	0.721577
H487	H	0.011532	-0.638242	0.401256
H488	H	0.511532	-0.138242	0.901256
O489	O	-0.063557	-0.483616	0.325753
O490	O	0.436443	0.016384	0.825753
C491	C	-0.021860	-0.471693	0.300850
C492	C	0.478140	0.028307	0.800850
H493	H	0.009265	-0.504407	0.309855
H494	H	0.509265	-0.004407	0.809855
H495	H	-0.026298	-0.442939	0.311417
H496	H	0.473702	0.057061	0.811417
H497	H	-0.014831	-0.458091	0.261142
H498	H	0.485169	0.041909	0.761142
O499	O	-0.016472	-0.675865	0.373077
O500	O	0.483528	-0.175865	0.873077
C501	C	0.012171	-0.700793	0.401869
C502	C	0.512171	-0.200793	0.901869
H503	H	0.030204	-0.677166	0.395586
H504	H	0.530204	-0.177166	0.895586
H505	H	0.040229	-0.733911	0.392605
H506	H	0.540229	-0.233911	0.892605
H507	H	-0.010759	-0.711459	0.440698
H508	H	0.489241	-0.211459	0.940698
H509	H	0.017729	-0.673638	0.306677
H510	H	0.517729	-0.173638	0.806677
H511	H	0.047655	-0.763617	0.336709
H512	H	0.547655	-0.263617	0.836709
H513	H	-0.127865	-0.673490	0.361973
H514	H	0.372135	-0.173490	0.861973
O515	O	-0.103008	-0.767284	0.395669
O516	O	0.396992	-0.267284	0.895669
C517	C	-0.126216	-0.755163	0.365293
C518	C	0.373784	-0.255163	0.865293
H519	H	-0.125006	-0.719185	0.337025
H520	H	0.374994	-0.219185	0.837025
H521	H	-0.164678	-0.753387	0.386710
H522	H	0.335322	-0.253387	0.886710
H523	H	-0.107733	-0.783114	0.347583
H524	H	0.392267	-0.283114	0.847583
O525	O	-0.130187	-0.635864	0.412835
O526	O	0.369813	-0.135864	0.912835
C527	C	-0.142342	-0.677438	0.441486
C528	C	0.357658	-0.177438	0.941486
H529	H	-0.178337	-0.670748	0.441908
H530	H	0.321663	-0.170748	0.941908
H531	H	-0.144094	-0.687892	0.479119
H532	H	0.355906	-0.187892	0.979119
H533	H	-0.114426	-0.707291	0.426599
H534	H	0.385574	-0.207291	0.926599
O535	O	-0.227963	-0.603142	0.445216
O536	O	0.272037	-0.103142	0.945216
C537	C	-0.256650	-0.628079	0.457138
C538	C	0.243350	-0.128079	0.957138
H539	H	-0.264022	-0.619127	0.424414
H540	H	0.235978	-0.119127	0.924414
H541	H	-0.291554	-0.617492	0.485859
H542	H	0.208446	-0.117492	0.985859
H543	H	-0.237573	-0.667783	0.470782
H544	H	0.262427	-0.167783	0.970782
O545	O	-0.227585	-0.523315	0.285403
O546	O	0.272415	-0.023315	0.785403
C547	C	-0.195007	-0.516344	0.238850
C548	C	0.304993	-0.016344	0.738850
H549	H	-0.159669	-0.521921	0.239001
H550	H	0.340331	-0.021921	0.739001
H551	H	-0.209288	-0.478727	0.215270
H552	H	0.290712	0.021273	0.715270
H553	H	-0.189722	-0.542744	0.224635
H554	H	0.310278	-0.042744	0.724635
H555	H	-0.133793	-0.557888	0.260690
H556	H	0.366207	-0.057888	0.760690
