data_functionalizedCrystal
_audit_creation_method	'MofGen! by Chris Wilmer'
_symmetry_space_group_name_H-M	'P1'
_symmetry_Int_Tables_number	1
_symmetry_cell_setting	triclinic
loop_
_symmetry_equiv_pos_as_xyz
  x,y,z
_cell_length_a	12.759401
_cell_length_b	21.295417
_cell_length_c	12.759393
_cell_angle_alpha	89.960626
_cell_angle_beta	89.982620
_cell_angle_gamma	90.030668
loop_
_atom_site_label
_atom_site_type_symbol
_atom_site_fract_x
_atom_site_fract_y
_atom_site_fract_z
Zn1	Zn	1.606128	-0.250568	-0.593926
Zn2	Zn	1.605978	-0.355853	-0.418223
Zn3	Zn	1.430434	-0.250601	-0.418265
Zn4	Zn	1.430371	-0.355804	-0.593864
O5	O	1.518228	-0.303206	-0.506069
O6	O	1.753129	-0.264541	-0.570626
O7	O	1.582655	-0.341925	-0.271207
O8	O	1.453830	-0.162508	-0.441611
O9	O	1.753019	-0.341893	-0.441538
O10	O	1.582912	-0.162483	-0.570668
O11	O	1.453683	-0.264598	-0.271238
O12	O	1.283404	-0.264550	-0.441551
O13	O	1.453722	-0.341810	-0.740893
O14	O	1.283358	-0.341842	-0.570562
O15	O	1.582850	-0.264493	-0.740939
O16	O	1.582593	-0.443935	-0.441478
O17	O	1.453576	-0.443900	-0.570521
C18	C	1.245260	-0.303195	-0.506055
C19	C	1.128484	-0.303205	-0.506074
C20	C	1.073625	-0.343515	-0.573139
C21	C	0.963901	-0.343523	-0.573151
C22	C	0.963904	-0.262909	-0.439022
C23	C	1.073626	-0.262898	-0.439017
C24	C	1.128483	-0.383822	-0.640196
C25	C	1.073624	-0.424136	-0.707266
C26	C	0.963900	-0.424144	-0.707277
C27	C	0.909034	-0.383838	-0.640219
C28	C	1.518090	-0.466758	-0.506011
C29	C	1.518127	-0.536726	-0.506021
C30	C	1.585366	-0.569591	-0.438898
C31	C	1.585416	-0.635333	-0.438921
C32	C	1.518207	-0.668209	-0.506058
C33	C	1.450963	-0.635336	-0.573195
C34	C	1.450923	-0.569595	-0.573177
N35	N	1.426299	-0.771474	-0.514062
N36	N	1.426340	-0.833925	-0.514073
C37	C	1.518324	-0.866283	-0.506118
N38	N	1.610268	-0.833831	-0.498130
N39	N	1.610226	-0.771373	-0.498114
C40	C	1.518243	-0.739494	-0.506085
C41	C	1.585623	-0.970433	-0.439016
C42	C	1.585674	-1.036177	-0.439047
C43	C	1.451212	-1.036179	-0.573315
C44	C	1.451170	-0.970437	-0.573289
C45	C	1.518374	-0.937568	-0.506134
C46	C	1.792261	-0.303219	-0.506084
C47	C	1.909037	-0.303224	-0.506091
C48	C	1.518296	-0.303142	-0.780103
C49	C	1.518325	-0.303115	-0.896880
C50	C	1.518395	-0.139016	-0.506151
C51	C	1.518466	-0.069048	-0.506185
C52	C	1.451198	-0.262843	-0.951764
C53	C	1.451230	-0.262824	-1.061488
C54	C	1.585524	-0.343351	-1.061434
C55	C	1.585487	-0.343373	-0.951712
C56	C	1.384036	-0.222586	-0.896932
C57	C	1.316905	-0.182310	-0.951816
C58	C	1.316937	-0.182291	-1.061541
C59	C	1.384100	-0.222548	-1.116380
C60	C	1.518220	-0.303225	-0.233102
C61	C	1.518395	-0.303075	-0.116326
H62	H	1.118293	-0.230070	-0.384415
C63	C	1.659299	-0.533438	-0.365042
H64	H	1.699359	-0.562431	-0.325076
H65	H	1.619126	-0.507835	-0.319223
H66	H	1.705044	-0.507751	-0.405274
C67	C	1.243079	-0.138004	-1.121916
H68	H	1.252705	-0.143763	-1.195116
H69	H	1.258480	-0.095710	-1.103970
H70	H	1.172475	-0.147228	-1.103919
C71	C	1.133970	-0.468471	-0.781020
H72	H	1.207174	-0.462698	-0.771402
H73	H	1.116026	-0.459314	-0.851644
H74	H	1.115949	-0.510757	-0.765500
H75	H	1.384118	-0.222531	-1.205725
C76	C	1.376955	-0.533440	-0.647011
H77	H	1.386561	-0.489579	-0.637387
H78	H	1.306379	-0.544260	-0.631582
H79	H	1.392309	-0.544167	-0.717622
H80	H	1.396494	-1.062946	-0.627983
C81	C	1.659406	-0.387623	-1.121755
H82	H	1.649822	-0.381838	-1.194962
H83	H	1.643986	-0.429922	-1.103752
H84	H	1.730003	-0.378412	-1.103774
C85	C	0.903555	-0.218581	-0.365259
H86	H	0.830351	-0.224365	-0.374861
H87	H	0.921566	-0.176294	-0.380763
H88	H	0.921506	-0.227747	-0.294635
C89	C	1.383994	-0.222607	-0.776240
H90	H	1.334377	-0.192868	-0.751442
H91	H	1.451797	-0.211735	-0.751422
H92	H	1.365762	-0.263235	-0.751396
C93	C	0.903552	-0.468482	-0.781052
H94	H	0.830349	-0.462713	-0.771462
H95	H	0.921500	-0.510764	-0.765542
H96	H	0.921570	-0.459315	-0.851673
C97	C	1.249175	-0.383812	-0.640192
H98	H	1.273991	-0.413585	-0.689738
H99	H	1.273966	-0.394642	-0.572357
H100	H	1.274026	-0.343198	-0.658498
H101	H	1.262217	-0.149538	-0.907159
C102	C	1.659322	-0.387672	-0.891335
H103	H	1.699336	-0.411639	-0.939704
H104	H	1.619082	-0.415103	-0.848519
H105	H	1.705114	-0.363601	-0.848543
C106	C	1.659640	-1.072328	-0.365206
H107	H	1.699648	-1.043334	-0.325205
H108	H	1.705416	-1.097928	-0.405437
H109	H	1.619481	-1.098019	-0.319403
C110	C	0.788340	-0.383833	-0.640256
H111	H	0.763523	-0.413611	-0.689806
H112	H	0.763574	-0.343222	-0.658556
H113	H	0.763465	-0.394674	-0.572428
H114	H	1.640174	-0.662097	-0.384261
H115	H	1.396413	-0.943677	-0.627944
C116	C	1.377033	-0.671497	-0.647041
H117	H	1.386679	-0.715357	-0.637431
H118	H	1.392362	-0.660680	-0.717642
H119	H	1.306441	-0.660767	-0.631594
H120	H	1.640348	-0.943670	-0.384338
