data_functionalizedCrystal
_audit_creation_method	'MofGen! by Chris Wilmer'
_symmetry_space_group_name_H-M	'P1'
_symmetry_Int_Tables_number	1
_symmetry_cell_setting	triclinic
loop_
_symmetry_equiv_pos_as_xyz
  x,y,z
_cell_length_a	19.805407
_cell_length_b	25.639239
_cell_length_c	19.805399
_cell_angle_alpha	89.971274
_cell_angle_beta	89.975799
_cell_angle_gamma	90.037933
loop_
_atom_site_label
_atom_site_type_symbol
_atom_site_fract_x
_atom_site_fract_y
_atom_site_fract_z
Zn1	Zn	1.034678	-0.208173	-0.382798
Zn2	Zn	1.368011	0.125160	-0.049464
Zn3	Zn	1.701345	0.458493	0.283869
Zn4	Zn	1.034569	-0.295607	-0.269607
Zn5	Zn	1.367902	0.037726	0.063726
Zn6	Zn	1.701235	0.371059	0.397059
Zn7	Zn	0.921493	-0.208187	-0.269613
Zn8	Zn	1.254826	0.125147	0.063720
Zn9	Zn	1.588159	0.458480	0.397053
Zn10	Zn	0.921432	-0.295578	-0.382745
Zn11	Zn	1.254765	0.037755	-0.049412
Zn12	Zn	1.588099	0.371088	0.283922
O13	O	0.978043	-0.251886	-0.326191
O14	O	1.311376	0.081447	0.007143
O15	O	1.644709	0.414780	0.340476
O16	O	1.129380	-0.219778	-0.367802
O17	O	1.462713	0.113555	-0.034469
O18	O	1.796047	0.446888	0.298864
O19	O	1.019548	-0.284029	-0.174891
O20	O	1.352882	0.049305	0.158442
O21	O	1.686215	0.382638	0.491775
O22	O	0.936578	-0.135020	-0.284652
O23	O	1.269911	0.198314	0.048681
O24	O	1.603245	0.531647	0.382015
O25	O	1.129300	-0.284016	-0.284642
O26	O	1.462633	0.049318	0.048691
O27	O	1.795966	0.382651	0.382025
O28	O	1.019735	-0.135010	-0.367808
O29	O	1.353068	0.198323	-0.034475
O30	O	1.686402	0.531657	0.298858
O31	O	0.936472	-0.219801	-0.174896
O32	O	1.269805	0.113532	0.158437
O33	O	1.603139	0.446866	0.491771
O34	O	0.826768	-0.219773	-0.284601
O35	O	1.160101	0.113561	0.048733
O36	O	1.493435	0.446894	0.382066
O37	O	0.936475	-0.283966	-0.477469
O38	O	1.269808	0.049367	-0.144135
O39	O	1.603141	0.382700	0.189198
O40	O	0.826723	-0.283979	-0.367718
O41	O	1.160057	0.049354	-0.034385
O42	O	1.493390	0.382687	0.298949
O43	O	1.019676	-0.219750	-0.477507
O44	O	1.353009	0.113583	-0.144174
O45	O	1.686343	0.446916	0.189159
O46	O	1.019490	-0.368769	-0.284591
O47	O	1.352823	-0.035435	0.048743
O48	O	1.686156	0.297898	0.382076
O49	O	0.936368	-0.368748	-0.367712
O50	O	1.269702	-0.035414	-0.034379
O51	O	1.603035	0.297919	0.298954
C52	C	0.802187	-0.251875	-0.326155
C53	C	1.135520	0.081459	0.007179
C54	C	1.468853	0.414792	0.340512
C55	C	0.726955	-0.251882	-0.326155
C56	C	1.060288	0.081451	0.007178
C57	C	1.393621	0.414784	0.340511
C58	C	0.977929	-0.387729	-0.326160
C59	C	1.311262	-0.054396	0.007174
C60	C	1.644596	0.278938	0.340507
C61	C	0.977942	-0.445843	-0.326169
C62	C	1.311275	-0.112510	0.007164
C63	C	1.644609	0.220824	0.340497
C64	C	0.265158	-0.285382	-0.369445
C65	C	0.598492	0.047952	-0.036112
C66	C	0.931825	0.381285	0.297221
C67	C	0.335847	-0.285381	-0.369431
C68	C	0.669180	0.047953	-0.036098
C69	C	1.002513	0.381286	0.297236
C70	C	0.371193	-0.251899	-0.326217
C71	C	0.704526	0.081434	0.007116
C72	C	1.037860	0.414768	0.340449
C73	C	0.335847	-0.218420	-0.283010
C74	C	0.669181	0.114913	0.050323
C75	C	1.002514	0.448247	0.383657
C76	C	0.265160	-0.218424	-0.283022
C77	C	0.598493	0.114910	0.050312
C78	C	0.931827	0.448243	0.383645
C79	C	0.620921	-0.218404	-0.282963
C80	C	0.954254	0.114929	0.050371
C81	C	1.287587	0.448263	0.383704
C82	C	0.691613	-0.218402	-0.282956
C83	C	1.024946	0.114932	0.050377
C84	C	1.358279	0.448265	0.383711
C85	C	0.691607	-0.285361	-0.369372
C86	C	1.024940	0.047972	-0.036039
C87	C	1.358274	0.381306	0.297295
C88	C	0.620920	-0.285365	-0.369383
C89	C	0.954253	0.047969	-0.036050
C90	C	1.287587	0.381302	0.297283
C91	C	0.585580	-0.251888	-0.326174
C92	C	0.918914	0.081446	0.007159
C93	C	1.252247	0.414779	0.340493
C94	C	0.508932	-0.251890	-0.326189
C95	C	0.842265	0.081444	0.007144
C96	C	1.175599	0.414777	0.340477
C97	C	0.447840	-0.251894	-0.326205
C98	C	0.781173	0.081439	0.007128
C99	C	1.114507	0.414773	0.340462
C100	C	1.021437	-0.806205	-0.282983
C101	C	1.354770	-0.472871	0.050350
C102	C	1.688103	-0.139538	0.383684
C103	C	1.021463	-0.860809	-0.282992
C104	C	1.354796	-0.527476	0.050341
C105	C	1.688130	-0.194142	0.383675
O106	O	1.058326	-0.889044	-0.246240
O107	O	1.391659	-0.555711	0.087094
O108	O	1.724992	-0.222378	0.420427
N109	N	0.978162	-0.888126	-0.326236
N110	N	1.311495	-0.554792	0.007098
N111	N	1.644828	-0.221459	0.340431
C112	C	0.934836	-0.860835	-0.369478
C113	C	1.268170	-0.527502	-0.036144
C114	C	1.601503	-0.194168	0.297189
O115	O	0.898008	-0.889084	-0.406261
O116	O	1.231341	-0.555751	-0.072928
O117	O	1.564675	-0.222417	0.260406
C118	C	0.934814	-0.806232	-0.369472
C119	C	1.268147	-0.472898	-0.036138
C120	C	1.601481	-0.139565	0.297195
C121	C	0.978113	-0.778918	-0.326220
C122	C	1.311447	-0.445585	0.007113
C123	C	1.644780	-0.112251	0.340446
C124	C	1.064733	-0.778891	-0.239736
C125	C	1.398066	-0.445557	0.093597
C126	C	1.731400	-0.112224	0.426931
C127	C	1.064706	-0.724290	-0.239726
C128	C	1.398039	-0.390957	0.093607
C129	C	1.731373	-0.057624	0.426940
C130	C	1.021382	-0.697004	-0.282964
C131	C	1.354716	-0.363670	0.050370
C132	C	1.688049	-0.030337	0.383703
C133	C	0.978086	-0.724317	-0.326211
C134	C	1.311419	-0.390984	0.007123
C135	C	1.644753	-0.057651	0.340456
C136	C	0.891492	-0.778942	-0.412717
C137	C	1.224826	-0.445609	-0.079383
C138	C	1.558159	-0.112275	0.253950
C139	C	0.891474	-0.724335	-0.412707
C140	C	1.224807	-0.391002	-0.079374
C141	C	1.558141	-0.057668	0.253959
C142	C	0.934773	-0.697021	-0.369456
C143	C	1.268107	-0.363688	-0.036123
C144	C	1.601440	-0.030355	0.297211
C145	C	0.934735	-0.642430	-0.369438
C146	C	1.268068	-0.309097	-0.036105
C147	C	1.601402	0.024237	0.297228
N148	N	0.978036	-0.615114	-0.326195
N149	N	1.311370	-0.281780	0.007139
N150	N	1.644703	0.051553	0.340472
C151	C	1.021360	-0.642400	-0.282957
C152	C	1.354693	-0.309067	0.050376
C153	C	1.688027	0.024266	0.383709
C154	C	0.934887	-0.975506	-0.369488
C155	C	1.268221	-0.642172	-0.036155
C156	C	1.601554	-0.308839	0.297178
C157	C	0.934906	-1.030108	-0.369491
C158	C	1.268239	-0.696775	-0.036158
C159	C	1.601572	-0.363441	0.297175
C160	C	1.021534	-1.030078	-0.283007
C161	C	1.354867	-0.696745	0.050327
C162	C	1.688200	-0.363411	0.383660
C163	C	1.021511	-0.975475	-0.283000
C164	C	1.354845	-0.642141	0.050333
C165	C	1.688178	-0.308808	0.383666
C166	C	0.978189	-0.948189	-0.326245
C167	C	1.311522	-0.614856	0.007089
C168	C	1.644855	-0.281522	0.340422
C169	C	1.021299	-0.527735	-0.282940
C170	C	1.354632	-0.194402	0.050394
C171	C	1.687966	0.138931	0.383727
C172	C	1.021266	-0.473130	-0.282932
C173	C	1.354599	-0.139796	0.050402
C174	C	1.687932	0.193537	0.383735
C175	C	0.934641	-0.473164	-0.369419
C176	C	1.267974	-0.139831	-0.036086
C177	C	1.601307	0.193502	0.297248
C178	C	0.934671	-0.527765	-0.369425
C179	C	1.268004	-0.194432	-0.036091
C180	C	1.601338	0.138902	0.297242
C181	C	0.978006	-0.555049	-0.326183
C182	C	1.311339	-0.221716	0.007151
C183	C	1.644672	0.111618	0.340484
O184	O	0.897893	-0.614160	-0.406174
O185	O	1.231226	-0.280827	-0.072841
O186	O	1.564560	0.052507	0.260493
O187	O	1.058188	-0.614145	-0.246187
O188	O	1.391522	-0.280811	0.087147
O189	O	1.724855	0.052522	0.420480
C190	C	1.154585	-0.251899	-0.326227
C191	C	1.487919	0.081435	0.007106
C192	C	1.821252	0.414768	0.340439
C193	C	1.229817	-0.251904	-0.326243
C194	C	1.563151	0.081429	0.007090
C195	C	1.896484	0.414763	0.340424
C196	C	0.978081	-0.251854	-0.502734
C197	C	1.311414	0.081480	-0.169400
C198	C	1.644747	0.414813	0.163933
C199	C	0.978097	-0.251840	-0.577966
C200	C	1.311430	0.081494	-0.244632
C201	C	1.644764	0.414827	0.088701
C202	C	0.978175	-0.115513	-0.326237
C203	C	1.311509	0.217820	0.007097
C204	C	1.644842	0.551153	0.340430
C205	C	0.978232	-0.057399	-0.326256
C206	C	1.311565	0.275934	0.007077
C207	C	1.644899	0.609267	0.340410
C208	C	1.021421	-0.218401	-0.613331
C209	C	1.354754	0.114933	-0.279998
C210	C	1.688088	0.448266	0.053336
C211	C	1.021428	-0.218385	-0.684020
C212	C	1.354761	0.114948	-0.350686
C213	C	1.688094	0.448281	-0.017353
C214	C	0.978114	-0.251812	-0.719341
C215	C	1.311447	0.081521	-0.386008
C216	C	1.644780	0.414854	-0.052675
C217	C	0.934785	-0.285253	-0.683971
C218	C	1.268118	0.048081	-0.350638
C219	C	1.601452	0.381414	-0.017304
C220	C	0.934775	-0.285265	-0.613284
C221	C	1.268108	0.048068	-0.279950
C222	C	1.601442	0.381402	0.053383
C223	C	0.934823	-0.285204	-0.969044
C224	C	1.268157	0.048129	-0.635711
C225	C	1.601490	0.381463	-0.302378
C226	C	0.934838	-0.285190	-1.039736
C227	C	1.268171	0.048143	-0.706403
C228	C	1.601505	0.381476	-0.373070
C229	C	1.021476	-0.218324	-1.039780
C230	C	1.354809	0.115009	-0.706447
C231	C	1.688143	0.448342	-0.373114
C232	C	1.021466	-0.218337	-0.969093
C233	C	1.354799	0.114997	-0.635760
C234	C	1.688133	0.448330	-0.302426
C235	C	0.978135	-0.251775	-0.933729
C236	C	1.311468	0.081558	-0.600395
C237	C	1.644802	0.414892	-0.267062
C238	C	0.978127	-0.251790	-0.857080
C239	C	1.311461	0.081543	-0.523747
C240	C	1.644794	0.414876	-0.190414
C241	C	0.978125	-0.251800	-0.795988
C242	C	1.311458	0.081533	-0.462655
C243	C	1.644791	0.414867	-0.129322
C244	C	0.978044	-0.251882	-0.150335
C245	C	1.311377	0.081452	0.182999
C246	C	1.644711	0.414785	0.516332
C247	C	0.978159	-0.251748	-0.075103
C248	C	1.311492	0.081585	0.258230
C249	C	1.644826	0.414918	0.591563
H250	H	0.364618	-0.312643	-0.404609
H251	H	0.697951	0.020690	-0.071276
H252	H	1.031285	0.354024	0.262057
N253	N	1.065699	-0.184189	-0.933003
N254	N	1.399032	0.149144	-0.599670
N255	N	1.732365	0.482477	-0.266337
N256	N	1.065680	-0.184203	-0.869890
N257	N	1.399013	0.149130	-0.536557
N258	N	1.732347	0.482464	-0.203224
H259	H	1.096917	-0.160084	-0.844401
H260	H	1.430251	0.173249	-0.511068
H261	H	1.763584	0.506583	-0.177735
H262	H	1.099966	-0.702055	-0.204509
H263	H	1.433299	-0.368721	0.128824
H264	H	1.766632	-0.035388	0.462157
H265	H	0.720389	-0.312621	-0.404553
H266	H	1.053722	0.020712	-0.071220
H267	H	1.387056	0.354046	0.262113
H268	H	1.056756	-0.191096	-1.068582
H269	H	1.390089	0.142238	-0.735249
H270	H	1.723422	0.475571	-0.401916
N271	N	0.847255	-0.806832	-0.456892
N272	N	1.180589	-0.473499	-0.123559
N273	N	1.513922	-0.140165	0.209775
N274	N	0.784800	-0.800778	-0.452343
N275	N	1.118133	-0.467445	-0.119010
N276	N	1.451467	-0.134112	0.214323
H277	H	0.753555	-0.820475	-0.483545
H278	H	1.086888	-0.487141	-0.150212
H279	H	1.420221	-0.153808	0.183121
N280	N	0.890381	-0.445296	-0.413585
N281	N	1.223714	-0.111962	-0.080252
N282	N	1.557047	0.221371	0.253082
N283	N	0.827929	-0.451442	-0.409041
N284	N	1.161262	-0.118109	-0.075707
N285	N	1.494596	0.215224	0.257626
H286	H	0.796672	-0.431760	-0.440237
H287	H	1.130005	-0.098427	-0.106903
H288	H	1.463338	0.234907	0.226430
N289	N	0.890584	-0.319338	-1.075808
N290	N	1.223917	0.013995	-0.742474
N291	N	1.557251	0.347328	-0.409141
N292	N	0.851897	-0.349189	-1.044225
N293	N	1.185230	-0.015856	-0.710892
N294	N	1.518564	0.317477	-0.377559
H295	H	0.820643	-0.373305	-1.069700
H296	H	1.153977	-0.039971	-0.736367
H297	H	1.487310	0.293362	-0.403034
H298	H	0.856196	-0.702122	-0.447924
H299	H	1.189530	-0.368788	-0.114591
H300	H	1.522863	-0.035455	0.218743
N301	N	0.727731	-0.184202	-0.238817
N302	N	1.061064	0.149132	0.094516
N303	N	1.394398	0.482465	0.427849
N304	N	0.767215	-0.150907	-0.262704
N305	N	1.100548	0.182426	0.070629
N306	N	1.433881	0.515760	0.403962
H307	H	0.792725	-0.126754	-0.231535
H308	H	1.126058	0.206579	0.101798
H309	H	1.459392	0.539913	0.435132
N310	N	1.065502	-0.445228	-0.238757
N311	N	1.398835	-0.111894	0.094576
N312	N	1.732169	0.221439	0.427909
N313	N	1.108605	-0.414710	-0.262605
N314	N	1.441938	-0.081377	0.070729
N315	N	1.775271	0.251956	0.404062
H316	H	1.139844	-0.395004	-0.231407
H317	H	1.473178	-0.061671	0.101926
H318	H	1.806511	0.271662	0.435259
N319	N	0.890634	-0.947629	-0.413660
N320	N	1.223967	-0.614295	-0.080326
N321	N	1.557300	-0.280962	0.253007
N322	N	0.914405	-0.917123	-0.456815
N323	N	1.247739	-0.583790	-0.123482
N324	N	1.581072	-0.250457	0.209851
H325	H	0.883153	-0.897437	-0.488013
H326	H	1.216487	-0.564104	-0.154680
H327	H	1.549820	-0.230770	0.178654
H328	H	0.592144	-0.312627	-0.404575
H329	H	0.925478	0.020706	-0.071242
H330	H	1.258811	0.354040	0.262092
N331	N	0.890574	-0.319364	-0.932922
N332	N	1.223907	0.013969	-0.599589
N333	N	1.557241	0.347302	-0.266255
N334	N	0.914345	-0.352690	-0.893469
N335	N	1.247678	-0.019356	-0.560136
N336	N	1.581011	0.313977	-0.226802
H337	H	0.883092	-0.376816	-0.867953
H338	H	1.216425	-0.043483	-0.534620
H339	H	1.549758	0.289851	-0.201286
H340	H	0.364632	-0.191161	-0.247822
H341	H	0.697965	0.142172	0.085512
H342	H	1.031299	0.475506	0.418845
H343	H	0.899515	-0.312468	-0.712735
H344	H	1.232849	0.020866	-0.379402
H345	H	1.566182	0.354199	-0.046069
N346	N	0.229069	-0.184218	-0.238894
N347	N	0.562402	0.149115	0.094439
N348	N	0.895735	0.482448	0.427773
N349	N	0.237004	-0.135978	-0.243495
N350	N	0.570337	0.197356	0.089839
N351	N	0.903671	0.530689	0.423172
H352	H	0.211515	-0.111819	-0.212327
H353	H	0.544849	0.221514	0.121006
H354	H	0.878182	0.554847	0.454340
N355	N	1.065566	-0.555592	-0.238765
N356	N	1.398900	-0.222258	0.094569
N357	N	1.732233	0.111075	0.427902
N358	N	1.104215	-0.531189	-0.200155
N359	N	1.437548	-0.197856	0.133178
N360	N	1.770882	0.135477	0.466511
H361	H	1.135476	-0.550862	-0.168953
H362	H	1.468809	-0.217529	0.164381
H363	H	1.802143	0.115804	0.497714
N364	N	0.890427	-0.555660	-0.413596
N365	N	1.223761	-0.222327	-0.080263
N366	N	1.557094	0.111006	0.253071
N367	N	0.851744	-0.531288	-0.452192
N368	N	1.185077	-0.197955	-0.118859
N369	N	1.518410	0.135379	0.214474
H370	H	0.820498	-0.550985	-0.483392
H371	H	1.153831	-0.217652	-0.150059
H372	H	1.487164	0.115681	0.183274
H373	H	1.056694	-0.191182	-0.584577
H374	H	1.390028	0.142151	-0.251244
H375	H	1.723361	0.475485	0.082089
H376	H	1.100016	-0.801102	-0.204527
H377	H	1.433349	-0.467769	0.128807
H378	H	1.766683	-0.134435	0.462140
H379	H	0.592156	-0.191147	-0.247776
H380	H	0.925489	0.142186	0.085557
H381	H	1.258822	0.475520	0.418890
N382	N	1.065743	-0.947585	-0.238815
N383	N	1.399076	-0.614252	0.094518
N384	N	1.732409	-0.280918	0.427852
N385	N	1.104416	-0.971961	-0.200212
N386	N	1.437749	-0.638628	0.133121
N387	N	1.771082	-0.305295	0.466454
H388	H	1.135657	-0.952267	-0.169004
H389	H	1.468990	-0.618934	0.164329
H390	H	1.802324	-0.285600	0.497662
H391	H	0.899489	-0.312489	-0.584490
H392	H	1.232823	0.020844	-0.251157
H393	H	1.566156	0.354178	0.082177
N394	N	1.065677	-0.184223	-0.720142
N395	N	1.399010	0.149111	-0.386809
N396	N	1.732344	0.482444	-0.053476
N397	N	1.061238	-0.135979	-0.712260
N398	N	1.394572	0.197354	-0.378927
N399	N	1.727905	0.530688	-0.045593
H400	H	1.092491	-0.111849	-0.737771
H401	H	1.425824	0.221484	-0.404438
H402	H	1.759158	0.554818	-0.071104
N403	N	0.229066	-0.319582	-0.413597
N404	N	0.562400	0.013751	-0.080264
N405	N	0.895733	0.347084	0.253069
N406	N	0.260633	-0.349471	-0.452167
N407	N	0.593966	-0.016138	-0.118834
N408	N	0.927299	0.317196	0.214500
H409	H	0.235145	-0.373627	-0.483350
H410	H	0.568479	-0.040294	-0.150017
H411	H	0.901812	0.293039	0.183316
H412	H	1.056812	-1.052305	-0.247803
H413	H	1.390146	-0.718971	0.085531
H414	H	1.723479	-0.385638	0.418864
H415	H	0.899641	-1.052342	-0.404705
H416	H	1.232974	-0.719009	-0.071371
H417	H	1.566307	-0.385676	0.261962
