data_functionalizedCrystal
_audit_creation_method	'MofGen! by Chris Wilmer'
_symmetry_space_group_name_H-M	'P1'
_symmetry_Int_Tables_number	1
_symmetry_cell_setting	triclinic
loop_
_symmetry_equiv_pos_as_xyz
  x,y,z
_cell_length_a	17.038278
_cell_length_b	17.038272
_cell_length_c	11.892095
_cell_angle_alpha	94.170821
_cell_angle_beta	85.819118
_cell_angle_gamma	91.111028
loop_
_atom_site_label
_atom_site_type_symbol
_atom_site_fract_x
_atom_site_fract_y
_atom_site_fract_z
O1	O	1.053442	0.165840	-0.094014
O2	O	0.825630	0.163134	-0.094015
O3	O	0.938182	0.050582	-0.094006
O4	O	0.940891	0.278392	-0.094023
O5	O	0.928796	0.059951	0.094001
O6	O	0.816245	0.172503	0.093992
O7	O	1.044057	0.175209	0.093992
Zn8	Zn	0.928661	0.175343	0.123842
Zn9	Zn	0.941026	0.162999	-0.123865
O10	O	0.931505	0.287761	0.093983
C11	C	0.791645	0.165356	-0.000011
C12	C	0.704362	0.158009	-0.000011
C13	C	0.210936	0.112871	-0.000012
C14	C	0.292947	0.119781	-0.000006
C15	C	0.329348	0.194154	-0.000017
C16	C	0.283731	0.261622	-0.000022
C17	C	0.201721	0.254712	-0.000020
C18	C	0.576735	0.218566	-0.000015
C19	C	0.658752	0.225471	-0.000020
C20	C	0.667962	0.083630	-0.000001
C21	C	0.585950	0.076726	-0.000006
C22	C	0.540340	0.144194	-0.000006
C23	C	0.413177	0.201218	-0.000014
C24	C	0.456513	0.137129	-0.000001
C25	C	0.931026	0.025973	-0.000002
C26	C	0.923678	-0.061310	-0.000003
C27	C	0.991142	-0.106920	-0.000001
C28	C	0.984233	-0.188932	-0.000012
C29	C	0.909860	-0.225333	-0.000016
C30	C	0.842392	-0.179717	-0.000021
C31	C	0.849301	-0.097707	-0.000018
C32	C	0.885450	-0.472721	-0.000032
C33	C	0.878546	-0.554738	-0.000031
C34	C	1.020388	-0.563947	-0.000024
C35	C	1.027291	-0.481934	-0.000015
C36	C	0.959823	-0.436326	-0.000025
C37	C	0.902797	-0.309162	-0.000023
C38	C	0.966887	-0.352499	-0.000026
C39	C	1.078042	0.172987	-0.000013
C40	C	1.165326	0.180334	-0.000021
C41	C	0.938661	0.312369	-0.000022
C42	C	0.946009	0.399653	-0.000030
N43	N	0.920227	0.183768	0.292896
N44	N	0.949466	0.154569	-0.292918
C45	C	1.008147	0.095904	0.529551
C46	C	1.002258	0.101799	0.647892
C47	C	0.902557	0.201447	0.647922
C48	C	0.908446	0.195553	0.529581
C49	C	0.961243	0.142780	0.470399
C50	C	0.967136	0.136890	0.352056
C51	C	0.867431	0.236534	0.352088
C52	C	0.861543	0.242429	0.470429
H53	H	0.442823	0.261773	-0.000026
H54	H	0.181305	0.052308	-0.000010
Cl55	Cl	0.144382	0.339526	-0.000024
H56	H	0.830513	-0.435597	-0.000040
H57	H	1.010128	0.093922	0.303871
H58	H	1.051704	-0.077289	0.000009
H59	H	0.829242	0.274706	0.303913
H60	H	1.039169	-0.226064	-0.000009
H61	H	0.330079	0.064845	0.000007
H62	H	1.027443	-0.322859	-0.000048
Cl63	Cl	1.061223	0.042864	0.722251
H64	H	0.556319	0.016164	0.000003
Cl65	Cl	0.410751	0.043635	0.000018
Cl66	Cl	0.836179	0.267777	0.722333
Cl67	Cl	1.120794	-0.436182	-0.000047
H68	H	0.781836	-0.209361	-0.000031
H69	H	0.313375	0.322178	-0.000024
H70	H	1.075317	-0.601090	-0.000018
H71	H	0.817978	-0.584371	-0.000016
Cl72	Cl	0.764486	-0.040368	-0.000024
Cl73	Cl	0.809302	-0.354930	-0.000034
H74	H	1.051142	0.052940	0.481364
H75	H	0.818554	0.285393	0.518628
H76	H	0.688385	0.286039	-0.000013
Cl77	Cl	0.519409	0.303384	-0.000031
H78	H	0.705105	0.028701	-0.000000
