data_functionalizedCrystal
_audit_creation_method	'MofGen! by Chris Wilmer'
_symmetry_space_group_name_H-M	'P1'
_symmetry_Int_Tables_number	1
_symmetry_cell_setting	triclinic
loop_
_symmetry_equiv_pos_as_xyz
  x,y,z
_cell_length_a	27.732048
_cell_length_b	14.853567
_cell_length_c	13.330367
_cell_angle_alpha	90.004582
_cell_angle_beta	89.990394
_cell_angle_gamma	96.861207
loop_
_atom_site_label
_atom_site_type_symbol
_atom_site_fract_x
_atom_site_fract_y
_atom_site_fract_z
O1	O	0.063107	-1.195342	-0.083366
O2	O	0.070624	-0.932760	-0.083384
O3	O	-0.003493	-1.072207	-0.083355
O4	O	0.137224	-1.055896	-0.083395
O5	O	-0.003495	-1.072187	0.083492
O6	O	0.070622	-0.932740	0.083463
O7	O	0.063105	-1.195322	0.083481
Cu8	Cu	0.066864	-1.064029	0.098707
Cu9	Cu	0.066865	-1.064053	-0.098609
O10	O	0.137222	-1.055876	0.083453
C11	C	-0.021503	-1.071854	0.000071
C12	C	-0.075162	-1.070823	0.000079
C13	C	0.070283	-0.899167	0.000037
C14	C	0.069262	-0.799100	0.000031
C15	C	0.063446	-1.228915	0.000058
C16	C	0.064467	-1.328982	0.000057
C17	C	-0.413622	-1.146736	0.000033
C18	C	-0.615300	-1.142911	0.000019
O19	O	-0.646231	-1.212328	-0.000020
N20	N	-0.634810	-1.060225	0.000014
C21	C	-0.603898	-0.978490	0.000006
O22	O	-0.625120	-0.908073	-0.000009
C23	C	-0.402221	-0.982316	0.000013
C24	C	-0.382714	-1.065007	0.000028
C25	C	-0.394114	-1.229421	0.000047
C26	C	-0.343698	-1.230376	0.000056
C27	C	-0.312790	-1.148647	0.000051
C28	C	-0.332298	-1.065963	0.000037
C29	C	-0.371310	-0.900582	-0.000002
C30	C	-0.320888	-0.901546	-0.000003
C31	C	-0.301381	-0.984237	0.000012
C32	C	-0.250973	-0.985189	0.000041
N33	N	-0.231462	-1.067875	0.000046
C34	C	-0.262371	-1.149604	0.000051
C35	C	-0.709781	-0.976487	0.000004
C36	C	-0.760200	-0.975530	0.000004
C37	C	-0.771599	-1.139952	0.000015
C38	C	-0.721179	-1.140908	0.000022
C39	C	-0.690271	-1.059173	0.000009
C40	C	-0.156492	-1.151604	0.000071
C41	C	-0.106071	-1.152552	0.000084
C42	C	-0.094677	-0.988131	0.000068
C43	C	-0.145094	-0.987183	0.000060
C44	C	-0.176001	-1.068926	0.000058
O45	O	-0.220013	-0.915809	0.000069
O46	O	-0.241139	-1.220011	0.000044
C47	C	-0.464039	-1.145781	0.000024
C48	C	-0.483547	-1.063097	0.000010
C49	C	-0.452638	-0.981367	0.000005
C50	C	-0.533966	-1.062140	0.000010
C51	C	-0.564874	-1.143869	0.000015
C52	C	-0.545364	-1.226555	0.000020
C53	C	-0.494947	-1.227510	0.000029
C54	C	-0.472149	-0.898682	0.000000
C55	C	-0.522566	-0.897733	-0.000008
C56	C	-0.553474	-0.979462	-0.000003
C57	C	0.155232	-1.056228	0.000024
C58	C	0.208891	-1.057259	0.000009
N59	N	0.066862	-1.064019	0.237488
C60	C	0.020920	-0.387353	0.000067
C61	C	0.108973	-0.364639	0.000041
C62	C	0.109933	-0.458657	0.000038
C63	C	0.066385	-0.517028	0.000047
C64	C	0.021878	-0.481380	0.000061
C65	C	0.154439	-0.494313	0.000015
C66	C	0.155401	-0.588336	0.000010
C67	C	0.111853	-0.646708	0.000027
C68	C	0.067344	-0.611055	0.000041
C69	C	0.023796	-0.669425	0.000051
C70	C	-0.020713	-0.633774	0.000072
C71	C	-0.021670	-0.539752	0.000077
C72	C	0.112809	-0.740730	0.000021
C73	C	0.024755	-0.763452	0.000044
N74	N	0.066863	-1.064070	-0.237391
C75	C	0.099672	-1.002304	0.710098
C76	C	0.034055	-1.125827	0.710092
C77	C	0.034054	-1.125817	0.605074
C78	C	0.066862	-1.064050	0.552563
C79	C	0.099672	-1.002294	0.605070
C80	C	0.001248	-1.187578	0.552558
C81	C	0.001246	-1.187571	0.447533
C82	C	0.034052	-1.125799	0.395021
C83	C	0.066863	-1.064040	0.447535
C84	C	0.099671	-1.002273	0.395024
C85	C	0.132480	-0.940509	0.447536
C86	C	0.132479	-0.940522	0.552557
C87	C	0.034053	-1.125786	0.289999
C88	C	0.099672	-1.002263	0.289996
H89	H	-0.090191	-1.219892	0.000099
C90	C	0.229199	-0.446011	0.085751
C91	C	0.202306	-0.430159	-0.000002
H92	H	0.258753	-0.406406	0.085736
H93	H	0.210955	-0.435263	0.143933
H94	H	0.236135	-0.507112	0.085731
H95	H	0.195367	-0.369059	0.000022
H96	H	0.220554	-0.440899	-0.058199
C97	C	-0.408832	-0.804358	-0.085768
C98	C	-0.438180	-0.808835	-0.000003
H99	H	-0.387865	-0.748883	-0.085767
H100	H	-0.389993	-0.853725	-0.085754
H101	H	-0.428736	-0.807415	-0.143948
H102	H	-0.418275	-0.805785	0.058178
H103	H	-0.457020	-0.759455	-0.000007
H104	H	-0.057907	-0.510716	0.000118
H105	H	-0.181651	-1.218168	0.000066
H106	H	0.144427	-0.317109	0.000025
H107	H	-0.327820	-1.297712	0.000064
H108	H	-0.025461	-1.237871	0.595316
H109	H	0.159195	-0.890222	0.404769
H110	H	-0.796773	-1.206499	0.000020
H111	H	0.149048	-0.769753	0.000006
C112	C	-0.063618	-1.309666	0.458088
C113	C	-0.034821	-1.255452	0.389817
H114	H	-0.085887	-1.351567	0.422453
H115	H	-0.043466	-1.341817	0.499028
H116	H	-0.081038	-1.272379	0.499072
H117	H	-0.017398	-1.292739	0.348838
H118	H	-0.054976	-1.223299	0.348860
H119	H	-0.015319	-0.358321	0.000088
H120	H	0.159191	-0.890237	0.595319
H121	H	-0.010707	-0.810972	0.000056
C122	C	-0.058335	-0.787993	0.000069
C123	C	-0.068580	-0.697941	0.000083
H124	H	-0.087885	-0.827607	0.000081
H125	H	-0.040091	-0.798722	-0.058120
H126	H	-0.040086	-0.798723	0.058247
H127	H	-0.086826	-0.687209	-0.058099
H128	H	-0.086831	-0.687207	0.058278
C129	C	-0.570628	-1.366400	0.085797
C130	C	-0.579346	-1.316393	0.000023
H131	H	-0.591611	-1.421855	0.085795
H132	H	-0.537814	-1.378812	0.085795
H133	H	-0.576554	-1.332449	0.143971
H134	H	-0.573416	-1.350341	-0.058152
H135	H	-0.612167	-1.303982	0.000015
H136	H	0.191643	-0.617355	-0.000007
C137	C	0.164533	-0.880165	0.300552
C138	C	0.135738	-0.934368	0.232280
H139	H	0.186800	-0.838254	0.264918
H140	H	0.144379	-0.848025	0.341521
H141	H	0.181955	-0.917457	0.341507
H142	H	0.118313	-0.897075	0.191329
H143	H	0.155894	-0.966510	0.191293
H144	H	-0.419276	-1.295978	0.000047
H145	H	-0.705300	-1.208242	0.000034
H146	H	0.126383	-0.952014	0.752856
H147	H	0.007346	-1.176120	0.752850
H148	H	-0.776078	-0.908195	0.000009
H149	H	0.007343	-1.176078	0.247249
H150	H	-0.387184	-0.833246	-0.000020
C151	C	-0.703590	-0.813868	0.000008
C152	C	-0.675811	-0.886635	0.000004
H153	H	-0.682618	-0.758398	0.000018
H154	H	-0.723485	-0.816922	-0.058174
H155	H	-0.723500	-0.816927	0.058193
H156	H	-0.655903	-0.883580	-0.058185
H157	H	-0.655907	-0.883580	0.058192
H158	H	-0.160977	-0.919849	0.000076
C159	C	-0.295645	-0.761703	-0.085791
C160	C	-0.286915	-0.811697	-0.000015
H161	H	-0.274673	-0.706234	-0.085792
H162	H	-0.289714	-0.795647	-0.143957
H163	H	-0.328467	-0.749312	-0.085787
H164	H	-0.254094	-0.824094	-0.000023
H165	H	-0.292842	-0.777747	0.058166
C166	C	-0.444859	-1.323992	-0.085730
C167	C	-0.473508	-1.318406	0.000036
H168	H	-0.431624	-1.380109	-0.085722
H169	H	-0.464286	-1.320204	-0.143903
H170	H	-0.419232	-1.275456	-0.085720
H171	H	-0.499137	-1.366938	0.000022
H172	H	-0.454080	-1.322203	0.058224
C173	C	-0.506221	-0.735302	-0.000037
C174	C	-0.544004	-0.806830	-0.000027
H175	H	-0.519457	-0.679186	-0.000062
H176	H	-0.486803	-0.739085	0.058151
H177	H	-0.486785	-0.739121	-0.058216
H178	H	-0.563438	-0.803015	0.058157
H179	H	-0.563430	-0.803045	-0.058220
H180	H	-0.069502	-0.921590	0.000067
