data_functionalizedCrystal
_audit_creation_method	'MofGen! by Chris Wilmer'
_symmetry_space_group_name_H-M	'P1'
_symmetry_Int_Tables_number	1
_symmetry_cell_setting	triclinic
loop_
_symmetry_equiv_pos_as_xyz
  x,y,z
_cell_length_a	21.295419
_cell_length_b	12.759395
_cell_length_c	12.759379
_cell_angle_alpha	89.957286
_cell_angle_beta	90.054569
_cell_angle_gamma	89.996406
loop_
_atom_site_label
_atom_site_type_symbol
_atom_site_fract_x
_atom_site_fract_y
_atom_site_fract_z
Zn1	Zn	0.250342	1.606591	-0.594077
Zn2	Zn	0.355686	1.606453	-0.418427
Zn3	Zn	0.250438	1.430821	-0.418414
Zn4	Zn	0.355580	1.430921	-0.594066
O5	O	0.303012	1.518696	-0.506246
O6	O	0.264320	1.753594	-0.570787
O7	O	0.341810	1.583055	-0.271404
O8	O	0.162336	1.454154	-0.441714
O9	O	0.341717	1.753492	-0.441737
O10	O	0.162265	1.583292	-0.570774
O11	O	0.264484	1.454020	-0.271394
O12	O	0.264381	1.283813	-0.441704
O13	O	0.341535	1.454323	-0.741089
O14	O	0.341628	1.283886	-0.570755
O15	O	0.264217	1.583388	-0.741097
O16	O	0.443762	1.583151	-0.441727
O17	O	0.443684	1.454189	-0.570769
C18	C	0.303004	1.245729	-0.506228
C19	C	0.303016	1.128952	-0.506245
C20	C	0.138821	1.518727	-0.506244
C21	C	0.068853	1.518740	-0.506243
C22	C	0.383584	1.129067	-0.640409
C23	C	0.423873	1.074263	-0.707494
C24	C	0.423881	0.964541	-0.707507
C25	C	0.383594	0.909621	-0.640430
C26	C	0.343305	0.964425	-0.573345
C27	C	0.343303	1.074149	-0.573337
C28	C	0.262734	0.964310	-0.439188
C29	C	0.262729	1.074032	-0.439168
C30	C	0.222447	0.909390	-0.372111
C31	C	0.182160	0.964193	-0.305019
C32	C	0.182155	1.073921	-0.305008
C33	C	0.222440	1.128835	-0.372083
C34	C	0.036022	1.451518	-0.439050
C35	C	-0.029720	1.451516	-0.439063
C36	C	-0.062629	1.518756	-0.506257
C37	C	-0.029790	1.585984	-0.573462
C38	C	0.035951	1.585976	-0.573455
N39	N	-0.165853	1.610740	-0.514330
N40	N	-0.228304	1.610744	-0.514331
C41	C	-0.260704	1.518783	-0.506284
N42	N	-0.228293	1.426815	-0.498215
N43	N	-0.165836	1.426811	-0.498209
C44	C	-0.133915	1.518772	-0.506272
C45	C	-0.364821	1.451553	-0.439101
C46	C	-0.430564	1.451550	-0.439121
C47	C	-0.430633	1.586027	-0.573515
C48	C	-0.364891	1.586021	-0.573501
C49	C	-0.331988	1.518785	-0.506288
C50	C	0.466563	1.518694	-0.506271
C51	C	0.536531	1.518789	-0.506317
C52	C	0.302854	1.518882	-0.780280
C53	C	0.302787	1.518961	-0.897057
C54	C	0.303020	1.792730	-0.506265
C55	C	0.303023	1.909507	-0.506273
C56	C	0.303123	1.518572	-0.233278
C57	C	0.303013	1.518696	-0.116502
C58	C	0.222860	1.383615	0.102849
C59	C	0.182950	1.315880	0.047941
C60	C	0.183059	1.315748	-0.061780
C61	C	0.223084	1.383357	-0.116596
C62	C	0.262994	1.451093	-0.061688
C63	C	0.262879	1.451219	0.048035
C64	C	0.342923	1.586432	-0.061594
C65	C	0.342812	1.586570	0.048127
C66	C	0.382948	1.654041	-0.116410
C67	C	0.422856	1.721783	-0.061502
C68	C	0.422744	1.721912	0.048226
C69	C	0.382722	1.654305	0.103035
H70	H	0.456673	1.118991	-0.762108
N71	N	0.141012	0.908111	-0.236497
N72	N	0.105046	0.957050	-0.176596
H73	H	0.075984	0.917440	-0.128199
H74	H	0.222441	1.218176	-0.372078
H75	H	0.383598	0.820280	-0.640455
N76	N	0.222748	1.383782	0.214926
N77	N	0.209189	1.465644	0.263667
H78	H	0.209111	1.465765	0.342823
H79	H	0.149342	1.118536	-0.250386
N80	N	0.223165	1.383512	-0.228673
N81	N	0.272385	1.362281	-0.277553
H82	H	0.272426	1.362500	-0.356709
N83	N	0.383584	1.241144	-0.640407
N84	N	0.370464	1.290193	-0.722391
H85	H	0.370465	1.369350	-0.722392
N86	N	0.142075	1.246821	0.103950
N87	N	0.141981	1.246943	0.201915
H88	H	0.113114	1.198168	0.241471
N89	N	0.069620	1.382818	-0.370406
N90	N	0.040293	1.322790	-0.310427
H91	H	0.064023	1.274263	-0.261952
H92	H	0.222454	0.820048	-0.372130
N93	N	-0.063394	1.654670	-0.642110
N94	N	-0.056105	1.647766	-0.739055
H95	H	-0.079837	1.696276	-0.787543
H96	H	0.456684	0.919921	-0.762138
H97	H	0.062681	1.640716	-0.628176
N98	N	-0.063256	1.382836	-0.370421
N99	N	-0.033871	1.322808	-0.310422
H100	H	-0.057554	1.274302	-0.261942
H101	H	0.150561	1.260591	-0.106486
N102	N	0.382943	1.653854	-0.228487
N103	N	0.333723	1.675136	-0.277530
H104	H	0.333678	1.674989	-0.356686
H105	H	-0.457296	1.396803	-0.384408
N106	N	-0.331217	1.382893	-0.370420
N107	N	-0.360542	1.322883	-0.310420
H108	H	-0.336811	1.274400	-0.261904
N109	N	-0.464250	1.654730	-0.642123
N110	N	-0.522947	1.654747	-0.642104
H111	H	-0.546693	1.703279	-0.690551
H112	H	-0.338159	1.640767	-0.628211
N113	N	0.463738	1.790820	-0.117509
N114	N	0.463835	1.790683	-0.215474
H115	H	0.492708	1.839442	-0.255035
N116	N	0.463502	1.791108	0.104325
N117	N	0.463396	1.791226	0.202290
H118	H	0.492181	1.840099	0.241909
H119	H	0.382625	1.654408	0.192376
