data_functionalizedCrystal
_audit_creation_method	'MofGen! by Chris Wilmer'
_symmetry_space_group_name_H-M	'P1'
_symmetry_Int_Tables_number	1
_symmetry_cell_setting	triclinic
loop_
_symmetry_equiv_pos_as_xyz
  x,y,z
_cell_length_a	21.606444
_cell_length_b	21.606444
_cell_length_c	21.606444
_cell_angle_alpha	60.000398
_cell_angle_beta	89.999821
_cell_angle_gamma	59.999398
loop_
_atom_site_label
_atom_site_type_symbol
_atom_site_fract_x
_atom_site_fract_y
_atom_site_fract_z
Zr1	Zr	0.596228	0.677449	-0.081191
O2	O	0.497402	0.806570	-0.180014
O3	O	0.626524	0.548330	-0.050899
O4	O	0.626523	0.677451	-0.180016
O5	O	0.497402	0.677446	0.050956
O6	O	0.728375	0.677451	-0.180015
O7	O	0.497403	0.677448	-0.050897
O8	O	0.728376	0.446476	0.050952
O9	O	0.497401	0.908420	-0.180011
O10	O	0.715455	0.601438	-0.037975
O11	O	0.639443	0.601436	0.038035
O12	O	0.639443	0.753460	-0.113983
O13	O	0.563431	0.753458	-0.037973
Zr14	Zr	0.758669	0.677445	0.081256
Zr15	Zr	0.758670	0.677449	-0.081188
Zr16	Zr	0.596227	0.677445	0.081253
Zr17	Zr	0.596226	0.839889	-0.081186
Zr18	Zr	0.758670	0.515005	0.081250
O19	O	0.728373	0.806564	0.050964
O20	O	0.728374	0.806569	-0.180010
O21	O	0.497401	0.806564	0.050960
O22	O	0.857494	0.548324	0.180079
O23	O	0.857496	0.548329	-0.050896
O24	O	0.626522	0.548324	0.180075
O25	O	0.857494	0.677448	-0.050891
O26	O	0.728373	0.677442	0.180081
O27	O	0.626521	0.677443	0.180080
O28	O	0.857494	0.677445	0.050962
O29	O	0.626521	0.908420	-0.180009
O30	O	0.728376	0.446473	0.180074
O31	O	0.857495	0.446473	0.180076
O32	O	0.857496	0.446476	0.050954
O33	O	0.497400	0.908417	-0.050889
O34	O	0.626520	0.908417	-0.050887
O35	O	0.715454	0.601434	0.114048
O36	O	0.791465	0.601436	0.038038
O37	O	0.715453	0.753458	-0.037970
O38	O	0.639442	0.753456	0.038040
C39	C	0.677450	0.474259	0.000026
C40	C	0.677451	0.405299	0.000024
C41	C	0.717127	0.372902	-0.039654
C42	C	0.717129	0.308102	-0.039649
C43	C	0.677452	0.275704	0.000030
C44	C	0.637775	0.308104	0.039713
C45	C	0.637777	0.372898	0.039712
C46	C	0.637766	0.046794	0.039719
C47	C	0.637765	-0.018003	0.039715
C48	C	0.717118	-0.018002	-0.039642
C49	C	0.717120	0.046793	-0.039643
C50	C	0.677447	0.079183	0.000043
C51	C	0.677446	0.149445	0.000038
C52	C	0.677448	0.205448	0.000031
C53	C	0.474258	0.677447	0.000029
C54	C	0.405297	0.677447	0.000028
C55	C	0.372899	0.677451	-0.056086
C56	C	0.308105	0.677447	-0.056083
C57	C	0.275707	0.677445	0.000031
C58	C	0.308111	0.677438	0.056151
C59	C	0.372907	0.677436	0.056150
C60	C	0.046797	0.677444	0.056153
C61	C	-0.018004	0.677449	0.056148
C62	C	-0.018005	0.677455	-0.056080
C63	C	0.046791	0.677453	-0.056080
C64	C	0.079192	0.677442	0.000041
C65	C	0.149449	0.677445	0.000038
C66	C	0.205447	0.677448	0.000032
C67	C	0.880639	0.677447	0.000036
C68	C	0.949599	0.677447	0.000037
C69	C	0.677449	0.677452	-0.203160
C70	C	0.677450	0.677453	-0.272122
C71	C	0.677446	0.880635	0.000039
C72	C	0.677445	0.949595	0.000041
C73	C	0.733561	0.677455	-0.304519
C74	C	0.733563	0.677449	-0.369312
C75	C	0.677451	0.677447	-0.401710
C76	C	0.621337	0.677443	-0.369307
C77	C	0.621338	0.677443	-0.304512
C78	C	0.621330	0.677442	-0.630617
C79	C	0.621332	0.677445	-0.695418
C80	C	0.733555	0.677448	-0.695418
C81	C	0.733557	0.677448	-0.630623
C82	C	0.677445	0.677439	-0.598223
C83	C	0.677444	0.677444	-0.527966
C84	C	0.677448	0.677448	-0.471969
C85	C	0.677447	0.677442	0.203225
C86	C	0.677447	0.677440	0.272187
C87	C	0.880641	0.474259	0.000029
C88	C	0.949602	0.405298	0.000028
C89	C	0.677449	0.474254	0.203219
C90	C	0.677449	0.405292	0.272178
C91	C	0.880639	0.474254	0.203222
C92	C	0.949601	0.405292	0.272182
C93	C	0.474257	0.880640	-0.203157
C94	C	0.405296	0.949602	-0.272117
C95	C	0.474256	0.880635	0.000036
C96	C	0.405294	0.949595	0.000037
C97	C	0.677447	0.880640	-0.203154
C98	C	0.677447	0.949601	-0.272113
C99	C	0.942311	0.372915	-0.039658
C100	C	1.007101	0.308128	-0.039674
C101	C	1.079183	0.275722	0.000000
C102	C	1.086473	0.308112	0.039687
C103	C	1.021683	0.372902	0.039698
C104	C	0.717126	0.372906	0.344247
C105	C	0.717124	0.308118	0.409048
C106	C	0.677448	0.275713	0.401778
C107	C	0.637766	0.308106	0.329702
C108	C	0.637765	0.372897	0.264902
C109	C	1.021670	0.372908	0.264890
C110	C	1.086472	0.308120	0.329680
C111	C	1.079204	0.275713	0.401761
C112	C	1.007128	0.308103	0.409051
C113	C	0.942327	0.372895	0.344262
C114	C	0.333227	0.981994	-0.264825
C115	C	0.268424	1.046802	-0.329615
C116	C	0.275692	1.079212	-0.401696
C117	C	0.347769	1.046818	-0.408986
C118	C	0.412570	0.982015	-0.344198
C119	C	0.412586	0.981986	0.039716
C120	C	0.347795	1.046790	0.039714
C121	C	0.275714	1.079198	0.000038
C122	C	0.268423	1.046806	-0.039646
C123	C	0.333213	0.982007	-0.039648
C124	C	0.717130	0.981986	-0.264819
C125	C	0.717145	1.046774	-0.329608
C126	C	0.677471	1.079181	-0.401690
C127	C	0.637787	1.046791	-0.408982
C128	C	0.637777	0.981999	-0.344194
H129	H	0.749437	0.281724	-0.071957
N130	N	0.759909	-0.052936	-0.082449
H131	H	0.753891	-0.098900	-0.076428
H132	H	0.815397	-0.079768	-0.061622
H133	H	0.749426	0.073172	-0.071956
H134	H	-0.044381	0.677446	0.101846
H135	H	1.027631	0.399260	0.072019
H136	H	0.471272	0.955603	0.072030
N137	N	0.759926	0.947032	-0.187076
H138	H	0.739121	0.996464	-0.181001
H139	H	0.815423	0.920132	-0.181057
H140	H	0.281727	0.677449	-0.101774
H141	H	0.605464	0.281712	0.323794
H142	H	1.001221	0.281708	0.467748
N143	N	0.081731	0.677463	-0.116606
H144	H	0.051375	0.677464	-0.152154
H145	H	0.135599	0.623495	-0.092068
H146	H	0.749435	0.399283	0.350181
H147	H	0.779253	0.677449	-0.395690
H148	H	0.677455	0.222956	0.454548
H149	H	0.605473	0.281716	0.072024
N150	N	1.164200	0.273187	0.321795
H151	H	1.192854	0.208144	0.346910
H152	H	1.192802	0.284526	0.346885
H153	H	-0.044390	0.677460	-0.101775
N154	N	0.794078	0.677452	-0.730364
H155	H	0.845596	0.623492	-0.692106
H156	H	0.791552	0.731458	-0.746075
H157	H	0.605453	-0.044380	0.072029
H158	H	0.605458	0.399257	0.206223
H159	H	1.131976	0.222955	0.454510
N160	N	0.190675	1.081755	-0.082425
H161	H	0.195879	1.051406	-0.107564
H162	H	0.162061	1.146800	-0.122311
N163	N	0.759930	0.273178	0.486783
H164	H	0.739125	0.322617	0.492849
H165	H	0.815426	0.246280	0.492797
H166	H	0.605465	0.073156	0.072037
H167	H	0.883624	0.399299	-0.071974
H168	H	0.605459	0.955639	-0.350144
H169	H	0.677485	1.131939	-0.454438
H170	H	0.471250	0.955642	-0.350144
N171	N	0.560815	0.677432	-0.730359
H172	H	0.509295	0.731390	-0.746062
H173	H	0.563343	0.623424	-0.692067
H174	H	0.605467	0.399277	0.072019
H175	H	0.222964	1.131962	0.000046
H176	H	0.575651	0.677436	-0.395686
H177	H	0.327266	0.955636	-0.071957
H178	H	0.749459	1.073140	-0.323655
N179	N	0.794074	0.677455	-0.595682
H180	H	0.829623	0.677454	-0.626037
H181	H	0.823502	0.623488	-0.541815
H182	H	0.353746	1.073153	0.072032
N183	N	1.029520	0.407845	0.187151
H184	H	1.085013	0.377492	0.192374
H185	H	1.004361	0.472891	0.158535
H186	H	0.883647	0.399254	0.350211
N187	N	0.594998	1.081748	-0.486729
H188	H	0.601027	1.127709	-0.526659
H189	H	0.539508	1.108593	-0.492736
N190	N	0.560819	0.677436	-0.269568
H191	H	0.509302	0.731401	-0.307823
H192	H	0.569402	0.677399	-0.223597
N193	N	0.759916	0.407849	-0.082457
H194	H	0.785052	0.377490	-0.107591
H195	H	0.799807	0.396573	-0.046028
H196	H	0.327294	0.955609	-0.206139
H197	H	0.222921	1.131978	-0.454445
N198	N	0.407833	0.677461	-0.116615
H199	H	0.423540	0.623496	-0.114166
H200	H	0.453768	0.677495	-0.108070
N201	N	0.081750	0.677410	0.116693
H202	H	0.051394	0.677404	0.152241
H203	H	0.081665	0.731366	0.092173
H204	H	0.399286	0.677431	0.101845
N205	N	0.273179	0.677421	0.116682
H206	H	0.227214	0.677423	0.108169
H207	H	0.257523	0.731384	0.114210
N208	N	0.794079	0.677464	-0.269582
H209	H	0.829625	0.677463	-0.299939
H210	H	0.823508	0.623498	-0.215715
H211	H	0.353677	1.073214	-0.467682
N212	N	0.560810	0.677431	-0.595683
H213	H	0.509295	0.731397	-0.633942
H214	H	0.569385	0.677393	-0.549710
N215	N	0.999229	0.273203	-0.082481
H216	H	0.943733	0.303561	-0.107604
H217	H	1.024386	0.208157	-0.046056
H218	H	1.131933	0.222965	-0.000015
N219	N	1.164223	0.273149	0.082475
H220	H	1.192866	0.208105	0.122393
H221	H	1.158960	0.303549	0.107575
N222	N	0.190691	1.081732	-0.321742
H223	H	0.195926	1.051357	-0.266246
H224	H	0.162073	1.070464	-0.346901
