data_functionalizedCrystal
_audit_creation_method	'MofGen! by Chris Wilmer'
_symmetry_space_group_name_H-M	'P1'
_symmetry_Int_Tables_number	1
_symmetry_cell_setting	triclinic
loop_
_symmetry_equiv_pos_as_xyz
  x,y,z
_cell_length_a	8.634740
_cell_length_b	11.792254
_cell_length_c	7.088929
_cell_angle_alpha	83.733108
_cell_angle_beta	97.174953
_cell_angle_gamma	92.384452
loop_
_atom_site_label
_atom_site_type_symbol
_atom_site_fract_x
_atom_site_fract_y
_atom_site_fract_z
O1	O	2.033434	0.380327	-0.158989
O2	O	1.584220	0.349269	-0.158993
O3	O	1.819720	0.200769	-0.158977
O4	O	1.797935	0.528827	-0.159005
O5	O	1.851191	0.180871	0.159000
O6	O	1.615692	0.329371	0.158984
O7	O	2.064906	0.360429	0.158988
Cu8	Cu	1.843172	0.343083	0.188020
Cu9	Cu	1.805954	0.366615	-0.188025
O10	O	1.829407	0.508929	0.158972
C11	C	1.542447	0.332284	-0.000005
C12	C	1.371087	0.311306	-0.000006
C13	C	1.834083	0.148386	0.000011
C14	C	1.829976	0.021942	0.000009
C15	C	1.826639	-0.080744	0.000002
C16	C	1.822464	-0.209567	-0.000016
C17	C	2.106679	0.377414	-0.000004
C18	C	2.278038	0.398393	-0.000016
C19	C	1.815042	0.561313	-0.000020
C20	C	1.819148	0.687757	-0.000031
N21	N	1.869362	0.326532	0.452510
N22	N	1.779777	0.383158	-0.452515
H23	H	1.329479	0.489005	-0.000011
Cl24	Cl	1.636427	0.473757	0.421423
H25	H	1.962223	0.267859	0.534172
H26	H	1.319649	0.220702	-0.000048
