data_functionalizedCrystal
_audit_creation_method	'MofGen! by Chris Wilmer'
_symmetry_space_group_name_H-M	'P1'
_symmetry_Int_Tables_number	1
_symmetry_cell_setting	triclinic
loop_
_symmetry_equiv_pos_as_xyz
  x,y,z
_cell_length_a	6.817900
_cell_length_b	11.168121
_cell_length_c	11.102193
_cell_angle_alpha	91.985837
_cell_angle_beta	108.604059
_cell_angle_gamma	108.508496
loop_
_atom_site_label
_atom_site_type_symbol
_atom_site_fract_x
_atom_site_fract_y
_atom_site_fract_z
V1	V	-4.111009	-0.174714	-0.396268
O2	O	-4.070572	0.008386	-0.388714
O3	O	-4.087289	-0.346419	-0.393568
O4	O	-4.087791	-0.172030	-0.569089
O5	O	-4.070066	-0.167209	-0.211978
V6	V	-4.588176	-0.152812	-0.374224
O7	O	-4.386209	-0.222756	-0.444623
O8	O	-4.763172	-0.104770	-0.325869
O9	O	-4.388689	0.018893	-0.376924
O10	O	-4.746009	-0.335912	-0.381778
O11	O	-4.746515	-0.160317	-0.558515
O12	O	-4.388187	-0.155496	-0.201403
C13	C	-3.937478	-0.388277	-0.387320
C14	C	-3.999539	-0.528648	-0.386264
C15	C	-4.202064	-0.597341	-0.391822
C16	C	-4.266211	-0.742422	-0.390731
C17	C	-3.938117	-0.165825	-0.611213
C18	C	-4.000581	-0.164767	-0.752495
C19	C	-4.120240	-0.396044	-0.788836
C20	C	-4.209406	-0.511180	-0.873379
C21	C	-4.268095	-0.510179	-1.006125
C22	C	-4.237619	-0.394029	-1.054329
C23	C	-4.148453	-0.278893	-0.969786
C24	C	-4.089763	-0.279907	-0.837039
C25	C	-4.028810	-0.047620	-0.933446
C26	C	-3.970105	-0.048618	-0.800699
C27	C	-3.998334	0.068529	-0.981650
C28	C	-3.909152	0.183668	-0.897106
C29	C	-3.850459	0.182663	-0.764353
C30	C	-3.880939	0.066518	-0.716156
C31	C	-4.201842	0.060744	-0.383169
C32	C	-4.119021	0.201114	-0.384233
C33	C	-4.201202	-0.161705	-0.159273
C34	C	-4.117976	-0.162756	-0.017989
H35	H	-4.072427	-0.396870	-0.680748
H36	H	-3.884361	0.278227	-0.936367
O37	O	-3.832764	-0.593014	-0.378901
H38	H	-3.674657	-0.520628	-0.375008
O39	O	-4.368852	-0.532979	-0.399208
H40	H	-4.526971	-0.605369	-0.403127
O41	O	-4.496029	-0.820625	-0.397019
H42	H	-4.576244	-0.894508	-0.483893
H43	H	-4.285438	-0.393225	-1.162420
O44	O	-3.754273	0.306854	-0.673177
H45	H	-3.587092	0.316643	-0.606994
O46	O	-4.242255	-0.636453	-0.821392
H47	H	-4.186442	-0.617813	-0.714881
O48	O	-4.061657	0.069620	-1.124825
H49	H	-3.913736	0.124541	-1.147146
O50	O	-3.817630	0.065437	-0.572980
H51	H	-3.853815	-0.034668	-0.553670
O52	O	-4.364242	-0.634354	-1.097322
H53	H	-4.375559	-0.715288	-1.041507
H54	H	-3.945518	-0.739842	-0.379471
