data_functionalizedCrystal
_audit_creation_method	'MofGen! by Chris Wilmer'
_symmetry_space_group_name_H-M	'P1'
_symmetry_Int_Tables_number	1
_symmetry_cell_setting	triclinic
loop_
_symmetry_equiv_pos_as_xyz
  x,y,z
_cell_length_a	16.109301
_cell_length_b	14.519709
_cell_length_c	15.186229
_cell_angle_alpha	89.995307
_cell_angle_beta	89.999362
_cell_angle_gamma	83.570813
loop_
_atom_site_label
_atom_site_type_symbol
_atom_site_fract_x
_atom_site_fract_y
_atom_site_fract_z
O1	O	1.103336	0.118540	-0.073175
O2	O	0.861299	0.133292	-0.073189
O3	O	0.988735	-0.008336	-0.073174
O4	O	0.975900	0.260168	-0.073190
O5	O	0.988726	-0.008338	0.073284
O6	O	0.861291	0.133290	0.073268
O7	O	1.103327	0.118538	0.073282
Zn8	Zn	0.982308	0.125914	0.096529
Zn9	Zn	0.982319	0.125916	-0.096435
O10	O	0.975892	0.260166	0.073267
C11	C	0.830319	0.132693	0.000038
C12	C	0.738021	0.130902	0.000033
C13	C	0.515887	0.210775	0.000038
C14	C	0.429163	0.209085	0.000044
C15	C	0.448747	0.041048	0.000050
C16	C	0.535468	0.042739	0.000051
C17	C	0.569036	0.127606	0.000040
C18	C	0.395591	0.124224	0.000045
C19	C	0.301562	0.122390	0.000052
C20	C	0.663071	0.129440	0.000036
C21	C	0.988132	-0.042696	0.000055
C22	C	0.986340	-0.145073	0.000056
C23	C	0.979741	-0.519955	0.000032
C24	C	0.981574	-0.415651	0.000039
C25	C	0.983041	-0.332517	0.000045
C26	C	0.984873	-0.228207	0.000050
C27	C	1.134307	0.119136	0.000054
C28	C	1.226606	0.120928	0.000053
C29	C	0.976494	0.294526	0.000036
C30	C	0.978287	0.396903	0.000030
N31	N	0.982306	0.125911	0.228221
N32	N	0.982327	0.125911	-0.228128
C33	C	1.038754	0.063219	0.453951
C34	C	1.038756	0.063217	0.546141
C35	C	0.925873	0.188606	0.546136
C36	C	0.925867	0.188603	0.453948
C37	C	0.982312	0.125911	0.407858
C38	C	0.982321	0.125912	0.592236
C39	C	0.982323	0.125910	0.692192
C40	C	0.982309	0.125911	0.307895
H41	H	0.543214	0.279879	0.000036
H42	H	0.421405	-0.028048	0.000064
H43	H	1.084714	0.012170	0.416427
H44	H	0.385892	0.276810	0.000044
O45	O	0.587222	-0.037971	0.000089
C46	C	0.729504	-0.109829	0.000038
C47	C	0.670989	-0.018362	0.000013
H48	H	0.797241	-0.094007	-0.000042
H49	H	0.717347	-0.151610	0.061345
H50	H	0.717235	-0.151590	-0.061239
H51	H	0.683224	0.023473	0.061248
H52	H	0.683159	0.023349	-0.061335
O53	O	1.093666	0.002286	0.590779
C54	C	1.205598	-0.122118	0.581048
C55	C	1.143470	-0.053144	0.530387
H56	H	1.245869	-0.166964	0.532244
H57	H	1.247247	-0.082335	0.624179
H58	H	1.169624	-0.168161	0.624238
H59	H	1.179376	-0.007083	0.487150
H60	H	1.101822	-0.092984	0.487312
H61	H	0.879918	0.239650	0.583672
O62	O	0.871006	0.249595	0.409304
C63	C	0.759008	0.373927	0.419020
C64	C	0.821104	0.304926	0.469689
H65	H	0.718634	0.418666	0.467819
H66	H	0.794923	0.420070	0.375874
H67	H	0.717454	0.334073	0.375845
H68	H	0.862673	0.344703	0.512911
H69	H	0.785137	0.258783	0.512779
