data_functionalizedCrystal
_audit_creation_method	'MofGen! by Chris Wilmer'
_symmetry_space_group_name_H-M	'P1'
_symmetry_Int_Tables_number	1
_symmetry_cell_setting	triclinic
loop_
_symmetry_equiv_pos_as_xyz
  x,y,z
_cell_length_a	12.594517
_cell_length_b	17.077404
_cell_length_c	17.077396
_cell_angle_alpha	90.019501
_cell_angle_beta	89.979999
_cell_angle_gamma	89.993141
loop_
_atom_site_label
_atom_site_type_symbol
_atom_site_fract_x
_atom_site_fract_y
_atom_site_fract_z
Zn1	Zn	0.423736	1.200143	0.443889
Zn2	Zn	0.601736	1.200088	0.312642
Zn3	Zn	0.423773	1.068875	0.312637
Zn4	Zn	0.601673	1.068880	0.443866
O5	O	0.512730	1.134497	0.378259
O6	O	0.447359	1.309983	0.426491
O7	O	0.578171	1.182657	0.202795
O8	O	0.274822	1.086309	0.330055
O9	O	0.578135	1.309942	0.330064
O10	O	0.274795	1.182751	0.426485
O11	O	0.447422	1.086255	0.202791
O12	O	0.447361	0.959029	0.330033
O13	O	0.578027	1.086318	0.553716
O14	O	0.578064	0.959033	0.426446
O15	O	0.447297	1.182756	0.553733
O16	O	0.750674	1.182662	0.330042
O17	O	0.750627	1.086264	0.426452
C18	C	0.512710	0.930549	0.378237
C19	C	0.512728	0.843299	0.378246
C20	C	0.235109	1.134536	0.378272
C21	C	0.116803	1.134553	0.378278
C22	C	0.580887	0.802331	0.428368
C23	C	0.580889	0.720351	0.428381
C24	C	0.512737	0.679340	0.378267
C25	C	0.444570	0.720313	0.328143
C26	C	0.444563	0.802292	0.328135
C27	C	0.444591	0.549443	0.328162
C28	C	0.444599	0.467458	0.328168
C29	C	0.580917	0.467502	0.428408
C30	C	0.580910	0.549481	0.428400
C31	C	0.512745	0.590449	0.378274
C32	C	0.047535	1.187002	0.430730
C33	C	-0.023226	1.206183	0.359119
C34	C	-0.023234	1.115396	0.449893
C35	C	0.047600	1.153772	0.306629
C36	C	0.047598	1.062951	0.397452
C37	C	-0.023131	1.082105	0.325791
C38	C	0.789271	1.134479	0.378262
C39	C	0.907576	1.134543	0.378290
C40	C	0.512651	1.134544	0.583003
C41	C	0.512618	1.134564	0.670253
C42	C	0.512750	1.339241	0.378281
C43	C	0.512758	1.426491	0.378290
C44	C	0.512731	1.134494	0.174311
C45	C	0.512464	1.134626	0.087061
C46	C	0.444541	1.184782	0.711253
C47	C	0.444506	1.184791	0.793234
C48	C	0.512553	1.134587	0.834212
C49	C	0.580633	1.084364	0.793206
C50	C	0.580662	1.084351	0.711227
C51	C	0.580569	1.084395	0.964076
C52	C	0.580541	1.084409	1.046061
C53	C	0.444412	1.184835	1.046083
C54	C	0.444442	1.184823	0.964104
C55	C	0.512523	1.134601	0.923103
H56	H	0.636389	0.835717	0.469174
H57	H	0.389073	0.582796	0.287351
O58	O	0.646847	1.035685	0.671306
C59	C	0.715626	1.080364	0.623905
H60	H	0.678094	1.139856	0.611643
H61	H	0.729902	1.048384	0.566247
H62	H	0.794496	1.088981	0.655492
H63	H	-0.053964	1.037747	0.281389
H64	H	-0.054350	1.099198	0.510451
H65	H	0.078729	1.002420	0.413689
O66	O	0.084435	1.239907	0.483673
C67	C	0.046818	1.220327	0.558930
H68	H	-0.028208	1.183411	0.553339
H69	H	0.028041	1.276177	0.592798
H70	H	0.110200	1.185560	0.591509
O71	O	0.378417	0.680561	0.279354
C72	C	0.401556	0.700543	0.201087
H73	H	0.442461	0.760064	0.199404
H74	H	0.324677	0.703332	0.165982
H75	H	0.456239	0.654391	0.174587
H76	H	-0.054335	1.266731	0.342901
H77	H	0.078584	1.170045	0.246055
O78	O	0.378442	0.427691	0.279396
C79	C	0.401548	0.447652	0.201118
H80	H	0.442437	0.507178	0.199409
H81	H	0.324656	0.450421	0.166026
H82	H	0.456233	0.401500	0.174621
H83	H	0.636393	0.686999	0.469194
O84	O	0.646821	1.035598	0.924369
C85	C	0.706869	0.991284	0.978115
H86	H	0.710512	1.023437	1.036563
H87	H	0.790746	0.982919	0.954428
H88	H	0.667909	0.931662	0.986813
O89	O	0.378243	1.233617	0.924417
C90	C	0.318164	1.277960	0.978181
H91	H	0.314449	1.245821	1.036615
H92	H	0.234314	1.286341	0.954498
H93	H	0.357145	1.337573	0.986906
O94	O	0.378338	1.233577	0.671571
C95	C	0.318263	1.277914	0.725343
H96	H	0.314555	1.245770	0.783774
H97	H	0.234410	1.286295	0.701664
H98	H	0.357242	1.337527	0.734071
H99	H	0.388976	1.225727	1.079469
O100	O	0.647149	0.589199	0.477152
C101	C	0.707333	0.535464	0.521382
H102	H	0.663752	0.477027	0.524163
H103	H	0.718792	0.559181	0.583212
H104	H	0.788122	0.526731	0.492540
O105	O	0.647030	0.427589	0.477079
C106	C	0.632440	0.346438	0.466333
H107	H	0.550253	0.335233	0.440727
H108	H	0.639766	0.315311	0.525126
H109	H	0.695500	0.323150	0.424457
O110	O	0.378520	1.233604	0.833153
C111	C	0.439100	1.284312	0.880573
H112	H	0.519758	1.256621	0.892841
H113	H	0.395722	1.294833	0.938227
H114	H	0.450804	1.342483	0.848999
H115	H	0.635949	1.043526	1.079424
H116	H	0.389055	0.835647	0.287324
H117	H	0.636034	1.043484	0.826578
