data_functionalizedCrystal
_audit_creation_method	'MofGen! by Chris Wilmer'
_symmetry_space_group_name_H-M	'P1'
_symmetry_Int_Tables_number	1
_symmetry_cell_setting	triclinic
loop_
_symmetry_equiv_pos_as_xyz
  x,y,z
_cell_length_a	11.026607
_cell_length_b	23.532407
_cell_length_c	10.065875
_cell_angle_alpha	98.729142
_cell_angle_beta	79.302338
_cell_angle_gamma	95.717347
loop_
_atom_site_label
_atom_site_type_symbol
_atom_site_fract_x
_atom_site_fract_y
_atom_site_fract_z
O1	O	1.625135	0.231639	-0.113547
O2	O	1.272155	0.204517	-0.113543
O3	O	1.459285	0.136267	-0.113520
O4	O	1.438005	0.299889	-0.113570
O5	O	1.423601	0.149349	0.113464
O6	O	1.236471	0.217598	0.113442
O7	O	1.589451	0.244720	0.113437
Zn8	Zn	1.407295	0.233236	0.149478
Zn9	Zn	1.454310	0.216001	-0.149584
O10	O	1.402321	0.312970	0.113415
C11	C	1.209162	0.206054	-0.000050
C12	C	1.074627	0.191139	-0.000047
C13	C	1.440900	0.121535	-0.000024
C14	C	1.439269	0.058147	-0.000014
C15	C	1.000327	0.232323	-0.000060
C16	C	0.861279	0.216908	-0.000057
C17	C	1.539800	-0.330388	-0.000090
C18	C	1.538287	-0.389948	-0.000100
O19	O	1.631478	-0.416895	-0.000152
N20	N	1.427036	-0.424275	-0.000098
C21	C	1.317292	-0.399040	-0.000099
O22	O	1.222526	-0.433707	-0.000099
C23	C	1.318808	-0.339482	-0.000099
C24	C	1.430064	-0.305157	-0.000087
C25	C	1.651047	-0.296063	-0.000080
C26	C	1.652559	-0.236507	-0.000067
C27	C	1.542823	-0.211276	-0.000064
C28	C	1.431575	-0.245600	-0.000074
C29	C	1.209067	-0.314248	-0.000109
C30	C	1.210592	-0.254685	-0.000110
C31	C	1.321848	-0.220360	-0.000098
C32	C	1.323351	-0.160813	-0.000058
N33	N	1.434602	-0.126486	-0.000061
C34	C	1.544338	-0.151717	-0.000064
C35	C	1.314119	-0.524117	-0.000103
C36	C	1.312601	-0.583674	-0.000093
C37	C	1.533597	-0.574578	-0.000097
C38	C	1.535112	-0.515019	-0.000097
C39	C	1.425370	-0.489790	-0.000105
C40	C	1.547504	-0.026645	-0.000035
C41	C	1.549005	0.032916	-0.000017
C42	C	1.328011	0.023814	-0.000020
C43	C	1.326508	-0.035742	-0.000032
C44	C	1.436265	-0.060970	-0.000044
O45	O	1.230210	-0.133827	-0.000012
O46	O	1.639092	-0.117045	-0.000081
C47	C	1.652444	0.243183	-0.000059
C48	C	1.786980	0.258098	-0.000071
C49	C	1.420706	0.327702	-0.000084
C50	C	1.422339	0.391089	-0.000104
N51	N	1.375217	0.244999	0.353580
N52	N	1.486398	0.204235	-0.353685
C53	C	1.443142	0.220090	0.421367
C54	C	1.418463	0.229148	0.578531
H55	H	1.039657	0.278994	-0.000067
H56	H	1.622951	-0.595132	-0.000105
O57	O	1.092218	-0.227477	-0.000112
H58	H	1.111951	-0.180295	-0.000112
O59	O	0.839066	0.319924	-0.000082
H60	H	0.793103	0.346721	0.092435
H61	H	1.035302	0.144465	-0.000068
H62	H	1.639606	0.060862	-0.000004
O63	O	1.665878	-0.053851	-0.000029
H64	H	1.743477	-0.019969	-0.000003
O65	O	0.809205	0.155080	-0.000038
H66	H	0.708165	0.152674	-0.000047
O67	O	1.274003	0.282146	0.430805
H68	H	1.183795	0.263747	0.403498
O69	O	1.089069	-0.351263	-0.000126
H70	H	1.013033	-0.323703	-0.000141
H71	H	1.342031	0.257180	0.636843
O72	O	1.772563	-0.199490	-0.000095
H73	H	1.848607	-0.227051	-0.000121
H74	H	1.740414	-0.316600	-0.000088
O75	O	1.655111	-0.477999	-0.000110
H76	H	1.731158	-0.505557	-0.000123
O77	O	1.192602	-0.620693	-0.000088
H78	H	1.116558	-0.593136	-0.000091
H79	H	1.519561	0.192055	0.363052
O80	O	1.195742	-0.496903	-0.000075
H81	H	1.118134	-0.530782	-0.000056
O82	O	1.206514	-0.072769	-0.000039
H83	H	1.130464	-0.045216	-0.000041
O84	O	1.587633	0.167095	0.569094
H85	H	1.591135	0.165808	0.457769
H86	H	1.238666	0.044369	-0.000013
