data_functionalizedCrystal
_audit_creation_method	'MofGen! by Chris Wilmer'
_symmetry_space_group_name_H-M	'P1'
_symmetry_Int_Tables_number	1
_symmetry_cell_setting	triclinic
loop_
_symmetry_equiv_pos_as_xyz
  x,y,z
_cell_length_a	27.731994
_cell_length_b	26.809956
_cell_length_c	15.944551
_cell_angle_alpha	89.996609
_cell_angle_beta	83.059636
_cell_angle_gamma	90.002666
loop_
_atom_site_label
_atom_site_type_symbol
_atom_site_fract_x
_atom_site_fract_y
_atom_site_fract_z
O1	O	0.641380	0.041410	0.099716
O2	O	1.141380	0.541410	0.599716
O3	O	0.500649	0.041426	0.114960
O4	O	1.000649	0.541426	0.614960
O5	O	0.574858	0.041413	-0.014989
O6	O	1.074858	0.541413	0.485011
O7	O	0.567171	0.041423	0.229664
O8	O	1.067171	0.541423	0.729664
O9	O	0.574844	-0.041546	-0.014969
O10	O	1.074844	0.458454	0.485031
O11	O	0.500635	-0.041533	0.114980
O12	O	1.000635	0.458467	0.614980
O13	O	0.641366	-0.041550	0.099736
O14	O	1.141366	0.458450	0.599736
Zn15	Zn	0.570998	-0.054713	0.107361
Zn16	Zn	1.070998	0.445287	0.607361
Zn17	Zn	0.571017	0.054590	0.107335
Zn18	Zn	1.071017	0.554590	0.607335
O19	O	0.567157	-0.041536	0.229684
O20	O	1.067157	0.458464	0.729684
C21	C	0.482633	-0.000051	0.114657
C22	C	0.982633	0.499949	0.614657
C23	C	0.428973	-0.000045	0.113715
C24	C	0.928973	0.499955	0.613715
N25	N	0.570989	-0.129309	0.107378
N26	N	1.070989	0.370691	0.607378
C27	C	0.096221	-0.045286	0.107790
C28	C	0.596221	0.454714	0.607790
C29	C	-0.105453	-0.045291	0.104208
C30	C	0.394547	0.454709	0.604208
O31	O	-0.131534	-0.083750	0.103718
O32	O	0.368466	0.416250	0.603718
N33	N	-0.130662	-0.000070	0.103752
N34	N	0.369338	0.499930	0.603752
C35	C	-0.105449	0.045155	0.104186
C36	C	0.394551	0.545155	0.604186
O37	O	-0.131518	0.083619	0.103708
O38	O	0.368482	0.583619	0.603708
C39	C	0.096224	0.045161	0.107763
C40	C	0.596224	0.545161	0.607763
C41	C	0.121430	-0.000063	0.108227
C42	C	0.621430	0.499937	0.608227
C43	C	0.121427	-0.090506	0.108253
C44	C	0.621427	0.409494	0.608253
C45	C	0.171842	-0.090504	0.109153
C46	C	0.671842	0.409496	0.609153
C47	C	0.197051	-0.045282	0.109590
C48	C	0.697051	0.454718	0.609590
C49	C	0.171845	-0.000061	0.109127
C50	C	0.671845	0.499939	0.609127
C51	C	0.121436	0.090386	0.108191
C52	C	0.621436	0.590386	0.608191
C53	C	0.171858	0.090383	0.109083
C54	C	0.671858	0.590383	0.609083
C55	C	0.197064	0.045159	0.109547
C56	C	0.697064	0.545159	0.609547
C57	C	0.247469	0.045163	0.110464
C58	C	0.747469	0.545163	0.610464
N59	N	0.272678	-0.000058	0.110920
N60	N	0.772678	0.499942	0.610920
C61	C	0.247469	-0.045281	0.110483
C62	C	0.747469	0.454719	0.610483
C63	C	-0.211331	0.045149	0.102310
C64	C	0.288669	0.545149	0.602310
C65	C	-0.261749	0.045148	0.101418
C66	C	0.238251	0.545148	0.601418
C67	C	-0.261749	-0.045299	0.101438
C68	C	0.238251	0.454701	0.601438
C69	C	-0.211330	-0.045297	0.102336
C70	C	0.288670	0.454703	0.602336
C71	C	-0.186121	-0.000072	0.102766
C72	C	0.313879	0.499928	0.602766
C73	C	0.353344	-0.045273	0.112374
C74	C	0.853344	0.454727	0.612374
C75	C	0.403764	-0.045267	0.113278
C76	C	0.903764	0.454733	0.613278
C77	C	0.403760	0.045179	0.113253
C78	C	0.903760	0.545179	0.613253
C79	C	0.353344	0.045174	0.112354
C80	C	0.853344	0.545174	0.612354
C81	C	0.328138	-0.000056	0.111912
C82	C	0.828138	0.499944	0.611912
O83	O	0.273582	0.083601	0.110945
O84	O	0.773582	0.583601	0.610945
O85	O	0.273548	-0.083738	0.110943
O86	O	0.773548	0.416262	0.610943
C87	C	0.045806	-0.045287	0.106890
C88	C	0.545806	0.454713	0.606890
C89	C	0.020600	-0.000067	0.106427
C90	C	0.520600	0.499933	0.606427
C91	C	0.045809	0.045155	0.106863
C92	C	0.545809	0.545155	0.606863
C93	C	-0.029818	-0.000068	0.105534
C94	C	0.470182	0.499932	0.605534
C95	C	-0.055027	-0.045291	0.105097
C96	C	0.444973	0.454709	0.605097
C97	C	-0.029818	-0.090512	0.105553
C98	C	0.470182	0.409488	0.605553
C99	C	0.020597	-0.090510	0.106453
C100	C	0.520597	0.409490	0.606453
C101	C	0.020600	0.090376	0.106408
C102	C	0.520600	0.590376	0.606408
C103	C	-0.029815	0.090371	0.105509
C104	C	0.470185	0.590371	0.605509
C105	C	-0.055024	0.045148	0.105072
C106	C	0.444976	0.545148	0.605072
C107	C	0.603872	-0.473941	0.049808
C108	C	1.103872	0.026059	0.549808
C109	C	0.603884	-0.682818	0.049795
C110	C	1.103884	-0.182818	0.549795
O111	O	0.631822	-0.709827	0.000852
O112	O	1.131822	-0.209827	0.500852
N113	N	0.571019	-0.708936	0.107316
N114	N	1.071019	-0.208936	0.607316
C115	C	0.538148	-0.682831	0.164841
C116	C	1.038148	-0.182831	0.664841
O117	O	0.510192	-0.709838	0.213761
O118	O	1.010192	-0.209838	0.713761
C119	C	0.538134	-0.473954	0.164850
C120	C	1.038134	0.026046	0.664850
C121	C	0.571004	-0.447839	0.107330
C122	C	1.071004	0.052161	0.607330
C123	C	0.636739	-0.447826	-0.007708
C124	C	1.136739	0.052174	0.492292
C125	C	0.636737	-0.395610	-0.007701
C126	C	1.136737	0.104390	0.492299
C127	C	0.603869	-0.369508	0.049821
C128	C	1.103869	0.130492	0.549821
C129	C	0.571003	-0.395623	0.107337
C130	C	1.071003	0.104377	0.607337
C131	C	0.505261	-0.447850	0.222370
C132	C	1.005261	0.052150	0.722370
C133	C	0.505260	-0.395627	0.222365
C134	C	1.005260	0.104373	0.722365
C135	C	0.538129	-0.369513	0.164846
C136	C	1.038129	0.130487	0.664846
C137	C	0.538133	-0.317305	0.164866
C138	C	1.038133	0.182695	0.664866
N139	N	0.570997	-0.291188	0.107345
N140	N	1.070997	0.208812	0.607345
C141	C	0.603865	-0.317289	0.049822
C142	C	1.103865	0.182711	0.549822
C143	C	0.538158	-0.792494	0.164834
C144	C	1.038158	-0.292494	0.664834
C145	C	0.538162	-0.844713	0.164833
C146	C	1.038162	-0.344713	0.664833
C147	C	0.603897	-0.844697	0.049785
C148	C	1.103897	-0.344697	0.549785
C149	C	0.603895	-0.792477	0.049791
C150	C	1.103895	-0.292477	0.549791
C151	C	0.571022	-0.766377	0.107313
C152	C	1.071022	-0.266377	0.607313
C153	C	0.603860	-0.207631	0.049842
C154	C	1.103860	0.292369	0.549842
C155	C	0.603857	-0.155410	0.049856
C156	C	1.103857	0.344590	0.549856
C157	C	0.538120	-0.155431	0.164900
C158	C	1.038120	0.344569	0.664900
C159	C	0.538125	-0.207647	0.164889
C160	C	1.038125	0.292353	0.664889
C161	C	0.570997	-0.233746	0.107353
C162	C	1.070997	0.266254	0.607353
O163	O	0.510206	-0.290264	0.213777
O164	O	1.010206	0.209736	0.713777
O165	O	0.631810	-0.290273	0.000898
O166	O	1.131810	0.209727	0.500898
C167	C	0.603874	-0.526157	0.049801
C168	C	1.103874	-0.026157	0.549801
C169	C	0.571007	-0.552272	0.107316
C170	C	1.071007	-0.052272	0.607316
C171	C	0.538139	-0.526170	0.164839
C172	C	1.038139	-0.026170	0.664839
C173	C	0.571011	-0.604491	0.107315
C174	C	1.071011	-0.104491	0.607315
C175	C	0.603879	-0.630592	0.049793
C176	C	1.103879	-0.130592	0.549793
C177	C	0.636743	-0.604475	-0.007728
C178	C	1.136743	-0.104475	0.492272
C179	C	0.636742	-0.552259	-0.007721
C180	C	1.136742	-0.052259	0.492279
C181	C	0.505275	-0.552288	0.222360
C182	C	1.005275	-0.052288	0.722360
C183	C	0.505279	-0.604504	0.222349
C184	C	1.005279	-0.104504	0.722349
C185	C	0.538147	-0.630606	0.164827
C186	C	1.038147	-0.130606	0.664827
C187	C	0.659382	-0.000071	0.100039
C188	C	1.159382	0.499929	0.600039
C189	C	0.713042	-0.000074	0.100981
C190	C	1.213042	0.499926	0.600981
C191	C	0.574531	-0.000067	-0.046268
C192	C	1.074531	0.499933	0.453732
C193	C	0.573575	-0.000067	-0.139501
C194	C	1.073575	0.499933	0.360499
N195	N	0.571030	0.129186	0.107311
N196	N	1.071030	0.629186	0.607311
C197	C	0.525290	-0.000054	-0.353710
C198	C	1.025290	0.499946	0.146290
C199	C	0.547705	-0.040961	-0.415019
C200	C	1.047705	0.459039	0.084981
C201	C	0.571844	-0.000063	-0.310204
C202	C	1.071844	0.499937	0.189796
C203	C	0.547730	0.040831	-0.415022
C204	C	1.047730	0.540831	0.084978
C205	C	0.570169	-0.000057	-0.475094
C206	C	1.070169	0.499943	0.024906
C207	C	0.594272	-0.041003	-0.370284
C208	C	1.094272	0.458997	0.129716
C209	C	0.594290	0.040825	-0.370281
C210	C	1.094290	0.540825	0.129719
C211	C	0.616739	-0.000092	-0.431572
C212	C	1.116739	0.499908	0.068428
C213	C	0.572808	-0.000067	-0.215215
C214	C	1.072808	0.499933	0.284785
C215	C	0.569209	-0.000056	-0.570083
C216	C	1.069209	0.499944	-0.070083
C217	C	0.567484	-0.000056	0.260964
C218	C	1.067484	0.499944	0.760964
C219	C	0.568440	-0.000052	0.354197
C220	C	1.068440	0.499948	0.854197
H221	H	0.424284	-0.082096	0.113659
H222	H	0.924284	0.417904	0.613659
H223	H	0.663504	-0.469073	-0.054553
H224	H	1.163504	0.030927	0.445447
F225	F	0.503146	-0.235439	0.226118
F226	F	1.003146	0.264561	0.726118
F227	F	0.521990	0.086030	-0.440947
F228	F	1.021990	0.586030	0.059053
H229	H	0.332827	-0.082104	0.112021
H230	H	0.832827	0.417896	0.612021
H231	H	-0.050334	0.127200	0.105137
H232	H	0.449666	0.627200	0.605137
H233	H	0.528009	-0.075539	-0.434855
H234	H	1.028009	0.424461	0.065145
H235	H	0.655415	-0.000119	-0.465250
H236	H	1.155415	0.499881	0.034750
H237	H	0.486648	-0.000090	-0.319884
H238	H	0.986648	0.499910	0.180116
H239	H	0.192360	-0.127330	0.109526
H240	H	0.692360	0.372670	0.609526
H241	H	-0.282268	0.081974	0.101053
H242	H	0.217732	0.581974	0.601053
F243	F	0.619981	-0.086255	-0.344493
F244	F	1.119981	0.413745	0.155507
F245	F	0.326517	0.093306	0.111874
F246	F	0.826517	0.593306	0.611874
F247	F	0.430598	0.093306	0.113716
F248	F	0.930598	0.593306	0.613716
H249	H	0.613970	0.075405	-0.350423
H250	H	1.113970	0.575405	0.149577
F251	F	0.638878	-0.764689	-0.011430
F252	F	1.138878	-0.264689	0.488570
F253	F	-0.056657	-0.138640	0.105092
F254	F	0.443343	0.361360	0.605092
F255	F	0.094605	-0.138642	0.107791
F256	F	0.594605	0.361358	0.607791
H257	H	-0.190811	-0.082122	0.102715
H258	H	0.309189	0.417878	0.602715
H259	H	-0.282283	-0.082120	0.101084
H260	H	0.217717	0.417880	0.601084
H261	H	0.511361	-0.134171	0.211737
H262	H	1.011361	0.365829	0.711737
H263	H	-0.190810	0.081979	0.102660
H264	H	0.309190	0.581979	0.602660
F265	F	0.047423	0.138511	0.106871
F266	F	0.547423	0.638511	0.606871
F267	F	0.047417	-0.138644	0.106947
F268	F	0.547417	0.361356	0.606947
H269	H	0.630627	-0.228875	0.002989
H270	H	1.130627	0.271125	0.502989
F271	F	0.470295	-0.632292	0.283577
F272	F	0.970295	-0.132292	0.783577
F273	F	0.198684	0.138520	0.109538
F274	F	0.698684	0.638520	0.609538
F275	F	0.094621	0.138520	0.107695
F276	F	0.594621	0.638520	0.607695
H277	H	0.630625	-0.134149	0.003016
H278	H	1.130625	0.365851	0.503016
F279	F	0.638877	-0.872486	-0.011434
F280	F	1.138877	-0.372486	0.488566
F281	F	0.671719	-0.367821	-0.068924
F282	F	1.171719	0.132179	0.431076
H283	H	0.511401	-0.865972	0.211679
H284	H	1.011401	-0.365972	0.711679
F285	F	0.503169	-0.764721	0.226061
F286	F	1.003169	-0.264721	0.726061
F287	F	0.470276	-0.475634	0.283589
F288	F	0.970276	0.024366	0.783589
F289	F	0.470269	-0.367853	0.283588
F290	F	0.970269	0.132147	0.783588
F291	F	0.671726	-0.524471	-0.068942
F292	F	1.171726	-0.024471	0.431058
F293	F	0.671725	-0.632263	-0.068945
F294	F	1.171725	-0.132263	0.431055
H295	H	0.478509	-0.531040	0.269201
H296	H	0.978509	-0.031040	0.769201
