data_functionalizedCrystal
_audit_creation_method	'MofGen! by Chris Wilmer'
_symmetry_space_group_name_H-M	'P1'
_symmetry_Int_Tables_number	1
_symmetry_cell_setting	triclinic
loop_
_symmetry_equiv_pos_as_xyz
  x,y,z
_cell_length_a	16.109301
_cell_length_b	19.188930
_cell_length_c	15.186229
_cell_angle_alpha	89.991143
_cell_angle_beta	89.999362
_cell_angle_gamma	83.303131
loop_
_atom_site_label
_atom_site_type_symbol
_atom_site_fract_x
_atom_site_fract_y
_atom_site_fract_z
O1	O	1.102833	0.089744	-0.073183
O2	O	1.602833	0.589744	0.426817
O3	O	0.860734	0.100912	-0.073198
O4	O	1.360734	0.600912	0.426802
O5	O	0.988770	-0.006311	-0.073173
O6	O	1.488770	0.493689	0.426827
O7	O	0.974797	0.196967	-0.073208
O8	O	1.474797	0.696967	0.426792
O9	O	0.988762	-0.006313	0.073284
O10	O	1.488762	0.493687	0.573284
O11	O	0.860726	0.100911	0.073259
O12	O	1.360726	0.600911	0.573259
O13	O	1.102825	0.089742	0.073274
O14	O	1.602825	0.589742	0.573274
Zn15	Zn	0.981774	0.095326	0.096520
Zn16	Zn	1.481774	0.595326	0.596520
Zn17	Zn	0.981785	0.095328	-0.096444
Zn18	Zn	1.481785	0.595328	0.403556
O19	O	0.974789	0.196966	0.073249
O20	O	1.474789	0.696966	0.573249
C21	C	0.829757	0.100459	0.000029
C22	C	1.329757	0.600459	0.500029
C23	C	0.737466	0.099103	0.000024
C24	C	1.237466	0.599103	0.500024
C25	C	0.988313	-0.032324	0.000058
C26	C	1.488313	0.467676	0.500058
C27	C	0.986955	-0.109832	0.000066
C28	C	1.486955	0.390168	0.500066
C29	C	0.514993	0.159573	0.000023
C30	C	1.014993	0.659573	0.500023
C31	C	0.428277	0.158294	0.000029
C32	C	0.928277	0.658294	0.500029
C33	C	0.448573	0.031076	0.000048
C34	C	0.948573	0.531076	0.500048
C35	C	0.535287	0.032357	0.000048
C36	C	1.035287	0.532357	0.500048
C37	C	0.568495	0.096608	0.000031
C38	C	1.068495	0.596608	0.500031
C39	C	0.395064	0.094047	0.000037
C40	C	0.895064	0.594047	0.500037
C41	C	0.301043	0.092659	0.000043
C42	C	0.801043	0.592659	0.500043
C43	C	0.662522	0.097996	0.000027
C44	C	1.162522	0.597996	0.500027
C45	C	1.062082	-0.154580	0.000075
C46	C	1.562082	0.345420	0.500075
C47	C	1.060806	-0.227407	0.000060
C48	C	1.560806	0.272593	0.500060
C49	C	0.984399	-0.255482	0.000055
C50	C	1.484399	0.244518	0.500055
C51	C	0.909261	-0.210724	0.000041
C52	C	1.409261	0.289276	0.500041
C53	C	0.910540	-0.137899	0.000046
C54	C	1.410540	0.362101	0.500046
N55	N	0.925991	-0.363624	0.049893
N56	N	1.425991	0.136376	0.549893
N57	N	0.924782	-0.432805	0.049890
N58	N	1.424782	0.067195	0.549890
C59	C	0.980543	-0.474900	0.000037
C60	C	1.480543	0.025100	0.500037
N61	N	1.037571	-0.445200	-0.049802
N62	N	1.537571	0.054800	0.450198
N63	N	1.038783	-0.376013	-0.049795
N64	N	1.538783	0.123987	0.450205
C65	C	0.983004	-0.334448	0.000049
C66	C	1.483004	0.165552	0.500049
C67	C	1.054292	-0.598616	0.000029
C68	C	1.554292	-0.098616	0.500029
C69	C	1.053012	-0.671443	0.000010
C70	C	1.553012	-0.171443	0.500010
C71	C	0.901465	-0.654759	-0.000001
C72	C	1.401465	-0.154759	0.499999
C73	C	0.902747	-0.581933	0.000010
C74	C	1.402747	-0.081933	0.500010
C75	C	0.979162	-0.553866	0.000029
C76	C	1.479162	-0.053866	0.500029
C77	C	1.133802	0.090196	0.000045
C78	C	1.633802	0.590196	0.500045
C79	C	1.226093	0.091552	0.000045
C80	C	1.726093	0.591552	0.500045
C81	C	0.975246	0.222979	0.000016
C82	C	1.475246	0.722979	0.500016
C83	C	0.976604	0.300486	0.000003
C84	C	1.476604	0.800486	0.500003
N85	N	0.981772	0.095325	0.228213
N86	N	1.481772	0.595325	0.728213
N87	N	0.981793	0.095325	-0.228137
N88	N	1.481793	0.595325	0.271863
C89	C	1.038486	0.047862	0.453947
C90	C	1.538486	0.547862	0.953947
C91	C	1.038488	0.047860	0.546136
C92	C	1.538488	0.547860	1.046136
C93	C	0.925074	0.142790	0.546123
C94	C	1.425074	0.642790	1.046123
C95	C	0.925068	0.142787	0.453935
C96	C	1.425068	0.642787	0.953935
C97	C	0.981779	0.095324	0.407849
C98	C	1.481779	0.595324	0.907849
C99	C	0.981787	0.095325	0.592227
C100	C	1.481787	0.595325	1.092227
C101	C	0.981790	0.095323	0.692183
C102	C	1.481790	0.595323	1.192183
C103	C	0.981775	0.095325	0.307887
C104	C	1.481775	0.595325	0.807887
H105	H	0.542027	0.211890	0.000016
H106	H	1.042027	0.711890	0.500016
H107	H	0.384719	0.209567	0.000024
H108	H	0.884719	0.709567	0.500024
O109	O	0.416174	-0.031272	0.000018
O110	O	0.916174	0.468728	0.500018
C111	C	0.328165	-0.018903	0.000035
C112	C	0.828165	0.481097	0.500035
H113	H	0.307601	0.035589	-0.027699
H114	H	0.807601	0.535589	0.472301
H115	H	0.301691	-0.060010	-0.042481
H116	H	0.801691	0.439990	0.457519
H117	H	0.304036	-0.022284	0.070298
H118	H	0.804036	0.477716	0.570298
H119	H	0.578851	-0.018920	0.000057
H120	H	1.078851	0.481080	0.500057
O121	O	1.125940	-0.714987	0.000131
O122	O	1.625940	-0.214987	0.500131
C123	C	1.129734	-0.757616	0.075987
C124	C	1.629734	-0.257616	0.575987
H125	H	1.063752	-0.761288	0.101265
H126	H	1.563752	-0.261288	0.601265
H127	H	1.160903	-0.812354	0.058922
H128	H	1.660903	-0.312354	0.558922
H129	H	1.167614	-0.733680	0.129111
H130	H	1.667614	-0.233680	0.629111
H131	H	0.841570	-0.545497	0.000008
H132	H	1.341570	-0.045497	0.500008
O133	O	1.136383	-0.127433	0.000049
O134	O	1.636383	0.372567	0.500049
C135	C	1.202419	-0.182552	0.000077
C136	C	1.702419	0.317448	0.500077
H137	H	1.179296	-0.232014	-0.027657
H138	H	1.679296	0.267986	0.472343
H139	H	1.255788	-0.167339	-0.042435
H140	H	1.755788	0.332661	0.457565
H141	H	1.225572	-0.192873	0.070342
H142	H	1.725572	0.307127	0.570342
O143	O	1.133765	-0.270915	-0.000081
O144	O	1.633765	0.229085	0.499919
C145	C	1.137562	-0.313544	-0.075920
C146	C	1.637562	0.186456	0.424080
H147	H	1.094963	-0.286856	-0.128946
H148	H	1.594963	0.213144	0.371054
H149	H	1.204568	-0.321750	-0.101365
H150	H	1.704568	0.178250	0.398635
H151	H	1.116227	-0.366495	-0.058776
H152	H	1.616227	0.133505	0.441224
O153	O	0.835091	-0.238076	-0.000080
O154	O	1.335091	0.261924	0.499920
C155	C	0.829816	-0.279677	-0.075944
C156	C	1.329816	0.220323	0.424056
H157	H	0.895413	-0.297825	-0.101226
H158	H	1.395413	0.202175	0.398774
H159	H	0.796848	-0.327361	-0.058890
H160	H	1.296848	0.172639	0.441110
H161	H	0.792921	-0.247488	-0.129062
H162	H	1.292921	0.252512	0.370938
O163	O	1.093542	0.001661	0.590818
O164	O	1.593542	0.501661	1.090818
C165	C	1.080269	-0.067459	0.568321
C166	C	1.580269	0.432541	1.068321
H167	H	1.048219	-0.067380	0.501389
H168	H	1.548219	0.432620	1.001389
H169	H	1.142887	-0.101827	0.565168
H170	H	1.642887	0.398173	1.065168
H171	H	1.038969	-0.089062	0.620212
H172	H	1.538969	0.410938	1.120212
H173	H	0.849360	-0.101464	0.000039
H174	H	1.349360	0.398536	0.500039
H175	H	0.839253	-0.677617	-0.000010
H176	H	1.339253	-0.177617	0.499990
H177	H	1.116514	-0.575763	0.000041
H178	H	1.616514	-0.075763	0.500041
O179	O	1.093436	0.001697	0.409101
O180	O	1.593436	0.501697	0.909101
C181	C	1.049035	-0.041396	0.355835
C182	C	1.549035	0.458604	0.855835
H183	H	0.983896	-0.013577	0.342002
H184	H	1.483896	0.486423	0.842002
H185	H	1.083772	-0.052482	0.291016
H186	H	1.583772	0.447518	0.791016
H187	H	1.043535	-0.092977	0.391412
H188	H	1.543535	0.407023	0.891412
H189	H	0.878902	0.181434	0.583655
H190	H	1.378902	0.681434	1.083655
H191	H	0.878886	0.181437	0.416400
H192	H	1.378886	0.681437	0.916400
