data_functionalizedCrystal
_audit_creation_method	'MofGen! by Chris Wilmer'
_symmetry_space_group_name_H-M	'P1'
_symmetry_Int_Tables_number	1
_symmetry_cell_setting	triclinic
loop_
_symmetry_equiv_pos_as_xyz
  x,y,z
_cell_length_a	23.532407
_cell_length_b	23.532407
_cell_length_c	14.048226
_cell_angle_alpha	89.985077
_cell_angle_beta	89.998871
_cell_angle_gamma	82.848713
loop_
_atom_site_label
_atom_site_type_symbol
_atom_site_fract_x
_atom_site_fract_y
_atom_site_fract_z
O1	O	0.755261	0.069136	-0.079059
O2	O	1.088594	0.402469	0.254274
O3	O	1.421928	0.735803	0.587608
O4	O	0.589398	0.079139	-0.079090
O5	O	0.922731	0.412473	0.254244
O6	O	1.256064	0.745806	0.587577
O7	O	0.677331	-0.008794	-0.079047
O8	O	1.010664	0.324539	0.254287
O9	O	1.343998	0.657873	0.587620
O10	O	0.667328	0.157069	-0.079102
O11	O	1.000661	0.490403	0.254231
O12	O	1.333994	0.823736	0.587565
O13	O	0.677320	-0.008799	0.079275
O14	O	1.010654	0.324534	0.412608
O15	O	1.343987	0.657868	0.745941
O16	O	0.589387	0.079134	0.079232
O17	O	0.922720	0.412467	0.412565
O18	O	1.256054	0.745801	0.745898
O19	O	0.755251	0.069131	0.079262
O20	O	1.088584	0.402464	0.412596
O21	O	1.421917	0.735798	0.745929
Zn22	Zn	0.672317	0.074132	0.104384
Zn23	Zn	1.005651	0.407465	0.437717
Zn24	Zn	1.338984	0.740798	0.771051
Zn25	Zn	0.672331	0.074138	-0.104211
Zn26	Zn	1.005664	0.407472	0.229122
Zn27	Zn	1.338998	0.740805	0.562455
O28	O	0.667317	0.157064	0.079219
O29	O	1.000651	0.490398	0.412553
O30	O	1.333984	0.823731	0.745886
C31	C	0.568176	0.078882	0.000068
C32	C	0.901510	0.412215	0.333401
C33	C	1.234843	0.745549	0.666734
C34	C	0.504959	0.078116	0.000057
C35	C	0.838293	0.411449	0.333391
C36	C	1.171626	0.744783	0.666724
C37	C	0.677071	-0.030013	0.000119
C38	C	1.010404	0.303321	0.333452
C39	C	1.343738	0.636654	0.666785
C40	C	0.676305	-0.093230	0.000133
C41	C	1.009638	0.240104	0.333466
C42	C	1.342972	0.573437	0.666800
C43	C	0.621110	-0.359397	0.000063
C44	C	0.954443	-0.026064	0.333397
C45	C	1.287776	0.307270	0.666730
C46	C	0.621821	-0.299997	0.000071
C47	C	0.955154	0.033336	0.333404
C48	C	1.288488	0.366670	0.666738
O49	O	0.578035	-0.263252	0.000033
O50	O	0.911368	0.070081	0.333366
O51	O	1.244702	0.403414	0.666699
N52	N	0.674097	-0.277371	0.000091
N53	N	1.007431	0.055963	0.333425
N54	N	1.340764	0.389296	0.666758
C55	C	0.725666	-0.314148	0.000095
C56	C	1.058999	0.019185	0.333428
C57	C	1.392332	0.352518	0.666762
O58	O	0.770196	-0.289449	0.000112
O59	O	1.103529	0.043885	0.333445
O60	O	1.436863	0.377218	0.666779
C61	C	0.724954	-0.373547	0.000081
C62	C	1.058287	-0.040214	0.333414
C63	C	1.391620	0.293119	0.666747
C64	C	0.672674	-0.396170	0.000070
C65	C	1.006007	-0.062837	0.333403
C66	C	1.339341	0.270497	0.666736
C67	C	0.568834	-0.382020	0.000052
C68	C	0.902167	-0.048687	0.333385
C69	C	1.235501	0.284646	0.666718
C70	C	0.568123	-0.441417	0.000046
C71	C	0.901456	-0.108083	0.333379
C72	C	1.234790	0.225250	0.666713
C73	C	0.619687	-0.478189	0.000052
C74	C	0.953021	-0.144856	0.333385
C75	C	1.286354	0.188477	0.666719
C76	C	0.671963	-0.455566	0.000064
C77	C	1.005296	-0.122233	0.333397
C78	C	1.338629	0.211101	0.666731
C79	C	0.776521	-0.410324	0.000077
C80	C	1.109854	-0.076990	0.333411
C81	C	1.443188	0.256343	0.666744
C82	C	0.775805	-0.469726	0.000062
C83	C	1.109138	-0.136393	0.333396
C84	C	1.442471	0.196940	0.666729
C85	C	0.723525	-0.492349	0.000051
C86	C	1.056858	-0.159016	0.333385
C87	C	1.390192	0.174318	0.666718
C88	C	0.722816	-0.551735	0.000065
C89	C	1.056149	-0.218402	0.333398
C90	C	1.389482	0.114931	0.666731
N91	N	0.670539	-0.574361	0.000044
N92	N	1.003873	-0.241028	0.333377
N93	N	1.337206	0.092305	0.666711
C94	C	0.618975	-0.537589	0.000038
C95	C	0.952309	-0.204255	0.333371
C96	C	1.285642	0.129078	0.666705
C97	C	0.727157	-0.189406	0.000123
C98	C	1.060490	0.143928	0.333456
C99	C	1.393824	0.477261	0.666790
C100	C	0.727870	-0.130008	0.000144
C101	C	1.061203	0.203326	0.333478
C102	C	1.394536	0.536659	0.666811
C103	C	0.624025	-0.115861	0.000119
C104	C	0.957358	0.217473	0.333452
C105	C	1.290691	0.550806	0.666785
C106	C	0.623313	-0.175260	0.000104
C107	C	0.956646	0.158074	0.333438
C108	C	1.289979	0.491407	0.666771
C109	C	0.674881	-0.212032	0.000103
C110	C	1.008214	0.121301	0.333436
C111	C	1.341547	0.454635	0.666769
C112	C	0.617486	-0.662325	0.000027
C113	C	0.950819	-0.328992	0.333360
C114	C	1.284152	0.004341	0.666693
C115	C	0.616779	-0.721727	0.000025
C116	C	0.950112	-0.388394	0.333358
C117	C	1.283446	-0.055061	0.666692
C118	C	0.720623	-0.735869	0.000046
C119	C	1.053957	-0.402536	0.333379
C120	C	1.387290	-0.069203	0.666712
C121	C	0.721330	-0.676473	0.000053
C122	C	1.054664	-0.343139	0.333386
C123	C	1.387997	-0.009806	0.666719
C124	C	0.669757	-0.639701	0.000040
C125	C	1.003090	-0.306368	0.333373
C126	C	1.336423	0.026965	0.666706
O127	O	0.766579	-0.588514	0.000099
O128	O	1.099912	-0.255181	0.333432
O129	O	1.433245	0.078152	0.666766
O130	O	0.574452	-0.562296	0.000008
O131	O	0.907785	-0.228963	0.333341
O132	O	1.241119	0.104370	0.666675
C133	C	0.105856	0.125350	0.000085
C134	C	0.439190	0.458683	0.333418
C135	C	0.772523	0.792016	0.666751
C136	C	0.046456	0.124638	0.000091
C137	C	0.379789	0.457971	0.333424
C138	C	0.713123	0.791305	0.666757
O139	O	0.009711	0.168424	0.000111
O140	O	0.343045	0.501757	0.333444
O141	O	0.676378	0.835091	0.666777
N142	N	0.023830	0.072362	0.000107
N143	N	0.357163	0.405695	0.333440
N144	N	0.690497	0.739028	0.666773
C145	C	0.060607	0.020794	0.000126
C146	C	0.393941	0.354127	0.333459
C147	C	0.727274	0.687460	0.666793
O148	O	0.035908	-0.023737	0.000141
O149	O	0.369241	0.309596	0.333474
O150	O	0.702574	0.642930	0.666808
C151	C	0.120006	0.021506	0.000127
C152	C	0.453340	0.354839	0.333460
C153	C	0.786673	0.688172	0.666793
C154	C	0.142629	0.073785	0.000101
C155	C	0.475962	0.407119	0.333435
C156	C	0.809296	0.740452	0.666768
C157	C	0.128480	0.177625	0.000060
C158	C	0.461813	0.510958	0.333394
C159	C	0.795146	0.844292	0.666727
C160	C	0.187876	0.178336	0.000052
C161	C	0.521209	0.511670	0.333386
C162	C	0.854542	0.845003	0.666719
C163	C	0.224649	0.126772	0.000069
C164	C	0.557982	0.460105	0.333402
C165	C	0.891315	0.793439	0.666736
C166	C	0.202025	0.074496	0.000093
C167	C	0.535359	0.407830	0.333427
C168	C	0.868692	0.741163	0.666760
C169	C	0.156783	-0.030062	0.000153
C170	C	0.490116	0.303271	0.333486
C171	C	0.823450	0.636605	0.666820
C172	C	0.216185	-0.029345	0.000154
C173	C	0.549519	0.303988	0.333488
C174	C	0.882852	0.637321	0.666821
C175	C	0.238808	0.022934	0.000129
C176	C	0.572141	0.356268	0.333462
C177	C	0.905475	0.689601	0.666796
C178	C	0.298194	0.023643	0.000102
C179	C	0.631528	0.356977	0.333436
C180	C	0.964861	0.690310	0.666769
N181	N	0.320821	0.075920	0.000086
N182	N	0.654154	0.409253	0.333420
N183	N	0.987487	0.742586	0.666753
C184	C	0.284048	0.127484	0.000070
C185	C	0.617381	0.460817	0.333403
C186	C	0.950714	0.794151	0.666736
C187	C	-0.064135	0.019302	0.000126
C188	C	0.269198	0.352635	0.333459
C189	C	0.602532	0.685969	0.666793
C190	C	-0.123533	0.018589	0.000119
C191	C	0.209800	0.351923	0.333452
C192	C	0.543134	0.685256	0.666785
C193	C	-0.137680	0.122434	0.000085
C194	C	0.195653	0.455768	0.333418
C195	C	0.528986	0.789101	0.666752
C196	C	-0.078281	0.123146	0.000086
C197	C	0.255052	0.456480	0.333419
C198	C	0.588385	0.789813	0.666752
C199	C	-0.041509	0.071578	0.000110
C200	C	0.291824	0.404912	0.333444
C201	C	0.625158	0.738245	0.666777
C202	C	0.408784	0.128974	0.000052
C203	C	0.742118	0.462307	0.333386
C204	C	1.075451	0.795640	0.666719
C205	C	0.468186	0.129680	0.000041
C206	C	0.801520	0.463014	0.333374
C207	C	1.134853	0.796347	0.666707
C208	C	0.482329	0.025836	0.000079
C209	C	0.815662	0.359169	0.333413
C210	C	1.148995	0.692503	0.666746
C211	C	0.422932	0.025129	0.000086
C212	C	0.756265	0.358462	0.333419
C213	C	1.089598	0.691796	0.666753
C214	C	0.386160	0.076702	0.000076
C215	C	0.719494	0.410036	0.333409
C216	C	1.052827	0.743369	0.666743
O217	O	0.334974	-0.020119	0.000086
O218	O	0.668307	0.313214	0.333419
O219	O	1.001640	0.646547	0.666753
O220	O	0.308756	0.172007	0.000067
O221	O	0.642089	0.505340	0.333401
O222	O	0.975422	0.838674	0.666734
C223	C	0.776472	0.069388	0.000103
C224	C	1.109805	0.402722	0.333436
C225	C	1.443138	0.736055	0.666770
C226	C	0.839689	0.070154	0.000107
C227	C	1.173022	0.403487	0.333440
C228	C	1.506356	0.736821	0.666774
C229	C	0.667577	0.178283	0.000052
C230	C	1.000911	0.511616	0.333385
C231	C	1.334244	0.844949	0.666718
C232	C	0.668343	0.241500	0.000031
C233	C	1.001676	0.574833	0.333365
C234	C	1.335010	0.908166	0.666698
N235	N	0.672312	0.074127	0.246745
N236	N	1.005645	0.407460	0.580078
N237	N	1.338979	0.740793	0.913411
N238	N	0.672341	0.074139	-0.246572
N239	N	1.005674	0.407472	0.086761
N240	N	1.339007	0.740805	0.420095
C241	C	0.711261	0.035206	0.296582
C242	C	1.044594	0.368539	0.629915
C243	C	1.377927	0.701872	0.963248
C244	C	0.711265	0.035205	0.396239
C245	C	1.044598	0.368539	0.729573
C246	C	1.377931	0.701872	1.062906
C247	C	0.672322	0.074129	0.446058
C248	C	1.005655	0.407463	0.779391
C249	C	1.338989	0.740796	1.112725
C250	C	0.633369	0.113052	0.396214
C251	C	0.966702	0.446385	0.729547
C252	C	1.300036	0.779719	1.062881
C253	C	0.633363	0.113049	0.296558
C254	C	0.966696	0.446383	0.629892
C255	C	1.300029	0.779716	0.963225
C256	C	0.633385	0.113056	0.603928
C257	C	0.966719	0.446389	0.937262
C258	C	1.300052	0.779723	1.270595
C259	C	0.633392	0.113060	0.703591
C260	C	0.966725	0.446393	1.036924
C261	C	1.300059	0.779726	1.370258
C262	C	0.711287	0.035212	0.703609
C263	C	1.044621	0.368546	1.036943
C264	C	1.377954	0.701879	1.370276
C265	C	0.711281	0.035209	0.603953
C266	C	1.044614	0.368543	0.937287
C267	C	1.377948	0.701876	1.270620
C268	C	0.672329	0.074133	0.554116
C269	C	1.005662	0.407467	0.887450
C270	C	1.338995	0.740800	1.220783
H271	H	0.575489	-0.632392	0.000016
H272	H	0.908823	-0.299059	0.333349
H273	H	1.242156	0.034274	0.666683
O274	O	0.749124	-0.002521	0.444760
O275	O	1.082457	0.330813	0.778094
O276	O	1.415791	0.664146	1.111427
C277	C	0.784090	0.027809	0.502366
C278	C	1.117424	0.361142	0.835699
C279	C	1.450757	0.694476	1.169032
H280	H	0.761150	0.072489	0.517272
H281	H	1.094483	0.405822	0.850605
H282	H	1.427817	0.739156	1.183939
H283	H	0.793239	0.003996	0.572457
H284	H	1.126572	0.337329	0.905790
H285	H	1.459906	0.670662	1.239124
H286	H	0.826156	0.031468	0.463952
H287	H	1.159489	0.364801	0.797286
H288	H	1.492822	0.698134	1.130619
O289	O	0.772164	-0.654588	0.000022
O290	O	1.105497	-0.321255	0.333355
O291	O	1.438830	0.012079	0.666688
C292	C	0.817522	-0.699785	0.000052
C293	C	1.150856	-0.366452	0.333385
C294	C	1.484189	-0.033119	0.666719
H295	H	0.801792	-0.740049	-0.029915
H296	H	1.135125	-0.406716	0.303419
H297	H	1.468459	-0.073383	0.636752
H298	H	0.854042	-0.687568	-0.045915
H299	H	1.187375	-0.354235	0.287418
H300	H	1.520708	-0.020902	0.620752
H301	H	0.833411	-0.708286	0.076008
H302	H	1.166745	-0.374953	0.409341
H303	H	1.500078	-0.041619	0.742675
H304	H	0.512280	-0.016146	0.000089
H305	H	0.845613	0.317187	0.333422
H306	H	1.178946	0.650520	0.666756
H307	H	0.580742	-0.193674	0.000099
H308	H	0.914075	0.139659	0.333433
H309	H	1.247409	0.472992	0.666766
H310	H	0.601646	0.144742	0.255982
H311	H	0.934979	0.478075	0.589315
H312	H	1.268313	0.811409	0.922649
H313	H	0.601664	0.144750	0.563354
H314	H	0.934997	0.478083	0.896688
H315	H	1.268331	0.811417	1.230021
O316	O	0.401018	-0.025689	-0.000027
O317	O	0.734352	0.307644	0.333307
O318	O	1.067685	0.640978	0.666640
C319	C	0.419818	-0.057093	-0.082028
C320	C	0.753152	0.276240	0.251306
C321	C	1.086485	0.609574	0.584639
H322	H	0.460932	-0.041812	-0.109380
H323	H	0.794266	0.291521	0.223953
H324	H	1.127599	0.624854	0.557286
H325	H	0.428324	-0.104568	-0.063571
H326	H	0.761657	0.228765	0.269762
H327	H	1.094991	0.562099	0.603095
H328	H	0.385402	-0.050293	-0.139438
H329	H	0.718736	0.283040	0.193895
H330	H	1.052069	0.616374	0.527228
H331	H	0.742975	0.003512	0.256026
H332	H	1.076308	0.336845	0.589359
H333	H	1.409641	0.670179	0.922692
O334	O	0.595516	0.150784	0.444712
O335	O	0.928850	0.484117	0.778046
O336	O	1.262183	0.817451	1.111379
C337	C	0.560553	0.120462	0.502366
C338	C	0.893887	0.453795	0.835699
C339	C	1.227220	0.787128	1.169032
H340	H	0.583491	0.075781	0.517312
H341	H	0.916825	0.409115	0.850645
H342	H	1.250158	0.742448	1.183979
H343	H	0.551415	0.144281	0.572434
H344	H	0.884748	0.477614	0.905767
H345	H	1.218081	0.810947	1.239101
H346	H	0.518483	0.116804	0.463973
H347	H	0.851816	0.450138	0.797307
H348	H	1.185150	0.783471	1.130640
H349	H	0.098544	0.219617	0.000050
H350	H	0.431878	0.552951	0.333384
H351	H	0.765211	0.886284	0.666717
H352	H	0.742994	0.003518	0.563391
H353	H	1.076327	0.336851	0.896725
H354	H	1.409660	0.670184	1.230058
H355	H	0.246123	-0.071339	0.000175
H356	H	0.579457	0.261994	0.333508
H357	H	0.912790	0.595327	0.666842
O358	O	0.770658	-0.771677	0.000009
O359	O	1.103992	-0.438344	0.333342
O360	O	1.437325	-0.105010	0.666675
C361	C	0.758813	-0.828953	0.000020
C362	C	1.092147	-0.495620	0.333354
C363	C	1.425480	-0.162287	0.666687
H364	H	0.714093	-0.830972	-0.029957
H365	H	1.047427	-0.497639	0.303376
H366	H	1.380760	-0.164306	0.636709
H367	H	0.791700	-0.856041	-0.045947
H368	H	1.125033	-0.522707	0.287386
H369	H	1.458367	-0.189374	0.620720
H370	H	0.761069	-0.846162	0.075972
H371	H	1.094402	-0.512828	0.409305
H372	H	1.427736	-0.179495	0.742639
O373	O	0.749203	-0.002543	0.751976
O374	O	1.082537	0.330791	1.085309
O375	O	1.415870	0.664124	1.418642
C376	C	0.805522	0.006427	0.727592
C377	C	1.138855	0.339760	1.060925
C378	C	1.472188	0.673093	1.394258
H379	H	0.805533	0.052023	0.700171
H380	H	1.138866	0.385357	1.033505
H381	H	1.472200	0.718690	1.366838
H382	H	0.834143	-0.000264	0.793128
H383	H	1.167476	0.333070	1.126462
H384	H	1.500810	0.666403	1.459795
H385	H	0.822430	-0.025226	0.669760
H386	H	1.155763	0.308107	1.003094
H387	H	1.489096	0.641440	1.336427
O388	O	0.566006	-0.743730	0.000178
O389	O	0.899340	-0.410396	0.333511
O390	O	1.232673	-0.077063	0.666844
C391	C	0.562483	-0.777692	0.082156
C392	C	0.895817	-0.444358	0.415489
C393	C	1.229150	-0.111025	0.748823
H394	H	0.592157	-0.763819	0.139478
H395	H	0.925490	-0.430486	0.472812
H396	H	1.258823	-0.097152	0.806145
H397	H	0.516551	-0.772110	0.109665
H398	H	0.849884	-0.438777	0.442998
H399	H	1.183217	-0.105444	0.776332
H400	H	0.575892	-0.824607	0.063616
H401	H	0.909226	-0.491274	0.396949
H402	H	1.242559	-0.157940	0.730283
H403	H	0.378852	0.170970	0.000047
H404	H	0.712185	0.504303	0.333381
H405	H	1.045518	0.837637	0.666714
O406	O	0.778669	-0.108063	-0.000004
O407	O	1.112002	0.225270	0.333329
O408	O	1.445335	0.558604	0.666663
C409	C	0.810091	-0.126883	-0.081982
C410	C	1.143425	0.206451	0.251351
C411	C	1.476758	0.539784	0.584684
H412	H	0.779518	-0.139057	-0.139301
H413	H	1.112852	0.194276	0.194032
H414	H	1.446185	0.527609	0.527365
H415	H	0.834118	-0.091028	-0.109496
H416	H	1.167451	0.242306	0.223837
H417	H	1.500785	0.575639	0.557170
H418	H	0.842047	-0.165780	-0.063440
H419	H	1.175380	0.167554	0.269893
H420	H	1.508714	0.500887	0.603226
O421	O	0.517288	-0.463293	-0.000016
O422	O	0.850621	-0.129960	0.333317
O423	O	1.183955	0.203374	0.666651
C424	C	0.471935	-0.418090	0.000002
C425	C	0.805269	-0.084757	0.333335
C426	C	1.138602	0.248577	0.666669
H427	H	0.487675	-0.377819	-0.029957
H428	H	0.821008	-0.044486	0.303377
H429	H	1.154342	0.288847	0.636710
H430	H	0.435418	-0.430287	-0.045979
H431	H	0.768751	-0.096953	0.287354
H432	H	1.102085	0.236380	0.620688
H433	H	0.456039	-0.409611	0.075953
H434	H	0.789372	-0.076278	0.409286
H435	H	1.122706	0.257055	0.742620
O436	O	0.134791	-0.080834	0.000013
O437	O	0.468125	0.252500	0.333347
O438	O	0.801458	0.585833	0.666680
C439	C	0.100845	-0.084359	-0.081965
C440	C	0.434178	0.248974	0.251368
C441	C	0.767512	0.582308	0.584701
H442	H	0.114721	-0.054678	-0.139294
H443	H	0.448054	0.278655	0.194039
H444	H	0.781387	0.611988	0.527373
H445	H	0.106440	-0.130290	-0.109464
H446	H	0.439774	0.203043	0.223870
H447	H	0.773107	0.536377	0.557203
H448	H	0.053925	-0.070961	-0.063430
H449	H	0.387258	0.262373	0.269903
H450	H	0.720592	0.595706	0.603237
H451	H	0.526842	-0.352085	0.000043
H452	H	0.860175	-0.018752	0.333377
H453	H	1.193509	0.314582	0.666710
H454	H	0.601680	0.144755	0.744149
H455	H	0.935013	0.478088	1.077482
H456	H	1.268347	0.811422	1.410815
H457	H	0.769152	-0.219343	0.000128
H458	H	1.102486	0.113990	0.333462
H459	H	1.435819	0.447323	0.666795
O460	O	0.573986	-0.080052	0.000060
O461	O	0.907319	0.253281	0.333393
O462	O	1.240652	0.586615	0.666727
C463	C	0.585831	-0.022776	0.000093
C464	C	0.919164	0.310557	0.333427
C465	C	1.252497	0.643891	0.666760
H466	H	0.630555	-0.020745	-0.029862
H467	H	0.963888	0.312588	0.303472
H468	H	1.297222	0.645922	0.636805
H469	H	0.552951	0.004329	-0.045883
H470	H	0.886284	0.337663	0.287451
H471	H	1.219618	0.670996	0.620784
H472	H	0.583563	-0.005597	0.076049
H473	H	0.916897	0.327736	0.409382
H474	H	1.250230	0.661069	0.742715
H475	H	-0.059866	0.165717	0.000070
H476	H	0.273467	0.499050	0.333404
H477	H	0.606800	0.832384	0.666737
O478	O	0.827357	-0.388452	0.000042
O479	O	1.160690	-0.055119	0.333376
O480	O	1.494023	0.278214	0.666709
C481	C	0.872708	-0.433657	0.000063
C482	C	1.206041	-0.100324	0.333396
C483	C	1.539375	0.233010	0.666730
H484	H	0.856970	-0.473914	-0.029917
H485	H	1.190304	-0.140581	0.303417
H486	H	1.523637	0.192752	0.636750
H487	H	0.909231	-0.421442	-0.045898
H488	H	1.242565	-0.088109	0.287436
H489	H	1.575898	0.245224	0.620769
H490	H	0.888595	-0.442168	0.076018
H491	H	1.221928	-0.108835	0.409351
H492	H	1.555261	0.224498	0.742685
O493	O	0.209920	0.229082	0.000149
O494	O	0.543254	0.562416	0.333482
O495	O	0.876587	0.895749	0.666815
C496	C	0.243848	0.232613	0.082148
C497	C	0.577181	0.565946	0.415481
C498	C	0.910515	0.899279	0.748815
H499	H	0.258892	0.187641	0.109510
H500	H	0.592225	0.520975	0.442843
H501	H	0.925558	0.854308	0.776177
H502	H	0.282622	0.255088	0.063685
H503	H	0.615955	0.588421	0.397018
H504	H	0.949289	0.921754	0.730352
H505	H	0.217467	0.257964	0.139554
H506	H	0.550800	0.591297	0.472887
H507	H	0.884134	0.924631	0.806221
O508	O	0.825862	-0.505504	0.000190
O509	O	1.159196	-0.172170	0.333523
O510	O	1.492529	0.161163	0.666856
C511	C	0.828564	-0.540292	0.082194
C512	C	1.161898	-0.206959	0.415527
C513	C	1.495231	0.126375	0.748860
H514	H	0.783378	-0.543057	0.109524
H515	H	1.116711	-0.209724	0.442857
H516	H	1.450044	0.123610	0.776191
H517	H	0.850043	-0.585051	0.063750
H518	H	1.183376	-0.251718	0.397083
H519	H	1.516710	0.081616	0.730416
H520	H	0.854457	-0.520900	0.139616
H521	H	1.187790	-0.187567	0.472950
H522	H	1.521124	0.145766	0.806283
O523	O	0.490066	0.180518	0.000061
O524	O	0.823399	0.513851	0.333394
O525	O	1.156733	0.847184	0.666728
C526	C	0.444867	0.225875	0.000027
C527	C	0.778201	0.559208	0.333361
C528	C	1.111534	0.892541	0.666694
H529	H	0.404602	0.210142	0.030011
H530	H	0.737936	0.543475	0.363345
H531	H	1.071269	0.876809	0.696678
H532	H	0.457080	0.262393	0.045978
H533	H	0.790414	0.595727	0.379311
H534	H	1.123747	0.929060	0.712645
H535	H	0.436371	0.241766	-0.075932
H536	H	0.769704	0.575100	0.257401
H537	H	1.103038	0.908433	0.590735
H538	H	-0.167632	0.164421	0.000076
H539	H	0.165701	0.497754	0.333409
H540	H	0.499035	0.831087	0.666743
H541	H	-0.141947	-0.023982	0.000124
H542	H	0.191387	0.309352	0.333458
H543	H	0.524720	0.642685	0.666791
H544	H	-0.034198	-0.022693	0.000138
H545	H	0.299136	0.310640	0.333471
H546	H	0.632469	0.643973	0.666804
