data_functionalizedCrystal
_audit_creation_method	'MofGen! by Chris Wilmer'
_symmetry_space_group_name_H-M	'P1'
_symmetry_Int_Tables_number	1
_symmetry_cell_setting	triclinic
loop_
_symmetry_equiv_pos_as_xyz
  x,y,z
_cell_length_a	10.686220
_cell_length_b	18.050590
_cell_length_c	10.685880
_cell_angle_alpha	94.335314
_cell_angle_beta	89.641569
_cell_angle_gamma	94.400502
loop_
_atom_site_label
_atom_site_type_symbol
_atom_site_fract_x
_atom_site_fract_y
_atom_site_fract_z
Zn1	Zn	1.972229	-0.231824	-0.562344
Zn2	Zn	1.955998	-0.347307	-0.352577
Zn3	Zn	1.746358	-0.233338	-0.368666
Zn4	Zn	1.762413	-0.366183	-0.578346
O5	O	1.859250	-0.294663	-0.465483
O6	O	2.145619	-0.238610	-0.521087
O7	O	1.914677	-0.324922	-0.179171
O8	O	1.776394	-0.129211	-0.394394
O9	O	2.133695	-0.323455	-0.366972
O10	O	1.942340	-0.128099	-0.536688
O11	O	1.760656	-0.241189	-0.190992
O12	O	1.572944	-0.259493	-0.409911
O13	O	1.803757	-0.355627	-0.751764
O14	O	1.584740	-0.357094	-0.563962
O15	O	1.957908	-0.256914	-0.740007
O16	O	1.930245	-0.453737	-0.382489
O17	O	1.788019	-0.467606	-0.548361
C18	C	1.533326	-0.310507	-0.490420
C19	C	1.393896	-0.317304	-0.501118
C20	C	1.859149	-0.487618	-0.465441
C21	C	1.859224	-0.570161	-0.465456
C22	C	1.936750	-0.762039	-0.375358
C23	C	1.976179	-0.814639	-0.487500
C24	C	1.859299	-0.721290	-0.465500
C25	C	1.820003	-0.815768	-0.353400
C26	C	1.859374	-0.867273	-0.465533
C27	C	1.898791	-0.772802	-0.577698
C28	C	1.742556	-0.773926	-0.443524
C29	C	1.781947	-0.826509	-0.555749
C30	C	1.859260	-0.637192	-0.465479
C31	C	1.859414	-0.951369	-0.465567
C32	C	2.186446	-0.278758	-0.440450
C33	C	2.325878	-0.271980	-0.429782
C34	C	1.884434	-0.308207	-0.792674
C35	C	1.895166	-0.313979	-0.932103
C36	C	1.859387	-0.100954	-0.465551
C37	C	1.859445	-0.018407	-0.465580
C38	C	1.834235	-0.281115	-0.139561
C39	C	1.823746	-0.275122	-0.000114
H40	H	1.345455	-0.361315	-0.570373
H41	H	1.964532	-0.351665	-0.980548
H42	H	1.374312	-0.227976	-0.360524
H43	H	2.002277	-0.733979	-0.299199
H44	H	2.074939	-0.832667	-0.506111
N45	N	1.940669	-0.749098	-0.696662
N46	N	1.947439	-0.681447	-0.715831
H47	H	1.977020	-0.664703	-0.799845
N48	N	1.618703	-0.751277	-0.420107
N49	N	1.598233	-0.707544	-0.327176
H50	H	1.510760	-0.691546	-0.310622
N51	N	1.699832	-0.861538	-0.651505
N52	N	1.719933	-0.849656	-0.763867
H53	H	1.661944	-0.874396	-0.831499
N54	N	1.778280	-0.839573	-0.234451
N55	N	1.837812	-0.816685	-0.137012
H56	H	1.808355	-0.833494	-0.053001
N57	N	1.736724	-0.227857	-0.939338
N58	N	1.727824	-0.223079	-0.822362
H59	H	1.666363	-0.189698	-0.779429
