data_functionalizedCrystal
_audit_creation_method	'MofGen! by Chris Wilmer'
_symmetry_space_group_name_H-M	'P1'
_symmetry_Int_Tables_number	1
_symmetry_cell_setting	triclinic
loop_
_symmetry_equiv_pos_as_xyz
  x,y,z
_cell_length_a	14.853558
_cell_length_b	27.731996
_cell_length_c	13.330367
_cell_angle_alpha	89.989375
_cell_angle_beta	89.992972
_cell_angle_gamma	83.126261
loop_
_atom_site_label
_atom_site_type_symbol
_atom_site_fract_x
_atom_site_fract_y
_atom_site_fract_z
O1	O	1.195326	0.063087	-0.083425
O2	O	0.932740	0.070609	-0.083431
O3	O	1.072213	-0.003513	-0.083406
O4	O	1.055853	0.137208	-0.083450
O5	O	1.072193	-0.003514	0.083441
O6	O	0.932720	0.070607	0.083416
O7	O	1.195306	0.063085	0.083422
Cu8	Cu	1.064011	0.066846	0.098654
Cu9	Cu	1.064035	0.066848	-0.098662
O10	O	1.055833	0.137207	0.083397
C11	C	0.899147	0.070268	-0.000008
C12	C	0.799080	0.069249	-0.000010
C13	C	0.752078	0.068772	-0.090962
C14	C	0.752055	0.068765	0.090942
C15	C	0.658037	0.067805	0.090944
C16	C	0.611036	0.067328	-0.000008
C17	C	0.658052	0.067811	-0.090962
C18	C	0.611015	0.067317	0.181896
C19	C	0.516992	0.066356	0.181902
C20	C	0.469988	0.065883	0.090948
C21	C	0.517010	0.066366	-0.000009
C22	C	0.470009	0.065889	-0.090961
C23	C	0.517028	0.066376	-0.181920
C24	C	0.611048	0.067337	-0.181916
C25	C	0.375967	0.064922	0.090944
C26	C	0.375982	0.064928	-0.090962
C27	C	1.071867	-0.021522	0.000021
C28	C	1.070854	-0.075183	0.000031
C29	C	1.064497	-0.407928	-0.090966
C30	C	1.060653	-0.609604	-0.090984
O31	O	1.060126	-0.635677	-0.168333
N32	N	1.060165	-0.634825	-0.000037
C33	C	1.060631	-0.609622	0.090922
O34	O	1.060118	-0.635701	0.168278
C35	C	1.064469	-0.407947	0.090938
C36	C	1.064966	-0.382730	-0.000015
C37	C	1.064993	-0.382711	-0.181913
C38	C	1.065959	-0.332295	-0.181907
C39	C	1.066428	-0.307097	-0.090956
C40	C	1.065932	-0.332314	-0.000010
C41	C	1.064929	-0.382745	0.181896
C42	C	1.065886	-0.332323	0.181892
C43	C	1.066384	-0.307106	0.090938
C44	C	1.067367	-0.256700	0.090947
N45	N	1.067856	-0.231480	-0.000000
C46	C	1.067386	-0.256678	-0.090952
C47	C	1.058618	-0.715505	0.090907
C48	C	1.057661	-0.765924	0.090903
C49	C	1.057681	-0.765902	-0.091004
C50	C	1.058645	-0.715483	-0.090999
C51	C	1.059107	-0.690285	-0.000041
C52	C	1.069415	-0.150802	-0.090934
C53	C	1.070385	-0.100382	-0.090920
C54	C	1.070360	-0.100407	0.090985
C55	C	1.069395	-0.150823	0.090973
C56	C	1.068920	-0.176019	0.000005
O57	O	1.067884	-0.230596	0.168255
O58	O	1.067879	-0.230590	-0.168296
C59	C	1.063531	-0.458344	-0.090972
C60	C	1.063034	-0.483561	-0.000026
C61	C	1.063504	-0.458363	0.090926
C62	C	1.062077	-0.533980	-0.000030
C63	C	1.061607	-0.559178	-0.090981
C64	C	1.062096	-0.533958	-0.181929
C65	C	1.063062	-0.483543	-0.181923
C66	C	1.063016	-0.483583	0.181873
C67	C	1.062051	-0.533999	0.181860
C68	C	1.061581	-0.559197	0.090909
C69	C	1.228899	0.063426	-0.000003
C70	C	1.328966	0.064445	-0.000008
C71	C	1.056179	0.155216	-0.000032
C72	C	1.057191	0.208877	-0.000049
N73	N	1.064001	0.066844	0.237435
N74	N	1.064052	0.066846	-0.237444
C75	C	1.002274	0.099656	0.710047
C76	C	1.125820	0.034036	0.710037
C77	C	1.125810	0.034035	0.605019
C78	C	1.064032	0.066845	0.552510
C79	C	1.002264	0.099657	0.605019
C80	C	1.187583	0.001227	0.552502
C81	C	1.187576	0.001224	0.447477
C82	C	1.125793	0.034033	0.394966
C83	C	1.064021	0.066845	0.447482
C84	C	1.002243	0.099656	0.394972
C85	C	0.940467	0.132467	0.447486
C86	C	0.940480	0.132465	0.552508
C87	C	1.125779	0.034034	0.289944
C88	C	1.002233	0.099656	0.289944
H89	H	0.337687	0.064530	0.165001
O90	O	0.466332	0.065863	-0.280019
H91	H	0.393055	0.065114	-0.264731
O92	O	0.661762	0.067848	-0.280016
H93	H	0.735039	0.068587	-0.264732
H94	H	1.058999	-0.694994	0.164979
O95	O	0.325295	0.064415	-0.189066
H96	H	0.252016	0.063668	-0.173790
H97	H	0.790365	0.069171	-0.165018
O98	O	1.070909	-0.073181	-0.189023
H99	H	1.070407	-0.099176	-0.252265
O100	O	0.935599	0.135041	0.233302
H101	H	0.946543	0.172736	0.253432
H102	H	1.069024	-0.171310	-0.165008
H103	H	1.061653	-0.554526	0.255931
O104	O	0.802741	0.069282	0.189038
H105	H	0.876018	0.070034	0.173758
H106	H	1.068999	-0.171357	0.165034
O107	O	0.661703	0.067834	0.279991
H108	H	0.734979	0.068592	0.264708
H109	H	0.951974	0.126369	0.752806
O110	O	1.192452	-0.001347	0.766672
H111	H	1.235406	-0.024160	0.712513
O112	O	0.873820	0.167847	0.390850
H113	H	0.884190	0.162329	0.309000
O114	O	1.059175	-0.688286	-0.189098
H115	H	0.998143	-0.661044	-0.193449
O116	O	1.066472	-0.305098	-0.280007
H117	H	1.065969	-0.331096	-0.343243
O118	O	1.066397	-0.305147	0.280001
H119	H	1.004742	-0.310559	0.323614
O120	O	1.070865	-0.073225	0.189082
H121	H	1.071610	-0.033930	0.173796
O122	O	1.063585	-0.456351	-0.280029
H123	H	1.125496	-0.437654	-0.284396
H124	H	1.064608	-0.403222	-0.255980
H125	H	1.237885	-0.025484	0.595258
H126	H	1.237876	-0.025492	0.404727
O127	O	0.466277	0.065839	0.280000
H128	H	0.514756	0.066336	0.343243
H129	H	0.890185	0.159179	0.595271
H130	H	1.064525	-0.403268	0.255960
H131	H	1.057269	-0.786452	0.164966
O132	O	1.192397	-0.001351	0.233300
H133	H	1.235355	-0.024167	0.287457
H134	H	1.061718	-0.554484	-0.255985
H135	H	1.063399	-0.463071	0.255938
O136	O	1.057163	-0.793084	-0.189106
H137	H	1.056404	-0.832378	-0.173819
