data_functionalizedCrystal
_audit_creation_method	'MofGen! by Chris Wilmer'
_symmetry_space_group_name_H-M	'P1'
_symmetry_Int_Tables_number	1
_symmetry_cell_setting	triclinic
loop_
_symmetry_equiv_pos_as_xyz
  x,y,z
_cell_length_a	13.032831
_cell_length_b	25.639240
_cell_length_c	13.032268
_cell_angle_alpha	97.139101
_cell_angle_beta	89.113023
_cell_angle_gamma	97.153060
loop_
_atom_site_label
_atom_site_type_symbol
_atom_site_fract_x
_atom_site_fract_y
_atom_site_fract_z
Zn1	Zn	1.498183	0.353070	0.780709
Zn2	Zn	1.998183	0.853070	1.280709
Zn3	Zn	1.519860	0.430963	0.608701
Zn4	Zn	2.019860	0.930963	1.108701
Zn5	Zn	1.348060	0.331230	0.586958
Zn6	Zn	1.848060	0.831230	1.086958
Zn7	Zn	1.326110	0.428136	0.758828
Zn8	Zn	1.826110	0.928136	1.258828
O9	O	1.423053	0.385850	0.683799
O10	O	1.923053	0.885850	1.183799
O11	O	1.644970	0.373726	0.776149
O12	O	2.144970	0.873726	1.276149
O13	O	1.515328	0.409776	0.461903
O14	O	2.015328	0.909776	0.961903
O15	O	1.368088	0.260973	0.612717
O16	O	1.868088	0.760973	1.112717
O17	O	1.660896	0.430953	0.649776
O18	O	2.160896	0.930953	1.149776
O19	O	1.478383	0.277018	0.755065
O20	O	1.978383	0.777018	1.255065
O21	O	1.389107	0.336503	0.445928
O22	O	1.889107	0.836503	0.945928
O23	O	1.201236	0.333762	0.591500
O24	O	1.701236	0.833762	1.091500
O25	O	1.330678	0.426136	0.905644
O26	O	1.830678	0.926136	1.405644
O27	O	1.185110	0.404959	0.717771
O28	O	1.685110	0.904959	1.217771
O29	O	1.457099	0.370985	0.921720
O30	O	1.957099	0.870985	1.421720
O31	O	1.494044	0.503742	0.628558
O32	O	1.994044	1.003742	1.128558
O33	O	1.351698	0.501666	0.738855
O34	O	1.851698	1.001666	1.238855
C35	C	1.155858	0.366684	0.649902
C36	C	1.655858	0.866684	1.149902
C37	C	1.041548	0.358499	0.635425
C38	C	1.541548	0.858499	1.135425
C39	C	1.422867	0.521675	0.683718
C40	C	1.922867	1.021675	1.183718
C41	C	1.422876	0.579791	0.683729
C42	C	1.922876	1.079791	1.183729
C43	C	0.982645	0.390122	0.691354
C44	C	1.482645	0.890122	1.191354
C45	C	0.864499	0.381663	0.676393
C46	C	1.364499	0.881663	1.176393
C47	C	1.497250	0.941249	0.626451
C48	C	1.997250	1.441249	1.126451
C49	C	1.497281	0.995856	0.626465
C50	C	1.997281	1.495856	1.126465
O51	O	1.560383	1.025012	0.577716
O52	O	2.060383	1.525012	1.077716
N53	N	1.423133	1.022096	0.683832
N54	N	1.923133	1.522096	1.183832
C55	C	1.348957	0.993728	0.741198
C56	C	1.848957	1.493728	1.241198
O57	O	1.285892	1.021061	0.789996
O58	O	1.785892	1.521061	1.289996
C59	C	1.348932	0.939122	0.741190
C60	C	1.848932	1.439122	1.241190
C61	C	1.423078	0.912884	0.683810
C62	C	1.923078	1.412884	1.183810
C63	C	1.571391	0.915010	0.569077
C64	C	2.071391	1.415010	1.069077
C65	C	1.571359	0.860406	0.569062
C66	C	2.071359	1.360406	1.069062
C67	C	1.497187	0.832042	0.626421
C68	C	1.997187	1.332042	1.126421
C69	C	1.423046	0.858280	0.683795
C70	C	1.923046	1.358280	1.183795
C71	C	1.274762	0.910755	0.798561
C72	C	1.774762	1.410755	1.298561
C73	C	1.274744	0.856146	0.798548
C74	C	1.774744	1.356146	1.298548
C75	C	1.348890	0.829908	0.741168
C76	C	1.848890	1.329908	1.241168
C77	C	1.348843	0.775312	0.741139
C78	C	1.848843	1.275312	1.241139
N79	N	1.422990	0.749071	0.683771
N80	N	1.922990	1.249071	1.183771
C81	C	1.497162	0.777436	0.626412
C82	C	1.997162	1.277436	1.126412
C83	C	1.349016	1.108403	0.741214
C84	C	1.849016	1.608403	1.241214
C85	C	1.349035	1.163007	0.741217
C86	C	1.849035	1.663007	1.241217
C87	C	1.497360	1.165131	0.626485
C88	C	1.997360	1.665131	1.126485
C89	C	1.497336	1.110526	0.626476
C90	C	1.997336	1.610526	1.126476
C91	C	1.423163	1.082162	0.683846
C92	C	1.923163	1.582162	1.183846
C93	C	1.497089	0.662765	0.626384
C94	C	1.997089	1.162765	1.126384
C95	C	1.497049	0.608156	0.626370
C96	C	1.997049	1.108156	1.126370
C97	C	1.348728	0.606037	0.741106
C98	C	1.848728	1.106037	1.241106
C99	C	1.348765	0.660640	0.741116
C100	C	1.848765	1.160640	1.241116
C101	C	1.422954	0.689003	0.683752
C102	C	1.922954	1.189003	1.183752
O103	O	1.285775	0.746122	0.789866
O104	O	1.785775	1.246122	1.289866
O105	O	1.560225	0.750097	0.577633
O106	O	2.060225	1.250097	1.077633
C107	C	1.691291	0.405091	0.717829
C108	C	2.191291	0.905091	1.217829
C109	C	1.805599	0.413290	0.732330
C110	C	2.305599	0.913290	1.232330
C111	C	1.389022	0.400681	0.952041
C112	C	1.889022	0.900681	1.452041
C113	C	1.374521	0.407001	1.066350
C114	C	1.874521	0.907001	1.566350
C115	C	1.423229	1.249493	0.683884
C116	C	1.923229	1.749493	1.183884
C117	C	1.423212	1.191377	0.683862
C118	C	1.923212	1.691377	1.183862
C119	C	1.457011	0.371043	0.416608
C120	C	1.957011	0.871043	0.916608
C121	C	1.471712	0.364590	0.302325
C122	C	1.971712	0.864590	0.802325
C123	C	1.430606	0.382531	1.125266
C124	C	1.930606	0.882531	1.625266
C125	C	1.415619	0.389063	1.243410
C126	C	1.915619	0.889063	1.743410
H127	H	1.019683	0.423457	0.750317
H128	H	1.519683	0.923457	1.250317
F129	F	0.993141	0.314922	0.558365
F130	F	1.493141	0.814922	1.058365
H131	H	1.288392	0.682005	0.787843
H132	H	1.788392	1.182005	1.287843
H133	H	1.315402	0.432783	1.103374
H134	H	1.815402	0.932783	1.603374
F135	F	1.270109	1.190924	0.802275
F136	F	1.770109	1.690924	1.302275
H137	H	1.288608	1.085311	0.787927
H138	H	1.788608	1.585311	1.287927
H139	H	1.557759	1.188236	0.579784
H140	H	2.057759	1.688236	1.079784
H141	H	1.557427	0.586794	0.579641
H142	H	2.057427	1.086794	1.079641
F143	F	0.816098	0.338084	0.599329
F144	F	1.316098	0.838084	1.099329
F145	F	1.576050	0.692943	0.565331
F146	F	2.076050	1.192943	1.065331
H147	H	1.631737	0.839047	0.522342
H148	H	2.131737	1.339047	1.022342
H149	H	1.631796	0.938099	0.522369
H150	H	2.131796	1.438099	1.022369
H151	H	0.842630	0.446627	0.791300
H152	H	1.342630	0.946627	1.291300
H153	H	1.356496	0.414846	1.280430
H154	H	1.856496	0.914846	1.780430
H155	H	1.214380	0.932109	0.845280
H156	H	1.714380	1.432109	1.345280
F157	F	1.269795	0.575839	0.802152
F158	F	1.769795	1.075839	1.302152
H159	H	1.557712	1.089166	0.579753
H160	H	2.057712	1.589166	1.079753
F161	F	1.195799	0.825963	0.859612
F162	F	1.695799	1.325963	1.359612
H163	H	1.489714	0.356744	1.088241
H164	H	1.989714	0.856744	1.588241
H165	H	1.530823	0.338799	1.265306
H166	H	2.030823	0.838799	1.765306
