data_functionalizedCrystal
_audit_creation_method	'MofGen! by Chris Wilmer'
_symmetry_space_group_name_H-M	'P1'
_symmetry_Int_Tables_number	1
_symmetry_cell_setting	triclinic
loop_
_symmetry_equiv_pos_as_xyz
  x,y,z
_cell_length_a	19.288864
_cell_length_b	14.044190
_cell_length_c	18.366186
_cell_angle_alpha	89.990827
_cell_angle_beta	89.980630
_cell_angle_gamma	88.164010
loop_
_atom_site_label
_atom_site_type_symbol
_atom_site_fract_x
_atom_site_fract_y
_atom_site_fract_z
O1	O	0.928947	0.118213	-0.060793
O2	O	0.727711	0.134160	-0.060745
O3	O	0.825306	-0.011786	-0.060754
O4	O	0.831352	0.264158	-0.060784
O5	O	0.825294	-0.011789	0.060345
O6	O	0.727700	0.134156	0.060355
O7	O	0.928935	0.118209	0.060306
Zn8	Zn	0.828316	0.126182	0.079558
Zn9	Zn	0.828331	0.126187	-0.079996
O10	O	0.831341	0.264155	0.060315
C11	C	0.701796	0.133645	-0.000189
C12	C	0.624593	0.132105	-0.000169
C13	C	0.822655	-0.047091	-0.000201
C14	C	0.814765	-0.152283	-0.000193
C15	C	0.585401	0.217739	-0.000190
C16	C	0.512861	0.216292	-0.000198
C17	C	0.479516	0.129205	-0.000200
C18	C	0.518718	0.043560	-0.000175
C19	C	0.591256	0.045010	-0.000160
C20	C	0.366858	0.060747	-0.042643
C21	C	0.294321	0.059301	-0.042663
C22	C	0.255783	0.124731	-0.000243
C23	C	0.289791	0.191623	0.042187
C24	C	0.362330	0.193072	0.042202
C25	C	0.400861	0.127624	-0.000216
C26	C	0.137934	0.208802	-0.000272
C27	C	0.065393	0.207351	-0.000275
C28	C	0.071251	0.034617	-0.000259
C29	C	0.143791	0.036071	-0.000248
C30	C	0.177128	0.123165	-0.000258
C31	C	0.856297	-0.402747	-0.000232
C32	C	0.800352	-0.344879	-0.000213
C33	C	0.808374	-0.237709	-0.000202
C34	C	0.848277	-0.509927	-0.000243
C35	C	0.954851	0.118724	-0.000252
C36	C	1.032053	0.120264	-0.000276
C37	C	0.833991	0.299460	-0.000239
C38	C	0.841881	0.404652	-0.000252
N39	N	0.828310	0.126179	0.188449
N40	N	0.828341	0.126183	-0.188887
C41	C	0.871558	0.061576	0.772995
C42	C	0.871559	0.061578	0.696767
C43	C	0.828331	0.126178	0.658660
C44	C	0.785111	0.190797	0.696787
C45	C	0.785116	0.190800	0.773013
C46	C	0.765851	0.138825	0.537920
C47	C	0.765844	0.138816	0.461695
C48	C	0.828315	0.126176	0.423553
C49	C	0.890793	0.113525	0.461644
C50	C	0.890799	0.113528	0.537871
C51	C	0.828320	0.126183	0.576005
C52	C	0.871536	0.061568	0.302780
C53	C	0.871539	0.061577	0.226551
C54	C	0.785084	0.190791	0.226572
C55	C	0.785088	0.190787	0.302800
C56	C	0.828313	0.126171	0.340899
H57	H	0.480944	0.286027	-0.000213
C58	C	0.727510	-0.386671	-0.000197
H59	H	0.693463	-0.336268	-0.000186
H60	H	0.722061	-0.424778	0.042031
H61	H	0.722064	-0.424743	-0.042435
H62	H	0.910213	-0.371803	-0.000237
C63	C	0.409243	-0.011223	-0.089314
H64	H	0.378602	-0.051255	-0.114595
H65	H	0.438826	-0.048925	-0.058725
H66	H	0.436442	0.022120	-0.123428
C67	C	0.256915	-0.014268	-0.089336
H68	H	0.208195	-0.005752	-0.083279
H69	H	0.270918	-0.076728	-0.074410
H70	H	0.268550	-0.005696	-0.139122
C71	C	0.482042	-0.052232	-0.000181
H72	H	0.433227	-0.040831	-0.000201
H73	H	0.495109	-0.087484	0.042054
H74	H	0.495157	-0.087475	-0.042411
C75	C	0.174608	0.304600	-0.000275
H76	H	0.140874	0.355395	-0.000278
H77	H	0.202803	0.308758	-0.042501
H78	H	0.202763	0.308753	0.041964
C79	C	0.919114	-0.009487	0.814900
H80	H	0.944858	-0.047958	0.781277
H81	H	0.891698	-0.048847	0.844658
H82	H	0.950138	0.024512	0.844613
H83	H	0.623167	-0.024726	-0.000143
H84	H	0.612539	0.288658	-0.000199
C85	C	0.919095	-0.009498	0.654829
H86	H	0.944835	-0.047984	0.688437
H87	H	0.950112	0.024481	0.625071
H88	H	0.891657	-0.048856	0.625114
H89	H	0.714977	0.149122	0.568969
H90	H	0.941671	0.103230	0.568882
C91	C	0.919079	-0.009496	0.184621
H92	H	0.944816	-0.047982	0.218232
H93	H	0.950099	0.024485	0.154867
H94	H	0.891646	-0.048854	0.154902
H95	H	0.941663	0.103240	0.430590
H96	H	0.175702	-0.033662	-0.000236
C97	C	0.919085	-0.009500	0.344692
H98	H	0.944832	-0.047971	0.311070
H99	H	0.891662	-0.048860	0.374443
H100	H	0.950107	0.024491	0.374412
H101	H	0.749893	0.243393	0.333837
C102	C	0.737540	0.261860	0.184663
H103	H	0.743726	0.252606	0.133806
H104	H	0.749006	0.325075	0.197147
H105	H	0.690554	0.251734	0.197173
C106	C	0.697122	0.152732	0.419801
H107	H	0.659919	0.160278	0.453433
H108	H	0.689906	0.098599	0.390076
H109	H	0.699140	0.207922	0.390057
C110	C	0.737560	0.261855	0.654873
H111	H	0.743741	0.252595	0.604015
H112	H	0.749022	0.325074	0.667349
H113	H	0.690576	0.251723	0.667388
C114	C	0.737565	0.261857	0.814945
H115	H	0.711814	0.300328	0.781335
H116	H	0.764984	0.301218	0.844670
H117	H	0.706547	0.227854	0.844691
H118	H	0.390016	0.247535	0.076752
H119	H	0.258415	0.244901	0.076729
H120	H	0.033483	0.277088	-0.000288
H121	H	0.044103	-0.036290	-0.000306
