data_functionalizedCrystal
_audit_creation_method	'MofGen! by Chris Wilmer'
_symmetry_space_group_name_H-M	'P1'
_symmetry_Int_Tables_number	1
_symmetry_cell_setting	triclinic
loop_
_symmetry_equiv_pos_as_xyz
  x,y,z
_cell_length_a	21.395364
_cell_length_b	18.101396
_cell_length_c	21.395341
_cell_angle_alpha	89.900299
_cell_angle_beta	90.067949
_cell_angle_gamma	89.964644
loop_
_atom_site_label
_atom_site_type_symbol
_atom_site_fract_x
_atom_site_fract_y
_atom_site_fract_z
Zn1	Zn	0.958099	0.294330	0.354280
Zn2	Zn	0.957911	0.418336	0.249509
Zn3	Zn	0.853235	0.294509	0.249516
Zn4	Zn	0.853272	0.418130	0.354249
O5	O	0.905629	0.356326	0.301888
O6	O	1.045752	0.310790	0.340392
O7	O	0.943931	0.402071	0.161832
O8	O	0.867209	0.190852	0.263430
O9	O	1.045614	0.401897	0.263417
O10	O	0.944252	0.190721	0.340399
O11	O	0.867026	0.311096	0.161837
O12	O	0.765562	0.310897	0.263399
O13	O	0.867271	0.401547	0.441931
O14	O	0.765589	0.401721	0.340346
O15	O	0.944288	0.310591	0.441954
O16	O	0.943967	0.521942	0.263386
O17	O	0.867089	0.521791	0.340338
C18	C	0.742842	0.356307	0.301870
C19	C	0.673200	0.356316	0.301878
C20	C	0.171435	0.403705	0.341916
C21	C	0.236870	0.403705	0.341909
C22	C	0.269562	0.356343	0.301908
C23	C	0.236813	0.308989	0.261900
C24	C	0.171379	0.308996	0.261903
C25	C	0.373253	0.289611	0.297054
C26	C	0.438686	0.289603	0.297055
C27	C	0.471383	0.356323	0.301895
C28	C	0.438638	0.423053	0.306746
C29	C	0.373204	0.423059	0.306750
C30	C	0.340514	0.356331	0.301900
C31	C	0.575076	0.403677	0.341891
C32	C	0.640513	0.403678	0.341880
C33	C	0.640455	0.308956	0.261873
C34	C	0.575019	0.308961	0.261881
C35	C	0.542334	0.356321	0.301893
C36	C	0.905529	0.548737	0.301872
C37	C	0.905543	0.631051	0.301886
C38	C	0.905654	0.930142	0.301922
C39	C	0.857400	0.898752	0.350458
C40	C	0.857178	0.813135	0.350306
C41	C	0.905599	0.781759	0.301905
C42	C	0.887664	0.813010	0.235871
C43	C	0.887345	0.898654	0.236163
C44	C	0.971952	0.898462	0.318838
C45	C	0.971571	0.812809	0.320285
C46	C	0.905569	0.697900	0.301891
C47	C	0.905683	1.014001	0.301932
C48	C	1.069052	0.356347	0.301907
C49	C	1.138694	0.356355	0.301915
C50	C	0.905725	1.163164	0.301921
C51	C	0.905710	1.080850	0.301941
C52	C	0.905490	0.356572	0.139100
C53	C	0.905537	0.356491	0.069459
C54	C	0.945668	0.308244	-0.432153
C55	C	0.945624	0.308312	-0.366717
C56	C	0.905798	0.356047	-0.334178
C57	C	0.866001	0.403704	-0.367080
C58	C	0.866042	0.403630	-0.432514
C59	C	0.901156	0.422926	-0.230672
C60	C	0.901119	0.423001	-0.165239
C61	C	0.905669	0.356275	-0.132358
C62	C	0.910269	0.289471	-0.164917
C63	C	0.910309	0.289397	-0.230351
C64	C	0.905749	0.356132	-0.263226
C65	C	0.945413	0.308691	-0.028512
C66	C	0.945365	0.308757	0.036925
C67	C	0.865745	0.404156	0.036561
C68	C	0.865790	0.404083	-0.028874
C69	C	0.905627	0.356351	-0.061407
C70	C	0.905805	0.356026	0.465312
C71	C	0.905879	0.355898	0.534954
H72	H	0.548361	0.270401	0.229310
C73	C	0.822190	0.456209	-0.331285
N74	N	0.789187	0.495754	-0.304325
C75	C	0.790786	0.785561	0.335214
N76	N	0.740773	0.764793	0.323862
H77	H	0.977765	0.269947	0.063706
H78	H	0.978024	0.269502	-0.339930
H79	H	0.263435	0.270427	0.229330
H80	H	0.548462	0.442241	0.374470
C81	C	1.020523	0.925897	0.271084
N82	N	1.057102	0.946566	0.235114
H83	H	0.144722	0.270436	0.229329
H84	H	0.144826	0.442272	0.374495
H85	H	0.465258	0.477382	0.310692
H86	H	0.868513	0.919226	0.399580
C87	C	0.872343	0.784577	0.416453
N88	N	0.883764	0.763071	0.466279
H89	H	0.667169	0.442242	0.374451
C90	C	0.821870	0.925760	0.216809
N91	N	0.772552	0.946173	0.202233
H92	H	0.465342	0.235267	0.293111
C93	C	0.821936	0.456665	0.072350
N94	N	0.788937	0.496216	0.099310
H95	H	0.263533	0.442263	0.374485
C96	C	0.337187	0.496462	0.312075
N97	N	0.310060	0.551750	0.316081
C98	C	0.337294	0.216208	0.291729
N99	N	0.310210	0.160923	0.287719
H100	H	0.667072	0.270395	0.229302
H101	H	0.977847	0.269821	-0.055001
C102	C	0.989482	0.255728	-0.467935
N103	N	1.022481	0.216170	-0.494887
H104	H	0.808558	0.920354	0.339395
H105	H	0.920964	0.919429	0.198766
H106	H	0.921706	0.792697	0.198722
C107	C	0.822885	0.784156	0.216168
N108	N	0.774091	0.762425	0.201330
H109	H	0.985094	0.792373	0.368882
H110	H	0.988288	0.919940	0.366169
H111	H	1.009433	0.791447	0.287510
H112	H	0.914053	0.235003	-0.256859
C113	C	0.915273	0.216066	-0.128753
N114	N	0.919042	0.160779	-0.101511
H115	H	0.833393	0.442892	-0.055656
C116	C	0.896060	0.496487	-0.129430
N117	N	0.892247	0.551837	-0.102460
C118	C	0.896162	0.496336	-0.266835
N119	N	0.892406	0.551628	-0.294072
C120	C	0.822270	0.456056	-0.468698
N121	N	0.789302	0.495546	-0.495952
