data_functionalizedCrystal
_audit_creation_method	'MofGen! by Chris Wilmer'
_symmetry_space_group_name_H-M	'P1'
_symmetry_Int_Tables_number	1
_symmetry_cell_setting	triclinic
loop_
_symmetry_equiv_pos_as_xyz
  x,y,z
_cell_length_a	13.339070
_cell_length_b	16.109302
_cell_length_c	15.186229
_cell_angle_alpha	90.007553
_cell_angle_beta	89.997216
_cell_angle_gamma	99.545538
loop_
_atom_site_label
_atom_site_type_symbol
_atom_site_fract_x
_atom_site_fract_y
_atom_site_fract_z
O1	O	0.130019	1.133155	0.073266
O2	O	0.630019	1.633155	0.573266
O3	O	0.146199	0.894830	0.073259
O4	O	0.646199	1.394830	0.573259
O5	O	-0.009146	0.986640	0.073259
O6	O	0.490854	1.486640	0.573259
O7	O	0.285363	1.041345	0.073266
O8	O	0.785363	1.541345	0.573266
O9	O	-0.009137	0.986627	-0.073198
O10	O	0.490863	1.486627	0.426802
O11	O	0.146208	0.894817	-0.073198
O12	O	0.646208	1.394817	0.426802
O13	O	0.130027	1.133142	-0.073191
O14	O	0.630027	1.633142	0.426809
Zn15	Zn	0.138119	1.013977	-0.096448
Zn16	Zn	0.638119	1.513977	0.403552
Zn17	Zn	0.138107	1.013995	0.096516
Zn18	Zn	0.638107	1.513995	0.596516
O19	O	0.285372	1.041332	-0.073191
O20	O	0.785372	1.541332	0.426809
C21	C	0.145548	0.863697	0.000030
C22	C	0.645548	1.363697	0.500030
C23	C	0.143582	0.770948	0.000027
C24	C	0.643582	1.270948	0.500027
C25	C	0.139043	0.557550	-0.079798
C26	C	0.639043	1.057550	0.420202
C27	C	0.137185	0.470401	-0.079795
C28	C	0.637185	0.970401	0.420205
C29	C	0.137181	0.470427	0.079880
C30	C	0.637181	0.970427	0.579880
C31	C	0.139031	0.557574	0.079876
C32	C	0.639031	1.057574	0.579876
C33	C	0.139967	0.601134	0.000034
C34	C	0.639967	1.101134	0.500034
C35	C	0.136259	0.426838	0.000041
C36	C	0.636259	0.926838	0.500041
C37	C	0.134245	0.332348	0.000045
C38	C	0.634245	0.832348	0.500045
C39	C	0.141979	0.695630	0.000030
C40	C	0.641979	1.195630	0.500030
C41	C	-0.046828	0.977393	0.000031
C42	C	0.453172	1.477393	0.500031
C43	C	-0.159121	0.949849	0.000034
C44	C	0.340879	1.449849	0.500034
C45	C	-0.523983	1.164017	0.000040
C46	C	-0.023983	1.664017	0.500040
C47	C	-0.418479	1.189899	0.000033
C48	C	0.081521	1.689899	0.500033
C49	C	-0.353634	1.129889	0.000033
C50	C	0.146366	1.629889	0.500033
C51	C	-0.394304	1.043992	0.000041
C52	C	0.105696	1.543992	0.500041
C53	C	-0.499819	1.018108	0.000042
C54	C	0.000181	1.518108	0.500042
C55	C	-0.329470	0.983980	0.000035
C56	C	0.170530	1.483980	0.500035
C57	C	-0.370139	0.898083	0.000042
C58	C	0.129861	1.398083	0.500042
C59	C	-0.475644	0.872203	0.000044
C60	C	0.024356	1.372203	0.500044
C61	C	-0.540489	0.932214	0.000043
C62	C	-0.040489	1.432214	0.500043
C63	C	-0.223955	1.009864	0.000034
C64	C	0.276045	1.509864	0.500034
C65	C	-0.199790	0.863955	0.000036
C66	C	0.300210	1.363955	0.500036
C67	C	-0.305295	0.838073	0.000043
C68	C	0.194705	1.338073	0.500043
C69	C	0.323054	1.050579	0.000038
C70	C	0.823054	1.550579	0.500038
C71	C	0.435347	1.078123	0.000041
C72	C	0.935347	1.578123	0.500041
C73	C	0.130679	1.164275	0.000040
C74	C	0.630679	1.664275	0.500040
C75	C	0.132644	1.257024	0.000049
C76	C	0.632644	1.757024	0.500049
N77	N	0.138126	1.013972	-0.228141
N78	N	0.638126	1.513972	0.271859
C79	C	0.199481	1.078563	-0.453860
C80	C	0.699481	1.578563	0.046140
C81	C	0.199473	1.078570	-0.546050
C82	C	0.699473	1.578570	-0.046050
C83	C	0.076730	0.949411	-0.546065
C84	C	0.576730	1.449411	-0.046065
C85	C	0.076733	0.949407	-0.453877
C86	C	0.576733	1.449407	0.046123
C87	C	0.138114	1.013983	-0.407777
C88	C	0.638114	1.513983	0.092223
C89	C	0.138104	1.013994	-0.592155
C90	C	0.638104	1.513994	-0.092155
C91	C	0.138096	1.014001	-0.692111
C92	C	0.638096	1.514001	-0.192111
C93	C	0.138121	1.013977	-0.307815
C94	C	0.638121	1.513977	0.192185
N95	N	0.138092	1.014005	0.228209
N96	N	0.638092	1.514005	0.728209
H97	H	-0.190853	1.079801	0.000028
H98	H	0.309147	1.579801	0.500028
O99	O	0.010539	0.879755	-0.595786
O100	O	0.510539	1.379755	-0.095786
H101	H	0.020855	0.890600	-0.667633
H102	H	0.520855	1.390600	-0.167633
H103	H	0.139781	0.593060	0.144890
H104	H	0.639781	1.093060	0.644890
H105	H	-0.626400	0.911145	0.000052
H106	H	-0.126400	1.411145	0.500052
H107	H	-0.508753	0.802261	0.000043
H108	H	-0.008753	1.302261	0.500043
H109	H	-0.267729	1.150967	0.000027
H110	H	0.232271	1.650967	0.500027
H111	H	-0.338423	0.768135	0.000049
H112	H	0.161577	1.268135	0.500049
H113	H	0.139805	0.593014	-0.144811
H114	H	0.639805	1.093014	0.355189
O115	O	0.136198	0.423392	-0.165900
O116	O	0.636198	0.923392	0.334100
H117	H	0.137168	0.468327	-0.221416
H118	H	0.637168	0.968327	0.278584
H119	H	-0.146993	0.815089	0.000032
H120	H	0.353007	1.315089	0.500032
O121	O	0.265673	1.148213	-0.404133
O122	O	0.765673	1.648213	0.095867
H123	H	0.308336	1.193124	-0.451670
H124	H	0.808336	1.693124	0.048330
H125	H	-0.385374	1.259835	0.000025
H126	H	0.114626	1.759835	0.500025
H127	H	0.136420	0.434950	0.144885
H128	H	0.636420	0.934950	0.644885
H129	H	-0.576788	1.212868	0.000032
H130	H	-0.076788	1.712868	0.500032
H131	H	0.026756	0.896817	-0.416355
H132	H	0.526756	1.396817	0.083645
H133	H	0.249443	1.131158	-0.583567
H134	H	0.749443	1.631158	-0.083567
