data_functionalizedCrystal
_audit_creation_method	'MofGen! by Chris Wilmer'
_symmetry_space_group_name_H-M	'P1'
_symmetry_Int_Tables_number	1
_symmetry_cell_setting	triclinic
loop_
_symmetry_equiv_pos_as_xyz
  x,y,z
_cell_length_a	17.639054
_cell_length_b	19.120786
_cell_length_c	17.640968
_cell_angle_alpha	76.872907
_cell_angle_beta	70.330395
_cell_angle_gamma	103.104633
loop_
_atom_site_label
_atom_site_type_symbol
_atom_site_fract_x
_atom_site_fract_y
_atom_site_fract_z
Zn1	Zn	1.360221	0.095061	-0.727099
Zn2	Zn	1.860221	0.595061	-0.227099
Zn3	Zn	1.323177	-0.055448	-0.580174
Zn4	Zn	1.823177	0.444552	-0.080174
Zn5	Zn	1.190829	0.034205	-0.557684
Zn6	Zn	1.690829	0.534205	-0.057684
Zn7	Zn	1.213261	-0.055386	-0.690050
Zn8	Zn	1.713261	0.444614	-0.190050
O9	O	1.271872	0.004608	-0.638752
O10	O	1.771872	0.504608	-0.138752
O11	O	1.472198	0.100538	-0.732526
O12	O	1.972198	0.600538	-0.232526
O13	O	1.280729	-0.069049	-0.460306
O14	O	1.780729	0.430951	0.039694
O15	O	1.219414	0.142760	-0.586250
O16	O	1.719414	0.642760	-0.086250
O17	O	1.444982	-0.010040	-0.624581
O18	O	1.944982	0.489960	-0.124581
O19	O	1.343865	0.187470	-0.710719
O20	O	1.843865	0.687470	-0.210719
O21	O	1.183494	-0.003182	-0.443783
O22	O	1.683494	0.496818	0.056217
O23	O	1.076913	-0.003121	-0.550326
O24	O	1.576913	0.496879	-0.050326
O25	O	1.257647	-0.009935	-0.811850
O26	O	1.757647	0.490065	-0.311850
O27	O	1.093394	-0.068943	-0.647575
O28	O	1.593394	0.431057	-0.147575
O29	O	1.365617	0.100598	-0.839069
O30	O	1.865617	0.600598	-0.339069
O31	O	1.302481	-0.155922	-0.588656
O32	O	1.802481	0.344078	-0.088656
O33	O	1.221727	-0.155876	-0.669382
O34	O	1.721727	0.344124	-0.169382
C35	C	1.054845	-0.042630	-0.592490
C36	C	1.554845	0.457370	-0.092490
C37	C	0.962004	-0.062851	-0.572718
C38	C	1.462004	0.437149	-0.072718
C39	C	0.816965	-0.148867	-0.488576
C40	C	1.316965	0.351133	0.011424
C41	C	0.904205	-0.129858	-0.507161
C42	C	1.404205	0.370142	-0.007161
C43	C	0.932578	-0.014828	-0.619718
C44	C	1.432578	0.485172	-0.119718
C45	C	0.845339	-0.033828	-0.601145
C46	C	1.345339	0.466172	-0.101145
C47	C	0.787538	-0.100848	-0.535572
C48	C	1.287538	0.399152	-0.035572
C49	C	0.815913	0.014191	-0.648142
C50	C	1.315913	0.514191	-0.148142
C51	C	0.728681	-0.004806	-0.629567
C52	C	1.228681	0.495194	-0.129567
C53	C	0.670875	-0.071822	-0.563995
C54	C	1.170875	0.428178	-0.063995
C55	C	0.700306	-0.119845	-0.516997
C56	C	1.200306	0.380155	-0.016997
C57	C	0.873714	0.081213	-0.713710
C58	C	1.373714	0.581213	-0.213710
C59	C	0.844288	0.129232	-0.760707
C60	C	1.344288	0.629232	-0.260707
C61	C	0.757055	0.110233	-0.742136
C62	C	1.257055	0.610233	-0.242136
C63	C	0.699249	0.043217	-0.676565
C64	C	1.199249	0.543217	-0.176565
C65	C	0.727623	0.158255	-0.789134
C66	C	1.227623	0.658255	-0.289134
C67	C	0.640391	0.139258	-0.770559
C68	C	1.140391	0.639258	-0.270559
C69	C	0.612017	0.024220	-0.657990
C70	C	1.112017	0.524220	-0.157990
C71	C	1.260545	-0.181944	-0.627462
C72	C	1.760545	0.318056	-0.127462
C73	C	1.255782	-0.261729	-0.622677
C74	C	1.755782	0.238271	-0.122677
C75	C	1.318309	-0.275873	-0.685268
C76	C	1.818309	0.224127	-0.185268
C77	C	1.313830	-0.350840	-0.680772
C78	C	1.813830	0.149160	-0.180772
C79	C	1.246827	-0.411662	-0.613681
C80	C	1.746827	0.088338	-0.113681
C81	C	1.184294	-0.397514	-0.551087
C82	C	1.684294	0.102486	-0.051087
C83	C	1.188770	-0.322549	-0.555587
C84	C	1.688770	0.177451	-0.055587
C85	C	1.230069	-0.639178	-0.596854
C86	C	1.730069	-0.139178	-0.096854
C87	C	1.225599	-0.714147	-0.592358
C88	C	1.725599	-0.214147	-0.092358
C89	C	1.355135	-0.667467	-0.722044
C90	C	1.855135	-0.167467	-0.222044
C91	C	1.359608	-0.592502	-0.726535
C92	C	1.859608	-0.092502	-0.226535
C93	C	1.297072	-0.578361	-0.663943
C94	C	1.797072	-0.078361	-0.163943
C95	C	1.242249	-0.488291	-0.609083
C96	C	1.742249	0.011709	-0.109083
C97	C	1.301648	-0.501733	-0.668546
C98	C	1.801648	-0.001733	-0.168546
C99	C	1.489746	0.052030	-0.685195
C100	C	1.989746	0.552030	-0.185195
C101	C	1.582590	0.072238	-0.704986
C102	C	2.082590	0.572238	-0.204986
C103	C	1.318267	0.052127	-0.856614
C104	C	1.818267	0.552127	-0.356614
C105	C	1.338037	0.072376	-0.949453
C106	C	1.838037	0.572376	-0.449453
C107	C	1.283269	0.191898	-0.650109
C108	C	1.783269	0.691898	-0.150109
C109	C	1.288126	0.271709	-0.654948
C110	C	1.788126	0.771709	-0.154948
C111	C	1.122020	-0.148766	-1.183939
C112	C	1.622020	0.351234	-0.683939
C113	C	1.140616	-0.129725	-1.271180
C114	C	1.640616	0.370275	-0.771180
C115	C	1.253036	-0.014638	-1.299511
C116	C	1.753036	0.485362	-0.799511
C117	C	1.234447	-0.033667	-1.212270
C118	C	1.734447	0.466333	-0.712270
C119	C	1.168939	-0.100732	-1.154490
C120	C	1.668939	0.399268	-0.654490
C121	C	1.281365	0.014367	-1.182821
C122	C	1.781365	0.514367	-0.682821
C123	C	1.262780	-0.004663	-1.095588
C124	C	1.762780	0.495337	-0.595588
C125	C	1.197277	-0.071726	-1.037804
C126	C	1.697277	0.428274	-0.537804
C127	C	1.150354	-0.119762	-1.067257
C128	C	1.650354	0.380238	-0.567257
C129	C	1.346877	0.081429	-1.240603
C130	C	1.846877	0.581429	-0.740603
C131	C	1.393796	0.129463	-1.211155
C132	C	1.893796	0.629463	-0.711155
C133	C	1.375207	0.110436	-1.123919
C134	C	1.875207	0.610436	-0.623919
C135	C	1.309704	0.043373	-1.066135
C136	C	1.809704	0.543373	-0.566135
C137	C	1.422130	0.158471	-1.094466
C138	C	1.922130	0.658471	-0.594466
C139	C	1.403545	0.139442	-1.007233
C140	C	1.903545	0.639442	-0.507233
C141	C	1.291119	0.024343	-0.978902
C142	C	1.791119	0.524343	-0.478902
C143	C	1.225709	-0.042663	-0.421751
C144	C	1.725709	0.457337	0.078249
C145	C	1.206112	-0.062675	-0.328959
C146	C	1.706112	0.437325	0.171041
H147	H	0.599843	-0.087280	-0.548861
H148	H	1.099843	0.412720	-0.048861
Br149	Br	0.922737	0.220186	-0.849694
Br150	Br	1.422737	0.720186	-0.349694
H151	H	1.362008	0.096920	-1.311634
H152	H	1.862008	0.596920	-0.811634
H153	H	1.447134	0.184066	-1.258211
H154	H	1.947134	0.684066	-0.758211
Br155	Br	1.033106	-0.239778	-1.105514
Br156	Br	1.533106	0.260222	-0.605514
H157	H	1.356199	-0.452210	-0.723173
H158	H	1.856199	0.047790	-0.223173
H159	H	0.564952	-0.030359	-0.604600
H160	H	1.064952	0.469641	-0.104600
H161	H	1.102404	-0.168845	-1.295152
H162	H	1.602404	0.331155	-0.795152
H163	H	0.979651	0.039741	-0.673106
H164	H	1.479651	0.539741	-0.173106
Br165	Br	1.151313	-0.570840	-0.518039
Br166	Br	1.651313	-0.070840	-0.018039
Br167	Br	1.409251	-0.193334	-0.776318
Br168	Br	1.909251	0.306666	-0.276318
H169	H	1.475472	0.213072	-1.141524
H170	H	1.975472	0.713072	-0.641524
Br171	Br	1.093352	-0.480058	-0.460043
Br172	Br	1.593352	0.019942	0.039957
Br173	Br	1.450544	-0.509961	-0.817589
Br174	Br	1.950544	-0.009961	-0.317589
Br175	Br	1.202204	-0.066669	-0.900477
Br176	Br	1.702204	0.433331	-0.400477
Br177	Br	0.621858	-0.210819	-0.428029
Br178	Br	1.121858	0.289181	0.071971
Br179	Br	1.467226	0.204626	-0.967263
Br180	Br	1.967226	0.704626	-0.467263
H181	H	1.179152	-0.627671	-0.545888
H182	H	1.679152	-0.127671	-0.045888
Br183	Br	1.341940	0.076374	-1.377933
Br184	Br	1.841940	0.576374	-0.877933
H185	H	0.928159	-0.168966	-0.468886
H186	H	1.428159	0.331034	0.031114
Br187	Br	0.738517	-0.239840	-0.399607
Br188	Br	1.238517	0.260160	0.100393
Br189	Br	1.061439	-0.210774	-0.988832
Br190	Br	1.561439	0.289226	-0.488832
H191	H	0.774696	0.212827	-0.842518
H192	H	1.274696	0.712827	-0.342518
Br193	Br	1.103906	-0.303354	-0.470642
Br194	Br	1.603906	0.196646	0.029358
H195	H	0.944743	0.096680	-0.728829
H196	H	1.444743	0.596680	-0.228829
H197	H	1.182150	-0.087221	-0.966774
H198	H	1.682150	0.412779	-0.466774
Br199	Br	0.600449	0.204431	-0.834333
Br200	Br	1.100449	0.704431	-0.334333
H201	H	1.364751	-0.362350	-0.731735
H202	H	1.864751	0.137650	-0.231735
H203	H	1.171033	-0.763670	-0.537723
H204	H	1.671033	-0.263670	-0.037723
Br205	Br	1.439998	-0.686663	-0.806986
Br206	Br	1.939998	-0.186663	-0.306986
