data_functionalizedCrystal
_audit_creation_method	'MofGen! by Chris Wilmer'
_symmetry_space_group_name_H-M	'P1'
_symmetry_Int_Tables_number	1
_symmetry_cell_setting	triclinic
loop_
_symmetry_equiv_pos_as_xyz
  x,y,z
_cell_length_a	10.489741
_cell_length_b	13.262390
_cell_length_c	11.804365
_cell_angle_alpha	62.657606
_cell_angle_beta	101.953620
_cell_angle_gamma	84.484178
loop_
_atom_site_label
_atom_site_type_symbol
_atom_site_fract_x
_atom_site_fract_y
_atom_site_fract_z
O1	O	0.018741	1.519427	-0.591145
O2	O	0.064927	1.191439	-0.484917
O3	O	-0.144429	1.362895	-0.540440
O4	O	0.228096	1.347971	-0.535621
O5	O	-0.089365	1.317757	-0.327767
O6	O	0.119991	1.146301	-0.272244
O7	O	0.073804	1.474289	-0.378472
Cu8	Cu	0.101925	1.306174	-0.305939
Cu9	Cu	0.036806	1.359555	-0.557450
O10	O	0.283160	1.302833	-0.322948
C11	C	0.094934	1.126871	-0.364978
C12	C	0.102294	1.001728	-0.324447
C13	C	-0.164328	1.339198	-0.433739
C14	C	-0.305657	1.335826	-0.432649
C15	C	0.002958	0.747400	-0.673928
C16	C	-0.003964	0.864980	-0.712011
C17	C	0.022600	0.899173	-0.615124
C18	C	0.056087	0.815774	-0.480146
C19	C	0.062999	0.698184	-0.442059
C20	C	0.082642	0.849956	-0.383254
C21	C	0.116128	0.766558	-0.248276
C22	C	0.123040	0.648980	-0.210196
C23	C	0.096476	0.614787	-0.307084
C24	C	0.075729	0.967547	-0.421341
C25	C	0.135771	0.918330	-0.189472
C26	C	0.142693	0.800751	-0.151388
C27	C	-0.364056	1.226735	-0.397326
C28	C	-0.433632	1.256014	-0.309158
C29	C	-0.487897	1.300542	-0.518845
C30	C	-0.373349	1.365132	-0.344409
C31	C	-0.427628	1.409665	-0.554186
C32	C	-0.497177	1.439018	-0.466018
C33	C	0.303058	1.326530	-0.429652
C34	C	0.444385	1.329904	-0.430750
C35	C	0.043796	1.538858	-0.498414
C36	C	0.036434	1.664003	-0.538953
N37	N	0.147725	1.268636	-0.129042
N38	N	-0.009004	1.397101	-0.734349
C39	C	-0.119011	1.487241	0.174114
C40	C	-0.153664	1.515636	0.040257
C41	C	-0.078320	1.453888	-0.002075
C42	C	0.031683	1.363741	0.089465
C43	C	0.066346	1.335349	0.223333
C44	C	0.107037	1.301996	0.047144
C45	C	0.217040	1.211849	0.138683
C46	C	0.251696	1.183460	0.272538
C47	C	0.176352	1.245208	0.314870
C48	C	0.072375	1.330388	-0.086724
C49	C	0.257731	1.178496	-0.037506
C50	C	0.292384	1.150101	0.096351
H51	H	0.048467	1.035439	-0.531241
Cl52	Cl	0.013904	1.046989	-0.663003
Cl53	Cl	-0.585848	1.577605	-0.510825
H54	H	0.157400	0.946168	-0.110577
H55	H	-0.031236	0.932876	-0.821911
H56	H	0.341276	1.110066	0.347068
H57	H	-0.018680	0.719548	-0.752800
Cl58	Cl	-0.421490	1.509924	-0.714127
Cl59	Cl	-0.274989	1.088221	-0.352320
H60	H	-0.323658	1.392415	-0.270597
Cl61	Cl	0.105185	0.466966	-0.259212
H62	H	-0.537692	1.273186	-0.592549
Cl63	Cl	0.352459	1.100870	-0.090715
Cl64	Cl	-0.291944	1.628958	-0.074815
H65	H	0.150284	0.581080	-0.100289
Cl66	Cl	-0.065910	1.443711	-0.201784
H67	H	-0.106539	1.477012	-0.111068
Cl68	Cl	0.184787	0.695895	0.018293
H69	H	-0.437568	1.191039	-0.205557
Cl70	Cl	-0.213708	1.564867	0.227332
Cl71	Cl	0.219913	1.209505	0.483156
H72	H	0.381951	1.076701	0.170899
