data_functionalizedCrystal
_audit_creation_method	'MofGen! by Chris Wilmer'
_symmetry_space_group_name_H-M	'P1'
_symmetry_Int_Tables_number	1
_symmetry_cell_setting	triclinic
loop_
_symmetry_equiv_pos_as_xyz
  x,y,z
_cell_length_a	21.395362
_cell_length_b	11.169416
_cell_length_c	21.395356
_cell_angle_alpha	89.979404
_cell_angle_beta	89.964122
_cell_angle_gamma	90.026221
loop_
_atom_site_label
_atom_site_type_symbol
_atom_site_fract_x
_atom_site_fract_y
_atom_site_fract_z
Zn1	Zn	0.957898	-0.477323	-0.354619
Zn2	Zn	1.457898	0.022677	0.145381
Zn3	Zn	0.957853	-0.678027	-0.249855
Zn4	Zn	1.457853	-0.178027	0.250145
Zn5	Zn	0.853128	-0.477413	-0.249820
Zn6	Zn	1.353128	0.022587	0.250180
Zn7	Zn	0.853120	-0.678018	-0.354560
Zn8	Zn	1.353120	-0.178018	0.145440
O9	O	0.905500	-0.577695	-0.302213
O10	O	1.405500	-0.077695	0.197787
O11	O	1.045570	-0.503913	-0.340761
O12	O	1.545570	-0.003913	0.159239
O13	O	0.943945	-0.651457	-0.162172
O14	O	1.443945	-0.151457	0.337828
O15	O	0.867048	-0.309451	-0.263732
O16	O	1.367048	0.190549	0.236268
O17	O	1.045537	-0.651370	-0.263792
O18	O	1.545537	-0.151370	0.236208
O19	O	0.944023	-0.309385	-0.340727
O20	O	1.444023	0.190615	0.159273
O21	O	0.867004	-0.504066	-0.162147
O22	O	1.367004	-0.004066	0.337853
O23	O	0.765449	-0.504057	-0.263675
O24	O	1.265449	-0.004057	0.236325
O25	O	0.867034	-0.651354	-0.442246
O26	O	1.367034	-0.151354	0.057754
O27	O	0.765443	-0.651441	-0.340626
O28	O	1.265443	-0.151441	0.159374
O29	O	0.944015	-0.503904	-0.442289
O30	O	1.444015	-0.003904	0.057711
O31	O	0.943937	-0.845976	-0.263734
O32	O	1.443937	-0.345976	0.236266
O33	O	0.866990	-0.845969	-0.340661
O34	O	1.366990	-0.345969	0.159339
C35	C	0.742712	-0.577759	-0.302141
C36	C	1.242712	-0.077759	0.197859
C37	C	0.673071	-0.577815	-0.302124
C38	C	1.173071	-0.077815	0.197876
C39	C	0.640371	-0.654659	-0.342133
C40	C	1.140371	-0.154659	0.157867
C41	C	0.574935	-0.654630	-0.342161
C42	C	1.074935	-0.154630	0.157839
C43	C	0.542202	-0.577769	-0.302169
C44	C	1.042202	-0.077769	0.197831
C45	C	0.574910	-0.500909	-0.262157
C46	C	1.074910	-0.000909	0.237843
C47	C	0.640344	-0.500932	-0.262135
C48	C	1.140344	-0.000932	0.237865
C49	C	0.438484	-0.568118	-0.245763
C50	C	0.938484	-0.068118	0.254237
C51	C	0.373051	-0.568104	-0.245784
C52	C	0.873051	-0.068104	0.254216
C53	C	0.340382	-0.577690	-0.302238
C54	C	0.840382	-0.077690	0.197762
C55	C	0.373154	-0.587317	-0.358673
C56	C	0.873154	-0.087317	0.141327
C57	C	0.438588	-0.587340	-0.358650
C58	C	0.938588	-0.087340	0.141350
C59	C	0.471250	-0.577734	-0.302189
C60	C	0.971250	-0.077734	0.197811
C61	C	0.236729	-0.654507	-0.342281
C62	C	0.736729	-0.154507	0.157719
C63	C	0.171293	-0.654469	-0.342310
C64	C	0.671293	-0.154469	0.157690
C65	C	0.171269	-0.500755	-0.262300
C66	C	0.671269	-0.000755	0.237700
C67	C	0.236704	-0.500786	-0.262277
C68	C	0.736704	-0.000786	0.237723
C69	C	0.269430	-0.577669	-0.302266
C70	C	0.769430	-0.077669	0.197734
C71	C	0.905475	-0.889520	-0.302209
C72	C	1.405475	-0.389520	0.197791
C73	C	0.905521	-1.022920	-0.302228
C74	C	1.405521	-0.522920	0.197772
C75	C	1.068923	-0.577632	-0.302287
C76	C	1.568923	-0.077632	0.197713
C77	C	1.138564	-0.577606	-0.302318
C78	C	1.638564	-0.077606	0.197682
C79	C	0.905529	-0.577618	-0.465637
C80	C	1.405529	-0.077618	0.034363
C81	C	0.905541	-0.577585	-0.535278
C82	C	1.405541	-0.077585	-0.035278
C83	C	0.905542	-0.264653	-0.302232
C84	C	1.405542	0.235347	0.197768
C85	C	0.905560	-0.131253	-0.302240
C86	C	1.405560	0.368747	0.197760
C87	C	0.945684	-0.500617	-1.037098
C88	C	1.445684	-0.000617	-0.537098
C89	C	0.945679	-0.500646	-0.971662
C90	C	1.445679	-0.000646	-0.471662
C91	C	0.905595	-0.577425	-0.938917
C92	C	1.405595	-0.077425	-0.438917
C93	C	0.865524	-0.654204	-0.971611
C94	C	1.365524	-0.154204	-0.471611
C95	C	0.865535	-0.654181	-1.037046
C96	C	1.365535	-0.154181	-0.537046
C97	C	0.849127	-0.586960	-0.835222
C98	C	1.349127	-0.086960	-0.335222
C99	C	0.849116	-0.586974	-0.769789
C100	C	1.349116	-0.086974	-0.269789
C101	C	0.905563	-0.577502	-0.737096
C102	C	1.405563	-0.077502	-0.237096
C103	C	0.962023	-0.567991	-0.769843
C104	C	1.462023	-0.067991	-0.269843
C105	C	0.962033	-0.567968	-0.835278
C106	C	1.462033	-0.067968	-0.335278
C107	C	0.905579	-0.577459	-0.867964
C108	C	1.405579	-0.077459	-0.367964
C109	C	0.945629	-0.500766	-0.633456
C110	C	1.445629	-0.000766	-0.133456
C111	C	0.945625	-0.500803	-0.568019
C112	C	1.445625	-0.000803	-0.068019
C113	C	0.865464	-0.654355	-0.567970
C114	C	1.365464	-0.154355	-0.067970
C115	C	0.865474	-0.654324	-0.633405
C116	C	1.365474	-0.154324	-0.133405
C117	C	0.905555	-0.577523	-0.666144
C118	C	1.405555	-0.077523	-0.166144
C119	C	0.905507	-0.577685	-0.139426
C120	C	1.405507	-0.077685	0.360574
C121	C	0.905616	-0.577380	-0.069785
C122	C	1.405616	-0.077380	0.430215
H123	H	0.144618	-0.438167	-0.229741
H124	H	0.644618	0.061833	0.270259
H125	H	0.978257	-0.438297	-0.541407
H126	H	1.478257	0.061703	-0.041407
Br127	Br	1.000061	-0.396462	-0.927291
Br128	Br	1.500061	0.103538	-0.427291
Br129	Br	1.038654	-0.555076	-0.879719
Br130	Br	1.538654	-0.055076	-0.379719
H131	H	0.346373	-0.560272	-0.199832
H132	H	0.846373	-0.060272	0.300168
Br133	Br	0.811093	-0.758509	-0.677769
Br134	Br	1.311093	-0.258509	-0.177769
H135	H	0.832905	-0.716693	-1.063659
H136	H	1.332905	-0.216693	-0.563659
Br137	Br	0.281148	-0.758840	-0.396553
Br138	Br	0.781148	-0.258840	0.103447
H139	H	0.465268	-0.595175	-0.404601
H140	H	0.965268	-0.095175	0.095399
H141	H	0.667013	-0.717262	-0.374697
H142	H	1.167013	-0.217262	0.125303
H143	H	0.548306	-0.717206	-0.374744
H144	H	1.048306	-0.217206	0.125256
H145	H	0.144670	-0.717043	-0.374894
H146	H	0.644670	-0.217043	0.125106
Br147	Br	0.281086	-0.396491	-0.207976
Br148	Br	0.781086	0.103509	0.292024
Br149	Br	0.482814	-0.555108	-0.169140
Br150	Br	0.982814	-0.055108	0.330860
Br151	Br	0.684726	-0.396632	-0.207834
Br152	Br	1.184726	0.103368	0.292166
H153	H	0.803143	-0.594718	-0.743131
H154	H	1.303143	-0.094718	-0.243131
H155	H	1.007987	-0.560273	-0.743226
H156	H	1.507987	-0.060273	-0.243226
Br157	Br	0.772513	-0.599801	-0.879585
Br158	Br	1.272513	-0.099801	-0.379585
H159	H	0.346556	-0.595121	-0.404643
H160	H	0.846556	-0.095121	0.095357
Br161	Br	0.530489	-0.396586	-0.207887
Br162	Br	1.030489	0.103414	0.292113
Br163	Br	1.000105	-0.396438	-1.081527
Br164	Br	1.500105	0.103562	-0.581527
Br165	Br	1.000009	-0.396513	-0.677892
Br166	Br	1.500009	0.103487	-0.177892
H167	H	0.832830	-0.716875	-0.541309
H168	H	1.332830	-0.216875	-0.041309
H169	H	0.832888	-0.716720	-0.944945
H170	H	1.332888	-0.216720	-0.444945
