data_functionalizedCrystal
_audit_creation_method	'MofGen! by Chris Wilmer'
_symmetry_space_group_name_H-M	'P1'
_symmetry_Int_Tables_number	1
_symmetry_cell_setting	triclinic
loop_
_symmetry_equiv_pos_as_xyz
  x,y,z
_cell_length_a	21.295418
_cell_length_b	29.839131
_cell_length_c	21.295411
_cell_angle_alpha	89.971982
_cell_angle_beta	89.956262
_cell_angle_gamma	90.051038
loop_
_atom_site_label
_atom_site_type_symbol
_atom_site_fract_x
_atom_site_fract_y
_atom_site_fract_z
Zn1	Zn	0.962335	-0.178715	-0.356206
Zn2	Zn	1.295668	0.154618	-0.022872
Zn3	Zn	1.629002	0.487952	0.310461
Zn4	Zn	0.962229	-0.253830	-0.250919
Zn5	Zn	1.295562	0.079503	0.082414
Zn6	Zn	1.628896	0.412836	0.415747
Zn7	Zn	0.857058	-0.178736	-0.250916
Zn8	Zn	1.190392	0.154597	0.082418
Zn9	Zn	1.523725	0.487931	0.415751
Zn10	Zn	0.857019	-0.253839	-0.356116
Zn11	Zn	1.190352	0.079494	-0.022783
Zn12	Zn	1.523686	0.412827	0.310551
O13	O	0.909660	-0.216280	-0.303539
O14	O	1.242994	0.117053	0.029794
O15	O	1.576327	0.450387	0.363128
O16	O	1.050410	-0.188667	-0.342279
O17	O	1.383744	0.144667	-0.008945
O18	O	1.717077	0.478000	0.324388
O19	O	0.948250	-0.243874	-0.162829
O20	O	1.281583	0.089459	0.170504
O21	O	1.614916	0.422793	0.503837
O22	O	0.871084	-0.115866	-0.264918
O23	O	1.204418	0.217467	0.068415
O24	O	1.537751	0.550801	0.401748
O25	O	1.050332	-0.243854	-0.264925
O26	O	1.383666	0.089480	0.068408
O27	O	1.716999	0.422813	0.401742
O28	O	0.948431	-0.115851	-0.342275
O29	O	1.281764	0.217483	-0.008941
O30	O	1.615098	0.550816	0.324392
O31	O	0.870981	-0.188703	-0.162827
O32	O	1.204315	0.144631	0.170507
O33	O	1.537648	0.477964	0.503840
O34	O	0.768964	-0.188711	-0.264831
O35	O	1.102297	0.144622	0.068502
O36	O	1.435630	0.477956	0.401835
O37	O	0.871017	-0.243869	-0.444217
O38	O	1.204351	0.089465	-0.110884
O39	O	1.537684	0.422798	0.222449
O40	O	0.768935	-0.243889	-0.342122
O41	O	1.102268	0.089444	-0.008788
O42	O	1.435601	0.422777	0.324545
O43	O	0.948393	-0.188675	-0.444283
O44	O	1.281726	0.144658	-0.110950
O45	O	1.615059	0.477991	0.222383
O46	O	0.948212	-0.316699	-0.264838
O47	O	1.281545	0.016635	0.068495
O48	O	1.614878	0.349968	0.401829
O49	O	0.870914	-0.316705	-0.342125
O50	O	1.204248	0.016628	-0.008792
O51	O	1.537581	0.349961	0.324541
C52	C	0.746109	-0.216304	-0.303467
C53	C	1.079442	0.117030	0.029867
C54	C	1.412775	0.450363	0.363200
C55	C	0.676141	-0.216325	-0.303451
C56	C	1.009474	0.117009	0.029883
C57	C	1.342807	0.450342	0.363216
C58	C	0.643275	-0.245094	-0.343635
C59	C	0.976609	0.088239	-0.010302
C60	C	1.309942	0.421573	0.323031
C61	C	0.577533	-0.245083	-0.343664
C62	C	0.910866	0.088250	-0.010330
C63	C	1.244199	0.421584	0.323003
C64	C	0.544658	-0.216307	-0.303496
C65	C	0.877991	0.117026	0.029837
C66	C	1.211325	0.450359	0.363171
C67	C	0.577531	-0.187532	-0.263308
C68	C	0.910865	0.145801	0.070025
C69	C	1.244198	0.479134	0.403358
C70	C	0.643272	-0.187541	-0.263286
C71	C	0.976606	0.145792	0.070048
C72	C	1.309939	0.479126	0.403381
N73	N	0.441382	-0.212791	-0.248439
N74	N	0.774716	0.120542	0.084895
N75	N	1.108049	0.453876	0.418228
N76	N	0.378931	-0.212785	-0.248462
N77	N	0.712264	0.120548	0.084871
N78	N	1.045598	0.453881	0.418205
C79	C	0.346583	-0.216279	-0.303563
C80	C	0.679917	0.117055	0.029771
C81	C	1.013250	0.450388	0.363104
N82	N	0.379046	-0.219787	-0.358640
N83	N	0.712380	0.113547	-0.025307
N84	N	1.045713	0.446880	0.308026
N85	N	0.441504	-0.219795	-0.358616
N86	N	0.774837	0.113539	-0.025283
N87	N	1.108170	0.446872	0.308050
C88	C	0.473373	-0.216294	-0.303516
C89	C	0.806706	0.117039	0.029817
C90	C	1.140039	0.450372	0.363150
C91	C	0.242433	-0.245037	-0.343782
C92	C	0.575766	0.088296	-0.010448
C93	C	0.909099	0.421629	0.322885
C94	C	0.176689	-0.245023	-0.343811
C95	C	0.510022	0.088310	-0.010478
C96	C	0.843356	0.421643	0.322856
C97	C	0.176689	-0.187475	-0.263450
C98	C	0.510022	0.145858	0.069884
C99	C	0.843355	0.479192	0.403217
C100	C	0.242431	-0.187487	-0.263426
C101	C	0.575764	0.145846	0.069907
C102	C	0.909098	0.479180	0.403241
C103	C	0.275299	-0.216271	-0.303591
C104	C	0.608632	0.117063	0.029742
C105	C	0.941966	0.450396	0.363076
C106	C	0.909564	-0.333003	-0.303486
C107	C	1.242898	0.000331	0.029847
C108	C	1.576231	0.333664	0.363181
C109	C	0.909581	-0.382937	-0.303484
C110	C	1.242914	-0.049604	0.029849
C111	C	1.576248	0.283729	0.363182
C112	C	0.949926	-0.692538	-0.343876
C113	C	1.283259	-0.359204	-0.010543
C114	C	1.616593	-0.025871	0.322791
C115	C	0.949994	-0.880211	-0.343914
C116	C	1.283328	-0.546877	-0.010580
C117	C	1.616661	-0.213544	0.322753
O118	O	0.984203	-0.904439	-0.378217
O119	O	1.317536	-0.571106	-0.044883
O120	O	1.650870	-0.237772	0.288450
N121	N	0.909767	-0.903722	-0.303609
N122	N	1.243101	-0.570389	0.029724
N123	N	1.576434	-0.237056	0.363058
C124	C	0.869517	-0.880313	-0.263295
C125	C	1.202851	-0.546979	0.070038
C126	C	1.536184	-0.213646	0.403372
O127	O	0.835299	-0.904617	-0.229019
O128	O	1.168632	-0.571284	0.104315
O129	O	1.501966	-0.237950	0.437648
C130	C	0.869446	-0.692640	-0.263261
C131	C	1.202780	-0.359307	0.070073
C132	C	1.536113	-0.025974	0.403406
C133	C	0.909680	-0.669131	-0.303564
C134	C	1.243014	-0.335798	0.029770
C135	C	1.576347	-0.002465	0.363103
C136	C	0.990156	-0.669028	-0.384176
C137	C	1.323489	-0.335695	-0.050843
C138	C	1.656823	-0.002362	0.282491
C139	C	0.990141	-0.622113	-0.384164
C140	C	1.323474	-0.288780	-0.050830
C141	C	1.656808	0.044554	0.282503
C142	C	0.949896	-0.598707	-0.343851
C143	C	1.283229	-0.265373	-0.010518
C144	C	1.616562	0.067960	0.322815
C145	C	0.909665	-0.622216	-0.303551
C146	C	1.242999	-0.288883	0.029782
C147	C	1.576332	0.044451	0.363115
C148	C	0.829194	-0.669232	-0.222950
C149	C	1.162527	-0.335898	0.110383
C150	C	1.495861	-0.002565	0.443717
C151	C	0.829179	-0.622311	-0.222946
C152	C	1.162512	-0.288977	0.110387
C153	C	1.495845	0.044356	0.443720
C154	C	0.869413	-0.598802	-0.263249
C155	C	1.202746	-0.265468	0.070084
C156	C	1.536079	0.067865	0.403417
C157	C	0.869405	-0.551894	-0.263227
C158	C	1.202738	-0.218561	0.070107
C159	C	1.536072	0.114773	0.403440
N160	N	0.909632	-0.528383	-0.303531
N161	N	1.242965	-0.195049	0.029802
N162	N	1.576299	0.138284	0.363135
C163	C	0.949877	-0.551789	-0.343844
C164	C	1.283211	-0.218456	-0.010510
C165	C	1.616544	0.114878	0.322823
C166	C	0.869558	-0.978843	-0.263315
C167	C	1.202892	-0.645510	0.070019
C168	C	1.536225	-0.312177	0.403352
C169	C	0.869577	-1.025761	-0.263322
C170	C	1.202910	-0.692428	0.070011
C171	C	1.536244	-0.359094	0.403344
C172	C	0.950053	-1.025656	-0.343942
C173	C	1.283386	-0.692322	-0.010609
C174	C	1.616720	-0.358989	0.322724
C175	C	0.950037	-0.978737	-0.343931
C176	C	1.283371	-0.645404	-0.010598
C177	C	1.616704	-0.312070	0.322736
C178	C	0.909785	-0.955332	-0.303620
C179	C	1.243119	-0.621998	0.029714
C180	C	1.576452	-0.288665	0.363047
C181	C	0.949843	-0.453263	-0.343814
C182	C	1.283176	-0.119930	-0.010481
C183	C	1.616510	0.213404	0.322852
C184	C	0.949826	-0.406343	-0.343797
C185	C	1.283160	-0.073010	-0.010463
C186	C	1.616493	0.260323	0.322870
C187	C	0.869348	-0.406453	-0.263180
C188	C	1.202681	-0.073119	0.070154
C189	C	1.536015	0.260214	0.403487
C190	C	0.869367	-0.453368	-0.263195
C191	C	1.202700	-0.120035	0.070139
C192	C	1.536034	0.213298	0.403472
C193	C	0.909616	-0.476772	-0.303517
C194	C	1.242950	-0.143439	0.029816
C195	C	1.576283	0.189894	0.363149
O196	O	0.835209	-0.527637	-0.228947
O197	O	1.168543	-0.194304	0.104387
O198	O	1.501876	0.139030	0.437720
O199	O	0.984081	-0.527476	-0.378125
O200	O	1.317414	-0.194143	-0.044791
O201	O	1.650747	0.139190	0.288542
C202	C	0.949941	-0.739453	-0.343888
C203	C	1.283274	-0.406120	-0.010555
C204	C	1.616608	-0.072786	0.322778
C205	C	0.909711	-0.762962	-0.303588
C206	C	1.243044	-0.429629	0.029745
C207	C	1.576377	-0.096296	0.363079
C208	C	0.869465	-0.739556	-0.263276
C209	C	1.202799	-0.406223	0.070058
C210	C	1.536132	-0.072889	0.403391
C211	C	0.909729	-0.809880	-0.303596
C212	C	1.243062	-0.476547	0.029738
C213	C	1.576396	-0.143213	0.363071
C214	C	0.949974	-0.833286	-0.343908
C215	C	1.283308	-0.499953	-0.010575
C216	C	1.616641	-0.166620	0.322759
C217	C	0.990201	-0.809775	-0.384213
C218	C	1.323535	-0.476441	-0.050880
C219	C	1.656868	-0.143108	0.282454
C220	C	0.990186	-0.762859	-0.384201
C221	C	1.323520	-0.429526	-0.050867
C222	C	1.656853	-0.096193	0.282466
C223	C	0.829238	-0.763068	-0.222971
C224	C	1.162572	-0.429734	0.110362
C225	C	1.495905	-0.096401	0.443696
C226	C	0.829257	-0.809983	-0.222986
C227	C	1.162591	-0.476650	0.110347
C228	C	1.495924	-0.143316	0.443681
C229	C	0.869503	-0.833389	-0.263298
C230	C	1.202836	-0.500056	0.070035
C231	C	1.536169	-0.166723	0.403368
C232	C	1.073851	-0.216257	-0.303612
C233	C	1.407184	0.117077	0.029721
C234	C	1.740517	0.450410	0.363054
C235	C	1.143819	-0.216247	-0.303643
C236	C	1.477152	0.117087	0.029690
C237	C	1.810485	0.450420	0.363023
C238	C	0.909713	-0.216271	-0.467729
C239	C	1.243046	0.117063	-0.134396
C240	C	1.576379	0.450396	0.198937
C241	C	0.909735	-0.216267	-0.537698
C242	C	1.243068	0.117067	-0.204364
C243	C	1.576402	0.450400	0.128969
C244	C	0.909774	-0.099102	-0.303606
C245	C	1.243107	0.234232	0.029727
C246	C	1.576441	0.567565	0.363060
C247	C	0.909822	-0.049167	-0.303635
C248	C	1.243156	0.284166	0.029699
C249	C	1.576489	0.617499	0.363032
C250	C	0.950022	-0.187526	-0.570600
C251	C	1.283356	0.145807	-0.237266
C252	C	1.616689	0.479141	0.096067
C253	C	0.950022	-0.187507	-0.636342
C254	C	1.283355	0.145827	-0.303009
C255	C	1.616688	0.479160	0.030324
C256	C	0.909740	-0.216236	-0.669180
C257	C	1.243073	0.117098	-0.335847
C258	C	1.576406	0.450431	-0.002514
C259	C	0.869444	-0.244978	-0.636270
C260	C	1.202778	0.088355	-0.302937
C261	C	1.536111	0.421688	0.030396
C262	C	0.869442	-0.244994	-0.570529
C263	C	1.202775	0.088340	-0.237196
C264	C	1.536109	0.421673	0.096138
N265	N	0.904879	-0.255537	-0.772388
N266	N	1.238212	0.077796	-0.439054
N267	N	1.571545	0.411130	-0.105721
N268	N	0.904885	-0.255521	-0.834839
N269	N	1.238218	0.077812	-0.501506
N270	N	1.571551	0.411146	-0.168173
C271	C	0.909744	-0.216190	-0.867255
C272	C	1.243077	0.117143	-0.533922
C273	C	1.576410	0.450477	-0.200588
N274	N	0.914609	-0.176875	-0.834860
N275	N	1.247942	0.156458	-0.501527
N276	N	1.581276	0.489792	-0.168193
N277	N	0.914606	-0.176891	-0.772403
N278	N	1.247940	0.156442	-0.439069
N279	N	1.581273	0.489775	-0.105736
C280	C	0.909738	-0.216222	-0.740466
C281	C	1.243071	0.117111	-0.407132
C282	C	1.576404	0.450445	-0.073799
C283	C	0.950033	-0.187426	-0.971443
C284	C	1.283366	0.145907	-0.638109
C285	C	1.616699	0.479241	-0.304776
C286	C	0.950027	-0.187406	-1.037186
C287	C	1.283361	0.145928	-0.703853
C288	C	1.616694	0.479261	-0.370520
C289	C	0.869453	-0.244882	-1.037113
C290	C	1.202787	0.088452	-0.703780
C291	C	1.536120	0.421785	-0.370447
C292	C	0.869455	-0.244898	-0.971371
C293	C	1.202789	0.088436	-0.638037
C294	C	1.536122	0.421769	-0.304704
C295	C	0.909748	-0.216171	-0.938539
C296	C	1.243082	0.117163	-0.605206
C297	C	1.576415	0.450496	-0.271873
C298	C	0.909645	-0.216257	-0.139988
C299	C	1.242978	0.117076	0.193346
C300	C	1.576311	0.450409	0.526679
C301	C	0.909744	-0.216135	-0.070020
C302	C	1.243078	0.117199	0.263313
C303	C	1.576411	0.450532	0.596647
H304	H	0.982592	-0.387204	-0.376616
H305	H	1.315925	-0.053870	-0.043283
H306	H	1.649258	0.279463	0.290051
C307	C	0.994349	-0.155822	-0.935326
C308	C	1.327683	0.177511	-0.601993
C309	C	1.661016	0.510845	-0.268659
N310	N	1.027729	-0.132017	-0.908125
N311	N	1.361062	0.201317	-0.574791
N312	N	1.694395	0.534650	-0.241458
H313	H	0.982833	-0.163999	-1.063974
H314	H	1.316167	0.169334	-0.730641
H315	H	1.649500	0.502668	-0.397308
H316	H	0.670031	-0.164112	-0.230562
H317	H	1.003364	0.169221	0.102771
H318	H	1.336698	0.502554	0.436105
C319	C	0.825131	-0.276578	-0.672393
C320	C	1.158465	0.056755	-0.339060
C321	C	1.491798	0.390088	-0.005727
N322	N	0.791751	-0.300379	-0.699601
N323	N	1.125084	0.032954	-0.366268
N324	N	1.458418	0.366288	-0.032935
H325	H	0.836821	-1.044898	-0.230497
H326	H	1.170154	-0.711565	0.102836
H327	H	1.503488	-0.378232	0.436170
C328	C	1.034471	-0.835531	-0.428558
C329	C	1.367804	-0.502197	-0.095224
C330	C	1.701137	-0.168864	0.238109
N331	N	1.067809	-0.854932	-0.461959
N332	N	1.401143	-0.521599	-0.128625
N333	N	1.734476	-0.188266	0.204708
C334	C	0.994338	-0.155919	-0.534489
C335	C	1.327671	0.177414	-0.201156
C336	C	1.661004	0.510747	0.132178
N337	N	1.027714	-0.132111	-0.507289
N338	N	1.361047	0.201223	-0.173956
N339	N	1.694380	0.534556	0.159377
H340	H	0.149923	-0.164043	-0.230747
H341	H	0.483256	0.169290	0.102586
H342	H	0.816589	0.502623	0.435919
H343	H	0.836649	-0.268269	-1.063849
H344	H	1.169982	0.065065	-0.730516
H345	H	1.503315	0.398398	-0.397183
C346	C	0.784993	-0.835838	-0.178647
C347	C	1.118326	-0.502504	0.154687
C348	C	1.451660	-0.169171	0.488020
N349	N	0.751650	-0.855310	-0.145256
N350	N	1.084983	-0.521977	0.188078
N351	N	1.418316	-0.188643	0.521411
C352	C	0.994347	-0.155891	-0.672542
C353	C	1.327680	0.177442	-0.339208
C354	C	1.661013	0.510776	-0.005875
N355	N	1.027734	-0.132079	-0.699805
N356	N	1.361067	0.201254	-0.366472
N357	N	1.694401	0.534587	-0.033139
H358	H	0.550769	-0.268510	-0.376389
H359	H	0.884102	0.064823	-0.043056
H360	H	1.217435	0.398157	0.290277
C361	C	0.278590	-0.276695	-0.387971
C362	C	0.611923	0.056639	-0.054637
C363	C	0.945256	0.389972	0.278696
N364	N	0.305822	-0.300538	-0.421256
N365	N	0.639155	0.032795	-0.087922
N366	N	0.972488	0.366129	0.245411
C367	C	0.825138	-0.276517	-0.935177
C368	C	1.158471	0.056816	-0.601844
C369	C	1.491805	0.390150	-0.268510
N370	N	0.791754	-0.300333	-0.907916
N371	N	1.125088	0.033000	-0.574583
N372	N	1.458421	0.366334	-0.241250
H373	H	0.269190	-0.164062	-0.230700
H374	H	0.602524	0.169271	0.102633
H375	H	0.935857	0.502605	0.435967
H376	H	1.022901	-0.602975	-0.416984
H377	H	1.356235	-0.269641	-0.083650
H378	H	1.689568	0.063692	0.249683
C379	C	0.679426	-0.276755	-0.387820
C380	C	1.012760	0.056578	-0.054487
C381	C	1.346093	0.389911	0.278846
N382	N	0.706656	-0.300603	-0.421101
N383	N	1.039990	0.032731	-0.087768
N384	N	1.373323	0.366064	0.245565
H385	H	0.836632	-0.268397	-0.543740
H386	H	1.169965	0.064936	-0.210407
H387	H	1.503299	0.398269	0.122926
C388	C	0.994124	-0.479001	-0.388167
C389	C	1.327457	-0.145667	-0.054834
C390	C	1.660790	0.187666	0.278499
N391	N	1.027480	-0.498386	-0.421570
N392	N	1.360813	-0.165052	-0.088237
N393	N	1.694147	0.168281	0.245097
C394	C	0.541368	-0.155879	-0.219123
C395	C	0.874701	0.177454	0.114210
C396	C	1.208034	0.510788	0.447543
N397	N	0.514129	-0.132036	-0.185844
N398	N	0.847463	0.201297	0.147490
N399	N	1.180796	0.534631	0.480823
C400	C	0.140537	-0.276677	-0.388015
C401	C	0.473871	0.056656	-0.054681
C402	C	0.807204	0.389989	0.278652
N403	N	0.113308	-0.300522	-0.421307
N404	N	0.446641	0.032811	-0.087973
N405	N	0.779974	0.366145	0.245360
H406	H	1.022929	-0.688081	-0.417007
H407	H	1.356262	-0.354747	-0.083674
H408	H	1.689595	-0.021414	0.249660
H409	H	0.982823	-1.044721	-0.376766
H410	H	1.316156	-0.711388	-0.043432
H411	H	1.649490	-0.378054	0.289901
C412	C	0.994295	-0.952881	-0.388269
C413	C	1.327628	-0.619548	-0.054936
C414	C	1.660961	-0.286215	0.278397
N415	N	1.027631	-0.933409	-0.421668
N416	N	1.360964	-0.600076	-0.088335
N417	N	1.694297	-0.266743	0.244998
H418	H	0.796431	-0.688365	-0.190131
H419	H	1.129765	-0.355032	0.143202
H420	H	1.463098	-0.021698	0.476536
C421	C	0.825269	-0.953103	-0.218972
C422	C	1.158602	-0.619770	0.114361
C423	C	1.491936	-0.286436	0.447694
N424	N	0.791908	-0.933718	-0.185574
N425	N	1.125242	-0.600384	0.147759
N426	N	1.458575	-0.267051	0.481092
H427	H	0.796399	-0.603256	-0.190120
H428	H	1.129732	-0.269923	0.143213
H429	H	1.463065	0.063410	0.476546
H430	H	0.836610	-0.472510	-0.230372
H431	H	1.169943	-0.139177	0.102962
H432	H	1.503277	0.194156	0.436295
H433	H	0.836583	-0.387388	-0.230356
H434	H	1.169916	-0.054055	0.102978
H435	H	1.503249	0.279279	0.436311
H436	H	1.022948	-0.743722	-0.417019
H437	H	1.356282	-0.410388	-0.083686
H438	H	1.689615	-0.077055	0.249648
H439	H	0.796465	-0.744014	-0.190145
H440	H	1.129798	-0.410680	0.143189
H441	H	1.463132	-0.077347	0.476522
