data_functionalizedCrystal
_audit_creation_method	'MofGen! by Chris Wilmer'
_symmetry_space_group_name_H-M	'P1'
_symmetry_Int_Tables_number	1
_symmetry_cell_setting	triclinic
loop_
_symmetry_equiv_pos_as_xyz
  x,y,z
_cell_length_a	12.827893
_cell_length_b	25.639239
_cell_length_c	12.827885
_cell_angle_alpha	89.964018
_cell_angle_beta	89.980728
_cell_angle_gamma	90.038657
loop_
_atom_site_label
_atom_site_type_symbol
_atom_site_fract_x
_atom_site_fract_y
_atom_site_fract_z
Zn1	Zn	1.597500	-0.208126	-0.590804
Zn2	Zn	2.097500	0.291874	-0.090804
Zn3	Zn	1.597324	-0.295571	-0.416045
Zn4	Zn	2.097324	0.204429	0.083955
Zn5	Zn	1.422742	-0.208151	-0.416077
Zn6	Zn	1.922742	0.291849	0.083923
Zn7	Zn	1.422656	-0.295532	-0.590745
Zn8	Zn	1.922656	0.204468	-0.090745
O9	O	1.510055	-0.251845	-0.503418
O10	O	2.010055	0.248155	-0.003418
O11	O	1.743713	-0.219731	-0.567633
O12	O	2.243713	0.280269	-0.067633
O13	O	1.574127	-0.284002	-0.269813
O14	O	2.074127	0.215998	0.230187
O15	O	1.446034	-0.134983	-0.439293
O16	O	1.946034	0.365017	0.060707
O17	O	1.743583	-0.283977	-0.439238
O18	O	2.243583	0.216023	0.060762
O19	O	1.574428	-0.134964	-0.567664
O20	O	2.074428	0.365036	-0.067664
O21	O	1.445862	-0.219775	-0.269837
O22	O	1.945862	0.280225	0.230163
O23	O	1.276494	-0.219737	-0.439236
O24	O	1.776494	0.280263	0.060764
O25	O	1.445888	-0.283911	-0.736989
O26	O	1.945888	0.216089	-0.236989
O27	O	1.276431	-0.283935	-0.567564
O28	O	1.776431	0.216065	-0.067564
O29	O	1.574345	-0.219694	-0.737032
O30	O	2.074345	0.280306	-0.237032
O31	O	1.574044	-0.368731	-0.439181
O32	O	2.074044	0.131269	0.060819
O33	O	1.445716	-0.368702	-0.567533
O34	O	1.945716	0.131298	-0.067533
C35	C	1.238546	-0.251835	-0.503398
C36	C	1.738546	0.248165	-0.003398
C37	C	1.122392	-0.251843	-0.503414
C38	C	1.622392	0.248157	-0.003414
C39	C	1.070604	-0.283660	-0.566817
C40	C	1.570604	0.216340	-0.066817
C41	C	0.950554	-0.283670	-0.566835
C42	C	1.450554	0.216330	-0.066835
C43	C	1.509880	-0.387688	-0.503370
C44	C	2.009880	0.112312	-0.003370
C45	C	1.509900	-0.445802	-0.503384
C46	C	2.009900	0.054198	-0.003384
C47	C	1.577050	-0.806167	-0.436699
C48	C	2.077050	-0.306167	0.063301
C49	C	1.577090	-0.860771	-0.436713
C50	C	2.077090	-0.360771	0.063287
O51	O	1.634001	-0.889010	-0.379962
O52	O	2.134001	-0.389010	0.120038
N53	N	1.510239	-0.888084	-0.503487
N54	N	2.010239	-0.388084	-0.003487
C55	C	1.443350	-0.860790	-0.570259
C56	C	1.943350	-0.360790	-0.070259
O57	O	1.386493	-0.889035	-0.627057
O58	O	1.886493	-0.389035	-0.127057
C59	C	1.443316	-0.806186	-0.570249
C60	C	1.943316	-0.306186	-0.070249
C61	C	1.510164	-0.778876	-0.503463
C62	C	2.010164	-0.278876	-0.003463
C63	C	1.643893	-0.778857	-0.369920
C64	C	2.143893	-0.278857	0.130080
C65	C	1.643851	-0.724256	-0.369904
C66	C	2.143851	-0.224256	0.130096
C67	C	1.576966	-0.696966	-0.436669
C68	C	2.076966	-0.196966	0.063331
C69	C	1.510122	-0.724276	-0.503448
C70	C	2.010122	-0.224276	-0.003448
C71	C	1.376433	-0.778893	-0.637026
C72	C	1.876433	-0.278893	-0.137026
C73	C	1.376405	-0.724286	-0.637011
C74	C	1.876405	-0.224286	-0.137011
C75	C	1.443253	-0.696976	-0.570225
C76	C	1.943253	-0.196976	-0.070225
C77	C	1.443194	-0.642385	-0.570198
C78	C	1.943194	-0.142385	-0.070198
N79	N	1.510045	-0.615072	-0.503424
N80	N	2.010045	-0.115072	-0.003424
C81	C	1.576931	-0.642363	-0.436659
C82	C	2.076931	-0.142363	0.063341
C83	C	1.443429	-0.975460	-0.570275
C84	C	1.943429	-0.475460	-0.070275
C85	C	1.443458	-1.030063	-0.570280
C86	C	1.943458	-0.530063	-0.070280
C87	C	1.577199	-1.030040	-0.436735
C88	C	2.077199	-0.530040	0.063265
C89	C	1.577165	-0.975437	-0.436726
C90	C	2.077165	-0.475437	0.063274
C91	C	1.510281	-0.948148	-0.503501
C92	C	2.010281	-0.448148	-0.003501
C93	C	1.576837	-0.527698	-0.436632
C94	C	2.076837	-0.027698	0.063368
C95	C	1.576786	-0.473092	-0.436620
C96	C	2.076786	0.026908	0.063380
C97	C	1.443049	-0.473119	-0.570168
C98	C	1.943049	0.026881	-0.070168
C99	C	1.443095	-0.527720	-0.570177
C100	C	1.943095	-0.027720	-0.070177
C101	C	1.509998	-0.555008	-0.503405
C102	C	2.009998	-0.055008	-0.003405
O103	O	1.386315	-0.614112	-0.626923
O104	O	1.886315	-0.114112	-0.126923
O105	O	1.633789	-0.614110	-0.379880
O106	O	2.133789	-0.114110	0.120120
C107	C	1.782626	-0.251856	-0.503438
C108	C	2.282626	0.248144	-0.003438
C109	C	1.898779	-0.251860	-0.503447
C110	C	2.398779	0.248140	-0.003447
C111	C	1.510127	-0.251795	-0.775988
C112	C	2.010127	0.248205	-0.275988
C113	C	1.510157	-0.251773	-0.892141
C114	C	2.010157	0.248227	-0.392141
C115	C	1.510260	-0.115472	-0.503489
C116	C	2.010260	0.384528	-0.003489
C117	C	1.510348	-0.057358	-0.503519
C118	C	2.010348	0.442642	-0.003519
C119	C	1.573729	-0.219991	-0.943947
C120	C	2.073729	0.280009	-0.443947
C121	C	1.573761	-0.219968	-1.063998
C122	C	2.073761	0.280032	-0.563998
C123	C	1.510045	-0.251857	-0.231908
C124	C	2.010045	0.248143	0.268092
C125	C	1.510217	-0.251731	-0.115755
C126	C	2.010217	0.248269	0.384245
H127	H	1.631221	-0.450858	-0.382231
H128	H	2.131221	0.049142	0.117769
H129	H	1.455748	-0.278964	-0.936665
H130	H	1.955748	0.221036	-0.436665
Br131	Br	1.352716	-1.067119	-0.660906
Br132	Br	1.852716	-0.567119	-0.160906
Br133	Br	1.144827	-0.329054	-0.657270
Br134	Br	1.644827	0.170946	-0.157270
H135	H	1.631318	-0.549909	-0.382263
H136	H	2.131318	-0.049909	0.117737
Br137	Br	0.972995	-0.206459	-0.412957
Br138	Br	1.472995	0.293541	0.087043
Br139	Br	0.876330	-0.329078	-0.657305
Br140	Br	1.376330	0.170922	-0.157305
Br141	Br	1.734594	-0.687201	-0.279277
Br142	Br	2.234594	-0.187201	0.220723
Br143	Br	1.664376	-0.174648	-0.869749
Br144	Br	2.164376	0.325352	-0.369749
H145	H	1.628191	-0.192759	-1.108550
H146	H	2.128191	0.307241	-0.608550
H147	H	1.077854	-0.224608	-0.449151
H148	H	1.577854	0.275392	0.050849
H149	H	1.698366	-0.801071	-0.315552
H150	H	2.198366	-0.301071	0.184448
Br151	Br	1.667889	-0.938379	-0.346084
Br152	Br	2.167889	-0.438379	0.153916
H153	H	1.631665	-1.052270	-0.382375
H154	H	2.131665	-0.552270	0.117625
Br155	Br	1.352642	-0.938430	-0.660901
Br156	Br	1.852642	-0.438430	-0.160901
Br157	Br	1.285716	-0.815943	-0.727681
Br158	Br	1.785716	-0.315943	-0.227681
H159	H	1.321941	-0.702069	-0.691391
H160	H	1.821941	-0.202069	-0.191391
Br161	Br	1.352347	-0.564785	-0.660790
Br162	Br	1.852347	-0.064785	-0.160790
Br163	Br	1.352284	-0.436072	-0.660777
Br164	Br	1.852284	0.063928	-0.160777
Br165	Br	1.419503	-0.297093	-1.041513
Br166	Br	1.919503	0.202907	-0.541513
