data_functionalizedCrystal
_audit_creation_method	'MofGen! by Chris Wilmer'
_symmetry_space_group_name_H-M	'P1'
_symmetry_Int_Tables_number	1
_symmetry_cell_setting	triclinic
loop_
_symmetry_equiv_pos_as_xyz
  x,y,z
_cell_length_a	14.853566
_cell_length_b	19.188924
_cell_length_c	17.666332
_cell_angle_alpha	90.007291
_cell_angle_beta	90.006406
_cell_angle_gamma	83.388189
loop_
_atom_site_label
_atom_site_type_symbol
_atom_site_fract_x
_atom_site_fract_y
_atom_site_fract_z
O1	O	1.195862	0.091152	0.062902
O2	O	0.933342	0.102011	0.062915
O3	O	1.072181	-0.005049	0.062899
O4	O	1.057023	0.198212	0.062918
O5	O	1.072156	-0.005052	-0.062998
O6	O	0.933317	0.102008	-0.062982
O7	O	1.195838	0.091148	-0.062995
Cu8	Cu	1.064575	0.096578	-0.074484
Cu9	Cu	1.064604	0.096582	0.074404
O10	O	1.056998	0.198209	-0.062979
C11	C	0.899743	0.101518	-0.000032
C12	C	0.799668	0.100044	-0.000027
C13	C	0.376531	0.093811	0.068585
C14	C	0.376526	0.093808	-0.068672
C15	C	0.470552	0.095192	-0.068670
C16	C	0.517572	0.095887	-0.000039
C17	C	0.470566	0.095197	0.068590
C18	C	0.517564	0.095889	-0.137297
C19	C	0.611596	0.097274	-0.137298
C20	C	0.658619	0.097963	-0.068666
C21	C	0.611607	0.097273	-0.000034
C22	C	0.658627	0.097968	0.068597
C23	C	0.611617	0.097272	0.137229
C24	C	0.517588	0.095887	0.137221
C25	C	0.752648	0.099349	-0.068658
C26	C	0.752662	0.099354	0.068601
C27	C	1.071679	-0.031064	-0.000050
C28	C	1.070208	-0.108573	-0.000052
C29	C	1.069535	-0.144973	0.068575
C30	C	1.068141	-0.217800	0.068580
C31	C	1.067438	-0.254227	-0.000044
C32	C	1.068106	-0.217818	-0.068680
C33	C	1.069491	-0.144991	-0.068684
N34	N	1.116556	-0.373728	-0.051122
N35	N	1.115242	-0.442911	-0.051114
C36	C	1.063262	-0.473650	-0.000037
N37	N	1.012657	-0.432595	0.051043
N38	N	1.013975	-0.363406	0.051037
C39	C	1.065935	-0.333195	-0.000048
C40	C	1.061076	-0.589017	0.068601
C41	C	1.059675	-0.661845	0.068604
C42	C	1.059649	-0.661863	-0.068658
C43	C	1.061040	-0.589035	-0.068659
C44	C	1.061758	-0.552617	-0.000028
C45	C	1.229436	0.091642	-0.000046
C46	C	1.329511	0.093116	-0.000046
C47	C	1.057500	0.224223	-0.000028
C48	C	1.058971	0.301733	-0.000021
N49	N	1.064561	0.096575	-0.179203
C50	C	1.119061	0.139002	-0.218805
C51	C	1.119076	0.139000	-0.298053
C52	C	1.064574	0.096579	-0.337695
C53	C	1.010070	0.054143	-0.298084
C54	C	1.010064	0.054141	-0.218838
N55	N	0.985617	0.094596	-0.462131
N56	N	0.985626	0.094602	-0.537412
C57	C	1.064590	0.096581	-0.576459
N58	N	1.143547	0.098569	-0.537383
N59	N	1.143537	0.098566	-0.462095
C60	C	1.064574	0.096576	-0.423624
C61	C	1.119110	0.139009	-0.701991
C62	C	1.119126	0.139002	-0.781240
C63	C	1.010113	0.054149	-0.781269
C64	C	1.010105	0.054152	-0.702022
C65	C	1.064602	0.096586	-0.662387
N66	N	1.064625	0.096579	0.179123
H67	H	0.790918	0.099922	-0.124538
H68	H	0.338236	0.093247	-0.124549
H69	H	1.059070	-0.691520	-0.124534
H70	H	1.067587	-0.247442	0.124466
H71	H	1.070117	-0.115325	0.124460
H72	H	0.479273	0.095328	-0.193173
H73	H	0.965721	0.019606	-0.669777
H74	H	1.163486	0.173560	-0.669719
H75	H	1.070035	-0.115355	-0.124569
H76	H	0.790939	0.099918	0.124490
H77	H	0.965737	0.019608	-0.813545
H78	H	0.649912	0.097843	0.193108
H79	H	1.059123	-0.691480	0.124490
H80	H	1.067530	-0.247481	-0.124554
H81	H	0.649864	0.097838	-0.193182
H82	H	1.061654	-0.559363	0.124485
H83	H	1.061596	-0.559399	-0.124543
H84	H	1.163441	0.173552	-0.186540
H85	H	0.965682	0.019591	-0.186594
H86	H	1.163456	0.173551	-0.330303
H87	H	1.163513	0.173549	-0.813483
H88	H	0.479305	0.095320	0.193098
H89	H	0.965695	0.019603	-0.330366
H90	H	0.338252	0.093242	0.124464
