data_functionalizedCrystal
_audit_creation_method	'MofGen! by Chris Wilmer'
_symmetry_space_group_name_H-M	'P1'
_symmetry_Int_Tables_number	1
_symmetry_cell_setting	triclinic
loop_
_symmetry_equiv_pos_as_xyz
  x,y,z
_cell_length_a	19.188930
_cell_length_b	19.188930
_cell_length_c	17.666332
_cell_angle_alpha	90.011603
_cell_angle_beta	89.976766
_cell_angle_gamma	96.855221
loop_
_atom_site_label
_atom_site_type_symbol
_atom_site_fract_x
_atom_site_fract_y
_atom_site_fract_z
O1	O	0.926150	-0.087169	-0.063200
O2	O	0.722838	-0.098903	-0.063149
O3	O	0.830361	0.008620	-0.063161
O4	O	0.818627	-0.194692	-0.063188
O5	O	0.830342	0.008625	0.062735
O6	O	0.722820	-0.098897	0.062747
O7	O	0.926131	-0.087163	0.062697
Cu8	Cu	0.824473	-0.093030	0.074217
Cu9	Cu	0.824496	-0.093036	-0.074670
O10	O	0.818608	-0.194686	0.062709
C11	C	0.696818	-0.098520	-0.000194
C12	C	0.619313	-0.097380	-0.000174
C13	C	0.574389	-0.160470	-0.000194
C14	C	0.501566	-0.159399	-0.000203
C15	C	0.473669	-0.095233	-0.000206
C16	C	0.518603	-0.032133	-0.000181
C17	C	0.591425	-0.033207	-0.000166
N18	N	0.365695	-0.046188	-0.043078
N19	N	0.296517	-0.045172	-0.043095
C20	C	0.254260	-0.091994	-0.000252
N21	N	0.283795	-0.139881	0.042599
N22	N	0.352979	-0.140899	0.042612
C23	C	0.394707	-0.094062	-0.000222
C24	C	0.130372	-0.153928	-0.000280
C25	C	0.057547	-0.152853	-0.000283
C26	C	0.074586	-0.025586	-0.000270
C27	C	0.147409	-0.026662	-0.000258
C28	C	0.175298	-0.090835	-0.000267
C29	C	0.829972	0.034634	-0.000211
C30	C	0.828831	0.112138	-0.000204
C31	C	0.952151	-0.087546	-0.000260
C32	C	1.029656	-0.088687	-0.000285
C33	C	0.818997	-0.220700	-0.000244
C34	C	0.820138	-0.298204	-0.000255
N35	N	0.824463	-0.093025	0.178937
C36	C	0.891922	0.157062	-0.000216
C37	C	0.890850	0.229886	-0.000228
C38	C	0.826684	0.257782	-0.000212
C39	C	0.763585	0.212849	-0.000205
C40	C	0.764658	0.140026	-0.000200
N41	N	0.777630	0.365789	0.042645
N42	N	0.776615	0.434968	0.042642
C43	C	0.823446	0.477191	-0.000227
N44	N	0.871341	0.447624	-0.043084
N45	N	0.872359	0.378439	-0.043079
C46	C	0.825513	0.336745	-0.000218
C47	C	0.885379	0.601079	-0.000253
C48	C	0.884305	0.673904	-0.000270
C49	C	0.757038	0.656865	-0.000239
C50	C	0.758114	0.584042	-0.000230
C51	C	0.822287	0.556154	-0.000233
N52	N	0.824512	-0.093036	-0.179390
C53	C	0.872089	-0.045437	0.218541
C54	C	0.872093	-0.045433	0.297789
C55	C	0.824478	-0.093030	0.337429
C56	C	0.776842	-0.140621	0.297815
C57	C	0.776835	-0.140619	0.218569
N58	N	0.815401	-0.154837	0.461841
N59	N	0.815413	-0.154837	0.537121
C60	C	0.824496	-0.093040	0.576193
N61	N	0.833582	-0.031239	0.537140
N62	N	0.833574	-0.031240	0.461853
C63	C	0.824480	-0.093038	0.423358
C64	C	0.872130	-0.045444	0.701727
C65	C	0.872129	-0.045440	0.780976
C66	C	0.776881	-0.140634	0.781000
C67	C	0.776878	-0.140632	0.701753
C68	C	0.824506	-0.093038	0.662121
H69	H	0.183988	0.024713	-0.000246
H70	H	0.711340	0.235567	-0.000194
C71	C	0.655894	-0.181932	0.805449
C72	C	0.724538	-0.192952	0.824564
H73	H	0.623579	-0.214228	0.832350
H74	H	0.649080	-0.188745	0.752591
H75	H	0.648468	-0.135350	0.818456
H76	H	0.731966	-0.239533	0.811551
H77	H	0.731355	-0.186145	0.877434
C78	C	0.681797	-0.156010	0.386990
C79	C	0.724504	-0.192940	0.341387
H80	H	0.649486	-0.188310	0.413892
H81	H	0.656772	-0.127014	0.356098
H82	H	0.710172	-0.127669	0.421917
H83	H	0.696129	-0.221278	0.306456
H84	H	0.749531	-0.221949	0.372282
C85	C	0.956947	0.765656	-0.065016
C86	C	0.953662	0.723286	-0.000289
H87	H	0.999768	0.796139	-0.065029
H88	H	0.918584	0.792690	-0.065008
H89	H	0.954727	0.736873	-0.108908
H90	H	0.955876	0.752070	0.043604
H91	H	0.992035	0.696250	-0.000290
C92	C	0.698883	0.760927	-0.000232
C93	C	0.686504	0.687521	-0.000224
H94	H	0.655336	0.779853	-0.000221
H95	H	0.724855	0.776345	-0.044139
H96	H	0.724845	0.776366	0.043667
H97	H	0.660547	0.672082	-0.044126
H98	H	0.660521	0.672096	0.043687
H99	H	0.944176	0.134360	-0.000222
H100	H	0.706738	0.547464	-0.000216
H101	H	0.942228	0.266470	-0.000241
H102	H	0.713281	0.103448	-0.000190
H103	H	0.910878	-0.006680	0.330041
C104	C	0.492031	-0.285304	-0.000242
C105	C	0.452173	-0.228753	-0.000235
H106	H	0.461538	-0.328119	-0.000269
H107	H	0.520758	-0.283085	0.043668
H108	H	0.520819	-0.283067	-0.044138
H109	H	0.423388	-0.230987	0.043664
H110	H	0.423434	-0.230974	-0.044150
H111	H	0.937632	0.578372	-0.000259
C112	C	0.682689	-0.234714	0.226555
C113	C	0.724485	-0.192936	0.175031
H114	H	0.650375	-0.267016	0.199674
H115	H	0.657668	-0.205713	0.257480
H116	H	0.711682	-0.259756	0.257446
H117	H	0.695493	-0.167891	0.144143
H118	H	0.749509	-0.221941	0.144093
H119	H	0.910909	-0.006688	0.669457
H120	H	0.910910	-0.006684	0.813222
C121	C	0.966236	0.048659	0.226483
C122	C	0.924434	0.006886	0.174979
H123	H	0.998547	0.080963	0.199586
H124	H	0.991262	0.019655	0.257366
H125	H	0.937248	0.073697	0.257419
H126	H	0.953422	-0.018157	0.144047
H127	H	0.899407	0.035893	0.144083
H128	H	0.738099	-0.179386	0.669505
H129	H	0.495885	0.020111	-0.000194
C130	C	0.628402	0.074931	-0.064870
C131	C	0.640812	0.036147	-0.000152
H132	H	0.658896	0.117745	-0.064864
H133	H	0.581047	0.084754	-0.064870
H134	H	0.636860	0.048599	-0.108769
H135	H	0.632349	0.062477	0.043747
H136	H	0.688179	0.026326	-0.000145
C137	C	0.106218	-0.279617	-0.000286
C138	C	0.161033	-0.224464	-0.000277
H139	H	0.125147	-0.323162	-0.000279
H140	H	0.078193	-0.276556	-0.044190
H141	H	0.078147	-0.276542	0.043616
H142	H	0.189102	-0.227536	-0.044182
H143	H	0.189070	-0.227526	0.043632
C144	C	0.002621	0.049451	-0.065004
C145	C	0.043934	0.044949	-0.000276
H146	H	-0.016300	0.093000	-0.065007
H147	H	-0.034558	0.012035	-0.065007
H148	H	0.030706	0.046381	-0.108896
H149	H	0.015847	0.048014	0.043617
H150	H	0.081117	0.082376	-0.000265
H151	H	0.597091	-0.212725	-0.000203
H152	H	0.020970	-0.204232	-0.000295
