data_functionalizedCrystal
_audit_creation_method	'MofGen! by Chris Wilmer'
_symmetry_space_group_name_H-M	'P1'
_symmetry_Int_Tables_number	1
_symmetry_cell_setting	triclinic
loop_
_symmetry_equiv_pos_as_xyz
  x,y,z
_cell_length_a	8.559649
_cell_length_b	10.723024
_cell_length_c	7.088929
_cell_angle_alpha	83.718137
_cell_angle_beta	95.325015
_cell_angle_gamma	77.123267
loop_
_atom_site_label
_atom_site_type_symbol
_atom_site_fract_x
_atom_site_fract_y
_atom_site_fract_z
O1	O	2.103422	-0.027906	-0.158957
O2	O	1.638923	0.036470	-0.158966
O3	O	1.881888	-0.178393	-0.158954
O4	O	1.860458	0.186957	-0.158969
O5	O	1.914357	-0.207166	0.159022
O6	O	1.671392	0.007698	0.159011
O7	O	2.135892	-0.056678	0.159020
Cu8	Cu	1.906607	-0.027117	0.188049
Cu9	Cu	1.868208	0.006909	-0.187995
O10	O	1.892927	0.158185	0.159008
C11	C	1.595681	0.026962	0.000021
C12	C	1.418460	0.041484	0.000018
C13	C	1.896563	-0.239119	0.000032
C14	C	1.891897	-0.377194	0.000025
C15	C	2.027846	-0.466115	0.000025
C16	C	2.023026	-0.608824	0.000018
C17	C	2.179133	-0.047170	0.000028
C18	C	2.356353	-0.061691	0.000019
C19	C	1.878252	0.218911	0.000017
C20	C	1.882917	0.356987	0.000012
N21	N	1.933626	-0.051052	0.452538
N22	N	1.841202	0.030832	-0.452485
H23	H	2.147807	-0.436593	0.000039
H24	H	1.745415	0.115688	0.465864
H25	H	2.029431	-0.135906	0.534199
H26	H	1.438759	-0.161133	0.000013
H27	H	1.336043	0.140934	0.000003
O28	O	1.744048	-0.552004	0.000347
C29	C	1.513938	-0.477814	0.165010
C30	C	1.671188	-0.580963	0.164892
H31	H	1.454968	-0.501205	0.298009
H32	H	1.542482	-0.378928	0.165138
H33	H	1.427888	-0.476992	0.031870
H34	H	1.757312	-0.581902	0.298009
H35	H	1.642521	-0.679800	0.164664
O36	O	1.748703	-0.412307	-0.000322
C37	C	1.482276	-0.388071	-0.165008
C38	C	1.644380	-0.348225	-0.164874
H39	H	1.397874	-0.336258	-0.298013
H40	H	1.503780	-0.496877	-0.165138
H41	H	1.425127	-0.360509	-0.031874
H42	H	1.701615	-0.375700	-0.297985
H43	H	1.622772	-0.239423	-0.164644
O44	O	2.161961	-0.699777	-0.000239
C45	C	2.391959	-0.774052	-0.165035
C46	C	2.234668	-0.670941	-0.164958
H47	H	2.450771	-0.750789	-0.298216
H48	H	2.478180	-0.774855	-0.032052
H49	H	2.363305	-0.872909	-0.164947
H50	H	2.263170	-0.572031	-0.165114
H51	H	2.148493	-0.670251	-0.297929
