data_functionalizedCrystal
_audit_creation_method	'MofGen! by Chris Wilmer'
_symmetry_space_group_name_H-M	'P1'
_symmetry_Int_Tables_number	1
_symmetry_cell_setting	triclinic
loop_
_symmetry_equiv_pos_as_xyz
  x,y,z
_cell_length_a	11.026607
_cell_length_b	10.908890
_cell_length_c	10.065875
_cell_angle_alpha	83.386829
_cell_angle_beta	100.697662
_cell_angle_gamma	84.335052
loop_
_atom_site_label
_atom_site_type_symbol
_atom_site_fract_x
_atom_site_fract_y
_atom_site_fract_z
O1	O	-1.527072	-0.499655	-0.113430
O2	O	-1.185574	-0.441152	-0.113439
O3	O	-1.401597	-0.293935	-0.113451
O4	O	-1.311049	-0.646873	-0.113418
O5	O	-1.360375	-0.322151	0.113540
O6	O	-1.144352	-0.469369	0.113552
O7	O	-1.485850	-0.527872	0.113561
Zn8	Zn	-1.308556	-0.503101	0.149596
Zn9	Zn	-1.362868	-0.465924	-0.149474
O10	O	-1.269827	-0.675090	0.113573
C11	C	-1.121931	-0.444468	0.000055
C12	C	-0.993710	-0.412294	0.000050
C13	C	-1.389449	-0.262156	0.000037
C14	C	-1.414653	-0.125426	0.000016
C15	C	-1.549494	-0.524556	0.000064
C16	C	-1.677716	-0.556728	0.000060
N17	N	-1.271499	-0.528474	0.353704
C18	C	-0.901975	-0.501130	0.000058
C19	C	-0.769452	-0.467880	0.000053
C20	C	-1.322711	-0.055162	0.000004
C21	C	-1.348757	0.086156	-0.000018
C22	C	-1.281983	0.293136	0.000051
C23	C	-1.256803	0.156418	-0.000030
N24	N	-1.399937	-0.440543	-0.353582
C25	C	-1.349969	-0.474743	0.421478
C26	C	-1.321455	-0.494282	0.578647
H27	H	-0.921547	-0.601803	0.000075
H28	H	-1.512649	-0.080961	0.000015
H29	H	-1.183205	-0.588935	0.412035
H30	H	-1.438256	-0.414270	0.363149
H31	H	-0.749892	-0.367197	0.000008
H32	H	-1.488230	-0.380067	0.588092
H33	H	-1.446761	0.130616	-0.000019
N34	N	-0.702264	-0.683028	0.000092
N35	N	-0.809880	-0.709865	0.000106
H36	H	-0.827219	-0.799063	0.000131
N37	N	-1.210685	-0.570127	0.651826
N38	N	-1.187676	-0.585887	0.779396
H39	H	-1.109446	-0.639451	0.831083
H40	H	-0.974144	-0.311618	0.000006
H41	H	-1.224712	-0.099629	0.000017
H42	H	-1.158795	0.111957	-0.000012
