data_functionalizedCrystal
_audit_creation_method	'MofGen! by Chris Wilmer'
_symmetry_space_group_name_H-M	'P1'
_symmetry_Int_Tables_number	1
_symmetry_cell_setting	triclinic
loop_
_symmetry_equiv_pos_as_xyz
  x,y,z
_cell_length_a	27.732048
_cell_length_b	27.732048
_cell_length_c	26.809956
_cell_angle_alpha	90.003258
_cell_angle_beta	90.000636
_cell_angle_gamma	82.642655
loop_
_atom_site_label
_atom_site_type_symbol
_atom_site_fract_x
_atom_site_fract_y
_atom_site_fract_z
O1	O	0.057510	0.640931	0.041421
O2	O	0.557510	1.140931	0.541421
O3	O	0.066256	0.500138	0.041436
O4	O	0.566256	1.000138	0.541436
O5	O	-0.008514	0.574907	0.041419
O6	O	0.491486	1.074907	0.541419
O7	O	0.132280	0.566162	0.041439
O8	O	0.632280	1.066162	0.541439
O9	O	-0.008502	0.574893	-0.041541
O10	O	0.491498	1.074893	0.458459
O11	O	0.066267	0.500123	-0.041523
O12	O	0.566267	1.000123	0.458477
O13	O	0.057522	0.640917	-0.041539
O14	O	0.557522	1.140917	0.458461
Zn15	Zn	0.061896	0.570518	-0.054702
Zn16	Zn	0.561896	1.070518	0.445298
Zn17	Zn	0.061881	0.570536	0.054600
Zn18	Zn	0.561881	1.070536	0.554600
O19	O	0.132291	0.566147	-0.041521
O20	O	0.632291	1.066147	0.458479
C21	C	0.066078	0.482124	-0.000041
C22	C	0.566078	0.982124	0.499959
C23	C	0.065525	0.428469	-0.000036
C24	C	0.565525	0.928469	0.499964
C25	C	-0.026515	0.574716	-0.000062
C26	C	0.473485	1.074716	0.499938
C27	C	-0.080170	0.574164	-0.000066
C28	C	0.419830	1.074164	0.499934
C29	C	0.106229	0.089654	-0.000051
C30	C	0.606229	0.589654	0.499949
C31	C	0.104178	-0.112006	-0.000056
C32	C	0.604178	0.387994	0.499944
O33	O	0.141398	-0.143262	-0.000073
O34	O	0.641398	0.356738	0.499927
N35	N	0.059843	-0.131130	-0.000062
N36	N	0.559843	0.368870	0.499938
C37	C	0.016017	-0.099835	-0.000069
C38	C	0.516017	0.400165	0.499931
O39	O	-0.021740	-0.120728	-0.000079
O40	O	0.478260	0.379272	0.499921
C41	C	0.018068	0.101824	-0.000068
C42	C	0.518068	0.601824	0.499932
C43	C	0.062407	0.120944	-0.000057
C44	C	0.562407	0.620944	0.499943
C45	C	0.150563	0.108775	-0.000042
C46	C	0.650563	0.608775	0.499958
C47	C	0.151076	0.159187	-0.000038
C48	C	0.651076	0.659187	0.499962
C49	C	0.107253	0.190477	-0.000044
C50	C	0.607253	0.690477	0.499956
C51	C	0.062919	0.171356	-0.000054
C52	C	0.562919	0.671356	0.499946
C53	C	-0.025757	0.133117	-0.000079
C54	C	0.474243	0.633117	0.499921
C55	C	-0.025240	0.183535	-0.000080
C56	C	0.474760	0.683535	0.499920
C57	C	0.019098	0.202655	-0.000069
C58	C	0.519098	0.702655	0.499931
C59	C	0.019609	0.253059	-0.000056
C60	C	0.519609	0.753059	0.499944
N61	N	0.063944	0.272183	-0.000050
N62	N	0.563944	0.772183	0.499950
C63	C	0.107766	0.240892	-0.000044
C64	C	0.607766	0.740892	0.499956
C65	C	0.014943	-0.205709	-0.000069
C66	C	0.514943	0.294291	0.499931
C67	C	0.014430	-0.256124	-0.000068
C68	C	0.514430	0.243876	0.499932
C69	C	0.102591	-0.268291	-0.000056
C70	C	0.602591	0.231709	0.499944
C71	C	0.103104	-0.217876	-0.000053
C72	C	0.603104	0.282124	0.499947
C73	C	0.059278	-0.186585	-0.000063
C74	C	0.559278	0.313415	0.499937
C75	C	0.108839	0.346761	-0.000036
C76	C	0.608839	0.846761	0.499964
C77	C	0.109347	0.397178	-0.000030
C78	C	0.609347	0.897178	0.499970
C79	C	0.021186	0.409341	-0.000044
C80	C	0.521186	0.909341	0.499956
C81	C	0.020678	0.358929	-0.000048
C82	C	0.520678	0.858929	0.499952
C83	C	0.064508	0.327639	-0.000045
C84	C	0.564508	0.827639	0.499955
O85	O	-0.017592	0.284343	-0.000045
O86	O	0.482408	0.784343	0.499955
O87	O	0.145518	0.261794	-0.000045
O88	O	0.645518	0.761794	0.499955
C89	C	0.105716	0.039242	-0.000055
C90	C	0.605716	0.539242	0.499945
C91	C	0.061382	0.020120	-0.000065
C92	C	0.561382	0.520120	0.499935
C93	C	0.017560	0.051411	-0.000071
C94	C	0.517560	0.551411	0.499929
C95	C	0.060869	-0.030294	-0.000065
C96	C	0.560869	0.469706	0.499935
C97	C	0.104691	-0.061585	-0.000059
C98	C	0.604691	0.438415	0.499941
C99	C	0.149026	-0.042461	-0.000053
C100	C	0.649026	0.457539	0.499947
C101	C	0.149539	0.007951	-0.000049
C102	C	0.649539	0.507951	0.499951
C103	C	-0.026775	0.032287	-0.000077
C104	C	0.473225	0.532287	0.499923
C105	C	-0.027284	-0.018125	-0.000080
C106	C	0.472716	0.481875	0.499920
C107	C	0.016538	-0.049416	-0.000074
C108	C	0.516538	0.450584	0.499926
C109	C	-0.418985	0.614867	-0.000045
C110	C	0.081015	1.114867	0.499955
C111	C	-0.620645	0.612816	-0.000038
C112	C	-0.120645	1.112816	0.499962
O113	O	-0.651900	0.650037	-0.000021
O114	O	-0.151900	1.150037	0.499979
N115	N	-0.639768	0.568481	-0.000034
N116	N	-0.139768	1.068481	0.499966
C117	C	-0.608474	0.524656	-0.000028
C118	C	-0.108474	1.024656	0.499972
O119	O	-0.629367	0.486899	-0.000019
O120	O	-0.129367	0.986899	0.499981
C121	C	-0.406815	0.526707	-0.000031
C122	C	0.093185	1.026707	0.499969
C123	C	-0.387694	0.571045	-0.000041
C124	C	0.112306	1.071045	0.499959
C125	C	-0.399864	0.659202	-0.000054
C126	C	0.100136	1.159202	0.499946
C127	C	-0.349452	0.659714	-0.000059
C128	C	0.150548	1.159714	0.499941
C129	C	-0.318161	0.615892	-0.000054
C130	C	0.181839	1.115892	0.499946
C131	C	-0.337282	0.571557	-0.000045
C132	C	0.162718	1.071557	0.499955
C133	C	-0.375521	0.482882	-0.000022
C134	C	0.124479	0.982882	0.499978
C135	C	-0.325104	0.483399	-0.000021
C136	C	0.174896	0.983399	0.499979
C137	C	-0.305983	0.527737	-0.000031
C138	C	0.194017	1.027737	0.499969
C139	C	-0.255580	0.528247	-0.000045
C140	C	0.244420	1.028247	0.499955
N141	N	-0.236456	0.572583	-0.000050
N142	N	0.263544	1.072583	0.499950
C143	C	-0.267747	0.616405	-0.000054
C144	C	0.232253	1.116405	0.499946
C145	C	-0.714348	0.523582	-0.000027
C146	C	-0.214348	1.023582	0.499973
C147	C	-0.764762	0.523069	-0.000027
C148	C	-0.264762	1.023069	0.499973
C149	C	-0.776930	0.611230	-0.000036
C150	C	-0.276930	1.111230	0.499964
C151	C	-0.726514	0.611742	-0.000040
C152	C	-0.226514	1.111742	0.499960
C153	C	-0.695224	0.567917	-0.000031
C154	C	-0.195224	1.067917	0.499969
C155	C	-0.161878	0.617477	-0.000064
C156	C	0.338122	1.117477	0.499936
C157	C	-0.111461	0.617986	-0.000071
C158	C	0.388539	1.117986	0.499929
C159	C	-0.099298	0.529825	-0.000059
C160	C	0.400702	1.029825	0.499941
C161	C	-0.149710	0.529316	-0.000055
C162	C	0.350290	1.029316	0.499945
C163	C	-0.180999	0.573147	-0.000056
C164	C	0.319001	1.073147	0.499944
O165	O	-0.224296	0.491047	-0.000057
O166	O	0.275704	0.991047	0.499943
O167	O	-0.246844	0.654156	-0.000053
O168	O	0.253156	1.154156	0.499947
C169	C	-0.469397	0.614355	-0.000041
C170	C	0.030603	1.114355	0.499959
C171	C	-0.488518	0.570021	-0.000032
C172	C	0.011482	1.070021	0.499968
C173	C	-0.457228	0.526198	-0.000027
C174	C	0.042772	1.026198	0.499973
C175	C	-0.538933	0.569508	-0.000032
C176	C	-0.038933	1.069508	0.499968
C177	C	-0.570223	0.613330	-0.000036
C178	C	-0.070223	1.113330	0.499964
C179	C	-0.551100	0.657665	-0.000041
C180	C	-0.051100	1.157665	0.499959
C181	C	-0.500688	0.658177	-0.000045
C182	C	-0.000688	1.158177	0.499955
C183	C	-0.476351	0.481863	-0.000023
C184	C	0.023649	0.981863	0.499977
C185	C	-0.526764	0.481355	-0.000019
C186	C	-0.026764	0.981355	0.499981
C187	C	-0.558054	0.525177	-0.000023
C188	C	-0.058054	1.025177	0.499977
C189	C	0.150292	0.566338	-0.000039
C190	C	0.650292	1.066338	0.499961
C191	C	0.203947	0.566891	-0.000031
C192	C	0.703947	1.066891	0.499969
C193	C	0.057699	0.658931	-0.000060
C194	C	0.557699	1.158931	0.499940
C195	C	0.058252	0.712586	-0.000062
C196	C	0.558252	1.212586	0.499938
N197	N	0.061906	0.570509	-0.129298
N198	N	0.561906	1.070509	0.370702
C199	C	0.028781	0.603640	-0.473932
C200	C	0.528781	1.103640	0.026068
C201	C	0.028774	0.603652	-0.682810
C202	C	0.528774	1.103652	-0.182810
O203	O	0.000613	0.631801	-0.709820
O204	O	0.500613	1.131801	-0.209820
N205	N	0.061870	0.570539	-0.708925
N206	N	0.561870	1.070539	-0.208925
C207	C	0.094969	0.537419	-0.682818
C208	C	0.594969	1.037419	-0.182818
O209	O	0.123116	0.509252	-0.709824
O210	O	0.623116	1.009252	-0.209824
C211	C	0.094974	0.537406	-0.473941
C212	C	0.594974	1.037406	0.026059
C213	C	0.061878	0.570524	-0.447829
C214	C	0.561878	1.070524	0.052171
C215	C	-0.004312	0.636755	-0.447819
C216	C	0.495688	1.136755	0.052181
C217	C	-0.004308	0.636754	-0.395603
C218	C	0.495692	1.136754	0.104397
C219	C	0.028789	0.603637	-0.369500
C220	C	0.528789	1.103637	0.130500
C221	C	0.061882	0.570522	-0.395612
C222	C	0.561882	1.070522	0.104388
C223	C	0.128070	0.504284	-0.447835
C224	C	0.628070	1.004284	0.052165
C225	C	0.128067	0.504283	-0.395613
C226	C	0.628067	1.004283	0.104387
C227	C	0.094972	0.537401	-0.369500
C228	C	0.594972	1.037401	0.130500
C229	C	0.094983	0.537405	-0.317293
C230	C	0.594983	1.037405	0.182707
N231	N	0.061887	0.570517	-0.291177
N232	N	0.561887	1.070517	0.208823
C233	C	0.028790	0.603633	-0.317281
C234	C	0.528790	1.103633	0.182719
C235	C	0.094965	0.537429	-0.792481
C236	C	0.594965	1.037429	-0.292481
C237	C	0.094964	0.537433	-0.844700
C238	C	0.594964	1.037433	-0.344700
C239	C	0.028768	0.603665	-0.844689
C240	C	0.528768	1.103665	-0.344689
C241	C	0.028772	0.603663	-0.792469
C242	C	0.528772	1.103663	-0.292469
C243	C	0.061868	0.570542	-0.766366
C244	C	0.561868	1.070542	-0.266366
C245	C	0.028801	0.603628	-0.207623
C246	C	0.528801	1.103628	0.292377
C247	C	0.028809	0.603625	-0.155402
C248	C	0.528809	1.103625	0.344598
C249	C	0.095003	0.537392	-0.155418
C250	C	0.595003	1.037392	0.344582
C251	C	0.094997	0.537396	-0.207635
C252	C	0.594997	1.037396	0.292365
C253	C	0.061892	0.570516	-0.233735
C254	C	0.561892	1.070516	0.266265
O255	O	0.123126	0.509266	-0.290250
O256	O	0.623126	1.009266	0.209750
O257	O	0.000640	0.631789	-0.290266
O258	O	0.500640	1.131789	0.209734
C259	C	0.028777	0.603642	-0.526149
C260	C	0.528777	1.103642	-0.026149
C261	C	0.061870	0.570527	-0.552261
C262	C	0.561870	1.070527	-0.052261
C263	C	0.094968	0.537410	-0.526158
C264	C	0.594968	1.037410	-0.026158
C265	C	0.061870	0.570531	-0.604480
C266	C	0.561870	1.070531	-0.104480
C267	C	0.028773	0.603647	-0.630584
C268	C	0.528773	1.103647	-0.130584
C269	C	-0.004324	0.636759	-0.604468
C270	C	0.495676	1.136759	-0.104468
C271	C	-0.004320	0.636758	-0.552252
C272	C	0.495680	1.136758	-0.052252
C273	C	0.128064	0.504298	-0.552273
C274	C	0.628064	1.004298	-0.052273
C275	C	0.128058	0.504303	-0.604489
C276	C	0.628058	1.004303	-0.104489
C277	C	0.094961	0.537419	-0.630593
C278	C	0.594961	1.037419	-0.130593
N279	N	0.061867	0.570549	0.129196
N280	N	0.561867	1.070549	0.629196
H281	H	0.145454	0.412743	-0.000021
H282	H	0.645454	0.912743	0.499979
H283	H	0.155012	0.477335	-0.625747
H284	H	0.655012	0.977335	-0.125747
C285	C	-0.479662	0.706953	-0.000053
C286	C	0.020338	1.206953	0.499947
N287	N	-0.463829	0.743694	-0.000057
N288	N	0.036171	1.243694	0.499943
H289	H	0.155018	0.477310	-0.374362
H290	H	0.655018	0.977310	0.125638
H291	H	-0.095896	0.654093	-0.000080
H292	H	0.404104	1.154093	0.499920
C293	C	-0.705487	0.660517	-0.000046
C294	C	-0.205487	1.160517	0.499954
N295	N	-0.689651	0.697256	-0.000049
N296	N	-0.189651	1.197256	0.499951
H297	H	-0.802415	0.646911	-0.000040
H298	H	-0.302415	1.146911	0.499960
H299	H	-0.165279	0.493213	-0.000061
H300	H	0.334721	0.993213	0.499939
C301	C	-0.074986	0.066701	-0.000081
C302	C	0.425014	0.566701	0.499919
N303	N	-0.111302	0.092620	-0.000081
N304	N	0.388698	0.592620	0.499919
H305	H	-0.780325	0.486964	-0.000028
H306	H	-0.280325	0.986964	0.499972
C307	C	-0.040732	0.673186	-0.633192
C308	C	0.459268	1.173186	-0.133192
N309	N	-0.068155	0.700619	-0.654830
N310	N	0.431845	1.200619	-0.154830
C311	C	-0.290687	0.435186	-0.000014
C312	C	0.209313	0.935186	0.499986
N313	N	-0.264766	0.398872	-0.000010
N314	N	0.235234	0.898872	0.499990
C315	C	-0.679934	0.475367	-0.000018
C316	C	-0.179934	0.975367	0.499982
N317	N	-0.654016	0.439051	-0.000012
N318	N	-0.154016	0.939051	0.499988
H319	H	0.121919	0.510471	-0.865958
H320	H	0.621919	1.010471	-0.365958
H321	H	0.121917	0.510457	-0.771232
H322	H	0.621917	1.010457	-0.271232
H323	H	-0.391080	0.446777	-0.000011
H324	H	0.108920	0.946777	0.499989
H325	H	-0.073812	0.494146	-0.000057
H326	H	0.426188	0.994146	0.499943
C327	C	-0.040721	0.673181	-0.366886
C328	C	0.459279	1.173181	0.133114
N329	N	-0.068151	0.700618	-0.345259
N330	N	0.431849	1.200618	0.154741
H331	H	-0.576585	0.693347	-0.000047
H332	H	-0.076585	1.193347	0.499953
H333	H	-0.014492	0.434827	-0.000047
H334	H	0.485508	0.934827	0.499953
H335	H	-0.542327	0.445246	-0.000015
H336	H	-0.042327	0.945246	0.499985
H337	H	0.184708	-0.067947	-0.000046
H338	H	0.684708	0.432053	0.499954
C339	C	-0.034345	-0.277150	-0.000076
C340	C	0.465655	0.222850	0.499924
N341	N	-0.071085	-0.292986	-0.000087
N342	N	0.428915	0.207014	0.499913
H343	H	0.139207	-0.202311	-0.000047
H344	H	0.639207	0.297689	0.499953
C345	C	0.131406	0.500968	-0.236359
C346	C	0.631406	1.000968	0.263641
N347	N	0.158827	0.473526	-0.257991
N348	N	0.658827	0.973526	0.242009
H349	H	-0.031269	0.663725	-0.530995
H350	H	0.468731	1.163725	-0.030995
H351	H	-0.425336	0.694889	-0.000056
H352	H	0.074664	1.194889	0.499944
C353	C	-0.196289	0.665693	-0.000070
C354	C	0.303711	1.165693	0.499930
N355	N	-0.222207	0.702009	-0.000079
N356	N	0.277793	1.202009	0.499921
C357	C	0.164474	0.467848	-0.476548
C358	C	0.664474	0.967848	0.023452
N359	N	0.191895	0.440400	-0.498173
N360	N	0.691895	0.940400	0.001827
H361	H	0.155015	0.477330	-0.531024
H362	H	0.655015	0.977330	-0.031024
C363	C	-0.441938	0.433652	-0.000017
C364	C	0.058062	0.933652	0.499983
N365	N	-0.416019	0.397337	-0.000015
N366	N	0.083981	0.897337	0.499985
H367	H	0.121952	0.510430	-0.134157
H368	H	0.621952	1.010430	0.365843
C369	C	-0.007602	0.640057	-0.126681
C370	C	0.492398	1.140057	0.373319
N371	N	-0.035027	0.667496	-0.105050
N372	N	0.464973	1.167496	0.394950
H373	H	0.144530	0.321291	-0.000035
H374	H	0.644530	0.821291	0.499965
H375	H	0.187180	0.174750	-0.000029
H376	H	0.687180	0.674750	0.499971
H377	H	-0.060929	0.209009	-0.000089
H378	H	0.439071	0.709009	0.499911
C379	C	0.198314	0.028977	-0.000044
C380	C	0.698314	0.528977	0.499956
N381	N	0.235055	0.044810	-0.000042
N382	N	0.735055	0.544810	0.499958
C383	C	-0.007641	0.640091	-0.873412
C384	C	0.492359	1.140091	-0.373412
N385	N	-0.035066	0.667522	-0.895049
N386	N	0.464934	1.167522	-0.395049
H387	H	-0.031266	0.663722	-0.469068
H388	H	0.468734	1.163722	0.030932
C389	C	-0.328426	0.708490	-0.000064
C390	C	0.171574	1.208490	0.499936
N391	N	-0.312593	0.745230	-0.000066
N392	N	0.187407	1.245230	0.499934
H393	H	0.186251	0.083302	-0.000038
H394	H	0.686251	0.583302	0.499962
C395	C	-0.028096	0.337895	-0.000053
C396	C	0.471904	0.837895	0.499947
N397	N	-0.064833	0.322056	-0.000061
N398	N	0.435167	0.822056	0.499939
H399	H	0.001822	0.630630	-0.771211
H400	H	0.501822	1.130630	-0.271211
C401	C	-0.033272	-0.171295	-0.000076
C402	C	0.466728	0.328705	0.499924
N403	N	-0.069587	-0.145377	-0.000079
N404	N	0.430413	0.354623	0.499921
C405	C	-0.076063	-0.039151	-0.000094
C406	C	0.423937	0.460849	0.499906
N407	N	-0.112802	-0.054987	-0.000111
N408	N	0.387198	0.445013	0.499889
H409	H	0.138273	-0.293777	-0.000051
H410	H	0.638273	0.206223	0.499949
H411	H	-0.061861	0.117558	-0.000088
H412	H	0.438139	0.617558	0.499912
C413	C	-0.007615	0.640063	-0.236326
C414	C	0.492385	1.140063	0.263674
N415	N	-0.035042	0.667508	-0.257945
N416	N	0.464958	1.167508	0.242055
