data_functionalizedCrystal
_audit_creation_method	'MofGen! by Chris Wilmer'
_symmetry_space_group_name_H-M	'P1'
_symmetry_Int_Tables_number	1
_symmetry_cell_setting	triclinic
loop_
_symmetry_equiv_pos_as_xyz
  x,y,z
_cell_length_a	16.992694
_cell_length_b	11.792241
_cell_length_c	15.455446
_cell_angle_alpha	92.692262
_cell_angle_beta	87.147499
_cell_angle_gamma	87.430819
loop_
_atom_site_label
_atom_site_type_symbol
_atom_site_fract_x
_atom_site_fract_y
_atom_site_fract_z
O1	O	1.038012	0.245399	0.072022
O2	O	1.538012	0.745399	0.572022
O3	O	0.809714	0.242760	0.072048
O4	O	1.309714	0.742760	0.572048
O5	O	0.929403	0.079362	0.072028
O6	O	1.429403	0.579362	0.572028
O7	O	0.918322	0.408797	0.072042
O8	O	1.418322	0.908797	0.572042
O9	O	0.936209	0.070050	-0.072232
O10	O	1.436209	0.570050	0.427768
O11	O	0.816520	0.233448	-0.072213
O12	O	1.316520	0.733448	0.427787
O13	O	1.044818	0.236088	-0.072238
O14	O	1.544818	0.736088	0.427762
Cu15	Cu	0.931290	0.233918	-0.085397
Cu16	Cu	1.431290	0.733918	0.414603
Cu17	Cu	0.923241	0.244930	0.085207
Cu18	Cu	1.423241	0.744930	0.585207
O19	O	0.925128	0.399486	-0.072219
O20	O	1.425128	0.899486	0.427781
C21	C	0.783890	0.234706	-0.000079
C22	C	1.283890	0.734706	0.499921
C23	C	0.696802	0.224569	-0.000070
C24	C	1.196802	0.724569	0.499930
C25	C	0.646977	0.322387	-0.000066
C26	C	1.146977	0.822387	0.499934
C27	C	0.565151	0.312854	-0.000079
C28	C	1.065151	0.812854	0.499921
C29	C	0.533150	0.205502	-0.000088
C30	C	1.033150	0.705502	0.499912
C31	C	0.582982	0.107676	-0.000094
C32	C	1.082982	0.607676	0.499906
C33	C	0.664807	0.117210	-0.000088
C34	C	1.164807	0.617210	0.499912
C35	C	0.289386	0.165987	-0.000113
C36	C	0.789386	0.665987	0.499887
C37	C	0.207554	0.156461	-0.000117
C38	C	0.707554	0.656461	0.499883
C39	C	0.189729	0.361639	-0.000103
C40	C	0.689729	0.861639	0.499897
C41	C	0.271556	0.371164	-0.000091
C42	C	0.771556	0.871164	0.499909
C43	C	0.321381	0.273338	-0.000102
C44	C	0.821381	0.773338	0.499898
N45	N	0.449510	0.195755	-0.000098
N46	N	0.949510	0.695755	0.499902
N47	N	0.405019	0.283086	-0.000098
N48	N	0.905019	0.783086	0.499902
C49	C	0.932110	0.032358	-0.000102
C50	C	1.432110	0.532358	0.499898
C51	C	0.930027	-0.093826	-0.000101
C52	C	1.430027	0.406174	0.499899
C53	C	0.926196	-0.324851	-0.000086
C54	C	1.426196	0.175149	0.499914
C55	C	0.928324	-0.196292	-0.000094
C56	C	1.428324	0.303708	0.499906
C57	C	1.070642	0.244141	-0.000109
C58	C	1.570642	0.744141	0.499891
C59	C	1.157729	0.254279	-0.000113
C60	C	1.657729	0.754279	0.499887
C61	C	0.922421	0.446489	-0.000087
C62	C	1.422421	0.946489	0.499913
C63	C	0.924504	0.572674	-0.000082
C64	C	1.424504	1.072674	0.499918
N65	N	0.936957	0.226172	-0.205391
N66	N	1.436957	0.726172	0.294609
C67	C	0.968438	0.183279	-0.749391
C68	C	1.468438	0.683279	-0.249391
C69	C	0.964135	0.189149	-0.658584
C70	C	1.464135	0.689149	-0.158584
C71	C	0.908970	0.264401	-0.613187
C72	C	1.408970	0.764401	-0.113187
C73	C	0.858110	0.333796	-0.658602
C74	C	1.358110	0.833796	-0.158602
C75	C	0.862417	0.327932	-0.749407
C76	C	1.362417	0.827932	-0.249407
C77	C	0.890405	0.289702	-0.341611
C78	C	1.390405	0.789702	0.158389
C79	C	0.886099	0.295559	-0.250800
C80	C	1.386099	0.795559	0.249200
C81	C	0.992126	0.150913	-0.250788
C82	C	1.492126	0.650913	0.249212
C83	C	0.996426	0.145050	-0.341595
C84	C	1.496426	0.645050	0.158405
C85	C	0.945569	0.214449	-0.387002
C86	C	1.445569	0.714449	0.112998
N87	N	0.904568	0.270401	-0.520368
N88	N	1.404568	0.770401	-0.020368
N89	N	0.949975	0.208455	-0.479819
N90	N	1.449975	0.708455	0.020181
N91	N	0.917581	0.252667	0.205201
N92	N	1.417581	0.752667	0.705201
H93	H	0.181503	0.069038	-0.000123
H94	H	0.681503	0.569038	0.499877
H95	H	0.329943	0.086330	-0.000122
H96	H	0.829943	0.586330	0.499878
H97	H	0.524586	0.392508	-0.000075
H98	H	1.024586	0.892508	0.499925
H99	H	0.297604	0.458582	-0.000074
H100	H	0.797604	0.958582	0.499926
H101	H	0.556921	0.020267	-0.000114
H102	H	1.056921	0.520267	0.499886
N103	N	0.138823	0.461548	-0.000091
N104	N	0.638823	0.961548	0.499909
N105	N	0.065766	0.453028	-0.000096
N106	N	0.565766	0.953028	0.499904
H107	H	0.029813	0.523592	-0.000089
H108	H	0.529813	1.023592	0.499911
H109	H	0.821005	0.384436	-0.786378
H110	H	1.321005	0.884436	-0.286378
H111	H	0.705374	0.037556	-0.000090
H112	H	1.205374	0.537556	0.499910
H113	H	1.013356	0.121996	-0.786347
H114	H	1.513356	0.621996	-0.286347
H115	H	1.005548	0.132649	-0.621613
H116	H	1.505548	0.632649	-0.121613
N117	N	1.052778	0.068170	-0.387950
N118	N	1.552778	0.568170	0.112050
N119	N	1.098183	0.006221	-0.347395
N120	N	1.598183	0.506221	0.152605
H121	H	1.137981	-0.048081	-0.380133
H122	H	1.637981	0.451919	0.119867
N123	N	0.838439	0.360568	-0.387980
N124	N	1.338439	0.860568	0.112020
N125	N	0.792000	0.316812	-0.438656
N126	N	1.292000	0.816812	0.061344
H127	H	0.755294	0.366862	-0.471406
H128	H	1.255294	0.866862	0.028594
N129	N	1.044065	0.080035	-0.204392
N130	N	1.544065	0.580035	0.295608
N131	N	1.040214	0.085275	-0.123317
N132	N	1.540214	0.585275	0.376683
H133	H	1.076899	0.035216	-0.090548
H134	H	1.576899	0.535216	0.409452
H135	H	0.813195	0.395074	-0.621635
H136	H	1.313195	0.895074	-0.121635
N137	N	0.679648	0.432055	-0.000049
N138	N	1.179648	0.932055	0.499951
N139	N	0.635148	0.519383	-0.000048
N140	N	1.135148	1.019383	0.499952
H141	H	0.658219	0.596840	-0.000037
H142	H	1.158219	1.096840	0.499963
N143	N	0.829741	0.372438	-0.204440
N144	N	1.329741	0.872438	0.295560
N145	N	0.784339	0.434396	-0.244991
N146	N	1.284339	0.934396	0.255009
H147	H	0.744537	0.488689	-0.212250
H148	H	1.244537	0.988689	0.287750
