data_functionalizedCrystal
_audit_creation_method	'MofGen! by Chris Wilmer'
_symmetry_space_group_name_H-M	'P1'
_symmetry_Int_Tables_number	1
_symmetry_cell_setting	triclinic
loop_
_symmetry_equiv_pos_as_xyz
  x,y,z
_cell_length_a	16.776229
_cell_length_b	17.699083
_cell_length_c	17.699077
_cell_angle_alpha	96.718205
_cell_angle_beta	89.993415
_cell_angle_gamma	90.007545
loop_
_atom_site_label
_atom_site_type_symbol
_atom_site_fract_x
_atom_site_fract_y
_atom_site_fract_z
O1	O	-0.066279	-0.095691	1.004081
O2	O	0.433721	0.404309	1.504081
O3	O	-0.066283	-0.108149	0.783702
O4	O	0.433717	0.391851	1.283702
O5	O	-0.066274	0.008269	0.900118
O6	O	0.433726	0.508269	1.400118
O7	O	-0.066288	-0.212109	0.887666
O8	O	0.433712	0.287891	1.387666
O9	O	0.066302	0.008276	0.900103
O10	O	0.566302	0.508276	1.400103
O11	O	0.066293	-0.108142	0.783687
O12	O	0.566293	0.391858	1.283687
O13	O	0.066297	-0.095684	1.004066
O14	O	0.566297	0.404316	1.504066
Zn15	Zn	0.087345	-0.101912	0.893874
Zn16	Zn	0.587345	0.398088	1.393874
Zn17	Zn	-0.087331	-0.101921	0.893894
Zn18	Zn	0.412669	0.398079	1.393894
O19	O	0.066288	-0.212102	0.887650
O20	O	0.566288	0.287898	1.387650
C21	C	0.000004	-0.107700	0.755498
C22	C	0.500004	0.392300	1.255498
C23	C	0.000003	-0.106363	0.671479
C24	C	0.500003	0.393637	1.171479
C25	C	0.000014	0.036470	0.899664
C26	C	0.500014	0.536470	1.399664
C27	C	0.000015	0.120488	0.898326
C28	C	0.500015	0.620488	1.398326
N29	N	0.206556	-0.101905	0.893866
N30	N	0.706556	0.398095	1.393866
N31	N	-0.206542	-0.101922	0.893909
N32	N	0.293458	0.398078	1.393909
C33	C	0.248277	-0.050376	0.945430
C34	C	0.748277	0.449624	1.445430
C35	C	0.331729	-0.050376	0.945434
C36	C	0.831729	0.449624	1.445434
C37	C	0.373459	-0.101908	0.893877
C38	C	0.873459	0.398092	1.393877
C39	C	0.331732	-0.153439	0.842307
C40	C	0.831732	0.346561	1.342307
C41	C	0.248281	-0.153435	0.842300
C42	C	0.748281	0.346565	1.342300
C43	C	0.668279	-0.153454	0.842334
C44	C	1.168279	0.346546	1.342334
C45	C	0.751735	-0.153455	0.842347
C46	C	1.251735	0.346545	1.342347
C47	C	0.751727	-0.050394	0.945469
C48	C	1.251727	0.449606	1.445469
C49	C	0.668276	-0.050390	0.945462
C50	C	1.168276	0.449610	1.445462
C51	C	0.626557	-0.101919	0.893889
C52	C	1.126557	0.398081	1.393889
C53	C	0.536068	-0.101918	0.893885
C54	C	1.036068	0.398082	1.393885
C55	C	0.463946	-0.101913	0.893885
C56	C	0.963946	0.398087	1.393885
C57	C	-0.000002	-0.240303	0.888104
C58	C	0.499998	0.259697	1.388104
C59	C	-0.000008	-0.324321	0.889443
C60	C	0.499992	0.175679	1.389443
C61	C	0.000017	0.169110	0.966659
C62	C	0.500017	0.669110	1.466659
C63	C	0.000010	0.248054	0.965397
C64	C	0.500010	0.748054	1.465397
C65	C	0.000006	0.278373	0.895800
C66	C	0.500006	0.778373	1.395800
C67	C	0.000001	0.229744	0.827461
C68	C	0.500001	0.729744	1.327461
C69	C	0.000003	0.150803	0.828724
C70	C	0.500003	0.650803	1.328724
C71	C	-0.000005	0.548107	0.822366
C72	C	0.499995	1.048107	1.322366
C73	C	-0.000004	0.627055	0.821108
C74	C	0.499996	1.127055	1.321108
C75	C	0.000002	0.645358	0.959039
C76	C	0.500002	1.145358	1.459039
C77	C	0.000003	0.566417	0.960302
C78	C	0.500003	1.066417	1.460302
C79	C	-0.000006	0.517795	0.891963
C80	C	0.499994	1.017795	1.391963
C81	C	0.000000	0.432196	0.893333
C82	C	0.500000	0.932196	1.393333
C83	C	0.000006	0.363971	0.894430
C84	C	0.500006	0.863971	1.394430
C85	C	0.072271	-0.105729	0.632003
C86	C	0.572271	0.394271	1.132003
C87	C	0.072272	-0.104461	0.553061
C88	C	0.572272	0.395539	1.053061
C89	C	0.000004	-0.103832	0.513595
C90	C	0.500004	0.396168	1.013595
C91	C	-0.072270	-0.104463	0.553076
C92	C	0.427730	0.395537	1.053076
C93	C	-0.072270	-0.105726	0.632018
C94	C	0.427730	0.394274	1.132018
C95	C	-0.072271	-0.099370	0.234713
C96	C	0.427729	0.400630	0.734713
C97	C	-0.072265	-0.098110	0.155766
C98	C	0.427735	0.401890	0.655766
C99	C	0.072271	-0.098105	0.155756
C100	C	0.572271	0.401895	0.655756
C101	C	0.072271	-0.099367	0.234698
C102	C	0.572271	0.400633	0.734698
C103	C	-0.000002	-0.099995	0.274173
C104	C	0.499998	0.400005	0.774173
C105	C	-0.000002	-0.101369	0.359772
C106	C	0.499998	0.398631	0.859772
C107	C	0.000003	-0.102464	0.427997
C108	C	0.500003	0.397536	0.927997
C109	C	0.000008	-0.096133	1.032271
C110	C	0.500008	0.403867	1.532271
C111	C	0.000004	-0.097470	1.116289
C112	C	0.500004	0.402530	1.616289
H113	H	0.214306	-0.008416	0.987417
H114	H	0.714306	0.491584	1.487417
H115	H	0.000005	0.684956	1.014683
H116	H	0.500005	1.184956	1.514683
H117	H	0.785704	-0.008434	0.987460
H118	H	1.285704	0.491566	1.487460
H119	H	0.000014	0.287639	1.021041
H120	H	0.500014	0.787639	1.521041
H121	H	0.000010	0.541735	1.016974
H122	H	0.500010	1.041735	1.516974
H123	H	-0.000006	0.651737	0.764431
H124	H	0.499994	1.151737	1.264431
H125	H	-0.131118	-0.097597	0.123635
H126	H	0.368882	0.402403	0.623635
H127	H	-0.000012	0.508528	0.766721
H128	H	0.499988	1.008528	1.266721
O129	O	0.000006	0.262440	0.752393
O130	O	0.500006	0.762440	1.252393
H131	H	0.000017	0.325502	0.762993
H132	H	0.500017	0.825502	1.262993
O133	O	0.150225	-0.097423	0.113175
O134	O	0.650225	0.402577	0.613175
H135	H	0.200476	-0.098083	0.153880
H136	H	0.700476	0.401917	0.653880
O137	O	-0.150220	-0.103788	0.510515
O138	O	0.349780	0.396212	1.010515
H139	H	-0.138080	-0.102813	0.448988
H140	H	0.361920	0.397187	0.948988
H141	H	0.785710	-0.195420	0.800360
H142	H	1.285710	0.304580	1.300360
O143	O	0.000009	0.098354	0.755023
O144	O	0.500009	0.598354	1.255023
H145	H	0.000015	0.132697	0.706415
H146	H	0.500015	0.632697	1.206415
H147	H	0.634317	-0.195411	0.800344
H148	H	1.134317	0.304589	1.300344
O149	O	-0.150219	-0.100055	0.277285
O150	O	0.349781	0.399945	0.777285
H151	H	-0.200468	-0.099415	0.236576
H152	H	0.299532	0.400585	0.736576
H153	H	0.131121	-0.106247	0.664130
H154	H	0.631121	0.393753	1.164130
H155	H	0.131121	-0.103932	0.520925
H156	H	0.631121	0.396068	1.020925
H157	H	0.214312	-0.195394	0.800310
H158	H	0.714312	0.304606	1.300310
O159	O	0.000013	0.136409	1.041725
O160	O	0.500013	0.636409	1.541725
H161	H	0.000004	0.183485	1.089028
H162	H	0.500004	0.683485	1.589028
H163	H	-0.131118	-0.106244	0.664158
H164	H	0.368882	0.393756	1.164158
O165	O	0.150221	-0.100062	0.277258
O166	O	0.650221	0.399938	0.777258
H167	H	0.184885	-0.048254	0.268955
H168	H	0.684885	0.451746	0.768955
O169	O	0.376732	0.005188	1.001063
O170	O	0.876732	0.505188	1.501063
H171	H	0.333695	0.041010	1.036924
H172	H	0.833695	0.541010	1.536924
O173	O	0.376734	-0.209026	0.786699
O174	O	0.876734	0.290974	1.286699
H175	H	0.441772	-0.200379	0.795372
H176	H	0.941772	0.299621	1.295372
H177	H	0.634303	-0.008431	0.987447
H178	H	1.134303	0.491569	1.487447
