data_functionalizedCrystal
_audit_creation_method	'MofGen! by Chris Wilmer'
_symmetry_space_group_name_H-M	'P1'
_symmetry_Int_Tables_number	1
_symmetry_cell_setting	triclinic
loop_
_symmetry_equiv_pos_as_xyz
  x,y,z
_cell_length_a	19.805407
_cell_length_b	19.077174
_cell_length_c	19.805405
_cell_angle_alpha	92.272419
_cell_angle_beta	90.024042
_cell_angle_gamma	87.685436
loop_
_atom_site_label
_atom_site_type_symbol
_atom_site_fract_x
_atom_site_fract_y
_atom_site_fract_z
Zn1	Zn	1.050089	-0.397938	-0.284897
Zn2	Zn	1.045462	-0.280243	-0.393540
Zn3	Zn	0.932363	-0.280258	-0.280365
Zn4	Zn	0.936865	-0.397901	-0.398043
O5	O	0.991195	-0.339085	-0.339211
O6	O	1.144192	-0.382335	-0.299321
O7	O	1.026638	-0.181755	-0.374746
O8	O	0.948032	-0.295890	-0.186251
O9	O	1.140792	-0.295865	-0.379140
O10	O	1.034525	-0.382349	-0.189580
O11	O	0.943545	-0.181766	-0.291597
O12	O	0.838243	-0.295854	-0.295963
O13	O	0.955705	-0.496395	-0.386815
O14	O	0.841551	-0.382286	-0.382420
O15	O	1.038890	-0.496423	-0.303687
O16	O	1.031004	-0.295828	-0.488853
O17	O	0.951218	-0.382271	-0.492161
C18	C	0.815338	-0.339068	-0.339189
C19	C	0.740106	-0.339077	-0.339197
C20	C	0.706536	-0.384171	-0.297714
C21	C	0.635847	-0.384173	-0.297718
C22	C	0.598731	-0.339085	-0.339208
C23	C	0.632307	-0.293987	-0.380693
C24	C	0.702993	-0.293981	-0.380685
C25	C	0.347234	-0.294008	-0.380724
C26	C	0.276542	-0.294019	-0.380730
C27	C	0.280088	-0.384201	-0.297757
C28	C	0.350775	-0.384195	-0.297749
C29	C	0.384344	-0.339094	-0.339231
C30	C	0.460992	-0.339091	-0.339225
C31	C	0.522084	-0.339092	-0.339218
C32	C	0.998316	-0.522661	-0.346259
C33	C	1.001351	-0.600890	-0.349262
C34	C	0.959516	-0.637647	-0.307383
C35	C	0.962365	-0.711152	-0.310210
C36	C	1.007052	-0.747898	-0.354914
C37	C	1.048889	-0.711135	-0.396798
C38	C	1.046036	-0.637632	-0.393974
C39	C	1.020220	-0.967728	-0.368007
C40	C	1.023071	-1.041237	-0.370827
C41	C	0.936546	-1.041248	-0.284240
C42	C	0.933700	-0.967744	-0.281417
C43	C	0.975534	-0.930988	-0.323303
N44	N	1.009967	-0.823031	-0.357804
N45	N	0.972615	-0.855855	-0.320416
C46	C	1.167738	-0.339102	-0.339234
C47	C	1.242970	-0.339110	-0.339243
C48	C	0.991117	-0.339059	-0.515066
C49	C	0.991146	-0.339072	-0.590299
C50	C	0.984140	-0.156223	-0.332142
C51	C	0.981236	-0.077994	-0.328948
C52	C	1.036159	-0.384127	-0.627320
C53	C	1.036183	-0.384140	-0.698009
C54	C	0.991199	-0.339094	-0.731675
C55	C	0.946181	-0.294037	-0.694649
C56	C	0.946153	-0.294028	-0.623962
C57	C	0.946291	-0.294073	-0.979724
C58	C	0.946324	-0.294084	-1.050416
C59	C	1.036321	-0.384185	-1.053771
C60	C	1.036294	-0.384176	-0.983083
C61	C	0.991274	-0.339122	-0.946064
C62	C	0.991247	-0.339109	-0.869415
C63	C	0.991229	-0.339103	-0.808323
C64	C	0.991292	-0.339126	-0.162670
C65	C	0.991334	-0.339143	-0.087439
H66	H	0.374558	-0.257285	-0.414501
H67	H	0.897309	-0.937830	-0.245016
H68	H	0.602081	-0.257272	-0.414471
C69	C	1.085701	-0.433693	-0.738732
H70	H	1.079272	-0.427253	-0.785652
H71	H	1.130782	-0.423428	-0.726719
H72	H	1.077590	-0.480974	-0.728954
C73	C	0.896835	-0.244539	-1.087452
H74	H	0.903305	-0.250994	-1.134852
H75	H	0.851743	-0.254799	-1.076298
H76	H	0.904936	-0.197253	-1.074061
H77	H	0.902487	-1.071183	-0.250139
C78	C	1.066246	-0.927306	-0.414070
H79	H	1.093274	-0.959719	-0.441090
H80	H	1.039233	-0.898619	-0.442460
H81	H	1.094640	-0.898645	-0.387072
H82	H	0.380992	-0.420912	-0.263966
H83	H	1.085271	-0.741059	-0.433201
H84	H	1.059464	-1.071153	-0.407231
H85	H	1.072927	-0.420854	-0.955674
C86	C	0.598919	-0.433780	-0.252093
H87	H	0.551505	-0.427322	-0.258033
H88	H	0.612342	-0.481048	-0.263888
H89	H	0.610121	-0.423563	-0.206204
C90	C	1.085841	-0.433749	-1.094491
H91	H	1.112633	-0.460568	-1.064315
H92	H	1.061129	-0.464397	-1.123254
H93	H	1.114321	-0.406851	-1.121017
H94	H	0.909636	-0.257388	-0.949588
C95	C	1.092053	-0.597195	-0.440039
H96	H	1.083949	-0.548157	-0.431960
H97	H	1.138004	-0.609246	-0.430606
H98	H	1.082582	-0.609230	-0.485979
H99	H	0.909551	-0.257363	-0.722066
H100	H	1.072793	-0.420805	-0.599913
C101	C	0.896641	-0.244470	-0.583235
H102	H	0.903062	-0.250921	-0.536315
H103	H	0.904750	-0.197191	-0.593010
H104	H	0.851557	-0.254736	-0.595249
C105	C	0.747360	-0.433768	-0.252077
H106	H	0.794268	-0.427313	-0.258017
H107	H	0.735393	-0.423555	-0.206194
H108	H	0.737613	-0.481042	-0.263875
C109	C	0.243160	-0.433805	-0.252121
H110	H	0.195745	-0.427348	-0.258059
H111	H	0.256582	-0.481074	-0.263911
H112	H	0.254364	-0.423584	-0.206233
H113	H	0.246324	-0.257301	-0.414518
H114	H	0.730326	-0.257261	-0.414464
H115	H	0.923131	-0.607734	-0.270976
C116	C	0.916351	-0.751582	-0.264139
H117	H	0.889335	-0.719170	-0.237104
H118	H	0.887955	-0.780247	-0.291124
H119	H	0.943379	-0.780265	-0.235753
