data_functionalizedCrystal
_audit_creation_method	'MofGen! by Chris Wilmer'
_symmetry_space_group_name_H-M	'P1'
_symmetry_Int_Tables_number	1
_symmetry_cell_setting	triclinic
loop_
_symmetry_equiv_pos_as_xyz
  x,y,z
_cell_length_a	31.640172
_cell_length_b	27.440280
_cell_length_c	27.440280
_cell_angle_alpha	60.004742
_cell_angle_beta	89.998936
_cell_angle_gamma	59.999776
loop_
_atom_site_label
_atom_site_type_symbol
_atom_site_fract_x
_atom_site_fract_y
_atom_site_fract_z
Zr1	Zr	0.407236	0.533334	-0.063962
O2	O	0.339758	0.634994	-0.141768
O3	O	0.427914	0.431673	-0.040111
O4	O	0.427924	0.533322	-0.141773
O5	O	0.339748	0.533354	0.040087
O6	O	0.497480	0.533314	-0.141776
O7	O	0.339747	0.533345	-0.040106
O8	O	0.497462	0.351481	0.040078
O9	O	0.339767	0.715187	-0.141767
O10	O	0.488651	0.473482	-0.029941
O11	O	0.436743	0.473495	0.029909
O12	O	0.436755	0.593174	-0.089784
O13	O	0.384847	0.593187	-0.029935
Zr14	Zr	0.518172	0.533336	0.063932
Zr15	Zr	0.518170	0.533321	-0.063967
Zr16	Zr	0.407238	0.533349	0.063937
Zr17	Zr	0.407250	0.661232	-0.063961
Zr18	Zr	0.518158	0.405438	0.063930
O19	O	0.497494	0.634997	0.040081
O20	O	0.497492	0.634976	-0.141775
O21	O	0.339760	0.635016	0.040088
O22	O	0.585650	0.431675	0.141737
O23	O	0.585648	0.431654	-0.040119
O24	O	0.427916	0.431694	0.141745
O25	O	0.585659	0.533316	-0.040118
O26	O	0.497484	0.533347	0.141743
O27	O	0.427928	0.533356	0.141746
O28	O	0.585660	0.533325	0.040076
O29	O	0.427944	0.715176	-0.141771
O30	O	0.497463	0.351493	0.141741
O31	O	0.585641	0.351483	0.141736
O32	O	0.585640	0.351471	0.040074
O33	O	0.339768	0.715199	-0.040104
O34	O	0.427946	0.715188	-0.040108
O35	O	0.488653	0.473496	0.089754
O36	O	0.540561	0.473482	0.029904
O37	O	0.488665	0.593175	-0.029939
O38	O	0.436757	0.593188	0.029910
C39	C	0.462686	0.373354	-0.000017
C40	C	0.462680	0.319058	-0.000018
C41	C	0.489814	-0.017690	-0.031251
C42	C	0.489819	-0.068714	-0.031249
O43	O	0.512878	-0.095126	-0.057800
N44	N	0.462723	-0.094224	-0.000010
C45	C	0.435624	-0.068711	0.031236
O46	O	0.412578	-0.095095	0.057808
C47	C	0.435623	-0.017692	0.031237
C48	C	0.462717	0.007820	-0.000010
C49	C	0.516906	0.007821	-0.062495
C50	C	0.516900	0.058842	-0.062497
C51	C	0.489803	0.084352	-0.031256
C52	C	0.462711	0.058841	-0.000012
C53	C	0.408528	0.007816	0.062485
C54	C	0.408529	0.058839	0.062485
C55	C	0.435623	0.084350	0.031238
C56	C	0.435608	0.135373	0.031227
N57	N	0.462704	0.160882	-0.000013
C58	C	0.489801	0.135372	-0.031254
C59	C	0.435630	-0.175856	0.031231
C60	C	0.435628	-0.226871	0.031226
C61	C	0.489823	-0.226872	-0.031258
C62	C	0.489822	-0.175852	-0.031256
C63	C	0.462726	-0.150347	-0.000009
C64	C	0.489787	0.242520	-0.031257
C65	C	0.489777	0.293548	-0.031259
C66	C	0.435585	0.293542	0.031228
C67	C	0.435592	0.242521	0.031227
C68	C	0.462697	0.217010	-0.000017
O69	O	0.412562	0.161815	0.057766
O70	O	0.512849	0.161755	-0.057816
C71	C	0.323942	0.533351	-0.000009
C72	C	0.276848	0.533357	-0.000007
C73	C	-0.015158	0.533317	-0.044193
C74	C	-0.192145	0.533309	-0.044198
O75	O	-0.215018	0.533274	-0.081756
N76	N	-0.214275	0.533315	-0.000019
C77	C	-0.192154	0.533319	0.044166
O78	O	-0.215035	0.533318	0.081746
C79	C	-0.015166	0.533323	0.044172
C80	C	0.006959	0.533324	-0.000012
C81	C	0.006967	0.533317	-0.088374
C82	C	0.051209	0.533323	-0.088374
C83	C	0.073326	0.533329	-0.044194
C84	C	0.051201	0.533329	-0.000013
C85	C	0.006957	0.533322	0.088360
C86	C	0.051207	0.533322	0.088358
C87	C	0.073332	0.533322	0.044173
C88	C	0.117561	0.533342	0.044168
N89	N	0.139691	0.533335	-0.000011
C90	C	0.117574	0.533329	-0.044192
C91	C	-0.285075	0.533319	0.044159
C92	C	-0.329323	0.533319	0.044157
C93	C	-0.329310	0.533307	-0.044206
C94	C	-0.285064	0.533312	-0.044206
C95	C	-0.262945	0.533312	-0.000020
C96	C	0.210486	0.533342	-0.044189
C97	C	0.254731	0.533351	-0.044187
C98	C	0.254716	0.533359	0.044178
C99	C	0.210473	0.533354	0.044174
C100	C	0.188360	0.533343	-0.000012
O101	O	0.140465	0.533369	0.081710
O102	O	0.140469	0.533315	-0.081759
C103	C	-0.059401	0.533311	-0.044193
C104	C	-0.081526	0.533312	-0.000012
C105	C	-0.059409	0.533318	0.044169
C106	C	-0.125773	0.533312	-0.000014
C107	C	-0.147890	0.533306	-0.044195
C108	C	-0.125760	0.533299	-0.088373
C109	C	-0.081518	0.533305	-0.088373
C110	C	-0.081539	0.533325	0.088347
C111	C	-0.125781	0.533319	0.088344
C112	C	-0.147899	0.533313	0.044163
C113	C	0.601466	0.533318	-0.000022
C114	C	0.648560	0.533313	-0.000024
C115	C	0.462702	0.533316	-0.159998
C116	C	0.462701	0.533310	-0.214294
C117	C	0.462722	0.693315	-0.000013
C118	C	0.462728	0.747611	-0.000013
C119	C	0.435619	0.595825	-0.582266
C120	C	0.435621	0.595828	-0.633288
O121	O	0.412598	0.648964	-0.686243
N122	N	0.462709	0.533351	-0.627568
C123	C	0.489802	0.470865	-0.570821
O124	O	0.512843	0.417724	-0.570640
C125	C	0.489803	0.470862	-0.519800
C126	C	0.462709	0.533344	-0.525525
C127	C	0.408527	0.658301	-0.587989
C128	C	0.408525	0.658297	-0.536970
C129	C	0.435615	0.595816	-0.480228
C130	C	0.462707	0.533340	-0.474506
C131	C	0.516899	0.408377	-0.463054
C132	C	0.516898	0.408380	-0.412032
C133	C	0.489804	0.470861	-0.417757
C134	C	0.489794	0.470855	-0.366746
N135	N	0.462706	0.533333	-0.372466
C136	C	0.435616	0.595813	-0.429207
C137	C	0.489798	0.470877	-0.677970
C138	C	0.489794	0.470879	-0.728990
C139	C	0.435614	0.595842	-0.791454
C140	C	0.435615	0.595839	-0.740434
C141	C	0.462710	0.533354	-0.683691
C142	C	0.435613	0.595800	-0.322062
C143	C	0.435612	0.595790	-0.271035
C144	C	0.489794	0.470828	-0.208576
C145	C	0.489794	0.470837	-0.259597
C146	C	0.462702	0.533329	-0.316342
O147	O	0.512807	0.417747	-0.313772
O148	O	0.412584	0.648946	-0.429377
C149	C	0.462706	0.533354	0.159967
C150	C	0.462707	0.533360	0.214264
C151	C	0.601448	0.373338	-0.000023
C152	C	0.648536	0.319036	-0.000026
C153	C	0.462688	0.373373	0.159965
C154	C	0.462683	0.319084	0.214261
C155	C	0.601450	0.373357	0.159959
C156	C	0.648539	0.319062	0.214253
C157	C	0.323958	0.693313	-0.159989
C158	C	0.276869	0.747608	-0.214283
C159	C	0.323960	0.693332	-0.000007
C160	C	0.276872	0.747633	-0.000004
C161	C	0.462720	0.693297	-0.159996
C162	C	0.462725	0.747586	-0.214292
C163	C	0.643553	0.293535	-0.031271
C164	C	0.687793	0.242520	-0.031286
C165	C	0.737016	0.217004	-0.000052
C166	C	0.741998	0.242510	0.031194
C167	C	0.697759	0.293528	0.031205
C168	C	0.489776	0.293589	0.271003
C169	C	0.489769	0.242585	0.322025
C170	C	0.462671	0.217074	0.316303
C171	C	0.435574	0.242573	0.259556
C172	C	0.435578	0.293579	0.208535
C173	C	0.697753	0.293557	0.208509
C174	C	0.742002	0.242548	0.259518
C175	C	0.737037	0.217041	0.316272
C176	C	0.687818	0.242551	0.322015
C177	C	0.643569	0.293562	0.271005
C178	C	0.227655	0.773119	-0.208539
C179	C	0.183406	0.824144	-0.259549
C180	C	0.188371	0.849653	-0.316302
C181	C	0.237590	0.824141	-0.322045
C182	C	0.281839	0.773120	-0.271036
C183	C	0.281855	0.773140	0.031236
C184	C	0.237615	0.824169	0.031236
C185	C	0.188392	0.849687	0.000000
C186	C	0.183410	0.824179	-0.031244
C187	C	0.227649	0.773154	-0.031247
C188	C	0.489829	0.773082	-0.208551
C189	C	0.489844	0.824086	-0.259563
C190	C	0.462752	0.849597	-0.316315
C191	C	0.435648	0.824096	-0.322054
C192	C	0.435636	0.773090	-0.271043
H193	H	0.538974	-0.012947	-0.087934
H194	H	0.782074	0.221784	0.254832
O195	O	0.784727	0.161975	-0.000067
H196	H	0.808094	0.181549	-0.019623
H197	H	0.413591	0.844875	-0.368268
O198	O	0.140674	0.904717	0.000007
H199	H	0.117308	0.885138	0.019555
H200	H	0.701823	0.314284	0.056652
O201	O	0.278581	0.533356	0.091832
H202	H	0.278489	0.580068	0.070593
O203	O	0.406398	-0.254374	0.064921
H204	H	0.410946	-0.294136	0.059674
O205	O	0.379280	-0.019656	0.096169
H206	H	0.394927	-0.042889	0.144183
O207	O	0.462766	0.904616	-0.371330
H208	H	0.439377	0.918074	-0.411761
O209	O	0.784763	0.162014	0.371288
H210	H	0.819817	0.148562	0.357753
H211	H	0.603477	0.314310	-0.056714
O212	O	0.519080	0.851582	-0.253362
H213	H	0.491735	0.907861	-0.275113
H214	H	0.413563	0.752337	-0.275725
O215	O	0.186632	0.533343	-0.091852
H216	H	0.215386	0.486632	-0.089690
O217	O	0.242941	0.851659	-0.383260
H218	H	0.264420	0.808834	-0.388456
H219	H	-0.063507	0.533305	-0.124353
O220	O	0.130316	0.851709	-0.064932
H221	H	0.125805	0.808891	-0.046881
H222	H	-0.143777	0.533298	-0.124349
H223	H	0.223602	0.752352	-0.162332
H224	H	0.511840	0.314320	-0.056706
O225	O	-0.149639	0.533308	0.136009
H226	H	-0.126817	0.533302	0.166733
O227	O	0.406350	0.215054	0.253383
H228	H	0.422010	0.191807	0.228610
H229	H	0.241681	0.844929	0.056681
O230	O	0.682465	0.215028	0.383229
H231	H	0.721504	0.175264	0.417728
O232	O	0.519012	0.403485	-0.722809
H233	H	0.514462	0.413977	-0.767817
H234	H	0.603499	0.314321	0.275691
O235	O	0.546126	0.086352	-0.096195
H236	H	0.564971	0.060029	-0.117911
H237	H	0.683727	0.221760	-0.056730
O238	O	0.130323	0.851643	-0.253349
H239	H	0.134309	0.825318	-0.205314
H240	H	0.413553	0.646687	-0.368260
O241	O	0.334920	0.745597	-0.277234
H242	H	0.330933	0.771905	-0.325269
O243	O	-0.016885	0.533314	-0.136033
H244	H	-0.057301	0.580031	-0.161504
O245	O	0.379305	0.725688	-0.543147
H246	H	0.360474	0.769129	-0.591178
H247	H	0.152337	0.891197	-0.357832
O248	O	0.795090	0.214981	0.064888
H249	H	0.825011	0.175215	0.059634
O250	O	0.379304	0.725696	-0.649187
H251	H	0.360466	0.769132	-0.644583
H252	H	0.321931	0.752367	0.056676
H253	H	0.511843	0.314355	0.275673
O254	O	0.222272	0.745638	-0.064937
H255	H	0.180611	0.771954	-0.086649
O256	O	0.519006	0.215076	0.383227
H257	H	0.537858	0.241377	0.378629
O258	O	0.519059	0.745565	-0.147345
H259	H	0.503415	0.788391	-0.142153
O260	O	0.519015	0.215015	-0.064961
H261	H	0.537845	0.241339	-0.086690
O262	O	-0.353169	0.533301	-0.091861
H263	H	-0.353066	0.486581	-0.070612
H264	H	0.511884	-0.155084	-0.056700
H265	H	0.462672	0.175541	0.357852
O266	O	0.519030	0.403483	-0.616764
H267	H	0.491684	0.400488	-0.592012
O268	O	0.519055	-0.254395	-0.064952
H269	H	0.514507	-0.294162	-0.059695
H270	H	0.413560	-0.155088	0.056673
H271	H	0.413523	0.221756	0.056663
O272	O	0.379312	0.086354	0.096189
H273	H	0.337667	0.109600	0.078143
O274	O	0.406390	0.321024	0.064959
H275	H	0.410957	0.360771	0.059724
H276	H	0.701805	0.314317	0.162302
O277	O	0.278596	0.533348	-0.091844
H278	H	0.255784	0.533336	-0.122560
H279	H	-0.347338	0.533330	0.080131
O280	O	0.075074	0.533316	-0.136027
H281	H	0.052258	0.533304	-0.166741
H282	H	-0.011051	0.533322	0.124339
O283	O	-0.261198	0.533305	-0.091858
H284	H	-0.284015	0.533298	-0.122576
H285	H	-0.267069	0.533320	0.080142
O286	O	0.075066	0.533320	0.136018
H287	H	0.046315	0.580039	0.133847
O288	O	0.186604	0.533356	0.091827
H289	H	0.209420	0.533358	0.122550
H290	H	-0.063534	0.533328	0.124325
O291	O	0.406388	0.663183	-0.277210
H292	H	0.387556	0.706629	-0.325240
H293	H	0.413555	0.646717	-0.837664
O294	O	0.406396	0.663228	-0.746608
H295	H	0.387562	0.706672	-0.794639
H296	H	0.413517	0.314330	0.162335
H297	H	0.538963	0.357496	-0.365830
O298	O	0.546149	0.340976	-0.456855
H299	H	0.530508	0.310994	-0.432072
O300	O	0.519014	0.403449	-0.253429
H301	H	0.537853	0.360002	-0.205399
H302	H	0.511848	0.419957	-0.162369
