data_functionalizedCrystal
_audit_creation_method	'MofGen! by Chris Wilmer'
_symmetry_space_group_name_H-M	'P1'
_symmetry_Int_Tables_number	1
_symmetry_cell_setting	triclinic
loop_
_symmetry_equiv_pos_as_xyz
  x,y,z
_cell_length_a	17.699097
_cell_length_b	12.837938
_cell_length_c	16.176319
_cell_angle_alpha	89.990327
_cell_angle_beta	89.992685
_cell_angle_gamma	90.941465
loop_
_atom_site_label
_atom_site_type_symbol
_atom_site_fract_x
_atom_site_fract_y
_atom_site_fract_z
O1	O	1.013702	-0.131114	-0.068811
O2	O	1.513702	0.368886	0.431189
O3	O	0.794577	-0.148152	-0.068797
O4	O	1.294577	0.351848	0.431203
O5	O	0.899281	0.011258	-0.068804
O6	O	1.399281	0.511258	0.431196
O7	O	0.908998	-0.290524	-0.068804
O8	O	1.408998	0.209476	0.431196
O9	O	0.899272	0.011229	0.068689
O10	O	1.399272	0.511229	0.568689
O11	O	0.794568	-0.148181	0.068696
O12	O	1.294568	0.351819	0.568696
O13	O	1.013693	-0.131143	0.068682
O14	O	1.513693	0.368857	0.568682
Cu15	Cu	0.904129	-0.139664	0.081244
Cu16	Cu	1.404129	0.360336	0.581244
Cu17	Cu	0.904140	-0.139630	-0.081358
Cu18	Cu	1.404140	0.360370	0.418642
O19	O	0.908989	-0.290553	0.068690
O20	O	1.408989	0.209447	0.568690
C21	C	0.766330	-0.147553	-0.000048
C22	C	1.266330	0.352447	0.499952
C23	C	0.682178	-0.145715	-0.000043
C24	C	1.182178	0.354285	0.499957
C25	C	0.895993	0.049856	-0.000059
C26	C	1.395993	0.549856	0.499941
C27	C	0.886203	0.164909	-0.000064
C28	C	1.386203	0.664909	0.499936
C29	C	0.165636	-0.134430	-0.075024
C30	C	0.665636	0.365570	0.424976
C31	C	0.244707	-0.136150	-0.075020
C32	C	0.744707	0.363850	0.424980
C33	C	0.284231	-0.137028	-0.000069
C34	C	0.784231	0.362972	0.499931
C35	C	0.244681	-0.136174	0.074883
C36	C	0.744681	0.363826	0.574883
C37	C	0.165612	-0.134447	0.074878
C38	C	0.665612	0.365553	0.574878
C39	C	0.563557	-0.143141	0.074904
C40	C	1.063557	0.356859	0.574904
C41	C	0.642631	-0.144872	0.074904
C42	C	1.142631	0.355128	0.574904
C43	C	0.642652	-0.144845	-0.074993
C44	C	1.142652	0.355155	0.425007
C45	C	0.563583	-0.143117	-0.074998
C46	C	1.063583	0.356883	0.425002
C47	C	0.524040	-0.142258	-0.000047
C48	C	1.024040	0.357742	0.499953
C49	C	0.438303	-0.140391	-0.000052
C50	C	0.938303	0.359609	0.499948
C51	C	0.369967	-0.138903	-0.000063
C52	C	0.869967	0.361097	0.499937
C53	C	1.003907	0.406157	-0.000097
C54	C	1.503907	0.906157	0.499903
C55	C	0.994712	0.514260	-0.000102
C56	C	1.494712	1.014260	0.499898
C57	C	0.858617	0.489221	-0.000084
C58	C	1.358617	0.989221	0.499916
C59	C	0.867812	0.381118	-0.000079
C60	C	1.367812	0.881118	0.499921
C61	C	0.940460	0.339590	-0.000085
C62	C	1.440460	0.839590	0.499915
C63	C	0.949655	0.231484	-0.000074
C64	C	1.449655	0.731484	0.499926
C65	C	0.813560	0.206448	-0.000062
C66	C	1.313560	0.706448	0.499938
C67	C	0.804365	0.314551	-0.000067
C68	C	1.304365	0.814551	0.499933
C69	C	1.041939	-0.131741	-0.000068
C70	C	1.541939	0.368259	0.499932
C71	C	1.126092	-0.133580	-0.000078
C72	C	1.626092	0.366420	0.499922
N73	N	0.904127	-0.139688	0.195609
N74	N	1.404127	0.360312	0.695609
C75	C	0.912277	0.670849	-0.000066
C76	C	1.412277	1.170849	0.499934
C77	C	0.922069	0.555796	-0.000094
C78	C	1.422069	1.055796	0.499906
N79	N	0.904148	-0.139599	-0.195723
N80	N	1.404148	0.360401	0.304277
C81	C	0.853718	-0.076822	0.761002
C82	C	1.353718	0.423178	1.261002
C83	C	0.853718	-0.076830	0.674455
C84	C	1.353718	0.423170	1.174455
C85	C	0.904143	-0.139621	0.631184
C86	C	1.404143	0.360379	1.131184
C87	C	0.954577	-0.202401	0.674465
C88	C	1.454577	0.297599	1.174465
C89	C	0.954581	-0.202386	0.761011
C90	C	1.454581	0.297614	1.261011
C91	C	0.954563	-0.202459	0.325437
C92	C	1.454563	0.297541	0.825437
C93	C	0.954553	-0.202471	0.238885
C94	C	1.454553	0.297529	0.738885
C95	C	0.853699	-0.076903	0.238881
C96	C	1.353699	0.423097	0.738881
C97	C	0.853703	-0.076888	0.325426
C98	C	1.353703	0.423112	0.825426
C99	C	0.904140	-0.139663	0.368700
C100	C	1.404140	0.360337	0.868700
C101	C	0.904141	-0.139652	0.462544
C102	C	1.404141	0.360348	0.962544
C103	C	0.904138	-0.139638	0.537342
C104	C	1.404138	0.360362	1.037342
H105	H	0.133461	-0.133723	-0.136058
H106	H	0.633461	0.366277	0.363942
F107	F	1.008238	-0.269276	0.371481
F108	F	1.508238	0.230724	0.871481
F109	F	0.286790	-0.137051	-0.154788
F110	F	0.786790	0.362949	0.345212
H111	H	1.046377	0.568456	-0.000115
H112	H	1.546377	1.068456	0.499885
H113	H	1.008808	0.197675	-0.000075
H114	H	1.508808	0.697675	0.499925
F115	F	0.746031	0.135595	-0.000040
F116	F	1.246031	0.635595	0.499960
H117	H	0.995646	-0.253505	0.796244
H118	H	1.495646	0.246495	1.296244
H119	H	0.799470	0.523053	-0.000089
H120	H	1.299470	1.023053	0.499911
H121	H	1.063060	0.372344	-0.000093
H122	H	1.563060	0.872344	0.499907
H123	H	0.995618	-0.253606	0.203657
H124	H	1.495618	0.246394	0.703657
H125	H	0.531406	-0.142408	-0.136031
H126	H	1.031406	0.357592	0.363969
F127	F	0.684743	-0.145752	-0.154764
F128	F	1.184743	0.354248	0.345236
F129	F	0.684695	-0.145805	0.154681
F130	F	1.184695	0.354195	0.654681
F131	F	0.123527	-0.133534	0.154645
F132	F	0.623527	0.366466	0.654645
H133	H	0.995638	-0.253521	0.639228
H134	H	1.495638	0.246479	1.139228
H135	H	0.812653	-0.025695	0.796226
H136	H	1.312653	0.474305	1.296226
F137	F	0.521482	-0.142249	0.154674
F138	F	1.021482	0.357751	0.654674
H139	H	0.812655	-0.025708	0.639224
H140	H	1.312655	0.474292	1.139224
H141	H	0.276868	-0.136882	0.135909
H142	H	0.776868	0.363118	0.635909
F143	F	0.800031	-0.010062	0.371474
F144	F	1.300031	0.489938	0.871474
H145	H	0.745217	0.348379	-0.000066
H146	H	1.245217	0.848379	0.499934
H147	H	0.812633	-0.025785	0.203637
H148	H	1.312633	0.474215	0.703637
