data_functionalizedCrystal
_audit_creation_method	'MofGen! by Chris Wilmer'
_symmetry_space_group_name_H-M	'P1'
_symmetry_Int_Tables_number	1
_symmetry_cell_setting	triclinic
loop_
_symmetry_equiv_pos_as_xyz
  x,y,z
_cell_length_a	14.908571
_cell_length_b	18.050589
_cell_length_c	14.908308
_cell_angle_alpha	86.730698
_cell_angle_beta	89.824947
_cell_angle_gamma	86.724558
loop_
_atom_site_label
_atom_site_type_symbol
_atom_site_fract_x
_atom_site_fract_y
_atom_site_fract_z
Zn1	Zn	1.345230	-0.387558	0.587600
Zn2	Zn	1.353791	-0.505024	0.437245
Zn3	Zn	1.203548	-0.373294	0.428597
Zn4	Zn	1.194819	-0.504142	0.578897
O5	O	1.274347	-0.442504	0.508085
O6	O	1.472191	-0.409479	0.574916
O7	O	1.341097	-0.481949	0.310273
O8	O	1.222413	-0.271266	0.449712
O9	O	1.478480	-0.495781	0.464452
O10	O	1.326506	-0.281746	0.566530
O11	O	1.230714	-0.385168	0.303919
O12	O	1.076565	-0.384312	0.441273
O13	O	1.207536	-0.494277	0.705876
O14	O	1.070152	-0.480446	0.551698
O15	O	1.318042	-0.408624	0.712270
O16	O	1.332633	-0.608827	0.456013
O17	O	1.215836	-0.608179	0.560084
C18	C	1.040734	-0.430736	0.494603
C19	C	0.940791	-0.425720	0.488857
C20	C	1.274239	-0.635451	0.508063
C21	C	1.274274	-0.717999	0.508089
C22	C	0.746369	-0.516539	0.592890
C23	C	0.652464	-0.511829	0.587494
C24	C	0.659075	-0.411586	0.472674
C25	C	0.752980	-0.416296	0.478070
C26	C	0.796623	-0.468775	0.538179
C27	C	0.890530	-0.473489	0.543570
C28	C	0.897139	-0.373243	0.428755
C29	C	0.803235	-0.368533	0.423359
C30	C	1.210820	-0.917126	0.564665
C31	C	1.193639	-0.961795	0.481356
C32	C	1.274362	-0.869134	0.508106
C33	C	1.291586	-0.971550	0.591427
C34	C	1.274444	-1.015125	0.508129
C35	C	1.257140	-0.912712	0.424750
C36	C	1.355122	-0.922467	0.534880
C37	C	1.337975	-0.967112	0.451515
C38	C	1.274312	-0.785033	0.508094
C39	C	1.274495	-1.099224	0.508132
C40	C	1.508873	-0.454320	0.521619
C41	C	1.608814	-0.459355	0.527387
C42	C	1.260860	-0.452943	0.742610
C43	C	1.255113	-0.457391	0.842551
C44	C	1.274479	-0.248807	0.508127
C45	C	1.274535	-0.166265	0.508145
C46	C	1.287833	-0.432055	0.274474
C47	C	1.293755	-0.427407	0.174544
C48	C	1.359381	-0.376542	1.037010
C49	C	1.353984	-0.380719	1.130914
C50	C	1.238917	-0.469919	1.124263
C51	C	1.244314	-0.465741	1.030360
C52	C	1.304549	-0.419052	0.986737
C53	C	1.309951	-0.414880	0.892832
C54	C	1.194880	-0.504075	0.886183
C55	C	1.189483	-0.508252	0.980086
H56	H	0.926063	-0.516221	0.592512
H57	H	1.408431	-0.338530	1.001492
H58	H	1.125381	-0.979255	0.458730
O59	O	1.436492	-0.901506	0.561855
C60	C	1.435537	-0.823305	0.560686
H61	H	1.381298	-0.798363	0.512410
H62	H	1.503801	-0.804050	0.537604
H63	H	1.420741	-0.804268	0.631097
O64	O	1.402032	-0.993081	0.394273
C65	C	1.383586	-0.962776	0.306568
H66	H	1.309082	-0.945214	0.300491
H67	H	1.401699	-1.006316	0.256060
H68	H	1.425059	-0.912294	0.292233
O69	O	1.141478	-0.545329	0.837434
C70	C	1.050554	-0.525593	0.855193
H71	H	1.044787	-0.499986	0.923272
H72	H	1.010015	-0.577300	0.856066
H73	H	1.023335	-0.483535	0.800603
H74	H	1.242524	-0.887110	0.354272
H75	H	0.781904	-0.559273	0.641828
H76	H	1.306123	-0.997236	0.661882
H77	H	0.611550	-0.550721	0.632047
H78	H	0.767687	-0.325804	0.374423
O79	O	1.368360	-0.369416	0.850490
C80	C	1.347442	-0.295437	0.872336
H81	H	1.274128	-0.289226	0.894005
H82	H	1.358758	-0.256389	0.811037
H83	H	1.392524	-0.280876	0.929630
O84	O	1.407211	-0.339316	1.179647
C85	C	1.388907	-0.263291	1.155595
H86	H	1.358260	-0.256981	1.085423
H87	H	1.454004	-0.233114	1.156129
H88	H	1.339658	-0.238302	1.205784
O89	O	1.180473	-0.515243	1.166790
C90	C	1.187445	-0.509788	1.260450
H91	H	1.256119	-0.489541	1.277283
H92	H	1.179240	-0.566686	1.295790
H93	H	1.132614	-0.468726	1.284014
O94	O	0.616721	-0.360500	0.414393
C95	C	0.638603	-0.288551	0.435514
H96	H	0.660304	-0.289399	0.508839
H97	H	0.577313	-0.248399	0.424300
H98	H	0.695883	-0.269675	0.390484
O99	O	0.945858	-0.326735	0.375646
C100	C	0.921828	-0.252473	0.394142
H101	H	0.851669	-0.249092	0.424794
H102	H	0.922341	-0.216046	0.329130
H103	H	0.972041	-0.232230	0.443456
O104	O	1.131101	-0.553690	1.022514
C105	C	1.179141	-0.606633	1.079796
H106	H	1.251583	-0.613524	1.055582
H107	H	1.146528	-0.662196	1.078978
H108	H	1.178160	-0.586991	1.151145
H109	H	1.157015	-0.895182	0.612419
