data_functionalizedCrystal
_audit_creation_method	'MofGen! by Chris Wilmer'
_symmetry_space_group_name_H-M	'P1'
_symmetry_Int_Tables_number	1
_symmetry_cell_setting	triclinic
loop_
_symmetry_equiv_pos_as_xyz
  x,y,z
_cell_length_a	19.188905
_cell_length_b	19.288865
_cell_length_c	17.766277
_cell_angle_alpha	90.011603
_cell_angle_beta	89.983513
_cell_angle_gamma	96.864599
loop_
_atom_site_label
_atom_site_type_symbol
_atom_site_fract_x
_atom_site_fract_y
_atom_site_fract_z
O1	O	0.926154	-0.086635	-0.062727
O2	O	0.722840	-0.098327	-0.062702
O3	O	0.830372	0.008649	-0.062700
O4	O	0.818622	-0.193611	-0.062729
O5	O	0.830353	0.008655	0.062488
O6	O	0.722821	-0.098321	0.062486
O7	O	0.926135	-0.086630	0.062462
Cu8	Cu	0.824476	-0.092475	0.073905
Cu9	Cu	0.824499	-0.092481	-0.074145
O10	O	0.818603	-0.193606	0.062460
C11	C	0.696819	-0.097948	-0.000105
C12	C	0.619314	-0.096821	-0.000095
C13	C	0.582932	-0.096282	-0.068337
C14	C	0.510108	-0.095214	-0.068346
C15	C	0.473671	-0.094672	-0.000109
C16	C	0.510061	-0.095214	0.068142
C17	C	0.582882	-0.096289	0.068149
N18	N	0.364646	-0.053455	0.050679
N19	N	0.295469	-0.052433	0.050667
C20	C	0.254265	-0.091436	-0.000127
N21	N	0.284851	-0.131491	-0.050920
N22	N	0.354035	-0.132510	-0.050911
C23	C	0.394709	-0.093507	-0.000109
C24	C	0.138919	-0.089741	-0.068384
C25	C	0.066094	-0.088677	-0.068390
C26	C	0.066049	-0.088671	0.068100
C27	C	0.138872	-0.089741	0.068104
C28	C	0.175303	-0.090272	-0.000140
C29	C	0.829984	0.034529	-0.000104
C30	C	0.828849	0.111632	-0.000097
C31	C	0.952156	-0.087008	-0.000138
C32	C	1.029661	-0.088136	-0.000153
C33	C	0.818991	-0.219485	-0.000138
C34	C	0.820126	-0.296589	-0.000150
N35	N	0.824466	-0.092470	0.178035
C36	C	0.891944	0.156329	-0.000101
C37	C	0.890878	0.228776	-0.000113
C38	C	0.826713	0.256523	-0.000105
C39	C	0.763610	0.211816	-0.000106
C40	C	0.764678	0.139371	-0.000102
C41	C	0.776266	0.364812	0.043751
C42	C	0.775200	0.437256	0.043752
C43	C	0.823417	0.479969	-0.000122
C44	C	0.872710	0.450229	-0.043986
C45	C	0.873778	0.377784	-0.043982
C46	C	0.825548	0.335077	-0.000111
C47	C	0.885360	0.603222	-0.000140
C48	C	0.884291	0.675670	-0.000156
C49	C	0.757021	0.658708	-0.000142
C50	C	0.758092	0.586261	-0.000133
C51	C	0.822263	0.558523	-0.000128
N52	N	0.824515	-0.092481	-0.178276
C53	C	0.872096	-0.045124	0.217423
C54	C	0.872100	-0.045121	0.296225
C55	C	0.824480	-0.092476	0.335636
C56	C	0.776841	-0.139825	0.296238
C57	C	0.776834	-0.139822	0.217438
C58	C	0.815133	-0.155763	0.460465
C59	C	0.815145	-0.155767	0.539264
C60	C	0.824499	-0.092484	0.578682
C61	C	0.833855	-0.029194	0.539291
C62	C	0.833848	-0.029192	0.460491
C63	C	0.824483	-0.092484	0.421081
C64	C	0.872137	-0.045131	0.703516
C65	C	0.872136	-0.045126	0.782319
C66	C	0.776880	-0.139837	0.782331
C67	C	0.776877	-0.139835	0.703529
C68	C	0.824509	-0.092483	0.664126
H69	H	0.168495	-0.090175	0.123675
H70	H	0.612503	-0.096728	0.123722
H71	H	0.480389	-0.094774	0.123701
Cl72	Cl	0.184721	-0.090416	-0.154174
Cl73	Cl	0.676356	0.693582	-0.000137
H74	H	0.944198	0.133750	-0.000100
Cl75	Cl	0.628727	-0.096954	-0.154129
Cl76	Cl	0.931972	0.014407	0.167888
Cl77	Cl	0.966030	0.568347	-0.000130
Cl78	Cl	0.803388	-0.235330	0.588776
Cl79	Cl	0.020248	-0.087995	0.153885
Cl80	Cl	0.717000	-0.199362	0.654008
H81	H	0.942259	0.265176	-0.000119
H82	H	0.935673	0.712062	-0.000164
H83	H	0.913913	0.353573	-0.079700
Cl84	Cl	0.678768	0.530067	-0.000124
Cl85	Cl	0.713235	0.474636	0.098898
H86	H	0.737000	0.330040	0.079483
H87	H	0.711367	0.234412	-0.000102
H88	H	0.738067	-0.178381	0.328331
H89	H	0.036473	-0.088243	-0.123963
H90	H	0.841472	0.022337	0.571383
H91	H	0.911972	0.485005	-0.079713
H92	H	0.713297	0.102977	-0.000098
H93	H	0.910888	-0.006565	0.328300
H94	H	0.738104	-0.178391	0.814419
Cl95	Cl	0.845602	0.050368	0.410973
Cl96	Cl	0.932013	0.014401	0.653979
Cl97	Cl	0.932015	0.014403	0.831838
Cl98	Cl	0.803439	-0.235329	0.410920
H99	H	0.480481	-0.094777	-0.123919
Cl100	Cl	0.716951	-0.199349	0.167919
