data_functionalizedCrystal
_audit_creation_method	'MofGen! by Chris Wilmer'
_symmetry_space_group_name_H-M	'P1'
_symmetry_Int_Tables_number	1
_symmetry_cell_setting	triclinic
loop_
_symmetry_equiv_pos_as_xyz
  x,y,z
_cell_length_a	16.625546
_cell_length_b	19.805407
_cell_length_c	19.805399
_cell_angle_alpha	89.982197
_cell_angle_beta	89.972133
_cell_angle_gamma	90.019784
loop_
_atom_site_label
_atom_site_type_symbol
_atom_site_fract_x
_atom_site_fract_y
_atom_site_fract_z
Zn1	Zn	-0.321078	1.034754	-0.382686
Zn2	Zn	-0.071078	1.284754	-0.132686
Zn3	Zn	0.178922	1.534754	0.117314
Zn4	Zn	0.428922	1.784754	0.367314
Zn5	Zn	-0.455915	1.034677	-0.269498
Zn6	Zn	-0.205915	1.284677	-0.019498
Zn7	Zn	0.044085	1.534677	0.230502
Zn8	Zn	0.294085	1.784677	0.480502
Zn9	Zn	-0.321094	0.921569	-0.269514
Zn10	Zn	-0.071094	1.171569	-0.019514
Zn11	Zn	0.178906	1.421569	0.230486
Zn12	Zn	0.428906	1.671569	0.480486
Zn13	Zn	-0.455866	0.921540	-0.382648
Zn14	Zn	-0.205866	1.171540	-0.132648
Zn15	Zn	0.044134	1.421540	0.117352
Zn16	Zn	0.294134	1.671540	0.367352
O17	O	-0.388488	0.978135	-0.326086
O18	O	-0.138488	1.228135	-0.076086
O19	O	0.111512	1.478135	0.173914
O20	O	0.361512	1.728135	0.423914
O21	O	-0.338978	1.129460	-0.367681
O22	O	-0.088978	1.379460	-0.117681
O23	O	0.161022	1.629460	0.132319
O24	O	0.411022	1.879460	0.382319
O25	O	-0.438058	1.019652	-0.174783
O26	O	-0.188058	1.269652	0.075217
O27	O	0.061942	1.519652	0.325217
O28	O	0.311942	1.769652	0.575217
O29	O	-0.208259	0.936628	-0.284550
O30	O	0.041741	1.186628	-0.034550
O31	O	0.291741	1.436628	0.215450
O32	O	0.541741	1.686628	0.465450
O33	O	-0.438043	1.129404	-0.284521
O34	O	-0.188043	1.379404	-0.034521
O35	O	0.061957	1.629404	0.215479
O36	O	0.311957	1.879404	0.465479
O37	O	-0.208248	1.019784	-0.367697
O38	O	0.041752	1.269784	-0.117697
O39	O	0.291752	1.519784	0.132303
O40	O	0.541752	1.769784	0.382303
O41	O	-0.339006	0.936552	-0.174796
O42	O	-0.089006	1.186552	0.075204
O43	O	0.160994	1.436552	0.325204
O44	O	0.410994	1.686552	0.575204
O45	O	-0.338958	0.826848	-0.284513
O46	O	-0.088958	1.076848	-0.034513
O47	O	0.161042	1.326848	0.215487
O48	O	0.411042	1.576848	0.465487
O49	O	-0.437959	0.936579	-0.477369
O50	O	-0.187959	1.186579	-0.227369
O51	O	0.062041	1.436579	0.022631
O52	O	0.312041	1.686579	0.272631
O53	O	-0.437974	0.826827	-0.367631
O54	O	-0.187974	1.076827	-0.117631
O55	O	0.062026	1.326827	0.132369
O56	O	0.312026	1.576827	0.382369
O57	O	-0.338931	1.019756	-0.477398
O58	O	-0.088931	1.269756	-0.227398
O59	O	0.161069	1.519756	0.022602
O60	O	0.411069	1.769756	0.272602
O61	O	-0.568741	1.019625	-0.284484
O62	O	-0.318741	1.269625	-0.034484
O63	O	-0.068741	1.519625	0.215516
O64	O	0.181259	1.769625	0.465516
O65	O	-0.568705	0.936504	-0.367615
O66	O	-0.318705	1.186504	-0.117615
O67	O	-0.068705	1.436504	0.132385
O68	O	0.181295	1.686504	0.382385
C69	C	-0.388463	0.802279	-0.326070
C70	C	-0.138463	1.052279	-0.076070
C71	C	0.111537	1.302279	0.173930
C72	C	0.361537	1.552279	0.423930
C73	C	-0.388472	0.727047	-0.326079
C74	C	-0.138472	0.977047	-0.076079
C75	C	0.111528	1.227047	0.173921
C76	C	0.361528	1.477047	0.423921
C77	C	-0.336980	0.691733	-0.369446
C78	C	-0.086980	0.941733	-0.119446
C79	C	0.163020	1.191733	0.130554
C80	C	0.413020	1.441733	0.380554
C81	C	-0.336984	0.621045	-0.369449
C82	C	-0.086984	0.871045	-0.119449
C83	C	0.163016	1.121045	0.130551
C84	C	0.413016	1.371045	0.380551
C85	C	-0.388485	0.585671	-0.326087
C86	C	-0.138485	0.835671	-0.076087
C87	C	0.111515	1.085671	0.173913
C88	C	0.361515	1.335671	0.423913
C89	C	-0.439979	0.620990	-0.282716
C90	C	-0.189979	0.870990	-0.032716
C91	C	0.060021	1.120990	0.217284
C92	C	0.310021	1.370990	0.467284
C93	C	-0.439970	0.691677	-0.282710
C94	C	-0.189970	0.941677	-0.032710
C95	C	0.060030	1.191677	0.217290
C96	C	0.310030	1.441677	0.467290
C97	C	-0.440015	0.335917	-0.282736
C98	C	-0.190015	0.585917	-0.032736
C99	C	0.059985	0.835917	0.217264
C100	C	0.309985	1.085917	0.467264
C101	C	-0.440022	0.265225	-0.282747
C102	C	-0.190022	0.515225	-0.032747
C103	C	0.059978	0.765225	0.217253
C104	C	0.309978	1.015225	0.467253
C105	C	-0.337030	0.265284	-0.369475
C106	C	-0.087030	0.515284	-0.119475
C107	C	0.162970	0.765284	0.130525
C108	C	0.412970	1.015284	0.380525
C109	C	-0.337021	0.335971	-0.369469
C110	C	-0.087021	0.585971	-0.119469
C111	C	0.162979	0.835971	0.130531
C112	C	0.412979	1.085971	0.380531
C113	C	-0.388511	0.371284	-0.326095
C114	C	-0.138511	0.621284	-0.076095
C115	C	0.111489	0.871284	0.173905
C116	C	0.361489	1.121284	0.423905
C117	C	-0.388505	0.447932	-0.326092
C118	C	-0.138505	0.697932	-0.076092
C119	C	0.111495	0.947932	0.173908
C120	C	0.361495	1.197932	0.423908
C121	C	-0.388496	0.509024	-0.326093
C122	C	-0.138496	0.759024	-0.076093
C123	C	0.111504	1.009024	0.173907
C124	C	0.361504	1.259024	0.423907
C125	C	-0.597979	0.978071	-0.326058
C126	C	-0.347979	1.228071	-0.076058
C127	C	-0.097979	1.478071	0.173942
C128	C	0.152021	1.728071	0.423942
C129	C	-0.687600	0.978105	-0.326069
C130	C	-0.437600	1.228105	-0.076069
C131	C	-0.187600	1.478105	0.173931
C132	C	0.062400	1.728105	0.423931
C133	C	-1.015776	0.978224	-0.326139
C134	C	-0.765776	1.228224	-0.076139
C135	C	-0.515776	1.478224	0.173861
C136	C	-0.265776	1.728224	0.423861
C137	C	-0.924467	0.978189	-0.326121
C138	C	-0.674467	1.228189	-0.076121
C139	C	-0.424467	1.478189	0.173879
C140	C	-0.174467	1.728189	0.423879
C141	C	-0.851691	0.978164	-0.326104
C142	C	-0.601691	1.228164	-0.076104
C143	C	-0.351691	1.478164	0.173896
C144	C	-0.101691	1.728164	0.423896
C145	C	-0.760377	0.978130	-0.326087
C146	C	-0.510377	1.228130	-0.076087
C147	C	-0.260377	1.478130	0.173913
C148	C	-0.010377	1.728130	0.423913
C149	C	-0.178179	0.978218	-0.326130
C150	C	0.071821	1.228218	-0.076130
C151	C	0.321821	1.478218	0.173870
C152	C	0.571821	1.728218	0.423870
C153	C	-0.088558	0.978253	-0.326148
C154	C	0.161442	1.228253	-0.076148
C155	C	0.411442	1.478253	0.173852
C156	C	0.661442	1.728253	0.423852
C157	C	-0.388438	0.978173	-0.502629
C158	C	-0.138438	1.228173	-0.252629
C159	C	0.111562	1.478173	-0.002629
C160	C	0.361562	1.728173	0.247371
C161	C	-0.388416	0.978189	-0.577861
C162	C	-0.138416	1.228189	-0.327861
C163	C	0.111584	1.478189	-0.077861
C164	C	0.361584	1.728189	0.172139
C165	C	-0.388514	1.154678	-0.326103
C166	C	-0.138514	1.404678	-0.076103
C167	C	0.111486	1.654678	0.173897
C168	C	0.361486	1.904678	0.423897
C169	C	-0.388525	1.229910	-0.326111
C170	C	-0.138525	1.479910	-0.076111
C171	C	0.111475	1.729910	0.173889
C172	C	0.361475	1.979910	0.423889
C173	C	-0.336849	1.021501	-0.613221
C174	C	-0.086849	1.271501	-0.363221
C175	C	0.163151	1.521501	-0.113221
C176	C	0.413151	1.771501	0.136779
C177	C	-0.336826	1.021508	-0.683910
C178	C	-0.086826	1.271508	-0.433910
C179	C	0.163174	1.521508	-0.183910
C180	C	0.413174	1.771508	0.066090
C181	C	-0.388374	0.978206	-0.719237
C182	C	-0.138374	1.228206	-0.469237
C183	C	0.111626	1.478206	-0.219237
C184	C	0.361626	1.728206	0.030763
C185	C	-0.439943	0.934889	-0.683872
C186	C	-0.189943	1.184889	-0.433872
C187	C	0.060057	1.434889	-0.183872
C188	C	0.310057	1.684889	0.066128
C189	C	-0.439961	0.934880	-0.613185
C190	C	-0.189961	1.184880	-0.363185
C191	C	0.060039	1.434880	-0.113185
C192	C	0.310039	1.684880	0.136815
C193	C	-0.439867	0.934928	-0.968945
C194	C	-0.189867	1.184928	-0.718945
C195	C	0.060133	1.434928	-0.468945
C196	C	0.310133	1.684928	-0.218945
C197	C	-0.439846	0.934942	-1.039638
C198	C	-0.189846	1.184942	-0.789638
C199	C	0.060154	1.434942	-0.539638
C200	C	0.310154	1.684942	-0.289638
C201	C	-0.336732	1.021556	-1.039670
C202	C	-0.086732	1.271556	-0.789670
C203	C	0.163268	1.521556	-0.539670
C204	C	0.413268	1.771556	-0.289670
C205	C	-0.336751	1.021546	-0.968983
C206	C	-0.086751	1.271546	-0.718983
C207	C	0.163249	1.521546	-0.468983
C208	C	0.413249	1.771546	-0.218983
C209	C	-0.388316	0.978227	-0.933624
C210	C	-0.138316	1.228227	-0.683624
C211	C	0.111684	1.478227	-0.433624
C212	C	0.361684	1.728227	-0.183624
C213	C	-0.388340	0.978219	-0.856976
C214	C	-0.138340	1.228219	-0.606976
C215	C	0.111660	1.478219	-0.356976
C216	C	0.361660	1.728219	-0.106976
C217	C	-0.388355	0.978217	-0.795884
C218	C	-0.138355	1.228217	-0.545884
C219	C	0.111645	1.478217	-0.295884
C220	C	0.361645	1.728217	-0.045884
C221	C	-0.388481	0.978136	-0.150231
C222	C	-0.138481	1.228136	0.099769
C223	C	0.111519	1.478136	0.349769
C224	C	0.361519	1.728136	0.599769
C225	C	-0.388275	0.978251	-0.074999
C226	C	-0.138275	1.228251	0.175001
C227	C	0.111725	1.478251	0.425001
C228	C	0.361725	1.728251	0.675001
H229	H	-0.295056	0.592295	-0.404764
H230	H	-0.045056	0.842295	-0.154764
H231	H	0.204944	1.092295	0.095236
H232	H	0.454944	1.342295	0.345236
Cl233	Cl	-0.272295	0.220887	-0.424001
Cl234	Cl	-0.022295	0.470887	-0.174001
Cl235	Cl	0.227705	0.720887	0.075999
Cl236	Cl	0.477705	0.970887	0.325999
Cl237	Cl	-0.271948	1.075987	-0.924576
Cl238	Cl	-0.021948	1.325987	-0.674576
Cl239	Cl	0.228052	1.575987	-0.424576
Cl240	Cl	0.478052	1.825987	-0.174576
Cl241	Cl	-0.272032	1.075989	-0.728359
Cl242	Cl	-0.022032	1.325989	-0.478359
Cl243	Cl	0.227968	1.575989	-0.228359
Cl244	Cl	0.477968	1.825989	0.021641
H245	H	-0.294742	1.056826	-1.068468
H246	H	-0.044742	1.306826	-0.818468
H247	H	0.205258	1.556826	-0.568468
H248	H	0.455258	1.806826	-0.318468
H249	H	-0.481961	0.236426	-0.247434
H250	H	-0.231961	0.486426	0.002566
H251	H	0.018039	0.736426	0.252566
H252	H	0.268039	0.986426	0.502566
H253	H	-0.481899	0.720429	-0.247396
H254	H	-0.231899	0.970429	0.002604
H255	H	0.018101	1.220429	0.252604
H256	H	0.268101	1.470429	0.502604
H257	H	-0.481824	0.899678	-1.068399
H258	H	-0.231824	1.149678	-0.818399
H259	H	0.018176	1.399678	-0.568399
H260	H	0.268176	1.649678	-0.318399
H261	H	-0.295086	0.364769	-0.404781
H262	H	-0.045086	0.614769	-0.154781
H263	H	0.204914	0.864769	0.095219
H264	H	0.454914	1.114769	0.345219
H265	H	-0.481942	0.364660	-0.247419
H266	H	-0.231942	0.614660	0.002581
H267	H	0.018058	0.864660	0.252581
H268	H	0.268058	1.114660	0.502581
H269	H	-0.481907	0.592184	-0.247407
H270	H	-0.231907	0.842184	0.002593
H271	H	0.018093	1.092184	0.252593
H272	H	0.268093	1.342184	0.502593
H273	H	-0.481911	0.899630	-0.712641
H274	H	-0.231911	1.149630	-0.462641
H275	H	0.018089	1.399630	-0.212641
H276	H	0.268089	1.649630	0.037359
H277	H	-0.481944	0.899604	-0.584396
H278	H	-0.231944	1.149604	-0.334396
H279	H	0.018056	1.399604	-0.084396
H280	H	0.268056	1.649604	0.165604
H281	H	-0.481867	0.899665	-0.940165
H282	H	-0.231867	1.149665	-0.690165
H283	H	0.018133	1.399665	-0.440165
H284	H	0.268133	1.649665	-0.190165
H285	H	-0.295045	0.720529	-0.404758
H286	H	-0.045045	0.970529	-0.154758
H287	H	0.204955	1.220529	0.095242
H288	H	0.454955	1.470529	0.345242
H289	H	-0.294876	1.056764	-0.584463
H290	H	-0.044876	1.306764	-0.334463
H291	H	0.205124	1.556764	-0.084463
H292	H	0.455124	1.806764	0.165537
