data_functionalizedCrystal
_audit_creation_method	'MofGen! by Chris Wilmer'
_symmetry_space_group_name_H-M	'P1'
_symmetry_Int_Tables_number	1
_symmetry_cell_setting	triclinic
loop_
_symmetry_equiv_pos_as_xyz
  x,y,z
_cell_length_a	25.427154
_cell_length_b	25.426324
_cell_length_c	25.422586
_cell_angle_alpha	60.006367
_cell_angle_beta	60.012446
_cell_angle_gamma	59.992398
loop_
_atom_site_label
_atom_site_type_symbol
_atom_site_fract_x
_atom_site_fract_y
_atom_site_fract_z
O1	O	0.072968	-0.768436	0.642532
O2	O	0.027520	-0.598284	0.517710
O3	O	0.135268	-0.705940	0.517611
O4	O	-0.034780	-0.660780	0.642632
O5	O	0.171018	-0.670200	0.553260
O6	O	0.063270	-0.562544	0.553360
O7	O	0.108718	-0.732696	0.678182
Zn8	Zn	0.091670	-0.641945	0.621431
Zn9	Zn	0.044568	-0.689034	0.574461
O10	O	0.000970	-0.625039	0.678281
N11	N	0.123818	-0.609812	0.653490
N12	N	0.012426	-0.721173	0.542402
C13	C	0.168482	-0.466269	0.698103
C14	C	0.168494	-0.565177	0.698095
C15	C	0.193243	-0.540453	0.722807
C16	C	0.301113	-0.521853	0.665993
C17	C	0.368545	-0.544324	0.643486
C18	C	0.368579	-0.653434	0.685090
C19	C	0.301149	-0.630961	0.707599
C20	C	0.184722	-0.432539	0.631812
C21	C	0.162210	-0.365100	0.609357
C22	C	0.107225	-0.365129	0.719489
C23	C	0.129737	-0.432567	0.741943
C24	C	0.102194	-0.548896	0.714421
C25	C	0.079702	-0.571372	0.691949
C26	C	0.189805	-0.626409	0.636839
C27	C	0.212300	-0.603934	0.659303
C28	C	0.102289	-0.548918	0.830735
C29	C	0.079866	-0.571415	0.898171
C30	C	0.190015	-0.626466	0.898104
C31	C	0.212437	-0.603971	0.830666
C32	C	0.168573	-0.565195	0.796984
C33	C	0.267418	-0.565170	0.698047
C34	C	-0.130981	-0.765617	0.497386
C35	C	-0.032127	-0.765741	0.497606
C36	C	-0.056804	-0.790430	0.472789
C37	C	-0.075480	-0.898263	0.529507
C38	C	-0.053057	-0.965702	0.552014
C39	C	0.056052	-0.965829	0.510599
C40	C	0.033627	-0.898392	0.488091
C41	C	-0.164787	-0.781859	0.563659
C42	C	-0.232219	-0.759299	0.586018
C43	C	-0.232034	-0.704261	0.475827
C44	C	-0.164602	-0.726821	0.453469
C45	C	-0.048372	-0.699446	0.481299
C46	C	-0.025938	-0.677008	0.503867
C47	C	0.028987	-0.787155	0.559036
C48	C	0.006552	-0.809596	0.536475
C49	C	-0.048188	-0.699454	0.364860
C50	C	-0.025608	-0.677017	0.297425
C51	C	0.029406	-0.787170	0.297492
C52	C	0.006827	-0.809605	0.364929
C53	C	-0.031972	-0.765745	0.398611
C54	C	-0.032140	-0.864611	0.497548
N55	N	0.401319	-0.609788	0.653344
O56	O	0.621664	-0.620517	0.494685
O57	O	0.621901	-0.745740	0.664659
O58	O	0.621803	-0.745452	0.556857
O59	O	0.621762	-0.620805	0.602487
O60	O	0.514676	-0.709815	0.592658
O61	O	0.514774	-0.710104	0.700460
O62	O	0.514537	-0.584881	0.530485
Zn63	Zn	0.497647	-0.641834	0.621157
Zn64	Zn	0.638791	-0.688787	0.573988
O65	O	0.514635	-0.585169	0.638287
N66	N	0.735119	-0.720834	0.541794
N67	N	0.123794	-0.332357	0.653504
O68	O	-0.034774	-0.111885	0.642639
O69	O	0.135202	-0.111860	0.517412
O70	O	0.027364	-0.111888	0.517742
O71	O	0.073064	-0.111857	0.642310
O72	O	0.063120	-0.219026	0.553444
O73	O	0.170958	-0.218998	0.553115
O74	O	0.000983	-0.219022	0.678342
Zn75	Zn	0.091647	-0.236020	0.621397
Zn76	Zn	0.044537	-0.094862	0.574357
O77	O	0.108821	-0.218994	0.678013
N78	N	0.012383	0.001474	0.542251
N79	N	0.124036	-0.609854	0.930891
O80	O	0.113202	-0.768401	1.151342
O81	O	-0.011992	-0.598359	1.151385
O82	O	-0.011700	-0.706176	1.151343
O83	O	0.112910	-0.660584	1.151384
O84	O	0.023980	-0.670446	1.044212
O85	O	0.023689	-0.562630	1.044253
O86	O	0.148882	-0.732671	1.044211
Zn87	Zn	0.091951	-0.641977	1.027223
Zn88	Zn	0.044940	-0.689053	1.168373
O89	O	0.148590	-0.624854	1.044252
N90	N	0.012853	-0.721183	1.264704
C91	C	0.041135	-0.558973	0.518338
C92	C	0.174567	-0.692292	0.518215
C93	C	0.095103	-0.772007	0.677553
C94	C	-0.038330	-0.638687	0.677677
C95	C	0.568366	-0.745166	0.703974
C96	C	0.568246	-0.744810	0.570474
C97	C	0.568069	-0.585454	0.491172
C98	C	0.568192	-0.585812	0.624671
C99	C	0.174449	-0.165294	0.517975
C100	C	0.040949	-0.165460	0.518427
C101	C	-0.038309	-0.165456	0.677735
C102	C	0.095236	-0.165423	0.677328
C103	C	-0.011393	-0.559072	1.097824
C104	C	-0.011024	-0.692583	1.097752
C105	C	0.148283	-0.771958	1.097772
C106	C	0.147922	-0.638440	1.097820
H107	H	0.066565	-0.517338	0.803314
O108	O	0.106576	-0.830320	0.724348
C109	C	0.075514	-0.925038	0.794682
C110	C	0.062442	-0.859005	0.741701
H111	H	0.039848	-0.948256	0.808718
H112	H	0.069712	-0.918373	0.838654
H113	H	0.126697	-0.957392	0.775861
H114	H	0.011261	-0.826617	0.760461
H115	H	0.068286	-0.865719	0.697739
H116	H	0.187590	-0.820792	1.097751
O117	O	-0.096592	-0.165423	0.724555
C118	C	-0.202702	-0.165460	0.754540
C119	C	-0.136729	-0.165489	0.701459
H120	H	-0.235166	-0.165527	0.735891
H121	H	-0.225867	-0.120605	0.768571
H122	H	-0.195892	-0.210278	0.798479
H123	H	-0.143482	-0.120701	0.657485
H124	H	-0.113586	-0.210374	0.687483
O125	O	0.568092	-0.539016	0.636265
C126	C	0.512514	-0.431777	0.642389
C127	C	0.512553	-0.484711	0.629230
H128	H	0.467609	-0.387863	0.636720
H129	H	0.557280	-0.417609	0.606688
H130	H	0.512607	-0.450693	0.693553
H131	H	0.512437	-0.465840	0.578084
H132	H	0.467791	-0.498870	0.664971
H133	H	-0.079862	-0.663733	0.449648
O134	O	0.194612	-0.626876	1.097937
C135	C	0.264934	-0.657896	1.153415
C136	C	0.212049	-0.671052	1.153370
H137	H	0.279057	-0.693613	1.198220
H138	H	0.246066	-0.606728	1.153470
H139	H	0.308866	-0.663634	1.108554
H140	H	0.168099	-0.665350	1.198223
H141	H	0.230968	-0.722216	1.153281
O142	O	0.568179	-0.791548	0.558934
C143	C	0.512725	-0.861845	0.589914
C144	C	0.512729	-0.808927	0.603061
H145	H	0.467892	-0.875902	0.625574
H146	H	0.557564	-0.905825	0.595668
H147	H	0.512697	-0.842949	0.538728
H148	H	0.512734	-0.827763	0.654244
H149	H	0.467895	-0.764957	0.597264
H150	H	0.031425	-0.510094	0.479136
H151	H	-0.087172	-0.629063	0.716934
O152	O	0.568007	-0.538628	0.432893
C153	C	0.567839	-0.508656	0.326818
C154	C	0.567926	-0.561748	0.392783
H155	H	0.567759	-0.527324	0.294375
H156	H	0.612654	-0.494571	0.303611
H157	H	0.522989	-0.464744	0.333654
H158	H	0.612746	-0.605694	0.386004
H159	H	0.523081	-0.575777	0.415968
O160	O	0.232588	-0.164899	0.471014
C161	C	0.338538	-0.164387	0.440871
C162	C	0.272720	-0.164819	0.494105
H163	H	0.371008	-0.164335	0.459525
H164	H	0.331526	-0.119441	0.397082
H165	H	0.361821	-0.209114	0.426606
H166	H	0.249402	-0.120122	0.508425
H167	H	0.279775	-0.209793	0.537859
H168	H	0.031160	-0.165463	0.479291
H169	H	0.568427	-0.784476	0.752793
O170	O	0.107026	-0.165453	0.723961
C171	C	0.183582	-0.165414	0.753379
C172	C	0.170319	-0.165389	0.700514
H173	H	0.234748	-0.165349	0.734438
H174	H	0.177896	-0.210268	0.797342
H175	H	0.147895	-0.120594	0.767484
H176	H	0.205993	-0.210179	0.686355
H177	H	0.175983	-0.120506	0.656587
H178	H	0.025889	-0.558152	0.925643
H179	H	0.225736	-0.658027	0.925521
O180	O	-0.058225	-0.500787	1.097866
C181	C	-0.088162	-0.394656	1.097861
C182	C	-0.035073	-0.460639	1.097828
H183	H	-0.069459	-0.362174	1.097816
H184	H	-0.132087	-0.401383	1.142704
H185	H	-0.102230	-0.371547	1.053035
H186	H	-0.020950	-0.483784	1.142623
H187	H	0.008817	-0.453870	1.052955
H188	H	0.223406	-0.701920	0.478955
O189	O	-0.057629	-0.704291	1.097655
C190	C	-0.087071	-0.780799	1.097578
C191	C	-0.034230	-0.767620	1.097673
H192	H	-0.068177	-0.832003	1.097607
H193	H	-0.101126	-0.745158	1.052720
H194	H	-0.131053	-0.775001	1.142389
H195	H	0.009786	-0.773426	1.052893
H196	H	-0.020229	-0.803258	1.142561
H197	H	-0.129033	-0.870764	0.537213
H198	H	0.066522	-0.517340	0.746005
O199	O	0.276844	-0.619897	0.797953
C200	C	0.377846	-0.705383	0.777233
C201	C	0.304919	-0.687436	0.814330
H202	H	0.400564	-0.759988	0.790449
H203	H	0.400630	-0.686822	0.790490
H204	H	0.386324	-0.682616	0.723253
H205	H	0.296382	-0.710198	0.868318
H206	H	0.282171	-0.705986	0.801018
O207	O	0.015293	-0.555642	0.707916
C208	C	-0.085656	-0.560792	0.793456
C209	C	-0.012722	-0.578658	0.775461
H210	H	-0.108330	-0.579381	0.848066
H211	H	-0.094241	-0.583535	0.770780
H212	H	-0.108400	-0.506186	0.774837
H213	H	0.010071	-0.633254	0.794077
H214	H	-0.004183	-0.555869	0.798128
O215	O	0.232393	-0.663959	0.599067
C216	C	0.319617	-0.672543	0.499803
C217	C	0.271404	-0.629949	0.542515
H218	H	0.351178	-0.645069	0.454079
H219	H	0.292201	-0.685805	0.486480
H220	H	0.351194	-0.718312	0.527258
H221	H	0.239814	-0.584153	0.515100
H222	H	0.298859	-0.616739	0.555841
O223	O	0.268445	-0.673052	0.738631
C224	C	0.247837	-0.752352	0.732645
C225	C	0.284901	-0.704698	0.697420
H226	H	0.261138	-0.777961	0.699345
H227	H	0.193839	-0.725019	0.747074
H228	H	0.261128	-0.789391	0.777616
H229	H	0.271664	-0.667649	0.652425
H230	H	0.338890	-0.732075	0.683039
O231	O	0.401247	-0.502205	0.612251
C232	C	0.421780	-0.408698	0.521382
C233	C	0.384716	-0.456363	0.556685
H234	H	0.408418	-0.371615	0.476458
H235	H	0.475778	-0.436021	0.506884
H236	H	0.408550	-0.383144	0.554702
H237	H	0.397892	-0.481930	0.523402
H238	H	0.330728	-0.429005	0.571194
O239	O	0.222325	-0.465179	0.589141
C240	C	0.274504	-0.458032	0.477533
C241	C	0.231903	-0.420988	0.525789
H242	H	0.282273	-0.422320	0.426303
H243	H	0.249807	-0.489591	0.485269
H244	H	0.323014	-0.489617	0.485308
H245	H	0.183386	-0.389368	0.518043
H246	H	0.256650	-0.389470	0.518041
O247	O	0.268278	-0.457970	0.656829
C248	C	0.192197	-0.376373	0.706532
C249	C	0.229331	-0.448741	0.717003
H250	H	0.160709	-0.368887	0.755174
H251	H	0.160552	-0.357363	0.676937
H252	H	0.227879	-0.349286	0.679727
H253	H	0.193695	-0.475880	0.743825
H254	H	0.260985	-0.467701	0.746571
H255	H	0.266286	-0.617183	0.646003
H256	H	0.396045	-0.707006	0.692856
H257	H	0.175430	-0.337636	0.555374
H258	H	0.075686	-0.337687	0.755188
O259	O	-0.132226	-0.819514	0.606405
C260	C	-0.139527	-0.871749	0.718061
C261	C	-0.176481	-0.829086	0.669720
H262	H	-0.175291	-0.879512	0.769261
H263	H	-0.107970	-0.847099	0.710413
H264	H	-0.107953	-0.920261	0.710291
H265	H	-0.208090	-0.780566	0.677461
H266	H	-0.207997	-0.853787	0.677380
H267	H	0.116505	-0.460032	0.795926
H268	H	-0.079784	-0.663733	0.392281
O269	O	-0.041485	-0.612610	0.264676
C270	C	-0.126907	-0.511547	0.243927
C271	C	-0.109015	-0.584479	0.281045
H272	H	-0.181505	-0.488779	0.257158
H273	H	-0.104158	-0.503000	0.189936
H274	H	-0.108296	-0.488861	0.257244
H275	H	-0.127622	-0.607213	0.267782
H276	H	-0.131754	-0.592980	0.335027
O277	O	0.067101	-0.829863	0.264878
C278	C	0.119238	-0.941490	0.272071
C279	C	0.076555	-0.893208	0.309087
H280	H	0.126883	-0.992715	0.307797
H281	H	0.167799	-0.933840	0.240600
H282	H	0.094591	-0.933653	0.240403
H283	H	0.101145	-0.901016	0.340789
H284	H	0.027996	-0.900871	0.340516
H285	H	0.020039	-0.863588	0.392405
H286	H	-0.039168	-0.623025	0.490592
H287	H	0.019779	-0.863579	0.549754
O288	O	0.066532	-0.829845	0.596804
C289	C	0.118676	-0.941470	0.649106
C290	C	0.076139	-0.893192	0.606338
H291	H	0.126468	-0.992696	0.656817
H292	H	0.093914	-0.933722	0.697634
H293	H	0.167180	-0.933724	0.624488
H294	H	0.027629	-0.900908	0.630899
H295	H	0.100952	-0.900952	0.557813
H296	H	0.068924	-0.870994	0.462067
H297	H	-0.088349	-0.993100	0.578027
O298	O	0.119960	-0.998621	0.501303
C299	C	0.227250	-1.019351	0.424317
C300	C	0.154894	-0.982186	0.434756
H301	H	0.255516	-1.006067	0.370517
H302	H	0.235873	-1.073338	0.445847
H303	H	0.243929	-1.006126	0.448870
H304	H	0.138166	-0.995356	0.410203
H305	H	0.146312	-0.928208	0.413242
O306	O	-0.265088	-0.774967	0.650393
C307	C	-0.341350	-0.736148	0.739615
C308	C	-0.304157	-0.718312	0.666705
H309	H	-0.372956	-0.690353	0.752824
H310	H	-0.305763	-0.767721	0.767193
H311	H	-0.372900	-0.763581	0.752796
H312	H	-0.272606	-0.690856	0.653464
H313	H	-0.339779	-0.686769	0.639167
O314	O	-0.264630	-0.666655	0.433109
C315	C	-0.285161	-0.658038	0.345787
C316	C	-0.248195	-0.700691	0.394118
H317	H	-0.271897	-0.685545	0.314259
H318	H	-0.271836	-0.612319	0.314187
H319	H	-0.339159	-0.644686	0.373171
H320	H	-0.194189	-0.714093	0.366786
H321	H	-0.261573	-0.746381	0.425717
H322	H	-0.137077	-0.713589	0.399501
