data_functionalizedCrystal
_audit_creation_method	'MofGen! by Chris Wilmer'
_symmetry_space_group_name_H-M	'P1'
_symmetry_Int_Tables_number	1
_symmetry_cell_setting	triclinic
loop_
_symmetry_equiv_pos_as_xyz
  x,y,z
_cell_length_a	18.215407
_cell_length_b	16.120531
_cell_length_c	18.215399
_cell_angle_alpha	87.136265
_cell_angle_beta	89.985640
_cell_angle_gamma	87.070360
loop_
_atom_site_label
_atom_site_type_symbol
_atom_site_fract_x
_atom_site_fract_y
_atom_site_fract_z
Zn1	Zn	1.110153	0.331952	-0.430896
Zn2	Zn	1.443487	0.665285	-0.097563
Zn3	Zn	1.776820	0.998619	0.235770
Zn4	Zn	1.103811	0.471379	-0.314058
Zn5	Zn	1.437144	0.804712	0.019275
Zn6	Zn	1.770478	1.138045	0.352608
Zn7	Zn	0.987091	0.331978	-0.307850
Zn8	Zn	1.320424	0.665311	0.025483
Zn9	Zn	1.653758	0.998644	0.358817
Zn10	Zn	0.980797	0.471319	-0.437086
Zn11	Zn	1.314131	0.804652	-0.103753
Zn12	Zn	1.647464	1.137986	0.229581
O13	O	1.045463	0.401657	-0.372473
O14	O	1.378797	0.734990	-0.039139
O15	O	1.712130	1.068324	0.294194
O16	O	1.212296	0.350461	-0.415405
O17	O	1.545629	0.683795	-0.082072
O18	O	1.878962	1.017128	0.251261
O19	O	1.088308	0.452923	-0.210252
O20	O	1.421641	0.786256	0.123081
O21	O	1.754974	1.119589	0.456415
O22	O	1.008704	0.215309	-0.318984
O23	O	1.342037	0.548642	0.014350
O24	O	1.675370	0.881976	0.347683
O25	O	1.207636	0.452898	-0.329565
O26	O	1.540969	0.786231	0.003768
O27	O	1.874303	1.119564	0.337102
O28	O	1.099117	0.215290	-0.409385
O29	O	1.432450	0.548623	-0.076052
O30	O	1.765784	0.881957	0.257281
O31	O	1.002554	0.350505	-0.205691
O32	O	1.335887	0.683839	0.127642
O33	O	1.669221	1.017172	0.460976
O34	O	0.883273	0.350448	-0.324986
O35	O	1.216606	0.683781	0.008348
O36	O	1.549939	1.017114	0.341681
O37	O	0.997977	0.452796	-0.539248
O38	O	1.331310	0.786129	-0.205914
O39	O	1.664644	1.119463	0.127419
O40	O	0.878649	0.452821	-0.419935
O41	O	1.211982	0.786154	-0.086601
O42	O	1.545315	1.119488	0.246732
O43	O	1.093014	0.350404	-0.534700
O44	O	1.426347	0.683737	-0.201367
O45	O	1.759681	1.017070	0.131967
O46	O	1.082205	0.588036	-0.335567
O47	O	1.415538	0.921370	-0.002233
O48	O	1.748872	1.254703	0.331100
O49	O	0.991827	0.587992	-0.425955
O50	O	1.325161	0.921326	-0.092621
O51	O	1.658494	1.254659	0.240712
C52	C	0.854258	0.401631	-0.372459
C53	C	1.187591	0.734965	-0.039125
C54	C	1.520925	1.068298	0.294208
C55	C	0.772459	0.401640	-0.372471
C56	C	1.105792	0.734974	-0.039138
C57	C	1.439125	1.068307	0.294196
C58	C	1.035665	0.618264	-0.382122
C59	C	1.368998	0.951598	-0.048789
C60	C	1.702332	1.284931	0.284545
C61	C	1.031540	0.710930	-0.386275
C62	C	1.364874	1.044263	-0.052941
C63	C	1.698207	1.377597	0.280392
C64	C	0.586685	0.348412	-0.417247
C65	C	0.920018	0.681745	-0.083914
C66	C	1.253352	1.015078	0.249419
C67	C	0.509826	0.348419	-0.417250
C68	C	0.843159	0.681752	-0.083917
C69	C	1.176493	1.015085	0.249417
C70	C	0.504992	0.454926	-0.327712
C71	C	0.838326	0.788259	0.005621
C72	C	1.171659	1.121592	0.338955
C73	C	0.581850	0.454914	-0.327706
C74	C	0.915183	0.788247	0.005628
C75	C	1.248517	1.121580	0.338961
C76	C	0.622695	0.401658	-0.372478
C77	C	0.956028	0.734991	-0.039144
C78	C	1.289361	1.068325	0.294189
C79	C	0.468978	0.401677	-0.372487
C80	C	0.802311	0.735010	-0.039153
C81	C	1.135644	1.068344	0.294180
C82	C	0.385644	0.401685	-0.372489
C83	C	0.718977	0.735018	-0.039156
C84	C	1.052310	1.068352	0.294177
C85	C	0.706034	0.401648	-0.372474
C86	C	1.039367	0.734982	-0.039141
C87	C	1.372701	1.068315	0.294192
C88	C	1.024015	0.880591	-0.393872
C89	C	1.357348	1.213924	-0.060538
C90	C	1.690681	1.547258	0.272795
C91	C	1.066939	0.921882	-0.351032
C92	C	1.400273	1.255216	-0.017699
C93	C	1.733606	1.588549	0.315635
C94	C	1.062752	1.016288	-0.355259
C95	C	1.396085	1.349621	-0.021926
C96	C	1.729419	1.682954	0.311408
C97	C	1.028201	0.786177	-0.389646
C98	C	1.361534	1.119511	-0.056312
C99	C	1.694868	1.452844	0.277021
C100	C	1.237415	0.401683	-0.372487
C101	C	1.570748	0.735017	-0.039154
C102	C	1.904082	1.068350	0.294179
C103	C	1.319213	0.401694	-0.372493
C104	C	1.652547	0.735028	-0.039160
C105	C	1.985880	1.068361	0.294173
C106	C	1.045501	0.401590	-0.564423
C107	C	1.378834	0.734924	-0.231089
C108	C	1.712168	1.068257	0.102244
C109	C	1.045517	0.401562	-0.646220
C110	C	1.378850	0.734895	-0.312887
C111	C	1.712184	1.068229	0.020446
C112	C	1.055294	1.184204	-0.362788
C113	C	1.388627	1.517537	-0.029455
C114	C	1.721960	1.850870	0.303879
C115	C	1.059416	1.091538	-0.358627
C116	C	1.392749	1.424871	-0.025293
C117	C	1.726082	1.758205	0.308040
C118	C	1.000906	0.348197	-0.832039
C119	C	1.334240	0.681531	-0.498705
C120	C	1.667573	1.014864	-0.165372
C121	C	1.000920	0.348180	-0.908897
C122	C	1.334253	0.681514	-0.575563
C123	C	1.667587	1.014847	-0.242230
C124	C	1.090220	0.454827	-0.913636
C125	C	1.423553	0.788160	-0.580302
C126	C	1.756887	1.121494	-0.246969
C127	C	1.090202	0.454847	-0.836779
C128	C	1.423535	0.788181	-0.503446
C129	C	1.756869	1.121514	-0.170112
C130	C	1.045547	0.401528	-0.795982
C131	C	1.378880	0.734861	-0.462649
C132	C	1.712213	1.068195	-0.129316
C133	C	1.045578	0.401491	-0.949697
C134	C	1.378911	0.734824	-0.616364
C135	C	1.712245	1.068157	-0.283030
C136	C	1.045593	0.401473	-1.033030
C137	C	1.378926	0.734806	-0.699696
C138	C	1.712260	1.068139	-0.366363
C139	C	1.045530	0.401547	-0.712644
C140	C	1.378864	0.734880	-0.379311
C141	C	1.712197	1.068213	-0.045978
C142	C	1.045471	0.401663	-0.181267
C143	C	1.378804	0.734996	0.152067
C144	C	1.712137	1.068330	0.485400
C145	C	1.045608	0.401457	-0.099459
C146	C	1.378941	0.734790	0.233874
C147	C	1.712274	1.068123	0.567208
H148	H	0.619939	0.305045	-0.453701
H149	H	0.953272	0.638378	-0.120368
H150	H	1.286605	0.971711	0.212966
C151	C	0.470219	0.289846	-0.466502
C152	C	0.803553	0.623179	-0.133169
C153	C	1.136886	0.956513	0.200164
N154	N	0.440388	0.245726	-0.503602
N155	N	0.773721	0.579060	-0.170268
N156	N	1.107055	0.912393	0.163065
H157	H	0.964569	0.304754	-0.938250
H158	H	1.297902	0.638087	-0.604917
H159	H	1.631236	0.971421	-0.271583
C160	C	0.970115	0.928615	-0.447697
C161	C	1.303449	1.261949	-0.114364
C162	C	1.636782	1.595282	0.218969
N163	N	0.929516	0.964797	-0.488235
N164	N	1.262849	1.298130	-0.154901
N165	N	1.596182	1.631464	0.178432
C166	C	0.460056	0.513509	-0.278471
C167	C	0.793389	0.846842	0.054863
C168	C	1.126723	1.180176	0.388196
N169	N	0.426211	0.557638	-0.241383
N170	N	0.759544	0.890971	0.091950
N171	N	1.092877	1.224304	0.425284
C172	C	1.139327	0.513503	-0.797114
C173	C	1.472660	0.846836	-0.463781
C174	C	1.805993	1.180170	-0.130448
N175	N	1.176329	0.557676	-0.767239
N176	N	1.509663	0.891010	-0.433905
N177	N	1.842996	1.224343	-0.100572
H178	H	0.964545	0.304781	-0.798824
H179	H	1.297878	0.638114	-0.465491
H180	H	1.631212	0.971448	-0.132157
H181	H	1.106833	0.886332	-0.311181
H182	H	1.440166	1.219665	0.022152
H183	H	1.773500	1.552999	0.355486
H184	H	0.611169	0.498274	-0.291245
H185	H	0.944503	0.831607	0.042088
H186	H	1.277836	1.164941	0.375422
C187	C	1.139169	0.513658	-0.958527
C188	C	1.472502	0.846991	-0.625193
C189	C	1.805835	1.180325	-0.291860
N190	N	1.175977	0.558036	-0.992341
N191	N	1.509310	0.891370	-0.659008
N192	N	1.842643	1.224703	-0.325674
