data_functionalizedCrystal
_audit_creation_method	'MofGen! by Chris Wilmer'
_symmetry_space_group_name_H-M	'P1'
_symmetry_Int_Tables_number	1
_symmetry_cell_setting	triclinic
loop_
_symmetry_equiv_pos_as_xyz
  x,y,z
_cell_length_a	11.026607
_cell_length_b	10.065918
_cell_length_c	11.026607
_cell_angle_alpha	82.346549
_cell_angle_beta	71.413983
_cell_angle_gamma	97.708363
loop_
_atom_site_label
_atom_site_type_symbol
_atom_site_fract_x
_atom_site_fract_y
_atom_site_fract_z
O1	O	1.747087	0.113491	-0.553904
O2	O	2.247087	0.613491	-0.053904
O3	O	1.380508	0.113493	-0.493141
O4	O	1.880508	0.613493	0.006859
O5	O	1.533415	0.113487	-0.340232
O6	O	2.033415	0.613487	0.159768
O7	O	1.594180	0.113497	-0.706814
O8	O	2.094180	0.613497	-0.206814
O9	O	1.492688	-0.113502	-0.299659
O10	O	1.992688	0.386498	0.200341
O11	O	1.339781	-0.113496	-0.452569
O12	O	1.839781	0.386504	0.047431
O13	O	1.706360	-0.113498	-0.513332
O14	O	2.206360	0.386502	-0.013332
Zn15	Zn	1.516604	-0.149536	-0.476508
Zn16	Zn	2.016604	0.350464	0.023492
Zn17	Zn	1.570264	0.149532	-0.529965
Zn18	Zn	2.070264	0.649532	-0.029965
O19	O	1.553453	-0.113492	-0.666241
O20	O	2.053453	0.386508	-0.166241
C21	C	1.312485	-0.000001	-0.461645
C22	C	1.812485	0.499999	0.038355
C23	C	1.170471	-0.000000	-0.428228
C24	C	1.670471	0.500000	0.071772
C25	C	1.116822	0.000003	-0.520499
C26	C	1.616822	0.500003	-0.020499
C27	C	0.970043	0.000004	-0.485963
C28	C	1.470043	0.500004	0.014037
N29	N	1.479992	-0.353642	-0.440027
N30	N	1.979992	0.146358	0.059973
C31	C	1.557517	-0.421420	-0.517270
C32	C	2.057517	0.078580	-0.017270
C33	C	1.529347	-0.578588	-0.489184
C34	C	2.029347	-0.078588	0.010816
C35	C	1.774384	-0.000001	-0.544828
C36	C	2.274384	0.499999	-0.044828
C37	C	1.916399	0.000007	-0.578247
C38	C	2.416399	0.500007	-0.078247
C39	C	1.501842	-0.000005	-0.272286
C40	C	2.001842	0.499995	0.227714
C41	C	1.468426	-0.000000	-0.130273
C42	C	1.968426	0.500000	0.369727
N43	N	1.606884	0.353637	-0.566438
N44	N	2.106884	0.853637	-0.066438
C45	C	1.585027	0.000004	-0.734187
C46	C	2.085027	0.500004	-0.234187
C47	C	1.618444	0.000008	-0.876202
C48	C	2.118444	0.500008	-0.376202
C49	C	1.560696	0.000001	-0.076624
C50	C	2.060696	0.500001	0.423376
C51	C	1.526161	0.000006	0.070153
C52	C	2.026161	0.500006	0.570153
H53	H	1.107743	0.000032	-0.323671
H54	H	1.607743	0.500032	0.176329
H55	H	1.694119	-0.588041	-0.653366
H56	H	2.194119	-0.088041	-0.153366
C57	C	1.362148	-0.432434	-0.322595
C58	C	1.862148	0.067566	0.177405
N59	N	1.273385	-0.491779	-0.234143
N60	N	1.773385	0.008221	0.265857
H61	H	1.421593	0.000016	0.132881
H62	H	1.921593	0.500016	0.632881
C63	C	0.885303	0.000000	-0.344692
C64	C	1.385303	0.500000	0.155308
N65	N	0.821475	-0.000000	-0.238289
N66	N	1.321475	0.500000	0.261711
C67	C	1.759715	0.000005	0.039061
C68	C	2.259715	0.500005	0.539061
N69	N	1.866118	0.000001	-0.024763
N70	N	2.366118	0.500001	0.475237
H71	H	1.179554	-0.000002	-0.625061
H72	H	1.679554	0.499998	-0.125061
C73	C	1.327162	-0.000001	-0.045529
C74	C	1.827162	0.499999	0.454471
N75	N	1.220758	-0.000006	0.018300
N76	N	1.720758	0.499994	0.518300
H77	H	0.979125	0.000001	-0.682816
H78	H	1.479125	0.500001	-0.182816
H79	H	1.644748	-0.363092	-0.604190
H80	H	2.144748	0.136908	-0.104190
C81	C	1.411498	-0.657375	-0.371745
C82	C	1.911498	-0.157375	0.128255
N83	N	1.322735	-0.716719	-0.283294
N84	N	1.822735	-0.216719	0.216706
H85	H	1.665257	-0.000008	-0.139356
H86	H	2.165257	0.499992	0.360644
