data_functionalizedCrystal
_audit_creation_method	'MofGen! by Chris Wilmer'
_symmetry_space_group_name_H-M	'P1'
_symmetry_Int_Tables_number	1
_symmetry_cell_setting	triclinic
loop_
_symmetry_equiv_pos_as_xyz
  x,y,z
_cell_length_a	6.817900
_cell_length_b	19.551823
_cell_length_c	11.168136
_cell_angle_alpha	94.549227
_cell_angle_beta	108.508683
_cell_angle_gamma	101.663376
loop_
_atom_site_label
_atom_site_type_symbol
_atom_site_fract_x
_atom_site_fract_y
_atom_site_fract_z
V1	V	-4.075381	-0.096685	-0.394290
O2	O	-4.071120	0.004635	-0.386176
O3	O	-4.017763	-0.191700	-0.392177
O4	O	-4.052200	-0.095203	-0.565986
O5	O	-4.036445	-0.092530	-0.211164
V6	V	-4.556935	-0.084566	-0.372315
O7	O	-4.340957	-0.123271	-0.442492
O8	O	-4.741556	-0.057980	-0.324113
O9	O	-4.391346	0.010449	-0.374428
O10	O	-4.678592	-0.185886	-0.380429
O11	O	-4.713268	-0.088721	-0.555441
O12	O	-4.356909	-0.086048	-0.200619
C13	C	-3.859706	-0.214863	-0.386108
C14	C	-3.894052	-0.292539	-0.385525
C15	C	-4.092880	-0.332585	-0.391566
C16	C	-4.125159	-0.405571	-0.391031
C17	C	-3.958584	-0.438506	-0.384430
C18	C	-3.759731	-0.398452	-0.378396
C19	C	-3.727465	-0.325468	-0.378944
C20	C	-3.833594	-0.544992	-0.304360
C21	C	-3.865864	-0.617974	-0.303805
C22	C	-4.058099	-0.663612	-0.382747
C23	C	-4.218087	-0.636259	-0.462229
C24	C	-4.185821	-0.563276	-0.462776
C25	C	-3.993551	-0.517644	-0.383837
C26	C	-4.291941	-0.782798	-0.388210
C27	C	-4.324216	-0.855786	-0.387683
C28	C	-3.958776	-0.848664	-0.375035
C29	C	-3.926513	-0.775679	-0.375575
C30	C	-4.093100	-0.742750	-0.382157
C31	C	-3.903632	-0.091770	-0.607817
C32	C	-3.965902	-0.091186	-0.748184
C33	C	-4.167321	-0.094240	-0.816895
C34	C	-4.231684	-0.093638	-0.961971
C35	C	-4.212745	0.033608	-0.380494
C36	C	-4.157638	0.111284	-0.381084
C37	C	-4.168818	-0.089484	-0.158781
C38	C	-4.085787	-0.090063	-0.018413
H39	H	-4.287074	-0.438183	-0.395950
O40	O	-3.880052	-0.087057	-0.947877
C41	C	-3.637256	-0.144506	-0.808959
C42	C	-3.870346	-0.147983	-0.888766
H43	H	-3.629327	-0.193765	-0.761169
H44	H	-3.572372	-0.095503	-0.732650
H45	H	-3.537480	-0.141694	-0.874061
H46	H	-3.970291	-0.150822	-0.823767
H47	H	-3.935060	-0.196978	-0.965088
O48	O	-4.340942	-0.536629	-0.540055
C49	C	-4.438247	-0.469963	-0.713035
C50	C	-4.262371	-0.500086	-0.625578
H51	H	-4.374803	-0.440424	-0.782219
H52	H	-4.489007	-0.432093	-0.652384
H53	H	-4.581208	-0.515121	-0.769306
H54	H	-4.119294	-0.454975	-0.569289
H55	H	-4.211791	-0.537975	-0.686299
H56	H	-4.292110	-0.097297	-0.768314
H57	H	-3.624108	-0.425272	-0.373025
H58	H	-3.841108	-0.088121	-0.796761
H59	H	-4.374467	-0.673428	-0.526685
O60	O	-4.453575	-0.750752	-0.394388
C61	C	-4.575726	-0.662966	-0.292416
C62	C	-4.392530	-0.699210	-0.285244
H63	H	-4.526420	-0.621276	-0.204198
H64	H	-4.723424	-0.704089	-0.296574
H65	H	-4.612910	-0.636667	-0.381848
H66	H	-4.355156	-0.725506	-0.195821
H67	H	-4.244943	-0.658056	-0.281156
O68	O	-3.647049	-0.500581	-0.227602
C69	C	-3.476902	-0.402501	-0.055856
C70	C	-3.688309	-0.452737	-0.142712
H71	H	-3.510183	-0.363816	0.012817
H72	H	-3.395882	-0.371936	-0.117018
H73	H	-3.368102	-0.434599	0.000995
H74	H	-3.797270	-0.420692	-0.199579
H75	H	-3.769159	-0.483304	-0.081478
H76	H	-4.404235	-0.096255	-1.021038
H77	H	-4.486134	-0.888392	-0.392611
O78	O	-4.254533	-0.300551	-0.397747
C79	C	-4.376732	-0.212772	-0.295792
C80	C	-4.193509	-0.249003	-0.288612
H81	H	-4.327443	-0.171077	-0.207582
H82	H	-4.524412	-0.253901	-0.299941
H83	H	-4.413940	-0.186480	-0.385232
H84	H	-4.156112	-0.275293	-0.199181
H85	H	-4.045941	-0.207843	-0.284534
H86	H	-3.823151	-0.875480	-0.369668
H87	H	-3.764603	-0.743072	-0.370648
H88	H	-3.565552	-0.292863	-0.374026
O89	O	-3.710407	-0.644447	-0.226418
C90	C	-3.489976	-0.646077	-0.010469
C91	C	-3.666016	-0.616035	-0.097968
H92	H	-3.454063	-0.623130	0.093402
H93	H	-3.339600	-0.631310	-0.036347
H94	H	-3.546053	-0.706081	-0.023690
H95	H	-3.610140	-0.556029	-0.084793
H96	H	-3.816353	-0.630857	-0.072069
