data_functionalizedCrystal
_audit_creation_method	'MofGen! by Chris Wilmer'
_symmetry_space_group_name_H-M	'P1'
_symmetry_Int_Tables_number	1
_symmetry_cell_setting	triclinic
loop_
_symmetry_equiv_pos_as_xyz
  x,y,z
_cell_length_a	21.295417
_cell_length_b	21.395362
_cell_length_c	21.395355
_cell_angle_alpha	90.048039
_cell_angle_beta	89.978549
_cell_angle_gamma	89.951233
loop_
_atom_site_label
_atom_site_type_symbol
_atom_site_fract_x
_atom_site_fract_y
_atom_site_fract_z
Zn1	Zn	-0.250375	-0.957860	-0.354641
Zn2	Zn	0.249625	-0.457860	0.145359
Zn3	Zn	-0.355627	-0.957763	-0.249859
Zn4	Zn	0.144373	-0.457763	0.250141
Zn5	Zn	-0.250409	-0.853075	-0.249835
Zn6	Zn	0.249591	-0.353075	0.250165
Zn7	Zn	-0.355644	-0.853045	-0.354556
Zn8	Zn	0.144356	-0.353045	0.145444
O9	O	-0.303014	-0.905436	-0.302223
O10	O	0.196986	-0.405436	0.197777
O11	O	-0.264316	-1.045525	-0.340787
O12	O	0.235684	-0.545525	0.159213
O13	O	-0.341676	-0.943848	-0.162177
O14	O	0.158324	-0.443848	0.337823
O15	O	-0.162315	-0.867029	-0.263764
O16	O	0.337685	-0.367029	0.236236
O17	O	-0.341644	-1.045454	-0.263804
O18	O	0.158356	-0.545454	0.236196
O19	O	-0.162290	-0.944014	-0.340765
O20	O	0.337710	-0.444014	0.159235
O21	O	-0.264373	-0.866935	-0.162160
O22	O	0.235627	-0.366935	0.337840
O23	O	-0.264390	-0.765393	-0.263681
O24	O	0.235610	-0.265393	0.236319
O25	O	-0.341673	-0.866977	-0.442245
O26	O	0.158327	-0.366977	0.057755
O27	O	-0.341706	-0.765371	-0.340619
O28	O	0.158294	-0.265371	0.159381
O29	O	-0.264333	-0.943984	-0.442308
O30	O	0.235667	-0.443984	0.057692
O31	O	-0.443718	-0.943819	-0.263721
O32	O	0.056282	-0.443819	0.236279
O33	O	-0.443731	-0.866883	-0.340641
O34	O	0.056269	-0.366883	0.159359
C35	C	-0.303054	-0.742648	-0.302138
C36	C	0.196946	-0.242648	0.197862
C37	C	-0.303086	-0.673007	-0.302117
C38	C	0.196914	-0.173007	0.197883
C39	C	-0.343399	-0.640299	-0.342116
C40	C	0.156601	-0.140299	0.157884
C41	C	-0.343387	-0.574863	-0.342140
C42	C	0.156613	-0.074863	0.157860
C43	C	-0.303067	-0.542139	-0.302152
C44	C	0.196933	-0.042139	0.197848
C45	C	-0.262747	-0.574855	-0.262150
C46	C	0.237253	-0.074855	0.237850
C47	C	-0.262756	-0.640289	-0.262133
C48	C	0.237244	-0.140289	0.237867
C49	C	-0.298001	-0.438414	-0.245740
C50	C	0.201999	0.061586	0.254260
C51	C	-0.297996	-0.372981	-0.245757
C52	C	0.202004	0.127019	0.254243
C53	C	-0.303035	-0.340318	-0.302207
C54	C	0.196965	0.159682	0.197793
C55	C	-0.308092	-0.373096	-0.358643
C56	C	0.191908	0.126904	0.141357
C57	C	-0.308102	-0.438530	-0.358625
C58	C	0.191898	0.061470	0.141375
C59	C	-0.303052	-0.471186	-0.302167
C60	C	0.196948	0.028814	0.197833
C61	C	-0.343336	-0.236657	-0.342235
C62	C	0.156664	0.263343	0.157765
C63	C	-0.343319	-0.171221	-0.342259
C64	C	0.156681	0.328779	0.157741
C65	C	-0.262682	-0.171214	-0.262265
C66	C	0.237318	0.328786	0.237735
C67	C	-0.262696	-0.236649	-0.262246
C68	C	0.237304	0.263351	0.237754
C69	C	-0.303026	-0.269367	-0.302230
C70	C	0.196974	0.230633	0.197770
C71	C	-0.466565	-0.905354	-0.302188
C72	C	0.033435	-0.405354	0.197812
C73	C	-0.536534	-0.905376	-0.302194
C74	C	-0.036534	-0.405376	0.197806
C75	C	-0.569373	-0.945472	-0.262183
C76	C	-0.069373	-0.445472	0.237817
C77	C	-0.635115	-0.945502	-0.262197
C78	C	-0.135115	-0.445502	0.237803
C79	C	-0.668016	-0.905424	-0.302216
C80	C	-0.168016	-0.405424	0.197784
C81	C	-0.635169	-0.865325	-0.342235
C82	C	-0.135169	-0.365325	0.157765
C83	C	-0.569428	-0.865301	-0.342224
C84	C	-0.069428	-0.365301	0.157776
N85	N	-0.771300	-0.850614	-0.306964
N86	N	-0.271300	-0.350614	0.193036
N87	N	-0.833752	-0.850638	-0.306970
N88	N	-0.333752	-0.350638	0.193030
C89	C	-0.866091	-0.905494	-0.302252
C90	C	-0.366091	-0.405494	0.197748
N91	N	-0.833619	-0.960325	-0.297514
N92	N	-0.333619	-0.460325	0.202486
N93	N	-0.771162	-0.960300	-0.297504
N94	N	-0.271162	-0.460300	0.202496
C95	C	-0.739301	-0.905445	-0.302232
C96	C	-0.239301	-0.405445	0.197768
C97	C	-0.970215	-0.945625	-0.262253
C98	C	-0.470215	-0.445625	0.237747
C99	C	-1.035959	-0.945656	-0.262272
C100	C	-0.535959	-0.445656	0.237728
C101	C	-1.036012	-0.865473	-0.342307
C102	C	-0.536012	-0.365473	0.157693
C103	C	-0.970269	-0.865448	-0.342292
C104	C	-0.470269	-0.365448	0.157708
C105	C	-0.937375	-0.905523	-0.302262
C106	C	-0.437375	-0.405523	0.197738
C107	C	-0.138823	-0.905536	-0.302271
C108	C	0.361177	-0.405536	0.197729
C109	C	-0.068855	-0.905578	-0.302292
C110	C	0.431145	-0.405578	0.197708
C111	C	-0.303001	-0.905488	-0.465646
C112	C	0.196999	-0.405488	0.034354
C113	C	-0.302996	-0.905510	-0.535287
C114	C	0.197004	-0.405510	-0.035287
C115	C	-0.302984	-0.068859	-0.302290
C116	C	0.197016	0.431141	0.197710
C117	C	-0.302999	-0.138501	-0.302272
C118	C	0.197001	0.361499	0.197728
C119	C	-0.262723	-0.945606	-0.568034
C120	C	0.237277	-0.445606	-0.068034
C121	C	-0.262696	-0.945605	-0.633470
C122	C	0.237304	-0.445605	-0.133470
C123	C	-0.302953	-0.905515	-0.666156
C124	C	0.197047	-0.405515	-0.166156
C125	C	-0.343228	-0.865411	-0.633401
C126	C	0.156772	-0.365411	-0.133401
C127	C	-0.343250	-0.865409	-0.567967
C128	C	0.156750	-0.365409	-0.067967
C129	C	-0.359634	-0.900539	-0.769816
C130	C	0.140366	-0.400539	-0.269816
C131	C	-0.359614	-0.900546	-0.835249
C132	C	0.140386	-0.400546	-0.335249
C133	C	-0.302886	-0.905519	-0.867977
C134	C	0.197114	-0.405519	-0.367977
C135	C	-0.246177	-0.910498	-0.835263
C136	C	0.253823	-0.410498	-0.335263
C137	C	-0.246198	-0.910496	-0.769829
C138	C	0.253802	-0.410496	-0.269829
C139	C	-0.302934	-0.905513	-0.737108
C140	C	0.197066	-0.405513	-0.237108
C141	C	-0.262580	-0.945616	-0.971676
C142	C	0.237420	-0.445616	-0.471676
C143	C	-0.262552	-0.945611	-1.037113
C144	C	0.237448	-0.445611	-0.537113
C145	C	-0.343091	-0.865420	-1.037043
C146	C	0.156909	-0.365420	-0.537043
C147	C	-0.343113	-0.865422	-0.971607
C148	C	0.156887	-0.365422	-0.471607
C149	C	-0.302859	-0.905523	-0.938928
C150	C	0.197141	-0.405523	-0.438928
C151	C	-0.302981	-0.905420	-0.139435
C152	C	0.197019	-0.405420	0.360565
C153	C	-0.302809	-0.905520	-0.069794
C154	C	0.197191	-0.405520	0.430206
H155	H	-0.229851	-0.144570	-0.229709
H156	H	0.270149	0.355430	0.270291
O157	O	-0.382582	-0.543015	-0.380909
O158	O	0.117418	-0.043015	0.119091
C159	C	-0.467601	-0.469095	-0.389191
C160	C	0.032399	0.030905	0.110809
C161	C	-0.423242	-0.505108	-0.345214
C162	C	0.076758	-0.005108	0.154786
H163	H	-0.500495	-0.438448	-0.360349
H164	H	-0.000495	0.061552	0.139651
H165	H	-0.438784	-0.438482	-0.422006
H166	H	0.061216	0.061518	0.077994
H167	H	-0.496395	-0.503735	-0.417778
H168	H	0.003605	-0.003735	0.082222
H169	H	-0.394439	-0.470513	-0.316586
H170	H	0.105561	0.029487	0.183414
H171	H	-0.452096	-0.535730	-0.312440
H172	H	0.047904	-0.035730	0.187560
H173	H	-0.375912	-0.832775	-0.944945
H174	H	0.124088	-0.332775	-0.444945
H175	H	-0.943432	-0.978259	-0.229660
H176	H	-0.443432	-0.478259	0.270340
H177	H	-0.376044	-0.832755	-0.541305
H178	H	0.123956	-0.332755	-0.041305
O179	O	-0.223513	-0.984588	-1.068997
O180	O	0.276487	-0.484588	-0.568997
C181	C	-0.214999	-1.069203	-1.142924
C182	C	0.285001	-0.569203	-0.642924
C183	C	-0.259282	-1.025094	-1.106864
C184	C	0.240718	-0.525094	-0.606864
H185	H	-0.243901	-1.101971	-1.173539
H186	H	0.256099	-0.601971	-0.673539
H187	H	-0.182089	-1.040488	-1.173575
H188	H	0.317911	-0.540488	-0.673575
H189	H	-0.186217	-1.097834	-1.108316
H190	H	0.313783	-0.597834	-0.608316
H191	H	-0.288105	-0.996453	-1.141427
H192	H	0.211895	-0.496453	-0.641427
H193	H	-0.292150	-1.053844	-1.076204
H194	H	0.207850	-0.553844	-0.576204
H195	H	-0.943530	-0.832795	-0.374870
H196	H	-0.443530	-0.332795	0.125130
O197	O	-0.223557	-0.984575	-0.536388
O198	O	0.276443	-0.484575	-0.036388
C199	C	-0.143701	-1.064140	-0.543366
C200	C	0.356299	-0.564140	-0.043366
C201	C	-0.188015	-1.020032	-0.579285
C202	C	0.311985	-0.520032	-0.079285
H203	H	-0.114964	-1.092827	-0.578032
H204	H	0.385036	-0.592827	-0.078032
H205	H	-0.110759	-1.035423	-0.512728
H206	H	0.389241	-0.535423	-0.012728
H207	H	-0.172614	-1.096855	-0.512737
H208	H	0.327386	-0.596855	-0.012737
H209	H	-0.159154	-0.987307	-0.609947
H210	H	0.340846	-0.487307	-0.109947
H211	H	-0.220959	-1.048787	-0.609882
H212	H	0.279041	-0.548787	-0.109882
O213	O	-0.223566	-0.984633	-0.939901
O214	O	0.276434	-0.484633	-0.439901
C215	C	-0.215105	-1.069211	-0.866072
C216	C	0.284895	-0.569211	-0.366072
C217	C	-0.259359	-1.025072	-0.902026
C218	C	0.240641	-0.525072	-0.402026
H219	H	-0.244025	-1.101907	-0.835432
H220	H	0.255975	-0.601907	-0.335432
H221	H	-0.186324	-1.097911	-0.900695
H222	H	0.313676	-0.597911	-0.400695
H223	H	-0.182194	-1.040455	-0.835440
H224	H	0.317806	-0.540455	-0.335440
H225	H	-0.292308	-1.053779	-0.932659
H226	H	0.207692	-0.553779	-0.432659
H227	H	-0.288096	-0.996369	-0.867369
H228	H	0.211904	-0.496369	-0.367369
H229	H	-0.661858	-0.978155	-0.229615
H230	H	-0.161858	-0.478155	0.270385
H231	H	-0.229926	-0.666920	-0.229561
H232	H	0.270074	-0.166920	0.270439
H233	H	-0.376238	-0.666933	-0.374676
H234	H	0.123762	-0.166933	0.125324
H235	H	-0.312194	-0.346503	-0.404610
H236	H	0.187806	0.153497	0.095390
O237	O	-1.067895	-0.826455	-0.381151
O238	O	-0.567895	-0.326455	0.118849
C239	C	-1.088157	-0.719869	-0.411404
C240	C	-0.588157	-0.219869	0.088596
C241	C	-1.051995	-0.763985	-0.367380
C242	C	-0.551995	-0.263985	0.132620
H243	H	-1.075325	-0.669353	-0.400277
H244	H	-0.575325	-0.169353	0.099723
H245	H	-1.075177	-0.730791	-0.461948
H246	H	-0.575177	-0.230791	0.038052
H247	H	-1.140782	-0.726808	-0.404551
H248	H	-0.640782	-0.226808	0.095449
H249	H	-0.999361	-0.757071	-0.374177
H250	H	-0.499361	-0.257071	0.125823
H251	H	-1.065027	-0.753052	-0.316852
H252	H	-0.565027	-0.253052	0.183148
H253	H	-0.199984	-0.914548	-0.861908
H254	H	0.300016	-0.414548	-0.361908
O255	O	-0.667098	-0.826459	-0.381199
O256	O	-0.167098	-0.326459	0.118801
C257	C	-0.687166	-0.795977	-0.487737
C258	C	-0.187166	-0.295977	0.012263
C259	C	-0.650980	-0.840039	-0.443679
C260	C	-0.150980	-0.340039	0.056321
H261	H	-0.674138	-0.806932	-0.538261
H262	H	-0.174138	-0.306932	-0.038261
H263	H	-0.739802	-0.802883	-0.480926
H264	H	-0.239802	-0.302883	0.019074
H265	H	-0.674314	-0.745460	-0.476635
H266	H	-0.174314	-0.245460	0.023365
H267	H	-0.663779	-0.890573	-0.454754
H268	H	-0.163779	-0.390573	0.045246
H269	H	-0.598353	-0.833080	-0.450498
H270	H	-0.098353	-0.333080	0.049502
H271	H	-0.542690	-0.832649	-0.374807
H272	H	-0.042690	-0.332649	0.125193
H273	H	-1.062695	-0.978311	-0.229691
H274	H	-0.562695	-0.478311	0.270309
O275	O	-0.223663	-0.984591	-0.665357
O276	O	0.276337	-0.484591	-0.165357
C277	C	-0.215171	-1.069219	-0.739273
C278	C	0.284829	-0.569219	-0.239273
C279	C	-0.259443	-1.025096	-0.703214
C280	C	0.240557	-0.525096	-0.203214
H281	H	-0.244082	-1.101987	-0.769879
H282	H	0.255918	-0.601987	-0.269879
H283	H	-0.182260	-1.040514	-0.769931
H284	H	0.317740	-0.540514	-0.269931
H285	H	-0.186391	-1.097849	-0.704663
H286	H	0.313609	-0.597849	-0.204663
H287	H	-0.288265	-0.996456	-0.737779
H288	H	0.211735	-0.496456	-0.237779
H289	H	-0.292313	-1.053837	-0.672546
H290	H	0.207687	-0.553837	-0.172546
H291	H	-0.376004	-0.832767	-0.660018
H292	H	0.123996	-0.332767	-0.160018
H293	H	-0.293882	-0.346298	-0.199803
H294	H	0.206118	0.153702	0.300197
O295	O	-0.382182	-0.826540	-1.068883
O296	O	0.117818	-0.326540	-0.568883
C297	C	-0.417825	-0.790986	-1.169657
C298	C	0.082175	-0.290986	-0.669657
C299	C	-0.373531	-0.835060	-1.133673
C300	C	0.126469	-0.335060	-0.633673
H301	H	-0.410837	-0.797850	-1.222046
H302	H	0.089163	-0.297850	-0.722046
H303	H	-0.468597	-0.801965	-1.156842
H304	H	0.031403	-0.301965	-0.656842
H305	H	-0.406802	-0.740475	-1.156716
H306	H	0.093198	-0.240475	-0.656716
H307	H	-0.384498	-0.885585	-1.146594
H308	H	0.115502	-0.385585	-0.646594
H309	H	-0.322773	-0.824027	-1.146491
H310	H	0.177227	-0.324027	-0.646491
H311	H	-0.376172	-0.263297	-0.374796
H312	H	0.123828	0.236703	0.125204
O313	O	-0.312985	-0.470274	-0.413501
O314	O	0.187015	0.029726	0.086499
C315	C	-0.323027	-0.463491	-0.525468
C316	C	0.176973	0.036509	-0.025468
C317	C	-0.317490	-0.427464	-0.463368
C318	C	0.182510	0.072536	0.036632
H319	H	-0.326685	-0.428895	-0.565801
H320	H	0.173315	0.071105	-0.065801
H321	H	-0.279739	-0.494158	-0.532194
H322	H	0.220261	0.005842	-0.032194
H323	H	-0.366806	-0.494100	-0.524376
H324	H	0.133194	0.005900	-0.024376
H325	H	-0.273737	-0.396821	-0.464416
H326	H	0.226263	0.103179	0.035584
H327	H	-0.360809	-0.396837	-0.456666
H328	H	0.139191	0.103163	0.043334
H329	H	-0.200024	-0.914548	-0.743196
H330	H	0.299976	-0.414548	-0.243196
H331	H	-0.405790	-0.896496	-0.861880
H332	H	0.094210	-0.396496	-0.361880
H333	H	-0.405817	-0.896322	-0.743175
H334	H	0.094183	-0.396322	-0.243175
H335	H	-0.376146	-0.144590	-0.374835
H336	H	0.123854	0.355410	0.125165
H337	H	-0.229872	-0.263280	-0.229671
H338	H	0.270128	0.236720	0.270329
H339	H	-0.229917	-0.548207	-0.229594
H340	H	0.270083	-0.048207	0.270406
O341	O	-0.293135	-0.470042	-0.190841
O342	O	0.206865	0.029958	0.309159
C343	C	-0.283104	-0.463022	-0.078876
C344	C	0.216896	0.036978	0.421124
C345	C	-0.288622	-0.427127	-0.141000
C346	C	0.211378	0.072873	0.359000
H347	H	-0.279441	-0.428341	-0.038565
H348	H	0.220559	0.071659	0.461435
H349	H	-0.326404	-0.493586	-0.072137
H350	H	0.173596	0.006414	0.427863
H351	H	-0.239336	-0.493722	-0.079944
H352	H	0.260664	0.006278	0.420056
H353	H	-0.332365	-0.396393	-0.139976
H354	H	0.167635	0.103607	0.360024
H355	H	-0.245292	-0.396603	-0.147715
H356	H	0.254708	0.103397	0.352285
H357	H	-0.542592	-0.978105	-0.229589
H358	H	-0.042592	-0.478105	0.270411
