data_functionalizedCrystal
_audit_creation_method	'MofGen! by Chris Wilmer'
_symmetry_space_group_name_H-M	'P1'
_symmetry_Int_Tables_number	1
_symmetry_cell_setting	triclinic
loop_
_symmetry_equiv_pos_as_xyz
  x,y,z
_cell_length_a	6.817900
_cell_length_b	7.190334
_cell_length_c	17.078472
_cell_angle_alpha	87.380163
_cell_angle_beta	99.306020
_cell_angle_gamma	60.611776
loop_
_atom_site_label
_atom_site_type_symbol
_atom_site_fract_x
_atom_site_fract_y
_atom_site_fract_z
V1	V	-4.202297	0.664789	-0.108502
O2	O	-4.207970	0.652355	0.006516
O3	O	-4.131935	0.660030	-0.216394
O4	O	-4.239888	0.954823	-0.106262
O5	O	-4.099270	0.355521	-0.104379
V6	V	-4.677629	0.627824	-0.094812
O7	O	-4.481525	0.745875	-0.138532
O8	O	-4.848598	0.546738	-0.064782
O9	O	-4.524785	0.632582	0.013080
O10	O	-4.789353	0.640258	-0.209831
O11	O	-4.898053	0.937092	-0.098936
O12	O	-4.416831	0.337790	-0.097053
C13	C	-3.968811	0.649488	-0.242714
C14	C	-3.993141	0.647531	-0.330913
C15	C	-4.189052	0.657242	-0.376370
C16	C	-4.211908	0.655415	-0.459243
C17	C	-4.038842	0.643862	-0.496657
C18	C	-3.842918	0.634157	-0.451194
C19	C	-3.820073	0.635999	-0.368324
C20	C	-4.087391	0.637227	-0.744073
C21	C	-4.110249	0.635379	-0.826950
C22	C	-4.479240	0.656642	-0.834993
C23	C	-4.456371	0.658470	-0.752120
C24	C	-4.260456	0.648776	-0.706665
N25	N	-4.062196	0.641988	-0.581366
N26	N	-4.237112	0.650665	-0.621958
C27	C	-4.106527	1.025523	-0.102225
C28	C	-4.220502	1.267082	-0.101085
C29	C	-4.351248	0.643119	0.039395
C30	C	-4.306160	0.645090	0.127593
H31	H	-3.969332	0.626021	-0.857412
C32	C	-3.607319	0.625123	-0.318849
C33	C	-3.493052	0.441265	-0.260681
C34	C	-3.297073	0.431200	-0.215085
H35	H	-3.507265	0.617856	-0.352898
H36	H	-3.651959	0.750278	-0.293316
H37	H	-3.448408	0.316141	-0.286213
H38	H	-3.593041	0.448491	-0.226615
H39	H	-3.341712	0.556355	-0.189552
H40	H	-3.197037	0.423940	-0.249140
H41	H	-3.219530	0.306466	-0.175608
H42	H	-4.329976	0.666629	-0.345913
H43	H	-4.371438	0.663327	-0.496251
H44	H	-4.638747	0.664534	-0.872011
C45	C	-3.874404	0.626226	-0.694748
C46	C	-3.678272	0.435002	-0.702126
C47	C	-3.482014	0.424774	-0.656689
H48	H	-3.863293	0.746329	-0.713644
H49	H	-3.885415	0.628860	-0.640017
H50	H	-3.667261	0.432387	-0.756845
H51	H	-3.689306	0.314865	-0.683225
H52	H	-3.493026	0.427409	-0.601958
H53	H	-3.470926	0.544886	-0.675588
H54	H	-3.348918	0.295022	-0.661682
H55	H	-3.702013	0.624763	-0.481664
H56	H	-4.597311	0.667893	-0.721664
