data_functionalizedCrystal
_audit_creation_method	'MofGen! by Chris Wilmer'
_symmetry_space_group_name_H-M	'P1'
_symmetry_Int_Tables_number	1
_symmetry_cell_setting	triclinic
loop_
_symmetry_equiv_pos_as_xyz
  x,y,z
_cell_length_a	11.169417
_cell_length_b	16.120256
_cell_length_c	11.169416
_cell_angle_alpha	92.880283
_cell_angle_beta	90.011219
_cell_angle_gamma	92.881592
loop_
_atom_site_label
_atom_site_type_symbol
_atom_site_fract_x
_atom_site_fract_y
_atom_site_fract_z
Zn1	Zn	1.800522	-0.471350	-0.512238
Zn2	Zn	1.810597	-0.331951	-0.702758
Zn3	Zn	1.609993	-0.331960	-0.502092
Zn4	Zn	1.599817	-0.471327	-0.712879
O5	O	1.705232	-0.401647	-0.607492
O6	O	1.969808	-0.452864	-0.537521
O7	O	1.792461	-0.215288	-0.667658
O8	O	1.635309	-0.350463	-0.335489
O9	O	1.977210	-0.350449	-0.677496
O10	O	1.775290	-0.452873	-0.342943
O11	O	1.645078	-0.215294	-0.520229
O12	O	1.440694	-0.350441	-0.530042
O13	O	1.617966	-0.587994	-0.694745
O14	O	1.433218	-0.452833	-0.684907
O15	O	1.765423	-0.588011	-0.547334
O16	O	1.782594	-0.350427	-0.872050
O17	O	1.627735	-0.452825	-0.879485
C18	C	1.393408	-0.401636	-0.607473
C19	C	1.260007	-0.401651	-0.607495
C20	C	1.689436	-0.619098	-0.623300
C21	C	1.682704	-0.711763	-0.630037
C22	C	1.740334	-0.922718	-0.572330
C23	C	1.670374	-0.881417	-0.642286
C24	C	1.677236	-0.787013	-0.635469
C25	C	1.733473	-1.017131	-0.579146
C26	C	2.018274	-0.401658	-0.607512
C27	C	2.151673	-0.401663	-0.607520
C28	C	1.705185	-0.401641	-0.919316
C29	C	1.705273	-0.401666	-1.052718
C30	C	1.721036	-0.185042	-0.591658
C31	C	1.728000	-0.092377	-0.584583
C32	C	1.705311	-0.401672	-0.294451
C33	C	1.705344	-0.401682	-0.161052
H34	H	1.805378	-0.887179	-0.507324
H35	H	1.605318	-0.916958	-0.707292
