data_functionalizedCrystal
_audit_creation_method	'MofGen! by Chris Wilmer'
_symmetry_space_group_name_H-M	'P1'
_symmetry_Int_Tables_number	1
_symmetry_cell_setting	triclinic
loop_
_symmetry_equiv_pos_as_xyz
  x,y,z
_cell_length_a	12.594517
_cell_length_b	19.121063
_cell_length_c	12.594509
_cell_angle_alpha	87.594190
_cell_angle_beta	90.011478
_cell_angle_gamma	92.464477
loop_
_atom_site_label
_atom_site_type_symbol
_atom_site_fract_x
_atom_site_fract_y
_atom_site_fract_z
Zn1	Zn	1.609101	-0.279668	0.619609
Zn2	Zn	1.601362	-0.397131	0.449202
Zn3	Zn	1.431104	-0.279690	0.441670
Zn4	Zn	1.423461	-0.397074	0.627159
O5	O	1.516257	-0.338391	0.534410
O6	O	1.757020	-0.295265	0.596996
O7	O	1.578737	-0.381585	0.299259
O8	O	1.461153	-0.181403	0.458961
O9	O	1.751334	-0.381564	0.471800
O10	O	1.591927	-0.181387	0.589692
O11	O	1.453649	-0.295302	0.293725
O12	O	1.281145	-0.295247	0.466283
O13	O	1.448127	-0.381467	0.775101
O14	O	1.275530	-0.381488	0.602561
O15	O	1.584516	-0.295210	0.769554
O16	O	1.571326	-0.495408	0.479121
O17	O	1.440623	-0.495366	0.609865
C18	C	1.239718	-0.338364	0.534424
C19	C	1.121412	-0.338370	0.534457
C20	C	1.049130	-0.385368	0.608447
C21	C	0.982481	-0.321331	0.630497
C22	C	0.977259	-0.402460	0.512387
C23	C	1.056324	-0.274299	0.556556
C24	C	1.051105	-0.355471	0.438402
C25	C	0.984491	-0.291389	0.460413
C26	C	1.504335	-0.520871	0.546153
C27	C	1.499332	-0.598936	0.551212
C28	C	1.565084	-0.635610	0.485574
C29	C	1.560385	-0.708961	0.490338
C30	C	1.489927	-0.745637	0.560737
C31	C	1.424172	-0.708958	0.626382
C32	C	1.428877	-0.635608	0.621622
C33	C	1.472318	-0.967105	0.578516
C34	C	1.467616	-1.040459	0.583269
C35	C	1.603831	-1.040458	0.447226
C36	C	1.608525	-0.967107	0.442468
C37	C	1.542774	-0.930434	0.508117
C38	C	1.485120	-0.820613	0.565606
C39	C	1.547587	-0.855459	0.503252
C40	C	1.793876	-0.338418	0.534396
C41	C	1.912181	-0.338430	0.534390
C42	C	1.516332	-0.338330	0.812027
C43	C	1.516365	-0.338303	0.930331
C44	C	1.528255	-0.155199	0.522644
C45	C	1.533368	-0.077133	0.517630
C46	C	1.516247	-0.338402	0.257870
C47	C	1.516434	-0.338230	0.139554
C48	C	1.442207	-0.385192	1.002599
C49	C	1.538212	-0.402357	1.074480
C50	C	1.420437	-0.321096	1.069247
C51	C	1.612419	-0.355502	1.000655
C52	C	1.494580	-0.274211	0.995414
C53	C	1.590655	-0.291352	1.067261
H54	H	1.090787	-0.220108	0.575287
H55	H	1.427751	-0.850482	0.622922
C56	C	0.931197	-0.474673	0.487311
C57	C	0.967425	-0.492844	0.387479
C58	C	0.925009	-0.559359	0.364350
H59	H	0.953229	-0.508054	0.539871
H60	H	0.855809	-0.474080	0.486763
H61	H	1.042798	-0.493442	0.388035
H62	H	0.945395	-0.459481	0.334897
H63	H	0.849620	-0.558766	0.363802
H64	H	0.947043	-0.592734	0.416917
H65	H	0.949575	-0.571694	0.296609
C66	C	0.942182	-0.301935	0.738680
C67	C	0.885044	-0.240852	0.727477
C68	C	0.847921	-0.222963	0.827115
H69	H	0.897151	-0.339030	0.767728
H70	H	1.000798	-0.294127	0.784819
H71	H	0.826435	-0.248663	0.681355
H72	H	0.930052	-0.203743	0.698447
H73	H	0.906537	-0.215155	0.873255
H74	H	0.802895	-0.260062	0.856155
H75	H	0.809157	-0.181513	0.819529
C76	C	1.401100	-0.927262	0.649914
C77	C	1.464023	-0.885103	0.715474
C78	C	1.398448	-0.848396	0.781272
H79	H	1.356559	-0.898634	0.607432
H80	H	1.358485	-0.959593	0.692574
H81	H	1.506619	-0.852775	0.672819
H82	H	1.508562	-0.913713	0.757978
H83	H	1.355833	-0.880727	0.823932
H84	H	1.353910	-0.819772	0.738782
H85	H	1.441131	-0.819792	0.825769
H86	H	1.693592	-0.370087	0.970622
C87	C	0.946832	-0.238259	0.377072
C88	C	0.987196	-0.171328	0.400645
C89	C	0.952513	-0.122365	0.323909
H90	H	0.971381	-0.249904	0.308998
H91	H	0.871367	-0.238795	0.377118
H92	H	1.062645	-0.170794	0.400589
H93	H	0.962651	-0.159661	0.468706
H94	H	0.877048	-0.122901	0.323955
H95	H	0.977064	-0.134016	0.255840
H96	H	0.979886	-0.076946	0.339898
C97	C	1.641514	-0.595883	0.408971
C98	C	1.617264	-0.613806	0.304808
C99	C	1.687661	-0.577232	0.234215
H100	H	1.634968	-0.546935	0.415388
H101	H	1.712269	-0.607876	0.425318
H102	H	1.546527	-0.601808	0.288467
H103	H	1.623817	-0.662747	0.298357
H104	H	1.758416	-0.589225	0.250562
H105	H	1.681109	-0.528286	0.240642
H106	H	1.671223	-0.589392	0.163534
C107	C	1.684916	-0.927163	0.366066
C108	C	1.674940	-0.855077	0.375925
C109	C	1.745279	-0.818259	0.305546
H110	H	1.755705	-0.939053	0.382397
H111	H	1.668592	-0.939188	0.295298
H112	H	1.691271	-0.843056	0.446677
H113	H	1.604167	-0.843165	0.359586
H114	H	1.728955	-0.830284	0.234778
H115	H	1.816063	-0.830155	0.321882
H116	H	1.738514	-0.769345	0.312219
H117	H	1.081306	-0.369933	0.357225
H118	H	1.379537	-0.424906	0.974112
H119	H	1.613927	-0.738817	0.436888
H120	H	1.653466	-0.251668	1.095555
H121	H	1.657363	-1.070324	0.393780
C122	C	1.391090	-1.080154	0.659822
C123	C	1.334537	-1.032339	0.716320
C124	C	1.264047	-1.068880	0.786856
H125	H	1.342800	-1.108814	0.621054
H126	H	1.429934	-1.108710	0.708131
H127	H	1.295695	-1.003796	0.668019
H128	H	1.382798	-1.003678	0.755110
H129	H	1.302891	-1.097436	0.835164
H130	H	1.215764	-1.097539	0.748079
H131	H	1.225674	-1.036444	0.825205
H132	H	1.366808	-0.738825	0.683706
C133	C	1.357367	-0.595915	0.692940
C134	C	1.294638	-0.643731	0.755594
C135	C	1.228745	-0.607192	0.821302
H136	H	1.399785	-0.567258	0.737579
H137	H	1.312786	-0.567357	0.650366
H138	H	1.339214	-0.672277	0.798163
H139	H	1.252199	-0.672389	0.710983
H140	H	1.184164	-0.578634	0.778729
H141	H	1.271171	-0.578536	0.865934
H142	H	1.186168	-0.639630	0.863813
H143	H	1.604958	-0.825596	0.445938
H144	H	1.077619	-0.425037	0.671090
H145	H	1.556675	-0.456528	1.109073
C146	C	1.470144	-0.201979	0.949185
C147	C	1.555722	-0.175678	0.886392
C148	C	1.533242	-0.109137	0.843798
H149	H	1.407902	-0.205254	0.906765
H150	H	1.459106	-0.171403	1.005314
H151	H	1.566748	-0.206247	0.830271
H152	H	1.617974	-0.172387	0.928788
H153	H	1.522204	-0.078561	0.899927
H154	H	1.470998	-0.112418	0.801383
H155	H	1.591306	-0.091280	0.801197
H156	H	1.339284	-0.306572	1.099415
