data_functionalizedCrystal
_audit_creation_method	'MofGen! by Chris Wilmer'
_symmetry_space_group_name_H-M	'P1'
_symmetry_Int_Tables_number	1
_symmetry_cell_setting	triclinic
loop_
_symmetry_equiv_pos_as_xyz
  x,y,z
_cell_length_a	18.215407
_cell_length_b	18.215404
_cell_length_c	18.215399
_cell_angle_alpha	90.026844
_cell_angle_beta	90.017777
_cell_angle_gamma	90.018838
loop_
_atom_site_label
_atom_site_type_symbol
_atom_site_fract_x
_atom_site_fract_y
_atom_site_fract_z
Zn1	Zn	-1.125080	0.293078	-0.416081
Zn2	Zn	-0.625080	0.793078	0.083919
Zn3	Zn	-1.124992	0.416149	-0.293017
Zn4	Zn	-0.624992	0.916149	0.206983
Zn5	Zn	-1.002013	0.293092	-0.293033
Zn6	Zn	-0.502013	0.793092	0.206967
Zn7	Zn	-1.001982	0.416098	-0.416047
Zn8	Zn	-0.501982	0.916098	0.083953
O9	O	-1.063517	0.354604	-0.354544
O10	O	-0.563517	0.854604	0.145456
O11	O	-1.228053	0.309419	-0.399764
O12	O	-0.728053	0.809419	0.100236
O13	O	-1.108655	0.399852	-0.190035
O14	O	-0.608655	0.899852	0.309965
O15	O	-1.018388	0.190105	-0.309377
O16	O	-0.518388	0.690105	0.190623
O17	O	-1.227988	0.399839	-0.309350
O18	O	-0.727988	0.899839	0.190650
O19	O	-1.108805	0.190095	-0.399780
O20	O	-0.608805	0.690095	0.100220
O21	O	-1.018302	0.309443	-0.190047
O22	O	-0.518302	0.809443	0.309953
O23	O	-0.899025	0.309393	-0.309343
O24	O	-0.399025	0.809393	0.190657
O25	O	-1.018336	0.399752	-0.519035
O26	O	-0.518336	0.899752	-0.019035
O27	O	-0.899002	0.399765	-0.399721
O28	O	-0.399002	0.899765	0.100279
O29	O	-1.108775	0.309369	-0.519061
O30	O	-0.608775	0.809369	-0.019061
O31	O	-1.108625	0.519127	-0.309316
O32	O	-0.608625	1.019127	0.190684
O33	O	-1.018250	0.519089	-0.399705
O34	O	-0.518250	1.019089	0.100295
C35	C	-0.872311	0.354575	-0.354530
C36	C	-0.372311	0.854575	0.145470
C37	C	-0.790512	0.354581	-0.354542
C38	C	-0.290512	0.854581	0.145458
C39	C	-0.602351	0.307590	-0.401693
C40	C	-0.102351	0.807590	0.098307
C41	C	-0.525492	0.307594	-0.401695
C42	C	-0.025492	0.807594	0.098305
C43	C	-0.525436	0.401607	-0.307401
C44	C	-0.025436	0.901607	0.192599
C45	C	-0.602293	0.401599	-0.307396
C46	C	-0.102293	0.901599	0.192604
C47	C	-0.640748	0.354591	-0.354546
C48	C	-0.140748	0.854591	0.145454
C49	C	-0.487032	0.354603	-0.354553
C50	C	0.012968	0.854603	0.145447
C51	C	-0.403699	0.354608	-0.354555
C52	C	0.096301	0.854608	0.145445
C53	C	-0.724087	0.354586	-0.354544
C54	C	-0.224087	0.854586	0.145456
C55	C	-1.063445	0.545810	-0.354521
C56	C	-0.563445	1.045810	0.145479
C57	C	-1.063481	0.627609	-0.354536
C58	C	-0.563481	1.127609	0.145464
C59	C	-0.255470	0.354625	-0.354557
C60	C	0.244530	0.854625	0.145443
C61	C	-0.337269	0.354614	-0.354558
C62	C	0.162731	0.854614	0.145442
C63	C	-1.110680	0.892662	-0.307582
C64	C	-0.610680	1.392662	0.192418
C65	C	-1.110649	0.815803	-0.307562
C66	C	-0.610649	1.315803	0.192438
C67	C	-1.016455	0.815805	-0.401602
C68	C	-0.516455	1.315805	0.098398
C69	C	-1.016483	0.892662	-0.401618
C70	C	-0.516483	1.392662	0.098382
C71	C	-1.063600	0.931089	-0.354609
C72	C	-0.563600	1.431089	0.145391
C73	C	-1.063541	0.777373	-0.354573
C74	C	-0.563541	1.277373	0.145427
C75	C	-1.063507	0.694039	-0.354551
C76	C	-0.563507	1.194039	0.145449
C77	C	-1.063633	1.014428	-0.354629
C78	C	-0.563633	1.514428	0.145371
C79	C	-1.063562	0.354553	-0.546497
C80	C	-0.563562	0.854553	-0.046497
C81	C	-1.063581	0.354532	-0.628296
C82	C	-0.563581	0.854532	-0.128296
C83	C	-1.063612	1.162651	-0.354595
C84	C	-0.563612	1.662651	0.145405
C85	C	-1.063659	1.080852	-0.354645
C86	C	-0.563659	1.580852	0.145355
C87	C	-1.110690	0.307426	-0.816505
C88	C	-0.610690	0.807426	-0.316505
C89	C	-1.110699	0.307404	-0.893364
C90	C	-0.610699	0.807404	-0.393364
C91	C	-1.016524	0.401524	-0.893326
C92	C	-0.516524	0.901524	-0.393326
C93	C	-1.016512	0.401541	-0.816468
C94	C	-0.516512	0.901541	-0.316468
C95	C	-1.063599	0.354493	-0.778060
C96	C	-0.563599	0.854493	-0.278060
C97	C	-1.063620	0.354454	-0.931776
C98	C	-0.563620	0.854454	-0.431776
C99	C	-1.063629	0.354432	-1.015110
C100	C	-0.563629	0.854432	-0.515110
C101	C	-1.063589	0.354515	-0.694721
C102	C	-0.563589	0.854515	-0.194721
C103	C	-1.063515	0.354601	-0.163338
C104	C	-0.563515	0.854601	0.336662
C105	C	-1.063638	0.354416	-0.081540
C106	C	-0.563638	0.854416	0.418460
H107	H	-0.494232	0.269320	-0.440086
H108	H	0.005768	0.769320	0.059914
H109	H	-1.149029	0.269114	-0.785235
H110	H	-0.649029	0.769114	-0.285235
H111	H	-0.494116	0.439879	-0.269014
H112	H	0.005884	0.939879	0.230986
H113	H	-0.633557	0.439874	-0.269000
H114	H	-0.133557	0.939874	0.231000
H115	H	-1.149045	0.923947	-0.269304
H116	H	-0.649045	1.423947	0.230696
H117	H	-1.148985	0.784518	-0.269267
H118	H	-0.648985	1.284518	0.230733
O119	O	-0.970826	0.929961	-0.447410
O120	O	-0.470826	1.429961	0.052590
C121	C	-0.934999	0.953390	-0.572560
C122	C	-0.434999	1.453390	-0.072560
C123	C	-0.986762	0.911117	-0.520791
C124	C	-0.486762	1.411117	-0.020791
H125	H	-0.947854	0.938158	-0.631899
H126	H	-0.447854	1.438158	-0.131899
H127	H	-0.943114	1.014931	-0.564558
H128	H	-0.443114	1.514931	-0.064558
H129	H	-0.875665	0.938338	-0.559538
H130	H	-0.375665	1.438338	-0.059538
H131	H	-1.046116	0.926108	-0.533781
H132	H	-0.546116	1.426108	-0.033781
H133	H	-0.978584	0.849586	-0.528803
H134	H	-0.478584	1.349586	-0.028803
H135	H	-0.978160	0.439868	-0.785166
H136	H	-0.478160	0.939868	-0.285166
H137	H	-1.149043	0.269076	-0.924662
H138	H	-0.649043	0.769076	-0.424662
H139	H	-0.978095	0.784510	-0.439876
H140	H	-0.478095	1.284510	0.060124
H141	H	-0.633659	0.269311	-0.440084
H142	H	-0.133659	0.769311	0.059916
O143	O	-0.970859	0.447204	-0.930751
O144	O	-0.470859	0.947204	-0.430751
C145	C	-0.929109	0.488860	-1.049137
C146	C	-0.429109	0.988860	-0.549137
C147	C	-0.980874	0.437101	-1.006847
C148	C	-0.480874	0.937101	-0.506847
H149	H	-0.937177	0.480699	-1.110668
H150	H	-0.437177	0.980699	-0.610668
H151	H	-0.942004	0.548223	-1.034067
H152	H	-0.442004	1.048223	-0.534067
H153	H	-0.869780	0.475941	-1.033976
H154	H	-0.369780	0.975941	-0.533976
H155	H	-1.040221	0.449954	-1.021986
H156	H	-0.540221	0.949954	-0.521986
H157	H	-0.967916	0.377754	-1.021921
H158	H	-0.467916	0.877754	-0.521921
