data_functionalizedCrystal
_audit_creation_method	'MofGen! by Chris Wilmer'
_symmetry_space_group_name_H-M	'P1'
_symmetry_Int_Tables_number	1
_symmetry_cell_setting	triclinic
loop_
_symmetry_equiv_pos_as_xyz
  x,y,z
_cell_length_a	31.640172
_cell_length_b	14.628931
_cell_length_c	14.628931
_cell_angle_alpha	59.999972
_cell_angle_beta	90.004141
_cell_angle_gamma	59.998250
loop_
_atom_site_label
_atom_site_type_symbol
_atom_site_fract_x
_atom_site_fract_y
_atom_site_fract_z
Zr1	Zr	0.407183	1.000467	-0.119845
O2	O	0.339693	1.191191	-0.265825
O3	O	0.427872	0.809756	-0.075094
O4	O	0.427872	1.000462	-0.265800
O5	O	0.339693	1.000486	0.075312
O6	O	0.497429	1.000443	-0.265780
O7	O	0.339693	1.000486	-0.075120
O8	O	0.497429	0.659305	0.075358
O9	O	0.339693	1.341623	-0.265826
O10	O	0.488605	0.888180	-0.055993
O11	O	0.436696	0.888194	0.056257
O12	O	0.436695	1.112725	-0.168274
O13	O	0.384786	1.112739	-0.056024
Zr14	Zr	0.518118	1.000437	0.120109
Zr15	Zr	0.518118	1.000437	-0.119813
Zr16	Zr	0.407183	1.000467	0.120077
Zr17	Zr	0.407183	1.240389	-0.119845
Zr18	Zr	0.518118	0.760516	0.120109
O19	O	0.497429	1.191148	0.075358
O20	O	0.497429	1.191148	-0.265780
O21	O	0.339693	1.191191	0.075312
O22	O	0.585608	0.809713	0.266089
O23	O	0.585608	0.809713	-0.075048
O24	O	0.427872	0.809756	0.266044
O25	O	0.585608	1.000419	-0.075049
O26	O	0.497429	1.000443	0.266063
O27	O	0.427872	1.000462	0.266043
O28	O	0.585608	1.000419	0.075383
O29	O	0.427872	1.341599	-0.265800
O30	O	0.497429	0.659305	0.266064
O31	O	0.585608	0.659281	0.266089
O32	O	0.585608	0.659281	0.075384
O33	O	0.339693	1.341623	-0.075120
O34	O	0.427872	1.341599	-0.075095
O35	O	0.488605	0.888180	0.168538
O36	O	0.540515	0.888165	0.056287
O37	O	0.488605	1.112711	-0.055994
O38	O	0.436696	1.112725	0.056257
C39	C	0.462650	0.700347	0.000132
C40	C	0.462650	0.598494	0.000132
C41	C	0.488401	0.553078	-0.055551
C42	C	0.488401	0.447808	-0.055553
C43	C	0.323887	1.000490	0.000092
C44	C	0.276792	1.000503	0.000078
C45	C	0.011882	0.883230	0.058764
C46	C	-0.165103	0.883207	0.058786
O47	O	-0.164944	0.783524	0.108672
N48	N	-0.214329	1.000417	0.000175
C49	C	-0.219308	1.117640	-0.058440
O50	O	-0.265238	1.217334	-0.108282
C51	C	-0.042323	1.117661	-0.058454
C52	C	0.006902	1.000444	0.000151
C53	C	0.061106	0.766022	0.117366
C54	C	0.105349	0.766029	0.117355
C55	C	0.100369	0.883243	0.058742
C56	C	0.051146	1.000451	0.000140
C57	C	-0.047303	1.234884	-0.117062
C58	C	-0.003051	1.234878	-0.117058
C59	C	0.046174	1.117661	-0.058453
C60	C	0.090409	1.117672	-0.058484
N61	N	0.139635	1.000463	0.000127
C62	C	0.144615	0.883248	0.058740
C63	C	-0.312225	1.117621	-0.058429
C64	C	-0.356471	1.117616	-0.058427
C65	C	-0.302263	0.883183	0.058800
C66	C	-0.258017	0.883189	0.058791
C67	C	-0.262999	1.000412	0.000182
C68	C	0.237527	0.883271	0.058711
C69	C	0.281772	0.883289	0.058691
C70	C	0.227560	1.117721	-0.058531
C71	C	0.183319	1.117705	-0.058516
C72	C	0.188306	1.000469	0.000113
O73	O	0.090290	1.217304	-0.108334
O74	O	0.190550	0.783570	0.108595
C75	C	-0.032361	0.883223	0.058775
C76	C	-0.081584	1.000431	0.000173
C77	C	-0.086564	1.117645	-0.058440
C78	C	-0.125830	1.000426	0.000175
C79	C	-0.120850	0.883211	0.058788
C80	C	-0.071624	0.766002	0.117399
C81	C	-0.027381	0.766009	0.117388
C82	C	-0.135790	1.234855	-0.117051
C83	C	-0.180031	1.234838	-0.117036
C84	C	-0.175052	1.117624	-0.058423
C85	C	0.601414	1.000415	0.000172
C86	C	0.648509	1.000402	0.000185
C87	C	0.462650	1.000452	-0.299973
C88	C	0.462650	1.000452	-0.401826
C89	C	0.462651	1.300558	0.000131
C90	C	0.462651	1.402411	0.000131
C91	C	0.499067	1.000442	-0.447225
C92	C	0.499068	1.000442	-0.552495
C93	C	0.462651	1.000452	0.300237
C94	C	0.462651	1.000452	0.402090
C95	C	0.601413	0.700309	0.000172
C96	C	0.648508	0.598443	0.000186
C97	C	0.462650	0.700347	0.300238
C98	C	0.462650	0.598494	0.402091
C99	C	0.601414	0.700309	0.300278
C100	C	0.648509	0.598443	0.402144
C101	C	0.323887	1.300595	-0.300014
C102	C	0.276792	1.402461	-0.401880
C103	C	0.323887	1.300595	0.000091
C104	C	0.276792	1.402461	0.000078
C105	C	0.462650	1.300558	-0.299974
C106	C	0.462650	1.402411	-0.401827
C107	C	0.643528	0.550614	-0.058427
C108	C	0.687775	0.454913	-0.058436
C109	C	0.737001	0.407038	0.000174
C110	C	0.741980	0.454877	0.058789
C111	C	0.697734	0.550582	0.058791
C112	C	0.697726	0.550599	0.391388
C113	C	0.741981	0.454898	0.487094
C114	C	0.737018	0.407038	0.593554
C115	C	0.687795	0.454892	0.604308
C116	C	0.643541	0.550597	0.508603
C117	C	0.227575	1.450317	-0.391124
C118	C	0.183320	1.546048	-0.486830
C119	C	0.188283	1.593913	-0.593290
C120	C	0.237505	1.546053	-0.604044
C121	C	0.281759	1.450331	-0.508340
C122	C	0.281772	1.450301	0.058681
C123	C	0.237526	1.546028	0.058664
C124	C	0.188300	1.593907	0.000050
C125	C	0.183321	1.546063	-0.058560
C126	C	0.227567	1.450344	-0.058549
C127	C	0.488401	0.553078	0.503199
C128	C	0.488402	0.447808	0.608471
H129	H	0.510445	0.408757	-0.103231
H130	H	0.065169	0.670567	0.165101
H131	H	0.530244	1.000441	-0.591540
N132	N	-0.141166	1.361285	-0.180282
H133	H	-0.179066	1.435526	-0.217409
H134	H	-0.123994	1.366386	-0.239203
N135	N	0.130226	1.597694	-0.121760
H136	H	0.126081	1.524677	-0.091009
H137	H	0.126102	1.637423	-0.203733
H138	H	0.603450	0.589593	-0.106168
N139	N	0.421352	1.000457	-0.546198
H140	H	0.423017	0.920749	-0.522953
H141	H	0.386181	1.080222	-0.602713
N142	N	0.540379	1.000383	-0.395464
H143	H	0.534527	1.000371	-0.327589
H144	H	0.538707	1.080079	-0.451981
H145	H	0.143237	1.213153	-0.106252
H146	H	0.440606	0.559439	0.047807
H147	H	0.431474	1.000454	-0.440889
H148	H	0.510445	0.592135	0.511825
N149	N	0.433434	0.454190	0.483278
H150	H	0.395521	0.493961	0.474257
H151	H	0.447666	0.381197	0.474281
N152	N	-0.409561	1.244045	-0.121639
H153	H	-0.436839	1.226269	-0.112750
H154	H	-0.413664	1.295235	-0.203596
H155	H	0.773056	0.329108	0.671473
H156	H	0.773025	0.329107	0.000164
H157	H	0.440603	0.559447	0.393464
N158	N	-0.296893	0.756752	0.122032
H159	H	-0.277346	0.705494	0.091308
H160	H	-0.332410	0.774649	0.113120
N161	N	0.517612	0.396072	0.723357
H162	H	0.513473	0.328200	0.782274
H163	H	0.503392	0.469116	0.732282
H164	H	0.782066	0.415883	0.106507
N165	N	0.517603	0.604800	-0.118708
H166	H	0.513461	0.672674	-0.109759
H167	H	0.503377	0.644485	-0.200679
N168	N	0.682398	0.403329	-0.121660
H169	H	0.644499	0.448176	-0.158777
H170	H	0.699578	0.307254	-0.067855
H171	H	0.440601	0.441467	0.047801
H172	H	0.223505	1.411396	-0.106268
N173	N	0.130233	1.597654	-0.475227
H174	H	0.126091	1.637337	-0.432934
H175	H	0.126124	1.524574	-0.432993
N176	N	0.703109	0.602161	0.122017
H177	H	0.741008	0.557300	0.159145
H178	H	0.685935	0.585497	0.180937
N179	N	0.703087	0.602197	0.276571
H180	H	0.740984	0.557355	0.284296
H181	H	0.685905	0.698272	0.234299
H182	H	0.782056	0.415945	0.478318
N183	N	0.590456	0.602191	0.520204
H184	H	0.586310	0.641893	0.562482
H185	H	0.586354	0.529101	0.562454
H186	H	0.223514	1.213154	-0.106256
N187	N	0.334866	0.756857	0.121895
H188	H	0.331304	0.682605	0.159027
H189	H	0.354412	0.751745	0.180808
H190	H	0.152244	1.671856	-0.671210
H191	H	0.241595	0.787807	0.106454
N192	N	0.682446	0.403264	0.719136
H193	H	0.717952	0.335372	0.778123
H194	H	0.662884	0.363620	0.728002
H195	H	-0.217938	0.787740	0.106523
H196	H	0.145427	0.670579	0.165073
N197	N	0.222214	1.398698	-0.276307
H198	H	0.184317	1.443555	-0.284032
H199	H	0.239396	1.415339	-0.234038
N200	N	-0.317604	1.244062	-0.121661
H201	H	-0.355504	1.318302	-0.158791
H202	H	-0.300430	1.249164	-0.180578
N203	N	-0.008428	1.361317	-0.180289
H204	H	0.027069	1.343545	-0.171408
H205	H	-0.027994	1.412500	-0.149519
H206	H	0.241541	1.585038	-0.690735
H207	H	-0.087377	1.330335	-0.164784
H208	H	-0.067577	0.670561	0.165117
N209	N	0.025709	0.639581	0.180593
H210	H	0.022142	0.565336	0.217719
H211	H	0.045254	0.634462	0.239511
N212	N	0.334843	1.398714	-0.519949
H213	H	0.331267	1.443566	-0.601916
H214	H	0.354380	1.302644	-0.482803
H215	H	-0.220112	1.330298	-0.164770
H216	H	0.321851	1.411325	0.106419
H217	H	0.241590	1.584966	0.106395
H218	H	0.152276	1.671847	0.000050
