data_functionalizedCrystal
_audit_creation_method	'MofGen! by Chris Wilmer'
_symmetry_space_group_name_H-M	'P1'
_symmetry_Int_Tables_number	1
_symmetry_cell_setting	triclinic
loop_
_symmetry_equiv_pos_as_xyz
  x,y,z
_cell_length_a	17.699097
_cell_length_b	12.811415
_cell_length_c	16.176319
_cell_angle_alpha	84.562354
_cell_angle_beta	89.988988
_cell_angle_gamma	83.667269
loop_
_atom_site_label
_atom_site_type_symbol
_atom_site_fract_x
_atom_site_fract_y
_atom_site_fract_z
O1	O	1.004668	0.132799	-0.078769
O2	O	1.504668	0.632799	0.421231
O3	O	0.784368	0.150053	-0.080049
O4	O	1.284368	0.650053	0.419951
O5	O	0.900059	-0.011381	-0.067950
O6	O	1.400059	0.488619	0.432050
O7	O	0.888976	0.294233	-0.090869
O8	O	1.388976	0.794233	0.409131
O9	O	0.900043	-0.011391	0.069544
O10	O	1.400043	0.488609	0.569544
O11	O	0.784352	0.150042	0.057445
O12	O	1.284352	0.650042	0.557445
O13	O	1.004651	0.132788	0.058724
O14	O	1.504651	0.632788	0.558724
Cu15	Cu	0.894500	0.141414	0.070639
Cu16	Cu	1.394500	0.641414	0.570639
Cu17	Cu	0.894519	0.141427	-0.091964
Cu18	Cu	1.394519	0.641427	0.408036
O19	O	0.888960	0.294222	0.046625
O20	O	1.388960	0.794222	0.546625
C21	C	0.756160	0.149427	-0.011254
C22	C	1.256160	0.649427	0.488746
C23	C	0.672134	0.147565	-0.011109
C24	C	1.172134	0.647565	0.488891
C25	C	0.156374	0.136158	-0.085235
C26	C	0.656374	0.636158	0.414765
C27	C	0.235326	0.137901	-0.085361
C28	C	0.735326	0.637901	0.414639
C29	C	0.274787	0.138768	-0.010476
C30	C	0.774787	0.638768	0.489524
C31	C	0.235293	0.137882	0.064543
C32	C	0.735293	0.637882	0.564543
C33	C	0.156343	0.136132	0.064669
C34	C	0.656343	0.636132	0.564669
C35	C	0.553689	0.144937	0.064035
C36	C	1.053689	0.644937	0.564035
C37	C	0.632644	0.146690	0.063903
C38	C	1.132644	0.646690	0.563903
C39	C	0.632671	0.146705	-0.085995
C40	C	1.132671	0.646705	0.414005
C41	C	0.553721	0.144956	-0.085869
C42	C	1.053721	0.644956	0.414131
C43	C	0.514235	0.144064	-0.010851
C44	C	1.014235	0.644064	0.489149
C45	C	0.428626	0.142173	-0.010714
C46	C	0.928626	0.642173	0.489286
C47	C	0.360393	0.140666	-0.010612
C48	C	0.860393	0.640666	0.489388
C49	C	0.899430	-0.050489	0.003727
C50	C	1.399430	0.449511	0.503727
C51	C	0.897569	-0.167003	0.012460
C52	C	1.397569	0.332997	0.512460
C53	C	0.894076	-0.385923	-0.121044
C54	C	1.394076	0.114077	0.378956
C55	C	0.892328	-0.495398	-0.112843
C56	C	1.392328	0.004602	0.387157
C57	C	0.892319	-0.495430	0.037062
C58	C	1.392319	0.004570	0.537062
C59	C	0.894067	-0.385955	0.028861
C60	C	1.394067	0.114045	0.528861
C61	C	0.894947	-0.331205	-0.050194
C62	C	1.394947	0.168795	0.449806
C63	C	0.896701	-0.221729	-0.058395
C64	C	1.396701	0.278271	0.441605
C65	C	0.896686	-0.221762	0.091510
C66	C	1.396686	0.278238	0.591510
C67	C	0.894937	-0.331237	0.099711
C68	C	1.394937	0.168763	0.599711
C69	C	1.032859	0.133414	-0.010073
C70	C	1.532859	0.633414	0.489927
C71	C	1.116885	0.135276	-0.010223
C72	C	1.616885	0.635276	0.489777
C73	C	0.889590	0.333330	-0.025054
C74	C	1.389590	0.833330	0.474946
C75	C	0.891450	0.449844	-0.033792
C76	C	1.391450	0.949844	0.466208
N77	N	0.894492	0.141405	0.185005
N78	N	1.394492	0.641405	0.685005
N79	N	0.894533	0.141427	-0.206329
N80	N	1.394533	0.641427	0.293671
C81	C	0.945736	0.069951	0.233624
C82	C	1.445736	0.569951	0.733624
C83	C	0.945740	0.069950	0.320171
C84	C	1.445740	0.569950	0.820171
C85	C	0.894503	0.141409	0.358097
C86	C	1.394503	0.641409	0.858097
C87	C	0.843254	0.212866	0.309471
C88	C	1.343254	0.712866	0.809471
C89	C	0.843247	0.212861	0.222926
C90	C	1.343247	0.712861	0.722926
C91	C	0.843280	0.212886	0.658498
C92	C	1.343280	0.712886	1.158498
C93	C	0.843292	0.212887	0.745050
C94	C	1.343292	0.712887	1.245050
C95	C	0.945773	0.069975	0.755743
C96	C	1.445773	0.569975	1.255743
C97	C	0.945766	0.069970	0.669198
C98	C	1.445766	0.569970	1.169198
C99	C	0.894514	0.141423	0.620580
C100	C	1.394514	0.641423	1.120580
C101	C	0.894510	0.141422	0.526736
C102	C	1.394510	0.641422	1.026736
C103	C	0.894511	0.141416	0.451939
C104	C	1.394511	0.641416	0.951939
H105	H	0.664771	0.147396	0.124888
H106	H	1.164771	0.647396	0.624888
H107	H	0.897398	-0.177200	0.149201
H108	H	1.397398	0.322800	0.649201
H109	H	0.897419	-0.177154	-0.122766
H110	H	1.397419	0.322846	0.377234
C111	C	1.002129	-0.008642	0.627485
C112	C	1.502129	0.491358	1.127485
N113	N	1.044579	-0.067858	0.596069
N114	N	1.544579	0.432142	1.096069
H115	H	0.987502	0.011790	0.795338
H116	H	1.487502	0.511790	1.295338
H117	H	0.801566	0.271079	0.775926
H118	H	1.301566	0.771079	1.275926
H119	H	0.801551	0.271067	0.618920
H120	H	1.301551	0.771067	1.118920
H121	H	0.801532	0.271046	0.340356
H122	H	1.301532	0.771046	0.840356
H123	H	0.521550	0.144196	0.125121
H124	H	1.021550	0.644196	0.625121
H125	H	0.521595	0.144255	-0.146849
H126	H	1.021595	0.644255	0.353151
H127	H	0.801518	0.271045	0.183340
H128	H	1.301518	0.771045	0.683340
C129	C	0.895049	-0.325697	-0.208004
C130	C	1.395049	0.174303	0.291996
N131	N	0.895780	-0.280335	-0.273505
N132	N	1.395780	0.219665	0.226495
C133	C	0.112974	0.135203	-0.167617
C134	C	0.612974	0.635203	0.332383
N135	N	0.080288	0.134478	-0.229669
N136	N	0.580288	0.634478	0.270331
H137	H	0.267474	0.138613	-0.146443
H138	H	0.767474	0.638613	0.353557
C139	C	0.112906	0.135166	0.147188
C140	C	0.612906	0.635166	0.647188
N141	N	0.080190	0.134436	0.209344
N142	N	0.580190	0.634436	0.709344
C143	C	0.278699	0.138880	0.146915
C144	C	0.778699	0.638880	0.646915
N145	N	0.311390	0.139653	0.208958
N146	N	0.811390	0.639653	0.708958
C147	C	0.676114	0.147672	-0.168516
C148	C	1.176114	0.647672	0.331484
N149	N	0.708835	0.148400	-0.230669
N150	N	1.208835	0.648400	0.269331
C151	C	1.002101	-0.008661	0.191914
C152	C	1.502101	0.491339	0.691914
N153	N	1.044555	-0.067877	0.160501
N154	N	1.544555	0.432123	0.660501
C155	C	0.891334	-0.555671	0.124017
C156	C	1.391334	-0.055671	0.624017
N157	N	0.890589	-0.601044	0.189511
N158	N	1.390589	-0.101044	0.689511
C159	C	0.891389	-0.555587	-0.190783
C160	C	1.391389	-0.055587	0.309217
N161	N	0.890687	-0.600922	-0.249490
N162	N	1.390687	-0.100922	0.250510
H163	H	0.894218	-0.375829	0.164076
H164	H	1.394218	0.124171	0.664076
H165	H	0.987466	0.011767	0.359757
H166	H	1.487466	0.511767	0.859757
