data_functionalizedCrystal
_audit_creation_method	'MofGen! by Chris Wilmer'
_symmetry_space_group_name_H-M	'P1'
_symmetry_Int_Tables_number	1
_symmetry_cell_setting	triclinic
loop_
_symmetry_equiv_pos_as_xyz
  x,y,z
_cell_length_a	10.540539
_cell_length_b	27.732048
_cell_length_c	9.016244
_cell_angle_alpha	89.992799
_cell_angle_beta	89.994699
_cell_angle_gamma	83.584073
loop_
_atom_site_label
_atom_site_type_symbol
_atom_site_fract_x
_atom_site_fract_y
_atom_site_fract_z
O1	O	1.682935	0.068112	-0.123289
O2	O	1.313244	0.074530	-0.123309
O3	O	1.509571	0.000996	-0.123270
O4	O	1.486608	0.141645	-0.123327
O5	O	1.509543	0.000998	0.123411
O6	O	1.313215	0.074531	0.123372
O7	O	1.682907	0.068113	0.123392
Cu8	Cu	1.498058	0.071322	0.145906
Cu9	Cu	1.498092	0.071321	-0.145822
O10	O	1.486579	0.141647	0.123353
C11	C	1.265947	0.074049	0.000030
C12	C	1.125062	0.072609	0.000023
C13	C	1.509075	-0.017013	0.000075
C14	C	1.507623	-0.070677	0.000087
C15	C	0.944031	0.017434	0.000622
C16	C	1.090586	0.018894	0.000050
C17	C	1.062283	0.098458	-0.140849
C18	C	0.915818	0.096625	-0.140950
C19	C	0.915250	0.097720	0.139571
C20	C	1.062210	0.098215	0.141418
C21	C	1.614502	-0.408819	0.000017
C22	C	1.609117	-0.610513	-0.000004
O23	O	1.706850	-0.641153	-0.000064
N24	N	1.492703	-0.630369	-0.000009
C25	C	1.377627	-0.599799	-0.000019
O26	O	1.278486	-0.621317	-0.000039
C27	C	1.383013	-0.398107	-0.000008
C28	C	1.499435	-0.378253	0.000012
C29	C	1.730915	-0.388965	0.000035
C30	C	1.732260	-0.338544	0.000048
C31	C	1.617193	-0.307978	0.000043
C32	C	1.500780	-0.327832	0.000025
C33	C	1.267939	-0.367538	-0.000028
C34	C	1.269296	-0.317112	-0.000030
C35	C	1.385718	-0.297258	-0.000010
C36	C	1.387058	-0.246846	0.000033
N37	N	1.503472	-0.226989	0.000038
C38	C	1.618540	-0.257555	0.000043
C39	C	1.374807	-0.705691	-0.000021
C40	C	1.373460	-0.756114	-0.000021
C41	C	1.604950	-0.766824	-0.000010
C42	C	1.606296	-0.716400	0.000001
C43	C	1.491221	-0.685834	-0.000016
C44	C	1.621356	-0.151668	0.000072
C45	C	1.622691	-0.101243	0.000092
C46	C	1.391201	-0.090538	0.000073
C47	C	1.389865	-0.140959	0.000061
C48	C	1.504953	-0.171523	0.000056
O49	O	1.289377	-0.216177	0.000076
O50	O	1.717666	-0.236029	0.000030
C51	C	1.613157	-0.459239	0.000003
C52	C	1.496745	-0.479094	-0.000015
C53	C	1.381678	-0.448528	-0.000020
C54	C	1.495398	-0.529517	-0.000015
C55	C	1.610465	-0.560083	-0.000010
C56	C	1.726879	-0.540226	-0.000005
C57	C	1.728224	-0.489806	0.000008
C58	C	1.265264	-0.468384	-0.000025
C59	C	1.263928	-0.518805	-0.000037
C60	C	1.378995	-0.549371	-0.000032
C61	C	1.730203	0.068594	0.000051
C62	C	1.871089	0.070034	0.000047
C63	C	1.487075	0.159656	0.000006
C64	C	1.488527	0.213320	-0.000016
N65	N	1.498044	0.071324	0.351092
N66	N	1.498117	0.071316	-0.351009
C67	C	1.392710	0.110527	0.586104
C68	C	1.392933	0.110674	0.414213
C69	C	1.630269	0.082796	0.413432
C70	C	1.629691	0.083074	0.585377
C71	C	1.472476	0.020519	0.585655
C72	C	1.469417	0.020848	0.413701
H73	H	1.134071	-0.001446	0.101034
H74	H	1.652436	0.120134	0.625452
H75	H	1.169116	-0.534965	-0.000040
H76	H	1.278658	-0.772274	-0.000012
H77	H	1.294616	0.103771	0.372067
N78	N	0.850468	0.149113	0.140841
H79	H	0.873923	0.166443	0.047941
H80	H	0.754881	0.148566	0.144759
H81	H	1.281093	-0.680808	-0.000035
N82	N	1.748264	-0.079829	0.000122
H83	H	1.820951	-0.106847	0.000119
H84	H	1.753881	-0.059136	-0.091319
H85	H	1.715071	-0.176549	0.000063
H86	H	1.378213	0.009599	0.629103
H87	H	1.082923	0.137906	-0.146106
N88	N	1.117533	0.073203	0.279471
H89	H	1.100207	0.038113	0.278599
H90	H	1.212702	0.074943	0.282172
H91	H	1.133232	-0.001590	-0.101092
H92	H	1.171560	-0.443502	-0.000032
N93	N	1.262057	0.101529	0.640928
H94	H	1.269920	0.071949	0.707068
H95	H	1.223208	0.130675	0.698874
N96	N	1.119730	0.074665	-0.279698
H97	H	1.050521	0.061565	-0.340100
H98	H	1.160762	0.099359	-0.340239
H99	H	0.884446	0.080337	0.246350
H100	H	1.295065	-0.157124	0.000086
N101	N	1.855030	-0.421930	0.000050
H102	H	1.905883	-0.415491	-0.091384
H103	H	1.905738	-0.415478	0.091565
H104	H	1.084735	0.137377	0.149907
H105	H	1.297516	-0.065642	0.000074
H106	H	1.827062	-0.322384	0.000058
H107	H	1.549355	-0.008666	0.626323
N108	N	1.736584	0.045999	0.359276
H109	H	1.739822	0.046722	0.247350
H110	H	1.820626	0.054102	0.400807
H111	H	1.409196	0.148361	0.373052
H112	H	1.173136	-0.383693	-0.000054
N113	N	1.731863	-0.694988	0.000023
H114	H	1.804546	-0.722007	0.000031
H115	H	1.737484	-0.674298	-0.091425
H116	H	1.710523	0.055665	0.626974
H117	H	0.916355	-0.003786	0.101650
H118	H	1.823027	-0.473646	0.000024
N119	N	1.850990	-0.573199	0.000014
H120	H	1.832458	-0.608152	0.000005
H121	H	1.901782	-0.566722	-0.091429
N122	N	0.905225	-0.010567	-0.132398
H123	H	0.840603	0.010672	-0.193032
H124	H	0.982896	-0.020846	-0.195208
H125	H	0.888449	0.077519	-0.246238
N126	N	1.729061	-0.799796	-0.000000
H127	H	1.710531	-0.834750	-0.000003
H128	H	1.779845	-0.793320	-0.091451
H129	H	1.175585	-0.292227	-0.000046
N130	N	1.413987	0.160170	0.643221
H131	H	1.491602	0.157370	0.709664
H132	H	1.427858	0.182129	0.556735
H133	H	1.372156	0.012152	0.372958
H134	H	1.653575	0.119438	0.370341
N135	N	1.564602	-0.019663	0.356821
H136	H	1.627914	-0.005808	0.289362
H137	H	1.611300	-0.036613	0.443339
H138	H	0.866172	0.135256	-0.147360
