data_functionalizedCrystal
_audit_creation_method	'MofGen! by Chris Wilmer'
_symmetry_space_group_name_H-M	'P1'
_symmetry_Int_Tables_number	1
_symmetry_cell_setting	triclinic
loop_
_symmetry_equiv_pos_as_xyz
  x,y,z
_cell_length_a	13.032721
_cell_length_b	13.033299
_cell_length_c	13.033109
_cell_angle_alpha	89.116825
_cell_angle_beta	105.143326
_cell_angle_gamma	90.864526
loop_
_atom_site_label
_atom_site_type_symbol
_atom_site_fract_x
_atom_site_fract_y
_atom_site_fract_z
Zn1	Zn	-0.676068	-1.572144	-0.476638
Zn2	Zn	-0.826826	-1.533740	-0.325920
Zn3	Zn	-0.632282	-1.383126	-0.320404
Zn4	Zn	-0.832346	-1.383091	-0.520483
O5	O	-0.741880	-1.468025	-0.410861
O6	O	-0.712081	-1.709202	-0.440604
O7	O	-0.780385	-1.497704	-0.178378
O8	O	-0.491270	-1.424286	-0.320471
O9	O	-0.822842	-1.680987	-0.329872
O10	O	-0.523440	-1.563157	-0.435256
O11	O	-0.637454	-1.387048	-0.174325
O12	O	-0.642806	-1.240969	-0.362985
O13	O	-0.832250	-1.424226	-0.661477
O14	O	-0.789792	-1.240943	-0.509983
O15	O	-0.717433	-1.563123	-0.629265
O16	O	-0.974378	-1.497670	-0.372387
O17	O	-0.978434	-1.386988	-0.515332
C18	C	-0.712147	-1.204097	-0.440644
C19	C	-0.699456	-1.091188	-0.453414
C20	C	-0.748488	-1.026889	-0.404206
C21	C	-0.735372	-0.910191	-0.417403
C22	C	-1.014481	-1.438188	-0.449235
C23	C	-1.131116	-1.425520	-0.465676
C24	C	-1.181088	-1.474696	-0.402322
C25	C	-1.301636	-1.461604	-0.419313
C26	C	-0.468222	-1.498009	-0.372357
C27	C	-0.351605	-1.510786	-0.355949
C28	C	-0.780342	-1.497955	-0.684502
C29	C	-0.796732	-1.510709	-0.801111
C30	C	-0.771720	-0.732984	-0.380954
C31	C	-0.784410	-0.845894	-0.368188
C32	C	-0.733319	-1.461644	-0.851094
C33	C	-0.750257	-1.474825	-0.971616
C34	C	-0.703500	-1.438279	-0.138268
C35	C	-0.686836	-1.425754	-0.021596
H36	H	-0.647773	-1.059841	-0.505316
H37	H	-1.177580	-1.373732	-0.532500
Br38	Br	-1.103660	-1.561035	-0.290955
Br39	Br	-1.274183	-1.597128	-0.244575
H40	H	-0.817092	-1.526591	-1.018045
H41	H	-0.836111	-0.877234	-0.316295
Br42	Br	-0.834650	-1.079124	-0.317711
Br43	Br	-0.649225	-0.857962	-0.503922
Br44	Br	-1.379065	-1.375282	-0.530700
Br45	Br	-0.575467	-1.339436	-0.944229
H46	H	-0.666494	-1.409876	-0.804661
H47	H	-0.863562	-1.562471	-0.847545
