data_functionalizedCrystal
_audit_creation_method	'MofGen! by Chris Wilmer'
_symmetry_space_group_name_H-M	'P1'
_symmetry_Int_Tables_number	1
_symmetry_cell_setting	triclinic
loop_
_symmetry_equiv_pos_as_xyz
  x,y,z
_cell_length_a	14.853567
_cell_length_b	10.868271
_cell_length_c	14.853567
_cell_angle_alpha	89.998659
_cell_angle_beta	96.365070
_cell_angle_gamma	90.001344
loop_
_atom_site_label
_atom_site_type_symbol
_atom_site_fract_x
_atom_site_fract_y
_atom_site_fract_z
O1	O	1.196364	0.102227	-0.117705
O2	O	1.529698	0.435560	0.215629
O3	O	1.863031	0.768893	0.548962
O4	O	0.933905	0.102247	-0.131726
O5	O	1.267238	0.435580	0.201607
O6	O	1.600572	0.768913	0.534941
O7	O	1.072145	0.102240	0.006514
O8	O	1.405479	0.435573	0.339848
O9	O	1.738812	0.768907	0.673181
O10	O	1.058124	0.102233	-0.255945
O11	O	1.391457	0.435567	0.077388
O12	O	1.724791	0.768900	0.410721
O13	O	1.072134	-0.102405	0.006520
O14	O	1.405467	0.230929	0.339853
O15	O	1.738801	0.564262	0.673186
O16	O	0.933894	-0.102398	-0.131721
O17	O	1.267227	0.230935	0.201613
O18	O	1.600560	0.564269	0.534946
O19	O	1.196353	-0.102418	-0.117699
O20	O	1.529686	0.230915	0.215634
O21	O	1.863020	0.564249	0.548967
Zn22	Zn	1.065122	-0.134900	-0.124709
Zn23	Zn	1.398455	0.198434	0.208624
Zn24	Zn	1.731788	0.531767	0.541957
Zn25	Zn	1.065137	0.134728	-0.124716
Zn26	Zn	1.398470	0.468062	0.208617
Zn27	Zn	1.731803	0.801395	0.541950
O28	O	1.058113	-0.102411	-0.255940
O29	O	1.391446	0.230922	0.077394
O30	O	1.724779	0.564255	0.410727
C31	C	0.900311	-0.000073	-0.131088
C32	C	1.233644	0.333260	0.202245
C33	C	1.566977	0.666594	0.535579
C34	C	0.800227	-0.000065	-0.129184
C35	C	1.133560	0.333268	0.204149
C36	C	1.466894	0.666602	0.537482
C37	C	0.387693	-0.000090	-0.039019
C38	C	0.721026	0.333243	0.294315
C39	C	1.054360	0.666576	0.627648
C40	C	0.366412	-0.000093	-0.203251
C41	C	0.699745	0.333240	0.130082
C42	C	1.033079	0.666574	0.463415
C43	C	0.460446	-0.000089	-0.205041
C44	C	0.793779	0.333244	0.128292
C45	C	1.127112	0.666577	0.461625
C46	C	0.518108	-0.000084	-0.123819
C47	C	0.851441	0.333249	0.209514
C48	C	1.184774	0.666583	0.542848
C49	C	0.481736	-0.000083	-0.040806
C50	C	0.815069	0.333251	0.292527
C51	C	1.148402	0.666584	0.625860
C52	C	0.496825	-0.000078	-0.288053
C53	C	0.830158	0.333255	0.045281
C54	C	1.163492	0.666589	0.378614
C55	C	0.590864	-0.000073	-0.289846
C56	C	0.924197	0.333261	0.043487
C57	C	1.257531	0.666594	0.376820
C58	C	0.648528	-0.000076	-0.208623
C59	C	0.981861	0.333257	0.124711
C60	C	1.315194	0.666590	0.458044
C61	C	0.612150	-0.000076	-0.125607
C62	C	0.945484	0.333257	0.207727
C63	C	1.278817	0.666590	0.541060
C64	C	0.669812	-0.000071	-0.044384
C65	C	1.003146	0.333262	0.288949
C66	C	1.336479	0.666595	0.622283
C67	C	0.633437	-0.000080	0.038633
C68	C	0.966770	0.333253	0.371966
C69	C	1.300104	0.666587	0.705300
C70	C	0.539399	-0.000086	0.040417
C71	C	0.872733	0.333247	0.373751
C72	C	1.206066	0.666580	0.707084
C73	C	0.742565	-0.000070	-0.210407
C74	C	1.075898	0.333263	0.122926
C75	C	1.409232	0.666596	0.456260
C76	C	0.763855	-0.000064	-0.046172
C77	C	1.097188	0.333270	0.287162
C78	C	1.430522	0.666603	0.620495
N79	N	1.065118	-0.318914	-0.124704
N80	N	1.398451	0.014420	0.208630
N81	N	1.731785	0.347753	0.541963
C82	C	1.065132	-0.569920	-0.124714
C83	C	1.398465	-0.236586	0.208619
C84	C	1.731798	0.096747	0.541952
C85	C	1.065121	-0.430242	-0.124711
C86	C	1.398454	-0.096909	0.208622
C87	C	1.731788	0.236424	0.541956
C88	C	1.229947	-0.000096	-0.118337
C89	C	1.563281	0.333238	0.214996
C90	C	1.896614	0.666571	0.548329
C91	C	1.330031	-0.000095	-0.120241
C92	C	1.663365	0.333238	0.213092
C93	C	1.996698	0.666571	0.546425
C94	C	1.071504	-0.000079	0.040106
C95	C	1.404838	0.333255	0.373439
C96	C	1.738171	0.666588	0.706772
C97	C	1.069601	-0.000068	0.140189
C98	C	1.402934	0.333265	0.473523
C99	C	1.736267	0.666599	0.806856
N100	N	1.065147	0.318743	-0.124715
N101	N	1.398481	0.652076	0.208619
N102	N	1.731814	0.985409	0.541952
C103	C	1.058754	-0.000090	-0.289531
C104	C	1.392087	0.333244	0.043802
C105	C	1.725420	0.666577	0.377135
C106	C	1.060657	-0.000092	-0.389615
C107	C	1.393991	0.333241	-0.056282
C108	C	1.727324	0.666574	0.277052
C109	C	0.979435	-0.000085	0.552723
C110	C	1.312768	0.333249	0.886057
C111	C	1.646102	0.666582	1.219390
C112	C	1.143668	-0.000097	0.574004
C113	C	1.477001	0.333236	0.907338
C114	C	1.810334	0.666570	1.240671
C115	C	1.145458	-0.000090	0.479971
C116	C	1.478791	0.333244	0.813304
C117	C	1.812124	0.666577	1.146637
C118	C	1.064235	-0.000082	0.422309
C119	C	1.397569	0.333251	0.755642
C120	C	1.730902	0.666585	1.088975
C121	C	0.981223	-0.000081	0.458680
C122	C	1.314556	0.333252	0.792014
C123	C	1.647889	0.666585	1.125347
C124	C	1.228469	-0.000103	0.443591
C125	C	1.561802	0.333230	0.776925
C126	C	1.895136	0.666564	1.110258
C127	C	1.230262	-0.000097	0.349552
C128	C	1.563596	0.333236	0.682886
C129	C	1.896929	0.666569	1.016219
C130	C	1.149039	-0.000081	0.291889
C131	C	1.482372	0.333253	0.625222
C132	C	1.815706	0.666586	0.958555
C133	C	1.066023	-0.000079	0.328266
C134	C	1.399356	0.333255	0.661599
C135	C	1.732690	0.666588	0.994933
C136	C	0.984800	-0.000071	0.270604
C137	C	1.318134	0.333263	0.603937
C138	C	1.651467	0.666596	0.937271
C139	C	0.901783	-0.000060	0.306979
C140	C	1.235117	0.333274	0.640313
C141	C	1.568450	0.666607	0.973646
C142	C	0.899999	-0.000065	0.401017
C143	C	1.233332	0.333269	0.734350
C144	C	1.566666	0.666602	1.067683
C145	C	1.150823	-0.000076	0.197851
C146	C	1.484157	0.333257	0.531185
C147	C	1.817490	0.666591	0.864518
C148	C	0.986588	-0.000067	0.176561
C149	C	1.319921	0.333266	0.509895
C150	C	1.653255	0.666599	0.843228
H151	H	0.772178	-0.000065	-0.277998
H152	H	1.105511	0.333268	0.055335
H153	H	1.438844	0.666602	0.388669
O154	O	0.440944	-0.000020	-0.367030
O155	O	0.774277	0.333313	-0.033697
O156	O	1.107610	0.666646	0.299636
C157	C	0.493211	-0.000036	-0.440684
C158	C	0.826544	0.333298	-0.107350
C159	C	1.159878	0.666631	0.225983
H160	H	0.563364	0.038712	-0.417887
H161	H	0.896698	0.372045	-0.084554
H162	H	1.230031	0.705379	0.248779
H163	H	0.458592	0.059382	-0.497594
H164	H	0.791925	0.392715	-0.164261
H165	H	1.125259	0.726048	0.169073
H166	H	0.499941	-0.098210	-0.466128
H167	H	0.833275	0.235123	-0.132795
H168	H	1.166608	0.568456	0.200538
O169	O	0.822802	-0.000105	0.251092
O170	O	1.156135	0.333229	0.584425
O171	O	1.489469	0.666562	0.917758
C172	C	0.749144	-0.000059	0.303354
C173	C	1.082478	0.333274	0.636687
C174	C	1.415811	0.666608	0.970020
H175	H	0.771930	-0.038803	0.373510
H176	H	1.105264	0.294530	0.706844
H177	H	1.438597	0.627864	1.040177
H178	H	0.692227	-0.059465	0.268735
H179	H	1.025560	0.273869	0.602068
H180	H	1.358894	0.607202	0.935402
H181	H	0.723714	0.098124	0.310076
H182	H	1.057048	0.431457	0.643409
H183	H	1.390381	0.764791	0.976743
H184	H	0.810798	-0.000064	0.019971
H185	H	1.144131	0.333269	0.353304
H186	H	1.477465	0.666602	0.686638
O187	O	0.310439	0.000124	-0.282169
O188	O	0.643773	0.333458	0.051164
O189	O	0.977106	0.666791	0.384497
C190	C	0.326958	0.106094	-0.332577
C191	C	0.660291	0.439428	0.000756
C192	C	0.993625	0.772761	0.334090
H193	H	0.359040	0.180175	-0.285025
H194	H	0.692374	0.513508	0.048308
H195	H	1.025707	0.846842	0.381641
H196	H	0.260286	0.141670	-0.368646
H197	H	0.593620	0.475003	-0.035313
H198	H	0.926953	0.808337	0.298021
H199	H	0.374903	0.082130	-0.384819
H200	H	0.708236	0.415464	-0.051486
H201	H	1.041569	0.748797	0.281847
H202	H	0.832411	-0.000057	0.430643
H203	H	1.165744	0.333276	0.763976
H204	H	1.499078	0.666610	1.097309
H205	H	0.680397	-0.000068	0.104764
H206	H	1.013731	0.333266	0.438098
H207	H	1.347064	0.666599	0.771431
H208	H	1.297860	-0.000105	0.319944
H209	H	1.631193	0.333229	0.653277
H210	H	1.964526	0.666562	0.986611
H211	H	1.209795	-0.000113	0.620958
H212	H	1.543129	0.333220	0.954291
H213	H	1.876462	0.666553	1.287624
H214	H	0.620472	-0.000065	-0.357443
H215	H	0.953806	0.333268	-0.024110
H216	H	1.287139	0.666601	0.309223
O217	O	1.307447	-0.000161	0.499473
O218	O	1.640780	0.333173	0.832806
O219	O	1.974113	0.666506	1.166139
C220	C	1.381100	-0.000138	0.447205
C221	C	1.714433	0.333195	0.780539
C222	C	2.047767	0.666529	1.113872
H223	H	1.358304	-0.038888	0.377053
H224	H	1.691638	0.294446	0.710387
H225	H	2.024971	0.627779	1.043720
H226	H	1.438012	-0.059550	0.481826
H227	H	1.771345	0.273783	0.815160
H228	H	2.104678	0.607116	1.148493
H229	H	1.406542	0.098039	0.440472
H230	H	1.739876	0.431372	0.773805
H231	H	2.073209	0.764706	1.107138
H232	H	0.920445	-0.000056	0.129618
H233	H	1.253779	0.333278	0.462951
H234	H	1.587112	0.666611	0.796285
H235	H	0.509774	-0.000123	0.108005
H236	H	0.843107	0.333211	0.441339
H237	H	1.176440	0.666544	0.774672
H238	H	1.218414	-0.000093	0.168238
H239	H	1.551748	0.333241	0.501572
H240	H	1.885081	0.666574	0.834905
O241	O	0.352214	-0.000043	0.041542
O242	O	0.685547	0.333290	0.374875
O243	O	1.018881	0.666623	0.708209
C244	C	0.256850	-0.000089	0.025711
C245	C	0.590183	0.333244	0.359044
C246	C	0.923516	0.666577	0.692377
H247	H	0.234853	0.038652	-0.044617
H248	H	0.568187	0.371986	0.288717
H249	H	0.901520	0.705319	0.622050
H250	H	0.227906	0.059318	0.078835
H251	H	0.561239	0.392652	0.412168
H252	H	0.894572	0.725985	0.745501
H253	H	0.230676	-0.098272	0.030113
H254	H	0.564009	0.235061	0.363446
H255	H	0.897342	0.568395	0.696780
O256	O	0.898874	-0.000130	0.588202
O257	O	1.232207	0.333203	0.921535
O258	O	1.565541	0.666537	1.254869
C259	C	0.914706	-0.000097	0.683567
C260	C	1.248039	0.333236	1.016900
C261	C	1.581372	0.666570	1.350233
H262	H	0.985030	-0.038846	0.705561
H263	H	1.318364	0.294487	1.038895
H264	H	1.651697	0.627821	1.372228
H265	H	0.861577	-0.059505	0.712508
H266	H	1.194910	0.273829	1.045841
H267	H	1.528244	0.607162	1.379175
H268	H	0.910311	0.098083	0.709745
H269	H	1.243644	0.431416	1.043078
H270	H	1.576977	0.764750	1.376411
