data_functionalizedCrystal
_audit_creation_method	'MofGen! by Chris Wilmer'
_symmetry_space_group_name_H-M	'P1'
_symmetry_Int_Tables_number	1
_symmetry_cell_setting	triclinic
loop_
_symmetry_equiv_pos_as_xyz
  x,y,z
_cell_length_a	12.594517
_cell_length_b	16.120484
_cell_length_c	16.120297
_cell_angle_alpha	95.614431
_cell_angle_beta	87.122039
_cell_angle_gamma	87.074624
loop_
_atom_site_label
_atom_site_type_symbol
_atom_site_fract_x
_atom_site_fract_y
_atom_site_fract_z
Zn1	Zn	1.572401	0.356753	0.489463
Zn2	Zn	1.572267	0.489442	0.356773
Zn3	Zn	1.403914	0.349688	0.349708
Zn4	Zn	1.384857	0.496483	0.496495
O5	O	1.483360	0.423092	0.423110
O6	O	1.721327	0.374364	0.471875
O7	O	1.557854	0.465001	0.238874
O8	O	1.434296	0.233660	0.362347
O9	O	1.721229	0.471851	0.374389
O10	O	1.558082	0.238850	0.465024
O11	O	1.434165	0.362324	0.233683
O12	O	1.252442	0.369151	0.369165
O13	O	1.401816	0.483851	0.612524
O14	O	1.238440	0.477000	0.477009
O15	O	1.539603	0.381191	0.607357
O16	O	1.539375	0.607342	0.381207
O17	O	1.401685	0.612514	0.483860
C18	C	1.468475	0.640257	0.434082
C19	C	1.462203	0.733162	0.438803
C20	C	1.206821	0.423074	0.423084
C21	C	1.088514	0.423087	0.423094
C22	C	1.468599	0.434094	0.641115
C23	C	1.462308	0.438783	0.734016
C24	C	1.026844	0.364357	0.364541
C25	C	0.952230	0.439556	0.347840
C26	C	0.952325	0.347926	0.439811
C27	C	1.015459	0.498324	0.406355
C28	C	1.015562	0.406645	0.498360
C29	C	0.940975	0.481898	0.481690
C30	C	1.760977	0.423110	0.423136
C31	C	1.879282	0.423118	0.423147
C32	C	1.498330	0.205080	0.412113
C33	C	1.504709	0.112176	0.407427
C34	C	1.450757	0.903262	0.447441
C35	C	1.516152	0.942081	0.398791
C36	C	1.509783	1.036731	0.403598
C37	C	1.457124	0.808604	0.442636
C38	C	1.498128	0.412071	0.205949
C39	C	1.504641	0.407147	0.113036
C40	C	1.450786	0.447325	0.904106
C41	C	1.516159	0.398608	0.942952
C42	C	1.509748	0.403361	1.037596
C43	C	1.457196	0.442573	0.809454
H44	H	0.924287	0.453482	0.284212
H45	H	1.576920	0.904231	0.353531
H46	H	0.903711	0.531632	0.531232
H47	H	1.389992	0.941110	0.492698
H48	H	1.390010	0.492599	0.941927
N49	N	1.592404	0.341798	0.895511
N50	N	1.561857	0.286130	0.844079
H51	H	1.615703	0.246009	0.810572
N52	N	1.073823	0.302108	0.302349
N53	N	1.055660	0.305866	0.227247
H54	H	1.088839	0.261906	0.183322
N55	N	1.050642	0.389139	0.578156
N56	N	1.030630	0.321560	0.605903
H57	H	1.055407	0.309187	0.662260
H58	H	0.924414	0.284358	0.453900
N59	N	1.050254	0.578094	0.388555
N60	N	1.147347	0.590945	0.385631
H61	H	1.171925	0.647281	0.373057
