data_functionalizedCrystal
_audit_creation_method	'MofGen! by Chris Wilmer'
_symmetry_space_group_name_H-M	'P1'
_symmetry_Int_Tables_number	1
_symmetry_cell_setting	triclinic
loop_
_symmetry_equiv_pos_as_xyz
  x,y,z
_cell_length_a	12.759401
_cell_length_b	13.032721
_cell_length_c	13.034356
_cell_angle_alpha	90.866507
_cell_angle_beta	82.800107
_cell_angle_gamma	97.204304
loop_
_atom_site_label
_atom_site_type_symbol
_atom_site_fract_x
_atom_site_fract_y
_atom_site_fract_z
Zn1	Zn	1.644290	-0.335526	-0.633410
Zn2	Zn	2.144290	0.164474	-0.133410
Zn3	Zn	1.600233	-0.529376	-0.483271
Zn4	Zn	2.100233	-0.029376	0.016729
Zn5	Zn	1.443830	-0.357418	-0.461463
Zn6	Zn	1.943830	0.142582	0.038537
Zn7	Zn	1.449392	-0.507461	-0.655196
Zn8	Zn	1.949392	-0.007461	-0.155196
O9	O	1.534436	-0.432445	-0.558335
O10	O	2.034436	0.067555	-0.058335
O11	O	1.785467	-0.361250	-0.613503
O12	O	2.285467	0.138750	-0.113503
O13	O	1.558720	-0.524899	-0.336466
O14	O	2.058720	-0.024899	0.163534
O15	O	1.486531	-0.210594	-0.466028
O16	O	1.986531	0.289406	0.033972
O17	O	1.753098	-0.503671	-0.503196
O18	O	2.253098	-0.003671	-0.003196
O19	O	1.633809	-0.194510	-0.592357
O20	O	2.133809	0.305490	-0.092357
O21	O	1.443811	-0.398562	-0.320444
O22	O	1.943811	0.101438	0.179556
O23	O	1.297547	-0.377312	-0.487153
O24	O	1.797547	0.122688	0.012847
O25	O	1.496011	-0.466320	-0.796217
O26	O	1.996011	0.033680	-0.296217
O27	O	1.301633	-0.487548	-0.629487
O28	O	1.801633	0.012452	-0.129487
O29	O	1.639202	-0.340000	-0.780211
O30	O	2.139202	0.160000	-0.280211
O31	O	1.564113	-0.670389	-0.524321
O32	O	2.064113	-0.170389	-0.024321
O33	O	1.453291	-0.654288	-0.650634
O34	O	1.953291	-0.154288	-0.150634
C35	C	1.261469	-0.432428	-0.558318
C36	C	1.761469	0.067572	-0.058318
C37	C	1.144693	-0.432442	-0.558339
C38	C	1.644693	0.067558	-0.058339
C39	C	1.091959	-0.489961	-0.632357
C40	C	1.591959	0.010039	-0.132357
C41	C	0.982235	-0.489973	-0.632370
C42	C	1.482235	0.010027	-0.132370
C43	C	0.977988	-0.374945	-0.484337
C44	C	1.477988	0.125055	0.015663
C45	C	1.087711	-0.374928	-0.484330
C46	C	1.587711	0.125072	0.015670
C47	C	1.094409	-0.556375	-0.717820
C48	C	1.594409	-0.056375	-0.217820
C49	C	0.984685	-0.556387	-0.717833
C50	C	1.484685	-0.056387	-0.217833
C51	C	1.504557	-0.699652	-0.592230
C52	C	2.004557	-0.199652	-0.092230
C53	C	1.491875	-0.813960	-0.606765
C54	C	1.991875	-0.313960	-0.106765
C55	C	1.541117	-0.872848	-0.550795
C56	C	2.041117	-0.372848	-0.050795
C57	C	1.528011	-0.990992	-0.565816
C58	C	2.028011	-0.490992	-0.065816
C59	C	1.808469	-0.432463	-0.558352
C60	C	2.308469	0.067537	-0.058352
C61	C	1.925246	-0.432471	-0.558359
C62	C	2.425246	0.067529	-0.058359
C63	C	1.573141	-0.398273	-0.826573
C64	C	2.073141	0.101727	-0.326573
C65	C	1.589635	-0.383711	-0.940879
C66	C	2.089635	0.116289	-0.440879
C67	C	1.564464	-0.164192	-0.524329
C68	C	2.064464	0.335808	-0.024329
C69	C	1.577260	-0.049878	-0.509838
C70	C	2.077260	0.450122	-0.009838
C71	C	1.543184	-0.424675	-1.117904
C72	C	2.043184	0.075325	-0.617904
C73	C	1.526134	-0.439726	-0.999762
C74	C	2.026134	0.060274	-0.499762
C75	C	1.495950	-0.466410	-0.291131
C76	C	1.995950	0.033590	0.208869
C77	C	1.479692	-0.480682	-0.176788
C78	C	1.979692	0.019318	0.323212
H79	H	0.931581	-0.328118	-0.424082
H80	H	1.431581	0.171882	0.075918
F81	F	1.151469	-0.515385	-0.818453
F82	F	1.651469	-0.015385	-0.318453
F83	F	1.122458	-0.659993	-0.692978
F84	F	1.622458	-0.159993	-0.192978
H85	H	1.440019	-0.851009	-0.665808
H86	H	1.940019	-0.351009	-0.165808
F87	F	1.143835	-0.313691	-0.405564
F88	F	1.643835	0.186309	0.094436
H89	H	1.459152	-0.498826	-0.962715
H90	H	1.959152	0.001174	-0.462715
H91	H	1.476152	-1.028036	-0.624863
H92	H	1.976152	-0.528036	-0.124863
F93	F	0.958637	-0.506657	-0.812084
F94	F	1.458637	-0.006657	-0.312084
H95	H	1.412715	-0.539778	-1.139737
H96	H	1.912715	-0.039778	-0.639737
H97	H	0.942913	-0.638745	-0.706471
H98	H	1.442913	-0.138745	-0.206471
H99	H	1.592983	-0.835802	-0.491760
H100	H	2.092983	-0.335802	0.008240
H101	H	1.629129	-1.012835	-0.450799
H102	H	2.129129	-0.512835	0.049201
H103	H	1.610169	-0.365587	-1.154956
H104	H	2.110169	0.134413	-0.654956
F105	F	1.677196	-0.306472	-0.989296
F106	F	2.177196	0.193528	-0.489296
