data_functionalizedCrystal
_audit_creation_method	'MofGen! by Chris Wilmer'
_symmetry_space_group_name_H-M	'P1'
_symmetry_Int_Tables_number	1
_symmetry_cell_setting	triclinic
loop_
_symmetry_equiv_pos_as_xyz
  x,y,z
_cell_length_a	18.215407
_cell_length_b	12.594516
_cell_length_c	12.594509
_cell_angle_alpha	90.027875
_cell_angle_beta	90.018695
_cell_angle_gamma	90.009259
loop_
_atom_site_label
_atom_site_type_symbol
_atom_site_fract_x
_atom_site_fract_y
_atom_site_fract_z
Zn1	Zn	1.125148	-0.423783	0.601788
Zn2	Zn	1.125082	-0.601793	0.423810
Zn3	Zn	1.002078	-0.423821	0.423825
Zn4	Zn	1.002075	-0.601712	0.601749
O5	O	1.063596	-0.512777	0.512793
O6	O	1.228124	-0.447414	0.578189
O7	O	1.108739	-0.578235	0.274867
O8	O	1.018433	-0.274870	0.447455
O9	O	1.228075	-0.578197	0.447430
O10	O	1.108852	-0.274842	0.578203
O11	O	1.018368	-0.447479	0.274877
O12	O	0.899093	-0.447400	0.447417
O13	O	1.018427	-0.578059	0.750700
O14	O	0.899091	-0.578096	0.578136
O15	O	1.108849	-0.447335	0.750729
O16	O	1.108736	-0.750728	0.447392
O17	O	1.018363	-0.750668	0.578122
C18	C	0.872390	-0.512744	0.512774
C19	C	0.790591	-0.512756	0.512792
C20	C	0.602421	-0.444797	0.580986
C21	C	0.525562	-0.444806	0.580989
C22	C	0.525523	-0.580787	0.444619
C23	C	0.602380	-0.580771	0.444611
C24	C	0.640827	-0.512778	0.512800
C25	C	0.487111	-0.512803	0.512812
C26	C	0.403777	-0.512813	0.512815
C27	C	0.724166	-0.512766	0.512796
C28	C	1.063562	-0.789318	0.512774
C29	C	1.063615	-0.907623	0.512802
C30	C	1.112825	-0.976870	0.441774
C31	C	1.130810	-1.047568	0.538922
C32	C	1.045722	-1.047725	0.415716
C33	C	1.081633	-0.976763	0.610001
C34	C	0.996515	-0.976913	0.486730
C35	C	1.014473	-1.047579	0.583945
C36	C	1.255549	-0.512811	0.512812
C37	C	1.337348	-0.512825	0.512821
C38	C	1.063645	-0.512684	0.790414
C39	C	1.063666	-0.512644	0.908720
C40	C	1.063650	-0.235156	0.512835
C41	C	1.063673	-0.116851	0.512853
C42	C	1.063589	-0.512793	0.236252
C43	C	1.063711	-0.512533	0.117947
C44	C	1.014501	-0.583704	0.977957
C45	C	1.081654	-0.609715	1.048743
C46	C	0.996566	-0.486569	1.048733
C47	C	1.130854	-0.538706	0.977947
C48	C	1.045721	-0.415515	0.977931
C49	C	1.112920	-0.441489	1.048685
H50	H	0.633651	-0.636131	0.389081
H51	H	1.030565	-1.078894	0.333590
C52	C	1.169055	-0.934911	0.360707
N53	N	1.211409	-0.903303	0.299655
H54	H	0.494296	-0.389448	0.636511
H55	H	1.096734	-0.945725	0.692198
H56	H	1.154564	-0.381348	1.079544
H57	H	1.096857	-0.691807	1.079848
C58	C	0.958387	-0.665015	0.935977
N59	N	0.916129	-0.726261	0.904349
C60	C	1.207561	-0.568574	0.936122
N61	N	1.265335	-0.591075	0.904616
C62	C	1.025154	-0.304645	0.935869
N63	N	1.009654	-0.221138	0.904186
C64	C	1.207502	-1.089507	0.568749
N65	N	1.265268	-1.121094	0.591207
C66	C	0.958284	-1.089258	0.665212
N67	N	0.915965	-1.120651	0.726425
C68	C	0.919880	-0.456833	1.090733
N69	N	0.862118	-0.434442	1.122363
H70	H	0.494209	-0.636145	0.389103
C71	C	0.644711	-0.369994	0.655986
N72	N	0.676561	-0.313645	0.712475
H73	H	0.939761	-0.945852	0.464620
