data_functionalizedCrystal
_audit_creation_method	'MofGen! by Chris Wilmer'
_symmetry_space_group_name_H-M	'P1'
_symmetry_Int_Tables_number	1
_symmetry_cell_setting	triclinic
loop_
_symmetry_equiv_pos_as_xyz
  x,y,z
_cell_length_a	10.489741
_cell_length_b	10.654550
_cell_length_c	9.730223
_cell_angle_alpha	90.003749
_cell_angle_beta	89.998920
_cell_angle_gamma	95.487962
loop_
_atom_site_label
_atom_site_type_symbol
_atom_site_fract_x
_atom_site_fract_y
_atom_site_fract_z
O1	O	0.179156	-1.667918	-0.114402
O2	O	0.196226	-1.302447	-0.114380
O3	O	0.002089	-1.493499	-0.114383
O4	O	0.373293	-1.476867	-0.114399
O5	O	0.002094	-1.493497	0.114196
O6	O	0.196231	-1.302445	0.114200
O7	O	0.179161	-1.667916	0.114178
Zn8	Zn	0.187697	-1.485180	0.150481
Zn9	Zn	0.187690	-1.485183	-0.150683
O10	O	0.373298	-1.476864	0.114181
C11	C	0.194975	-1.255648	-0.000087
C12	C	0.191225	-1.116203	-0.000079
C13	C	-0.045439	-1.492241	-0.000094
C14	C	-0.187067	-1.488483	-0.000096
C15	C	0.180412	-1.714715	-0.000118
C16	C	0.184162	-1.854160	-0.000136
C17	C	-0.255148	-1.366923	-0.000099
C18	C	-0.347296	-1.424346	0.112599
C19	C	-0.347276	-1.424377	-0.112763
C20	C	-0.277350	-1.545956	0.112695
C21	C	-0.277319	-1.545970	-0.112768
C22	C	-0.369440	-1.603481	-0.000043
C23	C	0.420826	-1.478122	-0.000111
C24	C	0.562454	-1.481880	-0.000118
N25	N	0.187700	-1.485187	0.356017
C26	C	0.305530	-1.036771	-0.000103
C27	C	0.301999	-0.905748	-0.000127
C28	C	0.069849	-0.933603	-0.000107
C29	C	0.073381	-1.064623	-0.000073
C30	C	0.439560	-1.020688	-0.000121
C31	C	0.436029	-0.889665	-0.000145
N32	N	0.187677	-1.485186	-0.356220
C33	C	0.101766	-1.569807	0.427942
C34	C	0.101751	-1.569803	0.571825
C35	C	0.273615	-1.400557	0.571846
C36	C	0.273623	-1.400555	0.427966
C37	C	0.002545	-1.667524	0.427931
C38	C	0.002530	-1.667520	0.571814
H39	H	-0.378281	-1.372910	0.207883
H40	H	0.486527	-0.847957	-0.095814
H41	H	0.343570	-1.331651	0.630442
C42	C	0.490147	-0.829007	0.131501
C43	C	0.529588	-0.922378	0.218746
C44	C	0.579457	-0.866544	0.340019
H45	H	0.426064	-0.786504	0.175963
H46	H	0.561326	-0.770308	0.110119
H47	H	0.458417	-0.981055	0.240130
H48	H	0.593683	-0.964887	0.174327
H49	H	0.650637	-0.807845	0.318637
H50	H	0.515368	-0.824042	0.384468
H51	H	0.606235	-0.929885	0.399224
C52	C	-0.128243	-1.638783	0.376119
C53	C	-0.208255	-1.621205	0.488270
C54	C	-0.328736	-1.594710	0.440594
H55	H	-0.164652	-1.707207	0.321907
H56	H	-0.119285	-1.564288	0.321929
H57	H	-0.217217	-1.695691	0.542437
H58	H	-0.171887	-1.552778	0.542493
H59	H	-0.319778	-1.520215	0.386404
H60	H	-0.365133	-1.663137	0.386382
H61	H	-0.383036	-1.582768	0.516680
H62	H	0.482235	-1.056364	-0.098810
C63	C	0.367057	-1.308617	0.350123
C64	C	0.442321	-1.234528	0.443932
C65	C	0.528418	-1.149827	0.372274
H66	H	0.320818	-1.255814	0.293993
H67	H	0.420665	-1.354230	0.294022
H68	H	0.388719	-1.188918	0.500009
H69	H	0.488587	-1.287296	0.500065
H70	H	0.582027	-1.195440	0.316174
H71	H	0.482169	-1.097033	0.316147
H72	H	0.579503	-1.099556	0.435912
H73	H	0.033613	-1.758722	0.383297
H74	H	-0.090122	-1.636964	0.616435
H75	H	-0.019697	-1.129293	-0.000034
H76	H	0.024385	-1.764042	0.610857
H77	H	-0.205449	-1.266977	0.000020
H78	H	-0.246540	-1.597345	0.208079
H79	H	-0.418912	-1.703518	0.000014
H80	H	-0.378217	-1.372927	-0.208049
C81	C	-0.235900	-1.614710	-0.239655
C82	C	-0.175658	-1.720537	-0.199411
C83	C	-0.137496	-1.783888	-0.316273
H84	H	-0.177880	-1.559846	-0.291877
H85	H	-0.308911	-1.640784	-0.293997
H86	H	-0.102657	-1.694462	-0.145092
H87	H	-0.233655	-1.775431	-0.147205
H88	H	-0.210507	-1.809962	-0.370615
H89	H	-0.079480	-1.729014	-0.368487
H90	H	-0.096629	-1.855704	-0.288984
C91	C	-0.058219	-0.877840	-0.000043
C92	C	-0.157567	-0.975452	0.000016
C93	C	-0.275562	-0.924135	0.000090
H94	H	-0.064607	-0.827344	-0.079743
H95	H	-0.064489	-0.827325	0.079689
H96	H	-0.151300	-1.025946	-0.079709
H97	H	-0.151221	-1.025955	0.079710
H98	H	-0.281832	-0.873620	0.079822
H99	H	-0.281937	-0.873640	-0.079611
H100	H	-0.342983	-0.990356	0.000143
H101	H	0.491981	-1.050043	0.095543
