data_functionalizedCrystal
_audit_creation_method	'MofGen! by Chris Wilmer'
_symmetry_space_group_name_H-M	'P1'
_symmetry_Int_Tables_number	1
_symmetry_cell_setting	triclinic
loop_
_symmetry_equiv_pos_as_xyz
  x,y,z
_cell_length_a	12.594517
_cell_length_b	25.639239
_cell_length_c	12.594509
_cell_angle_alpha	89.965872
_cell_angle_beta	89.978673
_cell_angle_gamma	90.038486
loop_
_atom_site_label
_atom_site_type_symbol
_atom_site_fract_x
_atom_site_fract_y
_atom_site_fract_z
Zn1	Zn	1.627100	-0.208138	-0.601816
Zn2	Zn	2.127100	0.291862	-0.101816
Zn3	Zn	1.626920	-0.295580	-0.423819
Zn4	Zn	2.126920	0.204420	0.076181
Zn5	Zn	1.449103	-0.208160	-0.423845
Zn6	Zn	1.949103	0.291840	0.076155
Zn7	Zn	1.449015	-0.295544	-0.601750
Zn8	Zn	1.949015	0.204456	-0.101750
O9	O	1.538035	-0.251855	-0.512808
O10	O	2.038035	0.248145	-0.012808
O11	O	1.776022	-0.219743	-0.578222
O12	O	2.276022	0.280257	-0.078222
O13	O	1.603294	-0.284008	-0.274877
O14	O	2.103294	0.215992	0.225123
O15	O	1.472827	-0.134992	-0.447492
O16	O	1.972827	0.365008	0.052508
O17	O	1.775890	-0.283987	-0.447448
O18	O	2.275890	0.216013	0.052552
O19	O	1.603600	-0.134976	-0.578247
O20	O	2.103600	0.365024	-0.078247
O21	O	1.472653	-0.219781	-0.274896
O22	O	1.972653	0.280219	0.225104
O23	O	1.300146	-0.219746	-0.447427
O24	O	1.800146	0.280254	0.052573
O25	O	1.472677	-0.283925	-0.750704
O26	O	1.972677	0.216075	-0.250704
O27	O	1.300081	-0.283946	-0.578133
O28	O	1.800081	0.216054	-0.078133
O29	O	1.603515	-0.219708	-0.750753
O30	O	2.103515	0.280292	-0.250753
O31	O	1.603209	-0.368740	-0.447384
O32	O	2.103209	0.131260	0.052616
O33	O	1.472503	-0.368714	-0.578108
O34	O	1.972503	0.131286	-0.078108
C35	C	1.261494	-0.251845	-0.512776
C36	C	1.761494	0.248155	-0.012776
C37	C	1.143188	-0.251853	-0.512788
C38	C	1.643188	0.248147	-0.012788
C39	C	1.073939	-0.216887	-0.441833
C40	C	1.573939	0.283113	0.058167
C41	C	1.003090	-0.264579	-0.415643
C42	C	1.503090	0.235421	0.084357
C43	C	1.003239	-0.204184	-0.538996
C44	C	1.503239	0.295816	-0.038996
C45	C	1.073897	-0.299570	-0.486547
C46	C	1.573897	0.200430	0.013453
C47	C	1.074052	-0.239144	-0.609946
C48	C	1.574052	0.260856	-0.109946
C49	C	1.003234	-0.286869	-0.583793
C50	C	1.503234	0.213131	-0.083793
C51	C	1.537856	-0.387698	-0.512759
C52	C	2.037856	0.112302	-0.012759
C53	C	1.537876	-0.445812	-0.512774
C54	C	2.037876	0.054188	-0.012774
C55	C	1.606271	-0.806176	-0.444855
C56	C	2.106271	-0.306176	0.055145
C57	C	1.606312	-0.860781	-0.444870
C58	C	2.106312	-0.360781	0.055130
O59	O	1.664278	-0.889019	-0.387070
O60	O	2.164278	-0.389019	0.112930
N61	N	1.538222	-0.888094	-0.512878
N62	N	2.038222	-0.388094	-0.012878
C63	C	1.470093	-0.860801	-0.580885
C64	C	1.970093	-0.360801	-0.080885
O65	O	1.412182	-0.889048	-0.638733
O66	O	1.912182	-0.389048	-0.138733
C67	C	1.470058	-0.806198	-0.580875
C68	C	1.970058	-0.306198	-0.080875
C69	C	1.538145	-0.778887	-0.512854
C70	C	2.038145	-0.278887	-0.012854
C71	C	1.674353	-0.778865	-0.376841
C72	C	2.174353	-0.278865	0.123159
C73	C	1.674310	-0.724265	-0.376826
C74	C	2.174310	-0.224265	0.123174
C75	C	1.606185	-0.696975	-0.444825
C76	C	2.106185	-0.196975	0.055175
C77	C	1.538102	-0.724286	-0.512839
C78	C	2.038102	-0.224286	-0.012839
C79	C	1.401936	-0.778905	-0.648886
C80	C	1.901936	-0.278905	-0.148886
C81	C	1.401907	-0.724298	-0.648871
C82	C	1.901907	-0.224298	-0.148871
C83	C	1.469994	-0.696987	-0.580850
C84	C	1.969994	-0.196987	-0.080850
C85	C	1.469934	-0.642396	-0.580822
C86	C	1.969934	-0.142396	-0.080822
N87	N	1.538024	-0.615083	-0.512814
N88	N	2.038024	-0.115083	-0.012814
C89	C	1.606150	-0.642372	-0.444815
C90	C	2.106150	-0.142372	0.055185
C91	C	1.470174	-0.975472	-0.580901
C92	C	1.970174	-0.475472	-0.080901
C93	C	1.470202	-1.030074	-0.580906
C94	C	1.970202	-0.530074	-0.080906
C95	C	1.606423	-1.030050	-0.444892
C96	C	2.106423	-0.530050	0.055108
C97	C	1.606388	-0.975447	-0.444883
C98	C	2.106388	-0.475447	0.055117
C99	C	1.538264	-0.948158	-0.512892
C100	C	2.038264	-0.448158	-0.012892
C101	C	1.606054	-0.527707	-0.444787
C102	C	2.106054	-0.027707	0.055213
C103	C	1.606002	-0.473102	-0.444775
C104	C	2.106002	0.026898	0.055225
C105	C	1.469786	-0.473131	-0.580792
C106	C	1.969786	0.026869	-0.080792
C107	C	1.469833	-0.527731	-0.580801
C108	C	1.969833	-0.027731	-0.080801
C109	C	1.537976	-0.555018	-0.512795
C110	C	2.037976	-0.055018	-0.012795
O111	O	1.412001	-0.614124	-0.638596
O112	O	1.912001	-0.114124	-0.138596
O113	O	1.664062	-0.614119	-0.386986
O114	O	2.164062	-0.114119	0.113014
C115	C	1.815655	-0.251866	-0.512840
C116	C	2.315655	0.248134	-0.012840
C117	C	1.933961	-0.251871	-0.512853
C118	C	2.433961	0.248129	-0.012853
C119	C	1.538106	-0.251810	-0.790429
C120	C	2.038106	0.248190	-0.290429
C121	C	1.538136	-0.251790	-0.908734
C122	C	2.038136	0.248210	-0.408734
C123	C	1.538243	-0.115482	-0.512880
C124	C	2.038243	0.384518	-0.012880
C125	C	1.538332	-0.057368	-0.512911
C126	C	2.038332	0.442632	-0.012911
C127	C	1.466996	-0.286698	-0.977961
C128	C	1.966996	0.213302	-0.477961
C129	C	1.564106	-0.299473	-1.048748
C130	C	2.064106	0.200527	-0.548748
C131	C	1.441102	-0.238984	-1.048746
C132	C	1.941102	0.261016	-0.548746
C133	C	1.635297	-0.264590	-0.977964
C134	C	2.135297	0.235410	-0.477964
C135	C	1.512227	-0.204079	-0.977955
C136	C	2.012227	0.295921	-0.477955
C137	C	1.609405	-0.216836	-1.048711
C138	C	2.109405	0.283164	-0.548711
C139	C	1.538025	-0.251863	-0.236267
C140	C	2.038025	0.248137	0.263733
C141	C	1.538201	-0.251736	-0.117962
C142	C	2.038201	0.248264	0.382038
H143	H	0.972144	-0.163870	-0.561099
H144	H	1.472144	0.336130	-0.061099
Cl145	Cl	1.121611	-0.361840	-0.452217
Cl146	Cl	1.621611	0.138160	0.047783
H147	H	1.414316	-0.450903	-0.636153
H148	H	1.914316	0.049097	-0.136153
Cl149	Cl	0.955599	-0.332584	-0.676479
Cl150	Cl	1.455599	0.167416	-0.176479
Cl151	Cl	1.122211	-0.222508	-0.736724
Cl152	Cl	1.622211	0.277492	-0.236724
H153	H	1.359014	-0.228175	-1.079838
H154	H	1.859014	0.271825	-0.579838
Cl155	Cl	1.374185	-0.332343	-0.929994
Cl156	Cl	1.874185	0.167657	-0.429994
H157	H	1.490250	-0.163765	-0.946835
H158	H	1.990250	0.336235	-0.446835
H159	H	1.717409	-0.275445	-0.947002
H160	H	2.217409	0.224555	-0.447002
Cl161	Cl	1.121876	-0.171278	-0.349082
Cl162	Cl	1.621876	0.328722	0.150918
Cl163	Cl	0.954966	-0.281194	-0.288833
Cl164	Cl	1.454966	0.218806	0.211167
Cl165	Cl	1.691718	-0.562002	-0.359291
Cl166	Cl	2.191718	-0.062002	0.140709
Cl167	Cl	1.691604	-0.438771	-0.359257
Cl168	Cl	2.191604	0.061229	0.140743
Cl169	Cl	1.702434	-0.171223	-1.096378
Cl170	Cl	2.202434	0.328777	-0.596378
Cl171	Cl	1.759927	-0.689939	-0.291326
Cl172	Cl	2.259927	-0.189939	0.208674
Cl173	Cl	1.760009	-0.813162	-0.291345
Cl174	Cl	2.260009	-0.313162	0.208655
Cl175	Cl	1.691987	-0.941119	-0.359370
Cl176	Cl	2.191987	-0.441119	0.140630
H177	H	1.414690	-0.953256	-0.636280
H178	H	1.914690	-0.453256	-0.136280
Cl179	Cl	1.692065	-1.064367	-0.359405
Cl180	Cl	2.192065	-0.564367	0.140595
H181	H	1.414749	-1.052306	-0.636285
H182	H	1.914749	-0.552306	-0.136285
Cl183	Cl	1.316347	-0.813226	-0.734416
Cl184	Cl	1.816347	-0.313226	-0.234416
H185	H	1.586055	-0.339798	-1.079845
H186	H	2.086055	0.160202	-0.579845
H187	H	1.346434	-0.702083	-0.704256
H188	H	1.846434	-0.202083	-0.204256
H189	H	1.414395	-0.549969	-0.636192
H190	H	1.914395	-0.049969	-0.136192
