data_functionalizedCrystal
_audit_creation_method	'MofGen! by Chris Wilmer'
_symmetry_space_group_name_H-M	'P1'
_symmetry_Int_Tables_number	1
_symmetry_cell_setting	triclinic
loop_
_symmetry_equiv_pos_as_xyz
  x,y,z
_cell_length_a	27.732064
_cell_length_b	27.732048
_cell_length_c	18.266242
_cell_angle_alpha	89.988683
_cell_angle_beta	89.998592
_cell_angle_gamma	82.646040
loop_
_atom_site_label
_atom_site_type_symbol
_atom_site_fract_x
_atom_site_fract_y
_atom_site_fract_z
O1	O	0.640925	0.057556	-0.060758
O2	O	0.890925	0.307556	0.189242
O3	O	1.140925	0.557556	0.439242
O4	O	1.390925	0.807556	0.689242
O5	O	0.500133	0.066293	-0.060789
O6	O	0.750133	0.316293	0.189211
O7	O	1.000133	0.566293	0.439211
O8	O	1.250133	0.816293	0.689211
O9	O	0.574901	-0.008472	-0.060759
O10	O	0.824901	0.241528	0.189241
O11	O	1.074901	0.491528	0.439241
O12	O	1.324901	0.741528	0.689241
O13	O	0.566156	0.132321	-0.060789
O14	O	0.816156	0.382321	0.189211
O15	O	1.066156	0.632321	0.439211
O16	O	1.316156	0.882321	0.689211
O17	O	0.574889	-0.008476	0.061003
O18	O	0.824889	0.241524	0.311003
O19	O	1.074889	0.491524	0.561003
O20	O	1.324889	0.741524	0.811003
O21	O	0.500120	0.066289	0.060973
O22	O	0.750120	0.316289	0.310973
O23	O	1.000120	0.566289	0.560973
O24	O	1.250120	0.816289	0.810973
O25	O	0.640912	0.057552	0.061004
O26	O	0.890912	0.307552	0.311004
O27	O	1.140912	0.557552	0.561004
O28	O	1.390912	0.807552	0.811004
Zn29	Zn	0.570514	0.061920	0.080321
Zn30	Zn	0.820514	0.311920	0.330321
Zn31	Zn	1.070514	0.561920	0.580321
Zn32	Zn	1.320514	0.811920	0.830321
Zn33	Zn	0.570531	0.061925	-0.080106
Zn34	Zn	0.820531	0.311925	0.169894
Zn35	Zn	1.070531	0.561925	0.419894
Zn36	Zn	1.320531	0.811925	0.669894
O37	O	0.566144	0.132317	0.060973
O38	O	0.816144	0.382317	0.310973
O39	O	1.066144	0.632317	0.560973
O40	O	1.316144	0.882317	0.810973
C41	C	0.482120	0.066106	0.000088
C42	C	0.732120	0.316106	0.250088
C43	C	0.982120	0.566106	0.500088
C44	C	1.232120	0.816106	0.750088
C45	C	0.428465	0.065551	0.000077
C46	C	0.678465	0.315551	0.250077
C47	C	0.928465	0.565551	0.500077
C48	C	1.178465	0.815551	0.750077
C49	C	0.051392	0.017583	0.000128
C50	C	0.301392	0.267583	0.250128
C51	C	0.551392	0.517583	0.500128
C52	C	0.801392	0.767583	0.750128
C53	C	0.253053	0.019630	0.000109
C54	C	0.503053	0.269630	0.250109
C55	C	0.753053	0.519630	0.500109
C56	C	1.003053	0.769630	0.750109
O57	O	0.284305	-0.017591	0.000144
O58	O	0.534305	0.232409	0.250144
O59	O	0.784305	0.482409	0.500144
O60	O	1.034305	0.732409	0.750144
N61	N	0.272180	0.063964	0.000096
N62	N	0.522180	0.313964	0.250096
N63	N	0.772180	0.563964	0.500096
N64	N	1.022180	0.813964	0.750096
C65	C	0.240889	0.107790	0.000093
C66	C	0.490889	0.357790	0.250093
C67	C	0.740889	0.607790	0.500093
C68	C	0.990889	0.857790	0.750093
O69	O	0.261785	0.145546	0.000090
O70	O	0.511785	0.395546	0.250090
O71	O	0.761785	0.645546	0.500090
O72	O	1.011785	0.895546	0.750090
C73	C	0.039230	0.105743	0.000118
C74	C	0.289230	0.355743	0.250118
C75	C	0.539230	0.605743	0.500118
C76	C	0.789230	0.855743	0.750118
C77	C	0.020105	0.061406	0.000123
C78	C	0.270105	0.311406	0.250123
C79	C	0.520105	0.561406	0.500123
C80	C	0.770105	0.811406	0.750123
C81	C	0.032267	-0.026750	0.000134
C82	C	0.282267	0.223250	0.250134
C83	C	0.532267	0.473250	0.500134
C84	C	0.782267	0.723250	0.750134
C85	C	-0.018145	-0.027261	0.000135
C86	C	0.231855	0.222739	0.250135
C87	C	0.481855	0.472739	0.500135
C88	C	0.731855	0.722739	0.750135
C89	C	-0.049432	0.016561	0.000130
C90	C	0.200568	0.266561	0.250130
C91	C	0.450568	0.516561	0.500130
C92	C	0.700568	0.766561	0.750130
C93	C	-0.030307	0.060895	0.000124
C94	C	0.219693	0.310895	0.250124
C95	C	0.469693	0.560895	0.500124
C96	C	0.719693	0.810895	0.750124
C97	C	0.007940	0.149568	0.000120
C98	C	0.257940	0.399568	0.250120
C99	C	0.507940	0.649568	0.500120
C100	C	0.757940	0.899568	0.750120
C101	C	-0.042478	0.149053	0.000128
C102	C	0.207522	0.399053	0.250128
C103	C	0.457522	0.649053	0.500128
C104	C	0.707522	0.899053	0.750128
C105	C	-0.061602	0.104716	0.000134
C106	C	0.188398	0.354716	0.250134
C107	C	0.438398	0.604716	0.500134
C108	C	0.688398	0.854716	0.750134
C109	C	-0.112006	0.104206	0.000120
C110	C	0.137994	0.354206	0.250120
C111	C	0.387994	0.604206	0.500120
C112	C	0.637994	0.854206	0.750120
N113	N	-0.131134	0.059872	0.000132
N114	N	0.118866	0.309872	0.250132
N115	N	0.368866	0.559872	0.500132
N116	N	0.618866	0.809872	0.750132
C117	C	-0.099846	0.016049	0.000138
C118	C	0.150154	0.266049	0.250138
C119	C	0.400154	0.516049	0.500138
C120	C	0.650154	0.766049	0.750138
C121	C	0.346763	0.108861	0.000079
C122	C	0.596763	0.358861	0.250079
C123	C	0.846763	0.608861	0.500079
C124	C	1.096763	0.858861	0.750079
C125	C	0.397178	0.109373	0.000071
C126	C	0.647178	0.359373	0.250071
C127	C	0.897178	0.609373	0.500071
C128	C	1.147178	0.859373	0.750071
C129	C	0.409338	0.021213	0.000088
C130	C	0.659338	0.271213	0.250088
C131	C	0.909338	0.521213	0.500088
C132	C	1.159338	0.771213	0.750088
C133	C	0.358923	0.020701	0.000091
C134	C	0.608923	0.270701	0.250091
C135	C	0.858923	0.520701	0.500091
C136	C	1.108923	0.770701	0.750091
C137	C	0.327636	0.064527	0.000092
C138	C	0.577636	0.314527	0.250092
C139	C	0.827636	0.564527	0.500092
C140	C	1.077636	0.814527	0.750092
C141	C	-0.205716	0.014979	0.000139
C142	C	0.044284	0.264979	0.250139
C143	C	0.294284	0.514979	0.500139
C144	C	0.544284	0.764979	0.750139
C145	C	-0.256133	0.014472	0.000137
C146	C	-0.006133	0.264472	0.250137
C147	C	0.243867	0.514472	0.500137
C148	C	0.493867	0.764472	0.750137
C149	C	-0.268289	0.102632	0.000124
C150	C	-0.018289	0.352632	0.250124
C151	C	0.231711	0.602632	0.500124
C152	C	0.481711	0.852632	0.750124
C153	C	-0.217876	0.103140	0.000122
C154	C	0.032124	0.353140	0.250122
C155	C	0.282124	0.603140	0.500122
C156	C	0.532124	0.853140	0.750122
C157	C	-0.186590	0.059309	0.000132
C158	C	0.063410	0.309309	0.250132
C159	C	0.313410	0.559309	0.500132
C160	C	0.563410	0.809309	0.750132
O161	O	-0.143287	0.141407	0.000093
O162	O	0.106713	0.391407	0.250093
O163	O	0.356713	0.641407	0.500093
O164	O	0.606713	0.891407	0.750093
O165	O	-0.120752	-0.021701	0.000158
O166	O	0.129248	0.228299	0.250158
O167	O	0.379248	0.478299	0.500158
O168	O	0.629248	0.728299	0.750158
C169	C	0.101804	0.018094	0.000128
C170	C	0.351804	0.268094	0.250128
C171	C	0.601804	0.518094	0.500128
C172	C	0.851804	0.768094	0.750128
C173	C	0.120930	0.062428	0.000121
C174	C	0.370930	0.312428	0.250121
C175	C	0.620930	0.562428	0.500121
C176	C	0.870930	0.812428	0.750121
C177	C	0.089642	0.106250	0.000116
C178	C	0.339642	0.356250	0.250116
C179	C	0.589642	0.606250	0.500116
C180	C	0.839642	0.856250	0.750116
C181	C	0.171344	0.062940	0.000114
C182	C	0.421344	0.312940	0.250114
C183	C	0.671344	0.562940	0.500114
C184	C	0.921344	0.812940	0.750114
C185	C	0.202631	0.019117	0.000119
C186	C	0.452631	0.269117	0.250119
C187	C	0.702631	0.519117	0.500119
C188	C	0.952631	0.769117	0.750119
C189	C	0.183504	-0.025217	0.000132
C190	C	0.433504	0.224783	0.250132
C191	C	0.683504	0.474783	0.500132
C192	C	0.933504	0.724783	0.750132
C193	C	0.133092	-0.025728	0.000133
C194	C	0.383092	0.224272	0.250133
C195	C	0.633092	0.474272	0.500133
C196	C	0.883092	0.724272	0.750133
C197	C	0.108770	0.150585	0.000104
C198	C	0.358770	0.400585	0.250104
C199	C	0.608770	0.650585	0.500104
C200	C	0.858770	0.900585	0.750104
C201	C	0.159183	0.151092	0.000102
C202	C	0.409183	0.401092	0.250102
C203	C	0.659183	0.651092	0.500102
C204	C	0.909183	0.901092	0.750102
C205	C	0.190470	0.107270	0.000107
C206	C	0.440470	0.357270	0.250107
C207	C	0.690470	0.607270	0.500107
C208	C	0.940470	0.857270	0.750107
C209	C	0.574712	-0.026481	0.000124
C210	C	0.824712	0.223519	0.250124
C211	C	1.074712	0.473519	0.500124
C212	C	1.324712	0.723519	0.750124
C213	C	0.574159	-0.080136	0.000130
C214	C	0.824159	0.169864	0.250130
C215	C	1.074159	0.419864	0.500130
C216	C	1.324159	0.669864	0.750130
C217	C	0.614862	-0.418948	0.000101
C218	C	0.864862	-0.168948	0.250101
C219	C	1.114862	0.081052	0.500101
C220	C	1.364862	0.331052	0.750101
C221	C	0.612811	-0.620608	0.000091
C222	C	0.862811	-0.370608	0.250091
C223	C	1.112811	-0.120608	0.500091
C224	C	1.362811	0.129392	0.750091
O225	O	0.650032	-0.651862	0.000067
O226	O	0.900032	-0.401862	0.250067
O227	O	1.150032	-0.151862	0.500067
O228	O	1.400032	0.098138	0.750067
N229	N	0.568476	-0.639735	0.000082
N230	N	0.818476	-0.389735	0.250082
N231	N	1.068476	-0.139735	0.500082
N232	N	1.318476	0.110265	0.750082
C233	C	0.524651	-0.608442	0.000070
C234	C	0.774651	-0.358442	0.250070
C235	C	1.024651	-0.108442	0.500070
C236	C	1.274651	0.141558	0.750070
O237	O	0.486895	-0.629338	0.000055
O238	O	0.736895	-0.379338	0.250055
O239	O	0.986895	-0.129338	0.500055
O240	O	1.236895	0.120662	0.750055
C241	C	0.526703	-0.406784	0.000076
C242	C	0.776703	-0.156784	0.250076
C243	C	1.026703	0.093216	0.500076
C244	C	1.276703	0.343216	0.750076
C245	C	0.571040	-0.387660	0.000092
C246	C	0.821040	-0.137660	0.250092
C247	C	1.071040	0.112340	0.500092
C248	C	1.321040	0.362340	0.750092
C249	C	0.659196	-0.399824	0.000117
C250	C	0.909196	-0.149824	0.250117
C251	C	1.159196	0.100176	0.500117
C252	C	1.409196	0.350176	0.750117
C253	C	0.659709	-0.349412	0.000124
C254	C	0.909709	-0.099412	0.250124
C255	C	1.159709	0.150588	0.500124
C256	C	1.409709	0.400588	0.750124
C257	C	0.615887	-0.318124	0.000115
C258	C	0.865887	-0.068124	0.250115
C259	C	1.115887	0.181876	0.500115
C260	C	1.365887	0.431876	0.750115
C261	C	0.571553	-0.337248	0.000099
C262	C	0.821553	-0.087248	0.250099
C263	C	1.071553	0.162752	0.500099
C264	C	1.321553	0.412752	0.750099
C265	C	0.482878	-0.375493	0.000059
C266	C	0.732878	-0.125493	0.250059
C267	C	0.982878	0.124507	0.500059
C268	C	1.232878	0.374507	0.750059
C269	C	0.483395	-0.325075	0.000059
C270	C	0.733395	-0.075075	0.250059
C271	C	0.983395	0.174925	0.500059
C272	C	1.233395	0.424925	0.750059
C273	C	0.527733	-0.305952	0.000075
C274	C	0.777733	-0.055952	0.250075
C275	C	1.027733	0.194048	0.500075
C276	C	1.277733	0.444048	0.750075
C277	C	0.528243	-0.255548	0.000097
C278	C	0.778243	-0.005548	0.250097
C279	C	1.028243	0.244452	0.500097
C280	C	1.278243	0.494452	0.750097
N281	N	0.572578	-0.236422	0.000106
N282	N	0.822578	0.013578	0.250106
N283	N	1.072578	0.263578	0.500106
N284	N	1.322578	0.513578	0.750106
C285	C	0.616400	-0.267710	0.000115
C286	C	0.866400	-0.017710	0.250115
C287	C	1.116400	0.232290	0.500115
C288	C	1.366400	0.482290	0.750115
C289	C	0.523577	-0.714317	0.000069
C290	C	0.773577	-0.464317	0.250069
C291	C	1.023577	-0.214317	0.500069
C292	C	1.273577	0.035683	0.750069
C293	C	0.523064	-0.764731	0.000069
C294	C	0.773064	-0.514731	0.250069
C295	C	1.023064	-0.264731	0.500069
C296	C	1.273064	-0.014731	0.750069
C297	C	0.611225	-0.776893	0.000088
C298	C	0.861225	-0.526893	0.250088
C299	C	1.111225	-0.276893	0.500088
C300	C	1.361225	-0.026893	0.750088
C301	C	0.611737	-0.726478	0.000093
C302	C	0.861737	-0.476478	0.250093
C303	C	1.111737	-0.226478	0.500093
C304	C	1.361737	0.023522	0.750093
C305	C	0.567912	-0.695190	0.000078
C306	C	0.817912	-0.445190	0.250078
C307	C	1.067912	-0.195190	0.500078
C308	C	1.317912	0.054810	0.750078
C309	C	0.617472	-0.161841	0.000129
C310	C	0.867472	0.088159	0.250129
C311	C	1.117472	0.338159	0.500129
C312	C	1.367472	0.588159	0.750129
C313	C	0.617981	-0.111424	0.000139
C314	C	0.867981	0.138576	0.250139
C315	C	1.117981	0.388576	0.500139
C316	C	1.367981	0.638576	0.750139
C317	C	0.529821	-0.099266	0.000116
C318	C	0.779821	0.150734	0.250116
C319	C	1.029821	0.400734	0.500116
C320	C	1.279821	0.650734	0.750116
C321	C	0.529312	-0.149679	0.000110
C322	C	0.779312	0.100321	0.250110
C323	C	1.029312	0.350321	0.500110
C324	C	1.279312	0.600321	0.750110
C325	C	0.573142	-0.180965	0.000115
C326	C	0.823142	0.069035	0.250115
C327	C	1.073142	0.319035	0.500115
C328	C	1.323142	0.569035	0.750115
O329	O	0.491043	-0.224267	0.000112
O330	O	0.741043	0.025733	0.250112
O331	O	0.991043	0.275733	0.500112
O332	O	1.241043	0.525733	0.750112
O333	O	0.654151	-0.246805	0.000114
O334	O	0.904151	0.003195	0.250114
O335	O	1.154151	0.253195	0.500114
O336	O	1.404151	0.503195	0.750114
C337	C	0.614350	-0.469360	0.000095
C338	C	0.864350	-0.219360	0.250095
C339	C	1.114350	0.030640	0.500095
C340	C	1.364350	0.280640	0.750095
C341	C	0.570016	-0.488484	0.000079
C342	C	0.820016	-0.238484	0.250079
C343	C	1.070016	0.011516	0.500079
C344	C	1.320016	0.261516	0.750079
C345	C	0.526194	-0.457196	0.000070
C346	C	0.776194	-0.207196	0.250070
C347	C	1.026194	0.042804	0.500070
C348	C	1.276194	0.292804	0.750070
C349	C	0.569503	-0.538899	0.000079
C350	C	0.819503	-0.288899	0.250079
C351	C	1.069503	-0.038899	0.500079
C352	C	1.319503	0.211101	0.750079
C353	C	0.613325	-0.570187	0.000088
C354	C	0.863325	-0.320187	0.250088
C355	C	1.113325	-0.070187	0.500088
C356	C	1.363325	0.179813	0.750088
C357	C	0.657660	-0.551060	0.000097
C358	C	0.907660	-0.301060	0.250097
C359	C	1.157660	-0.051060	0.500097
C360	C	1.407660	0.198940	0.750097
C361	C	0.658172	-0.500648	0.000104
C362	C	0.908172	-0.250648	0.250104
C363	C	1.158172	-0.000648	0.500104
C364	C	1.408172	0.249352	0.750104
C365	C	0.481859	-0.476323	0.000061
C366	C	0.731859	-0.226323	0.250061
C367	C	0.981859	0.023677	0.500061
C368	C	1.231859	0.273677	0.750061
C369	C	0.481351	-0.526735	0.000055
C370	C	0.731351	-0.276735	0.250055
C371	C	0.981351	-0.026735	0.500055
C372	C	1.231351	0.223265	0.750055
C373	C	0.525172	-0.558023	0.000064
C374	C	0.775172	-0.308023	0.250064
C375	C	1.025172	-0.058023	0.500064
C376	C	1.275172	0.191977	0.750064
C377	C	0.658925	0.057739	0.000125
C378	C	0.908925	0.307739	0.250125
C379	C	1.158925	0.557739	0.500125
C380	C	1.408925	0.807739	0.750125
C381	C	0.712580	0.058295	0.000132
C382	C	0.962580	0.308295	0.250132
C383	C	1.212580	0.558295	0.500132
C384	C	1.462580	0.808295	0.750132
C385	C	0.566333	0.150326	0.000089
C386	C	0.816333	0.400326	0.250089
C387	C	1.066333	0.650326	0.500089
C388	C	1.316333	0.900326	0.750089
C389	C	0.566886	0.203981	0.000078
C390	C	0.816886	0.453981	0.250078
C391	C	1.066886	0.703981	0.500078
C392	C	1.316886	0.953981	0.750078
N393	N	0.570506	0.061916	0.189808
N394	N	0.820506	0.311916	0.439808
N395	N	1.070506	0.561916	0.689808
N396	N	1.320506	0.811916	0.939808
N397	N	0.570542	0.061925	-0.189593
N398	N	0.820542	0.311925	0.060407
N399	N	1.070542	0.561925	0.310407
N400	N	1.320542	0.811925	0.560407
C401	C	0.603625	0.028827	0.228130
C402	C	0.853625	0.278827	0.478130
C403	C	1.103625	0.528827	0.728130
C404	C	1.353625	0.778827	0.978130
C405	C	0.603628	0.028824	0.304775
C406	C	0.853628	0.278824	0.554775
C407	C	1.103628	0.528824	0.804775
C408	C	1.353628	0.778824	1.054775
C409	C	0.570517	0.061920	0.343094
C410	C	0.820517	0.311920	0.593094
C411	C	1.070517	0.561920	0.843094
C412	C	1.320517	0.811920	1.093094
C413	C	0.537393	0.095013	0.304763
C414	C	0.787393	0.345013	0.554763
C415	C	1.037393	0.595013	0.804763
C416	C	1.287393	0.845013	1.054763
C417	C	0.537387	0.095011	0.228119
C418	C	0.787387	0.345011	0.478119
C419	C	1.037387	0.595011	0.728119
C420	C	1.287387	0.845011	0.978119
N421	N	0.564045	0.104738	0.463417
N422	N	0.814045	0.354738	0.713417
N423	N	1.064045	0.604738	0.963417
N424	N	1.314045	0.854738	1.213417
N425	N	0.564053	0.104739	0.536225
N426	N	0.814053	0.354739	0.786225
N427	N	1.064053	0.604739	1.036225
N428	N	1.314053	0.854739	1.286225
C429	C	0.570531	0.061927	0.574017
C430	C	0.820531	0.311927	0.824017
C431	C	1.070531	0.561927	1.074017
C432	C	1.320531	0.811927	1.324017
N433	N	0.577010	0.019114	0.536250
N434	N	0.827010	0.269114	0.786250
N435	N	1.077010	0.519114	1.036250
N436	N	1.327010	0.769114	1.286250
N437	N	0.577004	0.019114	0.463435
N438	N	0.827004	0.269114	0.713435
N439	N	1.077004	0.519114	0.963435
N440	N	1.327004	0.769114	1.213435
C441	C	0.570519	0.061926	0.426201
C442	C	0.820519	0.311926	0.676201
C443	C	1.070519	0.561926	0.926201
C444	C	1.320519	0.811926	1.176201
C445	C	0.603654	0.028832	0.695446
C446	C	0.853654	0.278832	0.945446
C447	C	1.103654	0.528832	1.195446
C448	C	1.353654	0.778832	1.445446
C449	C	0.603654	0.028829	0.772093
C450	C	0.853654	0.278829	1.022093
C451	C	1.103654	0.528829	1.272093
C452	C	1.353654	0.778829	1.522093
C453	C	0.537421	0.095022	0.772079
C454	C	0.787421	0.345022	1.022079
C455	C	1.037421	0.595022	1.272079
C456	C	1.287421	0.845022	1.522079
C457	C	0.537419	0.095020	0.695434
C458	C	0.787419	0.345020	0.945434
C459	C	1.037419	0.595020	1.195434
C460	C	1.287419	0.845020	1.445434
C461	C	0.570538	0.061926	0.657123
C462	C	0.820538	0.311926	0.907123
C463	C	1.070538	0.561926	1.157123
C464	C	1.320538	0.811926	1.407123
H465	H	-0.067950	0.184742	0.000132
H466	H	0.182050	0.434742	0.250132
H467	H	0.432050	0.684742	0.500132
H468	H	0.682050	0.934742	0.750132
H469	H	0.447706	-0.299603	0.000045
H470	H	0.697706	-0.049603	0.250045
H471	H	0.947706	0.200397	0.500045
H472	H	1.197706	0.450397	0.750045
F473	F	0.638871	-0.006397	0.187357
F474	F	0.888871	0.243603	0.437357
F475	F	1.138871	0.493603	0.687357
F476	F	1.388871	0.743603	0.937357
F477	F	0.435215	-0.443029	0.000049
F478	F	0.685215	-0.193029	0.250049
F479	F	0.935215	0.056971	0.500049
F480	F	1.185215	0.306971	0.750049
H481	H	0.174748	0.187200	0.000092
H482	H	0.424748	0.437200	0.250092
H483	H	0.674748	0.687200	0.500092
H484	H	0.924748	0.937200	0.750092
F485	F	0.638901	-0.006392	0.654671
F486	F	0.888901	0.243608	0.904671
F487	F	1.138901	0.493608	1.154671
F488	F	1.388901	0.743608	1.404671
F489	F	-0.276483	-0.032719	0.000138
F490	F	-0.026483	0.217281	0.250138
F491	F	0.223517	0.467281	0.500138
F492	F	0.473517	0.717281	0.750138
H493	H	0.694883	-0.425295	0.000122
H494	H	0.944883	-0.175295	0.250122
H495	H	1.194883	0.074705	0.500122
H496	H	1.444883	0.324705	0.750122
H497	H	0.510453	0.121967	0.664230
H498	H	0.760453	0.371967	0.914230
H499	H	1.010453	0.621967	1.164230
H500	H	1.260453	0.871967	1.414230
H501	H	0.117526	-0.061832	0.000137
H502	H	0.367526	0.188168	0.250137
H503	H	0.617526	0.438168	0.500137
H504	H	0.867526	0.688168	0.750137
F505	F	0.216811	-0.071856	0.000134
F506	F	0.466811	0.178144	0.250134
F507	F	0.716811	0.428144	0.500134
F508	F	0.966811	0.678144	0.750134
F509	F	0.665173	-0.091075	0.000156
F510	F	0.915173	0.158925	0.250156
F511	F	1.165173	0.408925	0.500156
F512	F	1.415173	0.658925	0.750156
F513	F	0.658927	-0.706130	0.000111
F514	F	0.908927	-0.456130	0.250111
F515	F	1.158927	-0.206130	0.500111
F516	F	1.408927	0.043870	0.750111
H517	H	0.630598	0.001877	0.335983
H518	H	0.880598	0.251877	0.585983
H519	H	1.130598	0.501877	0.835983
H520	H	1.380598	0.751877	1.085983
F521	F	0.476930	-0.681023	0.000053
F522	F	0.726930	-0.431023	0.250053
F523	F	0.976930	-0.181023	0.500053
F524	F	1.226930	0.068977	0.750053
F525	F	0.475874	-0.785078	0.000064
F526	F	0.725874	-0.535078	0.250064
F527	F	0.975874	-0.285078	0.500064
F528	F	1.225874	-0.035078	0.750064
H529	H	0.510433	0.121959	0.335966
H530	H	0.760433	0.371959	0.585966
H531	H	1.010433	0.621959	0.835966
H532	H	1.260433	0.871959	1.085966
F533	F	0.434157	-0.547081	0.000042
F534	F	0.684157	-0.297081	0.250042
F535	F	0.934157	-0.047081	0.500042
F536	F	1.184157	0.202919	0.750042
H537	H	0.510418	0.121957	0.196917
H538	H	0.760418	0.371957	0.446917
H539	H	1.010418	0.621957	0.696917
H540	H	1.260418	0.871957	0.946917
F541	F	-0.197522	0.150328	0.000107
F542	F	0.052478	0.400328	0.250107
F543	F	0.302478	0.650328	0.500107
F544	F	0.552478	0.900328	0.750107
H545	H	0.693341	-0.576544	0.000108
H546	H	0.943341	-0.326544	0.250108
H547	H	1.193341	-0.076544	0.500108
H548	H	1.443341	0.173456	0.750108
F549	F	0.638902	-0.006394	0.812880
F550	F	0.888902	0.243606	1.062880
F551	F	1.138902	0.493606	1.312880
F552	F	1.388902	0.743606	1.562880
F553	F	0.502179	0.130242	0.812858
F554	F	0.752179	0.380242	1.062858
F555	F	1.002179	0.630242	1.312858
F556	F	1.252179	0.880242	1.562858
H557	H	-0.180248	-0.020712	0.000147
H558	H	0.069752	0.229288	0.250147
H559	H	0.319752	0.479288	0.500147
H560	H	0.569752	0.729288	0.750147
F561	F	0.338574	-0.026488	0.000099
F562	F	0.588574	0.223512	0.250099
F563	F	0.838574	0.473512	0.500099
F564	F	1.088574	0.723512	0.750099
H565	H	-0.033711	-0.063365	0.000143
H566	H	0.216289	0.186635	0.250143
H567	H	0.466289	0.436635	0.500143
H568	H	0.716289	0.686635	0.750143
H569	H	0.057737	-0.062438	0.000141
H570	H	0.307737	0.187562	0.250141
H571	H	0.557737	0.437562	0.500141
H572	H	0.807737	0.687562	0.750141
H573	H	0.694276	-0.485083	0.000117
H574	H	0.944276	-0.235083	0.250117
H575	H	1.194276	0.014917	0.500117
H576	H	1.444276	0.264917	0.750117
H577	H	0.434821	-0.014469	0.000090
H578	H	0.684821	0.235531	0.250090
H579	H	0.934821	0.485531	0.500090
H580	H	1.184821	0.735531	0.750090
F581	F	0.664121	-0.195132	0.000134
F582	F	0.914121	0.054868	0.250134
F583	F	1.164121	0.304868	0.500134
F584	F	1.414121	0.554868	0.750134
H585	H	0.412744	0.145477	0.000057
H586	H	0.662744	0.395477	0.250057
H587	H	0.912744	0.645477	0.500057
H588	H	1.162744	0.895477	0.750057
F589	F	0.435687	-0.395834	0.000039
F590	F	0.685687	-0.145834	0.250039
F591	F	0.935687	0.104166	0.500039
F592	F	1.185687	0.354166	0.750039
H593	H	0.321293	0.144551	0.000079
H594	H	0.571293	0.394551	0.250079
H595	H	0.821293	0.644551	0.500079
H596	H	1.071293	0.894551	0.750079
H597	H	0.023501	0.185672	0.000113
H598	H	0.273501	0.435672	0.250113
H599	H	0.523501	0.685672	0.500113
H600	H	0.773501	0.935672	0.750113
F601	F	-0.301595	0.149269	0.000114
F602	F	-0.051595	0.399269	0.250114
F603	F	0.198405	0.649269	0.500114
F604	F	0.448405	0.899269	0.750114
F605	F	0.075478	0.197229	0.000096
F606	F	0.325478	0.447229	0.250096
F607	F	0.575478	0.697229	0.500096
F608	F	0.825478	0.947229	0.750096
F609	F	0.657863	-0.810201	0.000096
F610	F	0.907863	-0.560201	0.250096
F611	F	1.157863	-0.310201	0.500096
F612	F	1.407863	-0.060201	0.750096
F613	F	0.706899	-0.329067	0.000126
F614	F	0.956899	-0.079067	0.250126
F615	F	1.206899	0.170933	0.500126
F616	F	1.456899	0.420933	0.750126
F617	F	0.482123	-0.170032	0.000106
F618	F	0.732123	0.079968	0.250106
F619	F	0.982123	0.329968	0.500106
F620	F	1.232123	0.579968	0.750106
F621	F	0.483185	-0.065958	0.000107
F622	F	0.733185	0.184042	0.250107
F623	F	0.983185	0.434042	0.500107
F624	F	1.233185	0.684042	0.750107
