data_functionalizedCrystal
_audit_creation_method	'MofGen! by Chris Wilmer'
_symmetry_space_group_name_H-M	'P1'
_symmetry_Int_Tables_number	1
_symmetry_cell_setting	triclinic
loop_
_symmetry_equiv_pos_as_xyz
  x,y,z
_cell_length_a	6.817900
_cell_length_b	14.125465
_cell_length_c	12.908942
_cell_angle_alpha	96.061960
_cell_angle_beta	100.860556
_cell_angle_gamma	100.398878
loop_
_atom_site_label
_atom_site_type_symbol
_atom_site_fract_x
_atom_site_fract_y
_atom_site_fract_z
V1	V	-3.977989	-0.299444	-0.144948
O2	O	-3.980234	-0.294295	0.007897
O3	O	-3.916565	-0.296867	-0.288305
O4	O	-3.914374	-0.430284	-0.142310
O5	O	-3.982440	-0.159954	-0.139108
V6	V	-4.465277	-0.282825	-0.126715
O7	O	-4.230991	-0.335901	-0.184946
O8	O	-4.662473	-0.246368	-0.086717
O9	O	-4.303495	-0.285402	0.016642
O10	O	-4.580429	-0.287974	-0.279560
O11	O	-4.578223	-0.422315	-0.132555
O12	O	-4.305685	-0.151985	-0.129353
C13	C	-3.758889	-0.292006	-0.323265
C14	C	-3.789853	-0.290771	-0.440458
C15	C	-4.210188	-0.298031	-0.671389
C16	C	-4.239290	-0.296871	-0.781502
C17	C	-3.877165	-0.287296	-0.770801
C18	C	-3.848062	-0.288457	-0.660688
C19	C	-4.014581	-0.293823	-0.610985
C20	C	-3.985474	-0.294977	-0.500869
C21	C	-3.623353	-0.285409	-0.490171
C22	C	-3.652456	-0.284248	-0.600284
C23	C	-3.756094	-0.462192	-0.137033
C24	C	-3.785279	-0.569151	-0.135824
C25	C	-3.838773	-0.764982	-0.133607
C26	C	-4.023862	-0.817287	-0.138054
C27	C	-4.053629	-0.926254	-0.136820
C28	C	-3.808999	-0.656005	-0.134841
C29	C	-4.124512	-0.290260	0.051596
C30	C	-4.072786	-0.291502	0.168788
C31	C	-4.127308	-0.120072	-0.134634
C32	C	-4.077362	-0.013112	-0.135837
H33	H	-3.516889	-0.279883	-0.640768
N34	N	-4.165076	-0.300772	-0.447265
H35	H	-4.180421	-0.361349	-0.411874
H36	H	-4.141617	-0.241544	-0.391812
H37	H	-4.159969	-0.780231	-0.142797
H38	H	-3.741605	-0.282936	-0.811290
N39	N	-3.412358	-0.280859	-0.425021
H40	H	-3.419182	-0.282405	-0.347721
H41	H	-3.357727	-0.338447	-0.451983
H42	H	-3.702681	-0.802037	-0.128876
H43	H	-4.398570	-0.300299	-0.830679
H44	H	-4.345770	-0.302386	-0.630918
