data_functionalizedCrystal
_audit_creation_method	'MofGen! by Chris Wilmer'
_symmetry_space_group_name_H-M	'P1'
_symmetry_Int_Tables_number	1
_symmetry_cell_setting	triclinic
loop_
_symmetry_equiv_pos_as_xyz
  x,y,z
_cell_length_a	13.032831
_cell_length_b	29.839131
_cell_length_c	13.034059
_cell_angle_alpha	97.066338
_cell_angle_beta	76.580318
_cell_angle_gamma	82.845366
loop_
_atom_site_label
_atom_site_type_symbol
_atom_site_fract_x
_atom_site_fract_y
_atom_site_fract_z
Zn1	Zn	1.700860	-0.315346	-0.806360
Zn2	Zn	1.677893	-0.379639	-0.628709
Zn3	Zn	1.500442	-0.293610	-0.606247
Zn4	Zn	1.523112	-0.379512	-0.783764
O5	O	1.600577	-0.342027	-0.706270
O6	O	1.846465	-0.333025	-0.801652
O7	O	1.635254	-0.359184	-0.477090
O8	O	1.527152	-0.233636	-0.632848
O9	O	1.829591	-0.380261	-0.671132
O10	O	1.674398	-0.249605	-0.779871
O11	O	1.504882	-0.295978	-0.460587
O12	O	1.354797	-0.295855	-0.610938
O13	O	1.565790	-0.380044	-0.935401
O14	O	1.371453	-0.358967	-0.741359
O15	O	1.696381	-0.332901	-0.952003
O16	O	1.657237	-0.442480	-0.649222
O17	O	1.543520	-0.442386	-0.763140
C18	C	1.324582	-0.325039	-0.671259
C19	C	1.206513	-0.317784	-0.656307
C20	C	1.600378	-0.458734	-0.706193
C21	C	1.600395	-0.508671	-0.706208
C22	C	1.162130	-0.345813	-0.714074
C23	C	1.040100	-0.338316	-0.698621
C24	C	1.659925	-0.818377	-0.647068
C25	C	1.660062	-1.006061	-0.647126
O26	O	1.710519	-1.030367	-0.596783
N27	N	1.600807	-1.029487	-0.706378
C28	C	1.541520	-1.005991	-0.765626
O29	O	1.491133	-1.030224	-0.816034
C30	C	1.541391	-0.818309	-0.765574
C31	C	1.600640	-0.794884	-0.706309
C32	C	1.719171	-0.794952	-0.587809
C33	C	1.719132	-0.748033	-0.587790
C34	C	1.659847	-0.724540	-0.647031
C35	C	1.600601	-0.747965	-0.706290
C36	C	1.482110	-0.794814	-0.824827
C37	C	1.482085	-0.747891	-0.824811
C38	C	1.541335	-0.724465	-0.765546
C39	C	1.541276	-0.677553	-0.765512
N40	N	1.600531	-0.654126	-0.706260
C41	C	1.659816	-0.677620	-0.647019
C42	C	1.541591	-1.104527	-0.765648
C43	C	1.541622	-1.151447	-0.765660
C44	C	1.660165	-1.151513	-0.647160
C45	C	1.660127	-1.104592	-0.647143
C46	C	1.600845	-1.081100	-0.706395
C47	C	1.659728	-0.579087	-0.646984
C48	C	1.659680	-0.532164	-0.646967
C49	C	1.541142	-0.532102	-0.765470
C50	C	1.541185	-0.579021	-0.765483
C51	C	1.600486	-0.602512	-0.706237
O52	O	1.490855	-0.653219	-0.815838
O53	O	1.710215	-0.653380	-0.596637
C54	C	1.659965	-0.865295	-0.647086
C55	C	1.600719	-0.888721	-0.706345
C56	C	1.541434	-0.865227	-0.765586
C57	C	1.600750	-0.935641	-0.706357
C58	C	1.660035	-0.959134	-0.647116
C59	C	1.719289	-0.935707	-0.587864
C60	C	1.719250	-0.888789	-0.587845
C61	C	1.482179	-0.888654	-0.824839
C62	C	1.482223	-0.935573	-0.824851
C63	C	1.541508	-0.959066	-0.765611
C64	C	1.877650	-0.359082	-0.741418
C65	C	1.995722	-0.366349	-0.756396
C66	C	1.636176	-0.358883	-0.983320
C67	C	1.651346	-0.366066	-1.101382
C68	C	1.600808	-0.224867	-0.706374
C69	C	1.600907	-0.174940	-0.706419
C70	C	1.565177	-0.325208	-0.430306
C71	C	1.550213	-0.317911	-0.312270
C72	C	1.608508	-0.345757	-0.267822
C73	C	1.593043	-0.338216	-0.145827
H74	H	1.214476	-0.375360	-0.774974
Cl75	Cl	1.498298	-0.292787	-0.065148
H76	H	1.048062	-0.395898	-0.817304
H77	H	1.488852	-0.288489	-0.260007
Cl78	Cl	1.407641	-0.859127	-0.899321
Cl79	Cl	1.746083	-0.411499	-0.182057
Cl80	Cl	0.959297	-0.292689	-0.604600
H81	H	1.767381	-0.728963	-0.539535
Cl82	Cl	1.125706	-0.272159	-0.562290
H83	H	1.492869	-0.512966	-0.813700
Cl84	Cl	1.734171	-0.502718	-0.572457
Cl85	Cl	1.734277	-0.608612	-0.572501
Cl86	Cl	1.734617	-1.075148	-0.572638
Cl87	Cl	1.793712	-0.824478	-0.513324
H88	H	1.708437	-1.170650	-0.598925
H89	H	1.493363	-1.170514	-0.813908
Cl90	Cl	1.703236	-0.391189	-0.348503
Cl91	Cl	1.407634	-0.824253	-0.899351
Cl92	Cl	1.467054	-1.075000	-0.840141
H93	H	1.433812	-0.728766	-0.873064
Cl94	Cl	1.793816	-0.965251	-0.513388
H95	H	1.492943	-0.598095	-0.813745
Cl96	Cl	1.793745	-0.859348	-0.513342
Cl97	Cl	1.407728	-0.965016	-0.899363
