data_functionalizedCrystal
_audit_creation_method	'MofGen! by Chris Wilmer'
_symmetry_space_group_name_H-M	'P1'
_symmetry_Int_Tables_number	1
_symmetry_cell_setting	triclinic
loop_
_symmetry_equiv_pos_as_xyz
  x,y,z
_cell_length_a	17.640112
_cell_length_b	16.625545
_cell_length_c	17.640968
_cell_angle_alpha	78.769372
_cell_angle_beta	92.139080
_cell_angle_gamma	101.250346
loop_
_atom_site_label
_atom_site_type_symbol
_atom_site_fract_x
_atom_site_fract_y
_atom_site_fract_z
Zn1	Zn	1.247777	-0.023167	-0.195080
Zn2	Zn	1.747777	0.476833	0.304920
Zn3	Zn	1.222000	-0.189521	-0.068100
Zn4	Zn	1.722000	0.310479	0.431900
Zn5	Zn	1.095107	-0.075617	-0.093727
Zn6	Zn	1.595107	0.424383	0.406273
Zn7	Zn	1.120741	-0.178908	-0.220682
Zn8	Zn	1.620741	0.321092	0.279318
O9	O	1.171406	-0.116803	-0.144397
O10	O	1.671406	0.383197	0.355603
O11	O	1.350628	-0.027726	-0.156797
O12	O	1.850628	0.472274	0.343203
O13	O	1.183651	-0.200804	0.034773
O14	O	1.683651	0.299196	0.534773
O15	O	1.115419	0.044187	-0.107182
O16	O	1.615419	0.544187	0.392818
O17	O	1.331689	-0.149945	-0.063505
O18	O	1.831689	0.350055	0.436495
O19	O	1.227585	0.082722	-0.181646
O20	O	1.727585	0.582722	0.318354
O21	O	1.090423	-0.117119	0.015945
O22	O	1.590423	0.382881	0.515945
O23	O	0.992237	-0.106828	-0.132007
O24	O	1.492237	0.393172	0.367993
O25	O	1.159109	-0.131856	-0.323559
O26	O	1.659109	0.368144	0.176441
O27	O	1.011070	-0.182714	-0.225280
O28	O	1.511070	0.317286	0.274720
O29	O	1.252442	-0.017434	-0.304749
O30	O	1.752442	0.482566	0.195251
O31	O	1.208508	-0.300960	-0.088330
O32	O	1.708508	0.199040	0.411670
O33	O	1.134113	-0.293162	-0.200431
O34	O	1.634113	0.206838	0.299569
C35	C	0.974099	-0.149311	-0.184203
C36	C	1.474099	0.350689	0.315797
C37	C	0.889694	-0.163233	-0.201250
C38	C	1.389694	0.336767	0.298750
C39	C	0.563039	-0.011024	-0.014898
C40	C	1.063039	0.488976	0.485102
C41	C	0.483729	-0.024119	-0.030927
C42	C	0.983729	0.475881	0.469073
C43	C	0.503361	-0.103324	-0.127885
C44	C	1.003361	0.396676	0.372115
C45	C	0.582674	-0.090231	-0.111867
C46	C	1.082674	0.409769	0.388133
C47	C	0.612506	-0.044082	-0.055372
C48	C	1.112506	0.455918	0.444628
C49	C	0.632142	-0.123289	-0.152341
C50	C	1.132142	0.376711	0.347659
C51	C	0.711447	-0.110201	-0.136321
C52	C	1.211447	0.389799	0.363679
C53	C	0.741285	-0.064056	-0.079827
C54	C	1.241285	0.435944	0.420173
C55	C	0.691812	-0.030994	-0.039352
C56	C	1.191812	0.469006	0.460648
C57	C	0.602307	-0.169444	-0.208831
C58	C	1.102307	0.330556	0.291169
C59	C	0.651775	-0.202502	-0.249305
C60	C	1.151775	0.297498	0.250695
C61	C	0.731083	-0.189409	-0.233290
C62	C	1.231083	0.310591	0.266710
C63	C	0.760921	-0.143263	-0.176796
C64	C	1.260921	0.356737	0.323204
C65	C	0.780556	-0.222471	-0.273765
C66	C	1.280556	0.277529	0.226235
C67	C	0.859862	-0.209383	-0.257745
C68	C	1.359862	0.290617	0.242255
C69	C	0.840227	-0.130176	-0.160776
C70	C	1.340227	0.369824	0.339224
C71	C	1.171319	-0.326314	-0.144390
C72	C	1.671319	0.173686	0.355610
C73	C	1.171356	-0.415925	-0.144398
C74	C	1.671356	0.084075	0.355602
C75	C	1.171389	-0.488699	-0.144407
C76	C	1.671389	0.011301	0.355593
C77	C	1.171436	-0.579996	-0.144415
C78	C	1.671436	-0.079996	0.355585
C79	C	1.171478	-0.652764	-0.144417
C80	C	1.671478	-0.152764	0.355583
C81	C	1.171524	-0.744067	-0.144424
C82	C	1.671524	-0.244067	0.355576
C83	C	1.369484	-0.084169	-0.104436
C84	C	1.869484	0.415831	0.395564
C85	C	1.453892	-0.070262	-0.087407
C86	C	1.953892	0.429738	0.412593
C87	C	1.211510	-0.067610	-0.342480
C88	C	1.711510	0.432390	0.157520
C89	C	1.228600	-0.046647	-0.426890
C90	C	1.728600	0.453353	0.073110
C91	C	1.171518	0.093533	-0.144417
C92	C	1.671518	0.593533	0.355583
C93	C	1.171566	0.183165	-0.144425
C94	C	1.671566	0.683165	0.355575
C95	C	1.041868	-0.275571	-0.753467
C96	C	1.541868	0.224429	-0.253467
C97	C	1.057942	-0.255860	-0.832780
C98	C	1.557942	0.244140	-0.332780
C99	C	1.155122	-0.136723	-0.813185
C100	C	1.655122	0.363277	-0.313185
C101	C	1.139053	-0.156421	-0.733869
C102	C	1.639053	0.343579	-0.233869
C103	C	1.082426	-0.225847	-0.704016
C104	C	1.582426	0.274153	-0.204016
C105	C	1.179610	-0.106697	-0.684418
C106	C	1.679610	0.393303	-0.184418
C107	C	1.163545	-0.126397	-0.605108
C108	C	1.663545	0.373603	-0.105108
C109	C	1.106922	-0.195821	-0.575249
C110	C	1.606922	0.304179	-0.075249
C111	C	1.066361	-0.245547	-0.624706
C112	C	1.566361	0.254453	-0.124706
C113	C	1.236241	-0.037276	-0.714272
C114	C	1.736241	0.462724	-0.214272
C115	C	1.276799	0.012448	-0.664821
C116	C	1.776799	0.512448	-0.164821
C117	C	1.260730	-0.007248	-0.585510
C118	C	1.760730	0.492752	-0.085510
C119	C	1.204107	-0.076672	-0.555651
C120	C	1.704107	0.423328	-0.055651
C121	C	1.301292	0.042478	-0.536053
C122	C	1.801292	0.542478	-0.036053
C123	C	1.285227	0.022778	-0.456743
C124	C	1.785227	0.522778	0.043257
C125	C	1.188042	-0.096371	-0.476341
C126	C	1.688042	0.403629	0.023659
C127	C	1.131502	-0.165739	0.052923
C128	C	1.631502	0.334261	0.552923
C129	C	1.114559	-0.186451	0.137363
C130	C	1.614559	0.313549	0.637363
H131	H	0.756253	-0.260053	-0.319757
H132	H	1.256253	0.239947	0.180243
H133	H	1.249321	-0.021240	-0.778851
H134	H	1.749321	0.478760	-0.278851
Cl135	Cl	0.877737	-0.072151	-0.089758
Cl136	Cl	1.377737	0.427849	0.410242
H137	H	0.627474	-0.240080	-0.295301
H138	H	1.127474	0.259920	0.204699
H139	H	0.716105	0.006601	0.006640
H140	H	1.216105	0.506601	0.506640
H141	H	0.805861	-0.053403	-0.066784
H142	H	1.305861	0.446597	0.433216
H143	H	0.443455	0.002811	0.002031
H144	H	0.943455	0.502811	0.502031
H145	H	0.900140	-0.236301	-0.290704
H146	H	1.400140	0.263699	0.209296
Cl147	Cl	0.600549	0.047001	0.056120
Cl148	Cl	1.100549	0.547001	0.556120
Cl149	Cl	0.465848	-0.161350	-0.198895
Cl150	Cl	0.965848	0.338650	0.301105
Cl151	Cl	0.502605	-0.185910	-0.228961
Cl152	Cl	1.002605	0.314090	0.271039
H153	H	1.141913	-0.152888	-0.452037
H154	H	1.641913	0.347112	0.047963
Cl155	Cl	1.347986	0.099721	-0.702358
Cl156	Cl	1.847986	0.599721	-0.202358
Cl157	Cl	1.086729	-0.220592	-0.475543
Cl158	Cl	1.586729	0.279408	0.024457
H159	H	0.995738	-0.332088	-0.729163
H160	H	1.495738	0.167912	-0.229163
H161	H	1.318252	0.063269	-0.416479
H162	H	1.818252	0.563269	0.083521
H163	H	1.020231	-0.302064	-0.600402
H164	H	1.520231	0.197936	-0.100402
Cl165	Cl	1.372485	0.129744	-0.573591
Cl166	Cl	1.872485	0.629744	-0.073591
H167	H	1.024911	-0.296357	-0.873042
H168	H	1.524911	0.203643	-0.373042
Cl169	Cl	1.226309	-0.049450	-0.850722
Cl170	Cl	1.726309	0.450550	-0.350722
