data_functionalizedCrystal
_audit_creation_method	'MofGen! by Chris Wilmer'
_symmetry_space_group_name_H-M	'P1'
_symmetry_Int_Tables_number	1
_symmetry_cell_setting	triclinic
loop_
_symmetry_equiv_pos_as_xyz
  x,y,z
_cell_length_a	17.699083
_cell_length_b	16.974885
_cell_length_c	16.176319
_cell_angle_alpha	93.644606
_cell_angle_beta	89.992304
_cell_angle_gamma	83.338128
loop_
_atom_site_label
_atom_site_type_symbol
_atom_site_fract_x
_atom_site_fract_y
_atom_site_fract_z
O1	O	0.096438	1.048949	0.001365
O2	O	0.108731	0.818722	-0.014026
O3	O	-0.007600	0.940340	-0.005888
O4	O	0.212769	0.927331	-0.006772
O5	O	-0.007608	0.940324	0.131604
O6	O	0.108724	0.818706	0.123467
O7	O	0.096430	1.048932	0.138857
Cu8	Cu	0.102576	0.933818	0.143716
Cu9	Cu	0.102585	0.933837	-0.018884
O10	O	0.212762	0.927315	0.130720
C11	C	0.108261	0.789257	0.052751
C12	C	0.106862	0.701484	0.046884
C13	C	0.098961	0.207422	0.005755
C14	C	0.100276	0.289894	0.011279
C15	C	0.100935	0.331112	0.088989
C16	C	0.100271	0.289855	0.161180
C17	C	0.098951	0.207385	0.155655
C18	C	0.104878	0.577758	0.113549
C19	C	0.106200	0.660233	0.119069
C20	C	0.106203	0.660266	-0.030832
C21	C	0.104888	0.577795	-0.036350
C22	C	0.104220	0.536545	0.035840
N23	N	0.102281	0.415411	0.094638
N24	N	0.102869	0.452249	0.030191
C25	C	-0.035801	0.939866	0.062827
C26	C	-0.119821	0.938467	0.062734
C27	C	-0.168392	1.009854	0.067507
C28	C	-0.247336	1.008536	0.067412
C29	C	-0.277707	0.935829	0.062549
C30	C	-0.229130	0.864437	0.057772
C31	C	-0.150187	0.865756	0.057862
C32	C	-0.547496	0.859114	0.057410
C33	C	-0.626445	0.857800	0.057323
C34	C	-0.644646	1.001893	0.066959
C35	C	-0.565703	1.003213	0.067049
C36	C	-0.517132	0.931821	0.062268
C37	C	-0.431532	0.933251	0.062370
C38	C	-0.363306	0.934398	0.062452
C39	C	0.240963	0.927789	0.062003
C40	C	0.324982	0.929187	0.062091
N41	N	0.102570	0.933809	0.258081
C42	C	0.096900	1.078398	0.072078
C43	C	0.098300	1.166170	0.077940
N44	N	0.102586	0.933852	-0.133249
C45	C	0.051079	0.987678	0.304949
C46	C	0.051078	0.987682	0.391496
C47	C	0.102572	0.933821	0.431174
C48	C	0.154065	0.879946	0.384299
C49	C	0.154062	0.879939	0.297753
C50	C	0.154079	0.879973	0.733329
C51	C	0.154080	0.879986	0.819881
C52	C	0.051096	0.987716	0.827072
C53	C	0.051092	0.987709	0.740527
C54	C	0.102582	0.933832	0.693659
C55	C	0.102582	0.933828	0.599814
C56	C	0.102577	0.933828	0.525017
H57	H	0.106742	0.693790	0.182353
H58	H	0.104350	0.544241	-0.099629
H59	H	0.009150	1.031545	0.429657
H60	H	0.098430	0.173867	-0.057524
C61	C	-0.050850	0.783634	0.123049
C62	C	-0.096792	0.787286	0.052616
H63	H	-0.017884	0.735191	0.119802
H64	H	-0.082029	0.786102	0.171152
H65	H	-0.021469	0.827129	0.125949
H66	H	-0.126177	0.743795	0.049719
H67	H	-0.065609	0.784810	0.004499
H68	H	-0.286881	1.066666	0.071300
C69	C	0.170545	0.772326	0.474464
C70	C	0.210667	0.820741	0.427915
H71	H	0.205492	0.735780	0.501393
H72	H	0.139061	0.743945	0.438819
H73	H	0.139881	0.804420	0.514760
H74	H	0.241327	0.788648	0.387614
H75	H	0.242165	0.849124	0.463563
H76	H	0.196006	0.836107	0.695176
C77	C	-0.418407	0.797145	0.053252
C78	C	-0.494113	0.780641	0.052156
H79	H	-0.385449	0.748695	0.050003
H80	H	-0.409214	0.826948	0.103190
H81	H	-0.409214	0.826973	0.007297
H82	H	-0.503308	0.750818	0.098115
H83	H	-0.503310	0.750825	0.002213
H84	H	0.104323	0.544184	0.172332
H85	H	-0.143671	1.069061	0.071472
C86	C	-0.591626	1.145516	0.076555
C87	C	-0.532320	1.083134	0.072390
H88	H	-0.571016	1.194856	0.079845
H89	H	-0.622041	1.142003	0.124265
H90	H	-0.622034	1.142003	0.028371
H91	H	-0.501916	1.086644	0.120578
H92	H	-0.501893	1.086649	0.024676
C93	C	0.100151	0.281642	-0.137443
C94	C	0.101002	0.335237	-0.068069
H95	H	0.100602	0.309637	-0.186430
H96	H	0.055527	0.255591	-0.136066
H97	H	0.143757	0.243360	-0.136887
H98	H	0.057394	0.373517	-0.068621
H99	H	0.145632	0.361302	-0.069447
H100	H	0.106746	0.693860	-0.089605
C101	C	-0.743969	1.084029	0.001762
C102	C	-0.698036	1.080372	0.072202
H103	H	-0.776924	1.132480	0.004999
H104	H	-0.773354	1.040546	-0.001143
H105	H	-0.712778	1.081553	-0.046343
H106	H	-0.729228	1.082842	0.120306
H107	H	-0.668649	1.123867	0.075114
H108	H	0.009150	1.031541	0.272650
C109	C	-0.600528	0.715489	0.047783
C110	C	-0.659830	0.777874	0.051967
H111	H	-0.621141	0.666150	0.044471
H112	H	-0.570122	0.718984	0.095961
H113	H	-0.570110	0.719017	0.000069
H114	H	-0.690245	0.774350	0.099684
H115	H	-0.690249	0.774377	0.003783
H116	H	0.009164	1.031570	0.708224
H117	H	0.100803	0.323422	0.224453
H118	H	0.009167	1.031583	0.865241
H119	H	0.196014	0.836123	0.852185
C120	C	0.099088	0.215629	0.304378
C121	C	0.098227	0.162038	0.235002
H122	H	0.098643	0.187632	0.353365
H123	H	0.055492	0.253912	0.303830
H124	H	0.143722	0.241679	0.302996
H125	H	0.053591	0.135992	0.236382
H126	H	0.141828	0.123741	0.235552
C127	C	0.285113	0.833252	0.267963
C128	C	0.210664	0.820729	0.246230
H129	H	0.320055	0.796698	0.236151
H130	H	0.292481	0.825545	0.325177
H131	H	0.293296	0.886004	0.257287
H132	H	0.202479	0.767979	0.256912
H133	H	0.203293	0.828430	0.189003
C134	C	-0.307345	0.779370	-0.018594
C135	C	-0.262514	0.784517	0.052427
H136	H	-0.327957	0.730031	-0.021888
H137	H	-0.276921	0.782880	-0.066298
H138	H	-0.347568	0.821702	-0.015754
H139	H	-0.222288	0.742188	0.049584
H140	H	-0.292940	0.780998	0.100143
