data_functionalizedCrystal
_audit_creation_method	'MofGen! by Chris Wilmer'
_symmetry_space_group_name_H-M	'P1'
_symmetry_Int_Tables_number	1
_symmetry_cell_setting	triclinic
loop_
_symmetry_equiv_pos_as_xyz
  x,y,z
_cell_length_a	14.044209
_cell_length_b	14.519709
_cell_length_c	13.596369
_cell_angle_alpha	89.999684
_cell_angle_beta	89.997124
_cell_angle_gamma	88.434049
loop_
_atom_site_label
_atom_site_type_symbol
_atom_site_fract_x
_atom_site_fract_y
_atom_site_fract_z
O1	O	-0.124265	-1.233892	0.081669
O2	O	0.375735	-0.733892	0.581669
O3	O	-0.138899	-0.966596	0.081700
O4	O	0.361101	-0.466596	0.581700
O5	O	0.006409	-1.096233	0.081671
O6	O	0.506409	-0.596233	0.581671
O7	O	-0.269574	-1.104255	0.081698
O8	O	0.230426	-0.604255	0.581698
O9	O	0.006401	-1.096216	-0.081912
O10	O	0.506401	-0.596216	0.418088
O11	O	-0.138907	-0.966579	-0.081883
O12	O	0.361093	-0.466579	0.418117
O13	O	-0.124273	-1.233876	-0.081914
O14	O	0.375727	-0.733876	0.418086
Zn15	Zn	-0.131591	-1.100225	-0.107871
Zn16	Zn	0.368409	-0.600225	0.392129
Zn17	Zn	-0.131581	-1.100247	0.107657
Zn18	Zn	0.368419	-0.600247	0.607657
O19	O	-0.269582	-1.104238	-0.081885
O20	O	0.230418	-0.604238	0.418115
C21	C	0.041726	-1.092712	-0.000122
C22	C	0.541726	-0.592712	0.499878
C23	C	0.146969	-1.082236	-0.000125
C24	C	0.646969	-0.582236	0.499875
C25	C	-0.138221	-0.932173	-0.000088
C26	C	0.361779	-0.432173	0.499912
C27	C	-0.136178	-0.829626	-0.000077
C28	C	0.363822	-0.329626	0.499923
C29	C	-0.124951	-1.268299	-0.000124
C30	C	0.375049	-0.768299	0.499876
C31	C	-0.126995	-1.370845	-0.000129
C32	C	0.373005	-0.870845	0.499871
C33	C	0.339664	-1.063083	-0.000115
C34	C	0.839664	-0.563083	0.499885
C35	C	0.397171	-1.137392	-0.000122
C36	C	0.897171	-0.637392	0.499878
C37	C	0.504392	-1.126735	-0.000116
C38	C	1.004392	-0.626735	0.499884
C39	C	0.232432	-1.073739	-0.000120
C40	C	0.732432	-0.573739	0.499880
C41	C	0.695102	-1.107761	-0.000098
C42	C	1.195102	-0.607761	0.499902
C43	C	0.589859	-1.118243	-0.000112
C44	C	1.089859	-0.618243	0.499888
C45	C	-0.128654	-0.454124	-0.000122
C46	C	0.371346	0.045876	0.499878
C47	C	-0.130743	-0.558600	-0.000109
C48	C	0.369257	-0.058600	0.499891
C49	C	-0.132415	-0.641872	-0.000099
C50	C	0.367585	-0.141872	0.499901
C51	C	-0.134505	-0.746355	-0.000087
C52	C	0.365495	-0.246355	0.499913
N53	N	-0.131598	-1.100216	-0.254963
N54	N	0.368402	-0.600216	0.245037
C55	C	-0.131600	-1.100221	-0.343961
C56	C	0.368400	-0.600221	0.156039
C57	C	-0.131594	-1.100229	-0.455612
C58	C	0.368406	-0.600229	0.044388
C59	C	-0.131583	-1.100241	-0.544603
C60	C	0.368417	-0.600241	-0.044603
C61	C	-0.131577	-1.100251	-0.656261
C62	C	0.368423	-0.600251	-0.156261
N63	N	-0.131567	-1.100262	0.254748
N64	N	0.368433	-0.600262	0.754748
H65	H	0.365878	-1.209013	-0.000063
H66	H	0.865878	-0.709013	0.499937
C67	C	0.381937	-0.966332	-0.000118
C68	C	0.881937	-0.466332	0.499882
N69	N	0.413788	-0.893460	-0.000128
N70	N	0.913788	-0.393460	0.499872
