data_functionalizedCrystal
_audit_creation_method	'MofGen! by Chris Wilmer'
_symmetry_space_group_name_H-M	'P1'
_symmetry_Int_Tables_number	1
_symmetry_cell_setting	triclinic
loop_
_symmetry_equiv_pos_as_xyz
  x,y,z
_cell_length_a	17.038272
_cell_length_b	19.188924
_cell_length_c	16.098547
_cell_angle_alpha	92.711652
_cell_angle_beta	87.069359
_cell_angle_gamma	87.126761
loop_
_atom_site_label
_atom_site_type_symbol
_atom_site_fract_x
_atom_site_fract_y
_atom_site_fract_z
O1	O	1.040395	0.148678	-0.069158
O2	O	0.812773	0.146270	-0.069183
O3	O	0.933155	0.046226	-0.069160
O4	O	0.920013	0.248721	-0.069181
O5	O	0.926122	0.052046	0.069352
O6	O	0.805740	0.152090	0.069329
O7	O	1.033362	0.154498	0.069353
Zn8	Zn	0.918435	0.154218	0.091333
Zn9	Zn	0.927701	0.146550	-0.091162
O10	O	0.912980	0.254541	0.069330
C11	C	0.780136	0.146990	0.000070
C12	C	0.693364	0.140458	0.000061
C13	C	0.643061	0.200425	0.000056
C14	C	0.561529	0.194284	0.000068
C15	C	0.530302	0.128176	0.000079
C16	C	0.580611	0.068206	0.000087
C17	C	0.662141	0.074347	0.000081
C18	C	0.284611	0.106479	0.000104
C19	C	0.203075	0.100342	0.000108
C20	C	0.183998	0.226421	0.000089
C21	C	0.265531	0.232557	0.000078
C22	C	0.315833	0.172586	0.000091
C23	C	0.446964	0.121898	0.000089
C24	C	0.399169	0.178866	0.000087
C25	C	0.929214	0.023099	0.000096
C26	C	0.927939	-0.054485	0.000099
C27	C	0.931178	-0.094093	-0.075404
C28	C	0.929969	-0.166991	-0.075411
C29	C	0.925537	-0.200279	0.000090
C30	C	0.922293	-0.160661	0.075603
C31	C	0.923494	-0.087764	0.075607
N32	N	0.965281	-0.314935	0.056288
N33	N	0.964142	-0.384184	0.056279
C34	C	0.921917	-0.419914	0.000082
N35	N	0.880884	-0.383779	-0.056119
N36	N	0.882026	-0.314523	-0.056112
C37	C	0.924234	-0.279323	0.000094
C38	C	0.923844	-0.538567	-0.075434
C39	C	0.922630	-0.611466	-0.075437
C40	C	0.914962	-0.605134	0.075579
C41	C	0.916168	-0.532236	0.075580
C42	C	0.920613	-0.498957	0.000071
C43	C	1.066000	0.153777	0.000099
C44	C	1.152772	0.160308	0.000102
C45	C	0.916922	0.277668	0.000072
C46	C	0.918197	0.355252	0.000065
N47	N	0.912116	0.159451	0.215881
C48	C	0.963230	0.117006	0.259475
C49	C	0.958817	0.120674	0.346664
C50	C	0.903294	0.166791	0.390255
C51	C	0.852176	0.209237	0.346655
C52	C	0.856585	0.205565	0.259468
C53	C	0.887310	0.180090	0.653502
C54	C	0.882906	0.183760	0.740695
C55	C	0.989546	0.095195	0.740698
C56	C	0.993954	0.091530	0.653510
C57	C	0.942833	0.133974	0.609917
C58	C	0.898784	0.170543	0.479376
C59	C	0.947340	0.130218	0.520798
N60	N	0.934019	0.141315	0.784290
H61	H	0.424597	0.232691	0.000082
C62	C	0.914605	-0.417680	0.142636
C63	C	0.912617	-0.488693	0.158576
H64	H	0.912405	-0.390800	0.193878
H65	H	0.961948	-0.409657	0.111625
H66	H	0.870801	-0.404423	0.111607
H67	H	0.956425	-0.501952	0.189600
H68	H	0.865269	-0.496721	0.189601
H69	H	0.290950	0.286388	0.000059
C70	C	1.098914	0.004348	0.662274
C71	C	1.054982	0.040832	0.605596
H72	H	1.136587	-0.026952	0.632692
H73	H	1.125209	0.036521	0.696266
H74	H	1.064736	-0.021277	0.696293
H75	H	1.089159	0.066462	0.571581
H76	H	1.028686	0.008655	0.571590
H77	H	0.925264	-0.643714	-0.136923
H78	H	0.143034	0.275246	0.000081
C79	C	0.462380	0.257521	-0.071147
C80	C	0.506237	0.260202	0.000053
H81	H	0.428243	0.298217	-0.071152
H82	H	0.497028	0.255262	-0.119441
H83	H	0.432115	0.217271	-0.071124
H84	H	0.536507	0.300450	0.000027
H85	H	0.471585	0.262468	0.048360
C86	C	0.917055	-0.269598	0.142648
C87	C	0.917421	-0.197248	0.158595
H88	H	0.914048	-0.292183	0.193887
H89	H	0.872865	-0.280223	0.111621
H90	H	0.964012	-0.285455	0.111631
H91	H	0.870461	-0.181390	0.189607
H92	H	0.961616	-0.186618	0.189635
C93	C	0.860638	0.281882	0.838716
C94	C	0.821866	0.234455	0.788608
H95	H	0.822956	0.313179	0.868289
H96	H	0.890443	0.257131	0.877156
H97	H	0.894802	0.307507	0.804681
H98	H	0.787707	0.208825	0.822643
H99	H	0.792047	0.259208	0.750163
C100	C	0.781466	0.268006	0.662269
C101	C	0.831124	0.226750	0.605592
H102	H	0.746782	0.296816	0.632687
H103	H	0.751734	0.238696	0.696285
H104	H	0.812207	0.296494	0.696265
H105	H	0.800383	0.198258	0.571601
H106	H	0.860859	0.256063	0.571562
H107	H	0.927458	-0.511469	-0.136917
H108	H	0.177654	0.046507	0.000116
C109	C	0.909687	-0.714063	0.142626
C110	C	0.910068	-0.641714	0.158572
H111	H	0.906661	-0.736647	0.193865
H112	H	0.865502	-0.724680	0.111587
H113	H	0.956648	-0.729930	0.111622
H114	H	0.863104	-0.625847	0.189571
H115	H	0.954257	-0.631093	0.189625
H116	H	1.000437	0.086111	0.382158
H117	H	1.008445	0.079456	0.223989
H118	H	1.031166	0.060638	0.776199
C119	C	0.798071	0.254197	0.480302
C120	C	0.791145	0.259932	0.394569
H121	H	0.760396	0.285499	0.509879
H122	H	0.789020	0.207708	0.494601
H123	H	0.849493	0.265506	0.494571
H124	H	0.739725	0.248618	0.380300
H125	H	0.800191	0.306432	0.380264
H126	H	0.814962	0.240128	0.223974
H127	H	0.934794	-0.067002	-0.136889
H128	H	0.992544	0.092667	0.485303
H129	H	0.325558	0.057647	0.000115
H130	H	0.853578	0.208093	0.514875
H131	H	0.668479	0.254257	0.000045
H132	H	0.555179	0.014379	0.000109
H133	H	0.703098	0.025516	0.000085
H134	H	0.421529	0.068073	0.000122
H135	H	0.932601	-0.199247	-0.136896
H136	H	0.920854	-0.055515	0.137093
