data_functionalizedCrystal
_audit_creation_method	'MofGen! by Chris Wilmer'
_symmetry_space_group_name_H-M	'P1'
_symmetry_Int_Tables_number	1
_symmetry_cell_setting	triclinic
loop_
_symmetry_equiv_pos_as_xyz
  x,y,z
_cell_length_a	11.169417
_cell_length_b	29.839131
_cell_length_c	11.169409
_cell_angle_alpha	89.959881
_cell_angle_beta	89.980487
_cell_angle_gamma	90.042670
loop_
_atom_site_label
_atom_site_type_symbol
_atom_site_fract_x
_atom_site_fract_y
_atom_site_fract_z
Zn1	Zn	1.834703	-0.178802	-0.678468
Zn2	Zn	1.834484	-0.253943	-0.477757
Zn3	Zn	1.633989	-0.178830	-0.477803
Zn4	Zn	1.633888	-0.253907	-0.678403
O5	O	1.734266	-0.216371	-0.578108
O6	O	2.002624	-0.188773	-0.651851
O7	O	1.807838	-0.244006	-0.309814
O8	O	1.660748	-0.115959	-0.504468
O9	O	2.002462	-0.243979	-0.504390
O10	O	1.808212	-0.115939	-0.651895
O11	O	1.660536	-0.188821	-0.309847
O12	O	1.466026	-0.188786	-0.504406
O13	O	1.660576	-0.243918	-0.846362
O14	O	1.465951	-0.243945	-0.651786
O15	O	1.808114	-0.188738	-0.846409
O16	O	1.807740	-0.316806	-0.504327
O17	O	1.660363	-0.316779	-0.651741
C18	C	1.422441	-0.216365	-0.578094
C19	C	1.289041	-0.216373	-0.578117
C20	C	1.734049	-0.333093	-0.578048
C21	C	1.734066	-0.383028	-0.578063
C22	C	1.811145	-0.692672	-0.501462
C23	C	1.811293	-0.880345	-0.501508
O24	O	1.876656	-0.904611	-0.436333
N25	N	1.734515	-0.903813	-0.578198
C26	C	1.657700	-0.880359	-0.654888
O27	O	1.592407	-0.904626	-0.720127
C28	C	1.657559	-0.692687	-0.654847
C29	C	1.734333	-0.669222	-0.578143
C30	C	1.887914	-0.669207	-0.424765
C31	C	1.887871	-0.622292	-0.424750
C32	C	1.811060	-0.598841	-0.501431
C33	C	1.734291	-0.622306	-0.578127
C34	C	1.580751	-0.669234	-0.731541
C35	C	1.580724	-0.622313	-0.731526
C36	C	1.657499	-0.598848	-0.654822
C37	C	1.657437	-0.551941	-0.654793
N38	N	1.734215	-0.528473	-0.578103
C39	C	1.811026	-0.551923	-0.501422
C40	C	1.657778	-0.978890	-0.654903
C41	C	1.657811	-1.025807	-0.654912
C42	C	1.811406	-1.025790	-0.501533
C43	C	1.811366	-0.978872	-0.501519
C44	C	1.734556	-0.955422	-0.578213
C45	C	1.810931	-0.453398	-0.501394
C46	C	1.810878	-0.406478	-0.501382
C47	C	1.657288	-0.406499	-0.654764
C48	C	1.657336	-0.453415	-0.654773
C49	C	1.734167	-0.476863	-0.578084
O50	O	1.592118	-0.527646	-0.719943
O51	O	1.876328	-0.527649	-0.436211
C52	C	1.811187	-0.739588	-0.501477
C53	C	1.734418	-0.763053	-0.578174
C54	C	1.657606	-0.739602	-0.654855
C55	C	1.734451	-0.809971	-0.578183
C56	C	1.811263	-0.833421	-0.501502
C57	C	1.888041	-0.809953	-0.424812
C58	C	1.887999	-0.763038	-0.424796
C59	C	1.580828	-0.763070	-0.731545
C60	C	1.580876	-0.809985	-0.731553
C61	C	1.657688	-0.833436	-0.654872
C62	C	2.047308	-0.216377	-0.578122
C63	C	2.180708	-0.216380	-0.578129
C64	C	1.734358	-0.216321	-0.891151
C65	C	1.734397	-0.216300	-1.024551
C66	C	1.734516	-0.099192	-0.578194
C67	C	1.734623	-0.049258	-0.578231
C68	C	1.734243	-0.216388	-0.266283
C69	C	1.734436	-0.216283	-0.132884
H70	H	1.873397	-0.387374	-0.438917
C71	C	1.895433	-0.479184	-0.417030
H72	H	1.941134	-0.458484	-0.371347
H73	H	1.947728	-0.497453	-0.462975
H74	H	1.849556	-0.497518	-0.364695
C75	C	1.895894	-1.051591	-0.417183
H76	H	1.884915	-1.082894	-0.428185
H77	H	1.878373	-1.043934	-0.336524
H78	H	1.976525	-1.043870	-0.434825
H79	H	1.594745	-0.387399	-0.717194
H80	H	1.518178	-0.603223	-0.793983
H81	H	1.950580	-0.829055	-0.362372
H82	H	1.950391	-0.603189	-0.362295
H83	H	1.518346	-0.829087	-0.794014
C84	C	1.972407	-0.694995	-0.340402
H85	H	2.018109	-0.674295	-0.294724
H86	H	2.024700	-0.713267	-0.386342
H87	H	1.926527	-0.713327	-0.288063
C88	C	1.572885	-0.479227	-0.739142
H89	H	1.527138	-0.458539	-0.784812
H90	H	1.520632	-0.497569	-0.693204
H91	H	1.618801	-0.497491	-0.791488
C92	C	1.496321	-0.737281	-0.815889
H93	H	1.450599	-0.757980	-0.861551
H94	H	1.542171	-0.718941	-0.868225
H95	H	1.444029	-0.719016	-0.769915
H96	H	1.873882	-0.959769	-0.439061
C97	C	1.573352	-1.051614	-0.739278
H98	H	1.527614	-1.030924	-0.784950
H99	H	1.521092	-1.069951	-0.693336
H100	H	1.619257	-1.069882	-0.791622
C101	C	1.573268	-0.953101	-0.739258
H102	H	1.527544	-0.973801	-0.784916
H103	H	1.619122	-0.934764	-0.791597
H104	H	1.520979	-0.934834	-0.693288
H105	H	1.518227	-0.688331	-0.793996
H106	H	1.950516	-0.743936	-0.362337
