data_functionalizedCrystal
_audit_creation_method	'MofGen! by Chris Wilmer'
_symmetry_space_group_name_H-M	'P1'
_symmetry_Int_Tables_number	1
_symmetry_cell_setting	triclinic
loop_
_symmetry_equiv_pos_as_xyz
  x,y,z
_cell_length_a	13.032831
_cell_length_b	25.639239
_cell_length_c	25.639233
_cell_angle_alpha	89.981253
_cell_angle_beta	82.816861
_cell_angle_gamma	82.842759
loop_
_atom_site_label
_atom_site_type_symbol
_atom_site_fract_x
_atom_site_fract_y
_atom_site_fract_z
Zn1	Zn	1.597375	-0.309887	-0.396930
Zn2	Zn	1.597222	-0.397296	-0.309484
Zn3	Zn	1.422645	-0.298764	-0.298425
Zn4	Zn	1.422535	-0.386164	-0.385809
O5	O	1.509944	-0.348028	-0.347662
O6	O	1.743586	-0.330795	-0.394612
O7	O	1.574046	-0.384229	-0.234851
O8	O	1.445933	-0.227082	-0.311518
O9	O	1.743474	-0.395014	-0.330367
O10	O	1.574306	-0.235253	-0.383889
O11	O	1.445785	-0.311839	-0.226726
O12	O	1.276398	-0.301045	-0.300734
O13	O	1.445746	-0.376042	-0.460450
O14	O	1.276318	-0.365257	-0.364934
O15	O	1.574200	-0.320001	-0.468621
O16	O	1.573939	-0.468977	-0.319583
O17	O	1.445598	-0.460799	-0.375658
C18	C	1.238442	-0.330737	-0.330428
C19	C	1.122292	-0.323352	-0.323068
C20	C	1.070496	-0.351882	-0.351503
C21	C	0.950449	-0.344250	-0.343897
C22	C	1.509768	-0.483859	-0.347627
C23	C	1.509789	-0.541975	-0.347635
C24	C	1.576946	-0.906604	-0.318532
C25	C	1.576986	-0.961211	-0.318541
O26	O	1.633903	-0.993064	-0.293758
N27	N	1.510128	-0.984278	-0.347708
C28	C	1.443232	-0.952736	-0.376872
O29	O	1.386368	-0.977371	-0.401682
C30	C	1.443197	-0.898131	-0.376865
C31	C	1.510053	-0.875066	-0.347692
C32	C	1.643797	-0.883539	-0.289361
C33	C	1.643755	-0.828936	-0.289351
C34	C	1.576862	-0.797398	-0.318511
C35	C	1.510011	-0.820463	-0.347682
C36	C	1.376308	-0.866590	-0.406031
C37	C	1.376279	-0.811981	-0.406022
C38	C	1.443135	-0.788916	-0.376849
C39	C	1.443076	-0.734322	-0.376831
N40	N	1.509934	-0.711254	-0.347664
C41	C	1.576827	-0.742792	-0.318504
C42	C	1.443311	-1.067412	-0.376885
C43	C	1.443339	-1.122016	-0.376889
C44	C	1.577095	-1.130487	-0.318559
C45	C	1.577061	-1.075882	-0.318552
C46	C	1.510169	-1.044345	-0.347718
C47	C	1.576733	-0.628121	-0.318485
C48	C	1.576682	-0.573513	-0.318475
C49	C	1.442930	-0.565047	-0.376807
C50	C	1.442977	-0.619650	-0.376815
C51	C	1.509887	-0.651187	-0.347652
O52	O	1.386191	-0.702436	-0.401603
O53	O	1.633691	-0.718151	-0.293704
C54	C	1.782507	-0.365387	-0.364964
C55	C	1.898656	-0.372784	-0.372337
C56	C	1.509978	-0.348021	-0.484037
C57	C	1.509992	-0.348018	-0.542152
C58	C	1.510149	-0.211668	-0.347710
C59	C	1.510236	-0.153559	-0.347731
C60	C	1.576963	-0.318743	-0.906781
C61	C	1.576976	-0.318730	-0.961386
O62	O	1.633832	-0.293896	-0.993244
N63	N	1.510107	-0.347903	-0.984442
C64	C	1.443214	-0.377087	-0.952890
O65	O	1.386338	-0.401899	-0.977515
C66	C	1.443197	-0.377097	-0.898285
C67	C	1.510077	-0.347926	-0.875233
C68	C	1.643837	-0.289575	-0.883728
C69	C	1.643825	-0.289589	-0.829126
C70	C	1.576939	-0.318772	-0.797578
C71	C	1.510065	-0.347941	-0.820631
C72	C	1.376299	-0.406278	-0.866733
C73	C	1.376287	-0.406285	-0.812125
C74	C	1.443167	-0.377115	-0.789073
C75	C	1.443168	-0.377139	-0.734482
N76	N	1.510036	-0.347966	-0.711425
C77	C	1.576922	-0.318783	-0.742974
C78	C	1.443255	-0.377062	-1.067563
C79	C	1.443276	-0.377055	-1.122166
C80	C	1.577037	-0.318697	-1.130659
C81	C	1.577020	-0.318707	-1.076055
C82	C	1.510123	-0.347889	-1.044507
C83	C	1.576893	-0.318816	-0.628307
C84	C	1.576878	-0.318835	-0.573700
C85	C	1.443114	-0.377190	-0.565212
C86	C	1.443132	-0.377174	-0.619814
C87	C	1.510025	-0.347982	-0.651360
O88	O	1.386337	-0.401958	-0.702590
O89	O	1.633779	-0.293969	-0.718341
C90	C	1.509971	-0.348001	-0.211821
C91	C	1.510159	-0.347869	-0.153719
H92	H	0.905923	-0.314171	-0.313920
C93	C	1.193415	-0.367008	-0.429549
C94	C	1.130603	-0.392484	-0.391971
H95	H	1.230525	-0.392076	-0.454531
H96	H	1.150872	-0.341579	-0.446913
H97	H	1.241460	-0.350098	-0.412688
H98	H	1.082553	-0.409391	-0.408832
H99	H	1.173150	-0.417922	-0.374606
H100	H	1.077762	-0.293275	-0.293093
C101	C	1.754115	-1.158443	-0.304426
C102	C	1.650675	-1.165141	-0.286512
H103	H	1.799546	-1.179829	-0.284641
H104	H	1.769341	-1.168344	-0.340526
H105	H	1.763613	-1.122614	-0.300252
H106	H	1.641174	-1.200970	-0.290690
H107	H	1.635444	-1.155243	-0.250404
H108	H	1.388463	-0.539359	-0.400547
C109	C	1.709094	-0.261145	-0.587588
C110	C	1.650393	-0.286765	-0.548362
H111	H	1.754471	-0.241344	-0.571945
H112	H	1.749035	-0.286463	-0.611418
H113	H	1.663585	-0.238245	-0.605999
H114	H	1.695902	-0.309668	-0.529954
H115	H	1.610449	-0.261444	-0.524523
H116	H	1.631123	-0.554736	-0.294717
H117	H	1.388889	-1.140790	-0.400639
H118	H	1.321799	-0.430043	-0.786440
C119	C	1.302643	-0.375402	-0.997240
C120	C	1.369726	-0.409150	-1.032890
H121	H	1.257247	-0.395212	-0.975840
H122	H	1.342458	-0.358037	-0.975691
H123	H	1.262717	-0.350074	-1.016014
H124	H	1.409658	-0.434475	-1.014115
H125	H	1.329907	-0.426523	-1.054441
C126	C	1.021563	-0.387911	-0.450388
C127	C	0.958753	-0.413388	-0.412809
H128	H	1.058666	-0.412979	-0.475371
H129	H	0.979018	-0.362480	-0.467749
H130	H	1.069612	-0.371004	-0.433528
H131	H	0.910698	-0.430292	-0.429668
H132	H	1.001301	-0.438828	-0.395446
C133	C	1.708929	-0.630994	-0.260820
C134	C	1.650273	-0.662780	-0.286425
H135	H	1.754320	-0.652391	-0.241024
H136	H	1.748853	-0.612209	-0.286149
H137	H	1.663392	-0.606829	-0.237915
H138	H	1.695810	-0.686943	-0.309332
H139	H	1.610347	-0.681574	-0.261093
C140	C	1.591555	-0.249391	-0.690635
C141	C	1.650425	-0.286730	-0.662976
H142	H	1.636956	-0.229583	-0.712036
H143	H	1.551746	-0.266759	-0.712185
H144	H	1.546051	-0.226502	-0.666441
H145	H	1.695924	-0.309621	-0.687170
H146	H	1.690252	-0.269361	-0.641425
H147	H	1.698197	-0.810160	-0.265598
H148	H	1.698275	-0.909213	-0.265616
C149	C	1.591645	-1.015430	-0.249144
C150	C	1.650554	-1.050532	-0.286487
H151	H	1.637021	-0.999786	-0.229347
H152	H	1.551818	-0.988831	-0.266511
H153	H	1.546155	-1.033872	-0.226244
H154	H	1.696038	-1.032090	-0.309390
H155	H	1.690398	-1.077135	-0.269120
C156	C	1.311091	-1.064531	-0.434537
C157	C	1.369763	-1.032747	-0.408939
H158	H	1.265684	-1.043132	-0.454323
H159	H	1.356609	-1.088692	-0.457445
H160	H	1.271174	-1.083319	-0.409200
H161	H	1.409686	-1.013963	-0.434277
H162	H	1.324239	-1.008577	-0.386030
C163	C	1.591623	-0.249315	-1.015590
C164	C	1.650525	-0.286636	-1.050717
H165	H	1.637004	-0.229516	-0.999949
H166	H	1.546136	-0.226421	-1.034010
H167	H	1.551794	-0.266701	-0.988984
H168	H	1.690348	-0.269251	-1.077326
H169	H	1.696029	-0.309534	-1.032297
C170	C	1.244120	-0.852710	-0.463697
C171	C	1.302823	-0.891933	-0.438104
H172	H	1.198758	-0.868357	-0.483502
H173	H	1.204165	-0.828903	-0.438362
H174	H	1.289629	-0.834275	-0.486593
H175	H	1.257314	-0.910366	-0.415205
H176	H	1.342782	-0.915749	-0.463443
H177	H	1.321809	-0.786306	-0.429774
C178	C	1.310767	-0.605789	-0.434474
C179	C	1.369489	-0.645006	-0.408882
H180	H	1.265410	-0.621442	-0.454276
H181	H	1.270805	-0.581986	-0.409137
H182	H	1.356265	-0.587349	-0.457371
H183	H	1.323992	-0.663444	-0.385981
H184	H	1.409455	-0.668819	-0.434221
C185	C	1.776027	-0.231899	-0.843022
C186	C	1.717330	-0.257516	-0.803791
H187	H	1.821400	-0.212094	-0.827382
H188	H	1.815970	-0.257219	-0.866849
H189	H	1.730514	-0.209003	-0.861435
H190	H	1.762843	-0.280415	-0.785381
H191	H	1.677384	-0.232193	-0.779955
C192	C	1.784435	-0.291246	-0.954053
C193	C	1.717363	-0.257493	-0.918403
H194	H	1.829827	-0.271439	-0.975459
H195	H	1.824358	-0.316570	-0.935282
H196	H	1.744605	-0.308612	-0.975600
H197	H	1.757192	-0.240129	-0.896854
H198	H	1.677436	-0.232159	-0.937176
C199	C	1.361672	-0.475676	-0.927183
C200	C	1.302784	-0.438350	-0.892058
H201	H	1.316282	-0.495481	-0.942812
H202	H	1.401486	-0.458299	-0.953794
H203	H	1.407172	-0.498570	-0.908761
H204	H	1.257289	-0.415454	-0.910480
H205	H	1.262952	-0.455728	-0.865442
H206	H	1.631497	-0.294933	-1.156356
H207	H	1.388827	-0.400815	-1.140932
C208	C	1.428507	-0.446555	-0.680296
C209	C	1.369621	-0.409238	-0.645159
H210	H	1.383115	-0.466348	-0.695937
H211	H	1.468331	-0.429170	-0.706897
H212	H	1.473997	-0.469460	-0.661880
H213	H	1.324136	-0.386330	-0.663576
H214	H	1.329779	-0.426624	-0.618554
H215	H	1.388661	-0.400952	-0.539516
