data_functionalizedCrystal
_audit_creation_method	'MofGen! by Chris Wilmer'
_symmetry_space_group_name_H-M	'P1'
_symmetry_Int_Tables_number	1
_symmetry_cell_setting	triclinic
loop_
_symmetry_equiv_pos_as_xyz
  x,y,z
_cell_length_a	19.188930
_cell_length_b	19.188930
_cell_length_c	7.540329
_cell_angle_alpha	89.991297
_cell_angle_beta	89.983165
_cell_angle_gamma	83.144779
loop_
_atom_site_label
_atom_site_type_symbol
_atom_site_fract_x
_atom_site_fract_y
_atom_site_fract_z
O1	O	0.926143	0.087167	-0.148072
O2	O	1.259477	0.420500	0.185261
O3	O	1.592810	0.753833	0.518594
O4	O	0.722832	0.098901	-0.147953
O5	O	1.056165	0.432234	0.185380
O6	O	1.389499	0.765568	0.518713
O7	O	0.830355	-0.008622	-0.147982
O8	O	1.163688	0.324711	0.185352
O9	O	1.497022	0.658045	0.518685
O10	O	0.818621	0.194689	-0.148044
O11	O	1.151954	0.528023	0.185289
O12	O	1.485287	0.861356	0.518623
O13	O	0.830348	-0.008623	0.146983
O14	O	1.163682	0.324710	0.480317
O15	O	1.497015	0.658043	0.813650
O16	O	0.722826	0.098900	0.147012
O17	O	1.056159	0.432233	0.480345
O18	O	1.389492	0.765566	0.813678
O19	O	0.926137	0.087165	0.146893
O20	O	1.259470	0.420499	0.480226
O21	O	1.592804	0.753832	0.813559
Cu22	Cu	0.824481	0.093032	0.173885
Cu23	Cu	1.157814	0.426366	0.507218
Cu24	Cu	1.491147	0.759699	0.840552
Cu25	Cu	0.824488	0.093034	-0.174946
Cu26	Cu	1.157822	0.426367	0.158388
Cu27	Cu	1.491155	0.759701	0.491721
O28	O	0.818614	0.194688	0.146921
O29	O	1.151948	0.528021	0.480254
O30	O	1.485281	0.861355	0.813588
C31	C	0.829972	-0.034634	-0.000494
C32	C	1.163305	0.298700	0.332840
C33	C	1.496638	0.632033	0.666173
C34	C	0.828831	-0.112138	-0.000478
C35	C	1.162164	0.221195	0.332855
C36	C	1.495498	0.554529	0.666189
C37	C	0.696818	0.098520	-0.000455
C38	C	1.030151	0.431854	0.332878
C39	C	1.363485	0.765187	0.666212
C40	C	0.619313	0.097380	-0.000408
C41	C	0.952647	0.430713	0.332925
C42	C	1.285980	0.764046	0.666258
C43	C	0.891922	-0.157062	-0.000506
C44	C	1.225255	0.176271	0.332827
C45	C	1.558588	0.509605	0.666160
C46	C	0.890850	-0.229886	-0.000534
C47	C	1.224184	0.103448	0.332799
C48	C	1.557517	0.436781	0.666133
C49	C	0.826684	-0.257782	-0.000498
C50	C	1.160017	0.075551	0.332836
C51	C	1.493351	0.408884	0.666169
C52	C	0.763585	-0.212849	-0.000479
C53	C	1.096918	0.120485	0.332854
C54	C	1.430252	0.453818	0.666187
C55	C	0.764658	-0.140026	-0.000469
C56	C	1.097992	0.193307	0.332864
C57	C	1.431325	0.526640	0.666197
N58	N	0.777635	-0.365788	0.099913
N59	N	1.110968	-0.032454	0.433246
N60	N	1.444301	0.300879	0.766580
N61	N	0.776619	-0.434966	0.099907
N62	N	1.109952	-0.101633	0.433241
N63	N	1.443286	0.231700	0.766574
C64	C	0.823446	-0.477191	-0.000532
C65	C	1.156779	-0.143858	0.332802
C66	C	1.490113	0.189476	0.666135
N67	N	0.871337	-0.447625	-0.100943
N68	N	1.204671	-0.114292	0.232390
N69	N	1.538004	0.219042	0.565724
N70	N	0.872355	-0.378440	-0.100929
N71	N	1.205688	-0.045107	0.232404
N72	N	1.539021	0.288226	0.565737
C73	C	0.825513	-0.336745	-0.000510
C74	C	1.158846	-0.003412	0.332824
C75	C	1.492180	0.329922	0.666157
C76	C	0.885379	-0.601079	-0.000593
C77	C	1.218712	-0.267746	0.332740
C78	C	1.552046	0.065587	0.666074
C79	C	0.884305	-0.673904	-0.000632
C80	C	1.217638	-0.340571	0.332702
C81	C	1.550971	-0.007238	0.666035
C82	C	0.757038	-0.656865	-0.000559
C83	C	1.090371	-0.323532	0.332774
C84	C	1.423704	0.009801	0.666108
C85	C	0.758114	-0.584042	-0.000538
C86	C	1.091447	-0.250709	0.332795
C87	C	1.424781	0.082624	0.666128
C88	C	0.822286	-0.556154	-0.000547
C89	C	1.155620	-0.222821	0.332787
C90	C	1.488953	0.110513	0.666120
C91	C	0.574389	0.160470	-0.000455
C92	C	0.907723	0.493804	0.332878
C93	C	1.241056	0.827137	0.666211
C94	C	0.501566	0.159399	-0.000475
C95	C	0.834899	0.492732	0.332859
C96	C	1.168232	0.826065	0.666192
C97	C	0.473669	0.095233	-0.000482
C98	C	0.807002	0.428566	0.332851
C99	C	1.140336	0.761899	0.666184
C100	C	0.518603	0.032133	-0.000425
C101	C	0.851936	0.365467	0.332908
C102	C	1.185270	0.698800	0.666242
C103	C	0.591425	0.033207	-0.000388
C104	C	0.924758	0.366540	0.332945
C105	C	1.258092	0.699874	0.666279
N106	N	0.365691	0.046186	-0.100928
N107	N	0.699024	0.379519	0.232405
N108	N	1.032358	0.712853	0.565739
N109	N	0.296512	0.045171	-0.100967
N110	N	0.629846	0.378504	0.232366
N111	N	0.963179	0.711837	0.565700
C112	C	0.254260	0.091994	-0.000590
C113	C	0.587594	0.425328	0.332744
C114	C	0.920927	0.758661	0.666077
N115	N	0.283799	0.139883	0.099806
N116	N	0.617132	0.473216	0.433139
N117	N	0.950466	0.806549	0.766472
N118	N	0.352984	0.140900	0.099837
N119	N	0.686317	0.474234	0.433170
N120	N	1.019650	0.807567	0.766503
C121	C	0.394707	0.094062	-0.000521
C122	C	0.728040	0.427395	0.332812
C123	C	1.061373	0.760728	0.666146
C124	C	0.130372	0.153928	-0.000655
C125	C	0.463705	0.487261	0.332678
C126	C	0.797039	0.820594	0.666012
C127	C	0.057547	0.152853	-0.000663
C128	C	0.390881	0.486187	0.332670
C129	C	0.724214	0.819520	0.666003
C130	C	0.074586	0.025586	-0.000632
C131	C	0.407919	0.358920	0.332702
C132	C	0.741253	0.692253	0.666035
C133	C	0.147409	0.026662	-0.000605
C134	C	0.480743	0.359996	0.332728
C135	C	0.814076	0.693329	0.666061
C136	C	0.175298	0.090835	-0.000626
C137	C	0.508631	0.424168	0.332708
C138	C	0.841964	0.757502	0.666041
C139	C	0.952151	0.087546	-0.000609
C140	C	1.285485	0.420879	0.332724
C141	C	1.618818	0.754213	0.666057
C142	C	1.029656	0.088687	-0.000668
C143	C	1.362989	0.422020	0.332665
C144	C	1.696322	0.755353	0.665999
C145	C	0.818997	0.220700	-0.000571
C146	C	1.152331	0.554033	0.332763
C147	C	1.485664	0.887366	0.666096
C148	C	0.820138	0.298204	-0.000598
C149	C	1.153471	0.631538	0.332735
C150	C	1.486805	0.964871	0.666068
N151	N	0.824481	0.093031	0.419233
N152	N	1.157814	0.426364	0.752567
N153	N	1.491147	0.759697	1.085900
N154	N	0.824494	0.093030	-0.420294
N155	N	1.157827	0.426363	-0.086961
N156	N	1.491161	0.759696	0.246373
H157	H	0.944176	-0.134360	-0.000519
H158	H	1.277509	0.198973	0.332814
H159	H	1.610843	0.532306	0.666147
H160	H	0.153080	0.206181	-0.000646
H161	H	0.486413	0.539514	0.332688
H162	H	0.819746	0.872847	0.666021
H163	H	0.713281	-0.103449	-0.000446
H164	H	1.046614	0.229885	0.332888
H165	H	1.379947	0.563218	0.666221
H166	H	0.464982	0.210776	-0.000508
H167	H	0.798315	0.544110	0.332825
H168	H	1.131648	0.877443	0.666159
H169	H	0.937632	-0.578372	-0.000608
H170	H	1.270966	-0.245038	0.332725
H171	H	1.604299	0.088295	0.666059
H172	H	0.935683	-0.710481	-0.000665
H173	H	1.269016	-0.377148	0.332669
H174	H	1.602350	-0.043815	0.666002
H175	H	0.704792	-0.679578	-0.000538
H176	H	1.038126	-0.346245	0.332795
H177	H	1.371459	-0.012911	0.666128
H178	H	0.051874	-0.026659	-0.000748
H179	H	0.385207	0.306674	0.332586
H180	H	0.718540	0.640008	0.665919
H181	H	0.942228	-0.266470	-0.000564
H182	H	1.275561	0.066863	0.332769
H183	H	1.608895	0.400197	0.666102
H184	H	0.711340	-0.235567	-0.000454
H185	H	1.044674	0.097767	0.332880
H186	H	1.378007	0.431100	0.666213
H187	H	0.706738	-0.547464	-0.000505
H188	H	1.040072	-0.214131	0.332828
H189	H	1.373405	0.119203	0.666162
H190	H	0.495885	-0.020111	-0.000455
H191	H	0.829218	0.313222	0.332878
H192	H	1.162551	0.646556	0.666211
H193	H	0.597091	0.212725	-0.000475
H194	H	0.930424	0.546058	0.332858
H195	H	1.263758	0.879391	0.666191
H196	H	0.628003	-0.018171	-0.000351
H197	H	0.961336	0.315162	0.332983
H198	H	1.294670	0.648496	0.666316
H199	H	0.020970	0.204232	-0.000692
H200	H	0.354303	0.537565	0.332642
H201	H	0.687637	0.870898	0.665975
H202	H	0.183988	-0.024713	-0.000577
H203	H	0.517321	0.308620	0.332757
H204	H	0.850654	0.641954	0.666090
