data_functionalizedCrystal
_audit_creation_method	'MofGen! by Chris Wilmer'
_symmetry_space_group_name_H-M	'P1'
_symmetry_Int_Tables_number	1
_symmetry_cell_setting	triclinic
loop_
_symmetry_equiv_pos_as_xyz
  x,y,z
_cell_length_a	24.447405
_cell_length_b	24.446649
_cell_length_c	24.443239
_cell_angle_alpha	60.006064
_cell_angle_beta	60.011844
_cell_angle_gamma	59.992812
loop_
_atom_site_label
_atom_site_type_symbol
_atom_site_fract_x
_atom_site_fract_y
_atom_site_fract_z
O1	O	0.075907	-0.799232	0.668277
O2	O	0.028634	-0.622262	0.538455
O3	O	0.140702	-0.734230	0.538349
O4	O	-0.036160	-0.687265	0.668384
O5	O	0.177886	-0.697056	0.575424
O6	O	0.065818	-0.585088	0.575530
O7	O	0.113091	-0.762059	0.705353
Cu8	Cu	0.092850	-0.670179	0.643827
Cu9	Cu	0.048876	-0.714142	0.599981
O10	O	0.001024	-0.650091	0.705459
N11	N	0.123780	-0.639263	0.674669
N12	N	0.017951	-0.745064	0.569139
C13	C	0.170236	-0.489965	0.721065
C14	C	0.170249	-0.592837	0.721058
C15	C	0.195989	-0.567121	0.746758
C16	C	0.308182	-0.547773	0.687664
C17	C	0.378316	-0.571143	0.664253
C18	C	0.378353	-0.684626	0.707525
C19	C	0.308220	-0.661254	0.730938
C20	C	0.187125	-0.454882	0.652117
C21	C	0.163710	-0.384741	0.628763
C22	C	0.106523	-0.384772	0.743308
C23	C	0.129938	-0.454913	0.766662
C24	C	0.101291	-0.575906	0.738041
C25	C	0.077897	-0.599283	0.714670
C26	C	0.192412	-0.656523	0.657348
C27	C	0.215809	-0.633146	0.680711
C28	C	0.101393	-0.575928	0.859014
C29	C	0.078071	-0.599328	0.929152
C30	C	0.192636	-0.656582	0.929078
C31	C	0.215955	-0.633184	0.858938
C32	C	0.170332	-0.592855	0.823908
C33	C	0.273137	-0.592827	0.721004
C34	C	-0.131205	-0.791294	0.522327
C35	C	-0.028388	-0.791420	0.522551
C36	C	-0.054056	-0.817099	0.496741
C37	C	-0.073479	-0.929255	0.555734
C38	C	-0.050156	-0.999396	0.579142
C39	C	0.063326	-0.999525	0.536064
C40	C	0.040001	-0.929386	0.512654
C41	C	-0.166365	-0.808188	0.591256
C42	C	-0.236499	-0.784726	0.614512
C43	C	-0.236309	-0.727482	0.499907
C44	C	-0.166175	-0.750944	0.476651
C45	C	-0.045285	-0.722468	0.505590
C46	C	-0.021951	-0.699130	0.529061
C47	C	0.035176	-0.813691	0.586439
C48	C	0.011842	-0.837031	0.562976
C49	C	-0.045097	-0.722476	0.384488
C50	C	-0.021613	-0.699140	0.314350
C51	C	0.035607	-0.813706	0.314419
C52	C	0.012124	-0.837041	0.384558
C53	C	-0.028229	-0.791425	0.419591
C54	C	-0.028402	-0.894253	0.522492
N55	N	0.412405	-0.639229	0.674505
O56	O	0.626552	-0.645384	0.514503
O57	O	0.626802	-0.775625	0.691288
O58	O	0.626698	-0.775326	0.579168
O59	O	0.626656	-0.645683	0.626623
O60	O	0.515277	-0.738265	0.616407
O61	O	0.515382	-0.738564	0.728527
O62	O	0.515131	-0.608323	0.551742
Cu63	Cu	0.505083	-0.670059	0.643535
Cu64	Cu	0.636850	-0.713889	0.599495
O65	O	0.515236	-0.608622	0.663862
N66	N	0.729529	-0.744719	0.568518
N67	N	0.123755	-0.350686	0.674680
O68	O	-0.036153	-0.136410	0.668391
O69	O	0.140633	-0.136380	0.538141
O70	O	0.028472	-0.136412	0.538488
O71	O	0.076007	-0.136377	0.668044
O72	O	0.065663	-0.247842	0.575621
O73	O	0.177823	-0.247810	0.575274
O74	O	0.001037	-0.247840	0.705524
Cu75	Cu	0.092826	-0.258000	0.643789
Cu76	Cu	0.048844	-0.126220	0.599875
O77	O	0.113198	-0.247808	0.705177
N78	N	0.017907	-0.033534	0.568986
N79	N	0.124013	-0.639306	0.963182
O80	O	0.117754	-0.799195	1.177439
O81	O	-0.012458	-0.622342	1.177485
O82	O	-0.012155	-0.734480	1.177444
O83	O	0.117450	-0.687057	1.177480
O84	O	0.024954	-0.697317	1.066020
O85	O	0.024650	-0.585179	1.066061
O86	O	0.154862	-0.762032	1.066014
Cu87	Cu	0.093145	-0.670212	1.055863
Cu88	Cu	0.049259	-0.714162	1.187636
O89	O	0.154559	-0.649894	1.066055
N90	N	0.018389	-0.745075	1.280318
C91	C	0.042795	-0.581375	0.539107
C92	C	0.181576	-0.720034	0.538975
C93	C	0.098930	-0.802946	0.704700
C94	C	-0.039851	-0.664287	0.704832
C95	C	0.571122	-0.775030	0.732180
C96	C	0.570995	-0.774660	0.593332
C97	C	0.570808	-0.608917	0.510851
C98	C	0.570939	-0.609288	0.649698
C99	C	0.181453	-0.191954	0.538725
C100	C	0.042602	-0.192131	0.539201
C101	C	-0.039829	-0.192128	0.704893
C102	C	0.099069	-0.192090	0.704464
C103	C	-0.011836	-0.581480	1.121779
C104	C	-0.011453	-0.720342	1.121706
C105	C	0.154240	-0.802894	1.121720
C106	C	0.153865	-0.664024	1.121769
H107	H	0.064236	-0.543084	0.830495
H108	H	0.570727	-0.568026	0.460082
H109	H	0.571186	-0.815915	0.782955
H110	H	0.570930	-0.568565	0.659852
H111	H	0.032420	-0.192135	0.498498
H112	H	-0.090599	-0.192138	0.745784
O113	O	0.202380	-0.651803	1.121742
C114	C	0.177969	-0.585948	1.121778
H115	H	0.134952	-0.554244	1.100691
H116	H	0.159299	-0.586939	1.175239
C117	C	0.287470	-0.594440	1.103984
C118	C	0.234639	-0.555499	1.078079
H119	H	0.322427	-0.575658	1.077032
H120	H	0.303916	-0.638809	1.103962
H121	H	0.271903	-0.595263	1.148534
H122	H	0.250205	-0.554683	1.033533
H123	H	0.218197	-0.511129	1.078093
O124	O	0.111332	-0.192121	0.752964
C125	C	0.177182	-0.192094	0.728535
H126	H	0.208854	-0.213179	0.685520
H127	H	0.176182	-0.138633	0.709852
C128	C	0.168778	-0.209901	0.838025
C129	C	0.207680	-0.235804	0.785197
H130	H	0.187590	-0.236860	0.872976
H131	H	0.124413	-0.209917	0.854483
H132	H	0.167948	-0.165351	0.822447
H133	H	0.208503	-0.280350	0.800773
H134	H	0.252046	-0.235796	0.768742
O135	O	0.110965	-0.863643	0.753286
C136	C	0.126715	-0.914100	0.730282
H137	H	0.105119	-0.891243	0.688659
H138	H	0.183447	-0.937657	0.710128
C139	C	0.122981	-0.996345	0.839727
C140	C	0.096451	-0.968272	0.788608
H141	H	0.104316	-1.029762	0.875705
H142	H	0.112372	-0.962352	0.855224
H143	H	0.170256	-1.015970	0.822923
H144	H	0.049178	-0.948640	0.805410
H145	H	0.107051	-1.002263	0.773115
O146	O	0.570924	-0.823272	0.581331
C147	C	0.513258	-0.841335	0.627280
H148	H	0.494052	-0.827997	0.673721
H149	H	0.472806	-0.813074	0.603034
C150	C	0.554443	-0.933645	0.590450
C151	C	0.530857	-0.917267	0.647492
H152	H	0.565297	-0.980482	0.602916
H153	H	0.593293	-0.921474	0.559491
H154	H	0.520729	-0.910088	0.570250
H155	H	0.564574	-0.940817	0.667686
H156	H	0.492014	-0.929444	0.678454
H157	H	-0.052716	-0.530687	1.121793
H158	H	-0.052152	-0.730472	1.121651
H159	H	0.195123	-0.853684	1.121698
H160	H	-0.264783	-0.694634	0.462714
H161	H	0.021932	-0.585534	0.957726
H162	H	0.229790	-0.689406	0.957592
H163	H	0.064189	-0.543085	0.770891
O164	O	0.282949	-0.649669	0.824942
C165	C	0.318213	-0.690291	0.870903
H166	H	0.284794	-0.681350	0.920910
H167	H	0.333348	-0.745229	0.878350
C168	C	0.422476	-0.683508	0.782079
C169	C	0.381432	-0.672524	0.843497
H170	H	0.461474	-0.672552	0.765173
H171	H	0.398719	-0.656143	0.751113
H172	H	0.435081	-0.729290	0.788293
H173	H	0.368821	-0.626741	0.837281
H174	H	0.405188	-0.699881	0.874461
O175	O	0.010890	-0.582806	0.731255
C176	C	-0.024308	-0.542207	0.771867
H177	H	0.009173	-0.551155	0.797337
H178	H	-0.039476	-0.487263	0.739535
C179	C	-0.128616	-0.549002	0.794217
C180	C	-0.087496	-0.559996	0.825505
H181	H	-0.167595	-0.559972	0.827302
H182	H	-0.104903	-0.576352	0.766854
H183	H	-0.141249	-0.503215	0.767275
H184	H	-0.074857	-0.605784	0.852440
H185	H	-0.111208	-0.532654	0.852874
O186	O	-0.100423	-0.652473	0.753613
C187	C	-0.100461	-0.710089	0.811342
H188	H	-0.060815	-0.756069	0.796570
H189	H	-0.088760	-0.704707	0.847739
C190	C	-0.218559	-0.661710	0.863336
C191	C	-0.169869	-0.718184	0.845191
H192	H	-0.261373	-0.666702	0.884218
H193	H	-0.218533	-0.622891	0.824444
H194	H	-0.208799	-0.657231	0.893664
H195	H	-0.179624	-0.722657	0.814858
H196	H	-0.169898	-0.757004	0.884079
O197	O	0.241921	-0.191541	0.489880
C198	C	0.283601	-0.191415	0.513936
H199	H	0.251382	-0.170541	0.557101
H200	H	0.317695	-0.244801	0.532296
C201	C	0.366169	-0.172999	0.404088
C202	C	0.326597	-0.147355	0.457100
H203	H	0.392694	-0.145823	0.369028
H204	H	0.338090	-0.173086	0.387881
H205	H	0.394574	-0.217486	0.419396
H206	H	0.298187	-0.102872	0.441793
H207	H	0.354672	-0.147259	0.473303
H208	H	0.229515	-0.689349	0.624505
O209	O	0.030629	-0.520703	0.490523
C210	C	-0.035205	-0.479143	0.514843
H211	H	-0.066946	-0.511475	0.557872
H212	H	-0.034192	-0.445325	0.533474
C213	C	-0.026626	-0.396042	0.405269
C214	C	-0.065612	-0.435754	0.458114
H215	H	-0.045382	-0.369275	0.370276
H216	H	0.017729	-0.424041	0.388884
H217	H	-0.025785	-0.367866	0.420803
H218	H	-0.066446	-0.463935	0.442582
H219	H	-0.109968	-0.407759	0.474495
H220	H	0.279688	-0.697946	0.758086
O221	O	0.282816	-0.649658	0.664162
C222	C	0.318014	-0.690224	0.623516
H223	H	0.284580	-0.715749	0.632494
H224	H	0.333063	-0.657840	0.568584
C225	C	0.422361	-0.712452	0.630167
C226	C	0.381299	-0.743806	0.641198
H227	H	0.461400	-0.745503	0.641072
H228	H	0.398648	-0.685120	0.657549
H229	H	0.434895	-0.685466	0.584391
H230	H	0.368759	-0.770785	0.686975
H231	H	0.405012	-0.771144	0.613824
H232	H	0.406920	-0.740344	0.715602
H233	H	0.406848	-0.534453	0.637104
O234	O	-0.094033	-1.033292	0.611402
C235	C	-0.126847	-1.016148	0.568438
H236	H	-0.125132	-0.965272	0.528463
H237	H	-0.100708	-1.055677	0.543393
C238	C	-0.202426	-1.075235	0.658437
C239	C	-0.200324	-1.012745	0.609342
H240	H	-0.247750	-1.073139	0.683667
H241	H	-0.180317	-1.086788	0.687382
H242	H	-0.180640	-1.108169	0.637558
H243	H	-0.222103	-0.979814	0.630221
H244	H	-0.222439	-1.001187	0.580401
O245	O	0.274178	-0.481276	0.677898
C246	C	0.291252	-0.445084	0.608649
H247	H	0.342166	-0.475726	0.581013
H248	H	0.251754	-0.434622	0.589558
C249	C	0.231951	-0.340655	0.630071
C250	C	0.294486	-0.378288	0.596128
H251	H	0.233943	-0.299451	0.622347
H252	H	0.220445	-0.365038	0.676725
H253	H	0.199042	-0.331944	0.614158
H254	H	0.327391	-0.387006	0.612047
H255	H	0.305998	-0.353905	0.549476
O256	O	0.226167	-0.488905	0.607802
C257	C	0.190714	-0.471753	0.567274
H258	H	0.134610	-0.452485	0.594386
H259	H	0.205605	-0.431029	0.517997
C260	C	0.276566	-0.557721	0.519645
C261	C	0.207658	-0.534061	0.552946
H262	H	0.287020	-0.596155	0.510803
H263	H	0.300453	-0.569276	0.546947
H264	H	0.288966	-0.523779	0.478585
H265	H	0.195260	-0.568000	0.594009
H266	H	0.183769	-0.522514	0.525650
O267	O	0.067460	-0.350787	0.787660
C268	C	0.102923	-0.367903	0.828163
H269	H	0.143764	-0.418823	0.828833
H270	H	0.126709	-0.328416	0.807049
C271	C	0.004197	-0.308615	0.899204
C272	C	0.054356	-0.371159	0.900030
H273	H	-0.025761	-0.310621	0.943534
H274	H	-0.019695	-0.297081	0.871915
H275	H	0.024027	-0.275716	0.881606
H276	H	0.034527	-0.404055	0.917621
H277	H	0.078244	-0.382698	0.927324
O278	O	-0.038127	-0.632152	0.280289
C279	C	-0.108365	-0.602960	0.297323
H280	H	-0.130987	-0.642859	0.316551
H281	H	-0.129189	-0.580804	0.338039
C282	C	-0.098615	-0.498098	0.211340
C283	C	-0.126400	-0.547102	0.234951
H284	H	-0.109741	-0.463641	0.172867
H285	H	-0.051294	-0.517765	0.199865
H286	H	-0.115971	-0.479643	0.245276
H287	H	-0.109037	-0.565563	0.201018
H288	H	-0.173719	-0.527438	0.246418
O289	O	-0.084190	-0.678141	0.418494
C290	C	-0.048763	-0.637640	0.401423
H291	H	0.007347	-0.664780	0.382223
H292	H	-0.063626	-0.588359	0.360675
C293	C	-0.134695	-0.589977	0.487337
C294	C	-0.065781	-0.623312	0.463760
H295	H	-0.145194	-0.581135	0.525788
H296	H	-0.158565	-0.617260	0.498837
H297	H	-0.147073	-0.548913	0.453375
H298	H	-0.053406	-0.664378	0.497719
H299	H	-0.041909	-0.596035	0.452267
H300	H	0.177459	-0.356175	0.572617
H301	H	0.068452	-0.850855	0.285902
O302	O	0.028548	-0.904044	0.418552
C303	C	0.069209	-0.939298	0.372589
H304	H	0.060345	-0.905847	0.322546
H305	H	0.124127	-0.954485	0.365237
C306	C	0.062296	-1.043564	0.461378
C307	C	0.051405	-1.002481	0.399916
H308	H	0.051317	-1.082540	0.478235
H309	H	0.034904	-1.019813	0.492345
H310	H	0.108061	-1.056212	0.455243
H311	H	0.005639	-0.989826	0.406053
H312	H	0.078789	-1.026231	0.368950
H313	H	0.116177	-0.483478	0.822809
H314	H	-0.078038	-0.685325	0.472673
O315	O	0.242171	-0.732080	0.490279
C316	C	0.254142	-0.786289	0.474796
H317	H	0.222840	-0.818480	0.519102
H318	H	0.239739	-0.766381	0.428848
C319	C	0.367404	-0.789372	0.405685
C320	C	0.328963	-0.828914	0.460105
H321	H	0.413557	-0.815664	0.396620
H322	H	0.359339	-0.752849	0.416114
H323	H	0.355393	-0.772785	0.367401
H324	H	0.340967	-0.845493	0.498389
H325	H	0.337032	-0.865441	0.449682
O326	O	0.028342	-0.904033	0.579483
C327	C	0.068841	-0.939289	0.620208
H328	H	0.094342	-0.905882	0.611328
H329	H	0.036412	-0.954368	0.675115
C330	C	0.091116	-1.043589	0.613423
C331	C	0.122442	-1.002560	0.602513
H332	H	0.124178	-1.082620	0.602511
H333	H	0.063829	-1.019838	0.585989
H334	H	0.064093	-1.056148	0.659179
H335	H	0.149457	-0.989995	0.556756
H336	H	0.149734	-1.026311	0.629940
H337	H	-0.035712	-0.642984	0.515253
H338	H	0.067938	-0.850836	0.619346
H339	H	0.119026	-1.028132	0.528057
O340	O	0.083878	-0.895487	0.480402
C341	C	0.149255	-0.941540	0.476729
H342	H	0.146522	-0.991515	0.518157
H343	H	0.176087	-0.949031	0.425908
C344	C	0.191471	-0.852839	0.434525
C345	C	0.188115	-0.914217	0.485411
H346	H	0.215443	-0.835984	0.439877
H347	H	0.147426	-0.821811	0.436997
H348	H	0.213830	-0.859089	0.392179
H349	H	0.165749	-0.907964	0.527755
H350	H	0.232157	-0.945243	0.482947
H351	H	-0.129177	-0.900656	0.563750
H352	H	-0.137894	-0.841050	0.628449
H353	H	-0.265127	-0.798479	0.670643
H354	H	-0.137547	-0.737181	0.420520
