data_functionalizedCrystal
_audit_creation_method	'MofGen! by Chris Wilmer'
_symmetry_space_group_name_H-M	'P1'
_symmetry_Int_Tables_number	1
_symmetry_cell_setting	triclinic
loop_
_symmetry_equiv_pos_as_xyz
  x,y,z
_cell_length_a	10.685901
_cell_length_b	25.639240
_cell_length_c	10.685997
_cell_angle_alpha	85.633614
_cell_angle_beta	89.662132
_cell_angle_gamma	85.668536
loop_
_atom_site_label
_atom_site_type_symbol
_atom_site_fract_x
_atom_site_fract_y
_atom_site_fract_z
Zn1	Zn	1.971798	-0.288630	0.561882
Zn2	Zn	2.471798	0.211370	1.061882
Zn3	Zn	1.955592	-0.368862	0.352131
Zn4	Zn	2.455592	0.131138	0.852131
Zn5	Zn	1.746008	-0.275308	0.368258
Zn6	Zn	2.246008	0.224692	0.868258
Zn7	Zn	1.761942	-0.369891	0.577958
Zn8	Zn	2.261942	0.130109	1.077958
O9	O	1.858835	-0.325672	0.465057
O10	O	2.358835	0.174328	0.965057
O11	O	2.145186	-0.304417	0.520581
O12	O	2.645186	0.195583	1.020581
O13	O	1.914340	-0.350445	0.178728
O14	O	2.414340	0.149555	0.678728
O15	O	1.776074	-0.203914	0.393965
O16	O	2.276074	0.296086	0.893965
O17	O	2.133279	-0.363363	0.366477
O18	O	2.633279	0.136637	0.866477
O19	O	1.941961	-0.213702	0.536219
O20	O	2.441961	0.286298	1.036219
O21	O	1.760359	-0.281712	0.190577
O22	O	2.260359	0.218288	0.690577
O23	O	1.572584	-0.282710	0.409553
O24	O	2.072584	0.217290	0.909553
O25	O	1.803231	-0.365118	0.751368
O26	O	2.303231	0.134882	1.251368
O27	O	1.584291	-0.352200	0.563618
O28	O	2.084291	0.147800	1.063618
O29	O	1.957411	-0.305415	0.739557
O30	O	2.457411	0.194585	1.239557
O31	O	1.929790	-0.442159	0.382065
O32	O	2.429790	0.057841	0.882065
O33	O	1.787516	-0.442915	0.547980
O34	O	2.287516	0.057085	1.047980
C35	C	1.532923	-0.316121	0.490081
C36	C	2.032923	0.183879	0.990081
C37	C	1.393499	-0.312049	0.500816
C38	C	1.893499	0.187951	1.000816
C39	C	1.858660	-0.461509	0.465042
C40	C	2.358660	0.038491	0.965042
C41	C	1.858703	-0.519625	0.465068
C42	C	2.358703	-0.019625	0.965068
C43	C	1.945212	-0.775870	0.539212
C44	C	2.445212	-0.275870	1.039212
C45	C	1.945173	-0.721265	0.539205
C46	C	2.445173	-0.221265	1.039205
O47	O	2.018579	-0.697317	0.602214
O48	O	2.518579	-0.197317	1.102214
N49	N	1.858841	-0.688904	0.465073
N50	N	2.358841	-0.188904	0.965073
C51	C	1.772550	-0.711151	0.390934
C52	C	2.272550	-0.211151	0.890934
O53	O	1.699115	-0.678611	0.327877
O54	O	2.199115	-0.178611	0.827877
C55	C	1.772595	-0.765756	0.390934
C56	C	2.272595	-0.265756	0.890934
C57	C	1.858925	-0.798114	0.465081
C58	C	2.358925	-0.298114	0.965081
C59	C	2.031535	-0.808228	0.613351
C60	C	2.531535	-0.308228	1.113351
C61	C	2.031572	-0.862830	0.613359
C62	C	2.531572	-0.362830	1.113359
C63	C	1.945285	-0.885074	0.539228
C64	C	2.445285	-0.385074	1.039228
C65	C	1.858961	-0.852716	0.465089
C66	C	2.358961	-0.352716	0.965089
C67	C	1.686311	-0.788002	0.316788
C68	C	2.186311	-0.288002	0.816788
C69	C	1.686364	-0.842611	0.316795
C70	C	2.186364	-0.342611	0.816795
C71	C	1.772694	-0.874969	0.390941
C72	C	2.272694	-0.374969	0.890941
C73	C	1.772711	-0.929562	0.390965
C74	C	2.272711	-0.429562	0.890965
N75	N	1.859043	-0.961923	0.465097
N76	N	2.359043	-0.461923	0.965097
C77	C	1.945330	-0.939679	0.539229
C78	C	2.445330	-0.439679	1.039229
C79	C	1.772463	-0.596478	0.390936
C80	C	2.272463	-0.096478	0.890936
C81	C	1.772411	-0.541874	0.390941
C82	C	2.272411	-0.041874	0.890941
C83	C	1.945036	-0.551991	0.539212
C84	C	2.445036	-0.051991	1.039212
C85	C	1.945081	-0.606596	0.539212
C86	C	2.445081	-0.106596	1.039212
C87	C	1.858795	-0.628839	0.465068
C88	C	2.358795	-0.128839	0.965068
C89	C	1.945400	-1.054347	0.539241
C90	C	2.445400	-0.554347	1.039241
C91	C	1.945425	-1.108953	0.539246
C92	C	2.445425	-0.608953	1.039246
C93	C	1.772805	-1.098831	0.390972
C94	C	2.272805	-0.598831	0.890972
C95	C	1.772774	-1.044229	0.390971
C96	C	2.272774	-0.544229	0.890971
C97	C	1.859082	-1.021989	0.465109
C98	C	2.359082	-0.521989	0.965109
O99	O	1.699346	-0.953546	0.327985
O100	O	2.199346	-0.453546	0.827985
O101	O	2.018764	-0.972224	0.602262
O102	O	2.518764	-0.472224	1.102262
C103	C	2.186020	-0.335261	0.439937
C104	C	2.686020	0.164739	0.939937
C105	C	2.325447	-0.339347	0.429232
C106	C	2.825447	0.160653	0.929232
C107	C	1.883906	-0.336867	0.792251
C108	C	2.383906	0.163133	1.292251
C109	C	1.894590	-0.341638	0.931681
C110	C	2.394590	0.158362	1.431681
C111	C	1.859048	-0.189307	0.465098
C112	C	2.359048	0.310693	0.965098
C113	C	1.859138	-0.131197	0.465115
C114	C	2.359138	0.368803	0.965115
C115	C	1.833852	-0.314531	1.139137
C116	C	2.333852	0.185469	1.639137
C117	C	1.823168	-0.309756	0.999707
C118	C	2.323168	0.190244	1.499707
H119	H	1.373849	-0.365836	0.359743
H120	H	1.873849	0.134164	0.859743
H121	H	1.753833	-0.278810	0.951273
H122	H	2.253833	0.221190	1.451273
H123	H	2.015373	-0.632939	0.599595
H124	H	2.515373	-0.132939	1.099595
H125	H	2.101879	-0.889172	0.673727
H126	H	2.601879	-0.389172	1.173727
H127	H	2.015297	-0.533871	0.599572
H128	H	2.515297	-0.033871	1.099572
H129	H	1.345091	-0.285564	0.570320
H130	H	1.845091	0.214436	1.070320
H131	H	1.963915	-0.372584	0.980109
H132	H	2.463915	0.127416	1.480109
H133	H	2.015681	-1.036245	0.599609
H134	H	2.515681	-0.536245	1.099609
H135	H	2.015724	-1.135298	0.599633
H136	H	2.515724	-0.635298	1.099633
H137	H	2.101806	-0.790123	0.673717
H138	H	2.601806	-0.290123	1.173717
H139	H	1.702101	-0.515531	0.330580
H140	H	2.202101	-0.015531	0.830580
H141	H	1.616014	-0.761663	0.256411
H142	H	2.116014	-0.261663	0.756411
H143	H	1.702187	-0.614583	0.330563
H144	H	2.202187	-0.114583	0.830563
H145	H	1.616099	-0.860717	0.256414
H146	H	2.116099	-0.360717	0.756414
H147	H	1.702465	-1.017882	0.330608
H148	H	2.202465	-0.517882	0.830608
H149	H	1.702549	-1.116952	0.330619
H150	H	2.202549	-0.616952	0.830619
