data_functionalizedCrystal
_audit_creation_method	'MofGen! by Chris Wilmer'
_symmetry_space_group_name_H-M	'P1'
_symmetry_Int_Tables_number	1
_symmetry_cell_setting	triclinic
loop_
_symmetry_equiv_pos_as_xyz
  x,y,z
_cell_length_a	13.032831
_cell_length_b	18.101397
_cell_length_c	13.032268
_cell_angle_alpha	82.856580
_cell_angle_beta	89.113023
_cell_angle_gamma	82.824609
loop_
_atom_site_label
_atom_site_type_symbol
_atom_site_fract_x
_atom_site_fract_y
_atom_site_fract_z
Zn1	Zn	1.498456	-0.500126	0.780762
Zn2	Zn	1.520193	-0.610462	0.608766
Zn3	Zn	1.348316	-0.469189	0.587007
Zn4	Zn	1.326441	-0.606458	0.758892
O5	O	1.423351	-0.546559	0.683857
O6	O	1.645259	-0.529385	0.776205
O7	O	1.515645	-0.580451	0.461964
O8	O	1.368289	-0.369670	0.612756
O9	O	1.661229	-0.610448	0.649840
O10	O	1.478597	-0.392398	0.755107
O11	O	1.389367	-0.476658	0.445979
O12	O	1.201494	-0.472776	0.591549
O13	O	1.331008	-0.603624	0.905708
O14	O	1.185423	-0.573626	0.717832
O15	O	1.457386	-0.525502	0.921776
O16	O	1.494434	-0.713554	0.628633
O17	O	1.352085	-0.710613	0.738930
C18	C	1.156142	-0.519410	0.649957
C19	C	1.041825	-0.507816	0.635479
C20	C	0.982947	-0.552610	0.691413
C21	C	0.864794	-0.540628	0.676450
C22	C	1.423270	-0.738956	0.683796
C23	C	1.423324	-0.821277	0.683816
C24	C	1.423444	-1.120389	0.683926
C25	C	1.512811	-1.090844	0.614290
C26	C	1.513059	-1.005270	0.614531
C27	C	1.423385	-0.971996	0.683871
C28	C	1.438993	-1.014495	0.795995
C29	C	1.439662	-1.100168	0.795638
C30	C	1.318137	-1.075666	0.642350
C31	C	1.318982	-0.989882	0.639999
C32	C	1.423349	-0.888131	0.683846
C33	C	1.423481	-1.204255	0.683959
C34	C	1.691604	-0.573814	0.717889
C35	C	1.805918	-0.585428	0.732392
C36	C	1.389332	-0.567567	0.952101
C37	C	1.374835	-0.576520	1.066410
C38	C	1.423458	-0.353414	0.683944
C39	C	1.423504	-0.271108	0.683981
C40	C	1.457297	-0.525584	0.416664
C41	C	1.471994	-0.516443	0.302380
C42	C	1.430901	-0.541858	1.125323
C43	C	1.415919	-0.551110	1.243469
H44	H	1.004760	-0.460592	0.576519
N45	N	1.296558	-0.624907	1.115436
H46	H	1.225430	-0.604489	1.087473
H47	H	1.297034	-0.624645	1.192878
N48	N	1.032035	-0.615164	0.769515
H49	H	1.015414	-0.664917	0.751059
H50	H	1.004070	-0.607561	0.840654
H51	H	1.504890	-0.976133	0.531824
N52	N	1.303251	-0.951786	0.530584
H53	H	1.362392	-0.970645	0.485867
H54	H	1.300837	-0.895754	0.530046
N55	N	1.550275	-0.468061	1.253341
H56	H	1.621405	-0.488478	1.281300
H57	H	1.531896	-0.414991	1.269991
N58	N	1.502326	-1.107351	0.504446
H59	H	1.439549	-1.134146	0.498754
H60	H	1.566213	-1.140182	0.484754
H61	H	0.827734	-0.493401	0.617486
H62	H	1.249930	-0.966400	0.685898
H63	H	1.301277	-1.088516	0.561288
N64	N	1.615964	-1.131952	0.651806
H65	H	1.605058	-1.169628	0.713715
H66	H	1.661323	-1.094784	0.672048
N67	N	0.854988	-0.647990	0.810500
H68	H	0.827040	-0.640453	0.881668
H69	H	0.932428	-0.647655	0.810032
N70	N	1.616750	-0.990806	0.652423
H71	H	1.617344	-0.935093	0.652734
H72	H	1.672990	-1.010413	0.605040
N73	N	1.541086	-1.139705	0.840142
H74	H	1.584941	-1.101426	0.859807
H75	H	1.578761	-1.168946	0.786826
H76	H	1.376670	-1.120111	0.850058
N77	N	1.337623	-0.599484	1.292497
H78	H	1.338012	-0.599232	1.369945
H79	H	1.355947	-0.652543	1.275786
N80	N	1.354622	-0.986347	0.867364
H81	H	1.305353	-0.945677	0.827606
H82	H	1.386414	-0.965398	0.925976
N83	N	1.539172	-0.999091	0.840903
H84	H	1.537303	-0.943432	0.843731
H85	H	1.598757	-1.016880	0.795969
N86	N	1.230157	-1.100599	0.709304
H87	H	1.258316	-1.140662	0.766287
H88	H	1.179984	-1.121478	0.665698
H89	H	1.489990	-0.505330	1.088294
