data_functionalizedCrystal
_audit_creation_method	'MofGen! by Chris Wilmer'
_symmetry_space_group_name_H-M	'P1'
_symmetry_Int_Tables_number	1
_symmetry_cell_setting	triclinic
loop_
_symmetry_equiv_pos_as_xyz
  x,y,z
_cell_length_a	8.497374
_cell_length_b	8.497365
_cell_length_c	10.685661
_cell_angle_alpha	85.600397
_cell_angle_beta	94.376440
_cell_angle_gamma	90.037770
loop_
_atom_site_label
_atom_site_type_symbol
_atom_site_fract_x
_atom_site_fract_y
_atom_site_fract_z
Zn1	Zn	0.812747	-1.076756	1.929574
Zn2	Zn	1.076679	-0.813009	1.929451
Zn3	Zn	0.792672	-0.792784	1.718494
Zn4	Zn	1.056240	-1.056562	1.718577
O5	O	0.934584	-0.934778	1.824024
O6	O	0.864714	-1.058685	2.106147
O7	O	1.039157	-0.589556	1.901380
O8	O	0.574574	-0.830440	1.746511
O9	O	1.058623	-0.864912	2.106056
O10	O	0.589323	-1.039073	1.901591
O11	O	0.830498	-0.574696	1.746391
O12	O	0.810679	-0.810859	1.541916
O13	O	1.023788	-1.280012	1.746653
O14	O	1.004322	-1.004656	1.541977
O15	O	0.844895	-1.294848	1.901672
O16	O	1.294728	-0.845330	1.901461
O17	O	1.279712	-1.024267	1.746533
C18	C	0.903105	-0.903372	1.496159
C19	C	0.889676	-0.889974	1.355897
C20	C	1.344463	-0.934799	1.824008
C21	C	1.523110	-0.934776	1.824042
C22	C	0.934748	-0.524889	1.823933
C23	C	0.934441	-0.346263	1.824113
C24	C	0.966188	-0.966307	2.153170
C25	C	0.979655	-0.979743	2.293432
H26	H	0.802357	-0.802867	1.302065
H27	H	1.066955	-1.066858	1.347257
