data_functionalizedCrystal
_audit_creation_method	'MofGen! by Chris Wilmer'
_symmetry_space_group_name_H-M	'P1'
_symmetry_Int_Tables_number	1
_symmetry_cell_setting	triclinic
loop_
_symmetry_equiv_pos_as_xyz
  x,y,z
_cell_length_a	21.295418
_cell_length_b	25.639240
_cell_length_c	21.295411
_cell_angle_alpha	90.026709
_cell_angle_beta	90.043738
_cell_angle_gamma	90.048568
loop_
_atom_site_label
_atom_site_type_symbol
_atom_site_fract_x
_atom_site_fract_y
_atom_site_fract_z
Zn1	Zn	0.962346	-0.207990	0.356211
Zn2	Zn	0.962244	-0.295410	0.250928
Zn3	Zn	0.857069	-0.208014	0.250921
Zn4	Zn	0.857034	-0.295420	0.356124
O5	O	0.909673	-0.251708	0.303546
O6	O	1.050422	-0.219572	0.342285
O7	O	0.948264	-0.283822	0.162837
O8	O	0.871091	-0.134846	0.264922
O9	O	1.050347	-0.283799	0.264933
O10	O	0.948438	-0.134828	0.342278
O11	O	0.870993	-0.219613	0.162833
O12	O	0.768975	-0.219623	0.264837
O13	O	0.871032	-0.283816	0.444225
O14	O	0.768950	-0.283840	0.342129
O15	O	0.948404	-0.219582	0.444289
O16	O	0.948231	-0.368576	0.264848
O17	O	0.870934	-0.368584	0.342136
C18	C	0.746122	-0.251736	0.303474
C19	C	0.676154	-0.251760	0.303458
C20	C	0.909584	-0.387551	0.303497
C21	C	0.909604	-0.445665	0.303497
C22	C	0.643290	-0.285242	0.343643
C23	C	0.577548	-0.285229	0.343672
C24	C	0.544671	-0.251740	0.303503
C25	C	0.577543	-0.218252	0.263314
C26	C	0.643284	-0.218262	0.263292
N27	N	0.441395	-0.247648	0.248446
N28	N	0.378944	-0.247641	0.248469
C29	C	0.346596	-0.251707	0.303570
N30	N	0.379060	-0.255789	0.358647
N31	N	0.441517	-0.255798	0.358623
C32	C	0.473386	-0.251725	0.303523
C33	C	0.242448	-0.285176	0.343789
C34	C	0.176704	-0.285160	0.343819
C35	C	0.176700	-0.218185	0.263456
C36	C	0.242442	-0.218199	0.263432
C37	C	0.275312	-0.251697	0.303598
C38	C	0.949968	-0.805980	0.343898
C39	C	0.949986	-0.860584	0.343911
O40	O	0.984199	-0.888781	0.378211
N41	N	0.909761	-0.887947	0.303607
C42	C	0.869510	-0.860703	0.263292
O43	O	0.835296	-0.888991	0.229012
C44	C	0.869488	-0.806100	0.263283
C45	C	0.909721	-0.778740	0.303585
C46	C	0.990197	-0.778620	0.384197
C47	C	0.990179	-0.724019	0.384184
C48	C	0.949932	-0.696779	0.343871
C49	C	0.909703	-0.724139	0.303571
C50	C	0.829234	-0.778857	0.222972
C51	C	0.829216	-0.724250	0.222966
C52	C	0.869449	-0.696890	0.263268
C53	C	0.869438	-0.642298	0.263244
N54	N	0.909664	-0.614935	0.303548
C55	C	0.949911	-0.642176	0.343861
C56	C	0.869557	-0.975374	0.263315
C57	C	0.869581	-1.029976	0.263321
C58	C	0.950057	-1.029854	0.343941
C59	C	0.950035	-0.975250	0.343931
C60	C	0.909782	-0.948011	0.303619
C61	C	0.949870	-0.527511	0.343829
C62	C	0.949851	-0.472905	0.343810
C63	C	0.869373	-0.473033	0.263193
C64	C	0.869394	-0.527633	0.263209
C65	C	0.909645	-0.554871	0.303532
O66	O	0.835241	-0.614068	0.228964
O67	O	0.984113	-0.613881	0.378142
C68	C	1.073864	-0.251681	0.303619
C69	C	1.143832	-0.251670	0.303650
C70	C	0.909726	-0.251697	0.467736
C71	C	0.909748	-0.251693	0.537705
C72	C	0.909780	-0.115335	0.303609
C73	C	0.909825	-0.057221	0.303636
C74	C	0.909658	-0.251682	0.139995
C75	C	0.909757	-0.251539	0.070027
C76	C	0.950034	-0.218244	0.570606
C77	C	0.950033	-0.218221	0.636348
C78	C	0.909753	-0.251657	0.669187
C79	C	0.869459	-0.285108	0.636278
C80	C	0.869457	-0.285126	0.570537
N81	N	0.904894	-0.297396	0.772396
N82	N	0.904900	-0.297377	0.834848
C83	C	0.909757	-0.251604	0.867262
N84	N	0.914620	-0.205848	0.834866
N85	N	0.914617	-0.205867	0.772408
C86	C	0.909751	-0.251641	0.740473
C87	C	0.950044	-0.218128	0.971449
C88	C	0.950039	-0.218104	1.037192
C89	C	0.869468	-0.284995	1.037121
C90	C	0.869470	-0.285014	0.971379
C91	C	0.909761	-0.251581	0.938546
H92	H	0.550785	-0.312494	0.376398
O93	O	0.545583	-0.185797	0.224223
C94	C	0.471252	-0.178651	0.139295
C95	C	0.507416	-0.215468	0.183517
H96	H	0.440375	-0.202625	0.106382
H97	H	0.506010	-0.154732	0.110522
H98	H	0.440564	-0.151332	0.168279
H99	H	0.538104	-0.242819	0.154581
H100	H	0.472624	-0.239351	0.212293
O101	O	0.830228	-0.554192	0.224125
C102	C	0.723171	-0.570989	0.193414
C103	C	0.767460	-0.540892	0.237720
H104	H	0.672415	-0.560239	0.204382
H105	H	0.730040	-0.614701	0.200354
H106	H	0.734280	-0.560281	0.142670
H107	H	0.756379	-0.551557	0.288482
H108	H	0.760584	-0.497188	0.230726
H109	H	0.836606	-0.450845	0.230368
O110	O	0.675113	-0.185722	0.224191
C111	C	0.668172	-0.119270	0.144512
C112	C	0.632046	-0.156101	0.188753
H113	H	0.633368	-0.095304	0.115859
H114	H	0.698863	-0.143216	0.111487
H115	H	0.699037	-0.091995	0.173475
H116	H	0.601147	-0.183383	0.159841
H117	H	0.601394	-0.132123	0.221780
H118	H	0.836665	-0.312213	1.063858
O119	O	0.274409	-0.317767	0.382720
C120	C	0.348578	-0.388361	0.391002
C121	C	0.312413	-0.351494	0.346841
H122	H	0.379323	-0.415631	0.362013
H123	H	0.313820	-0.412324	0.419723
H124	H	0.379397	-0.364390	0.423973
H125	H	0.281593	-0.375423	0.313832
H126	H	0.347204	-0.327529	0.318165
O127	O	0.988937	-0.553909	0.383086
C128	C	1.019420	-0.570543	0.490210
C129	C	0.975148	-0.540604	0.445826
H130	H	1.008279	-0.559805	0.540946
H131	H	1.070190	-0.559754	0.479269
H132	H	1.012537	-0.614267	0.483270
H133	H	0.981975	-0.496873	0.452741
H134	H	0.924394	-0.551437	0.456778
H135	H	0.982615	-0.450630	0.376629
O136	O	0.790201	-0.697734	0.183773
C137	C	0.781744	-0.636169	0.098729
C138	C	0.825997	-0.666155	0.143085
H139	H	0.810669	-0.610639	0.065813
H140	H	0.748815	-0.610586	0.127548
H141	H	0.752982	-0.665119	0.069959
H142	H	0.854800	-0.637243	0.171864
H143	H	0.858885	-0.691746	0.114231
H144	H	0.836779	-0.953198	0.230483
H145	H	0.836669	-0.312254	0.944590
H146	H	0.982841	-0.191020	0.543878
H147	H	0.982837	-0.190981	0.663142
O148	O	0.675121	-0.317795	0.382722
C149	C	0.668184	-0.384247	0.462402
C150	C	0.632056	-0.347400	0.418187
H151	H	0.633381	-0.408201	0.491078
H152	H	0.699010	-0.360314	0.495407
H153	H	0.698915	-0.411532	0.433417
H154	H	0.601291	-0.320108	0.447122
H155	H	0.601269	-0.371366	0.385181
O156	O	0.144875	-0.317736	0.382877
C157	C	0.151820	-0.384154	0.462596
C158	C	0.187944	-0.347295	0.418386
H159	H	0.186626	-0.408054	0.491327
H160	H	0.120991	-0.411483	0.433669
H161	H	0.121092	-0.360179	0.495556
H162	H	0.218706	-0.371227	0.385418
H163	H	0.218733	-0.319964	0.447353
H164	H	0.149933	-0.190915	0.230753
O165	O	0.274341	-0.185734	0.224299
C166	C	0.294338	-0.160205	0.117276
C167	C	0.258187	-0.197016	0.161521
H168	H	0.281281	-0.169306	0.066511
H169	H	0.346980	-0.165966	0.124103
H170	H	0.281484	-0.118061	0.128465
H171	H	0.270988	-0.239174	0.150359
H172	H	0.205554	-0.191210	0.154685
H173	H	1.022938	-0.701746	0.417003
O174	O	0.989143	-0.185536	1.069083
C175	C	1.019753	-0.096587	1.089252
C176	C	0.975437	-0.133413	1.053088
H177	H	1.008679	-0.054438	1.076344
H178	H	1.070514	-0.105725	1.076351
H179	H	1.012846	-0.102338	1.141877
H180	H	0.982288	-0.127683	1.000454
H181	H	0.924693	-0.124266	1.066041
H182	H	0.982796	-0.952977	0.376749
O183	O	1.029357	-0.804995	0.423380
C184	C	1.109156	-0.799093	0.503359
C185	C	1.064842	-0.769163	0.459009
H186	H	1.137848	-0.770135	0.532186
H187	H	1.142141	-0.824622	0.474535
H188	H	1.080248	-0.824684	0.536222
H189	H	1.093699	-0.743544	0.426137
H190	H	1.031855	-0.743667	0.487872
H191	H	0.836648	-0.312363	0.543749
O192	O	0.989091	-1.056401	0.383086
C193	C	1.024800	-1.140473	0.418801
C194	C	0.980555	-1.110472	0.374452
H195	H	1.017924	-1.184195	0.411826
H196	H	1.013713	-1.129762	0.469558
H197	H	1.075556	-1.129668	0.407820
H198	H	0.929785	-1.121261	0.385376
H199	H	0.991696	-1.121186	0.323708
O200	O	0.830423	-0.317644	0.668202
C201	C	0.821903	-0.388197	0.742434
C202	C	0.866187	-0.351391	0.706309
H203	H	0.850799	-0.415483	0.773262
H204	H	0.793119	-0.412146	0.707650
H205	H	0.788996	-0.364179	0.773167
H206	H	0.899132	-0.375368	0.675576
H207	H	0.894926	-0.327439	0.741127
O208	O	0.830560	-1.056631	0.224189
C209	C	0.794879	-1.140798	0.188504
C210	C	0.839118	-1.110679	0.232838
H211	H	0.801773	-1.184501	0.195491
H212	H	0.805953	-1.130118	0.137743
H213	H	0.744120	-1.130067	0.199489
H214	H	0.889891	-1.121394	0.221909
H215	H	0.827989	-1.121362	0.283586
H216	H	0.796473	-0.801124	0.190153
H217	H	0.982848	-0.190902	0.944715
