data_functionalizedCrystal
_audit_creation_method	'MofGen! by Chris Wilmer'
_symmetry_space_group_name_H-M	'P1'
_symmetry_Int_Tables_number	1
_symmetry_cell_setting	triclinic
loop_
_symmetry_equiv_pos_as_xyz
  x,y,z
_cell_length_a	12.837943
_cell_length_b	15.944551
_cell_length_c	11.892095
_cell_angle_alpha	93.888509
_cell_angle_beta	85.689438
_cell_angle_gamma	89.163839
loop_
_atom_site_label
_atom_site_type_symbol
_atom_site_fract_x
_atom_site_fract_y
_atom_site_fract_z
O1	O	1.382096	0.213524	-0.093988
O2	O	1.080290	0.202737	-0.093995
O3	O	1.239434	0.086515	-0.093981
O4	O	1.222952	0.329745	-0.094002
O5	O	1.226164	0.096189	0.094025
O6	O	1.067021	0.212411	0.094012
O7	O	1.368826	0.223198	0.094018
Zn8	Zn	1.215817	0.219340	0.123865
Zn9	Zn	1.233299	0.206594	-0.123842
O10	O	1.209683	0.339419	0.094005
C11	C	1.035034	0.203930	0.000008
C12	C	0.919957	0.193062	0.000006
C13	C	1.232115	0.060004	0.000022
C14	C	1.230063	-0.033407	0.000023
C15	C	0.679007	0.323714	0.000011
C16	C	0.570881	0.313507	0.000010
C17	C	0.595575	0.162440	0.000010
C18	C	0.703701	0.172648	0.000012
C19	C	0.745413	0.253287	0.000010
C20	C	0.853542	0.263494	0.000003
C21	C	0.878234	0.112428	0.000012
C22	C	0.770107	0.102221	0.000011
C23	C	1.126515	-0.256548	0.000005
C24	C	1.168058	-0.308949	0.092705
C25	C	1.226352	-0.204430	0.000014
C26	C	1.181163	-0.318468	-0.092655
C27	C	1.222761	-0.369631	0.000001
C28	C	1.267917	-0.255596	0.092790
C29	C	1.281014	-0.265115	-0.092653
C30	C	1.322628	-0.317491	0.000069
C31	C	1.228418	-0.109262	0.000023
C32	C	1.220702	-0.464796	0.000000
C33	C	1.414082	0.222005	0.000013
C34	C	1.529160	0.232872	0.000008
C35	C	1.217002	0.365931	-0.000001
C36	C	1.219054	0.459340	-0.000009
N37	N	1.203893	0.228039	0.292918
N38	N	1.245231	0.197890	-0.292895
C39	C	1.328203	0.137313	0.529576
C40	C	1.319876	0.143400	0.647918
C41	C	1.178907	0.246295	0.647944
C42	C	1.187234	0.240208	0.529603
C43	C	1.261886	0.185716	0.470423
C44	C	1.270217	0.179634	0.352080
C45	C	1.129244	0.282524	0.352108
C46	C	1.120917	0.288611	0.470449
H47	H	0.712969	0.389374	0.000008
O48	O	1.064670	0.329506	0.294767
C49	C	0.960018	0.309072	0.323676
H50	H	0.954088	0.281122	0.409600
H51	H	0.908693	0.368314	0.327731
H52	H	0.932648	0.261259	0.257077
H53	H	1.388994	0.092949	0.481392
O54	O	0.554875	0.084171	-0.000026
C55	C	0.445198	0.090271	0.000014
H56	H	0.422334	0.151959	-0.035587
H57	H	0.415828	0.035345	-0.054556
H58	H	0.408743	0.088442	0.090215
O59	O	1.106436	0.299328	0.705310
C60	C	1.125328	0.382355	0.676420
H61	H	1.171340	0.381060	0.590493
H62	H	1.047692	0.417234	0.672382
H63	H	1.172228	0.415910	0.743022
O64	O	1.111179	-0.332061	0.186313
C65	C	1.156084	-0.298688	0.283896
H66	H	1.204344	-0.241702	0.262295
H67	H	1.091548	-0.278870	0.352035
H68	H	1.208670	-0.348503	0.316265
O69	O	0.893951	0.341858	-0.000147
C70	C	0.866907	0.380302	-0.097529
H71	H	0.794203	0.349743	-0.129993
H72	H	0.850363	0.450176	-0.075626
H73	H	0.934285	0.372076	-0.165712
O74	O	0.506525	0.382006	-0.000045
C75	C	0.566531	0.455367	-0.000016
H76	H	0.649739	0.438669	-0.035607
H77	H	0.530508	0.502438	-0.054601
H78	H	0.567868	0.484314	0.090180
H79	H	1.373877	0.103984	0.696077
O80	O	1.338085	-0.241977	-0.186113
C81	C	1.440941	-0.274364	-0.186903
H82	H	1.441392	-0.331041	-0.133421
H83	H	1.471321	-0.294384	-0.277429
H84	H	1.493281	-0.223856	-0.150499
H85	H	1.060134	0.332975	0.518647
O86	O	0.729546	0.023899	-0.000191
C87	C	0.674587	0.008482	-0.097546
H88	H	0.704966	0.050924	-0.165599
H89	H	0.686584	-0.060117	-0.130235
H90	H	0.587770	0.022170	-0.075529
O91	O	1.137533	-0.351242	-0.186268
C92	C	1.196169	-0.327851	-0.283847
H93	H	1.279012	-0.312351	-0.262081
H94	H	1.198933	-0.382029	-0.351742
H95	H	1.157977	-0.270259	-0.316623
H96	H	1.331005	0.135266	0.303897
H97	H	1.304571	-0.228194	0.171246
H98	H	1.043639	-0.229864	0.000096
O99	O	0.942887	0.044101	0.000057
C100	C	1.047271	0.070397	0.000021
H101	H	1.048920	0.138533	0.035621
H102	H	1.092403	0.028840	0.054595
H103	H	1.084896	0.065081	-0.090178
O104	O	1.421573	-0.349090	0.000329
C105	C	1.466908	-0.316745	0.098178
H106	H	1.402596	-0.296101	0.166178
H107	H	1.518114	-0.367491	0.130532
H108	H	1.516674	-0.260488	0.076947
