data_functionalizedCrystal
_audit_creation_method	'MofGen! by Chris Wilmer'
_symmetry_space_group_name_H-M	'P1'
_symmetry_Int_Tables_number	1
_symmetry_cell_setting	triclinic
loop_
_symmetry_equiv_pos_as_xyz
  x,y,z
_cell_length_a	19.188930
_cell_length_b	14.044220
_cell_length_c	12.503572
_cell_angle_alpha	93.843168
_cell_angle_beta	86.479840
_cell_angle_gamma	88.166828
loop_
_atom_site_label
_atom_site_type_symbol
_atom_site_fract_x
_atom_site_fract_y
_atom_site_fract_z
O1	O	0.937478	0.112788	-0.089673
O2	O	1.187478	0.362788	0.160327
O3	O	1.437478	0.612788	0.410327
O4	O	1.687478	0.862788	0.660327
O5	O	0.735191	0.128718	-0.089600
O6	O	0.985191	0.378718	0.160400
O7	O	1.235191	0.628718	0.410400
O8	O	1.485191	0.878718	0.660400
O9	O	0.833298	-0.017218	-0.089625
O10	O	1.083298	0.232782	0.160375
O11	O	1.333298	0.482782	0.410375
O12	O	1.583298	0.732782	0.660375
O13	O	0.839371	0.258724	-0.089648
O14	O	1.089371	0.508724	0.160352
O15	O	1.339371	0.758724	0.410352
O16	O	1.589371	1.008724	0.660352
O17	O	0.825920	-0.006225	0.089019
O18	O	1.075920	0.243775	0.339019
O19	O	1.325920	0.493775	0.589019
O20	O	1.575920	0.743775	0.839019
O21	O	0.727814	0.139712	0.089044
O22	O	0.977814	0.389712	0.339044
O23	O	1.227814	0.639712	0.589044
O24	O	1.477814	0.889712	0.839044
O25	O	0.930100	0.123781	0.088971
O26	O	1.180100	0.373781	0.338971
O27	O	1.430100	0.623781	0.588971
O28	O	1.680100	0.873781	0.838971
Cu29	Cu	0.828284	0.132750	0.105319
Cu30	Cu	1.078284	0.382750	0.355319
Cu31	Cu	1.328284	0.632750	0.605319
Cu32	Cu	1.578284	0.882750	0.855319
Cu33	Cu	0.837008	0.119749	-0.105948
Cu34	Cu	1.087008	0.369749	0.144052
Cu35	Cu	1.337008	0.619749	0.394052
Cu36	Cu	1.587008	0.869749	0.644052
O37	O	0.831994	0.269718	0.088996
O38	O	1.081994	0.519718	0.338996
O39	O	1.331994	0.769718	0.588996
O40	O	1.581994	1.019718	0.838996
C41	C	0.826951	-0.047025	-0.000302
C42	C	1.076951	0.202975	0.249698
C43	C	1.326951	0.452975	0.499698
C44	C	1.576951	0.702975	0.749698
C45	C	0.819022	-0.152218	-0.000297
C46	C	1.069022	0.097782	0.249703
C47	C	1.319022	0.347782	0.499703
C48	C	1.569022	0.597782	0.749703
C49	C	0.705458	0.133700	-0.000269
C50	C	0.955458	0.383700	0.249731
C51	C	1.205458	0.633700	0.499731
C52	C	1.455458	0.883700	0.749731
C53	C	0.627852	0.132153	-0.000240
C54	C	0.877852	0.382153	0.249760
C55	C	1.127852	0.632153	0.499760
C56	C	1.377852	0.882153	0.749760
C57	C	0.804527	-0.344819	-0.000308
C58	C	1.054527	-0.094819	0.249692
C59	C	1.304527	0.155181	0.499692
C60	C	1.554527	0.405181	0.749692
C61	C	0.860762	-0.402687	-0.000331
C62	C	1.110762	-0.152687	0.249669
C63	C	1.360762	0.097313	0.499669
C64	C	1.610762	0.347313	0.749669
C65	C	0.852697	-0.509858	-0.000337
C66	C	1.102697	-0.259858	0.249663
C67	C	1.352697	-0.009858	0.499663
C68	C	1.602697	0.240142	0.749663
C69	C	0.812591	-0.237639	-0.000302
C70	C	1.062591	0.012361	0.249698
C71	C	1.312591	0.262361	0.499698
C72	C	1.562591	0.512361	0.749698
C73	C	0.588455	0.217782	-0.000265
C74	C	0.838455	0.467782	0.249735
C75	C	1.088455	0.717782	0.499735
C76	C	1.338455	0.967782	0.749735
C77	C	0.515538	0.216327	-0.000276
C78	C	0.765538	0.466327	0.249724
C79	C	1.015538	0.716327	0.499724
C80	C	1.265538	0.966327	0.749724
C81	C	0.482022	0.129237	-0.000285
C82	C	0.732022	0.379237	0.249715
C83	C	0.982022	0.629237	0.499715
C84	C	1.232022	0.879237	0.749715
C85	C	0.521428	0.043597	-0.000255
C86	C	0.771428	0.293597	0.249745
C87	C	1.021428	0.543597	0.499745
C88	C	1.271428	0.793597	0.749745
C89	C	0.594343	0.045056	-0.000233
C90	C	0.844343	0.295056	0.249767
C91	C	1.094343	0.545056	0.499767
C92	C	1.344343	0.795056	0.749767
N93	N	0.372258	0.058924	-0.061123
N94	N	0.622258	0.308924	0.188877
N95	N	0.872258	0.558924	0.438877
N96	N	1.122258	0.808924	0.688877
N97	N	0.302991	0.057544	-0.061147
N98	N	0.552991	0.307544	0.188853
N99	N	0.802991	0.557544	0.438853
N100	N	1.052991	0.807544	0.688853
C101	C	0.262332	0.124838	-0.000351
C102	C	0.512332	0.374838	0.249649
C103	C	0.762332	0.624838	0.499649
C104	C	1.012332	0.874838	0.749649
N105	N	0.293556	0.193577	0.060457
N106	N	0.543556	0.443577	0.310457
N107	N	0.793556	0.693577	0.560457
N108	N	1.043556	0.943577	0.810457
N109	N	0.362829	0.194959	0.060475
N110	N	0.612829	0.444959	0.310475
N111	N	0.862829	0.694959	0.560475
N112	N	1.112829	0.944959	0.810475
C113	C	0.402958	0.127646	-0.000309
C114	C	0.652958	0.377646	0.249691
C115	C	0.902958	0.627646	0.499691
C116	C	1.152958	0.877646	0.749691
C117	C	0.143870	0.208894	-0.000386
C118	C	0.393870	0.458894	0.249614
C119	C	0.643870	0.708894	0.499614
C120	C	0.893870	0.958894	0.749614
C121	C	0.070951	0.207436	-0.000391
C122	C	0.320951	0.457436	0.249609
C123	C	0.570951	0.707436	0.499609
C124	C	0.820951	0.957436	0.749609
C125	C	0.076843	0.034704	-0.000381
C126	C	0.326843	0.284704	0.249619
C127	C	0.576843	0.534704	0.499619
C128	C	0.826843	0.784704	0.749619
C129	C	0.149759	0.036165	-0.000365
C130	C	0.399759	0.286165	0.249635
C131	C	0.649759	0.536165	0.499635
C132	C	0.899759	0.786165	0.749635
C133	C	0.183269	0.123263	-0.000373
C134	C	0.433269	0.373263	0.249627
C135	C	0.683269	0.623263	0.499627
C136	C	0.933269	0.873263	0.749627
C137	C	0.959834	0.118799	-0.000363
C138	C	1.209834	0.368799	0.249637
C139	C	1.459834	0.618799	0.499637
C140	C	1.709834	0.868799	0.749637
C141	C	1.037440	0.120345	-0.000398
C142	C	1.287440	0.370345	0.249602
C143	C	1.537440	0.620345	0.499602
C144	C	1.787440	0.870345	0.749602
C145	C	0.838341	0.299524	-0.000330
C146	C	1.088341	0.549524	0.249670
C147	C	1.338341	0.799524	0.499670
C148	C	1.588341	1.049524	0.749670
C149	C	0.846270	0.404716	-0.000341
C150	C	1.096270	0.654716	0.249659
C151	C	1.346270	0.904716	0.499659
C152	C	1.596270	1.154716	0.749659
N153	N	0.822152	0.141894	0.253913
N154	N	1.072152	0.391894	0.503913
N155	N	1.322152	0.641894	0.753913
N156	N	1.572152	0.891894	1.003913
N157	N	0.843144	0.110598	-0.254542
N158	N	1.093144	0.360598	-0.004542
N159	N	1.343144	0.610598	0.245458
N160	N	1.593144	0.860598	0.495458
C161	C	0.813134	0.155352	0.473030
C162	C	1.063134	0.405352	0.723030
C163	C	1.313134	0.655352	0.973030
C164	C	1.563134	0.905352	1.223030
C165	C	0.852161	0.097143	0.526347
C166	C	1.102161	0.347143	0.776347
C167	C	1.352161	0.597143	1.026347
C168	C	1.602161	0.847143	1.276347
C169	C	0.847142	0.104631	0.648272
C170	C	1.097142	0.354631	0.898272
C171	C	1.347142	0.604631	1.148272
C172	C	1.597142	0.854631	1.398272
C173	C	0.818151	0.147865	0.351095
C174	C	1.068151	0.397865	0.601095
C175	C	1.318151	0.647865	0.851095
C176	C	1.568151	0.897865	1.101095
H177	H	0.914967	-0.371747	-0.000423
H178	H	1.164967	-0.121747	0.249577
H179	H	1.414967	0.128253	0.499577
H180	H	1.664967	0.378253	0.749577
H181	H	0.171153	0.279816	-0.000376
H182	H	0.421153	0.529816	0.249624
H183	H	0.671153	0.779816	0.499624
H184	H	0.921153	1.029816	0.749624
H185	H	0.750329	-0.375763	-0.000291
H186	H	1.000329	-0.125763	0.249709
H187	H	1.250329	0.124237	0.499709
H188	H	1.500329	0.374237	0.749709
N189	N	0.763894	0.228815	0.533857
N190	N	1.013894	0.478815	0.783857
N191	N	1.263894	0.728815	1.033857
N192	N	1.513894	0.978815	1.283857
H193	H	0.776999	0.294832	0.514345
H194	H	1.026999	0.544832	0.764345
H195	H	1.276999	0.794832	1.014345
H196	H	1.526999	1.044832	1.264345
H197	H	0.714462	0.216933	0.514367
H198	H	0.964462	0.466933	0.764367
H199	H	1.214462	0.716933	1.014367
H200	H	1.464462	0.966933	1.264367
N201	N	0.624597	0.311718	-0.000281
N202	N	0.874597	0.561718	0.249719
N203	N	1.124597	0.811718	0.499719
N204	N	1.374597	1.061718	0.749719
H205	H	0.588570	0.365743	-0.000300
H206	H	0.838570	0.615743	0.249700
H207	H	1.088570	0.865743	0.499700
H208	H	1.338570	1.115743	0.749700
H209	H	0.651970	0.320171	0.065951
H210	H	0.901970	0.570171	0.315951
H211	H	1.151970	0.820171	0.565951
H212	H	1.401970	1.070171	0.815951
H213	H	0.483454	0.286058	-0.000293
H214	H	0.733454	0.536058	0.249707
H215	H	0.983454	0.786058	0.499707
H216	H	1.233454	1.036058	0.749707
H217	H	0.494135	-0.027313	-0.000277
H218	H	0.744135	0.222687	0.249723
H219	H	0.994135	0.472687	0.499723
H220	H	1.244135	0.722687	0.749723
H221	H	0.626420	-0.024676	-0.000214
H222	H	0.876420	0.225324	0.249786
H223	H	1.126420	0.475324	0.499786
H224	H	1.376420	0.725324	0.749786
H225	H	0.038874	0.277168	-0.000404
H226	H	0.288874	0.527168	0.249596
H227	H	0.538874	0.777168	0.499596
H228	H	0.788874	1.027168	0.749596
H229	H	0.049557	-0.036211	-0.000455
H230	H	0.299557	0.213789	0.249545
H231	H	0.549557	0.463789	0.499545
H232	H	0.799557	0.713789	0.749545
N233	N	0.192258	-0.056192	-0.000339
N234	N	0.442258	0.193808	0.249661
N235	N	0.692258	0.443808	0.499661
N236	N	0.942258	0.693808	0.749661
H237	H	0.159963	-0.111586	-0.000345
H238	H	0.409963	0.138414	0.249655
H239	H	0.659963	0.388414	0.499655
H240	H	0.909963	0.638414	0.749655
H241	H	0.225394	-0.063427	-0.066553
H242	H	0.475394	0.186573	0.183447
H243	H	0.725394	0.436573	0.433447
H244	H	0.975394	0.686573	0.683447
N245	N	0.901413	0.023679	0.465530
N246	N	1.151413	0.273679	0.715530
N247	N	1.401413	0.523679	0.965530
N248	N	1.651413	0.773679	1.215530
H249	H	0.898065	0.028674	0.385790
H250	H	1.148065	0.278674	0.635790
H251	H	1.398065	0.528674	0.885790
H252	H	1.648065	0.778674	1.135790
H253	H	0.950834	0.035532	0.485094
H254	H	1.200834	0.285532	0.735094
H255	H	1.450834	0.535532	0.985094
H256	H	1.700834	0.785532	1.235094
