data_functionalizedCrystal
_audit_creation_method	'MofGen! by Chris Wilmer'
_symmetry_space_group_name_H-M	'P1'
_symmetry_Int_Tables_number	1
_symmetry_cell_setting	triclinic
loop_
_symmetry_equiv_pos_as_xyz
  x,y,z
_cell_length_a	19.188930
_cell_length_b	10.540539
_cell_length_c	17.666332
_cell_angle_alpha	90.000523
_cell_angle_beta	89.979551
_cell_angle_gamma	83.835136
loop_
_atom_site_label
_atom_site_type_symbol
_atom_site_fract_x
_atom_site_fract_y
_atom_site_fract_z
O1	O	-0.927204	-0.158463	0.063188
O2	O	-0.427204	0.341537	0.563188
O3	O	-0.724035	-0.179796	0.063136
O4	O	-0.224035	0.320204	0.563136
O5	O	-0.830254	0.015679	0.063163
O6	O	-0.330254	0.515679	0.563163
O7	O	-0.820984	-0.353938	0.063162
O8	O	-0.320984	0.146062	0.563162
O9	O	-0.830240	0.015672	-0.062734
O10	O	-0.330240	0.515672	0.437266
O11	O	-0.724020	-0.179803	-0.062761
O12	O	-0.224020	0.320197	0.437239
O13	O	-0.927189	-0.158470	-0.062708
O14	O	-0.427189	0.341530	0.437292
Cu15	Cu	-0.825604	-0.169137	-0.074230
Cu16	Cu	-0.325604	0.330863	0.425770
Cu17	Cu	-0.825620	-0.169129	0.074658
Cu18	Cu	-0.325620	0.330871	0.574658
O19	O	-0.820970	-0.353945	-0.062735
O20	O	-0.320970	0.146055	0.437265
C21	C	-0.698012	-0.179108	0.000181
C22	C	-0.198012	0.320892	0.500181
C23	C	-0.620493	-0.177035	0.000161
C24	C	-0.120493	0.322965	0.500161
C25	C	-0.829552	0.062963	0.000215
C26	C	-0.329552	0.562963	0.500215
C27	C	-0.827472	0.203866	0.000219
C28	C	-0.327472	0.703866	0.500219
C29	C	-0.953212	-0.159157	0.000248
C30	C	-0.453212	0.340843	0.500248
C31	C	-1.030731	-0.161231	0.000273
C32	C	-0.530731	0.338769	0.500273
C33	C	-0.576334	-0.291733	0.000173
C34	C	-0.076334	0.208267	0.500173
C35	C	-0.503497	-0.289785	0.000181
C36	C	-0.003497	0.210215	0.500181
C37	C	-0.474823	-0.173132	0.000193
C38	C	0.025177	0.326868	0.500193
C39	C	-0.518992	-0.058418	0.000177
C40	C	-0.018992	0.441582	0.500177
C41	C	-0.591827	-0.060370	0.000161
C42	C	-0.091827	0.439630	0.500161
N43	N	-0.366253	-0.083963	0.043072
N44	N	0.133747	0.416037	0.543072
N45	N	-0.297063	-0.082117	0.043089
N46	N	0.202937	0.417883	0.543089
C47	C	-0.255375	-0.167245	0.000239
C48	C	0.244625	0.332755	0.500239
N49	N	-0.285492	-0.254308	-0.042618
N50	N	0.214508	0.245692	0.457382
N51	N	-0.354689	-0.256158	-0.042631
N52	N	0.145311	0.243842	0.457369
C53	C	-0.395846	-0.171003	0.000210
C54	C	0.104154	0.328997	0.500210
C55	C	-0.132237	-0.279838	0.000259
C56	C	0.367763	0.220162	0.500259
C57	C	-0.059400	-0.277885	0.000263
C58	C	0.440600	0.222115	0.500263
C59	C	-0.074896	-0.046516	0.000266
C60	C	0.425104	0.453484	0.500266
C61	C	-0.147732	-0.048472	0.000255
C62	C	0.352268	0.451528	0.500255
C63	C	-0.176398	-0.165137	0.000255
C64	C	0.323602	0.334863	0.500255
C65	C	-0.821672	-0.401229	0.000214
C66	C	-0.321672	0.098771	0.500214
C67	C	-0.823752	-0.542131	0.000216
C68	C	-0.323752	-0.042131	0.500216
N69	N	-0.825597	-0.169141	-0.178949
N70	N	-0.325597	0.330859	0.321051
C71	C	-0.747771	0.385536	0.000481
C72	C	-0.247771	0.885536	0.500481
C73	C	-0.749879	0.238965	0.000198
C74	C	-0.249879	0.738965	0.500198
C75	C	-0.864805	0.266342	-0.071665
C76	C	-0.364805	0.766342	0.428335
C77	C	-0.862157	0.412828	-0.071726
C78	C	-0.362157	0.912828	0.428274
C79	C	-0.863751	0.413389	0.071443
C80	C	-0.363751	0.913389	0.571443
C81	C	-0.864466	0.266423	0.072393
C82	C	-0.364466	0.766423	0.572393
C83	C	-0.868359	-0.245898	-0.780987
C84	C	-0.368359	0.254102	-0.280987
C85	C	-0.868352	-0.245911	-0.701740
C86	C	-0.368352	0.254089	-0.201740
C87	C	-0.825627	-0.169116	-0.662131
C88	C	-0.325627	0.330884	-0.162131
C89	C	-0.782892	-0.092327	-0.701776
C90	C	-0.282892	0.407673	-0.201776
C91	C	-0.782895	-0.092327	-0.781022
C92	C	-0.282895	0.407673	-0.281022
N93	N	-0.823195	-0.057927	-0.537707
N94	N	-0.323195	0.442073	-0.037707
N95	N	-0.823196	-0.057931	-0.462427
N96	N	-0.323196	0.442069	0.037573
C97	C	-0.825614	-0.169116	-0.423367
C98	C	-0.325614	0.330884	0.076633
N99	N	-0.828045	-0.280298	-0.462431
N100	N	-0.328045	0.219702	0.037569
N101	N	-0.828047	-0.280292	-0.537718
N102	N	-0.328047	0.219708	-0.037718
C103	C	-0.825619	-0.169109	-0.576202
C104	C	-0.325619	0.330891	-0.076202
C105	C	-0.868335	-0.245920	-0.297802
C106	C	-0.368335	0.254080	0.202198
C107	C	-0.868323	-0.245935	-0.218553
C108	C	-0.368323	0.254065	0.281447
C109	C	-0.782867	-0.092340	-0.218591
C110	C	-0.282867	0.407660	0.281409
C111	C	-0.782875	-0.092337	-0.297838
C112	C	-0.282875	0.407663	0.202162
C113	C	-0.825613	-0.169124	-0.337439
C114	C	-0.325613	0.330876	0.162561
N115	N	-0.825633	-0.169114	0.179377
N116	N	-0.325633	0.330886	0.679377
H117	H	-0.599669	-0.386731	0.000174
H118	H	-0.099669	0.113269	0.500174
H119	H	-0.748101	-0.029799	-0.813293
H120	H	-0.248101	0.470201	-0.313293
Br121	Br	-0.696732	0.435361	-0.084719
Br122	Br	-0.196732	0.935361	0.415281
Br123	Br	-0.926333	-0.350131	-0.351550
Br124	Br	-0.426333	0.149869	0.148450
H125	H	-0.903114	-0.308470	-0.186282
H126	H	-0.403114	0.191530	0.313718
H127	H	-0.627783	0.033035	0.000152
H128	H	-0.127783	0.533035	0.500152
H129	H	-0.748076	-0.029820	-0.186342
H130	H	-0.248076	0.470180	0.313658
H131	H	-0.921037	0.243448	0.076749
H132	H	-0.421037	0.743448	0.576749
H133	H	-0.748104	-0.029803	-0.669521
H134	H	-0.248104	0.470197	-0.169521
H135	H	-0.917960	0.462026	-0.074973
H136	H	-0.417960	0.962026	0.425027
Br137	Br	-0.821564	0.194389	-0.160850
Br138	Br	-0.321564	0.694389	0.339150
Br139	Br	-0.724888	0.011878	-0.351634
Br140	Br	-0.224888	0.511878	0.148366
Br141	Br	-0.480080	0.099898	0.000185
Br142	Br	0.019920	0.599898	0.500185
Br143	Br	-0.819327	0.196508	0.161042
Br144	Br	-0.319327	0.696508	0.661042
H145	H	-0.834554	0.440417	-0.125475
H146	H	-0.334554	0.940417	0.374525
H147	H	-0.467536	-0.383189	0.000189
H148	H	0.032464	0.116811	0.500189
Br149	Br	-0.207667	0.107199	0.000241
Br150	Br	0.292333	0.607199	0.500241
H151	H	-0.720503	0.195717	0.051726
H152	H	-0.220503	0.695717	0.551726
H153	H	-0.155578	-0.374834	0.000248
H154	H	0.344422	0.125166	0.500248
Br155	Br	-0.696689	0.432076	0.086400
Br156	Br	-0.196689	0.932076	0.586400
Br157	Br	-0.957162	0.494159	0.072274
Br158	Br	-0.457162	0.994159	0.572274
Br159	Br	0.000534	-0.433562	0.000272
Br160	Br	0.500534	0.066438	0.500272
Br161	Br	-0.035989	0.111803	0.000269
Br162	Br	0.464011	0.611803	0.500269
Br163	Br	-0.700550	0.168264	-0.085852
Br164	Br	-0.200550	0.668264	0.414148
H165	H	-0.921787	0.245244	-0.074323
H166	H	-0.421787	0.745244	0.425677
H167	H	-0.903144	-0.308443	-0.669462
H168	H	-0.403144	0.191557	-0.169462
Br169	Br	-0.821899	0.465042	0.162254
Br170	Br	-0.321899	0.965042	0.662254
H171	H	-0.903158	-0.308427	-0.813225
H172	H	-0.403158	0.191573	-0.313225
