data_functionalizedCrystal
_audit_creation_method	'MofGen! by Chris Wilmer'
_symmetry_space_group_name_H-M	'P1'
_symmetry_Int_Tables_number	1
_symmetry_cell_setting	triclinic
loop_
_symmetry_equiv_pos_as_xyz
  x,y,z
_cell_length_a	14.044220
_cell_length_b	14.971486
_cell_length_c	13.448316
_cell_angle_alpha	90.006811
_cell_angle_beta	90.001643
_cell_angle_gamma	88.401503
loop_
_atom_site_label
_atom_site_type_symbol
_atom_site_fract_x
_atom_site_fract_y
_atom_site_fract_z
O1	O	-1.257954	-0.215664	-0.082587
O2	O	-0.757954	0.284336	0.417413
O3	O	-0.981976	-0.207882	-0.082612
O4	O	-0.481976	0.292118	0.417388
O5	O	-1.127362	-0.082155	-0.082592
O6	O	-0.627362	0.417845	0.417408
O7	O	-1.112568	-0.341390	-0.082608
O8	O	-0.612568	0.158610	0.417392
O9	O	-1.127344	-0.082146	0.082792
O10	O	-0.627344	0.417854	0.582792
O11	O	-0.981958	-0.207872	0.082771
O12	O	-0.481958	0.292128	0.582771
O13	O	-1.257936	-0.215654	0.082797
O14	O	-0.757936	0.284346	0.582797
Cu15	Cu	-1.119945	-0.211762	0.097885
Cu16	Cu	-0.619945	0.288238	0.597885
Cu17	Cu	-1.119967	-0.211774	-0.097701
Cu18	Cu	-0.619967	0.288226	0.402299
O19	O	-1.112550	-0.341380	0.082776
O20	O	-0.612550	0.158620	0.582776
C21	C	-1.126691	-0.048774	0.000100
C22	C	-0.626691	0.451226	0.500100
C23	C	-1.124708	0.050680	0.000098
C24	C	-0.624708	0.550680	0.500098
C25	C	-0.946648	-0.204470	0.000076
C26	C	-0.446648	0.295530	0.500076
C27	C	-0.841411	-0.194309	0.000067
C28	C	-0.341411	0.305691	0.500067
C29	C	-1.293263	-0.219065	0.000106
C30	C	-0.793263	0.280935	0.500106
C31	C	-1.398500	-0.229227	0.000109
C32	C	-0.898500	0.270773	0.500109
C33	C	-0.648729	-0.175732	0.000088
C34	C	-0.148729	0.324268	0.500088
C35	C	-0.591177	-0.247799	0.000088
C36	C	-0.091177	0.252201	0.500088
C37	C	-0.483962	-0.237463	0.000099
C38	C	0.016038	0.262537	0.500099
C39	C	-0.755954	-0.186067	0.000076
C40	C	-0.255954	0.313933	0.500076
C41	C	-1.113220	-0.374762	0.000083
C42	C	-0.613220	0.125238	0.500083
C43	C	-1.115203	-0.474215	0.000077
C44	C	-0.615203	0.025785	0.500077
N45	N	-1.119937	-0.211754	0.235449
N46	N	-0.619937	0.288246	0.735449
C47	C	-1.210119	0.101176	0.000107
C48	C	-0.710119	0.601176	0.500107
C49	C	-1.208250	0.194623	0.000097
C50	C	-0.708250	0.694623	0.500097
C51	C	-1.120970	0.237571	0.000085
C52	C	-0.620970	0.737571	0.500085
C53	C	-1.035554	0.187067	0.000074
C54	C	-0.535554	0.687067	0.500074
C55	C	-1.037423	0.093623	0.000077
C56	C	-0.537423	0.593623	0.500077
C57	C	-1.031663	0.381836	0.000070
C58	C	-0.531663	0.881836	0.500070
C59	C	-1.029793	0.475288	0.000069
C60	C	-0.529793	0.975288	0.500069
C61	C	-1.202490	0.482837	0.000090
C62	C	-0.702490	0.982837	0.500090
C63	C	-1.204360	0.389392	0.000093
C64	C	-0.704360	0.889392	0.500093
C65	C	-1.118942	0.338895	0.000083
C66	C	-0.618942	0.838895	0.500083
N67	N	-1.119982	-0.211775	-0.235265
N68	N	-0.619982	0.288225	0.264735
C69	C	-1.184334	-0.156109	0.287499
C70	C	-0.684334	0.343891	0.787499
C71	C	-1.184340	-0.156108	0.391602
C72	C	-0.684340	0.343892	0.891602
C73	C	-1.119952	-0.211759	0.443654
C74	C	-0.619952	0.288241	0.943654
C75	C	-1.055549	-0.267406	0.391597
C76	C	-0.555549	0.232594	0.891597
C77	C	-1.055539	-0.267401	0.287496
C78	C	-0.555539	0.232599	0.787496
C79	C	-1.055575	-0.267414	0.608577
C80	C	-0.555575	0.232586	1.108577
C81	C	-1.055586	-0.267420	0.712686
C82	C	-0.555586	0.232580	1.212686
C83	C	-1.184376	-0.156122	0.712683
C84	C	-0.684376	0.343878	1.212683
C85	C	-1.184366	-0.156117	0.608582
C86	C	-0.684366	0.343883	1.108582
C87	C	-1.119963	-0.211765	0.556532
C88	C	-0.619963	0.288235	1.056532
H89	H	-0.622427	-0.317261	0.000079
H90	H	-0.122427	0.182739	0.500079
H91	H	-0.617481	-0.106277	0.000097
H92	H	-0.117481	0.393723	0.500097
C93	C	-1.311629	-0.046089	0.297963
C94	C	-0.811629	0.453911	0.797963
C95	C	-1.255109	-0.094933	0.230288
C96	C	-0.755109	0.405067	0.730288
H97	H	-1.355318	-0.008316	0.262644
H98	H	-0.855318	0.491684	0.762644
H99	H	-1.345770	-0.086066	0.338551
H100	H	-0.845770	0.413934	0.838551
H101	H	-1.272128	-0.010747	0.338581
H102	H	-0.772128	0.489253	0.838581
H103	H	-1.294610	-0.130280	0.189675
H104	H	-0.794610	0.369720	0.689675
H105	H	-1.220967	-0.054951	0.189683
H106	H	-0.720967	0.445049	0.689683
C107	C	-0.933280	0.287770	-0.084954
C108	C	-0.433280	0.787770	0.415046
C109	C	-0.939615	0.234277	0.000061
C110	C	-0.439615	0.734277	0.500061
H111	H	-0.874052	0.316918	-0.084954
H112	H	-0.374052	0.816918	0.415046
H113	H	-0.937599	0.251466	-0.142616
H114	H	-0.437599	0.751466	0.357384
H115	H	-0.983886	0.331214	-0.084938
H116	H	-0.483886	0.831214	0.415062
H117	H	-0.889012	0.190828	0.000041
H118	H	-0.389012	0.690828	0.500041
H119	H	-0.935286	0.270584	0.057738
H120	H	-0.435286	0.770584	0.557738
H121	H	-1.236814	-0.110810	0.755068
H122	H	-0.736814	0.389190	1.255068
C123	C	-0.939351	-0.015852	-0.084953
C124	C	-0.439351	0.484148	0.415047
C125	C	-0.943537	0.038113	0.000067
C126	C	-0.443537	0.538113	0.500067
H127	H	-0.881385	-0.050116	-0.084964
H128	H	-0.381385	0.449884	0.415036
H129	H	-0.991593	-0.054798	-0.084938
H130	H	-0.491593	0.445202	0.415062
H131	H	-0.942221	0.020763	-0.142618
H132	H	-0.442221	0.520763	0.357382
H133	H	-0.940675	0.001497	0.057732
H134	H	-0.440675	0.501497	0.557732
H135	H	-0.891281	0.077063	0.000061
H136	H	-0.391281	0.577063	0.500061
C137	C	-1.204811	-0.036014	0.508676
C138	C	-0.704811	0.463986	1.008676
C139	C	-1.255133	-0.094943	0.448807
C140	C	-0.755133	0.405057	0.948807
H141	H	-1.248521	0.001753	0.543984
H142	H	-0.748521	0.501753	1.043984
H143	H	-1.166477	-0.069151	0.554575
H144	H	-0.666477	0.430849	1.054575
H145	H	-1.165320	-0.000667	0.468065
H146	H	-0.665320	0.499333	0.968065
H147	H	-1.294620	-0.130294	0.489419
H148	H	-0.794620	0.369706	0.989419
H149	H	-1.293484	-0.061802	0.402902
H150	H	-0.793484	0.438198	0.902902
H151	H	-1.281192	0.066215	0.000122
H152	H	-0.781192	0.566215	0.500122
H153	H	-1.277800	0.235734	0.000106
H154	H	-0.777800	0.735734	0.500106
H155	H	-1.275430	0.354427	0.000109
H156	H	-0.775430	0.854427	0.500109
C157	C	-1.276316	0.629429	0.000066
C158	C	-0.776316	1.129429	0.500066
C159	C	-1.296384	0.538340	0.000084
C160	C	-0.796384	1.038340	0.500084
H161	H	-1.334281	0.663695	0.000058
H162	H	-0.834281	1.163695	0.500058
H163	H	-1.240535	0.643200	0.057731
H164	H	-0.740535	1.143200	0.557731
H165	H	-1.240535	0.643170	-0.057615
H166	H	-0.740535	1.143170	0.442385
H167	H	-1.332159	0.524599	0.057770
H168	H	-0.832159	1.024599	0.557770
H169	H	-1.332180	0.524564	-0.057587
H170	H	-0.832180	1.024564	0.442413
H171	H	-1.003154	-0.312736	0.755061
H172	H	-0.503154	0.187264	1.255061
H173	H	-0.958722	0.510253	0.000075
H174	H	-0.458722	1.010253	0.500075
H175	H	-1.003119	-0.312714	0.433984
H176	H	-0.503119	0.187286	0.933984
C177	C	-0.928280	-0.377442	0.619031
C178	C	-0.428280	0.122558	1.119031
C179	C	-0.984787	-0.328589	0.551362
C180	C	-0.484787	0.171411	1.051362
H181	H	-0.884588	-0.415214	0.583706
H182	H	-0.384588	0.084786	1.083706
H183	H	-0.894143	-0.337471	0.659642
H184	H	-0.394143	0.162529	1.159642
H185	H	-0.967788	-0.412786	0.659627
H186	H	-0.467788	0.087214	1.159627
H187	H	-0.945279	-0.293240	0.510771
H188	H	-0.445279	0.206760	1.010771
H189	H	-1.018927	-0.368565	0.510735
H190	H	-0.518927	0.131435	1.010735
H191	H	-0.962107	0.340724	0.000059
H192	H	-0.462107	0.840724	0.500059
C193	C	-1.000042	-0.417789	0.255414
C194	C	-0.500042	0.082211	0.755414
C195	C	-0.984757	-0.328571	0.230277
C196	C	-0.484757	0.171429	0.730277
H197	H	-0.956344	-0.455551	0.220084
H198	H	-0.456344	0.044449	0.720084
H199	H	-0.990829	-0.425752	0.324853
H200	H	-0.490829	0.074248	0.824853
H201	H	-1.063317	-0.432575	0.238336
H202	H	-0.563317	0.067425	0.738336
H203	H	-0.921483	-0.313783	0.247361
H204	H	-0.421483	0.186217	0.747361
H205	H	-0.993962	-0.320604	0.160822
H206	H	-0.493962	0.179396	0.660822
H207	H	-1.236799	-0.110807	0.566201
H208	H	-0.736799	0.389193	1.066201
