data_functionalizedCrystal
_audit_creation_method	'MofGen! by Chris Wilmer'
_symmetry_space_group_name_H-M	'P1'
_symmetry_Int_Tables_number	1
_symmetry_cell_setting	triclinic
loop_
_symmetry_equiv_pos_as_xyz
  x,y,z
_cell_length_a	17.019383
_cell_length_b	17.038272
_cell_length_c	15.186229
_cell_angle_alpha	89.995962
_cell_angle_beta	86.120670
_cell_angle_gamma	87.246883
loop_
_atom_site_label
_atom_site_type_symbol
_atom_site_fract_x
_atom_site_fract_y
_atom_site_fract_z
O1	O	1.053352	0.099657	-0.153028
O2	O	0.824541	0.112345	-0.135696
O3	O	0.937586	-0.007813	-0.144252
O4	O	0.940306	0.219815	-0.144472
O5	O	0.937578	-0.007815	0.002206
O6	O	0.824533	0.112344	0.010762
O7	O	1.053343	0.099655	-0.006570
Zn8	Zn	0.938937	0.105999	0.025349
Zn9	Zn	0.938948	0.106001	-0.167615
O10	O	0.940298	0.219814	0.001986
C11	C	0.795116	0.111861	-0.060238
C12	C	0.707450	0.110412	-0.053597
C13	C	0.666261	0.109734	-0.130305
C14	C	0.583889	0.108385	-0.124053
C15	C	0.542706	0.107708	-0.041091
C16	C	0.583901	0.108389	0.035622
C17	C	0.666271	0.109744	0.029369
C18	C	0.294000	0.103623	-0.018216
C19	C	0.211623	0.102266	-0.011968
C20	C	0.211617	0.102264	-0.171644
C21	C	0.293990	0.103614	-0.177890
C22	C	0.335176	0.104299	-0.101176
C23	C	0.458508	0.106327	-0.034698
C24	C	0.419372	0.105686	-0.107570
C25	C	0.935109	-0.036940	-0.070836
C26	C	0.927728	-0.123727	-0.070277
C27	C	0.995488	-0.173896	-0.075408
C28	C	0.988549	-0.255441	-0.074891
C29	C	0.913849	-0.286816	-0.069236
C30	C	0.846085	-0.236640	-0.064106
C31	C	0.853025	-0.155097	-0.064630
C32	C	0.889332	-0.532554	-0.067391
C33	C	0.882397	-0.614104	-0.066865
C34	C	1.024861	-0.632898	-0.077651
C35	C	1.031795	-0.551353	-0.078169
C36	C	0.964030	-0.501185	-0.073044
C37	C	0.906754	-0.370167	-0.068704
C38	C	0.971126	-0.417834	-0.073582
C39	C	1.082769	0.100139	-0.082029
C40	C	1.170435	0.101588	-0.088676
C41	C	0.942776	0.248941	-0.071432
C42	C	0.950156	0.335728	-0.071997
N43	N	0.938935	0.105997	0.157042
N44	N	0.938955	0.105997	-0.299308
C45	C	0.989011	0.052809	0.378975
C46	C	0.989014	0.052807	0.471165
C47	C	0.888874	0.159188	0.478753
C48	C	0.888868	0.159186	0.386565
C49	C	0.938941	0.105997	0.336678
C50	C	0.938949	0.105997	0.521055
C51	C	0.938951	0.105996	0.621011
C52	C	0.938938	0.105997	0.236716
H53	H	0.452906	0.106241	-0.175117
O54	O	0.787227	-0.106328	-0.059800
C55	C	0.786996	-0.058580	-0.135624
H56	H	0.825331	-0.088486	-0.191542
H57	H	0.811392	0.000693	-0.120323
C58	C	0.654923	-0.009363	-0.094904
C59	C	0.702000	-0.046097	-0.163586
H60	H	0.602493	-0.001659	-0.112151
H61	H	0.655079	-0.041529	-0.043819
H62	H	0.675262	0.040028	-0.082160
H63	H	0.681666	-0.095490	-0.176322
H64	H	0.701839	-0.013939	-0.214675
H65	H	0.327515	0.104159	-0.245446
H66	H	1.056316	-0.148358	-0.080008
O67	O	0.840125	0.210777	0.527186
C68	C	0.761191	0.198119	0.510637
H69	H	0.756606	0.135525	0.485648
H70	H	0.740925	0.241464	0.458661
C71	C	0.714170	0.287172	0.627219
C72	C	0.708538	0.210291	0.596535
H73	H	0.681690	0.294684	0.680203
H74	H	0.767349	0.295703	0.638367
H75	H	0.697283	0.323284	0.583898
H76	H	0.725434	0.174181	0.639851
H77	H	0.655360	0.201754	0.585396
H78	H	0.424969	0.105774	0.032849
O79	O	0.544003	0.107685	-0.198655
C80	C	0.598014	0.108584	-0.273219
H81	H	0.658335	0.084815	-0.254385
H82	H	0.602709	0.171415	-0.298139
C83	C	0.495097	0.085994	-0.369578
C84	C	0.569183	0.056794	-0.346448
H85	H	0.477312	0.054051	-0.414751
H86	H	0.458708	0.085391	-0.319343
H87	H	0.499020	0.138352	-0.390339
H88	H	0.565258	0.004440	-0.325676
H89	H	0.605571	0.057387	-0.396680
O90	O	0.840313	0.210965	0.345507
C91	C	0.858315	0.288352	0.366673
H92	H	0.921492	0.288704	0.387220
H93	H	0.816139	0.311341	0.423381
C94	C	0.772014	0.340926	0.260195
C95	C	0.849612	0.341358	0.285425
H96	H	0.766643	0.373624	0.210079
H97	H	0.759883	0.288789	0.245937
H98	H	0.736877	0.360081	0.307459
H99	H	0.884747	0.322194	0.238165
H100	H	0.861749	0.393493	0.299672
H101	H	1.031946	-0.392286	-0.078206
O102	O	1.037669	0.001063	0.330649
C103	C	1.081876	-0.045869	0.387754
H104	H	1.049481	-0.046732	0.455927
H105	H	1.142174	-0.020516	0.392980
C106	C	1.132258	-0.129160	0.267251
C107	C	1.092466	-0.130224	0.350981
H108	H	1.138795	-0.181193	0.244567
H109	H	1.102478	-0.097539	0.228778
H110	H	1.182503	-0.108029	0.271617
H111	H	1.042219	-0.151346	0.346612
H112	H	1.122238	-0.161851	0.389453
H113	H	0.699786	0.110283	-0.197861
O114	O	1.104418	-0.521008	-0.083704
C115	C	1.162739	-0.582775	-0.088096
H116	H	1.136916	-0.638144	-0.113877
H117	H	1.183890	-0.594346	-0.019433
C118	C	1.264469	-0.491817	-0.119158
C119	C	1.232756	-0.559820	-0.150829
H120	H	1.307661	-0.477658	-0.157851
H121	H	1.225179	-0.450203	-0.116196
H122	H	1.282090	-0.501469	-0.061939
H123	H	1.215127	-0.550165	-0.208042
H124	H	1.272045	-0.601433	-0.153803
H125	H	1.029784	0.009496	0.505600
O126	O	0.171562	0.101746	-0.246131
C127	C	0.119516	0.168629	-0.246950
H128	H	0.141278	0.216336	-0.203298
H129	H	0.058081	0.152302	-0.220838
C130	C	0.089528	0.140705	-0.395700
C131	C	0.116260	0.199302	-0.342091
H132	H	0.087516	0.159624	-0.454387
H133	H	0.124590	0.095643	-0.395148
H134	H	0.038335	0.127104	-0.373929
H135	H	0.167455	0.212895	-0.363856
H136	H	0.081206	0.244368	-0.342649
H137	H	0.845934	-0.395722	-0.064098
H138	H	0.178094	0.101737	0.055592
H139	H	1.043726	-0.296286	-0.079068
H140	H	0.550363	0.107843	0.103171
O141	O	0.333973	0.104142	0.056328
C142	C	0.318215	0.036143	0.106103
H143	H	0.298641	-0.011531	0.060875
H144	H	0.269407	0.050654	0.159580
C145	C	0.417414	0.065214	0.204882
C146	C	0.393380	0.006658	0.149331
H147	H	0.463778	0.047028	0.231551
H148	H	0.428029	0.111028	0.171350
H149	H	0.376735	0.077302	0.249439
H150	H	0.434055	-0.005421	0.104769
H151	H	0.382773	-0.039158	0.182856
O152	O	0.706165	0.110362	0.103971
C153	C	0.652155	0.109492	0.178536
H154	H	0.595039	0.083787	0.159470
H155	H	0.639333	0.172037	0.204053
C156	C	0.757780	0.090348	0.274693
C157	C	0.687632	0.058770	0.251277
H158	H	0.779664	0.059064	0.319565
H159	H	0.794168	0.090937	0.224457
H160	H	0.747085	0.142468	0.295951
H161	H	0.698329	0.006655	0.230009
H162	H	0.651246	0.058171	0.301511
O163	O	0.809813	-0.644547	-0.061533
C164	C	0.768178	-0.618890	-0.134227
H165	H	0.811770	-0.601965	-0.190539
H166	H	0.727781	-0.565703	-0.114024
C167	C	0.664842	-0.706362	-0.095691
C168	C	0.718382	-0.685580	-0.164857
H169	H	0.634122	-0.747497	-0.114583
H170	H	0.692890	-0.723646	-0.046714
H171	H	0.631185	-0.662033	-0.078862
H172	H	0.752044	-0.729906	-0.181677
H173	H	0.690338	-0.668305	-0.213838
O174	O	0.823567	-0.483746	-0.062294
C175	C	0.823302	-0.436031	0.013586
H176	H	0.886185	-0.431977	0.034113
H177	H	0.785473	-0.462821	0.069566
C178	C	0.711938	-0.358179	-0.032084
C179	C	0.789172	-0.353193	-0.006877
H180	H	0.690881	-0.307081	-0.044704
H181	H	0.712113	-0.390326	-0.083205
H182	H	0.680423	-0.380507	0.014571
H183	H	0.820688	-0.330875	-0.053535
H184	H	0.789001	-0.321040	0.044236
H185	H	1.080031	-0.673753	-0.081825
O186	O	0.773478	-0.267021	-0.058495
C187	C	0.731841	-0.241396	0.020520
H188	H	0.757133	-0.184866	0.043894
H189	H	0.737802	-0.288597	0.073182
C190	C	0.613075	-0.295440	-0.024592
C191	C	0.644135	-0.226004	0.004113
H192	H	0.558974	-0.285949	-0.034709
H193	H	0.641127	-0.312707	-0.077824
H194	H	0.618051	-0.334767	0.019298
H195	H	0.639168	-0.186682	-0.039781
H196	H	0.616080	-0.208730	0.057338
