data_functionalizedCrystal
_audit_creation_method	'MofGen! by Chris Wilmer'
_symmetry_space_group_name_H-M	'P1'
_symmetry_Int_Tables_number	1
_symmetry_cell_setting	triclinic
loop_
_symmetry_equiv_pos_as_xyz
  x,y,z
_cell_length_a	15.625950
_cell_length_b	14.472310
_cell_length_c	15.538191
_cell_angle_alpha	90.001031
_cell_angle_beta	66.741480
_cell_angle_gamma	71.939624
loop_
_atom_site_label
_atom_site_type_symbol
_atom_site_fract_x
_atom_site_fract_y
_atom_site_fract_z
O1	O	1.155761	-0.310308	0.123037
O2	O	0.888548	-0.220800	0.137656
O3	O	1.074170	-0.282973	-0.006710
O4	O	0.970139	-0.248135	0.267403
O5	O	1.074132	-0.436642	-0.006702
O6	O	0.888510	-0.374469	0.137665
O7	O	1.155723	-0.463977	0.123045
Cu8	Cu	1.022113	-0.433255	0.130356
Cu9	Cu	1.022158	-0.251523	0.130346
O10	O	0.970101	-0.401804	0.267411
C11	C	0.855165	-0.286459	0.136994
C12	C	0.755755	-0.253159	0.134996
C13	C	0.428594	-0.562347	0.128500
C14	C	0.335175	-0.531012	0.126641
C15	C	0.335263	-0.363504	0.126633
C16	C	0.428682	-0.394824	0.128496
C17	C	0.475340	-0.494247	0.129428
C18	C	0.475428	-0.326724	0.129425
C19	C	0.568841	-0.358044	0.131283
C20	C	0.615508	-0.457463	0.132213
C21	C	0.568753	-0.525567	0.131287
C22	C	0.428771	-0.227303	0.128486
C23	C	0.475518	-0.159203	0.129415
C24	C	0.568929	-0.190521	0.131280
C25	C	0.615596	-0.289940	0.132209
C26	C	0.615684	-0.122417	0.132206
C27	C	0.709096	-0.153736	0.134064
C28	C	0.709009	-0.321259	0.134067
N29	N	1.022088	-0.561077	0.130362
C30	C	1.022158	-0.935192	0.130342
C31	C	0.922672	-0.862704	0.207330
C32	C	0.922751	-0.755642	0.207611
C33	C	1.022122	-0.749589	0.130352
C34	C	1.109109	-0.817565	0.151942
C35	C	1.108512	-0.924486	0.152489
C36	C	1.035571	-0.900211	0.031537
C37	C	1.033200	-0.792289	0.032193
C38	C	1.022109	-0.644696	0.130356
C39	C	1.022177	-1.040086	0.130340
C40	C	1.189106	-0.398317	0.123708
C41	C	1.288516	-0.431610	0.125705
C42	C	1.085035	-0.363451	-0.041786
C43	C	1.117456	-0.374301	-0.146314
N44	N	1.022193	-0.123704	0.130332
C45	C	0.795363	-0.266430	-0.434557
C46	C	0.825850	-0.276645	-0.532780
C47	C	0.997333	-0.334086	-0.554982
C48	C	0.966860	-0.323872	-0.456759
C49	C	0.865874	-0.290045	-0.396553
C50	C	1.037371	-0.347486	-0.418756
C51	C	1.006900	-0.337277	-0.320541
C52	C	0.905919	-0.303455	-0.260330
C53	C	0.835403	-0.279836	-0.298339
C54	C	1.138357	-0.381319	-0.478963
C55	C	1.208867	-0.404933	-0.440960
C56	C	1.178397	-0.394718	-0.342744
C57	C	1.077416	-0.360896	-0.282532
C58	C	1.248913	-0.418337	-0.304734
C59	C	1.218442	-0.408128	-0.206520
C60	C	1.046945	-0.350687	-0.184317
C61	C	0.959236	-0.321325	0.302487
C62	C	0.926815	-0.310468	0.407016
H63	H	0.691571	-0.482962	0.133725
H64	H	1.108498	-0.949964	-0.025756
F65	F	1.316341	-0.440940	-0.505044
F66	F	1.356385	-0.454352	-0.368821
H67	H	0.768424	-0.257426	-0.563716
H68	H	0.856683	-0.866387	0.194657
F69	F	0.285607	-0.257697	0.125615
F70	F	0.907152	-0.716910	0.303452
H71	H	1.183146	-0.975391	0.098633
F72	F	0.329362	-0.193975	0.126484
F73	F	0.758851	-0.081257	0.135050
F74	F	0.425862	-0.053396	0.128397
H75	H	1.275859	-0.427359	-0.175578
F76	F	0.727922	-0.243825	-0.234258
F77	F	0.618411	-0.631383	0.132290
H78	H	0.975260	-0.907076	0.010809
H79	H	0.297107	-0.586472	0.125907
F80	F	0.758666	-0.427076	0.135070
H81	H	0.857057	-0.707380	0.194728
F82	F	0.939464	-0.314676	-0.120237
F83	F	1.104806	-0.370092	-0.619066
F84	F	0.566029	-0.016612	0.131182
F85	F	1.206442	-0.816862	0.080606
H86	H	0.910730	-0.885615	0.280235
F87	F	0.478252	-0.668164	0.129503
F88	F	1.099480	-0.954111	0.246679
F89	F	1.100952	-0.779758	0.245059
H90	H	0.969375	-0.745527	0.015811
H91	H	1.103425	-0.789037	-0.027792
H92	H	0.713130	-0.238878	-0.385533
H93	H	1.163162	-0.389621	-0.558935
F94	F	0.873489	-0.292598	-0.155800
