data_functionalizedCrystal
_audit_creation_method	'MofGen! by Chris Wilmer'
_symmetry_space_group_name_H-M	'P1'
_symmetry_Int_Tables_number	1
_symmetry_cell_setting	triclinic
loop_
_symmetry_equiv_pos_as_xyz
  x,y,z
_cell_length_a	19.902436
_cell_length_b	14.560438
_cell_length_c	19.902436
_cell_angle_alpha	60.006729
_cell_angle_beta	89.999997
_cell_angle_gamma	60.001752
loop_
_atom_site_label
_atom_site_type_symbol
_atom_site_fract_x
_atom_site_fract_y
_atom_site_fract_z
Zr1	Zr	0.647246	1.005365	-0.088232
O2	O	0.539966	1.196931	-0.195496
O3	O	0.680132	0.813775	-0.055352
O4	O	0.680133	1.005353	-0.195515
O5	O	0.539966	1.005371	0.055233
O6	O	0.790698	1.005371	-0.195528
O7	O	0.539966	1.005353	-0.055332
O8	O	0.790698	0.662672	0.055199
O9	O	0.539967	1.348069	-0.195494
O10	O	0.776672	0.892601	-0.041336
O11	O	0.694158	0.892601	0.041188
O12	O	0.694159	1.118159	-0.123837
O13	O	0.611645	1.118159	-0.041313
Zr14	Zr	0.823585	1.005422	0.088087
Zr15	Zr	0.823585	1.005393	-0.088253
Zr16	Zr	0.647246	1.005393	0.088108
Zr17	Zr	0.647246	1.246412	-0.088229
Zr18	Zr	0.823585	0.764374	0.088084
O19	O	0.790699	1.197012	0.055207
O20	O	0.790699	1.196971	-0.195526
O21	O	0.539966	1.196971	0.055236
O22	O	0.930864	0.813855	0.195351
O23	O	0.930865	0.813815	-0.055381
O24	O	0.680132	0.813815	0.195381
O25	O	0.930865	1.005416	-0.055378
O26	O	0.790698	1.005434	0.195370
O27	O	0.680132	1.005416	0.195383
O28	O	0.930865	1.005434	0.055187
O29	O	0.680133	1.348092	-0.195511
O30	O	0.790698	0.662695	0.195366
O31	O	0.930864	0.662718	0.195349
O32	O	0.930864	0.662695	0.055183
O33	O	0.539967	1.348092	-0.055328
O34	O	0.680133	1.348114	-0.055344
O35	O	0.776672	0.892627	0.123692
O36	O	0.859186	0.892627	0.041168
O37	O	0.776673	1.118186	-0.041333
O38	O	0.694159	1.118186	0.041191
C39	C	0.735415	0.703879	-0.000077
C40	C	0.735415	0.601548	-0.000078
C41	C	0.778485	0.553472	-0.043155
C42	C	0.778488	0.457313	-0.043147
C43	C	0.692345	0.457318	0.043015
C44	C	0.692347	0.553469	0.043012
C45	C	0.514841	1.005358	-0.000047
C46	C	0.439981	1.005346	-0.000038
C47	C	0.167932	1.005409	-0.000084
C48	C	0.248474	0.863123	0.051711
C49	C	0.326377	0.863034	0.052003
C50	C	0.302899	1.005377	-0.000061
C51	C	0.248779	1.076050	0.037901
C52	C	0.171217	1.075140	0.038280
C53	C	0.170078	1.078042	-0.089864
C54	C	0.248956	1.075368	-0.089722
C55	C	0.379174	1.005366	-0.000049
C56	C	0.091656	1.005425	-0.000093
C57	C	0.955989	1.005429	-0.000098
C58	C	1.030850	1.005441	-0.000107
C59	C	0.735416	1.005358	-0.220646
C60	C	0.735416	1.005346	-0.295507
C61	C	0.735416	1.306907	-0.000068
C62	C	0.735416	1.409238	-0.000067
C63	C	0.735415	1.005409	-0.567556
C64	C	0.787714	0.863123	-0.487022
C65	C	0.787488	0.863034	-0.409119
C66	C	0.735416	1.005377	-0.432589
C67	C	0.645758	1.076029	-0.486697
C68	C	0.646045	1.075119	-0.564259
C69	C	0.772051	1.078062	-0.565414
C70	C	0.773865	1.075388	-0.486536
C71	C	0.735412	1.005366	-0.356314
C72	C	0.735413	1.005425	-0.643832
C73	C	0.735415	1.005429	0.220502
C74	C	0.735415	1.005441	0.295362
C75	C	0.955989	0.703915	-0.000103
C76	C	1.030850	0.601596	-0.000113
C77	C	0.735415	0.703915	0.220497
C78	C	0.735415	0.601596	0.295357
C79	C	0.955989	0.703950	0.220472
C80	C	1.030850	0.601644	0.295322
C81	C	0.514842	1.306836	-0.220616
C82	C	0.439981	1.409143	-0.295467
C83	C	0.514842	1.306872	-0.000042
C84	C	0.439981	1.409190	-0.000032
C85	C	0.735416	1.306872	-0.220642
C86	C	0.735416	1.409190	-0.295502
C87	C	1.022934	0.553532	-0.043191
C88	C	1.093266	0.457406	-0.043217
C89	C	1.171515	0.409339	-0.000159
C90	C	1.179429	0.457412	0.042920
C91	C	1.109097	0.553543	0.042941
C92	C	0.778486	0.553560	0.373585
C93	C	0.778483	0.457434	0.443930
C94	C	0.735412	0.409339	0.436045
C95	C	0.692336	0.457385	0.357808
C96	C	0.692335	0.553516	0.287465
C97	C	1.109084	0.553599	0.287396
C98	C	1.179430	0.457484	0.357720
C99	C	1.171540	0.409409	0.435968
C100	C	1.093298	0.457463	0.443892
C101	C	1.022953	0.553583	0.373570
C102	C	0.361747	1.457199	-0.287541
C103	C	0.291401	1.553344	-0.357865
C104	C	0.299291	1.601424	-0.436113
C105	C	0.377533	1.553364	-0.444037
C106	C	0.447878	1.457228	-0.373715
C107	C	0.447897	1.457264	0.043039
C108	C	0.377565	1.553417	0.043046
C109	C	0.299316	1.601488	-0.000015
C110	C	0.291402	1.553410	-0.043091
C111	C	0.361734	1.457265	-0.043102
C112	C	0.778495	1.457255	-0.287590
C113	C	0.778511	1.553381	-0.357922
C114	C	0.735443	1.601449	-0.436164
C115	C	0.692363	1.553375	-0.444074
C116	C	0.692352	1.457244	-0.373743
H117	H	0.365764	0.807605	0.026528
H118	H	0.657269	0.418212	0.351400
H119	H	0.959226	0.592667	-0.078264
N120	N	1.243337	0.311116	-0.000182
N121	N	1.293991	0.332504	-0.028066
H122	H	1.344704	0.263122	-0.028083
N123	N	0.648336	0.408238	0.087018
N124	N	0.609882	0.451180	0.125474
H125	H	0.578797	0.416523	0.156551
N126	N	0.353661	1.408109	-0.207624
N127	N	0.283795	1.451048	-0.200574
H128	H	0.278077	1.416388	-0.144135
H129	H	0.227700	1.592458	-0.351396
H130	H	0.227683	1.592563	-0.078150
N131	N	0.609247	1.012119	-0.564008
N132	N	0.583534	0.969126	-0.506660
H133	H	0.557545	0.924629	-0.506478
H134	H	0.813560	0.418170	-0.078223
N135	N	0.648352	0.602561	0.087027
N136	N	0.609899	0.559629	0.125493
H137	H	0.578832	0.594296	0.156580
H138	H	0.735420	0.331063	0.493330
N139	N	0.353640	1.408133	-0.087078
N140	N	0.383262	1.290108	-0.049583
H141	H	0.377540	1.255410	-0.080642
N142	N	0.648409	1.602481	-0.524014
N143	N	0.685944	1.591732	-0.572850
H144	H	0.654908	1.626423	-0.629316
N145	N	0.227422	1.699608	-0.507933
N146	N	0.176799	1.678111	-0.520073
H147	H	0.126037	1.747450	-0.570792
H148	H	1.243132	0.418369	0.351253
H149	H	1.243148	0.418262	0.077976
N150	N	0.227486	1.699701	0.000006
N151	N	0.234575	1.742604	0.038471
H152	H	0.183848	1.811967	0.038490
H153	H	0.813564	0.418326	0.507627
N154	N	1.243408	0.311226	0.507788
N155	N	1.313254	0.268345	0.500691
H156	H	1.364014	0.199000	0.551411
N157	N	0.755599	0.793049	-0.360145
N158	N	0.799057	0.694616	-0.288155
H159	H	0.776529	0.645191	-0.253572
N160	N	0.385570	1.602502	-0.523975
N161	N	0.322750	1.688334	-0.586749
H162	H	0.328423	1.723039	-0.643208
N163	N	0.870307	0.793649	-0.359772
N164	N	0.928679	0.744945	-0.382759
H165	H	0.987172	0.695994	-0.347930
H166	H	0.657264	0.592614	0.223770
H167	H	1.115523	0.592728	0.223689
H168	H	1.086886	0.418306	0.507612
H169	H	0.250169	0.807263	0.026382
H170	H	0.959254	0.592688	0.380035
H171	H	0.605099	1.180689	-0.506456
H172	H	0.813566	1.418133	-0.223887
N173	N	0.527784	1.408157	-0.381832
N174	N	0.534808	1.451104	-0.451705
H175	H	0.591241	1.416455	-0.457445
H176	H	0.249222	0.807561	0.117541
H177	H	0.365471	0.807093	0.118238
N178	N	0.171467	1.012156	0.121161
N179	N	0.228813	0.969173	0.178322
H180	H	0.228994	0.924687	0.236860
N181	N	0.527826	1.408176	0.087012
N182	N	0.590624	1.322339	0.087000
H183	H	0.647074	1.287679	0.118054
H184	H	0.286234	1.026982	0.103341
H185	H	0.604957	1.179513	-0.621289
H186	H	0.813591	1.592513	-0.351465
N187	N	0.385675	1.602502	0.087052
N188	N	0.455547	1.559554	0.125501
H189	H	0.461278	1.594217	0.156581
H190	H	0.735459	1.679726	-0.493425
H191	H	0.657269	1.418120	-0.380197
H192	H	0.813555	0.592614	-0.078239
H193	H	0.114181	1.179534	0.002993
N194	N	0.223971	1.207352	-0.007147
N195	N	0.182055	1.284527	-0.081878
H196	H	0.164533	1.377261	-0.113695
N197	N	0.166320	1.020907	-0.129641
N198	N	0.162013	0.925951	-0.092297
H199	H	0.159360	0.885590	-0.120382
H200	H	1.115554	0.592665	0.078026
H201	H	0.230432	1.179215	-0.131561
N202	N	0.295784	1.010714	-0.125292
N203	N	0.368618	0.913451	-0.084812
H204	H	0.401696	0.867785	-0.109931
N205	N	0.853623	1.020977	-0.569175
N206	N	0.869606	1.087699	-0.627068
H207	H	0.927218	1.047375	-0.629722
H208	H	0.113307	1.182861	-0.128636
H209	H	0.762536	0.807548	-0.486270
N210	N	0.870747	0.793077	-0.484918
N211	N	0.885453	0.776647	-0.540525
H212	H	0.944097	0.727179	-0.539045
N213	N	0.608709	1.014451	-0.439702
N214	N	0.648165	0.918548	-0.366374
H215	H	0.622004	0.875051	-0.333181
H216	H	0.739733	1.179234	-0.505051
N217	N	0.856728	1.010754	-0.439718
N218	N	0.887405	0.913490	-0.366889
H219	H	0.945927	0.867838	-0.333818
N220	N	0.724489	1.209552	-0.636628
N221	N	0.663870	1.249732	-0.688786
H222	H	0.630276	1.342592	-0.739085
H223	H	1.086806	0.418276	-0.078298
H224	H	0.813559	0.592708	0.380021
