data_functionalizedCrystal
_audit_creation_method	'MofGen! by Chris Wilmer'
_symmetry_space_group_name_H-M	'P1'
_symmetry_Int_Tables_number	1
_symmetry_cell_setting	triclinic
loop_
_symmetry_equiv_pos_as_xyz
  x,y,z
_cell_length_a	17.699083
_cell_length_b	12.503572
_cell_length_c	17.699083
_cell_angle_alpha	93.515225
_cell_angle_beta	96.716985
_cell_angle_gamma	93.505083
loop_
_atom_site_label
_atom_site_type_symbol
_atom_site_fract_x
_atom_site_fract_y
_atom_site_fract_z
O1	O	1.008441	0.089171	-0.091332
O2	O	0.788064	0.089207	-0.103783
O3	O	0.904478	0.089179	0.012631
O4	O	0.892027	0.089200	-0.207746
O5	O	0.895723	-0.089461	0.003862
O6	O	0.779309	-0.089433	-0.112552
O7	O	0.999686	-0.089468	-0.100101
Cu8	Cu	0.888698	-0.105762	-0.107128
Cu9	Cu	0.899052	0.105500	-0.096757
O10	O	0.883272	-0.089440	-0.216516
C11	C	0.755490	-0.000109	-0.107721
C12	C	0.671473	-0.000095	-0.106382
N13	N	0.881421	-0.254352	-0.114421
C14	C	0.622852	-0.000089	-0.174715
C15	C	0.543908	-0.000103	-0.173453
C16	C	0.513587	-0.000116	-0.103857
C17	C	0.562213	-0.000125	-0.035519
C18	C	0.641155	-0.000119	-0.036782
C19	C	0.243849	-0.000152	-0.030425
C20	C	0.164901	-0.000155	-0.029168
C21	C	0.146602	-0.000137	-0.167097
C22	C	0.225544	-0.000130	-0.168359
C23	C	0.274163	-0.000145	-0.100022
C24	C	0.359763	-0.000132	-0.101391
C25	C	0.427989	-0.000121	-0.102487
C26	C	0.870717	-0.473465	-0.125157
C27	C	0.917037	-0.526803	-0.078723
C28	C	0.911081	-0.648725	-0.084697
C29	C	0.876672	-0.351532	-0.119185
C30	C	1.032260	-0.000151	-0.096163
C31	C	1.116278	-0.000157	-0.097502
C32	C	0.899655	-0.000141	0.036444
C33	C	0.898316	-0.000142	0.120462
N34	N	0.906335	0.254091	-0.089457
C35	C	0.888096	-0.000118	-0.240328
C36	C	0.889435	-0.000111	-0.324345
C37	C	0.966649	-0.000154	0.169082
C38	C	0.965387	-0.000144	0.248026
C39	C	0.895791	-0.000130	0.278347
C40	C	0.827453	-0.000114	0.229721
C41	C	0.828716	-0.000116	0.150779
C42	C	0.822359	-0.000105	0.548084
C43	C	0.821101	-0.000106	0.627032
C44	C	0.959029	-0.000133	0.645331
C45	C	0.960292	-0.000135	0.566389
C46	C	0.891955	-0.000113	0.517770
C47	C	0.893324	-0.000122	0.432171
C48	C	0.894421	-0.000129	0.363945
H49	H	0.647533	-0.000078	-0.231388
C50	C	1.043205	-0.000170	0.135735
H51	H	1.083721	-0.000166	0.176002
H52	H	1.043514	-0.062466	0.102265
H53	H	1.049618	0.062133	0.108377
H54	H	1.021031	-0.000157	0.287610
H55	H	0.961167	-0.480901	-0.034484
H56	H	0.283426	-0.000165	0.025219
H57	H	0.766714	-0.000087	0.508508
C58	C	0.811090	-0.535462	-0.184904
H59	H	0.782800	-0.485966	-0.213247
H60	H	0.836189	-0.579346	-0.218444
H61	H	0.777478	-0.579319	-0.159870
H62	H	0.770788	-0.000095	0.254415
H63	H	0.250227	-0.000115	-0.225031
C64	C	1.036847	-0.000146	0.533040
H65	H	1.077365	-0.000141	0.573304
H66	H	1.037157	-0.062440	0.499568
H67	H	1.043256	0.062159	0.505683
H68	H	1.014673	-0.000145	0.684927
C69	C	0.093117	-0.000134	-0.242268
H70	H	0.041759	-0.000152	-0.231553
H71	H	0.105340	0.062166	-0.267753
H72	H	0.099252	-0.062433	-0.273870
H73	H	0.504324	-0.000097	-0.229097
H74	H	0.773073	-0.000106	0.111192
C75	C	0.131548	-0.000180	0.047391
H76	H	0.171809	-0.000199	0.087909
H77	H	0.104180	0.062113	0.053812
H78	H	0.098086	-0.062486	0.047682
C79	C	0.528862	-0.000137	0.041035
H80	H	0.474884	-0.000128	0.032002
H81	H	0.542512	-0.062434	0.066108
H82	H	0.548608	0.062165	0.072221
H83	H	0.680742	-0.000123	0.018862
C84	C	0.744543	-0.000076	0.660385
H85	H	0.704024	-0.000051	0.620124
H86	H	0.738124	-0.062369	0.687745
H87	H	0.744248	0.062231	0.693856
