data_functionalizedCrystal
_audit_creation_method	'MofGen! by Chris Wilmer'
_symmetry_space_group_name_H-M	'P1'
_symmetry_Int_Tables_number	1
_symmetry_cell_setting	triclinic
loop_
_symmetry_equiv_pos_as_xyz
  x,y,z
_cell_length_a	25.639242
_cell_length_b	21.295417
_cell_length_c	21.295411
_cell_angle_alpha	89.978356
_cell_angle_beta	90.033308
_cell_angle_gamma	89.973967
loop_
_atom_site_label
_atom_site_type_symbol
_atom_site_fract_x
_atom_site_fract_y
_atom_site_fract_z
Zn1	Zn	0.799312	0.250756	0.356058
Zn2	Zn	1.049312	0.500756	0.606058
Zn3	Zn	1.299312	0.750756	0.856058
Zn4	Zn	1.549312	1.000756	1.106058
Zn5	Zn	0.799231	0.356008	0.250784
Zn6	Zn	1.049231	0.606008	0.500784
Zn7	Zn	1.299231	0.856008	0.750784
Zn8	Zn	1.549231	1.106008	1.000784
Zn9	Zn	0.711872	0.250748	0.250787
Zn10	Zn	0.961872	0.500748	0.500787
Zn11	Zn	1.211872	0.750748	0.750787
Zn12	Zn	1.461872	1.000748	1.000787
Zn13	Zn	0.711846	0.355983	0.355999
Zn14	Zn	0.961846	0.605983	0.605999
Zn15	Zn	1.211846	0.855983	0.855999
Zn16	Zn	1.461846	1.105983	1.105999
O17	O	0.755565	0.303374	0.303407
O18	O	1.005565	0.553374	0.553407
O19	O	1.255565	0.803374	0.803407
O20	O	1.505565	1.053374	1.053407
O21	O	0.872467	0.264731	0.342117
O22	O	1.122467	0.514731	0.592117
O23	O	1.372467	0.764731	0.842117
O24	O	1.622467	1.014731	1.092117
O25	O	0.787620	0.342052	0.162695
O26	O	1.037620	0.592052	0.412695
O27	O	1.287620	0.842052	0.662695
O28	O	1.537620	1.092052	0.912695
O29	O	0.723515	0.162660	0.264778
O30	O	0.973515	0.412660	0.514778
O31	O	1.223515	0.662660	0.764778
O32	O	1.473515	0.912660	1.014778
O33	O	0.872407	0.342060	0.264772
O34	O	1.122407	0.592060	0.514772
O35	O	1.372407	0.842060	0.764772
O36	O	1.622407	1.092060	1.014772
O37	O	0.787758	0.162666	0.342120
O38	O	1.037758	0.412666	0.592120
O39	O	1.287758	0.662666	0.842120
O40	O	1.537758	0.912666	1.092120
O41	O	0.723437	0.264718	0.162697
O42	O	0.973437	0.514718	0.412697
O43	O	1.223437	0.764718	0.662697
O44	O	1.473437	1.014718	0.912697
O45	O	0.638703	0.264694	0.264721
O46	O	0.888703	0.514694	0.514721
O47	O	1.138703	0.764694	0.764721
O48	O	1.388703	1.014694	1.014721
O49	O	0.723472	0.342017	0.444097
O50	O	0.973472	0.592017	0.694097
O51	O	1.223472	0.842017	0.944097
O52	O	1.473472	1.092017	1.194097
O53	O	0.638684	0.342010	0.342020
O54	O	0.888684	0.592010	0.592020
O55	O	1.138684	0.842010	0.842020
O56	O	1.388684	1.092010	1.092020
O57	O	0.787733	0.264707	0.444140
O58	O	1.037733	0.514707	0.694140
O59	O	1.287733	0.764707	0.944140
O60	O	1.537733	1.014707	1.194140
O61	O	0.787595	0.444094	0.264715
O62	O	1.037595	0.694094	0.514715
O63	O	1.287595	0.944094	0.764715
O64	O	1.537595	1.194094	1.014715
O65	O	0.723393	0.444076	0.342016
O66	O	0.973393	0.694076	0.592016
O67	O	1.223393	0.944076	0.842016
O68	O	1.473393	1.194076	1.092016
C69	C	0.619723	0.303349	0.303364
C70	C	0.869723	0.553349	0.553364
C71	C	1.119723	0.803349	0.803364
C72	C	1.369723	1.053349	1.053364
C73	C	0.561609	0.303354	0.303361
C74	C	0.811609	0.553354	0.553361
C75	C	1.061609	0.803354	0.803361
C76	C	1.311609	1.053354	1.053361
C77	C	0.755497	0.466925	0.303372
C78	C	1.005497	0.716925	0.553372
C79	C	1.255497	0.966925	0.803372
C80	C	1.505497	1.216925	1.053372
C81	C	0.755515	0.536894	0.303378
C82	C	1.005515	0.786894	0.553378
C83	C	1.255515	1.036894	0.803378
C84	C	1.505515	1.286894	1.053378
C85	C	0.755648	0.139184	0.303456
C86	C	1.005648	0.389184	0.553456
C87	C	1.255648	0.639184	0.803456
C88	C	1.505648	0.889184	1.053456
C89	C	0.755684	0.069215	0.303477
C90	C	1.005684	0.319215	0.553477
C91	C	1.255684	0.569215	0.803477
C92	C	1.505684	0.819215	1.053477
C93	C	0.201245	0.343699	0.343619
C94	C	0.451245	0.593699	0.593619
C95	C	0.701245	0.843699	0.843619
C96	C	0.951245	1.093699	1.093619
C97	C	0.146641	0.343703	0.343628
C98	C	0.396641	0.593703	0.593628
C99	C	0.646641	0.843703	0.843628
C100	C	0.896641	1.093703	1.093628
O101	O	0.118403	0.377976	0.377821
O102	O	0.368403	0.627976	0.627821
O103	O	0.618403	0.877976	0.877821
O104	O	0.868403	1.127976	1.127821
N105	N	0.119326	0.303391	0.303448
N106	N	0.369326	0.553391	0.553448
N107	N	0.619326	0.803391	0.803448
N108	N	0.869326	1.053391	1.053448
C109	C	0.146619	0.263068	0.263260
C110	C	0.396619	0.513068	0.513260
C111	C	0.646619	0.763068	0.763260
C112	C	0.896619	1.013068	1.013260
O113	O	0.118372	0.228780	0.229085
O114	O	0.368372	0.478780	0.479085
O115	O	0.618372	0.728780	0.729085
O116	O	0.868372	0.978780	0.979085
C117	C	0.201222	0.263062	0.263254
C118	C	0.451222	0.513062	0.513254
C119	C	0.701222	0.763062	0.763254
C120	C	0.951222	1.013062	1.013254
C121	C	0.228534	0.303381	0.303432
C122	C	0.478534	0.553381	0.553432
C123	C	0.728534	0.803381	0.803432
C124	C	0.978534	1.053381	1.053432
C125	C	0.228556	0.384015	0.383794
C126	C	0.478556	0.634015	0.633794
C127	C	0.728556	0.884015	0.883794
C128	C	0.978556	1.134015	1.133794
C129	C	0.283157	0.384011	0.383783
C130	C	0.533157	0.634011	0.633783
C131	C	0.783157	0.884011	0.883783
C132	C	1.033157	1.134011	1.133783
C133	C	0.310446	0.343693	0.343597
C134	C	0.560446	0.593693	0.593597
C135	C	0.810446	0.843693	0.843597
C136	C	1.060446	1.093693	1.093597
C137	C	0.283134	0.303378	0.303421
C138	C	0.533134	0.553378	0.553421
C139	C	0.783134	0.803378	0.803421
C140	C	1.033134	1.053378	1.053421
C141	C	0.228514	0.222736	0.223069
C142	C	0.478514	0.472736	0.473069
C143	C	0.728514	0.722736	0.723069
C144	C	0.978514	0.972736	0.973069
C145	C	0.283121	0.222732	0.223067
C146	C	0.533121	0.472732	0.473067
C147	C	0.783121	0.722732	0.723067
C148	C	1.033121	0.972732	0.973067
C149	C	0.310433	0.263052	0.263245
C150	C	0.560433	0.513052	0.513245
C151	C	0.810433	0.763052	0.763245
C152	C	1.060433	1.013052	1.013245
C153	C	0.365024	0.263056	0.263224
C154	C	0.615024	0.513056	0.513224
C155	C	0.865024	0.763056	0.763224
C156	C	1.115024	1.013056	1.013224
N157	N	0.392338	0.303368	0.303404
N158	N	0.642338	0.553368	0.553404
N159	N	0.892338	0.803368	0.803404
N160	N	1.142338	1.053368	1.053404
C161	C	0.365049	0.343686	0.343590
C162	C	0.615049	0.593686	0.593590
C163	C	0.865049	0.843686	0.843590
C164	C	1.115049	1.093686	1.093590
C165	C	0.031949	0.263084	0.263277
C166	C	0.281949	0.513084	0.513277
C167	C	0.531949	0.763084	0.763277
C168	C	0.781949	1.013084	1.013277
C169	C	-0.022654	0.263093	0.263280
C170	C	0.227346	0.513093	0.513280
C171	C	0.477346	0.763093	0.763280
C172	C	0.727346	1.013093	1.013280
C173	C	-0.022629	0.343728	0.343649
C174	C	0.227371	0.593728	0.593649
C175	C	0.477371	0.843728	0.843649
C176	C	0.727371	1.093728	1.093649
C177	C	0.031975	0.343721	0.343643
C178	C	0.281975	0.593721	0.593643
C179	C	0.531975	0.843721	0.843643
C180	C	0.781975	1.093721	1.093643
C181	C	0.059263	0.303396	0.303457
C182	C	0.309263	0.553396	0.553457
C183	C	0.559263	0.803396	0.803457
C184	C	0.809263	1.053396	1.053457
C185	C	0.479714	0.343677	0.343564
C186	C	0.729714	0.593677	0.593564
C187	C	0.979714	0.843677	0.843564
C188	C	1.229714	1.093677	1.093564
C189	C	0.534320	0.343672	0.343548
C190	C	0.784320	0.593672	0.593548
C191	C	1.034320	0.843672	0.843548
C192	C	1.284320	1.093672	1.093548
C193	C	0.534290	0.263036	0.263181
C194	C	0.784290	0.513036	0.513181
C195	C	1.034290	0.763036	0.763181
C196	C	1.284290	1.013036	1.013181
C197	C	0.479689	0.263043	0.263195
C198	C	0.729689	0.513043	0.513195
C199	C	0.979689	0.763043	0.763195
C200	C	1.229689	1.013043	1.013195
C201	C	0.452403	0.303365	0.303391
C202	C	0.702403	0.553365	0.553391
C203	C	0.952403	0.803365	0.803391
C204	C	1.202403	1.053365	1.053391
O205	O	0.393296	0.228799	0.229051
O206	O	0.643296	0.478799	0.479051
O207	O	0.893296	0.728799	0.729051
O208	O	1.143296	0.978799	0.979051
O209	O	0.393303	0.377963	0.377766
O210	O	0.643303	0.627963	0.627766
O211	O	0.893303	0.877963	0.877766
O212	O	1.143303	1.127963	1.127766
C213	C	0.891938	0.303399	0.303450
C214	C	1.141938	0.553399	0.553450
C215	C	1.391938	0.803399	0.803450
C216	C	1.641938	1.053399	1.053450
C217	C	0.950052	0.303410	0.303469
C218	C	1.200052	0.553410	0.553469
C219	C	1.450052	0.803410	0.803469
C220	C	1.700052	1.053410	1.053469
C221	C	0.755609	0.303361	0.467597
C222	C	1.005609	0.553361	0.717597
C223	C	1.255609	0.803361	0.967597
C224	C	1.505609	1.053361	1.217597
C225	C	0.755627	0.303355	0.537566
C226	C	1.005627	0.553355	0.787566
C227	C	1.255627	0.803355	1.037566
C228	C	1.505627	1.053355	1.287566
C229	C	0.788975	0.569749	0.263169
C230	C	1.038975	0.819749	0.513169
C231	C	1.288975	1.069749	0.763169
C232	C	1.538975	1.319749	1.013169
C233	C	0.788999	0.635491	0.263183
C234	C	1.038999	0.885491	0.513183
C235	C	1.288999	1.135491	0.763183
C236	C	1.538999	1.385491	1.013183
C237	C	0.755555	0.668376	0.303400
C238	C	1.005555	0.918376	0.553400
C239	C	1.255555	1.168376	0.803400
C240	C	1.505555	1.418376	1.053400
C241	C	0.722093	0.635513	0.343618
C242	C	0.972093	0.885513	0.593618
C243	C	1.222093	1.135513	0.843618
C244	C	1.472093	1.385513	1.093618
C245	C	0.722073	0.569772	0.343607
C246	C	0.972073	0.819772	0.593607
C247	C	1.222073	1.069772	0.843607
C248	C	1.472073	1.319772	1.093607
N249	N	0.709817	0.771638	0.308185
N250	N	0.959817	1.021638	0.558185
N251	N	1.209817	1.271638	0.808185
N252	N	1.459817	1.521638	1.058185
N253	N	0.709838	0.834090	0.308191
N254	N	0.959838	1.084090	0.558191
N255	N	1.209838	1.334090	0.808191
N256	N	1.459838	1.584090	1.058191
C257	C	0.755614	0.866451	0.303436
C258	C	1.005614	1.116451	0.553436
C259	C	1.255614	1.366451	0.803436
C260	C	1.505614	1.616451	1.053436
N261	N	0.801369	0.834001	0.298662
N262	N	1.051369	1.084001	0.548662
N263	N	1.301369	1.334001	0.798662
N264	N	1.551369	1.584001	1.048662
N265	N	0.801348	0.771544	0.298652
N266	N	1.051348	1.021544	0.548652
N267	N	1.301348	1.271544	0.798652
N268	N	1.551348	1.521544	1.048652
C269	C	0.755573	0.739661	0.303417
C270	C	1.005573	0.989661	0.553417
C271	C	1.255573	1.239661	0.803417
C272	C	1.505573	1.489661	1.053417
C273	C	0.789102	0.970591	0.263240
C274	C	1.039102	1.220591	0.513240
C275	C	1.289102	1.470591	0.763240
C276	C	1.539102	1.720591	1.013240
C277	C	0.789128	1.036335	0.263258
C278	C	1.039128	1.286335	0.513258
C279	C	1.289128	1.536335	0.763258
C280	C	1.539128	1.786335	1.013258
C281	C	0.722217	1.036356	0.343690
C282	C	0.972217	1.286356	0.593690
C283	C	1.222217	1.536356	0.843690
C284	C	1.472217	1.786356	1.093690
C285	C	0.722196	0.970613	0.343674
C286	C	0.972196	1.220613	0.593674
C287	C	1.222196	1.470613	0.843674
C288	C	1.472196	1.720613	1.093674
C289	C	0.755638	0.937735	0.303446
C290	C	1.005638	1.187735	0.553446
C291	C	1.255638	1.437735	0.803446
C292	C	1.505638	1.687735	1.053446
C293	C	0.755552	0.303342	0.139856
C294	C	1.005552	0.553342	0.389856
C295	C	1.255552	0.803342	0.639856
C296	C	1.505552	1.053342	0.889856
C297	C	0.755635	0.303170	0.069888
C298	C	1.005635	0.553170	0.319888
C299	C	1.255635	0.803170	0.569888
C300	C	1.505635	1.053170	0.819888
C301	C	0.789086	0.263098	0.570456
C302	C	1.039086	0.513098	0.820456
C303	C	1.289086	0.763098	1.070456
C304	C	1.539086	1.013098	1.320456
C305	C	0.789086	0.263071	0.636198
C306	C	1.039086	0.513071	0.886198
C307	C	1.289086	0.763071	1.136198
C308	C	1.539086	1.013071	1.386198
C309	C	0.755631	0.303312	0.669048
C310	C	1.005631	0.553312	0.919048
C311	C	1.255631	0.803312	1.169048
C312	C	1.505631	1.053312	1.419048
C313	C	0.722166	0.343571	0.636150
C314	C	0.972166	0.593571	0.886150
C315	C	1.222166	0.843571	1.136150
C316	C	1.472166	1.093571	1.386150
C317	C	0.722163	0.343593	0.570409
C318	C	0.972163	0.593593	0.820409
C319	C	1.222163	0.843593	1.070409
C320	C	1.472163	1.093593	1.320409
N321	N	0.751597	0.358379	0.772263
N322	N	1.001597	0.608379	1.022263
N323	N	1.251597	0.858379	1.272263
N324	N	1.501597	1.108379	1.522263
N325	N	0.751602	0.358357	0.834714
N326	N	1.001602	0.608357	1.084714
N327	N	1.251602	0.858357	1.334714
N328	N	1.501602	1.108357	1.584714
C329	C	0.755635	0.303248	0.867123
C330	C	1.005635	0.553248	1.117123
C331	C	1.255635	0.803248	1.367123
C332	C	1.505635	1.053248	1.617123
N333	N	0.759672	0.248161	0.834721
N334	N	1.009672	0.498161	1.084721
N335	N	1.259672	0.748161	1.334721
N336	N	1.509672	0.998161	1.584721
N337	N	0.759670	0.248184	0.772264
N338	N	1.009670	0.498184	1.022264
N339	N	1.259670	0.748184	1.272264
N340	N	1.509670	0.998184	1.522264
C341	C	0.755630	0.303292	0.740334
C342	C	1.005630	0.553292	0.990334
C343	C	1.255630	0.803292	1.240334
C344	C	1.505630	1.053292	1.490334
C345	C	0.789095	0.262958	0.971299
C346	C	1.039095	0.512958	1.221299
C347	C	1.289095	0.762958	1.471299
C348	C	1.539095	1.012958	1.721299
C349	C	0.789090	0.262929	1.037043
C350	C	1.039090	0.512929	1.287043
C351	C	1.289090	0.762929	1.537043
C352	C	1.539090	1.012929	1.787043
C353	C	0.722173	0.343436	1.036993
C354	C	0.972173	0.593436	1.286993
C355	C	1.222173	0.843436	1.536993
C356	C	1.472173	1.093436	1.786993
C357	C	0.722175	0.343459	0.971250
C358	C	0.972175	0.593459	1.221250
C359	C	1.222175	0.843459	1.471250
C360	C	1.472175	1.093459	1.721250
C361	C	0.755638	0.303220	0.938407
C362	C	1.005638	0.553220	1.188407
C363	C	1.255638	0.803220	1.438407
C364	C	1.505638	1.053220	1.688407
H365	H	0.556554	0.376507	0.376266
H366	H	0.806554	0.626507	0.626266
H367	H	1.056554	0.876507	0.876266
H368	H	1.306554	1.126507	1.126266
H369	H	0.816336	0.230143	1.063821
H370	H	1.066336	0.480143	1.313821
H371	H	1.316336	0.730143	1.563821
H372	H	1.566336	0.980143	1.813821
F373	F	0.824700	0.220270	0.535505
F374	F	1.074700	0.470270	0.785505
F375	F	1.324700	0.720270	1.035505
F376	F	1.574700	0.970270	1.285505
H377	H	-0.044886	0.230268	0.230556
H378	H	0.205114	0.480268	0.480556
H379	H	0.455114	0.730268	0.730556
H380	H	0.705114	0.980268	0.980556
H381	H	0.054208	0.376552	0.376361
H382	H	0.304208	0.626552	0.626361
H383	H	0.554208	0.876552	0.876361
H384	H	0.804208	1.126552	1.126361
H385	H	0.556518	0.230211	0.230460
H386	H	0.806518	0.480211	0.480460
H387	H	1.056518	0.730211	0.730460
H388	H	1.306518	0.980211	0.980460
F389	F	0.686501	0.670512	0.386422
F390	F	0.936501	0.920512	0.636422
F391	F	1.186501	1.170512	0.886422
F392	F	1.436501	1.420512	1.136422
H393	H	0.694928	0.376194	1.063739
H394	H	0.944928	0.626194	1.313739
H395	H	1.194928	0.876194	1.563739
H396	H	1.444928	1.126194	1.813739
H397	H	-0.044857	0.376555	0.376373
H398	H	0.205143	0.626555	0.626373
H399	H	0.455143	0.876555	0.876373
H400	H	0.705143	1.126555	1.126373
F401	F	0.686460	0.534804	0.386405
F402	F	0.936460	0.784804	0.636405
F403	F	1.186460	1.034804	0.886405
F404	F	1.436460	1.284804	1.136405
H405	H	0.694932	0.376244	0.944471
H406	H	0.944932	0.626244	1.194471
H407	H	1.194932	0.876244	1.444471
H408	H	1.444932	1.126244	1.694471
F409	F	0.060986	0.220166	0.220499
F410	F	0.310986	0.470166	0.470499
F411	F	0.560986	0.720166	0.720499
F412	F	0.810986	0.970166	0.970499
H413	H	0.816334	0.943821	0.230485
H414	H	1.066334	1.193821	0.480485
H415	H	1.316334	1.443821	0.730485
H416	H	1.566334	1.693821	0.980485
F417	F	0.824707	0.220131	0.936342
F418	F	1.074707	0.470131	1.186342
F419	F	1.324707	0.720131	1.436342
F420	F	1.574707	0.970131	1.686342
F421	F	0.824612	0.670465	0.220384
F422	F	1.074612	0.920465	0.470384
F423	F	1.324612	1.170465	0.720384
F424	F	1.574612	1.420465	0.970384
F425	F	0.824745	1.071302	0.220464
F426	F	1.074745	1.321302	0.470464
F427	F	1.324745	1.571302	0.720464
F428	F	1.574745	1.821302	0.970464
F429	F	0.199459	0.179819	0.180308
F430	F	0.449459	0.429819	0.430308
F431	F	0.699459	0.679819	0.680308
F432	F	0.949459	0.929819	0.930308
F433	F	0.824690	0.220211	0.671210
F434	F	1.074690	0.470211	0.921210
F435	F	1.324690	0.720211	1.171210
F436	F	1.574690	0.970211	1.421210
H437	H	0.457504	0.376510	0.376297
H438	H	0.707504	0.626510	0.626297
H439	H	0.957504	0.876510	0.876297
H440	H	1.207504	1.126510	1.126297
H441	H	0.305389	0.416842	0.416502
H442	H	0.555389	0.666842	0.666502
H443	H	0.805389	0.916842	0.916502
H444	H	1.055389	1.166842	1.166502
H445	H	0.457451	0.230213	0.230477
H446	H	0.707451	0.480213	0.480477
H447	H	0.957451	0.730213	0.730477
H448	H	1.207451	0.980213	0.980477
F449	F	0.199521	0.426930	0.426570
F450	F	0.449521	0.676930	0.676570
F451	F	0.699521	0.926930	0.926570
F452	F	0.949521	1.176930	1.176570
H453	H	0.305337	0.189890	0.190346
H454	H	0.555337	0.439890	0.440346
H455	H	0.805337	0.689890	0.690346
H456	H	1.055337	0.939890	0.940346
H457	H	0.816206	0.542981	0.230414
H458	H	1.066206	0.792981	0.480414
H459	H	1.316206	1.042981	0.730414
H460	H	1.566206	1.292981	0.980414
F461	F	0.686626	1.071350	0.386496
F462	F	0.936626	1.321350	0.636496
F463	F	1.186626	1.571350	0.886496
F464	F	1.436626	1.821350	1.136496
F465	F	0.686559	0.386397	0.671112
F466	F	0.936559	0.636397	0.921112
F467	F	1.186559	0.886397	1.171112
F468	F	1.436559	1.136397	1.421112
H469	H	0.694948	0.943861	0.376414
H470	H	0.944948	1.193861	0.626414
H471	H	1.194948	1.443861	0.876414
H472	H	1.444948	1.693861	1.126414
F473	F	0.686550	0.386442	0.535404
F474	F	0.936550	0.636442	0.785404
F475	F	1.186550	0.886442	1.035404
F476	F	1.436550	1.136442	1.285404
