data_functionalizedCrystal
_audit_creation_method	'MofGen! by Chris Wilmer'
_symmetry_space_group_name_H-M	'P1'
_symmetry_Int_Tables_number	1
_symmetry_cell_setting	triclinic
loop_
_symmetry_equiv_pos_as_xyz
  x,y,z
_cell_length_a	17.699104
_cell_length_b	12.811415
_cell_length_c	16.776229
_cell_angle_alpha	84.562504
_cell_angle_beta	89.991971
_cell_angle_gamma	83.669063
loop_
_atom_site_label
_atom_site_type_symbol
_atom_site_fract_x
_atom_site_fract_y
_atom_site_fract_z
O1	O	1.004664	0.132836	-0.075905
O2	O	0.784365	0.150082	-0.077150
O3	O	0.900056	-0.011348	-0.065478
O4	O	0.888973	0.294266	-0.087577
O5	O	0.900040	-0.011357	0.067099
O6	O	0.784349	0.150072	0.055427
O7	O	1.004648	0.132826	0.056672
Zn8	Zn	0.894496	0.141448	0.077099
Zn9	Zn	0.894517	0.141461	-0.097577
O10	O	0.888957	0.294256	0.045000
C11	C	0.756158	0.149455	-0.010816
C12	C	0.672132	0.147590	-0.010680
C13	C	0.147638	0.231828	-0.016780
C14	C	0.226590	0.233574	-0.016909
C15	C	0.274783	0.138809	-0.010056
C16	C	0.244021	0.042291	-0.003082
C17	C	0.165070	0.040546	-0.002959
C18	C	0.562418	0.049326	-0.003578
C19	C	0.641373	0.051079	-0.003699
C20	C	0.623938	0.242354	-0.017527
C21	C	0.544988	0.240610	-0.017405
C22	C	0.514232	0.144093	-0.010435
C23	C	0.428624	0.142200	-0.010297
C24	C	0.360390	0.140700	-0.010188
C25	C	0.899427	-0.050455	0.003636
C26	C	0.897566	-0.166969	0.012057
C27	C	0.894073	-0.385889	-0.116673
C28	C	0.892325	-0.495365	-0.108765
C29	C	0.892316	-0.495396	0.035779
C30	C	0.894064	-0.385921	0.027871
C31	C	0.894944	-0.331172	-0.048357
C32	C	0.896697	-0.221695	-0.056264
C33	C	0.896683	-0.221728	0.088280
C34	C	0.894935	-0.331203	0.096187
C35	C	1.032856	0.133453	-0.009664
C36	C	1.116881	0.135318	-0.009805
C37	C	0.889586	0.333364	-0.024116
C38	C	0.891447	0.449878	-0.032542
N39	N	0.894488	0.141438	0.196311
N40	N	0.894531	0.141462	-0.216788
C41	C	0.945732	0.069986	0.243194
C42	C	0.945736	0.069985	0.326647
C43	C	0.894499	0.141442	0.363214
C44	C	0.843250	0.212897	0.316324
C45	C	0.843243	0.212892	0.232874
C46	C	0.843278	0.212918	0.652870
C47	C	0.843290	0.212919	0.736326
C48	C	0.945771	0.070011	0.746643
C49	C	0.945763	0.070006	0.663192
C50	C	0.894512	0.141457	0.616311
C51	C	0.894507	0.141456	0.525822
C52	C	0.894507	0.141449	0.453700
H53	H	0.505752	0.317777	-0.022981
C54	C	0.959376	-0.376887	0.222681
C55	C	0.893971	-0.391385	0.179977
H56	H	0.958778	-0.414034	0.274411
H57	H	1.003162	-0.402940	0.194864
H58	H	0.960534	-0.303852	0.227739
H59	H	0.892815	-0.464420	0.174913
H60	H	0.850172	-0.365337	0.207800
C61	C	1.047027	-0.071284	0.261783
C62	C	1.002052	-0.008565	0.203004
H63	H	1.081793	-0.119784	0.236972
H64	H	1.074389	-0.027636	0.291162
H65	H	1.015400	-0.108980	0.297071
H66	H	1.033679	0.029138	0.167719
H67	H	0.974689	-0.052218	0.173612
H68	H	0.987462	0.011803	0.364819
H69	H	0.987487	0.011823	0.633422
C70	C	0.305241	0.346516	-0.093256
C71	C	0.260385	0.339671	-0.024598
H72	H	0.326096	0.412025	-0.098012
H73	H	0.345246	0.290347	-0.089185
H74	H	0.274797	0.341836	-0.139137
H75	H	0.290831	0.344344	0.021285
H76	H	0.220375	0.395856	-0.028663
H77	H	0.648988	0.320944	-0.023206
H78	H	0.680611	-0.026095	0.001879
C79	C	0.899359	-0.053926	0.140345
C80	C	0.897638	-0.161579	0.163379
H81	H	0.899946	-0.016795	0.186708
H82	H	0.943727	-0.044098	0.109943
H83	H	0.855562	-0.027874	0.108771
H84	H	0.941438	-0.187633	0.194948
H85	H	0.853265	-0.171414	0.193794
C86	C	0.961761	-0.072874	0.850824
C87	C	1.002101	-0.008543	0.798179
H88	H	0.996537	-0.121370	0.882635
H89	H	0.931255	-0.030319	0.884541
H90	H	0.930142	-0.110575	0.820995
H91	H	1.033716	0.029164	0.828008
H92	H	1.032620	-0.051104	0.764458
H93	H	0.283266	-0.034868	0.002493
H94	H	0.891593	-0.539991	0.097841
C95	C	0.827255	0.355756	0.128680
C96	C	0.786917	0.291435	0.181334
H97	H	0.792478	0.404239	0.096860
H98	H	0.858870	0.393464	0.158497
H99	H	0.857766	0.313185	0.094966
H100	H	0.756410	0.334006	0.215052
H101	H	0.755289	0.253725	0.151515
H102	H	0.801529	0.271075	0.346102
H103	H	0.140030	-0.038042	0.002719
H104	H	0.537387	-0.029263	0.002099
H105	H	0.801565	0.271110	0.766097
H106	H	0.801548	0.271098	0.614705
H107	H	0.108404	0.308997	-0.022354
H108	H	0.894796	-0.341313	-0.178741
C109	C	0.826801	-0.517082	-0.230383
C110	C	0.891361	-0.555515	-0.183858
H111	H	0.826207	-0.554215	-0.276745
H112	H	0.782442	-0.526920	-0.199970
H113	H	0.827979	-0.444048	-0.245999
H114	H	0.890181	-0.628548	-0.168237
H115	H	0.935732	-0.545687	-0.214277
H116	H	0.897416	-0.177120	-0.118333
