data_functionalizedCrystal
_audit_creation_method	'MofGen! by Chris Wilmer'
_symmetry_space_group_name_H-M	'P1'
_symmetry_Int_Tables_number	1
_symmetry_cell_setting	triclinic
loop_
_symmetry_equiv_pos_as_xyz
  x,y,z
_cell_length_a	10.654562
_cell_length_b	27.731996
_cell_length_c	9.730223
_cell_angle_alpha	89.992740
_cell_angle_beta	89.996961
_cell_angle_gamma	83.555745
loop_
_atom_site_label
_atom_site_type_symbol
_atom_site_fract_x
_atom_site_fract_y
_atom_site_fract_z
O1	O	1.664937	0.067915	-0.114400
O2	O	1.299186	0.074376	-0.114385
O3	O	1.493455	0.000818	-0.114363
O4	O	1.470668	0.141473	-0.114422
O5	O	1.493452	0.000820	0.114216
O6	O	1.299183	0.074378	0.114195
O7	O	1.664934	0.067916	0.114180
Zn8	Zn	1.482059	0.071147	0.150479
Zn9	Zn	1.482062	0.071145	-0.150685
O10	O	1.470665	0.141474	0.114158
C11	C	1.252407	0.073901	-0.000093
C12	C	1.113025	0.072478	-0.000086
C13	C	1.047521	0.071815	0.124503
C14	C	0.916556	0.070482	0.124480
C15	C	0.916608	0.070476	-0.124730
C16	C	1.047573	0.071806	-0.124706
C17	C	1.047489	0.071820	0.268383
C18	C	0.916523	0.070487	0.268360
C19	C	1.492985	-0.017192	-0.000069
C20	C	1.491576	-0.070857	-0.000055
C21	C	1.482706	-0.403629	-0.124720
C22	C	1.477352	-0.605321	-0.124744
O23	O	1.476607	-0.631397	-0.230712
N24	N	1.476686	-0.630541	-0.000147
C25	C	1.477350	-0.605335	0.124466
O26	O	1.476647	-0.631414	0.230444
C27	C	1.482695	-0.403644	0.124489
C28	C	1.483374	-0.378427	-0.000117
C29	C	1.483384	-0.378412	-0.249316
C30	C	1.484729	-0.327993	-0.249309
C31	C	1.485397	-0.302790	-0.124706
C32	C	1.484719	-0.328007	-0.000110
C33	C	1.483350	-0.378438	0.249100
C34	C	1.484683	-0.328012	0.249094
C35	C	1.485362	-0.302795	0.124488
C36	C	1.486732	-0.252385	0.124500
N37	N	1.487398	-0.227165	-0.000098
C38	C	1.486731	-0.252367	-0.124701
C39	C	1.474546	-0.711226	0.124445
C40	C	1.473212	-0.761649	0.124440
C41	C	1.473212	-0.761631	-0.124771
C42	C	1.474555	-0.711208	-0.124764
C43	C	1.475212	-0.686006	-0.000152
C44	C	1.489557	-0.146483	-0.124676
C45	C	1.490908	-0.096059	-0.124658
C46	C	1.490901	-0.096081	0.124552
C47	C	1.489557	-0.146501	0.124535
C48	C	1.488881	-0.171700	-0.000090
O49	O	1.487464	-0.226277	0.230412
O50	O	1.487405	-0.226279	-0.230662
C51	C	1.481361	-0.454049	-0.124728
C52	C	1.480683	-0.479266	-0.000132
C53	C	1.481351	-0.454064	0.124471
C54	C	1.479349	-0.529689	-0.000137
C55	C	1.478682	-0.554891	-0.124740
C56	C	1.479348	-0.529671	-0.249338
C57	C	1.480693	-0.479251	-0.249331
C58	C	1.480685	-0.479284	0.249069
C59	C	1.479341	-0.529704	0.249052
C60	C	1.478673	-0.554906	0.124448
C61	C	1.711713	0.068391	-0.000116
C62	C	1.851095	0.069814	-0.000132
C63	C	1.471135	0.159484	-0.000140
C64	C	1.472545	0.213149	-0.000163
N65	N	1.482066	0.071149	0.356016
N66	N	1.482064	0.071140	-0.356221
C67	C	1.568109	0.038588	0.427951
C68	C	1.568106	0.038583	0.571834
C69	C	1.396011	0.103702	0.571833
C70	C	1.396010	0.103705	0.427953
C71	C	1.667471	0.000994	0.427953
C72	C	1.667468	0.000988	0.571836
H73	H	0.888434	0.035237	0.313021
H74	H	1.482799	-0.398962	0.350567
N75	N	1.084680	0.118514	0.327497
H76	H	1.054078	0.122194	0.425581
H77	H	1.179649	0.117761	0.325262
N78	N	1.485388	-0.300830	0.383500
H79	H	1.484755	-0.324459	0.462427
H80	H	1.563818	-0.283570	0.388938
H81	H	1.638448	-0.034120	0.616468
N82	N	1.481424	-0.452105	0.383468
H83	H	1.404114	-0.427524	0.389049
H84	H	1.480847	-0.475769	0.462310
H85	H	0.868816	0.103891	0.323582
N86	N	1.491646	-0.068861	-0.259059
H87	H	1.491015	-0.092481	-0.337992
H88	H	1.414331	-0.044279	-0.264487
H89	H	1.095169	0.038418	0.323649
N90	N	1.303184	0.138815	0.350362
H91	H	1.248670	0.159436	0.417770
H92	H	1.350808	0.160361	0.290651
N93	N	1.303194	0.138813	0.649423
H94	H	1.316247	0.133870	0.751487
H95	H	1.317007	0.173156	0.624271
H96	H	1.489000	-0.166994	-0.226158
N97	N	1.491609	-0.068896	0.258946
H98	H	1.569241	-0.081330	0.313430
H99	H	1.492508	-0.033133	0.239925
N100	N	1.481386	-0.452064	-0.383743
H101	H	1.404061	-0.427489	-0.389291
H102	H	1.559855	-0.434829	-0.389262
H103	H	1.485277	-0.307465	-0.350776
N104	N	1.482735	-0.405583	-0.383737
H105	H	1.405124	-0.393148	-0.438254
H106	H	1.560919	-0.400433	-0.438028
N107	N	1.641165	-0.048215	0.376226
H108	H	1.629418	-0.070176	0.456923
H109	H	1.561873	-0.044564	0.318526
N110	N	1.787584	0.016588	0.368811
H111	H	1.845621	0.024120	0.446062
H112	H	1.830831	-0.010437	0.310361
N113	N	1.475287	-0.684011	-0.259158
H114	H	1.474666	-0.707633	-0.338087
H115	H	1.397966	-0.659433	-0.264591
N116	N	1.472494	-0.788818	-0.259167
H117	H	1.471546	-0.824586	-0.240251
H118	H	1.394848	-0.776345	-0.313569
H119	H	1.472679	-0.782177	0.225907
N120	N	1.478621	-0.556900	0.383457
H121	H	1.479246	-0.533278	0.462386
H122	H	1.400187	-0.574159	0.388886
H123	H	1.100904	0.072338	-0.226158
H124	H	1.475088	-0.690711	0.225925
H125	H	1.763627	0.009271	0.610879
H126	H	0.863301	0.069929	-0.226191
H127	H	1.489016	-0.167034	0.225999
H128	H	1.478810	-0.550200	-0.350794
