data_functionalizedCrystal
_audit_creation_method	'MofGen! by Chris Wilmer'
_symmetry_space_group_name_H-M	'P1'
_symmetry_Int_Tables_number	1
_symmetry_cell_setting	triclinic
loop_
_symmetry_equiv_pos_as_xyz
  x,y,z
_cell_length_a	8.559649
_cell_length_b	8.597340
_cell_length_c	7.088929
_cell_angle_alpha	76.045281
_cell_angle_beta	84.655564
_cell_angle_gamma	102.374922
loop_
_atom_site_label
_atom_site_type_symbol
_atom_site_fract_x
_atom_site_fract_y
_atom_site_fract_z
O1	O	0.219480	-2.074465	0.182748
O2	O	0.245569	-1.606585	0.105671
O3	O	-0.000135	-1.881746	0.151003
O4	O	0.465185	-1.799304	0.137416
O5	O	-0.033046	-1.918527	0.475038
O6	O	0.212659	-1.643366	0.429706
O7	O	0.186570	-2.111247	0.506783
Cu8	Cu	0.196610	-1.880665	0.497831
Cu9	Cu	0.235529	-1.837166	0.114623
O10	O	0.432274	-1.836085	0.461451
C11	C	0.228145	-1.565631	0.257912
C12	C	0.225241	-1.388806	0.228782
C13	C	-0.076129	-1.906384	0.314047
C14	C	-0.253534	-1.924980	0.317101
C15	C	0.203994	-2.152200	0.354538
C16	C	0.206900	-2.329024	0.383655
C17	C	0.508268	-1.811447	0.298403
C18	C	0.685675	-1.792850	0.295337
N19	N	0.169234	-1.911271	0.767362
N20	N	0.262892	-1.806574	-0.154905
H21	H	0.662790	-2.052331	0.338091
O22	O	0.243083	-1.277399	0.023610
H23	H	0.143319	-1.327152	-0.051332
H24	H	0.359948	-1.698069	0.745572
O25	O	0.796514	-1.624148	0.267559
H26	H	0.724078	-1.530294	0.252119
H27	H	0.072183	-2.019794	0.866897
H28	H	0.193407	-1.413123	0.538541
