data_functionalizedCrystal
_audit_creation_method	'MofGen! by Chris Wilmer'
_symmetry_space_group_name_H-M	'P1'
_symmetry_Int_Tables_number	1
_symmetry_cell_setting	triclinic
loop_
_symmetry_equiv_pos_as_xyz
  x,y,z
_cell_length_a	10.654550
_cell_length_b	10.489763
_cell_length_c	9.130313
_cell_angle_alpha	90.013235
_cell_angle_beta	90.001613
_cell_angle_gamma	95.483354
loop_
_atom_site_label
_atom_site_type_symbol
_atom_site_fract_x
_atom_site_fract_y
_atom_site_fract_z
O1	O	1.667933	-0.179168	-0.121707
O2	O	1.302464	-0.196237	-0.121736
O3	O	1.493500	-0.002103	-0.121693
O4	O	1.476897	-0.373303	-0.121750
O5	O	1.493495	-0.002081	0.121905
O6	O	1.302459	-0.196216	0.121863
O7	O	1.667929	-0.179147	0.121892
Cu8	Cu	1.485194	-0.187680	0.144120
Cu9	Cu	1.485199	-0.187705	-0.143964
O10	O	1.476893	-0.373282	0.121849
C11	C	1.255663	-0.194973	0.000060
C12	C	1.116218	-0.191224	0.000051
C13	C	1.036795	-0.305527	0.000038
C14	C	0.905772	-0.301996	0.000064
C15	C	0.933608	-0.069848	0.000110
C16	C	1.064628	-0.073381	0.000094
C17	C	1.492238	0.045439	0.000110
C18	C	1.488468	0.187065	0.000121
C19	C	1.366902	0.255146	0.000108
C20	C	1.424317	0.347305	0.120229
C21	C	1.424350	0.347259	-0.119941
C22	C	1.545933	0.277359	0.120341
C23	C	1.545949	0.277303	-0.119937
C24	C	1.603452	0.369436	0.000213
C25	C	1.714730	-0.180411	0.000092
C26	C	1.854175	-0.184161	0.000092
C27	C	1.478135	0.579175	0.000068
C28	C	1.481845	0.437541	0.000123
N29	N	1.485204	-0.187713	-0.346587
C30	C	1.561909	-0.265920	-0.576634
C31	C	1.561916	-0.265943	-0.423298
C32	C	1.408490	-0.109445	-0.423220
C33	C	1.408491	-0.109416	-0.576554
N34	N	1.485199	-0.187661	0.346743
H35	H	1.266960	0.205447	0.000217
O36	O	0.883283	0.044509	0.000075
C37	C	0.750610	0.023120	0.000119
H38	H	0.720749	-0.076155	-0.046016
H39	H	0.714099	0.029632	0.116990
C40	C	0.732016	0.246992	-0.038725
C41	C	0.695341	0.125065	-0.095400
H42	H	0.697922	0.309880	-0.097639
H43	H	0.821401	0.261405	-0.038749
H44	H	0.701589	0.252401	0.058667
H45	H	0.725782	0.119653	-0.192782
H46	H	0.605960	0.110655	-0.095394
H47	H	1.372900	0.378189	-0.221492
O48	O	1.636498	-0.341736	-0.651307
C49	C	1.721633	-0.264894	-0.739935
H50	H	1.681873	-0.169782	-0.762861
H51	H	1.815876	-0.246443	-0.680829
C52	C	1.789868	-0.451183	-0.857461
C53	C	1.741029	-0.334368	-0.885630
H54	H	1.801838	-0.494038	-0.947330
H55	H	1.732514	-0.502953	-0.797747
H56	H	1.868398	-0.435790	-0.808203
H57	H	1.662494	-0.349763	-0.934870
H58	H	1.798370	-0.282601	-0.945355
O59	O	1.087060	-0.419916	0.000200
C60	C	1.162006	-0.428911	0.126367
H61	H	1.193725	-0.328660	0.168445
H62	H	1.104656	-0.484824	0.214708
C63	C	1.239543	-0.621760	0.036333
C64	C	1.278509	-0.498630	0.088005
H65	H	1.311405	-0.664771	0.012673
H66	H	1.189047	-0.615704	-0.048667
H67	H	1.191750	-0.668338	0.109958
H68	H	1.326287	-0.452049	0.014374
H69	H	1.329016	-0.504680	0.172992
H70	H	1.346036	-0.045742	-0.360750
H71	H	1.624383	-0.329668	-0.360918
H72	H	1.597323	0.246561	0.221996
O73	O	1.363159	0.384382	0.241471
C74	C	1.445617	0.468585	0.325209
H75	H	1.547322	0.452170	0.298380
H76	H	1.428969	0.571744	0.298277
C77	C	1.295873	0.463550	0.522258
C78	C	1.420789	0.443381	0.489314
H79	H	1.280556	0.448009	0.623485
H80	H	1.240317	0.406825	0.465840
H81	H	1.282015	0.549516	0.499803
H82	H	1.434640	0.357412	0.511751
H83	H	1.476347	0.500091	0.545739
H84	H	1.129298	0.019705	0.000109
H85	H	1.346023	-0.045681	-0.638943
H86	H	0.841110	-0.395074	0.000056
O87	O	1.607082	0.240311	-0.241225
C88	C	1.542686	0.275571	-0.367618
H89	H	1.440199	0.286747	-0.338848
H90	H	1.589327	0.370275	-0.411429
C91	C	1.673657	0.157332	-0.520699
C92	C	1.547778	0.171049	-0.485366
H93	H	1.676802	0.092862	-0.593335
H94	H	1.717045	0.133581	-0.435547
H95	H	1.712510	0.236260	-0.557200
H96	H	1.508931	0.092127	-0.448849
H97	H	1.504383	0.194785	-0.570515
H98	H	1.703484	0.418908	0.000292
