data_functionalizedCrystal
_audit_creation_method	'MofGen! by Chris Wilmer'
_symmetry_space_group_name_H-M	'P1'
_symmetry_Int_Tables_number	1
_symmetry_cell_setting	triclinic
loop_
_symmetry_equiv_pos_as_xyz
  x,y,z
_cell_length_a	12.759395
_cell_length_b	13.897447
_cell_length_c	12.759387
_cell_angle_alpha	90.031440
_cell_angle_beta	90.020509
_cell_angle_gamma	90.021067
loop_
_atom_site_label
_atom_site_type_symbol
_atom_site_fract_x
_atom_site_fract_y
_atom_site_fract_z
Zn1	Zn	1.606233	-0.383924	0.594000
Zn2	Zn	2.106233	0.116076	1.094000
Zn3	Zn	1.606109	-0.545252	0.418319
Zn4	Zn	2.106109	-0.045252	0.918319
Zn5	Zn	1.430532	-0.383977	0.418337
Zn6	Zn	1.930532	0.116023	0.918337
Zn7	Zn	1.430509	-0.545184	0.593958
Zn8	Zn	1.930509	-0.045184	1.093958
O9	O	1.518346	-0.464584	0.506154
O10	O	2.018346	0.035416	1.006154
O11	O	1.753238	-0.405332	0.570706
O12	O	2.253238	0.094668	1.070706
O13	O	1.582776	-0.523909	0.271300
O14	O	2.082776	-0.023909	0.771300
O15	O	1.453900	-0.248988	0.441665
O16	O	1.953900	0.251012	0.941665
O17	O	1.753147	-0.523858	0.441633
O18	O	2.253147	-0.023858	0.941633
O19	O	1.582988	-0.248950	0.570724
O20	O	2.082988	0.251050	1.070724
O21	O	1.453780	-0.405421	0.271314
O22	O	1.953780	0.094579	0.771314
O23	O	1.283508	-0.405355	0.441624
O24	O	1.783508	0.094645	0.941624
O25	O	1.453862	-0.523741	0.740985
O26	O	1.953862	-0.023741	1.240985
O27	O	1.283491	-0.523792	0.570651
O28	O	1.783491	-0.023792	1.070651
O29	O	1.582966	-0.405265	0.741016
O30	O	2.082966	0.094735	1.241016
O31	O	1.582754	-0.680225	0.441592
O32	O	2.082754	-0.180225	0.941592
O33	O	1.453742	-0.680174	0.570634
O34	O	1.953742	-0.180174	1.070634
C35	C	1.245378	-0.464573	0.506136
C36	C	1.745378	0.035427	1.006136
C37	C	1.128602	-0.464591	0.506153
C38	C	1.628602	0.035409	1.006153
C39	C	1.128623	-0.588119	0.640292
C40	C	1.628623	-0.088119	1.140292
C41	C	1.073773	-0.649891	0.707365
C42	C	1.573773	-0.149891	1.207365
C43	C	0.964051	-0.649903	0.707378
C44	C	1.464051	-0.149903	1.207378
C45	C	0.909177	-0.588134	0.640313
C46	C	1.409177	-0.088134	1.140313
C47	C	0.964027	-0.526362	0.573240
C48	C	1.464027	-0.026362	1.073240
C49	C	1.073752	-0.526359	0.573232
C50	C	1.573752	-0.026359	1.073232
C51	C	0.964006	-0.402830	0.439108
C52	C	1.464006	0.097170	0.939108
C53	C	1.073728	-0.402822	0.439088
C54	C	1.573728	0.097178	0.939088
C55	C	0.909132	-0.341061	0.372043
C56	C	1.409132	0.158939	0.872043
C57	C	0.963982	-0.279293	0.304963
C58	C	1.463982	0.220707	0.804963
C59	C	1.073710	-0.279284	0.304953
C60	C	1.573710	0.220716	0.804953
C61	C	1.128578	-0.341050	0.372015
C62	C	1.628578	0.158950	0.872015
C63	C	1.518260	-0.715199	0.506129
C64	C	2.018260	-0.215199	1.006129
C65	C	1.518320	-0.822413	0.506154
C66	C	2.018320	-0.322413	1.006154
C67	C	1.518371	-0.909482	0.506178
C68	C	2.018371	-0.409482	1.006178
C69	C	1.518444	-1.018715	0.506205
C70	C	2.018444	-0.518715	1.006205
C71	C	1.792379	-0.464597	0.506172
C72	C	2.292379	0.035403	1.006172
C73	C	1.909156	-0.464602	0.506180
C74	C	2.409156	0.035398	1.006180
C75	C	1.518425	-0.464490	0.780187
C76	C	2.018425	0.035510	1.280187
C77	C	1.518459	-0.464449	0.896964
C78	C	2.018459	0.035551	1.396964
C79	C	1.518460	-0.212991	0.506201
C80	C	2.018460	0.287009	1.006201
C81	C	1.518509	-0.105777	0.506221
C82	C	2.018509	0.394223	1.006221
C83	C	1.518327	-0.464609	0.233186
C84	C	2.018327	0.035391	0.733186
C85	C	1.518497	-0.464377	0.116410
C86	C	2.018497	0.035623	0.616410
C87	C	1.652904	-0.341088	0.897016
C88	C	2.152904	0.158912	1.397016
C89	C	1.720141	-0.279393	0.951903
C90	C	2.220141	0.220607	1.451903
C91	C	1.720167	-0.279358	1.061625
C92	C	2.220167	0.220642	1.561625
C93	C	1.652946	-0.341022	1.116462
C94	C	2.152946	0.158978	1.616462
C95	C	1.585709	-0.402718	1.061575
C96	C	2.085709	0.097282	1.561575
C97	C	1.585692	-0.402748	0.951851
C98	C	2.085692	0.097252	1.451851
C99	C	1.451260	-0.526072	1.061523
C100	C	1.951260	-0.026072	1.561523
C101	C	1.451238	-0.526114	0.951801
C102	C	1.951238	-0.026114	1.451801
C103	C	1.384039	-0.587737	1.116360
C104	C	1.884039	-0.087737	1.616360
C105	C	1.316805	-0.649438	1.061473
C106	C	1.816805	-0.149438	1.561473
C107	C	1.316783	-0.649472	0.951745
C108	C	1.816783	-0.149472	1.451745
C109	C	1.384001	-0.587809	0.896914
C110	C	1.884001	-0.087809	1.396914
H111	H	1.217919	-0.341052	0.372010
H112	H	1.717919	0.158948	0.872010
H113	H	0.919295	-0.229001	0.250370
H114	H	1.419295	0.270999	0.750370
H115	H	1.262074	-0.699636	1.106130
H116	H	1.762074	-0.199636	1.606130
N117	N	1.384053	-0.587713	1.234702
N118	N	1.884053	-0.087713	1.734702
H119	H	1.311994	-0.569965	1.261118
H120	H	1.811994	-0.069965	1.761118
H121	H	1.436892	-0.539287	1.261081
H122	H	1.936892	-0.039287	1.761081
N123	N	1.132874	-0.212663	0.232608
N124	N	1.632874	0.287337	0.732608
H125	H	1.178432	-0.168011	0.275390
H126	H	1.678432	0.331989	0.775390
H127	H	1.081398	-0.173601	0.190142
H128	H	1.581398	0.326399	0.690142
N129	N	1.792649	-0.212895	0.892756
N130	N	2.292649	0.287105	1.392756
H131	H	1.835245	-0.173807	0.944177
H132	H	2.335245	0.326193	1.444177
H133	H	1.749902	-0.168263	0.847233
H134	H	2.249902	0.331737	1.347233
H135	H	1.262019	-0.699701	0.907062
H136	H	1.762019	-0.199701	1.407062
N137	N	1.383955	-0.587819	0.778573
N138	N	1.883955	-0.087819	1.278573
H139	H	1.331154	-0.636251	0.752119
H140	H	1.831154	-0.136251	1.252119
H141	H	1.456040	-0.605532	0.752210
H142	H	1.956040	-0.105532	1.252210
N143	N	0.790790	-0.341079	0.372049
N144	N	1.290790	0.158921	0.872049
H145	H	0.764354	-0.292578	0.319387
H146	H	1.264354	0.207422	0.819387
H147	H	0.764476	-0.323468	0.444193
H148	H	1.264476	0.176532	0.944193
N149	N	1.652976	-0.340966	1.234804
N150	N	2.152976	0.159034	1.734804
H151	H	1.672259	-0.407126	1.261235
H152	H	2.172259	0.092874	1.761235
H153	H	1.580904	-0.323174	1.261140
H154	H	2.080904	0.176826	1.761140
H155	H	1.774910	-0.229114	1.106314
H156	H	2.274910	0.270886	1.606314
N157	N	1.652863	-0.341144	0.778674
N158	N	2.152863	0.158856	1.278674
H159	H	1.724914	-0.358898	0.752243
H160	H	2.224914	0.141102	1.252243
H161	H	1.633536	-0.274968	0.752333
H162	H	2.133536	0.225032	1.252333
N163	N	1.246965	-0.588119	0.640263
N164	N	1.746965	-0.088119	1.140263
H165	H	1.273404	-0.636623	0.692920
H166	H	1.773404	-0.136623	1.192920
H167	H	1.273348	-0.521939	0.659672
H168	H	1.773348	-0.021939	1.159672
H169	H	1.118463	-0.700181	0.761969
H170	H	1.618463	-0.200181	1.261969
H171	H	0.919393	-0.700198	0.761999
H172	H	1.419393	-0.200198	1.261999
H173	H	0.819836	-0.588141	0.640338
H174	H	1.319836	-0.088141	1.140338
