data_functionalizedCrystal
_audit_creation_method	'MofGen! by Chris Wilmer'
_symmetry_space_group_name_H-M	'P1'
_symmetry_Int_Tables_number	1
_symmetry_cell_setting	triclinic
loop_
_symmetry_equiv_pos_as_xyz
  x,y,z
_cell_length_a	16.625548
_cell_length_b	12.827892
_cell_length_c	12.827885
_cell_angle_alpha	89.970214
_cell_angle_beta	89.978764
_cell_angle_gamma	90.016460
loop_
_atom_site_label
_atom_site_type_symbol
_atom_site_fract_x
_atom_site_fract_y
_atom_site_fract_z
Zn1	Zn	1.232725	-0.415953	-0.590903
Zn2	Zn	1.232644	-0.590730	-0.416164
Zn3	Zn	1.097886	-0.416007	-0.416171
Zn4	Zn	1.097874	-0.590656	-0.590858
O5	O	1.165282	-0.503336	-0.503524
O6	O	1.345547	-0.439146	-0.567740
O7	O	1.214738	-0.567606	-0.269929
O8	O	1.115811	-0.269764	-0.439372
O9	O	1.345487	-0.567554	-0.439359
O10	O	1.214878	-0.269724	-0.567747
O11	O	1.115732	-0.439238	-0.269934
O12	O	0.985052	-0.439166	-0.439328
O13	O	1.115792	-0.567427	-0.737100
O14	O	0.985043	-0.567480	-0.567669
O15	O	1.214867	-0.439074	-0.737134
O16	O	1.214727	-0.736956	-0.439315
O17	O	1.115713	-0.736901	-0.567662
C18	C	1.165232	-0.774846	-0.503506
C19	C	1.165284	-0.890999	-0.503533
C20	C	0.955791	-0.503321	-0.503495
C21	C	0.866170	-0.503340	-0.503507
C22	C	1.214338	-0.942776	-0.440093
C23	C	1.214393	-1.062827	-0.440120
C24	C	0.537995	-0.503347	-0.503552
C25	C	0.629303	-0.503342	-0.503536
C26	C	0.702080	-0.503344	-0.503529
C27	C	0.793394	-0.503338	-0.503514
C28	C	1.375591	-0.503352	-0.503554
C29	C	1.465212	-0.503359	-0.503567
C30	C	1.165337	-0.503236	-0.776094
C31	C	1.165361	-0.503193	-0.892248
C32	C	1.165355	-0.230766	-0.503565
C33	C	1.165386	-0.114613	-0.503583
C34	C	1.214391	-0.439667	-0.944049
C35	C	1.214416	-0.439622	-1.064099
C36	C	1.165274	-0.503361	-0.232014
C37	C	1.165407	-0.503109	-0.115861
H38	H	1.256297	-0.898231	-0.385764
Cl39	Cl	1.279232	-1.131567	-0.356254
H40	H	1.256346	-0.385311	-0.899521
H41	H	1.123331	-0.935548	-0.557869
Cl42	Cl	1.279233	-0.355654	-1.132872
Cl43	Cl	1.100573	-0.587109	-0.960986
H44	H	1.123384	-1.070094	-0.557895
H45	H	1.123431	-0.557503	-1.071320
