data_functionalizedCrystal
_audit_creation_method	'MofGen! by Chris Wilmer'
_symmetry_space_group_name_H-M	'P1'
_symmetry_Int_Tables_number	1
_symmetry_cell_setting	triclinic
loop_
_symmetry_equiv_pos_as_xyz
  x,y,z
_cell_length_a	10.489741
_cell_length_b	10.489716
_cell_length_c	9.565339
_cell_angle_alpha	90.004273
_cell_angle_beta	89.999100
_cell_angle_gamma	84.534155
loop_
_atom_site_label
_atom_site_type_symbol
_atom_site_fract_x
_atom_site_fract_y
_atom_site_fract_z
O1	O	1.694037	0.179961	-0.116160
O2	O	1.322840	0.196854	-0.116180
O3	O	1.516901	0.002807	-0.116175
O4	O	1.499976	0.374007	-0.116165
O5	O	1.516886	0.002819	0.116346
O6	O	1.322825	0.196866	0.116340
O7	O	1.694022	0.179973	0.116360
Zn8	Zn	1.508421	0.188421	0.153268
Zn9	Zn	1.508441	0.188405	-0.153088
O10	O	1.499960	0.374019	0.116355
C11	C	1.275301	0.195584	0.000077
C12	C	1.133672	0.191767	0.000069
C13	C	1.065542	0.068301	0.000079
C14	C	0.973418	0.126619	-0.114561
C15	C	0.973437	0.126660	0.114685
C16	C	1.043413	0.250136	-0.114666
C17	C	1.043441	0.250160	0.114683
C18	C	0.951344	0.308568	0.000015
C19	C	1.515622	-0.044719	0.000081
C20	C	1.511817	-0.186350	0.000068
C21	C	1.630822	-0.284024	0.000088
C22	C	1.567945	-0.361390	-0.114557
C23	C	1.567902	-0.361342	0.114690
C24	C	1.448990	-0.261851	-0.114671
C25	C	1.448965	-0.261798	0.114679
C26	C	1.386000	-0.339115	0.000006
C27	C	1.741561	0.181243	0.000100
C28	C	1.883190	0.185060	0.000099
C29	C	1.501240	0.421545	0.000096
C30	C	1.505044	0.563176	0.000100
N31	N	1.508416	0.188431	0.362347
N32	N	1.508455	0.188385	-0.362167
C33	C	1.418642	0.278141	0.453548
C34	C	1.534136	0.303952	0.546734
C35	C	1.392971	0.162631	0.546716
C36	C	1.623969	0.214300	0.453482
C37	C	1.482728	0.072928	0.453456
C38	C	1.598306	0.098691	0.546600
H39	H	1.074242	0.302331	-0.211695
N40	N	0.934544	0.061072	-0.236155
N41	N	0.975679	-0.053190	-0.256593
H42	H	0.948234	-0.099490	-0.342468
N43	N	0.889339	0.436031	-0.000067
N44	N	0.907800	0.510362	-0.098590
H45	H	0.864008	0.600384	-0.098655
N46	N	1.760667	-0.253037	-0.000026
N47	N	1.801261	-0.189787	0.098445
H48	H	1.892962	-0.167901	0.098363
N49	N	1.082368	0.315641	0.236288
N50	N	1.060305	0.273578	0.355242
H51	H	1.087798	0.319816	0.441137
N52	N	0.934575	0.061091	0.236261
N53	N	0.975715	-0.053174	0.256650
H54	H	0.948273	-0.099493	0.342507
H55	H	1.618187	-0.404890	-0.211477
H56	H	1.674326	0.022803	0.587201
N57	N	1.386018	-0.207525	-0.236393
N58	N	1.378854	-0.089257	-0.256074
H59	H	1.334384	-0.050885	-0.342040
N60	N	1.256044	-0.369755	-0.000086
N61	N	1.183190	-0.333369	-0.098614
H62	H	1.091409	-0.355009	-0.098686
N63	N	1.746492	0.241787	0.402311
N64	N	1.766235	0.246284	0.273613
H65	H	1.852764	0.265698	0.237469
H66	H	1.460938	-0.024699	0.412452
H67	H	1.342792	0.354076	0.412690
N68	N	1.385998	-0.207209	0.236279
N69	N	1.426602	-0.239335	0.355236
H70	H	1.382141	-0.200782	0.441128
N71	N	1.561401	0.426466	0.598143
N72	N	1.482216	0.489911	0.674608
H73	H	1.501461	0.576441	0.710911
H74	H	1.618157	-0.404810	0.211610
N75	N	1.270473	0.135297	0.598101
N76	N	1.172754	0.207833	0.568290
H77	H	1.086236	0.188542	0.604580
H78	H	1.115241	-0.033196	-0.000067
