data_functionalizedCrystal
_audit_creation_method	'MofGen! by Chris Wilmer'
_symmetry_space_group_name_H-M	'P1'
_symmetry_Int_Tables_number	1
_symmetry_cell_setting	triclinic
loop_
_symmetry_equiv_pos_as_xyz
  x,y,z
_cell_length_a	18.215407
_cell_length_b	10.686285
_cell_length_c	18.215399
_cell_angle_alpha	85.608767
_cell_angle_beta	89.980650
_cell_angle_gamma	85.632014
loop_
_atom_site_label
_atom_site_type_symbol
_atom_site_fract_x
_atom_site_fract_y
_atom_site_fract_z
Zn1	Zn	1.147636	-0.502339	-0.393704
Zn2	Zn	1.157025	-0.713356	-0.261223
Zn3	Zn	1.024571	-0.502381	-0.270650
Zn4	Zn	1.034011	-0.713284	-0.384252
O5	O	1.090810	-0.607840	-0.327457
O6	O	1.251866	-0.530343	-0.376141
O7	O	1.139433	-0.685418	-0.159487
O8	O	1.033016	-0.325801	-0.294874
O9	O	1.258764	-0.685376	-0.278808
O10	O	1.123431	-0.325769	-0.385282
O11	O	1.042120	-0.530416	-0.166413
O12	O	0.922838	-0.530346	-0.285708
O13	O	1.049104	-0.685254	-0.488492
O14	O	0.929774	-0.685295	-0.369171
O15	O	1.132584	-0.530273	-0.495437
O16	O	1.148587	-0.889922	-0.269642
O17	O	1.058209	-0.889869	-0.360031
C18	C	0.899603	-0.607818	-0.327437
C19	C	0.817805	-0.607840	-0.327445
C20	C	0.633247	-0.688649	-0.370839
C21	C	0.556389	-0.688653	-0.370848
C22	C	0.549127	-0.527054	-0.284091
C23	C	0.625983	-0.527045	-0.284086
C24	C	0.668042	-0.607849	-0.327459
C25	C	0.514327	-0.607863	-0.327472
C26	C	0.430993	-0.607866	-0.327482
C27	C	0.751381	-0.607844	-0.327451
C28	C	1.105461	-0.935679	-0.312804
C29	C	1.111795	-1.075930	-0.306560
C30	C	1.282764	-0.607863	-0.327478
C31	C	1.364564	-0.607872	-0.327487
C32	C	1.090850	-0.607751	-0.519414
C33	C	1.090866	-0.607713	-0.601215
C34	C	1.076123	-0.278721	-0.342184
C35	C	1.069864	-0.138470	-0.348459
C36	C	1.134357	-0.526905	-0.869895
C37	C	1.134349	-0.526939	-0.793034
C38	C	1.047428	-0.688337	-0.785792
C39	C	1.047439	-0.688308	-0.862650
C40	C	1.090902	-0.607585	-0.904700
C41	C	1.090884	-0.607648	-0.750981
C42	C	1.090875	-0.607686	-0.667646
C43	C	1.090912	-0.607549	-0.988041
C44	C	1.090810	-0.607838	-0.136251
C45	C	1.090920	-0.607521	-0.054467
H46	H	0.514873	-0.461268	-0.248777
C47	C	0.999633	-0.777061	-0.900939
C48	C	1.035954	-0.876110	-0.949345
C49	C	0.988151	-0.964862	-0.987633
C50	C	0.904028	-0.954565	-0.977514
C51	C	0.867702	-0.855512	-0.929105
C52	C	0.915505	-0.766760	-0.890818
H53	H	1.098231	-0.883736	-0.956838
H54	H	1.015042	-1.038188	-1.023468
H55	H	0.868642	-1.020265	-1.005856
H56	H	0.805425	-0.847886	-0.921612
H57	H	0.888614	-0.693434	-0.854982
C58	C	0.664262	-0.438161	-0.236363
C59	C	0.712684	-0.339156	-0.272767
C60	C	0.750962	-0.250272	-0.225048
C61	C	0.740817	-0.260393	-0.140925
C62	C	0.692393	-0.359402	-0.104516
C63	C	0.654115	-0.448286	-0.152235
H64	H	0.720196	-0.331660	-0.335044
H65	H	0.786809	-0.176979	-0.252001
H66	H	0.769153	-0.194596	-0.105600
H67	H	0.684881	-0.366898	-0.042239
H68	H	0.618268	-0.521579	-0.125282
C69	C	0.999619	-0.777119	-0.739530
C70	C	0.915498	-0.766827	-0.750538
C71	C	0.867689	-0.855608	-0.704275
C72	C	0.904000	-0.954682	-0.647003
C73	C	0.988125	-0.964979	-0.635992
C74	C	1.035935	-0.876197	-0.682255
H75	H	0.888615	-0.693483	-0.792937
H76	H	0.805414	-0.847986	-0.712427
H77	H	0.868609	-1.020403	-0.612757
H78	H	1.015009	-1.038323	-0.593593
H79	H	1.098210	-0.883820	-0.674103
H80	H	0.528063	-0.754446	-0.406173
C81	C	0.679512	-0.777521	-0.418553
C82	C	0.641235	-0.866393	-0.466274
C83	C	0.687497	-0.955265	-0.513992
C84	C	0.772037	-0.955265	-0.513989
C85	C	0.810320	-0.866390	-0.466267
C86	C	0.764057	-0.777518	-0.418549
H87	H	0.578649	-0.866396	-0.466278
H88	H	0.659158	-1.021057	-0.549319
H89	H	0.806284	-1.021053	-0.549313
H90	H	0.872905	-0.866386	-0.466264
H91	H	0.792397	-0.711726	-0.383222
C92	C	1.166840	-1.148543	-0.251636
C93	C	1.215413	-1.076206	-0.203100
C94	C	1.270457	-1.148818	-0.148176
C95	C	1.276928	-1.293769	-0.141789
C96	C	1.228354	-1.366115	-0.190327
C97	C	1.173310	-1.293502	-0.245250
H98	H	1.210624	-0.968897	-0.207826
H99	H	1.306415	-1.095262	-0.112246
H100	H	1.317675	-1.347522	-0.101132
H101	H	1.233142	-1.473424	-0.185600
H102	H	1.137352	-1.347059	-0.281180
H103	H	1.029120	-1.084718	-0.389109
H104	H	1.169747	-0.461174	-0.904130
H105	H	1.169735	-0.461243	-0.764700
