data_functionalizedCrystal
_audit_creation_method	'MofGen! by Chris Wilmer'
_symmetry_space_group_name_H-M	'P1'
_symmetry_Int_Tables_number	1
_symmetry_cell_setting	triclinic
loop_
_symmetry_equiv_pos_as_xyz
  x,y,z
_cell_length_a	10.654550
_cell_length_b	9.730223
_cell_length_c	10.654550
_cell_angle_alpha	90.001209
_cell_angle_beta	84.484931
_cell_angle_gamma	89.996981
loop_
_atom_site_label
_atom_site_type_symbol
_atom_site_fract_x
_atom_site_fract_y
_atom_site_fract_z
O1	O	1.667834	0.114187	0.176394
O2	O	1.302355	0.114212	0.193200
O3	O	1.493498	0.114190	0.002057
O4	O	1.476692	0.114209	0.367536
O5	O	1.493496	-0.114390	0.002062
O6	O	1.302353	-0.114368	0.193204
O7	O	1.667832	-0.114393	0.176398
Zn8	Zn	1.485092	-0.150672	0.184802
Zn9	Zn	1.485095	0.150492	0.184796
O10	O	1.476689	-0.114371	0.367541
C11	C	1.255556	-0.000075	0.191968
C12	C	1.116113	-0.000065	0.188276
N13	N	1.485099	-0.356209	0.184806
C14	C	1.036628	-0.000064	0.300818
C15	C	0.905607	-0.000088	0.297341
C16	C	0.933570	-0.000109	0.068772
C17	C	1.064588	-0.000095	0.072250
C18	C	1.569759	-0.428144	0.100197
C19	C	1.569756	-0.572027	0.100182
C20	C	1.400429	-0.572026	0.269395
C21	C	1.400427	-0.428146	0.269403
C22	C	1.654431	-0.356207	0.015599
C23	C	1.739099	-0.428143	-0.069015
C24	C	1.739096	-0.572026	-0.069031
C25	C	1.654425	-0.643973	0.015569
C26	C	1.714631	-0.000103	0.177630
C27	C	1.854074	-0.000104	0.181322
C28	C	1.492263	-0.000099	-0.044738
C29	C	1.488571	-0.000096	-0.184181
N30	N	1.485098	0.356028	0.184782
C31	C	1.601112	-0.000104	-0.263667
C32	C	1.597636	-0.000087	-0.394688
C33	C	1.369066	-0.000061	-0.366725
C34	C	1.372544	-0.000068	-0.235706
C35	C	1.477925	-0.000079	0.414336
C36	C	1.481617	-0.000072	0.553779
H37	H	0.840894	-0.000089	0.388984
H38	H	1.078574	-0.000049	0.395294
N39	N	0.877996	-0.000149	-0.056366
H40	H	0.782935	-0.000157	-0.041495
H41	H	0.906991	0.084583	-0.105675
H42	H	1.274601	-0.000041	-0.408693
N43	N	1.150331	-0.000113	-0.049140
H44	H	1.097812	-0.000127	-0.123170
H45	H	1.205296	0.084625	-0.052683
N46	N	1.654426	-0.201022	0.015622
H47	H	1.739907	-0.166371	0.034699
H48	H	1.635372	-0.166461	-0.069893
N49	N	1.251160	-0.000061	-0.149955
H50	H	1.200593	0.084679	-0.166635
H51	H	1.200686	-0.084846	-0.166679
N52	N	1.830391	-0.350554	-0.160285
H53	H	1.817545	-0.248490	-0.147444
H54	H	1.919615	-0.375703	-0.144968
N55	N	1.309114	-0.350546	0.360653
H56	H	1.255481	-0.417948	0.414251
H57	H	1.357671	-0.290851	0.416627
N58	N	1.830419	-0.649618	-0.160277
H59	H	1.884060	-0.582209	-0.213857
H60	H	1.886342	-0.709311	-0.111657
N61	N	1.654404	-0.799161	0.015559
H62	H	1.635395	-0.833811	-0.069946
H63	H	1.739901	-0.833724	0.034676
H64	H	1.331494	-0.630615	0.338274
H65	H	1.695588	-0.000124	-0.221720
N66	N	1.719019	-0.000094	-0.480420
H67	H	1.793044	-0.000113	-0.427894
H68	H	1.722548	-0.084827	-0.535397
