data_functionalizedCrystal
_audit_creation_method	'MofGen! by Chris Wilmer'
_symmetry_space_group_name_H-M	'P1'
_symmetry_Int_Tables_number	1
_symmetry_cell_setting	triclinic
loop_
_symmetry_equiv_pos_as_xyz
  x,y,z
_cell_length_a	10.654550
_cell_length_b	17.038272
_cell_length_c	9.130313
_cell_angle_alpha	89.995195
_cell_angle_beta	89.999724
_cell_angle_gamma	87.798243
loop_
_atom_site_label
_atom_site_type_symbol
_atom_site_fract_x
_atom_site_fract_y
_atom_site_fract_z
O1	O	1.678042	0.109878	-0.121691
O2	O	1.313536	0.120346	-0.121718
O3	O	1.493623	0.001285	-0.121693
O4	O	1.497955	0.228940	-0.121716
O5	O	1.493609	0.001281	0.121906
O6	O	1.313522	0.120343	0.121881
O7	O	1.678029	0.109875	0.121908
Cu8	Cu	1.495774	0.115108	0.144137
Cu9	Cu	1.495790	0.115113	-0.143947
O10	O	1.497942	0.228936	0.121883
C11	C	1.266660	0.119576	0.000078
C12	C	1.127003	0.117276	0.000068
C13	C	1.054026	0.187378	0.000065
C14	C	0.922805	0.185213	0.000091
C15	C	0.937548	0.042838	0.000116
C16	C	1.068767	0.045004	0.000101
C17	C	1.489675	-0.027867	0.000106
C18	C	1.477918	-0.114726	0.000104
C19	C	1.585862	-0.164237	0.000114
C20	C	1.574808	-0.245849	0.000099
C21	C	1.455808	-0.277949	0.000085
C22	C	1.347855	-0.228431	0.000072
C23	C	1.358911	-0.146820	0.000076
C24	C	1.416750	-0.523925	0.000063
C25	C	1.405702	-0.605542	0.000063
C26	C	1.632655	-0.622955	0.000088
C27	C	1.643701	-0.541341	0.000101
C28	C	1.535748	-0.491831	0.000079
C29	C	1.444505	-0.361369	0.000075
C30	C	1.547052	-0.408412	0.000079
C31	C	1.724905	0.110645	0.000108
C32	C	1.864561	0.112945	0.000109
C33	C	1.501889	0.258088	0.000081
C34	C	1.513646	0.344947	0.000072
N35	N	1.495772	0.115105	0.346759
N36	N	1.495802	0.115110	-0.346570
C37	C	1.575545	0.062407	0.423422
C38	C	1.575557	0.062407	0.576759
C39	C	1.416019	0.167810	0.576757
C40	C	1.416002	0.167806	0.423423
H41	H	0.890116	-0.016004	0.000152
H42	H	1.128187	-0.012085	0.000107
N43	N	1.334528	0.221641	0.655050
N44	N	1.218271	0.219890	0.637943
H45	H	1.160714	0.257909	0.693235
H46	H	0.863392	0.242297	0.000091
H47	H	1.640514	0.019495	0.639174
N48	N	1.322965	-0.394177	0.000091
N49	N	1.291496	-0.437786	0.102772
H50	H	1.205659	-0.460961	0.102784
N51	N	1.334493	0.221639	0.345126
N52	N	1.263282	0.268691	0.413588
H53	H	1.205715	0.306707	0.358292
H54	H	1.643941	-0.382273	0.000058
N55	N	1.707429	-0.131465	0.000148
N56	N	1.803797	-0.175685	0.000157
H57	H	1.889658	-0.152543	0.000180
N58	N	1.656952	0.008524	0.345134
N59	N	1.728117	-0.038556	0.413609
H60	H	1.785582	-0.076632	0.358323
N61	N	1.113534	0.261193	0.000034
N62	N	1.185104	0.278287	-0.102659
H63	H	1.227131	0.330420	-0.102678
N64	N	1.685087	-0.296409	0.000130
N65	N	1.762287	-0.293125	0.102827
H66	H	1.840180	-0.328831	0.102848
N67	N	1.765267	-0.508568	0.000116
N68	N	1.861638	-0.552785	0.000122
H69	H	1.947497	-0.529639	0.000136
H70	H	1.271011	-0.106509	0.000068
N71	N	1.742932	-0.673517	0.000082
N72	N	1.849173	-0.644846	0.000085
H73	H	1.927063	-0.680555	0.000076
N74	N	1.284130	-0.638319	0.000076
N75	N	1.187755	-0.594106	0.000074
H76	H	1.101898	-0.617254	0.000095
N77	N	1.306480	-0.473361	0.000032
N78	N	1.229270	-0.476644	-0.102654
H79	H	1.151385	-0.440931	-0.102673
N80	N	1.226308	-0.261230	0.000040
N81	N	1.216451	-0.334097	0.000036
H82	H	1.130606	-0.357261	0.000016
