data_functionalizedCrystal
_audit_creation_method	'MofGen! by Chris Wilmer'
_symmetry_space_group_name_H-M	'P1'
_symmetry_Int_Tables_number	1
_symmetry_cell_setting	triclinic
loop_
_symmetry_equiv_pos_as_xyz
  x,y,z
_cell_length_a	12.759401
_cell_length_b	12.759394
_cell_length_c	12.759393
_cell_angle_alpha	89.970474
_cell_angle_beta	89.979062
_cell_angle_gamma	90.015381
loop_
_atom_site_label
_atom_site_type_symbol
_atom_site_fract_x
_atom_site_fract_y
_atom_site_fract_z
Zn1	Zn	1.606273	-0.418173	-0.594027
Zn2	Zn	1.606166	-0.593889	-0.418350
Zn3	Zn	1.430571	-0.418229	-0.418362
Zn4	Zn	1.430566	-0.593815	-0.593988
O5	O	1.518394	-0.506026	-0.506182
O6	O	1.753279	-0.441489	-0.570735
O7	O	1.582831	-0.570641	-0.271331
O8	O	1.453925	-0.271200	-0.441686
O9	O	1.753201	-0.570587	-0.441666
O10	O	1.583012	-0.271159	-0.570747
O11	O	1.453822	-0.441585	-0.271340
O12	O	1.283550	-0.441513	-0.441648
O13	O	1.453916	-0.570462	-0.741014
O14	O	1.283545	-0.570516	-0.570679
O15	O	1.583007	-0.441418	-0.741043
O16	O	1.582826	-0.740900	-0.441627
O17	O	1.453813	-0.740846	-0.570667
C18	C	1.245427	-0.506013	-0.506161
C19	C	1.128650	-0.506033	-0.506177
C20	C	1.073813	-0.573307	-0.573258
C21	C	0.964089	-0.573311	-0.573279
C22	C	0.964048	-0.438765	-0.439129
C23	C	1.073770	-0.438756	-0.439114
C24	C	0.814194	-0.611010	-0.697140
C25	C	0.759354	-0.678300	-0.764211
C26	C	0.794953	-0.780831	-0.780161
C27	C	0.885391	-0.816092	-0.729024
C28	C	0.940225	-0.748808	-0.661944
C29	C	0.904628	-0.646262	-0.646015
C30	C	1.223667	-0.401068	-0.315252
C31	C	1.278504	-0.333788	-0.248166
C32	C	1.242907	-0.231256	-0.232206
C33	C	1.152466	-0.195998	-0.283325
C34	C	1.097629	-0.263278	-0.350410
C35	C	1.133234	-0.365810	-0.366372
C36	C	1.518336	-0.778994	-0.506165
C37	C	1.518407	-0.895771	-0.506192
C38	C	1.652724	-0.895570	-0.640683
C39	C	1.719916	-0.950330	-0.707937
C40	C	1.719979	-1.060051	-0.707960
C41	C	1.652840	-1.115015	-0.640724
C42	C	1.585648	-1.060255	-0.573470
C43	C	1.585595	-0.950531	-0.573453
C44	C	1.451326	-1.060456	-0.438986
C45	C	1.451268	-0.950734	-0.438956
C46	C	1.384187	-1.115420	-0.371750
C47	C	1.316999	-1.060659	-0.304490
C48	C	1.316940	-0.950931	-0.304469
C49	C	1.384076	-0.895974	-0.371703
C50	C	1.792427	-0.506040	-0.506203
C51	C	1.909204	-0.506046	-0.506213
C52	C	1.518473	-0.505925	-0.780215
C53	C	1.518506	-0.505882	-0.896992
C54	C	1.518481	-0.231993	-0.506222
C55	C	1.518518	-0.115216	-0.506239
C56	C	1.585729	-0.438679	-0.951871
C57	C	1.585747	-0.438633	-1.061595
C58	C	1.451316	-0.573005	-1.061552
C59	C	1.451294	-0.573044	-0.951830
C60	C	1.623357	-0.314677	-1.211571
C61	C	1.690596	-0.247482	-1.266454
C62	C	1.793108	-0.231372	-1.230862
C63	C	1.828403	-0.282471	-1.140389
C64	C	1.761169	-0.349673	-1.085513
C65	C	1.658642	-0.365764	-1.121103
C66	C	1.413694	-0.697002	-0.801852
C67	C	1.346465	-0.764210	-0.746973
C68	C	1.243951	-0.780332	-0.782562
C69	C	1.208660	-0.729251	-0.873038
C70	C	1.275889	-0.662042	-0.927917
C71	C	1.378403	-0.645919	-0.892320
C72	C	1.518376	-0.506051	-0.233214
C73	C	1.518546	-0.505798	-0.116438
H74	H	0.919352	-0.383991	-0.384527
H75	H	1.640455	-0.383989	-0.907225
H76	H	1.384239	-1.204761	-0.371777
O77	O	1.799215	-0.404780	-0.987931
H78	H	1.881797	-0.382287	-0.972396
O79	O	1.037771	-0.786823	-0.606804
H80	H	1.017893	-0.855047	-0.556577
H81	H	1.262335	-1.105420	-0.249757
H82	H	1.023992	-0.234559	-0.392041
H83	H	1.847855	-0.176660	-1.275555
H84	H	1.652888	-1.204356	-0.640757
O85	O	0.923785	-0.926687	-0.746217
H86	H	0.870467	-0.967547	-0.801458
H87	H	1.911883	-0.269355	-1.111423
H88	H	1.123470	-0.112514	-0.270313
H89	H	1.774681	-1.104637	-0.762734
H90	H	1.497168	-0.683873	-0.772860
H91	H	1.774578	-0.905569	-0.762682
O92	O	1.244475	-0.891868	-0.231924
H93	H	1.197812	-0.948524	-0.185173
H94	H	1.652690	-0.806228	-0.640662
O95	O	0.661809	-0.640279	-0.819363
H96	H	0.673388	-0.645389	-0.905429
H97	H	1.247147	-0.620450	-1.001588
O98	O	1.133011	-0.645854	-0.645598
H99	H	1.076441	-0.692625	-0.692255
O100	O	1.384538	-0.819262	-0.649365
H101	H	1.334859	-0.796075	-0.581823
O102	O	0.735813	-0.853411	-0.852506
H103	H	0.666953	-0.811666	-0.885387
O104	O	1.171436	-0.852817	-0.723366
H105	H	1.146293	-0.917609	-0.775649
H106	H	1.287560	-0.176480	-0.177570
O107	O	1.652530	-0.192351	-1.364021
H108	H	1.569939	-0.214821	-1.379539
O109	O	1.376055	-0.371809	-0.193026
H110	H	1.391608	-0.454406	-0.215405
O111	O	1.262057	-0.511665	-0.332467
H112	H	1.334148	-0.524885	-0.285635
O113	O	1.384009	-0.777631	-0.371679
H114	H	1.441975	-0.748616	-0.429735
H115	H	0.785207	-0.527517	-0.684170
O116	O	1.512779	-0.332043	-1.249949
H117	H	1.499544	-0.285233	-1.322084
O118	O	1.378826	-0.645443	-1.120696
H119	H	1.390139	-0.634133	-1.206213
O120	O	1.098088	-0.746624	-0.911431
H121	H	1.057264	-0.801928	-0.858065
