data_functionalizedCrystal
_audit_creation_method	'MofGen! by Chris Wilmer'
_symmetry_space_group_name_H-M	'P1'
_symmetry_Int_Tables_number	1
_symmetry_cell_setting	triclinic
loop_
_symmetry_equiv_pos_as_xyz
  x,y,z
_cell_length_a	14.971496
_cell_length_b	14.971486
_cell_length_c	13.448316
_cell_angle_alpha	90.001801
_cell_angle_beta	90.007882
_cell_angle_gamma	83.616123
loop_
_atom_site_label
_atom_site_type_symbol
_atom_site_fract_x
_atom_site_fract_y
_atom_site_fract_z
O1	O	-0.116564	-1.186951	-0.082580
O2	O	-0.130523	-0.926552	-0.082608
O3	O	0.006656	-1.063726	-0.082584
O4	O	-0.253743	-1.049777	-0.082605
O5	O	0.006664	-1.063709	0.082800
O6	O	-0.130515	-0.926535	0.082776
O7	O	-0.116556	-1.186934	0.082803
Cu8	Cu	-0.123534	-1.056733	0.097891
Cu9	Cu	-0.123544	-1.056753	-0.097695
O10	O	-0.253735	-1.049760	0.082779
C11	C	0.039985	-1.063092	0.000109
C12	C	0.139281	-1.061218	0.000110
C13	C	-0.129895	-0.893218	0.000081
C14	C	-0.128024	-0.793921	0.000071
C15	C	0.566981	-1.053160	-0.090065
C16	C	0.473682	-1.054926	-0.090061
C17	C	0.427043	-1.055793	0.000093
C18	C	0.473709	-1.054904	0.090250
C19	C	0.567007	-1.053144	0.090245
C20	C	0.279246	-1.058569	0.090254
C21	C	0.185941	-1.060326	0.090259
C22	C	0.185920	-1.060350	-0.090052
C23	C	0.279218	-1.058590	-0.090057
C24	C	0.325878	-1.057700	0.000100
C25	C	-0.117184	-1.220268	0.000113
C26	C	-0.119055	-1.319565	0.000116
C27	C	0.712937	-1.050394	0.000087
C28	C	0.613640	-1.052268	0.000084
N29	N	-0.123527	-1.056725	0.235455
C30	C	-0.208613	-0.736699	0.000065
C31	C	-0.206850	-0.643399	0.000080
C32	C	-0.124497	-0.607324	0.000093
C33	C	-0.043902	-0.664554	0.000101
C34	C	-0.045666	-0.757852	0.000094
C35	C	-0.040231	-0.470091	0.000115
C36	C	-0.038466	-0.376787	0.000121
C37	C	-0.201414	-0.355639	0.000102
C38	C	-0.203179	-0.448937	0.000094
C39	C	-0.122583	-0.506160	0.000101
N40	N	-0.123545	-1.056768	-0.235259
C41	C	-0.062809	-1.117485	0.287506
C42	C	-0.062808	-1.117490	0.391609
C43	C	-0.123530	-1.056740	0.443659
C44	C	-0.184251	-0.995973	0.391601
C45	C	-0.184247	-0.995964	0.287500
C46	C	-0.184257	-0.995998	0.608581
C47	C	-0.184263	-0.996008	0.712690
C48	C	-0.062819	-1.117524	0.712691
C49	C	-0.062814	-1.117515	0.608589
C50	C	-0.123536	-1.056750	0.556538
H51	H	0.604946	-1.052445	-0.163479
Cl52	Cl	-0.306709	-0.494287	0.000067
Cl53	Cl	0.415078	-1.055999	0.203587
Cl54	Cl	-0.308166	-0.571466	0.000068
Cl55	Cl	0.065065	-0.331437	0.000171
H56	H	-0.013366	-1.166959	0.245133
H57	H	0.435696	-1.055654	-0.163470
Cl58	Cl	0.013517	-1.193893	0.543153
Cl59	Cl	0.337902	-1.057453	0.203595
Cl60	Cl	0.013525	-1.193875	0.457047
Cl61	Cl	0.625666	-1.052029	0.203580
H62	H	0.147966	-1.061004	0.163670
H63	H	-0.267038	-0.309043	0.000102
H64	H	0.025399	-0.516681	0.000122
H65	H	0.023152	-0.635174	0.000126
H66	H	0.019958	-0.804442	0.000097
H67	H	-0.013377	-1.167001	0.755077
Cl68	Cl	-0.260601	-0.919630	0.778116
Cl69	Cl	-0.260593	-0.919603	0.543149
H70	H	-0.275674	-0.766063	0.000054
Cl71	Cl	-0.260585	-0.919595	0.457033
H72	H	0.317188	-1.057879	-0.163469
Cl73	Cl	0.127257	-1.061425	-0.203392
H74	H	-0.233688	-0.946486	0.245121
