data_functionalizedCrystal
_audit_creation_method	'MofGen! by Chris Wilmer'
_symmetry_space_group_name_H-M	'P1'
_symmetry_Int_Tables_number	1
_symmetry_cell_setting	triclinic
loop_
_symmetry_equiv_pos_as_xyz
  x,y,z
_cell_length_a	10.723023
_cell_length_b	10.723024
_cell_length_c	7.540329
_cell_angle_alpha	89.997572
_cell_angle_beta	89.997501
_cell_angle_gamma	84.467709
loop_
_atom_site_label
_atom_site_type_symbol
_atom_site_fract_x
_atom_site_fract_y
_atom_site_fract_z
O1	O	1.657186	0.175021	-0.147459
O2	O	1.294034	0.191775	-0.147466
O3	O	1.483987	0.001822	-0.147456
O4	O	1.467234	0.364974	-0.147470
O5	O	1.483975	0.001819	0.147509
O6	O	1.294023	0.191773	0.147499
O7	O	1.657175	0.175018	0.147506
Cu8	Cu	1.475598	0.183395	0.174435
Cu9	Cu	1.475611	0.183398	-0.174396
O10	O	1.467222	0.364972	0.147495
C11	C	1.247529	0.190555	0.000015
C12	C	1.108974	0.186908	0.000012
C13	C	1.047196	0.185280	0.152812
C14	C	0.903993	0.181511	0.152813
C15	C	1.482762	-0.044679	0.000024
C16	C	1.479114	-0.183233	0.000018
C17	C	1.585402	-0.258216	0.000017
C18	C	1.581634	-0.401420	0.000011
C19	C	1.703680	0.176239	0.000020
C20	C	1.842235	0.179886	0.000011
C21	C	1.468447	0.411473	0.000011
C22	C	1.472095	0.550027	0.000006
N23	N	1.475597	0.183393	0.419783
N24	N	1.475621	0.183391	-0.419744
H25	H	1.100324	0.186671	0.283628
N26	N	1.702164	-0.486766	0.000010
H27	H	1.752439	-0.470251	-0.109331
H28	H	1.752330	-0.470219	0.109429
N29	N	1.709640	-0.202834	0.000044
H30	H	1.716066	-0.149414	-0.109289
H31	H	1.715958	-0.149497	0.109470
H32	H	1.055848	0.185507	-0.130804
H33	H	1.381099	-0.385548	0.000018
N34	N	1.354871	-0.238604	0.000011
H35	H	1.348458	-0.292007	-0.109335
H36	H	1.348526	-0.291955	0.109424
N37	N	0.833700	0.179126	0.326105
H38	H	0.741397	0.176516	0.301541
H39	H	0.866085	0.102324	0.395823
N40	N	0.912578	0.181739	-0.173297
H41	H	0.957144	0.260384	-0.180374
H42	H	0.975986	0.105885	-0.180261
