data_functionalizedCrystal
_audit_creation_method	'MofGen! by Chris Wilmer'
_symmetry_space_group_name_H-M	'P1'
_symmetry_Int_Tables_number	1
_symmetry_cell_setting	triclinic
loop_
_symmetry_equiv_pos_as_xyz
  x,y,z
_cell_length_a	10.685661
_cell_length_b	17.641144
_cell_length_c	10.686551
_cell_angle_alpha	96.008509
_cell_angle_beta	80.927378
_cell_angle_gamma	75.447084
loop_
_atom_site_label
_atom_site_type_symbol
_atom_site_fract_x
_atom_site_fract_y
_atom_site_fract_z
Zn1	Zn	2.124508	-0.368815	-0.995191
Zn2	Zn	2.157521	-0.510382	-0.832454
Zn3	Zn	1.895956	-0.368851	-0.766729
Zn4	Zn	1.955055	-0.491490	-1.021808
O5	O	2.033260	-0.434885	-0.904045
O6	O	2.309270	-0.395485	-0.989971
O7	O	2.111907	-0.499529	-0.648878
O8	O	1.887725	-0.258275	-0.758390
O9	O	2.333525	-0.499494	-0.870409
O10	O	2.055641	-0.258248	-0.926240
O11	O	1.919736	-0.395547	-0.600590
O12	O	1.723412	-0.377228	-0.784198
O13	O	1.988450	-0.467295	-1.193134
O14	O	1.766832	-0.467330	-0.971604
O15	O	2.112947	-0.377167	-1.173579
O16	O	2.169213	-0.618447	-0.896218
O17	O	2.020461	-0.604567	-1.035335
C18	C	1.698351	-0.420234	-0.873658
C19	C	1.555084	-0.413983	-0.860695
C20	C	2.104869	-0.640178	-0.975827
C21	C	2.135624	-0.728006	-1.006588
C22	C	1.800092	-1.017259	-0.670555
C23	C	1.829012	-1.099789	-0.699464
C24	C	2.003681	-1.099621	-0.874309
C25	C	1.974771	-1.017090	-0.845419
C26	C	1.872976	-0.975916	-0.743540
C27	C	2.047656	-0.975746	-0.918403
C28	C	2.018752	-0.893223	-0.889510
C29	C	1.916964	-0.852043	-0.787633
C30	C	1.844072	-0.893392	-0.714647
C31	C	2.149456	-1.016923	-1.020276
C32	C	2.222341	-0.975579	-1.093260
C33	C	2.193431	-0.893053	-1.064373
C34	C	2.091644	-0.851873	-0.962497
C35	C	2.266323	-0.851704	-1.137360
C36	C	2.237419	-0.769180	-1.108467
C37	C	2.062740	-0.769350	-0.933604
C38	C	2.369477	-0.449593	-0.934552
C39	C	2.512752	-0.455861	-0.947553
C40	C	2.053608	-0.420120	-1.229963
C41	C	2.062279	-0.413828	-1.368850
C42	C	1.961408	-0.228790	-0.832014
C43	C	1.930789	-0.140965	-0.801319
C44	C	2.013045	-0.449538	-0.579383
C45	C	2.004546	-0.455618	-0.440441
H46	H	1.586112	-0.496491	-1.031839
H47	H	1.948488	-0.496213	-1.395483
O48	O	2.332129	-1.019995	-1.203139
H49	H	2.377958	-0.977380	-1.249031
H50	H	2.118352	-0.373236	-1.413817
H51	H	1.893437	-0.784847	-0.764106
H52	H	1.481715	-0.373344	-0.776411
O53	O	2.113472	-1.144031	-0.984190
H54	H	2.091846	-1.122767	-1.074674
H55	H	1.979839	-0.735823	-0.850652
H56	H	1.761171	-0.859866	-0.631695
O57	O	1.690297	-0.972838	-0.560672
H58	H	1.644469	-1.015450	-0.514767
H59	H	1.769652	-1.133447	-0.640026
H60	H	2.172989	-1.084119	-1.043794
O61	O	2.376106	-0.896121	-1.247243
H62	H	2.451402	-0.939095	-1.210478
O63	O	2.316022	-0.724579	-1.187181
H64	H	2.391653	-0.767072	-1.262885
