data_functionalizedCrystal
_audit_creation_method	'MofGen! by Chris Wilmer'
_symmetry_space_group_name_H-M	'P1'
_symmetry_Int_Tables_number	1
_symmetry_cell_setting	triclinic
loop_
_symmetry_equiv_pos_as_xyz
  x,y,z
_cell_length_a	19.805407
_cell_length_b	19.077068
_cell_length_c	19.805399
_cell_angle_alpha	92.269429
_cell_angle_beta	89.980427
_cell_angle_gamma	92.327086
loop_
_atom_site_label
_atom_site_type_symbol
_atom_site_fract_x
_atom_site_fract_y
_atom_site_fract_z
Zn1	Zn	1.023904	-0.280218	-0.393534
Zn2	Zn	1.019269	-0.397917	-0.284888
Zn3	Zn	0.910718	-0.280237	-0.280359
Zn4	Zn	0.906134	-0.397880	-0.398033
O5	O	0.965006	-0.339063	-0.339204
O6	O	1.118005	-0.295839	-0.379134
O7	O	1.004848	-0.382330	-0.189571
O8	O	0.929590	-0.181744	-0.291594
O9	O	1.114600	-0.382312	-0.299312
O10	O	1.012748	-0.181729	-0.374743
O11	O	0.925096	-0.295872	-0.186244
O12	O	0.815394	-0.295835	-0.295957
O13	O	0.921778	-0.382248	-0.492152
O14	O	0.812026	-0.382267	-0.382411
O15	O	1.008303	-0.295802	-0.488846
O16	O	1.000404	-0.496403	-0.303675
O17	O	0.917284	-0.496376	-0.386802
C18	C	0.789151	-0.339050	-0.339181
C19	C	0.713918	-0.339061	-0.339188
C20	C	0.676836	-0.384133	-0.384138
C21	C	0.606147	-0.384135	-0.384147
C22	C	0.572543	-0.339066	-0.339204
C23	C	0.609630	-0.293989	-0.294252
C24	C	0.680318	-0.293985	-0.294246
C25	C	0.324556	-0.294004	-0.294275
C26	C	0.253864	-0.294014	-0.294283
C27	C	0.250386	-0.384154	-0.384176
C28	C	0.321073	-0.384150	-0.384170
C29	C	0.358155	-0.339070	-0.339221
C30	C	0.434804	-0.339069	-0.339212
C31	C	0.495895	-0.339071	-0.339209
C32	C	0.957862	-0.521927	-0.346233
C33	C	0.954867	-0.600157	-0.349263
C34	C	0.996770	-0.636901	-0.307443
C35	C	0.993957	-0.710406	-0.310296
C36	C	0.949238	-0.747167	-0.354968
C37	C	0.907333	-0.710418	-0.396793
C38	C	0.910150	-0.636914	-0.393942
C39	C	0.936174	-0.967002	-0.368135
C40	C	0.933359	-1.040511	-0.370981
C41	C	1.019984	-1.040494	-0.284485
C42	C	1.022794	-0.966989	-0.281635
C43	C	0.980892	-0.930246	-0.323463
N44	N	0.946361	-0.822301	-0.357884
N45	N	0.983773	-0.855113	-0.320549
C46	C	1.141548	-0.339077	-0.339226
C47	C	1.216780	-0.339083	-0.339236
C48	C	0.965046	-0.339019	-0.515745
C49	C	0.965063	-0.339000	-0.590976
C50	C	0.972197	-0.155485	-0.332161
C51	C	0.975262	-0.077255	-0.329160
C52	C	1.010118	-0.293985	-0.624600
C53	C	1.010125	-0.293965	-0.695288
C54	C	0.965081	-0.338963	-0.732350
C55	C	0.920022	-0.383980	-0.698721
C56	C	0.920011	-0.383996	-0.628035
C57	C	0.920062	-0.383914	-0.983792
C58	C	0.920078	-0.383896	-1.054484
C59	C	1.010177	-0.293883	-1.051045
C60	C	1.010166	-0.293899	-0.980358
C61	C	0.965104	-0.338913	-0.946736
C62	C	0.965096	-0.338934	-0.870088
C63	C	0.965093	-0.338947	-0.808997
C64	C	0.965008	-0.339056	-0.163347
C65	C	0.965130	-0.338877	-0.088109
H66	H	0.348430	-0.420852	-0.420766
H67	H	1.033182	-0.606975	-0.271063
O68	O	0.221142	-0.250202	-0.250714
C69	C	0.182046	-0.204794	-0.287578
H70	H	0.170515	-0.229687	-0.339793
H71	H	0.132693	-0.195342	-0.259666
H72	H	0.211317	-0.152637	-0.293085
O73	O	0.895492	-0.931397	-0.408854
C74	C	0.909562	-0.949289	-0.477023
H75	H	0.933544	-1.002631	-0.480519
H76	H	0.860593	-0.951834	-0.507418
H77	H	0.945924	-0.907871	-0.498255
O78	O	1.060764	-1.076215	-0.243961
C79	C	1.102819	-1.118678	-0.284188
H80	H	1.107809	-1.096486	-0.336641
H81	H	1.154896	-1.119478	-0.259794
H82	H	1.079761	-1.174404	-0.288657
O83	O	1.034803	-0.745969	-0.269701
C84	C	1.102917	-0.727874	-0.283917
H85	H	1.106269	-0.674502	-0.307903
H86	H	1.133420	-0.725294	-0.235016
H87	H	1.124140	-0.769194	-0.320326
H88	H	0.354740	-0.257303	-0.257670
O89	O	0.863910	-0.746234	-0.440128
C90	C	0.870419	-0.818990	-0.433688
H91	H	0.892232	-0.829047	-0.381864
H92	H	0.818644	-0.846964	-0.439315
H93	H	0.905641	-0.839792	-0.474676
O94	O	0.570227	-0.427993	-0.427828
C95	C	0.615045	-0.467764	-0.467499
H96	H	0.665330	-0.470150	-0.439860
H97	H	0.592462	-0.523232	-0.476753
H98	H	0.623585	-0.442072	-0.517963
H99	H	0.876029	-0.606998	-0.427998
H100	H	0.883380	-0.420577	-0.956426
H101	H	0.896951	-1.070439	-0.407369
H102	H	0.220186	-0.420858	-0.420778
H103	H	0.883343	-0.420615	-0.728903
O104	O	1.066142	-0.931254	-0.238168
C105	C	1.029261	-0.888787	-0.192778
H106	H	0.975103	-0.910985	-0.189410
H107	H	1.053802	-0.887973	-0.140680
H108	H	1.029054	-0.833066	-0.211540
H109	H	0.582264	-0.257290	-0.257661
H110	H	0.710510	-0.257278	-0.257647
H111	H	0.883316	-0.420644	-0.600659
H112	H	1.046800	-0.257345	-0.594428
O113	O	1.053959	-0.250218	-0.727844
C114	C	1.093705	-0.210497	-0.679974
H115	H	1.094910	-0.239340	-0.630693
H116	H	1.147331	-0.202993	-0.700120
H117	H	1.071017	-0.157041	-0.670400
O118	O	1.053853	-0.250082	-0.944388
C119	C	1.041815	-0.179934	-0.958988
H120	H	0.987884	-0.176379	-0.978271
H121	H	1.048999	-0.145167	-0.911173
H122	H	1.078827	-0.161531	-0.999324
O123	O	0.709555	-0.427815	-0.427827
C124	C	0.752011	-0.387800	-0.470075
H125	H	0.764675	-0.334429	-0.444234
H126	H	0.800602	-0.416478	-0.480201
H127	H	0.725088	-0.380135	-0.519953
O128	O	1.054039	-0.250224	-1.083680
C129	C	1.120892	-0.265607	-1.066999
H130	H	1.122103	-0.321840	-1.049727
H131	H	1.154576	-0.259534	-1.113259
H132	H	1.140058	-0.227887	-1.024523
O133	O	0.876251	-0.427628	-1.090384
C134	C	0.836486	-0.467374	-1.045551
H135	H	0.835262	-0.438559	-0.994057
H136	H	0.782868	-0.474866	-1.066257
H137	H	0.859171	-0.520835	-1.040088
