data_functionalizedCrystal
_audit_creation_method	'MofGen! by Chris Wilmer'
_symmetry_space_group_name_H-M	'P1'
_symmetry_Int_Tables_number	1
_symmetry_cell_setting	triclinic
loop_
_symmetry_equiv_pos_as_xyz
  x,y,z
_cell_length_a	16.992694
_cell_length_b	9.065218
_cell_length_c	7.540329
_cell_angle_alpha	90.001757
_cell_angle_beta	89.997336
_cell_angle_gamma	87.842054
loop_
_atom_site_label
_atom_site_type_symbol
_atom_site_fract_x
_atom_site_fract_y
_atom_site_fract_z
O1	O	-1.042613	-0.313083	-0.147248
O2	O	-0.814303	-0.309648	-0.147301
O3	O	-0.933177	-0.097161	-0.147270
O4	O	-0.923739	-0.525570	-0.147279
O5	O	-0.933170	-0.097157	0.147695
O6	O	-0.814296	-0.309644	0.147664
O7	O	-1.042606	-0.313079	0.147717
Cu8	Cu	-0.928450	-0.311361	0.174623
Cu9	Cu	-0.928459	-0.311365	-0.174207
O10	O	-0.923732	-0.525566	0.147686
C11	C	-0.932267	-0.042088	0.000210
C12	C	-0.929555	0.122007	0.000200
C13	C	-0.785056	-0.305227	0.000175
C14	C	-0.697918	-0.292043	0.000155
C15	C	-1.071853	-0.317499	0.000237
C16	C	-1.158991	-0.330683	0.000246
C17	C	-0.648581	-0.419249	0.000153
C18	C	-0.566706	-0.406853	0.000178
C19	C	-0.534170	-0.267249	0.000192
C20	C	-0.583514	-0.140034	0.000198
C21	C	-0.665387	-0.152432	0.000186
C22	C	-0.290208	-0.215866	0.000240
C23	C	-0.208328	-0.203477	0.000247
C24	C	-0.191526	-0.470298	0.000230
C25	C	-0.273402	-0.482683	0.000207
C26	C	-0.322738	-0.355468	0.000223
N27	N	-0.450482	-0.254575	0.000211
N28	N	-0.406425	-0.368144	0.000216
C29	C	-0.924643	-0.580639	0.000202
C30	C	-0.927355	-0.744733	0.000200
N31	N	-0.928450	-0.311358	0.419972
N32	N	-0.928465	-0.311358	-0.419556
H33	H	-0.675065	-0.532930	0.000141
C34	C	-0.558323	-0.671834	0.000136
C35	C	-0.512475	-0.546683	0.000168
H36	H	-0.524841	-0.758161	0.000121
H37	H	-0.590610	-0.671124	0.102983
H38	H	-0.590601	-0.671102	-0.102740
H39	H	-0.480200	-0.547409	0.103051
H40	H	-0.480174	-0.547393	-0.102689
C41	C	-0.355684	-0.651402	-0.151532
C42	C	-0.309147	-0.636155	0.000137
H43	H	-0.377742	-0.746158	-0.151600
H44	H	-0.396792	-0.577445	-0.151502
H45	H	-0.324074	-0.640967	-0.254355
H46	H	-0.340759	-0.646579	0.102961
H47	H	-0.268033	-0.710132	0.000123
C48	C	-0.704920	0.071166	-0.151454
C49	C	-0.719624	-0.012607	0.000174
H50	H	-0.738408	0.157485	-0.151459
H51	H	-0.651511	0.098529	-0.151433
H52	H	-0.714882	0.014301	-0.254305
H53	H	-0.709656	0.044255	0.103026
H54	H	-0.773046	-0.039967	0.000169
C55	C	-0.058560	-0.569773	0.000257
C56	C	-0.137295	-0.610127	0.000236
H57	H	-0.025082	-0.656104	0.000277
H58	H	-0.048592	-0.512943	-0.102597
H59	H	-0.048609	-0.512923	0.103126
H60	H	-0.147248	-0.666968	-0.102640
H61	H	-0.147267	-0.666981	0.103100
C62	C	-0.233156	0.059032	0.000282
C63	C	-0.172564	-0.050013	0.000265
H64	H	-0.211074	0.153766	0.000298
H65	H	-0.264738	0.048655	-0.102572
H66	H	-0.264743	0.048639	0.103151
H67	H	-0.140980	-0.039627	-0.102611
H68	H	-0.140969	-0.039632	0.103129
C69	C	-0.392013	-0.075010	-0.151400
C70	C	-0.344430	-0.076030	0.000233
H71	H	-0.425492	0.011321	-0.151399
H72	H	-0.359719	-0.075725	-0.254237
H73	H	-0.423109	-0.159925	-0.151382
H74	H	-0.313330	0.008881	0.000208
H75	H	-0.376728	-0.075300	0.103096
C76	C	-0.572633	0.091205	0.151845
C77	C	-0.547753	0.013423	0.000212
H78	H	-0.550553	0.185942	0.151850
H79	H	-0.628448	0.102023	0.151830
H80	H	-0.555760	0.038410	0.254693
H81	H	-0.564632	0.066214	-0.102636
H82	H	-0.491926	0.002611	0.000212
