data_functionalizedCrystal
_audit_creation_method	'MofGen! by Chris Wilmer'
_symmetry_space_group_name_H-M	'P1'
_symmetry_Int_Tables_number	1
_symmetry_cell_setting	triclinic
loop_
_symmetry_equiv_pos_as_xyz
  x,y,z
_cell_length_a	19.805407
_cell_length_b	19.077068
_cell_length_c	19.077314
_cell_angle_alpha	89.878373
_cell_angle_beta	92.280666
_cell_angle_gamma	92.327086
loop_
_atom_site_label
_atom_site_type_symbol
_atom_site_fract_x
_atom_site_fract_y
_atom_site_fract_z
Zn1	Zn	1.008751	-0.263811	-0.408556
Zn2	Zn	1.508751	0.236189	0.091444
Zn3	Zn	1.008299	-0.386040	-0.295763
Zn4	Zn	1.508299	0.113960	0.204237
Zn5	Zn	0.899922	-0.268549	-0.291061
Zn6	Zn	1.399922	0.231451	0.208939
Zn7	Zn	0.890807	-0.381285	-0.413227
Zn8	Zn	1.390807	0.118715	0.086773
O9	O	0.951945	-0.324921	-0.352152
O10	O	1.451945	0.175079	0.147848
O11	O	1.103407	-0.280032	-0.393606
O12	O	1.603407	0.219968	0.106394
O13	O	0.997549	-0.374427	-0.196808
O14	O	1.497549	0.125573	0.303192
O15	O	0.918362	-0.169587	-0.302725
O16	O	1.418362	0.330413	0.197275
O17	O	1.103075	-0.369833	-0.310738
O18	O	1.603075	0.130167	0.189262
O19	O	0.998318	-0.166106	-0.389048
O20	O	1.498318	0.333894	0.110952
O21	O	0.917925	-0.288107	-0.193354
O22	O	1.417925	0.211893	0.306646
O23	O	0.803997	-0.283497	-0.307254
O24	O	1.303997	0.216503	0.192746
O25	O	0.902827	-0.361730	-0.510939
O26	O	1.402827	0.138270	-0.010939
O27	O	0.797301	-0.366324	-0.397009
O28	O	1.297301	0.133676	0.102991
O29	O	0.989479	-0.275422	-0.507507
O30	O	1.489479	0.224578	-0.007507
O31	O	0.988710	-0.483743	-0.315267
O32	O	1.488710	0.016257	0.184733
O33	O	0.902389	-0.480250	-0.401568
O34	O	1.402389	0.019750	0.098432
C35	C	0.776090	-0.324909	-0.352128
C36	C	1.276090	0.175091	0.147872
C37	C	0.700858	-0.324920	-0.352136
C38	C	1.200858	0.175080	0.147864
C39	C	0.662044	-0.368118	-0.398801
C40	C	1.162044	0.131882	0.101199
C41	C	0.591355	-0.368119	-0.398811
C42	C	1.091355	0.131881	0.101189
C43	C	0.559481	-0.324925	-0.352152
C44	C	1.059481	0.175075	0.147848
C45	C	0.598300	-0.281721	-0.305484
C46	C	1.098300	0.218279	0.194516
C47	C	0.668987	-0.281717	-0.305478
C48	C	1.168987	0.218283	0.194522
C49	C	0.313225	-0.281736	-0.305508
C50	C	0.813225	0.218264	0.194492
C51	C	0.242532	-0.281745	-0.305516
C52	C	0.742532	0.218255	0.194484
C53	C	0.235593	-0.368138	-0.398841
C54	C	0.735593	0.131862	0.101159
C55	C	0.306280	-0.368134	-0.398835
C56	C	0.806280	0.131866	0.101165
C57	C	0.345093	-0.324928	-0.352170
C58	C	0.845093	0.175072	0.147830
C59	C	0.421742	-0.324926	-0.352161
C60	C	0.921742	0.175074	0.147839
C61	C	0.482834	-0.324929	-0.352157
C62	C	0.982834	0.175071	0.147843
C63	C	0.944530	-0.507492	-0.359450
C64	C	1.444530	-0.007492	0.140550
C65	C	0.941418	-0.585596	-0.362595
C66	C	1.441418	-0.085596	0.137405
C67	C	0.984931	-0.624083	-0.319178
C68	C	1.484931	-0.124083	0.180822
C69	C	0.982009	-0.697470	-0.322141
C70	C	1.482009	-0.197470	0.177859
C71	C	0.935570	-0.732368	-0.368518
C72	C	1.435570	-0.232368	0.131482
C73	C	0.892055	-0.693875	-0.411939
C74	C	1.392055	-0.193875	0.088061
C75	C	0.894981	-0.620490	-0.408980
C76	C	1.394981	-0.120490	0.091020
C77	C	0.921998	-0.951654	-0.382187
C78	C	1.421998	-0.451654	0.117813
C79	C	0.919074	-1.025044	-0.385142
C80	C	1.419074	-0.525044	0.114858
C81	C	1.009030	-1.028634	-0.295344
C82	C	1.509030	-0.528634	0.204656
C83	C	1.011949	-0.955247	-0.292386
C84	C	1.511949	-0.455247	0.207614
C85	C	0.968436	-0.916761	-0.335810
C86	C	1.468436	-0.416761	0.164190
N87	N	0.932580	-0.807381	-0.371546
N88	N	1.432580	-0.307381	0.128454
N89	N	0.971430	-0.841749	-0.332785
N90	N	1.471430	-0.341749	0.167215
C91	C	1.128486	-0.324934	-0.352175
C92	C	1.628486	0.175066	0.147825
C93	C	1.203718	-0.324940	-0.352186
C94	C	1.703718	0.175060	0.147814
C95	C	0.945187	-0.317517	-0.535432
C96	C	1.445187	0.182483	-0.035432
C97	C	0.942307	-0.314361	-0.613535
C98	C	1.442307	0.185639	-0.113535
C99	C	0.959407	-0.141637	-0.344841
C100	C	1.459407	0.358363	0.155159
C101	C	0.962587	-0.063532	-0.341725
C102	C	1.462587	0.436468	0.158275
C103	C	0.982407	-0.357819	-0.652029
C104	C	1.482407	0.142181	-0.152029
C105	C	0.979701	-0.354846	-0.725415
C106	C	1.479701	0.145154	-0.225415
C107	C	0.936891	-0.308418	-0.760305
C108	C	1.436891	0.191582	-0.260305
C109	C	0.896790	-0.264956	-0.721806
C110	C	1.396790	0.235044	-0.221806
C111	C	0.899500	-0.267926	-0.648421
C112	C	1.399500	0.232074	-0.148421
C113	C	0.924345	-0.294712	-0.979588
C114	C	1.424345	0.205288	-0.479588
C115	C	0.921637	-0.291746	-1.052978
C116	C	1.421637	0.208254	-0.552978
C117	C	1.004549	-0.381636	-1.056582
C118	C	1.504549	0.118364	-0.556582
C119	C	1.007252	-0.384605	-0.983196
C120	C	1.507252	0.115395	-0.483196
C121	C	0.967153	-0.341140	-0.944703
C122	C	1.467153	0.158860	-0.444703
N123	N	0.934123	-0.305379	-0.835317
N124	N	1.434123	0.194621	-0.335317
N125	N	0.969926	-0.344176	-0.869692
N126	N	1.469926	0.155824	-0.369692
C127	C	0.958718	-0.332246	-0.169583
C128	C	1.458718	0.167754	0.330417
C129	C	0.961737	-0.335204	-0.091472
C130	C	1.461737	0.164796	0.408528
H131	H	0.332229	-0.403310	-0.436827
H132	H	0.832229	0.096690	0.063173
H133	H	0.886567	-0.920324	-0.417544
H134	H	1.386567	-0.420324	0.082456
N135	N	1.035018	-0.586446	-0.269155
N136	N	1.535018	-0.086446	0.230845
H137	H	1.062141	-0.621966	-0.242102
H138	H	1.562141	-0.121966	0.257898
H139	H	1.066478	-0.554802	-0.296560
H140	H	1.566478	-0.054802	0.203440
N141	N	0.881100	-0.247822	-0.938088
N142	N	1.381100	0.252178	-0.438088
H143	H	0.831823	-0.258210	-0.951286
H144	H	1.331823	0.241790	-0.451286
H145	H	0.889364	-0.256754	-0.886315
H146	H	1.389364	0.243246	-0.386315
N147	N	0.848051	-0.578975	-0.455810
N148	N	1.348051	-0.078975	0.044190
H149	H	0.818187	-0.612217	-0.485638
H150	H	1.318187	-0.112217	0.014362
H151	H	0.819019	-0.549721	-0.425952
H152	H	1.319019	-0.049721	0.074048
H153	H	0.854245	-0.722295	-0.449703
H154	H	1.354245	-0.222295	0.050297
N155	N	0.563925	-0.235145	-0.255145
N156	N	1.063925	0.264855	0.244855
H157	H	0.513255	-0.241709	-0.262222
H158	H	1.013255	0.258291	0.237778
H159	H	0.577692	-0.248048	-0.205383
H160	H	1.077692	0.251952	0.294617
H161	H	1.042101	-0.422422	-0.954794
H162	H	1.542101	0.077578	-0.454794
H163	H	0.861937	-0.227150	-0.750219
H164	H	1.361937	0.272850	-0.250219
H165	H	1.044456	-1.059977	-0.259992
H166	H	1.544456	-0.559977	0.240008
H167	H	1.012354	-0.390233	-0.756754
H168	H	1.512354	0.109767	-0.256754
N169	N	1.028938	-0.738979	-0.275308
N170	N	1.528938	-0.238979	0.224692
H171	H	1.020043	-0.790764	-0.284222
H172	H	1.520043	-0.290764	0.215778
H173	H	1.077378	-0.725659	-0.285771
H174	H	1.577378	-0.225659	0.214229
N175	N	0.868983	-1.062687	-0.435164
N176	N	1.368983	-0.562687	0.064836
H177	H	0.841863	-1.027171	-0.462226
H178	H	1.341863	-0.527171	0.037774
H179	H	0.894100	-1.091786	-0.468931
H180	H	1.394100	-0.591786	0.031069
H181	H	0.559756	-0.403296	-0.436810
H182	H	1.059756	0.096704	0.063190
H183	H	0.203983	-0.403315	-0.436840
H184	H	0.703983	0.096685	0.063160
N185	N	1.047805	-0.428503	-1.098101
N186	N	1.547805	0.071497	-0.598101
H187	H	1.075336	-0.458363	-1.064862
H188	H	1.575336	0.041637	-0.564862
H189	H	1.017808	-0.459789	-1.129844
H190	H	1.517808	0.040211	-0.629844
N191	N	0.875460	-0.241670	-1.090613
N192	N	1.375460	0.258330	-0.590613
H193	H	0.850469	-0.214585	-1.055092
H194	H	1.350469	0.285415	-0.555092
H195	H	0.903213	-0.207926	-1.119770
H196	H	1.403213	0.292074	-0.619770
N197	N	0.208154	-0.235152	-0.255189
N198	N	0.708154	0.264848	0.244811
H199	H	0.157484	-0.241717	-0.262272
H200	H	0.657484	0.258283	0.237728
H201	H	0.221913	-0.248039	-0.205420
H202	H	0.721913	0.251961	0.294580
H203	H	0.344818	-0.246560	-0.267506
H204	H	0.844818	0.253440	0.232494
H205	H	1.049764	-0.926835	-0.254622
H206	H	1.549764	-0.426835	0.245378
H207	H	1.017269	-0.395623	-0.623627
H208	H	1.517269	0.104377	-0.123627
N209	N	0.710848	-0.235119	-0.255147
N210	N	1.210848	0.264881	0.244853
H211	H	0.699951	-0.247982	-0.205356
H212	H	1.199951	0.252018	0.294644
H213	H	0.760450	-0.241685	-0.262284
H214	H	1.260450	0.258315	0.237716
N215	N	0.696420	-0.414712	-0.449122
N216	N	1.196420	0.085288	0.050878
H217	H	0.661103	-0.442077	-0.478686
H218	H	1.161103	0.057923	0.021314
H219	H	0.725714	-0.384843	-0.480544
H220	H	1.225714	0.115157	0.019456
N221	N	0.856255	-0.221049	-0.606899
N222	N	1.356255	0.278951	-0.106899
H223	H	0.828724	-0.191186	-0.640136
H224	H	1.328724	0.308814	-0.140136
H225	H	0.824891	-0.250879	-0.577585
H226	H	1.324891	0.249121	-0.077585
