data_functionalizedCrystal
_audit_creation_method	'MofGen! by Chris Wilmer'
_symmetry_space_group_name_H-M	'P1'
_symmetry_Int_Tables_number	1
_symmetry_cell_setting	triclinic
loop_
_symmetry_equiv_pos_as_xyz
  x,y,z
_cell_length_a	14.628931
_cell_length_b	14.628931
_cell_length_c	14.628931
_cell_angle_alpha	90.000000
_cell_angle_beta	60.000193
_cell_angle_gamma	59.999807
loop_
_atom_site_label
_atom_site_type_symbol
_atom_site_fract_x
_atom_site_fract_y
_atom_site_fract_z
Zr1	Zr	1.000576	0.880618	-0.119958
O2	O	1.191281	0.734657	-0.265918
O3	O	0.809870	0.925363	-0.075213
O4	O	1.000575	0.925363	-0.265918
O5	O	1.000577	0.734656	0.075218
O6	O	1.000575	1.075795	-0.265918
O7	O	1.000576	0.734657	-0.075213
O8	O	0.659438	1.075795	0.075218
O9	O	1.341713	0.734656	-0.265918
O10	O	0.888310	1.056712	-0.056130
O11	O	0.888310	0.944446	0.056135
O12	O	1.112841	0.944446	-0.168395
O13	O	1.112842	0.832180	-0.056130
Zr14	Zr	1.000576	1.120539	0.119964
Zr15	Zr	1.000575	1.120540	-0.119957
Zr16	Zr	1.000576	0.880617	0.119963
Zr17	Zr	1.240497	0.880617	-0.119957
Zr18	Zr	0.760654	1.120540	0.119963
O19	O	1.191281	1.075794	0.075219
O20	O	1.191280	1.075795	-0.265918
O21	O	1.191282	0.734656	0.075219
O22	O	0.809870	1.266500	0.265924
O23	O	0.809869	1.266501	-0.075213
O24	O	0.809871	0.925362	0.265924
O25	O	1.000575	1.266501	-0.075213
O26	O	1.000576	1.075794	0.265924
O27	O	1.000577	0.925362	0.265924
O28	O	1.000575	1.266500	0.075219
O29	O	1.341713	0.925362	-0.265918
O30	O	0.659439	1.075795	0.265924
O31	O	0.659438	1.266501	0.265924
O32	O	0.659438	1.266501	0.075219
O33	O	1.341714	0.734656	-0.075213
O34	O	1.341713	0.925362	-0.075213
O35	O	0.888310	1.056711	0.168401
O36	O	0.888310	1.168977	0.056136
O37	O	1.112841	1.056711	-0.056130
O38	O	1.112842	0.944445	0.056136
C39	C	0.700470	1.000579	0.000002
C40	C	0.598617	1.000579	0.000002
C41	C	0.447943	1.056269	-0.055688
C42	C	0.553213	1.056270	-0.055689
C43	C	1.000576	0.700473	0.000002
C44	C	1.000577	0.598620	0.000002
C45	C	0.889194	0.608902	0.055693
C46	C	0.889192	0.503633	0.055695
C47	C	1.300681	1.000578	0.000003
C48	C	1.402534	1.000578	0.000003
C49	C	1.000575	1.000579	-0.300102
C50	C	1.000574	1.000579	-0.401955
C51	C	1.000575	1.300684	0.000003
C52	C	1.000574	1.402537	0.000003
C53	C	1.111957	0.944888	-0.503055
C54	C	1.111959	0.944886	-0.608327
C55	C	1.000576	1.000578	0.300108
C56	C	1.000577	1.000578	0.401961
C57	C	0.700469	1.300685	0.000003
C58	C	0.598616	1.402538	0.000003
C59	C	0.700471	1.000578	0.300107
C60	C	0.598619	1.000578	0.401960
C61	C	0.700470	1.300684	0.300108
C62	C	0.598617	1.402537	0.401961
C63	C	1.300681	0.700473	-0.300102
C64	C	1.402534	0.598620	-0.401955
C65	C	1.300682	0.700472	0.000003
C66	C	1.402535	0.598619	0.000003
C67	C	1.300680	1.000578	-0.300101
C68	C	1.402533	1.000578	-0.401954
C69	C	0.553207	1.392256	-0.055688
C70	C	0.447936	1.497525	-0.055690
C71	C	0.553209	1.056270	0.503060
C72	C	0.447939	1.056271	0.608332
C73	C	0.553208	1.503638	0.391678
C74	C	0.447937	1.608910	0.496947
H75	H	0.441598	0.952894	0.047676
H76	H	0.592272	1.103944	0.511681
F77	F	0.764546	0.514917	0.118011
H78	H	0.441574	0.952904	0.511318
H79	H	0.592258	1.103955	-0.103363
H80	H	0.793837	0.695639	0.103377
F81	F	1.236605	0.882557	-0.721688
F82	F	0.547578	0.938250	0.390685
F83	F	1.125225	0.391245	-0.062329
F84	F	0.396892	1.722272	0.485664
F85	F	1.125220	0.485251	-0.062313
F86	F	0.875926	1.062897	-0.484681
F87	F	0.396890	1.486241	-0.118006
H88	H	0.408891	1.103944	-0.103372
H89	H	0.559564	1.393917	0.488697
F90	F	0.875931	1.062907	-0.390680
F91	F	0.547578	0.938260	0.062334
H92	H	1.207314	0.897214	-0.511675
F93	F	0.604260	1.278887	-0.118016
F94	F	0.453559	1.609913	0.062333
F95	F	0.547576	1.515907	0.062318
F96	F	0.453560	1.485264	0.609335
F97	F	0.604261	1.514913	0.278310
F98	F	0.396894	1.118601	0.721693
