data_functionalizedCrystal
_audit_creation_method	'MofGen! by Chris Wilmer'
_symmetry_space_group_name_H-M	'P1'
_symmetry_Int_Tables_number	1
_symmetry_cell_setting	triclinic
loop_
_symmetry_equiv_pos_as_xyz
  x,y,z
_cell_length_a	14.044202
_cell_length_b	12.837942
_cell_length_c	11.295483
_cell_angle_alpha	85.469583
_cell_angle_beta	94.477316
_cell_angle_gamma	94.010821
loop_
_atom_site_label
_atom_site_type_symbol
_atom_site_fract_x
_atom_site_fract_y
_atom_site_fract_z
O1	O	-1.286274	-0.245628	-0.098962
O2	O	-0.786274	0.254372	0.401038
O3	O	-1.009483	-0.236523	-0.098978
O4	O	-0.509483	0.263477	0.401022
O5	O	-1.141740	-0.089605	-0.098963
O6	O	-0.641740	0.410395	0.401037
O7	O	-1.154016	-0.392545	-0.098977
O8	O	-0.654016	0.107455	0.401023
O9	O	-1.130122	-0.102487	0.099086
O10	O	-0.630122	0.397513	0.599086
O11	O	-0.997865	-0.249405	0.099071
O12	O	-0.497865	0.250595	0.599071
O13	O	-1.274655	-0.258510	0.099087
O14	O	-0.774655	0.241490	0.599087
Cu15	Cu	-1.135199	-0.255134	0.117163
Cu16	Cu	-0.635199	0.244866	0.617163
Cu17	Cu	-1.148939	-0.239899	-0.117054
Cu18	Cu	-0.648939	0.260101	0.382946
O19	O	-1.142398	-0.405428	0.099072
O20	O	-0.642398	0.094572	0.599072
C21	C	-0.968000	-0.238981	0.000045
C22	C	-0.468000	0.261019	0.500045
C23	C	-0.861701	-0.227103	0.000039
C24	C	-0.361701	0.272897	0.500039
C25	C	-0.617062	-0.289623	0.000047
C26	C	-0.117062	0.210377	0.500047
C27	C	-0.667084	-0.205405	0.000049
C28	C	-0.167084	0.294595	0.500049
C29	C	-0.775379	-0.217480	0.000044
C30	C	-0.275379	0.282520	0.500044
C31	C	-0.508757	-0.277549	0.000053
C32	C	-0.008757	0.222451	0.500053
C33	C	-0.316139	-0.256049	0.000061
C34	C	0.183861	0.243951	0.500061
C35	C	-0.422438	-0.267920	0.000058
C36	C	0.077562	0.232080	0.500058
C37	C	-1.131785	-0.057042	0.000061
C38	C	-0.631785	0.442958	0.500061
C39	C	-1.119417	0.059179	0.000058
C40	C	-0.619417	0.559179	0.500058
C41	C	-1.152354	-0.437991	0.000046
C42	C	-0.652354	0.062009	0.500046
C43	C	-1.164722	-0.554211	0.000041
C44	C	-0.664722	-0.054211	0.500041
N45	N	-1.125542	-0.265849	0.281898
N46	N	-0.625542	0.234151	0.781898
C47	C	-1.268098	0.286385	0.000042
C48	C	-0.768098	0.786385	0.500042
C49	C	-1.256482	0.395586	0.000039
C50	C	-0.756482	0.895586	0.500039
C51	C	-1.084571	0.386783	0.000042
C52	C	-0.584571	0.886783	0.500042
C53	C	-1.096187	0.277583	0.000044
C54	C	-0.596187	0.777583	0.500044
C55	C	-1.187953	0.227388	0.000046
C56	C	-0.687953	0.727388	0.500046
C57	C	-1.199568	0.118184	0.000057
C58	C	-0.699568	0.618184	0.500057
C59	C	-1.027658	0.109385	0.000051
C60	C	-0.527658	0.609385	0.500051
C61	C	-1.016042	0.218585	0.000049
C62	C	-0.516042	0.718585	0.500049
N63	N	-1.158603	-0.229176	-0.281789
N64	N	-0.658603	0.270824	0.218211
C65	C	-1.228116	-0.151982	0.531199
C66	C	-0.728116	0.348018	1.031199
C67	C	-1.220825	-0.160088	0.655862
C68	C	-0.720825	0.339912	1.155862
C69	C	-1.103666	-0.290160	0.655889
C70	C	-0.603666	0.209840	1.155889
C71	C	-1.110956	-0.282055	0.531226
C72	C	-0.610956	0.217945	1.031226
C73	C	-1.173184	-0.212964	0.468885
C74	C	-0.673184	0.287036	0.968885
C75	C	-1.180479	-0.204865	0.344220
C76	C	-0.680479	0.295135	0.844220
C77	C	-1.063316	-0.334931	0.344250
C78	C	-0.563316	0.165069	0.844250
C79	C	-1.056025	-0.343037	0.468912
C80	C	-0.556025	0.156963	0.968912
H81	H	-1.274288	0.077317	0.000063
H82	H	-0.774288	0.577317	0.500063
H83	H	-1.052994	-0.346405	0.706663
H84	H	-0.552994	0.153595	1.206663
H85	H	-1.231151	-0.148611	0.293464
H86	H	-0.731151	0.351389	0.793464
Br87	Br	-0.971572	-0.436793	0.553524
Br88	Br	-0.471572	0.063207	1.053524
H89	H	-1.018590	-0.384590	0.293500
H90	H	-0.518590	0.115410	0.793500
Br91	Br	-1.392631	0.218255	0.000081
Br92	Br	-0.892631	0.718255	0.500081
H93	H	-1.321745	0.443618	0.000032
H94	H	-0.821745	0.943618	0.500032
Br95	Br	-0.960044	0.454927	-0.000004
Br96	Br	-0.460044	0.954927	0.499996
H97	H	-0.628581	-0.124228	-0.000031
H98	H	-0.128581	0.375772	0.499969
H99	H	-0.655567	-0.370788	0.000040
H100	H	-0.155567	0.129212	0.500040
Br101	Br	-0.891510	0.286718	0.000031
Br102	Br	-0.391510	0.786718	0.500031
H103	H	-0.962398	0.061337	0.000064
H104	H	-0.462398	0.561337	0.500064
Br105	Br	-1.312579	-0.058235	0.446591
Br106	Br	-0.812579	0.441765	0.946591
H107	H	-1.265554	-0.110429	0.706594
H108	H	-0.765554	0.389571	1.206594
