data_functionalizedCrystal
_audit_creation_method	'MofGen! by Chris Wilmer'
_symmetry_space_group_name_H-M	'P1'
_symmetry_Int_Tables_number	1
_symmetry_cell_setting	triclinic
loop_
_symmetry_equiv_pos_as_xyz
  x,y,z
_cell_length_a	14.971482
_cell_length_b	14.044220
_cell_length_c	13.448316
_cell_angle_alpha	89.992660
_cell_angle_beta	89.993798
_cell_angle_gamma	88.400743
loop_
_atom_site_label
_atom_site_type_symbol
_atom_site_fract_x
_atom_site_fract_y
_atom_site_fract_z
O1	O	1.196680	0.123521	-0.082682
O2	O	0.937445	0.138319	-0.082687
O3	O	1.063172	-0.007069	-0.082675
O4	O	1.070954	0.268909	-0.082694
O5	O	1.063154	-0.007078	0.082709
O6	O	0.937427	0.138310	0.082697
O7	O	1.196662	0.123512	0.082702
Cu8	Cu	1.067043	0.130910	0.097800
Cu9	Cu	1.067064	0.130921	-0.097785
O10	O	1.070936	0.268900	0.082690
C11	C	0.904059	0.137653	0.000004
C12	C	0.804606	0.135672	0.000003
C13	C	0.757878	0.134734	0.090155
C14	C	0.664432	0.132857	0.090156
C15	C	0.617715	0.131925	0.000004
C16	C	0.664450	0.132860	-0.090155
C17	C	0.757894	0.134730	-0.090155
C18	C	0.469681	0.128965	-0.090148
C19	C	0.376229	0.127097	-0.090148
C20	C	0.376218	0.127092	0.090163
C21	C	0.469663	0.128962	0.090163
C22	C	0.516391	0.129899	0.000003
C23	C	1.059756	-0.042392	0.000018
C24	C	1.049595	-0.147629	0.000019
C25	C	1.031018	-0.340311	0.000004
C26	C	1.103085	-0.397864	0.000002
C27	C	1.092749	-0.505079	-0.000006
C28	C	1.041353	-0.233086	0.000012
C29	C	1.230048	0.124178	0.000009
C30	C	1.329501	0.126159	0.000004
C31	C	1.074351	0.304223	-0.000005
C32	C	1.084513	0.409460	-0.000012
N33	N	1.067035	0.130902	0.235365
N34	N	1.067079	0.130921	-0.235349
C35	C	1.122727	0.066551	0.287410
C36	C	1.122733	0.066550	0.391514
C37	C	1.067050	0.130906	0.443569
C38	C	1.011351	0.195260	0.391516
C39	C	1.011341	0.195255	0.287415
C40	C	1.011376	0.195266	0.608496
C41	C	1.011387	0.195272	0.712605
C42	C	1.122768	0.066561	0.712595
C43	C	1.122758	0.066556	0.608494
C44	C	1.067060	0.130912	0.556448
H45	H	0.626405	0.132095	-0.163558
C46	C	0.950080	0.266045	0.230161
C47	C	0.888863	0.336869	0.287417
C48	C	0.827596	0.407657	0.230165
C49	C	0.827546	0.407622	0.115657
C50	C	0.888765	0.336796	0.058395
C51	C	0.950032	0.266007	0.115647
H52	H	0.888898	0.336897	0.372188
H53	H	0.782278	0.460088	0.272554
H54	H	0.782193	0.460024	0.073276
H55	H	0.888730	0.336767	-0.026375
H56	H	0.995351	0.213577	0.073258
C57	C	1.184032	-0.004234	0.769844
C58	C	1.245290	-0.075021	0.712591
C59	C	1.306555	-0.145809	0.769847
C60	C	1.306562	-0.145810	0.884354
C61	C	1.245302	-0.075021	0.941613
C62	C	1.184037	-0.004233	0.884358
H63	H	1.245286	-0.075022	0.627821
H64	H	1.351903	-0.198211	0.727459
H65	H	1.351914	-0.198212	0.926738
H66	H	1.245306	-0.075020	1.026384
H67	H	1.138688	0.048169	0.926745
H68	H	1.168081	0.014150	0.433889
H69	H	0.795908	0.135500	0.163567
C70	C	0.324844	0.126063	-0.189317
C71	C	0.257008	0.207031	-0.214132
C72	C	0.205624	0.205995	-0.313303
C73	C	0.222076	0.123992	-0.387661
C74	C	0.289915	0.043018	-0.362848
C75	C	0.341299	0.044053	-0.263677
H76	H	0.244826	0.267740	-0.159086
H77	H	0.155406	0.265938	-0.331671
H78	H	0.184039	0.123226	-0.461073
H79	H	0.302097	-0.017691	-0.417894
H80	H	0.391517	-0.015890	-0.245309
C81	C	0.809298	0.135767	-0.189324
C82	C	0.869944	0.219305	-0.214126
C83	C	0.921345	0.220337	-0.313299
C84	C	0.912101	0.137832	-0.387670
C85	C	0.851452	0.054288	-0.362870
C86	C	0.800050	0.053256	-0.263697
H87	H	0.876789	0.280386	-0.159071
H88	H	0.966241	0.282183	-0.331658
H89	H	0.950151	0.138596	-0.461084
H90	H	0.844606	-0.006793	-0.417925
H91	H	0.755154	-0.008590	-0.245338
H92	H	0.966018	0.247669	0.566124
H93	H	0.507724	0.129728	-0.163565
H94	H	0.626391	0.132077	0.163567
C95	C	0.937184	-0.382518	0.000008
C96	C	0.853688	-0.315953	0.000018
C97	C	0.759855	-0.358173	0.000028
C98	C	0.749519	-0.466960	0.000028
C99	C	0.833017	-0.533532	0.000018
C100	C	0.926850	-0.491312	0.000008
H101	H	0.861338	-0.235416	0.000018
H102	H	0.698044	-0.308891	0.000035
H103	H	0.680058	-0.498214	0.000035
H104	H	0.825368	-0.614068	0.000018
H105	H	0.988661	-0.540593	0.000001
C106	C	1.196926	-0.355657	0.000021
C107	C	1.207272	-0.246872	0.000037
C108	C	1.301109	-0.204660	0.000061
C109	C	1.384599	-0.271234	0.000068
C110	C	1.374256	-0.380026	0.000051
C111	C	1.280419	-0.422237	0.000027
H112	H	1.145465	-0.197584	0.000032
H113	H	1.308765	-0.124125	0.000074
H114	H	1.454063	-0.239986	0.000086
H115	H	1.436063	-0.429314	0.000056
H116	H	1.272763	-0.502773	0.000015
H117	H	1.168075	0.014149	0.245034
H118	H	0.338168	0.126329	0.163574
C119	C	1.184009	-0.004232	0.551227
C120	C	1.173904	-0.112187	0.565552
C121	C	1.235153	-0.182977	0.508284
C122	C	1.306507	-0.145814	0.436691
C123	C	1.316615	-0.037854	0.422363
C124	C	1.255366	0.032937	0.479631
H125	H	1.121081	-0.139702	0.618552
H126	H	1.227670	-0.262897	0.518891
H127	H	1.351847	-0.198217	0.394298
H128	H	1.369438	-0.010338	0.369363
H129	H	1.262849	0.112856	0.469024
H130	H	0.507697	0.129726	0.163572
H131	H	0.966043	0.247677	0.754983
H132	H	0.966008	0.247657	0.433906
