data_functionalizedCrystal
_audit_creation_method	'MofGen! by Chris Wilmer'
_symmetry_space_group_name_H-M	'P1'
_symmetry_Int_Tables_number	1
_symmetry_cell_setting	triclinic
loop_
_symmetry_equiv_pos_as_xyz
  x,y,z
_cell_length_a	13.897448
_cell_length_b	11.169417
_cell_length_c	11.169409
_cell_angle_alpha	89.981395
_cell_angle_beta	89.964424
_cell_angle_gamma	90.019937
loop_
_atom_site_label
_atom_site_type_symbol
_atom_site_fract_x
_atom_site_fract_y
_atom_site_fract_z
Zn1	Zn	-0.383879	1.834901	-0.678477
Zn2	Zn	-0.050546	2.168234	-0.345143
Zn3	Zn	0.282788	2.501568	-0.011810
Zn4	Zn	-0.545215	1.834765	-0.477782
Zn5	Zn	-0.211881	2.168098	-0.144449
Zn6	Zn	0.121452	2.501431	0.188884
Zn7	Zn	-0.383942	1.634187	-0.477815
Zn8	Zn	-0.050608	1.967520	-0.144482
Zn9	Zn	0.282725	2.300854	0.188851
Zn10	Zn	-0.545140	1.634169	-0.678431
Zn11	Zn	-0.211807	1.967502	-0.345098
Zn12	Zn	0.121527	2.300835	-0.011765
O13	O	-0.464544	1.734505	-0.578126
O14	O	-0.131211	2.067839	-0.244793
O15	O	0.202123	2.401172	0.088540
O16	O	-0.405286	2.002833	-0.651859
O17	O	-0.071952	2.336166	-0.318526
O18	O	0.261381	2.669499	0.014807
O19	O	-0.523879	1.808108	-0.309837
O20	O	-0.190546	2.141441	0.023497
O21	O	0.142788	2.474775	0.356830
O22	O	-0.248952	1.660877	-0.504466
O23	O	0.084382	1.994210	-0.171133
O24	O	0.417715	2.327543	0.162200
O25	O	-0.523818	2.002732	-0.504410
O26	O	-0.190485	2.336066	-0.171077
O27	O	0.142848	2.669399	0.162257
O28	O	-0.248906	1.808341	-0.651891
O29	O	0.084428	2.141674	-0.318558
O30	O	0.417761	2.475007	0.014775
O31	O	-0.405392	1.660744	-0.309861
O32	O	-0.072059	1.994078	0.023472
O33	O	0.261274	2.327411	0.356806
O34	O	-0.405320	1.466235	-0.504422
O35	O	-0.071987	1.799568	-0.171089
O36	O	0.261347	2.132901	0.162244
O37	O	-0.523691	1.660846	-0.846387
O38	O	-0.190358	1.994179	-0.513054
O39	O	0.142976	2.327512	-0.179721
O40	O	-0.523752	1.466221	-0.651814
O41	O	-0.190418	1.799555	-0.318481
O42	O	0.142915	2.132888	0.014853
O43	O	-0.405213	1.808323	-0.846421
O44	O	-0.071880	2.141656	-0.513087
O45	O	0.261453	2.474990	-0.179754
O46	O	-0.680186	1.808090	-0.504366
O47	O	-0.346853	2.141424	-0.171033
O48	O	-0.013520	2.474757	0.162301
O49	O	-0.680132	1.660713	-0.651782
O50	O	-0.346798	1.994047	-0.318449
O51	O	-0.013465	2.327380	0.014885
C52	C	-0.715158	1.734418	-0.578092
C53	C	-0.381825	2.067751	-0.244758
C54	C	-0.048492	2.401084	0.088575
C55	C	-0.822372	1.734490	-0.578117
C56	C	-0.489039	2.067823	-0.244784
C57	C	-0.155705	2.401157	0.088550
C58	C	-0.464535	1.422681	-0.578118
C59	C	-0.131202	1.756014	-0.244784
C60	C	0.202131	2.089347	0.088549
C61	C	-0.464555	1.289281	-0.578142
C62	C	-0.131221	1.622614	-0.244809
C63	C	0.202112	1.955947	0.088524
C64	C	-0.464437	1.734597	-0.891169
C65	C	-0.131103	2.067931	-0.557836
C66	C	0.202230	2.401264	-0.224502
C67	C	-0.464391	1.734637	-1.024569
C68	C	-0.131058	2.067970	-0.691236
C69	C	0.202276	2.401303	-0.357902
C70	C	-1.018667	1.734616	-0.578192
C71	C	-0.685334	2.067949	-0.244859
C72	C	-0.352001	2.401283	0.088474
C73	C	-0.909435	1.734543	-0.578154
C74	C	-0.576101	2.067876	-0.244821
C75	C	-0.242768	2.401209	0.088513
C76	C	-0.212951	1.734626	-0.578188
C77	C	0.120382	2.067959	-0.244854
C78	C	0.453716	2.401293	0.088479
C79	C	-0.105737	1.734677	-0.578214
C80	C	0.227596	2.068011	-0.244880
C81	C	0.560930	2.401344	0.088453
C82	C	-0.464553	2.047548	-0.578136
C83	C	-0.131220	2.380881	-0.244803
C84	C	0.202113	2.714214	0.088531
C85	C	-0.464557	2.180948	-0.578140
C86	C	-0.131224	2.514281	-0.244807
C87	C	0.202109	2.847614	0.088527
C88	C	-0.464581	1.734483	-0.266302
C89	C	-0.131248	2.067816	0.067032
C90	C	0.202086	2.401149	0.400365
C91	C	-0.464355	1.734676	-0.132902
C92	C	-0.131022	2.068009	0.200431
C93	C	0.202312	2.401342	0.533764
