data_functionalizedCrystal
_audit_creation_method	'MofGen! by Chris Wilmer'
_symmetry_space_group_name_H-M	'P1'
_symmetry_Int_Tables_number	1
_symmetry_cell_setting	triclinic
loop_
_symmetry_equiv_pos_as_xyz
  x,y,z
_cell_length_a	19.121266
_cell_length_b	16.625548
_cell_length_c	16.625539
_cell_angle_alpha	89.979432
_cell_angle_beta	87.577902
_cell_angle_gamma	87.556418
loop_
_atom_site_label
_atom_site_type_symbol
_atom_site_fract_x
_atom_site_fract_y
_atom_site_fract_z
Zn1	Zn	0.279587	1.219107	-0.469652
Zn2	Zn	0.779587	1.719107	0.030348
Zn3	Zn	0.397042	1.213309	-0.340593
Zn4	Zn	0.897042	1.713309	0.159407
Zn5	Zn	0.279614	1.084268	-0.334834
Zn6	Zn	0.779614	1.584268	0.165166
Zn7	Zn	0.397002	1.078540	-0.475381
Zn8	Zn	0.897002	1.578540	0.024619
O9	O	0.338311	1.148806	-0.405115
O10	O	0.838311	1.648806	0.094885
O11	O	0.295173	1.331170	-0.452545
O12	O	0.795173	1.831170	0.047455
O13	O	0.381493	1.196162	-0.226998
O14	O	0.881493	1.696162	0.273002
O15	O	0.181328	1.106979	-0.347911
O16	O	0.681328	1.606979	0.152089
O17	O	0.381467	1.326910	-0.357726
O18	O	0.881467	1.826910	0.142274
O19	O	0.181308	1.206045	-0.446961
O20	O	0.681308	1.706045	0.053039
O21	O	0.295219	1.101356	-0.222767
O22	O	0.795219	1.601356	0.277233
O23	O	0.295180	0.970676	-0.353465
O24	O	0.795180	1.470676	0.146535
O25	O	0.381398	1.097216	-0.587452
O26	O	0.881398	1.597216	-0.087452
O27	O	0.381424	0.966467	-0.456724
O28	O	0.881424	1.466467	0.043276
O29	O	0.295134	1.200490	-0.583243
O30	O	0.795134	1.700490	-0.083243
O31	O	0.495319	1.190607	-0.363280
O32	O	0.995319	1.690607	0.136720
O33	O	0.495290	1.091593	-0.462309
O34	O	0.995290	1.591593	0.037691
C35	C	0.338301	0.939316	-0.405092
C36	C	0.838301	1.439316	0.094908
C37	C	0.338314	0.849694	-0.405102
C38	C	0.838314	1.349694	0.094898
C39	C	0.338318	0.521518	-0.405137
C40	C	0.838318	1.021518	0.094863
C41	C	0.338315	0.612827	-0.405125
C42	C	0.838315	1.112827	0.094875
C43	C	0.338316	0.685603	-0.405119
C44	C	0.838316	1.185603	0.094881
C45	C	0.338312	0.776917	-0.405108
C46	C	0.838312	1.276917	0.094892
C47	C	0.155122	1.157798	-0.396154
C48	C	0.655122	1.657798	0.103846
C49	C	0.077057	1.161629	-0.392336
C50	C	0.577057	1.661629	0.107664
C51	C	0.040369	1.111877	-0.442097
C52	C	0.540369	1.611877	0.057903
C53	C	-0.032981	1.115480	-0.438511
C54	C	0.467019	1.615480	0.061489
C55	C	-0.069641	1.168831	-0.385158
C56	C	0.430359	1.668831	0.114842
C57	C	-0.032948	1.218589	-0.335394
C58	C	0.467052	1.718589	0.164606
C59	C	0.040401	1.214990	-0.338986
C60	C	0.540401	1.714990	0.161014
C61	C	-0.291106	1.182281	-0.371739
C62	C	0.208894	1.682281	0.128261
C63	C	-0.364459	1.185875	-0.368150
C64	C	0.135541	1.685875	0.131850
C65	C	-0.364487	1.082766	-0.471268
C66	C	0.135513	1.582766	0.028732
C67	C	-0.291137	1.079168	-0.474851
C68	C	0.208863	1.579168	0.025149
C69	C	-0.254450	1.128929	-0.425091
C70	C	0.245550	1.628929	0.074909
C71	C	-0.144616	1.172513	-0.381489
C72	C	0.355384	1.672513	0.118511
C73	C	-0.179476	1.125250	-0.428764
C74	C	0.320524	1.625250	0.071236
C75	C	0.520788	1.139871	-0.414059
C76	C	1.020788	1.639871	0.085941
C77	C	0.598853	1.136122	-0.417912
C78	C	1.098853	1.636122	0.082088
C79	C	0.338259	1.148861	-0.615422
C80	C	0.838259	1.648861	-0.115422
C81	C	0.338237	1.148884	-0.705042
C82	C	0.838237	1.648884	-0.205042
C83	C	0.338322	1.359114	-0.405139
C84	C	0.838322	1.859114	0.094861
C85	C	0.338326	1.448735	-0.405149
C86	C	0.838326	1.948735	0.094851
C87	C	0.338158	1.148925	-1.033214
C88	C	0.838158	1.648925	-0.533214
C89	C	0.338182	1.148912	-0.941906
C90	C	0.838182	1.648912	-0.441906
C91	C	0.338198	1.148905	-0.869131
C92	C	0.838198	1.648905	-0.369131
C93	C	0.338221	1.148891	-0.777817
C94	C	0.838221	1.648891	-0.277817
C95	C	0.338313	1.148800	-0.195624
C96	C	0.838313	1.648800	0.304376
C97	C	0.338137	1.148942	-0.105995
C98	C	0.838137	1.648942	0.394005
H99	H	0.070212	1.068433	-0.485544
H100	H	0.570212	1.568433	0.014456
N101	N	0.077869	1.265816	-0.288150
N102	N	0.577869	1.765816	0.211850
N103	N	0.045130	1.313447	-0.240514
N104	N	0.545130	1.813447	0.259486
H105	H	0.071591	1.349347	-0.204610
H106	H	0.571591	1.849347	0.295390
N107	N	-0.070446	1.064656	-0.489350
N108	N	0.429554	1.564656	0.010650
N109	N	-0.037706	1.017021	-0.536980
N110	N	0.462294	1.517021	-0.036980
H111	H	-0.064164	0.981125	-0.572889
H112	H	0.435836	1.481125	-0.072889
N113	N	-0.070403	1.273093	-0.280910
N114	N	0.429597	1.773093	0.219090
N115	N	-0.135893	1.276303	-0.277712
N116	N	0.364107	1.776303	0.222288
H117	H	-0.162346	1.314797	-0.239232
H118	H	0.337654	1.814797	0.260768
H119	H	-0.149625	1.081815	-0.472207
H120	H	0.350375	1.581815	0.027793
N121	N	-0.253685	1.024667	-0.529341
N122	N	0.246315	1.524667	-0.029341
N123	N	-0.212752	0.971272	-0.502964
N124	N	0.287248	1.471272	-0.002964
H125	H	-0.186301	0.932776	-0.541444
H126	H	0.313699	1.432776	-0.041444
H127	H	-0.394365	1.042254	-0.511782
H128	H	0.105635	1.542254	-0.011782
H129	H	-0.261244	1.222797	-0.331218
H130	H	0.238756	1.722797	0.168782
N131	N	-0.401897	1.240376	-0.313640
N132	N	0.098103	1.740376	0.186360
N133	N	-0.369134	1.284798	-0.269213
N134	N	0.130866	1.784798	0.230787
H135	H	-0.395574	1.323286	-0.230715
H136	H	0.104426	1.823286	0.269285
N137	N	-0.182081	1.226999	-0.326994
N138	N	0.317919	1.726999	0.173006
N139	N	-0.223006	1.200623	-0.273618
N140	N	0.276994	1.700623	0.226382
H141	H	-0.249471	1.239106	-0.235135
H142	H	0.250529	1.739106	0.264865
