data_functionalizedCrystal
_audit_creation_method	'MofGen! by Chris Wilmer'
_symmetry_space_group_name_H-M	'P1'
_symmetry_Int_Tables_number	1
_symmetry_cell_setting	triclinic
loop_
_symmetry_equiv_pos_as_xyz
  x,y,z
_cell_length_a	14.044220
_cell_length_b	16.992694
_cell_length_c	16.053802
_cell_angle_alpha	92.750953
_cell_angle_beta	92.799619
_cell_angle_gamma	88.071450
loop_
_atom_site_label
_atom_site_type_symbol
_atom_site_fract_x
_atom_site_fract_y
_atom_site_fract_z
O1	O	0.198305	-1.057564	-0.069327
O2	O	0.196087	-0.829125	-0.069352
O3	O	0.058952	-0.939916	-0.069331
O4	O	0.335440	-0.946774	-0.069347
O5	O	0.066468	-0.933815	0.069526
O6	O	0.203602	-0.823025	0.069506
O7	O	0.205821	-1.051464	0.069531
Zn8	Zn	0.205905	-0.936276	0.091565
Zn9	Zn	0.196003	-0.944313	-0.091386
O10	O	0.342955	-0.940673	0.069511
C11	C	0.196993	-0.796663	0.000074
C12	C	0.188484	-0.709024	0.000065
C13	C	0.027168	-0.933863	0.000098
C14	C	-0.078736	-0.924909	0.000098
C15	C	0.204915	-1.083926	0.000103
C16	C	0.213424	-1.171565	0.000107
C17	C	-0.272638	-0.908540	0.000084
C18	C	-0.325460	-0.972046	0.000088
C19	C	-0.433354	-0.962938	0.000080
C20	C	-0.164734	-0.917647	0.000091
C21	C	0.374740	-0.946726	0.000080
C22	C	0.480643	-0.955680	0.000074
N23	N	0.212662	-0.930796	0.216425
C24	C	0.270580	-0.664526	0.000061
C25	C	0.262581	-0.582179	0.000073
C26	C	0.172483	-0.544333	0.000083
C27	C	0.090381	-0.588837	0.000090
C28	C	0.098382	-0.671182	0.000084
C29	C	0.139322	-0.298414	0.000107
C30	C	0.131327	-0.216063	0.000111
C31	C	0.303528	-0.209412	0.000096
C32	C	0.311521	-0.291759	0.000085
C33	C	0.229419	-0.336255	0.000096
N34	N	0.164304	-0.460161	0.000093
N35	N	0.237599	-0.420425	0.000092
N36	N	0.189239	-0.949799	-0.216245
C37	C	0.154335	-0.977958	0.260127
C38	C	0.159071	-0.974132	0.347533
C39	C	0.222140	-0.923149	0.391235
C40	C	0.280470	-0.875982	0.347526
C41	C	0.275728	-0.879804	0.260122
C42	C	0.242827	-0.906453	0.652642
C43	C	0.247566	-0.902637	0.740052
C44	C	0.126165	-1.000787	0.740053
C45	C	0.121433	-1.004608	0.652647
C46	C	0.179759	-0.957438	0.608946
N47	N	0.226985	-0.919240	0.480578
N48	N	0.174909	-0.961343	0.519604
H49	H	-0.308444	-0.847335	0.000075
O50	O	0.059609	-0.341662	0.000255
C51	C	0.062982	-0.386360	0.072157
H52	H	0.112146	-0.357456	0.122424
H53	H	-0.011773	-0.389182	0.096296
H54	H	0.091297	-0.448586	0.055893
H55	H	0.102981	-1.019477	0.224551
H56	H	0.343947	-0.695334	0.000052
H57	H	-0.289655	-1.033258	0.000039
O58	O	0.342424	-0.539074	0.000031
C59	C	0.423662	-0.590136	0.000037
H60	H	0.402698	-0.650959	-0.026257
H61	H	0.479384	-0.565779	-0.040280
H62	H	0.454596	-0.594958	0.066650
H63	H	0.070077	-1.046122	0.617066
H64	H	0.384887	-0.322568	0.000067
O65	O	0.383183	-0.166067	0.000129
C66	C	0.356806	-0.085272	0.000115
H67	H	0.283141	-0.075733	0.026408
H68	H	0.410935	-0.050088	0.040430
H69	H	0.355013	-0.064663	-0.066500
O70	O	0.043730	-0.179421	0.000157
C71	C	-0.027023	-0.236353	0.000143
H72	H	0.005339	-0.292924	0.026432
H73	H	-0.087367	-0.213116	0.040460
H74	H	-0.056252	-0.249054	-0.066472
O75	O	0.002930	-0.551951	0.000064
C76	C	0.013471	-0.469728	0.000087
H77	H	0.084949	-0.456772	-0.026207
H78	H	-0.046740	-0.442325	-0.040221
H79	H	0.010727	-0.443600	0.066705
O80	O	0.102386	-1.020034	0.389856
C81	C	0.045696	-1.065846	0.332541
H82	H	0.081452	-1.072181	0.270229
H83	H	0.037359	-1.126682	0.357785
H84	H	-0.027564	-1.035723	0.323264
H85	H	0.298929	-0.861118	0.775630
H86	H	0.290320	-0.868047	0.617067
O87	O	0.018534	-0.714293	0.000046
C88	C	-0.062704	-0.663232	0.000075
H89	H	-0.044590	-0.604709	-0.026211
H90	H	-0.122791	-0.691118	-0.040237
H91	H	-0.086422	-0.652582	0.066694
H92	H	0.078678	-1.039190	0.775642
H93	H	0.331819	-0.834466	0.383114
H94	H	0.323224	-0.841398	0.224540
