data_functionalizedCrystal
_audit_creation_method	'MofGen! by Chris Wilmer'
_symmetry_space_group_name_H-M	'P1'
_symmetry_Int_Tables_number	1
_symmetry_cell_setting	triclinic
loop_
_symmetry_equiv_pos_as_xyz
  x,y,z
_cell_length_a	8.597366
_cell_length_b	8.634740
_cell_length_c	7.540329
_cell_angle_alpha	89.998541
_cell_angle_beta	97.699001
_cell_angle_gamma	92.879812
loop_
_atom_site_label
_atom_site_type_symbol
_atom_site_fract_x
_atom_site_fract_y
_atom_site_fract_z
O1	O	2.117278	0.230667	0.176060
O2	O	1.663029	0.248366	0.106645
O3	O	1.868651	0.014717	0.138071
O4	O	1.911656	0.464316	0.144634
O5	O	1.868636	0.014713	0.433033
O6	O	1.663014	0.248363	0.401607
O7	O	2.117264	0.230664	0.471023
Cu8	Cu	1.890138	0.239513	0.463247
Cu9	Cu	1.890155	0.239517	0.114420
O10	O	1.911642	0.464313	0.439597
C11	C	1.604264	0.246465	0.245147
C12	C	1.429181	0.240784	0.218392
C13	C	1.858902	-0.042882	0.284061
C14	C	1.829854	-0.214503	0.279614
C15	C	2.176029	0.232565	0.332516
C16	C	2.351112	0.238246	0.359260
C17	C	1.921391	0.521912	0.293603
C18	C	1.950439	0.693533	0.298038
N19	N	1.890137	0.239510	0.708596
N20	N	1.890167	0.239508	-0.130927
H21	H	1.362076	0.238600	0.077309
F22	F	1.665855	-0.283206	0.254536
F23	F	1.438826	0.241084	0.543680
F24	F	2.114429	-0.237770	0.323088
