data_functionalizedCrystal
_audit_creation_method	'MofGen! by Chris Wilmer'
_symmetry_space_group_name_H-M	'P1'
_symmetry_Int_Tables_number	1
_symmetry_cell_setting	triclinic
loop_
_symmetry_equiv_pos_as_xyz
  x,y,z
_cell_length_a	14.908571
_cell_length_b	16.120484
_cell_length_c	14.908694
_cell_angle_alpha	96.323893
_cell_angle_beta	83.592472
_cell_angle_gamma	89.787312
loop_
_atom_site_label
_atom_site_type_symbol
_atom_site_fract_x
_atom_site_fract_y
_atom_site_fract_z
Zn1	Zn	1.390527	-0.438909	-0.614243
Zn2	Zn	1.374892	-0.569792	-0.469658
Zn3	Zn	1.231315	-0.421857	-0.453295
Zn4	Zn	1.232327	-0.569728	-0.612253
O5	O	1.307265	-0.500071	-0.537362
O6	O	1.514747	-0.463434	-0.602744
O7	O	1.348879	-0.543059	-0.340454
O8	O	1.258555	-0.307459	-0.468630
O9	O	1.503260	-0.559594	-0.496518
O10	O	1.375527	-0.319987	-0.586878
O11	O	1.243394	-0.434371	-0.328432
O12	O	1.105155	-0.434309	-0.466700
O13	O	1.260279	-0.559484	-0.739551
O14	O	1.105898	-0.542949	-0.583486
O15	O	1.376508	-0.463372	-0.741013
O16	O	1.349860	-0.686443	-0.494588
O17	O	1.245118	-0.686396	-0.599352
C18	C	1.072780	-0.486772	-0.523102
C19	C	0.972466	-0.481104	-0.517024
C20	C	0.784771	-0.583736	-0.627064
C21	C	0.690517	-0.578413	-0.621357
C22	C	0.689703	-0.465131	-0.499907
C23	C	0.783957	-0.470454	-0.505614
C24	C	0.831487	-0.529759	-0.569194
C25	C	0.925742	-0.535086	-0.574897
C26	C	0.924928	-0.421801	-0.453452
C27	C	0.830674	-0.416478	-0.447744
C28	C	1.295928	-0.716670	-0.548551
C29	C	1.291162	-0.809339	-0.553373
C30	C	1.282467	-0.979006	-0.562196
C31	C	1.332226	-1.020306	-0.512553
C32	C	1.327388	-1.114715	-0.517462
C33	C	1.287304	-0.884589	-0.557288
C34	C	1.542666	-0.513423	-0.551679
C35	C	1.642980	-0.519113	-0.557779
C36	C	1.320250	-0.513323	-0.774141
C37	C	1.325784	-0.518969	-0.875042
C38	C	1.318672	-0.282629	-0.526151
C39	C	1.323533	-0.189968	-0.521373
C40	C	1.226319	-0.416405	-1.052128
C41	C	1.231516	-0.421708	-1.146934
C42	C	1.341368	-0.534881	-1.159460
C43	C	1.336171	-0.529578	-1.064654
C44	C	1.278646	-0.470337	-1.010992
C45	C	1.273455	-0.465031	-0.916185
C46	C	1.383302	-0.578208	-0.928713
C47	C	1.388498	-0.583511	-1.023518
C48	C	1.294385	-0.486815	-0.301504
C49	C	1.289039	-0.480943	-0.200602
H50	H	0.791962	-0.368191	-0.395981
C51	C	0.976318	-0.362422	-0.389794
H52	H	1.039260	-0.374081	-0.402301
H53	H	0.956875	-0.370249	-0.328469
H54	H	0.964532	-0.306300	-0.399355
H55	H	1.378458	-0.984760	-0.466364
C56	C	0.637409	-0.399911	-0.429968
H57	H	0.574584	-0.404480	-0.434855
H58	H	0.656509	-0.345532	-0.441377
H59	H	0.648861	-0.409501	-0.370513
C60	C	1.220009	-1.027015	-0.624586
H61	H	1.189426	-0.988690	-0.655094
H62	H	1.177104	-1.056863	-0.589168
H63	H	1.254973	-1.065109	-0.667999
H64	H	1.226619	-0.416791	-0.872494
H65	H	1.179489	-0.368162	-1.008435
H66	H	1.188906	-0.377790	-1.180423
C67	C	0.639127	-0.637786	-0.685011
H68	H	0.576186	-0.626120	-0.672512
H69	H	0.650915	-0.693905	-0.675461
H70	H	0.658569	-0.629949	-0.746338
C71	C	1.404634	-0.600042	-1.218498
H72	H	1.400233	-0.595471	-1.280851
H73	H	1.387641	-0.654437	-1.205046
H74	H	1.465067	-0.590405	-1.206028
H75	H	1.435330	-0.631745	-1.067223
H76	H	0.823470	-0.632029	-0.678829
H77	H	1.425913	-0.622121	-0.895210
H78	H	0.964440	-0.583376	-0.626666
