data_functionalizedCrystal
_audit_creation_method	'MofGen! by Chris Wilmer'
_symmetry_space_group_name_H-M	'P1'
_symmetry_Int_Tables_number	1
_symmetry_cell_setting	triclinic
loop_
_symmetry_equiv_pos_as_xyz
  x,y,z
_cell_length_a	6.817900
_cell_length_b	12.840946
_cell_length_c	16.417825
_cell_angle_alpha	81.377750
_cell_angle_beta	103.385495
_cell_angle_gamma	88.344365
loop_
_atom_site_label
_atom_site_type_symbol
_atom_site_fract_x
_atom_site_fract_y
_atom_site_fract_z
V1	V	-3.897725	0.325588	-0.117873
O2	O	-3.888337	0.319014	0.003621
O3	O	-3.849507	0.323723	-0.231758
O4	O	-3.793329	0.467423	-0.116956
O5	O	-3.944904	0.174319	-0.111975
V6	V	-4.388585	0.307451	-0.103235
O7	O	-4.142889	0.365373	-0.149983
O8	O	-4.593619	0.267666	-0.071125
O9	O	-4.213597	0.309316	0.010649
O10	O	-4.515371	0.314025	-0.224729
O11	O	-4.458803	0.458720	-0.109133
O12	O	-4.269775	0.165616	-0.104152
C13	C	-3.696364	0.318680	-0.259492
C14	C	-3.737854	0.318100	-0.352600
C15	C	-3.830884	0.221229	-0.554273
C16	C	-3.869887	0.220692	-0.641759
C17	C	-3.874802	0.411822	-0.666836
C18	C	-3.835814	0.412357	-0.579351
C19	C	-3.813846	0.317057	-0.523071
C20	C	-3.891837	0.315985	-0.698042
C21	C	-3.934126	0.315405	-0.792898
C22	C	-3.771558	0.317638	-0.428209
C23	C	-3.624715	0.501982	-0.113048
C24	C	-3.620567	0.620115	-0.113051
C25	C	-4.084758	0.012928	-0.108093
C26	C	-4.101759	0.131056	-0.108074
V27	V	-3.880696	0.811755	-0.117897
O28	O	-3.917270	0.962944	-0.112009
O29	O	-3.786434	0.664568	-0.116970
O30	O	-3.830941	0.853519	-0.231782
O31	O	-3.872454	0.772685	0.003597
V32	V	-4.369612	0.849155	-0.103266
O33	O	-4.127795	0.796330	-0.150008
O34	O	-4.571918	0.887266	-0.071161
O35	O	-4.241061	0.985095	-0.104191
O36	O	-4.450229	0.703882	-0.109156
O37	O	-4.495044	0.894141	-0.224762
O38	O	-4.196554	0.796143	0.010621
C39	C	-4.030083	0.314356	0.038380
C40	C	-3.967829	0.314942	0.131487
C41	C	-3.677349	0.861141	-0.259511
C42	C	-3.717505	0.898427	-0.352618
C43	C	-4.014079	0.771553	0.038359
C44	C	-3.953199	0.733231	0.131468
C45	C	-3.916407	0.921404	-0.400646
C46	C	-3.954164	0.956453	-0.488129
C47	C	-3.793019	0.968517	-0.527584
C48	C	-3.594101	0.945540	-0.479550
C49	C	-3.556345	0.910499	-0.392067
C50	C	-3.750528	0.702824	0.170907
C51	C	-3.693292	0.666828	0.258394
C52	C	-3.838733	0.661233	0.306441
C53	C	-4.041420	0.691646	0.266997
C54	C	-4.098650	0.727648	0.179512
H55	H	-3.812997	0.143629	-0.508451
H56	H	-3.883760	0.142659	-0.667158
H57	H	-4.159824	0.687085	0.306129
H58	H	-4.263688	0.752399	0.147407
C59	C	-3.817068	0.517776	-0.545025
C60	C	-3.652948	0.591568	-0.563300
C61	C	-3.634211	0.696982	-0.528973
C62	C	-3.779594	0.728605	-0.476372
C63	C	-3.943726	0.654811	-0.458095
C64	C	-3.962462	0.549397	-0.492422
H65	H	-3.545317	0.568161	-0.602240
H66	H	-3.512710	0.751609	-0.542503
H67	H	-3.765724	0.806638	-0.450961
H68	H	-4.051357	0.678219	-0.419154
H69	H	-4.083964	0.494771	-0.478892
H70	H	-3.462908	0.955368	-0.511688
C71	C	-4.172982	0.981710	-0.540956
C72	C	-4.307766	1.067685	-0.520504
C73	C	-4.526581	1.092938	-0.573327
C74	C	-4.610612	1.032217	-0.646603
C75	C	-4.475826	0.946238	-0.667058
C76	C	-4.257011	0.920984	-0.614235
H77	H	-4.245563	1.112639	-0.466258
H78	H	-4.626358	1.156586	-0.558185
H79	H	-4.772592	1.050912	-0.685706
H80	H	-4.538029	0.901284	-0.721304
H81	H	-4.157234	0.857336	-0.629378
H82	H	-3.394377	0.891788	-0.352970
H83	H	-3.823790	0.997051	-0.598819
C84	C	-3.590520	0.708980	0.118066
C85	C	-3.412012	0.779182	0.138496
C86	C	-3.251988	0.785341	0.085662
C87	C	-3.270472	0.721298	0.012399
C88	C	-3.448986	0.651091	-0.008035
C89	C	-3.609010	0.644932	0.044799
H90	H	-3.398323	0.826595	0.192734
H91	H	-3.119840	0.837313	0.100789
H92	H	-3.152012	0.725857	-0.026712
H93	H	-3.462676	0.603678	-0.062272
H94	H	-3.741159	0.592959	0.029672
H95	H	-3.892691	0.489411	-0.712669
H96	H	-4.047645	0.911582	-0.368534
H97	H	-3.528248	0.642067	0.290496
H98	H	-3.792106	0.631914	0.377676
