data_functionalizedCrystal
_audit_creation_method	'MofGen! by Chris Wilmer'
_symmetry_space_group_name_H-M	'P1'
_symmetry_Int_Tables_number	1
_symmetry_cell_setting	triclinic
loop_
_symmetry_equiv_pos_as_xyz
  x,y,z
_cell_length_a	16.120530
_cell_length_b	16.120297
_cell_length_c	11.169416
_cell_angle_alpha	92.878536
_cell_angle_beta	87.106171
_cell_angle_gamma	90.128140
loop_
_atom_site_label
_atom_site_type_symbol
_atom_site_fract_x
_atom_site_fract_y
_atom_site_fract_z
Zn1	Zn	1.247535	-0.534608	-0.608055
Zn2	Zn	1.747535	-0.034608	-0.108055
Zn3	Zn	1.254516	-0.395564	-0.799118
Zn4	Zn	1.754516	0.104436	-0.299118
Zn5	Zn	1.115522	-0.388525	-0.587774
Zn6	Zn	1.615522	0.111475	-0.087774
Zn7	Zn	1.108472	-0.527534	-0.798013
Zn8	Zn	1.608472	-0.027534	-0.298013
O9	O	1.181511	-0.461558	-0.698240
O10	O	1.681511	0.038442	-0.198240
O11	O	1.364829	-0.522071	-0.642350
O12	O	1.864829	-0.022071	-0.142350
O13	O	1.241950	-0.278265	-0.763058
O14	O	1.741950	0.221735	-0.263058
O15	O	1.133063	-0.407918	-0.422518
O16	O	1.633063	0.092082	0.077482
O17	O	1.369957	-0.419916	-0.782724
O18	O	1.869957	0.080084	-0.282724
O19	O	1.230053	-0.515245	-0.437418
O20	O	1.730053	-0.015245	0.062582
O21	O	1.139832	-0.273093	-0.607784
O22	O	1.639832	0.226907	-0.107784
O23	O	0.998219	-0.401058	-0.606712
O24	O	1.498219	0.098942	-0.106712
O25	O	1.121047	-0.644838	-0.780840
O26	O	1.621047	-0.144838	-0.280840
O27	O	0.993039	-0.503187	-0.761174
O28	O	1.493039	-0.003187	-0.261174
O29	O	1.223216	-0.650036	-0.641279
O30	O	1.723216	-0.150036	-0.141279
O31	O	1.235113	-0.413056	-0.966918
O32	O	1.735113	0.086944	-0.466918
O33	O	1.127816	-0.510013	-0.966106
O34	O	1.627816	-0.010013	-0.466106
C35	C	0.965457	-0.450591	-0.681623
C36	C	1.465457	0.049409	-0.181623
C37	C	0.873026	-0.445920	-0.674545
C38	C	1.373026	0.054080	-0.174545
C39	C	0.703795	-0.437397	-0.661594
C40	C	1.203795	0.062603	-0.161594
C41	C	0.660065	-0.485779	-0.734979
C42	C	1.160065	0.014221	-0.234979
C43	C	0.565899	-0.481037	-0.727773
C44	C	1.065899	0.018963	-0.227773
C45	C	0.797970	-0.442138	-0.668798
C46	C	1.297970	0.057862	-0.168798
C47	C	1.170566	-0.678453	-0.713198
C48	C	1.670566	-0.178453	-0.213198
C49	C	1.165902	-0.770881	-0.719573
C50	C	1.665902	-0.270881	-0.219573
C51	C	1.157356	-0.940106	-0.731181
C52	C	1.657356	-0.440106	-0.231181
C53	C	1.205830	-0.983869	-0.664952
C54	C	1.705830	-0.483869	-0.164952
C55	C	1.201075	-1.078032	-0.671411
C56	C	1.701075	-0.578032	-0.171411
C57	C	1.162110	-0.845935	-0.724724
C58	C	1.662110	-0.345935	-0.224724
C59	C	1.398410	-0.472568	-0.714923
C60	C	1.898410	0.027432	-0.214923
C61	C	1.490839	-0.477259	-0.722032
C62	C	1.990839	0.022741	-0.222032
C63	C	1.181479	-0.461550	-1.010062
C64	C	1.681479	0.038450	-0.510062
C65	C	1.181539	-0.461578	-1.143468
C66	C	1.681539	0.038422	-0.643468
C67	C	1.192461	-0.245509	-0.683257
C68	C	1.692461	0.254491	-0.183257
C69	C	1.197286	-0.153090	-0.676557
C70	C	1.697286	0.346910	-0.176557
C71	C	1.181566	-0.461585	-0.385204
C72	C	1.681566	0.038415	0.114796
C73	C	1.181589	-0.461597	-0.251806
C74	C	1.681589	0.038403	0.248194
H75	H	0.670514	-0.392418	-0.593362
H76	H	1.170514	0.107582	-0.093362
C77	C	1.115491	-0.964981	-0.933109
C78	C	1.615491	-0.464981	-0.433109
C79	C	1.096521	-0.984987	-0.814281
C80	C	1.596521	-0.484987	-0.314281
H81	H	1.077932	-0.992692	-0.984409
H82	H	1.577932	-0.492692	-0.484409
H83	H	1.170653	-0.982009	-0.955905
H84	H	1.670653	-0.482009	-0.455905
H85	H	1.110738	-0.906671	-0.939601
H86	H	1.610738	-0.406671	-0.439601
H87	H	1.101279	-1.043296	-0.807786
H88	H	1.601279	-0.543296	-0.307786
H89	H	1.041344	-0.967963	-0.791478
H90	H	1.541344	-0.467963	-0.291478
C91	C	1.222250	-0.886668	-0.497807
C92	C	1.722250	-0.386668	0.002193
C93	C	1.266671	-0.938995	-0.581843
C94	C	1.766671	-0.438995	-0.081843
H95	H	1.259810	-0.858961	-0.446503
H96	H	1.759810	-0.358961	0.053497
H97	H	1.184354	-0.918713	-0.451408
H98	H	1.684354	-0.418713	0.048592
H99	H	1.192471	-0.846832	-0.538522
H100	H	1.692471	-0.346832	-0.038522
H101	H	1.296446	-0.978835	-0.541128
H102	H	1.796446	-0.478835	-0.041128
H103	H	1.304583	-0.906947	-0.628247
H104	H	1.804583	-0.406947	-0.128247
C105	C	0.679940	-0.627854	-0.805510
C106	C	1.179940	-0.127854	-0.305510
C107	C	0.704988	-0.546502	-0.827108
C108	C	1.204988	-0.046502	-0.327108
H109	H	0.707681	-0.665337	-0.862383
H110	H	1.207681	-0.165337	-0.362383
H111	H	0.621642	-0.632588	-0.812694
H112	H	1.121642	-0.132588	-0.312694
H113	H	0.693524	-0.640813	-0.726809
H114	H	1.193524	-0.140813	-0.226809
H115	H	0.691399	-0.533540	-0.905806
H116	H	1.191399	-0.033540	-0.405806
H117	H	0.763300	-0.541765	-0.819935
H118	H	1.263300	-0.041765	-0.319935
