data_functionalizedCrystal
_audit_creation_method	'MofGen! by Chris Wilmer'
_symmetry_space_group_name_H-M	'P1'
_symmetry_Int_Tables_number	1
_symmetry_cell_setting	triclinic
loop_
_symmetry_equiv_pos_as_xyz
  x,y,z
_cell_length_a	16.959455
_cell_length_b	18.215405
_cell_length_c	18.215399
_cell_angle_alpha	90.027541
_cell_angle_beta	89.976715
_cell_angle_gamma	89.979087
loop_
_atom_site_label
_atom_site_type_symbol
_atom_site_fract_x
_atom_site_fract_y
_atom_site_fract_z
Zn1	Zn	-1.208402	-0.293027	0.416186
Zn2	Zn	-0.875069	0.040306	0.749519
Zn3	Zn	-0.541736	0.373639	1.082852
Zn4	Zn	-1.208309	-0.416099	0.293120
Zn5	Zn	-0.874976	-0.082765	0.626454
Zn6	Zn	-0.541642	0.250568	0.959787
Zn7	Zn	-1.076221	-0.293047	0.293126
Zn8	Zn	-0.742888	0.040287	0.626459
Zn9	Zn	-0.409554	0.373620	0.959792
Zn10	Zn	-1.076189	-0.416053	0.416138
Zn11	Zn	-0.742856	-0.082720	0.749471
Zn12	Zn	-0.409523	0.250614	1.082804
O13	O	-1.142280	-0.354556	0.354642
O14	O	-0.808947	-0.021223	0.687976
O15	O	-0.475614	0.312110	1.021309
O16	O	-1.319001	-0.309364	0.399879
O17	O	-0.985667	0.023969	0.733212
O18	O	-0.652334	0.357302	1.066545
O19	O	-1.190761	-0.399803	0.190137
O20	O	-0.857428	-0.066470	0.523470
O21	O	-0.524095	0.266864	0.856803
O22	O	-1.093807	-0.190060	0.309472
O23	O	-0.760474	0.143273	0.642805
O24	O	-0.427141	0.476607	0.976139
O25	O	-1.318932	-0.399784	0.309463
O26	O	-0.985599	-0.066451	0.642796
O27	O	-0.652265	0.266882	0.976130
O28	O	-1.190921	-0.190046	0.399884
O29	O	-0.857587	0.143288	0.733217
O30	O	-0.524254	0.476621	1.066551
O31	O	-1.093717	-0.309397	0.190141
O32	O	-0.760384	0.023936	0.523474
O33	O	-0.427050	0.357270	0.856807
O34	O	-0.965606	-0.309353	0.309426
O35	O	-0.632273	0.023981	0.642759
O36	O	-0.298939	0.357314	0.976092
O37	O	-1.093753	-0.399706	0.519128
O38	O	-0.760420	-0.066373	0.852462
O39	O	-0.427087	0.266961	1.185795
O40	O	-0.965583	-0.399725	0.399802
O41	O	-0.632249	-0.066391	0.733136
O42	O	-0.298916	0.266942	1.066469
O43	O	-1.190890	-0.309320	0.519164
O44	O	-0.857556	0.024013	0.852497
O45	O	-0.524223	0.357347	1.185830
O46	O	-1.190731	-0.519077	0.309417
O47	O	-0.857397	-0.185744	0.642750
O48	O	-0.524064	0.147590	0.976083
O49	O	-1.093663	-0.519043	0.399797
O50	O	-0.760330	-0.185710	0.733130
O51	O	-0.426996	0.147623	1.066464
C52	C	-0.936914	-0.354536	0.354610
C53	C	-0.603581	-0.021203	0.687943
C54	C	-0.270247	0.312130	1.021276
C55	C	-0.849057	-0.354545	0.354613
C56	C	-0.515724	-0.021212	0.687947
C57	C	-0.182391	0.312121	1.021280
C58	C	-0.807772	-0.307425	0.307632
C59	C	-0.474439	0.025908	0.640966
C60	C	-0.141105	0.359242	0.974299
C61	C	-0.807789	-0.401670	0.401602
C62	C	-0.474456	-0.068337	0.734935
C63	C	-0.141123	0.264997	1.068269
C64	C	-0.725243	-0.401678	0.401610
C65	C	-0.391910	-0.068344	0.734943
C66	C	-0.058577	0.264989	1.068276
C67	C	-0.683958	-0.354557	0.354629
C68	C	-0.350625	-0.021224	0.687962
C69	C	-0.017291	0.312109	1.021295
C70	C	-0.725219	-0.307430	0.307640
C71	C	-0.391885	0.025904	0.640973
C72	C	-0.058552	0.359237	0.974307
C73	C	-0.683977	-0.448799	0.448603
C74	C	-0.350643	-0.115466	0.781936
C75	C	-0.017310	0.217867	1.115270
C76	C	-0.601426	-0.448808	0.448613
C77	C	-0.268092	-0.115475	0.781946
C78	C	0.065241	0.217859	1.115280
C79	C	-0.560139	-0.401691	0.401628
C80	C	-0.226806	-0.068357	0.734961
C81	C	0.106528	0.264976	1.068294
C82	C	-0.601405	-0.354562	0.354637
C83	C	-0.268071	-0.021228	0.687970
C84	C	0.065262	0.312105	1.021303
C85	C	-0.560119	-0.307441	0.307655
C86	C	-0.226786	0.025892	0.640989
C87	C	0.106547	0.359225	0.974322
C88	C	-0.601383	-0.260316	0.260660
C89	C	-0.268050	0.073018	0.593993
C90	C	0.065283	0.406351	0.927327
C91	C	-0.683932	-0.260312	0.260655
C92	C	-0.350598	0.073021	0.593988
C93	C	-0.017265	0.406354	0.927321
C94	C	-0.477590	-0.401694	0.401633
C95	C	-0.144257	-0.068361	0.734966
C96	C	0.189076	0.264973	1.068300
C97	C	-0.477566	-0.307446	0.307663
C98	C	-0.144232	0.025887	0.640997
C99	C	0.189101	0.359221	0.974330
C100	C	-1.142205	-0.545763	0.354617
C101	C	-0.808871	-0.212429	0.687950
C102	C	-0.475538	0.120904	1.021284
C103	C	-1.142245	-0.627562	0.354631
C104	C	-0.808911	-0.294228	0.687964
C105	C	-0.475578	0.039105	1.021297
C106	C	-1.142329	-0.354506	0.546595
C107	C	-0.808995	-0.021172	0.879929
C108	C	-0.475662	0.312161	1.213262
C109	C	-1.142349	-0.354484	0.628394
C110	C	-0.809016	-0.021151	0.961728
C111	C	-0.475682	0.312183	1.295061
C112	C	-0.348449	-0.354574	0.354666
C113	C	-0.015115	-0.021241	0.687999
C114	C	0.318218	0.312093	1.021333
C115	C	-0.436305	-0.354574	0.354652
C116	C	-0.102972	-0.021240	0.687985
C117	C	0.230362	0.312093	1.021319
C118	C	-1.192835	-0.815687	0.401772
C119	C	-0.859502	-0.482354	0.735105
C120	C	-0.526169	-0.149020	1.068439
C121	C	-1.192864	-0.892546	0.401786
C122	C	-0.859531	-0.559213	0.735119
C123	C	-0.526197	-0.225879	1.068452
C124	C	-1.091823	-0.892674	0.307559
C125	C	-0.758490	-0.559340	0.640892
C126	C	-0.425156	-0.226007	0.974225
C127	C	-1.091791	-0.815816	0.307549
C128	C	-0.758458	-0.482483	0.640882
C129	C	-0.425124	-0.149150	0.974216
C130	C	-1.142302	-0.777325	0.354655
C131	C	-0.808968	-0.443992	0.687988
C132	C	-0.475635	-0.110658	1.021321
C133	C	-1.142362	-0.931041	0.354678
C134	C	-0.809029	-0.597708	0.688011
C135	C	-0.475696	-0.264374	1.021345
C136	C	-1.142393	-1.014375	0.354693
C137	C	-0.809060	-0.681041	0.688026
C138	C	-0.475726	-0.347708	1.021359
C139	C	-1.142270	-0.693986	0.354641
C140	C	-0.808937	-0.360653	0.687974
C141	C	-0.475603	-0.027319	1.021308
C142	C	-1.142378	-0.162604	0.354684
C143	C	-0.809045	0.170730	0.688017
C144	C	-0.475711	0.504063	1.021351
C145	C	-1.142420	-0.080805	0.354702
C146	C	-0.809086	0.252529	0.688035
C147	C	-0.475753	0.585862	1.021368
C148	C	-1.142278	-0.354554	0.163436
C149	C	-0.808945	-0.021221	0.496769
C150	C	-0.475611	0.312113	0.830103
C151	C	-1.142411	-0.354368	0.081638
C152	C	-0.809077	-0.021035	0.414971
C153	C	-0.475744	0.312298	0.748304
C154	C	-1.192946	-0.307376	0.816608
C155	C	-0.859613	0.025957	1.149941
C156	C	-0.526279	0.359291	1.483275
C157	C	-1.192956	-0.307355	0.893467
C158	C	-0.859622	0.025979	1.226800
C159	C	-0.526289	0.359312	1.560133
C160	C	-1.091808	-0.401478	0.893419
C161	C	-0.758475	-0.068145	1.226752
C162	C	-0.425141	0.265188	1.560085
C163	C	-1.091795	-0.401496	0.816561
C164	C	-0.758462	-0.068162	1.149895
C165	C	-0.425128	0.265171	1.483228
C166	C	-1.142369	-0.354445	0.778158
C167	C	-0.809035	-0.021112	1.111491
C168	C	-0.475702	0.312221	1.444825
C169	C	-1.142391	-0.354407	0.931874
C170	C	-0.809058	-0.021073	1.265207
C171	C	-0.475724	0.312260	1.598541
C172	C	-1.142401	-0.354384	1.015208
C173	C	-0.809067	-0.021051	1.348541
C174	C	-0.475734	0.312283	1.681874
C175	C	-1.142358	-0.354467	0.694819
C176	C	-0.809025	-0.021134	1.028152
C177	C	-0.475691	0.312199	1.361486
H178	H	-0.567758	-0.221947	0.222412
H179	H	-0.234425	0.111386	0.555745
H180	H	0.098909	0.444720	0.889078
Br181	Br	-1.023142	-0.465374	0.764374
Br182	Br	-0.689809	-0.132041	1.097708
Br183	Br	-0.356475	0.201293	1.431041
H184	H	-0.841373	-0.269058	0.269368
H185	H	-0.508040	0.064275	0.602701
H186	H	-0.174706	0.397608	0.936034
Br187	Br	-0.421542	-0.243499	0.243894
Br188	Br	-0.088208	0.089834	0.577227
Br189	Br	0.245125	0.423167	0.910560
H190	H	-1.233963	-0.784349	0.440129
H191	H	-0.900630	-0.451016	0.773462
H192	H	-0.567296	-0.117683	1.106796
Br193	Br	-0.739937	-0.196359	0.196884
Br194	Br	-0.406604	0.136975	0.530218
Br195	Br	-0.073270	0.470308	0.863551
Br196	Br	-1.023274	-0.944916	0.243635
Br197	Br	-0.689940	-0.611583	0.576969
Br198	Br	-0.356607	-0.278250	0.910302
Br199	Br	-1.261580	-0.243521	0.764491
Br200	Br	-0.928246	0.089812	1.097824
Br201	Br	-0.594913	0.423145	1.431158
Br202	Br	-0.863819	-0.465621	0.465354
Br203	Br	-0.530486	-0.132287	0.798688
Br204	Br	-0.197153	0.201046	1.132021
Br205	Br	-0.740009	-0.512757	0.512345
Br206	Br	-0.406676	-0.179424	0.845679
Br207	Br	-0.073343	0.153909	1.179012
Br208	Br	-1.023196	-0.763749	0.243607
Br209	Br	-0.689862	-0.430415	0.576941
Br210	Br	-0.356529	-0.097082	0.910274
H211	H	-1.050634	-0.439787	0.924696
H212	H	-0.717301	-0.106453	1.258030
H213	H	-0.383968	0.226880	1.591363
Br214	Br	-0.545431	-0.512764	0.512389
Br215	Br	-0.212098	-0.179431	0.845723
Br216	Br	0.121235	0.153902	1.179056
Br217	Br	-0.421592	-0.465638	0.465414
Br218	Br	-0.088259	-0.132304	0.798747
Br219	Br	0.245075	0.201029	1.132081
H220	H	-1.234012	-0.923777	0.440155
H221	H	-0.900679	-0.590444	0.773488
H222	H	-0.567345	-0.257110	1.106822
H223	H	-1.234139	-0.269025	0.924769
H224	H	-0.900806	0.064309	1.258103
H225	H	-0.567473	0.397642	1.591436
