data_functionalizedCrystal
_audit_creation_method	'MofGen! by Chris Wilmer'
_symmetry_space_group_name_H-M	'P1'
_symmetry_Int_Tables_number	1
_symmetry_cell_setting	triclinic
loop_
_symmetry_equiv_pos_as_xyz
  x,y,z
_cell_length_a	6.817900
_cell_length_b	12.908942
_cell_length_c	16.306216
_cell_angle_alpha	95.686013
_cell_angle_beta	103.467292
_cell_angle_gamma	100.860556
loop_
_atom_site_label
_atom_site_type_symbol
_atom_site_fract_x
_atom_site_fract_y
_atom_site_fract_z
V1	V	-4.012866	-0.146676	-0.262554
O2	O	-4.014511	0.006200	-0.258039
O3	O	-3.951141	-0.290017	-0.260294
O4	O	-3.964490	-0.144792	-0.377275
O5	O	-4.001070	-0.140031	-0.140248
V6	V	-4.498218	-0.128346	-0.247982
O7	O	-4.270114	-0.186883	-0.294519
O8	O	-4.691168	-0.088138	-0.216016
O9	O	-4.336736	0.014995	-0.250242
O10	O	-4.613970	-0.281221	-0.252497
O11	O	-4.627411	-0.134991	-0.370287
O12	O	-4.323387	-0.130230	-0.133261
C13	C	-3.792900	-0.324949	-0.256032
C14	C	-3.823719	-0.442135	-0.254949
C15	C	-3.809927	-0.139698	-0.405252
C16	C	-3.851569	-0.139107	-0.499033
C17	C	-4.244900	-0.673108	-0.261315
C18	C	-4.273867	-0.783214	-0.260297
C19	C	-3.910627	-0.772458	-0.251902
C20	C	-3.881659	-0.662351	-0.252920
C21	C	-4.048804	-0.612680	-0.257625
C22	C	-4.019831	-0.502570	-0.258636
C23	C	-3.656596	-0.491817	-0.250247
C24	C	-3.685563	-0.601924	-0.249230
C25	C	-4.002723	-0.136983	-0.839792
C26	C	-4.206496	-0.143976	-0.809322
C27	C	-4.163206	-0.144186	-0.711729
C28	C	-3.927735	-0.138037	-0.670738
C29	C	-3.801700	-0.033481	-0.691281
C30	C	-3.846388	-0.032831	-0.788881
C31	C	-3.907145	-0.234174	-0.813363
C32	C	-3.868388	-0.236237	-0.716039
C33	C	-3.885343	-0.138629	-0.575195
C34	C	-4.045107	-0.136383	-0.935334
C35	C	-4.158319	0.049922	-0.254501
C36	C	-4.106738	0.167106	-0.255590
C37	C	-4.141293	-0.135327	-0.105279
C38	C	-4.078889	-0.135913	-0.011497
H39	H	-4.380990	-0.632662	-0.265133
H40	H	-4.279746	-0.074165	-0.827097
H41	H	-3.774559	-0.812922	-0.248079
H42	H	-4.215388	-0.074183	-0.681589
C43	C	-3.450884	-0.318255	-0.248068
C44	C	-3.441025	-0.425390	-0.246186
H45	H	-3.317802	-0.277248	-0.245560
H46	H	-3.495993	-0.292648	-0.200573
H47	H	-3.545523	-0.312209	-0.299355
H48	H	-3.346396	-0.431437	-0.194895
H49	H	-3.395888	-0.451004	-0.293685
C50	C	-4.415399	-0.306768	-0.771437
C51	C	-4.296027	-0.245631	-0.694024
H52	H	-4.497419	-0.369391	-0.760507
H53	H	-4.326976	-0.326125	-0.804693
H54	H	-4.502787	-0.266251	-0.801603
H55	H	-4.208627	-0.286145	-0.663861
H56	H	-4.384460	-0.226275	-0.660754
H57	H	-3.909475	0.040688	-0.804278
C58	C	-3.478502	-0.013071	-0.742550
C59	C	-3.641142	-0.020087	-0.814880
H60	H	-3.351793	-0.005186	-0.758598
H61	H	-3.500456	-0.076139	-0.717406
H62	H	-3.472939	0.046886	-0.702598
H63	H	-3.646714	-0.080049	-0.854830
H64	H	-3.619182	0.042988	-0.840038
H65	H	-3.628740	-0.025178	-0.663818
C66	C	-3.808086	0.066219	-0.559917
C67	C	-3.856337	0.064993	-0.648355
H68	H	-3.841833	0.127009	-0.533419
H69	H	-3.664590	0.069149	-0.539233
H70	H	-3.885141	0.003336	-0.547120
H71	H	-3.779269	0.127873	-0.661152
H72	H	-3.999857	0.062072	-0.669046
H73	H	-3.549488	-0.642382	-0.245402
H74	H	-4.433546	-0.832411	-0.263303
H75	H	-3.699354	-0.237851	-0.688623
H76	H	-4.326553	-0.218880	-0.843642
H77	H	-3.755675	-0.229881	-0.832537
H78	H	-3.961825	-0.313534	-0.703868
C79	C	-4.226240	-0.319643	-0.915404
C80	C	-4.050234	-0.340242	-0.861397
H81	H	-4.314594	-0.385122	-0.945053
H82	H	-4.186102	-0.276694	-0.955278
H83	H	-4.297407	-0.283156	-0.882503
H84	H	-3.979058	-0.376722	-0.894298
H85	H	-4.090371	-0.383208	-0.821518
H86	H	-4.155927	-0.462128	-0.262462
