data_functionalizedCrystal
_audit_creation_method	'MofGen! by Chris Wilmer'
_symmetry_space_group_name_H-M	'P1'
_symmetry_Int_Tables_number	1
_symmetry_cell_setting	triclinic
loop_
_symmetry_equiv_pos_as_xyz
  x,y,z
_cell_length_a	10.654550
_cell_length_b	10.723022
_cell_length_c	9.198806
_cell_angle_alpha	89.995990
_cell_angle_beta	89.996575
_cell_angle_gamma	84.476065
loop_
_atom_site_label
_atom_site_type_symbol
_atom_site_fract_x
_atom_site_fract_y
_atom_site_fract_z
O1	O	-0.176137	-1.657215	0.120905
O2	O	-0.193000	-1.294064	0.120906
O3	O	-0.001828	-1.483989	0.120895
O4	O	-0.367309	-1.467290	0.120916
O5	O	-0.001828	-1.483975	-0.120890
O6	O	-0.193000	-1.294050	-0.120879
O7	O	-0.176137	-1.657200	-0.120880
Cu8	Cu	-0.184568	-1.475624	-0.142956
Cu9	Cu	-0.184569	-1.475641	0.142982
O10	O	-0.367309	-1.467276	-0.120869
C11	C	-0.191773	-1.247558	0.000013
C12	C	-0.188103	-1.109003	0.000013
C13	C	-0.291276	-0.890840	0.000019
C14	C	-0.295072	-1.034043	0.000019
C15	C	-0.414107	-1.468509	0.000026
C16	C	-0.553550	-1.472177	0.000035
C17	C	-0.633053	-1.360353	0.000021
C18	C	-0.764073	-1.363807	0.000011
C19	C	-0.736074	-1.590921	0.000022
C20	C	-0.605056	-1.587465	0.000043
C21	C	-0.581546	-1.245065	0.000013
C22	C	-0.661050	-1.133232	-0.000002
C23	C	-0.792071	-1.136686	-0.000012
C24	C	-0.843586	-1.251974	-0.000007
C25	C	0.044970	-1.482756	0.000003
C26	C	0.184412	-1.479087	0.000004
N27	N	-0.184567	-1.475621	-0.344070
C28	C	-0.177364	-0.703707	0.000013
C29	C	-0.181034	-0.842262	0.000013
C30	C	-0.111740	-1.402861	-0.416306
C31	C	-0.111735	-1.402878	-0.583718
N32	N	-0.184560	-1.475653	0.344096
H33	H	-0.619097	-1.039368	0.000006
O34	O	-0.877815	-1.016067	-0.000031
H35	H	-0.938184	-1.012195	0.098515
O36	O	-0.984902	-1.255708	-0.000022
H37	H	-1.031535	-1.158580	-0.000039
O38	O	-0.063061	-1.053621	-0.000010
H39	H	-0.008878	-1.085213	0.098527
H40	H	-0.474864	-1.242240	0.000020
O41	O	-0.791629	-1.715262	0.000011
H42	H	-0.896091	-1.698878	-0.000020
H43	H	-0.049397	-1.340552	-0.354210
O44	O	-0.029142	-1.320352	-0.665985
H45	H	-0.042107	-1.333308	-0.784567
H46	H	-0.089462	-0.906691	0.000017
O47	O	-0.519292	-1.708071	0.000044
H48	H	-0.577117	-1.788818	0.000020
H49	H	-0.246910	-1.537953	-0.593792
O50	O	-0.267145	-1.558167	-0.426313
H51	H	-0.334184	-1.499056	-0.495683
O52	O	-0.420105	-1.089443	0.000022
H53	H	-0.474270	-1.057864	-0.098531
H54	H	-0.382848	-0.826411	0.000033
