data_functionalizedCrystal
_audit_creation_method	'MofGen! by Chris Wilmer'
_symmetry_space_group_name_H-M	'P1'
_symmetry_Int_Tables_number	1
_symmetry_cell_setting	triclinic
loop_
_symmetry_equiv_pos_as_xyz
  x,y,z
_cell_length_a	11.792241
_cell_length_b	14.044190
_cell_length_c	10.268362
_cell_angle_alpha	90.010061
_cell_angle_beta	89.999626
_cell_angle_gamma	91.307403
loop_
_atom_site_label
_atom_site_type_symbol
_atom_site_fract_x
_atom_site_fract_y
_atom_site_fract_z
O1	O	1.519116	-0.129987	-0.108189
O2	O	2.019116	0.370013	0.391811
O3	O	1.190032	-0.143384	-0.108221
O4	O	1.690032	0.356616	0.391779
O5	O	1.349630	0.001325	-0.108179
O6	O	1.849630	0.501325	0.391821
O7	O	1.359518	-0.274696	-0.108230
O8	O	1.859518	0.225304	0.391770
O9	O	1.349615	0.001331	0.108421
O10	O	1.849615	0.501331	0.608421
O11	O	1.190017	-0.143378	0.108380
O12	O	1.690017	0.356622	0.608380
O13	O	1.519100	-0.129981	0.108412
O14	O	2.019100	0.370019	0.608412
Cu15	Cu	1.354557	-0.136679	0.128173
Cu16	Cu	1.854557	0.363321	0.628173
Cu17	Cu	1.354575	-0.136686	-0.127982
Cu18	Cu	1.854575	0.363314	0.372018
O19	O	1.359502	-0.274690	0.108371
O20	O	1.859502	0.225310	0.608371
C21	C	1.147655	-0.142539	0.000076
C22	C	1.647655	0.357461	0.500076
C23	C	1.021404	-0.140021	0.000065
C24	C	1.521404	0.359979	0.500065
C25	C	0.790257	-0.135389	0.000103
C26	C	1.290257	0.364611	0.500103
C27	C	0.918884	-0.137962	0.000082
C28	C	1.418884	0.362038	0.500082
C29	C	1.561478	-0.130826	0.000112
C30	C	2.061478	0.369174	0.500112
C31	C	1.687728	-0.133344	0.000115
C32	C	2.187728	0.366656	0.500115
C33	C	1.345297	0.036664	0.000124
C34	C	1.845297	0.536664	0.500124
C35	C	1.332395	0.141957	0.000134
C36	C	1.832395	0.641957	0.500134
C37	C	1.363835	-0.310029	0.000064
C38	C	1.863835	0.189971	0.500064
C39	C	1.376737	-0.415322	0.000046
C40	C	1.876737	0.084678	0.500046
C41	C	1.400312	0.391894	0.000090
C42	C	1.900312	0.891894	0.500090
C43	C	1.308825	0.334735	0.000090
C44	C	1.808825	0.834735	0.500090
C45	C	1.321943	0.227463	0.000115
C46	C	1.821943	0.727463	0.500115
C47	C	1.387197	0.499176	0.000065
C48	C	1.887197	0.999176	0.500065
N49	N	1.354552	-0.136673	0.308339
N50	N	1.854552	0.363327	0.808339
N51	N	1.354589	-0.136684	-0.308148
N52	N	1.854589	0.363316	0.191852
C53	C	1.354570	-0.136684	0.574010
C54	C	1.854570	0.363316	1.074010
C55	C	1.354556	-0.136681	0.426172
C56	C	1.854556	0.363319	0.926172
H57	H	1.220649	0.366364	0.000074
H58	H	1.720649	0.866364	0.500074
H59	H	1.488481	0.360267	0.000112
H60	H	1.988481	0.860267	0.500112
