data_functionalizedCrystal
_audit_creation_method	'MofGen! by Chris Wilmer'
_symmetry_space_group_name_H-M	'P1'
_symmetry_Int_Tables_number	1
_symmetry_cell_setting	triclinic
loop_
_symmetry_equiv_pos_as_xyz
  x,y,z
_cell_length_a	21.295417
_cell_length_b	18.215407
_cell_length_c	18.215399
_cell_angle_alpha	90.020595
_cell_angle_beta	89.967848
_cell_angle_gamma	89.969572
loop_
_atom_site_label
_atom_site_type_symbol
_atom_site_fract_x
_atom_site_fract_y
_atom_site_fract_z
Zn1	Zn	-0.250617	-1.125043	-0.416109
Zn2	Zn	-0.355888	-1.124940	-0.293034
Zn3	Zn	-0.250637	-1.001976	-0.293055
Zn4	Zn	-0.355852	-1.001930	-0.416057
O5	O	-0.303248	-1.063472	-0.354564
O6	O	-0.264588	-1.228014	-0.399796
O7	O	-0.341950	-1.108604	-0.190052
O8	O	-0.162545	-1.018364	-0.309409
O9	O	-0.341931	-1.227938	-0.309373
O10	O	-0.162530	-1.108781	-0.399817
O11	O	-0.264622	-1.018263	-0.190068
O12	O	-0.264587	-0.898985	-0.309359
O13	O	-0.341869	-1.018285	-0.519049
O14	O	-0.341888	-0.898951	-0.399728
O15	O	-0.264553	-1.108736	-0.519087
O16	O	-0.443973	-1.108559	-0.309323
O17	O	-0.443946	-1.018184	-0.399707
C18	C	-0.303236	-0.872266	-0.354540
C19	C	-0.303246	-0.790467	-0.354548
C20	C	-0.466800	-1.063376	-0.354523
C21	C	-0.536768	-1.063402	-0.354530
C22	C	-0.343559	-0.602275	-0.401541
C23	C	-0.343560	-0.525416	-0.401549
C24	C	-0.262942	-0.525422	-0.307589
C25	C	-0.262938	-0.602279	-0.307585
C26	C	-0.303250	-0.640703	-0.354560
C27	C	-0.303255	-0.486987	-0.354572
C28	C	-0.303256	-0.403654	-0.354581
C29	C	-0.303248	-0.724042	-0.354553
C30	C	-0.569628	-1.110502	-0.307515
C31	C	-0.635370	-1.110536	-0.307532
C32	C	-0.668251	-1.063457	-0.354556
C33	C	-0.635383	-1.016354	-0.401580
C34	C	-0.569642	-1.016326	-0.401567
N35	N	-0.771516	-0.999079	-0.360158
N36	N	-0.833968	-0.999107	-0.360166
C37	C	-0.866325	-1.063540	-0.354598
N38	N	-0.833872	-1.127944	-0.349008
N39	N	-0.771415	-1.127915	-0.348996
C40	C	-0.739536	-1.063483	-0.354575
C41	C	-0.970470	-1.110681	-0.307598
C42	C	-1.036214	-1.110717	-0.307620
C43	C	-1.036226	-1.016528	-0.401664
C44	C	-0.970483	-1.016499	-0.401646
C45	C	-0.937610	-1.063575	-0.354609
C46	C	-0.139058	-1.063589	-0.354621
C47	C	-0.069090	-1.063639	-0.354645
C48	C	-0.303205	-1.063517	-0.546517
C49	C	-0.303187	-1.063536	-0.628316
C50	C	-0.303259	-0.255425	-0.354585
C51	C	-0.303259	-0.337224	-0.354585
C52	C	-0.262891	-1.110651	-0.816531
C53	C	-0.262872	-1.110660	-0.893390
C54	C	-0.343385	-1.016473	-0.893339
C55	C	-0.343400	-1.016461	-0.816481
C56	C	-0.303154	-1.063554	-0.778079
C57	C	-0.303120	-1.063575	-0.931796
C58	C	-0.303101	-1.063584	-1.015129
C59	C	-0.303172	-1.063544	-0.694740
C60	C	-0.303246	-1.063470	-0.163358
C61	C	-0.303087	-1.063593	-0.081559
H62	H	-0.376382	-0.633557	-0.439793
H63	H	-0.230118	-1.148995	-0.785266
O64	O	-0.223698	-0.488129	-0.262034
C65	C	-0.160975	-0.506965	-0.278237
H66	H	-0.157858	-0.528116	-0.337036
H67	H	-0.144478	-0.551573	-0.238816
C68	C	-0.122785	-0.412734	-0.197543
C69	C	-0.118956	-0.438706	-0.269763
H70	H	-0.096865	-0.370630	-0.192313
H71	H	-0.165043	-0.400045	-0.186624
H72	H	-0.109038	-0.449914	-0.164701
H73	H	-0.132711	-0.401530	-0.302604
H74	H	-0.076700	-0.451387	-0.280688
H75	H	-0.376186	-0.978104	-0.785173
H76	H	-0.376383	-0.494130	-0.439807
H77	H	-0.662130	-1.148893	-0.269247
O78	O	-0.382549	-0.970839	-0.930678
C79	C	-0.423189	-1.012718	-0.975140
H80	H	-0.427084	-1.070673	-0.951987
H81	H	-0.403715	-1.015277	-1.033397
C82	C	-0.483843	-0.905539	-1.004725
C83	C	-0.488631	-0.976719	-0.976285
H84	H	-0.524211	-0.883333	-1.005435
H85	H	-0.456462	-0.877324	-0.974772
H86	H	-0.467612	-0.907681	-1.053270
H87	H	-0.504854	-0.974576	-0.927738
H88	H	-0.516017	-1.004934	-1.006230
H89	H	-0.542864	-1.148835	-0.269217
O90	O	-0.223847	-0.639581	-0.261839
C91	C	-0.237515	-0.620752	-0.188462
H92	H	-0.287801	-0.599593	-0.184639
H93	H	-0.203746	-0.576153	-0.169297
C94	C	-0.168374	-0.715001	-0.144059
C95	C	-0.230137	-0.689019	-0.139362
H96	H	-0.163820	-0.757110	-0.113770
H97	H	-0.159163	-0.727685	-0.193493
H98	H	-0.140240	-0.677828	-0.128089
H99	H	-0.258269	-0.726188	-0.155340
H100	H	-0.239352	-0.676343	-0.089929
H101	H	-0.662159	-0.978024	-0.439868
O102	O	-0.537816	-0.970499	-0.447261
C103	C	-0.580931	-0.928968	-0.488788
H104	H	-0.627816	-0.926457	-0.458654
H105	H	-0.587864	-0.955891	-0.544707
C106	C	-0.497743	-0.853710	-0.536328
C107	C	-0.555326	-0.850621	-0.499314
H108	H	-0.481948	-0.805383	-0.542825
H109	H	-0.468695	-0.881692	-0.508353
H110	H	-0.503528	-0.876149	-0.582923
H111	H	-0.549538	-0.828191	-0.452717
H112	H	-0.584372	-0.822633	-0.527282
O113	O	-0.938465	-1.156450	-0.262016
C114	C	-0.900383	-1.203952	-0.303951
H115	H	-0.890516	-1.177959	-0.359695
H116	H	-0.925671	-1.258496	-0.312097
C117	C	-0.850072	-1.249200	-0.194990
C118	C	-0.837949	-1.217271	-0.263453
H119	H	-0.811560	-1.257419	-0.170008
H120	H	-0.875729	-1.217199	-0.166737
H121	H	-0.871147	-1.294650	-0.201788
H122	H	-0.816881	-1.171819	-0.256654
H123	H	-0.812286	-1.249265	-0.291704
H124	H	-1.062967	-1.149076	-0.269336
H125	H	-1.062996	-0.978199	-0.439955
H126	H	-0.230085	-1.149009	-0.924694
O127	O	-0.938657	-0.970669	-0.447333
C128	C	-0.981773	-0.929135	-0.488856
H129	H	-1.028657	-0.926626	-0.458720
H130	H	-0.988708	-0.956053	-0.544776
C131	C	-0.898586	-0.853873	-0.536392
C132	C	-0.956169	-0.850786	-0.499377
H133	H	-0.882791	-0.805545	-0.542886
H134	H	-0.869537	-0.881856	-0.508421
H135	H	-0.904373	-0.876307	-0.582989
H136	H	-0.950380	-0.828360	-0.452778
H137	H	-0.985216	-0.822797	-0.527341
