data_functionalizedCrystal
_audit_creation_method	'MofGen! by Chris Wilmer'
_symmetry_space_group_name_H-M	'P1'
_symmetry_Int_Tables_number	1
_symmetry_cell_setting	triclinic
loop_
_symmetry_equiv_pos_as_xyz
  x,y,z
_cell_length_a	12.811434
_cell_length_b	11.892095
_cell_length_c	9.065218
_cell_angle_alpha	86.051171
_cell_angle_beta	95.471364
_cell_angle_gamma	91.498750
loop_
_atom_site_label
_atom_site_type_symbol
_atom_site_fract_x
_atom_site_fract_y
_atom_site_fract_z
O1	O	-1.391123	-0.048628	0.203607
O2	O	-1.087937	-0.017541	0.222104
O3	O	-1.245796	-0.033729	-0.001802
O4	O	-1.233263	-0.032440	0.427513
O5	O	-1.232634	-0.220387	0.016838
O6	O	-1.074775	-0.204199	0.240744
O7	O	-1.377960	-0.235285	0.222247
Zn8	Zn	-1.224278	-0.249378	0.234455
Zn9	Zn	-1.241620	-0.003449	0.209896
O10	O	-1.220101	-0.219097	0.446153
C11	C	-1.042521	-0.106888	0.229814
C12	C	-0.926806	-0.095024	0.225001
N13	N	-1.212450	-0.417219	0.251215
C14	C	-0.770881	0.023433	0.208057
C15	C	-0.879607	0.012295	0.212578
C16	C	-0.865271	-0.191211	0.232900
C17	C	-0.756546	-0.180073	0.228379
C18	C	-0.709355	-0.072747	0.215960
C19	C	-0.600626	-0.061610	0.211449
C20	C	-0.586294	-0.265115	0.231761
C21	C	-0.695019	-0.276253	0.236281
C22	C	-1.335758	-0.666512	0.076417
C23	C	-1.327498	-0.784007	0.088143
C24	C	-1.187666	-0.769706	0.286384
C25	C	-1.195926	-0.652211	0.274658
C26	C	-1.269975	-0.600618	0.169673
C27	C	-1.278239	-0.483122	0.157955
C28	C	-1.138403	-0.468822	0.356188
C29	C	-1.130143	-0.586317	0.367914
C30	C	-0.423376	-0.145937	0.214536
C31	C	-0.539092	-0.157797	0.219348
C32	C	-1.238011	-0.126933	-0.047466
C33	C	-1.234410	-0.126558	-0.211301
N34	N	-1.253455	0.164392	0.193125
C35	C	-1.227887	-0.125891	0.491817
C36	C	-1.231488	-0.126259	0.655650
H37	H	-0.732456	0.110822	0.197961
O38	O	-0.939214	0.105841	0.204959
C39	C	-0.874245	0.202952	0.192990
H40	H	-0.790767	0.181458	0.239355
H41	H	-0.874703	0.234417	0.071265
C42	C	-1.017953	0.321959	0.224769
C43	C	-0.915425	0.295562	0.281727
H44	H	-1.043356	0.379088	0.279499
H45	H	-1.061726	0.256535	0.232827
H46	H	-1.018321	0.348174	0.123332
H47	H	-0.915060	0.269334	0.383155
H48	H	-0.871653	0.360984	0.273688
H49	H	-1.396059	-0.624506	-0.009056
O50	O	-1.115782	-0.819707	0.388537
C51	C	-1.136119	-0.792907	0.532043
H52	H	-1.182292	-0.711713	0.524058
H53	H	-1.183759	-0.864395	0.585168
C54	C	-0.974898	-0.876468	0.637632
C55	C	-1.031601	-0.776738	0.627825
H56	H	-0.910428	-0.866499	0.696719
H57	H	-0.961198	-0.894527	0.540950
H58	H	-1.014610	-0.936031	0.681898
H59	H	-0.991896	-0.717181	0.583543
H60	H	-1.045293	-0.758668	0.724502
H61	H	-1.069851	-0.628337	0.453388
H62	H	-1.381063	-0.837655	0.012203
O63	O	-0.526509	-0.358524	0.239159
C64	C	-0.473764	-0.359243	0.109653
H65	H	-0.517998	-0.305610	0.016127
H66	H	-0.390890	-0.323228	0.132331
C67	C	-0.414018	-0.547000	0.178762
C68	C	-0.468352	-0.481135	0.063889
H69	H	-0.410674	-0.622188	0.150535
H70	H	-0.449549	-0.546515	0.266016
H71	H	-0.344961	-0.516974	0.197649
H72	H	-0.537410	-0.511152	0.045017
H73	H	-0.432832	-0.481628	-0.023370
H74	H	-0.903715	-0.278591	0.242994
O75	O	-1.074552	-0.404643	0.446634
C76	C	-1.097743	-0.289877	0.413812
H77	H	-1.136702	-0.277692	0.295563
H78	H	-1.153153	-0.261975	0.494892
C79	C	-0.947746	-0.233628	0.573404
C80	C	-0.995589	-0.218662	0.428163
H81	H	-0.884735	-0.189698	0.582262
H82	H	-0.932124	-0.310948	0.595521
H83	H	-0.993932	-0.210378	0.640954
H84	H	-0.949408	-0.241925	0.360618
H85	H	-1.011201	-0.141344	0.406035
O86	O	-0.740703	-0.380588	0.248283
C87	C	-0.663075	-0.463090	0.254331
H88	H	-0.591545	-0.425719	0.201520
H89	H	-0.639496	-0.492182	0.375097
C90	C	-0.794611	-0.610296	0.234004
C91	C	-0.706760	-0.564398	0.169130
H92	H	-0.821558	-0.672790	0.181455
H93	H	-0.846911	-0.554713	0.229935
H94	H	-0.774950	-0.634530	0.334640
H95	H	-0.726424	-0.540152	0.068502
H96	H	-0.654464	-0.619979	0.173180
H97	H	-1.338537	-0.441117	0.072475
H98	H	-0.562205	0.025781	0.201344
