data_functionalizedCrystal
_audit_creation_method	'MofGen! by Chris Wilmer'
_symmetry_space_group_name_H-M	'P1'
_symmetry_Int_Tables_number	1
_symmetry_cell_setting	triclinic
loop_
_symmetry_equiv_pos_as_xyz
  x,y,z
_cell_length_a	12.645221
_cell_length_b	13.897449
_cell_length_c	13.897441
_cell_angle_alpha	90.020733
_cell_angle_beta	89.890824
_cell_angle_gamma	90.083519
loop_
_atom_site_label
_atom_site_type_symbol
_atom_site_fract_x
_atom_site_fract_y
_atom_site_fract_z
Zn1	Zn	-0.421974	-1.475389	-0.544855
Zn2	Zn	-0.599272	-1.475572	-0.383335
Zn3	Zn	-0.422025	-1.314078	-0.383573
Zn4	Zn	-0.599202	-1.314348	-0.544588
O5	O	-0.510618	-1.394847	-0.464088
O6	O	-0.445501	-1.610395	-0.523441
O7	O	-0.575810	-1.454113	-0.248385
O8	O	-0.273669	-1.335287	-0.405179
O9	O	-0.575761	-1.610529	-0.404773
O10	O	-0.273632	-1.453802	-0.523672
O11	O	-0.445587	-1.335464	-0.248560
O12	O	-0.445520	-1.179133	-0.404920
O13	O	-0.575642	-1.335747	-0.679605
O14	O	-0.575691	-1.179331	-0.523217
O15	O	-0.445434	-1.454063	-0.679801
O16	O	-0.747611	-1.454374	-0.404514
O17	O	-0.747560	-1.335924	-0.522986
C18	C	-0.510604	-1.144233	-0.464066
C19	C	-0.510623	-1.037019	-0.464079
C20	C	-0.234110	-1.394494	-0.464482
C21	C	-0.116278	-1.394344	-0.464650
C22	C	-0.786051	-1.395225	-0.463716
C23	C	-0.903882	-1.395475	-0.463590
C24	C	-0.071422	-1.320018	-0.389875
C25	C	0.051129	-1.320891	-0.388972
C26	C	0.050589	-1.496960	-0.436565
C27	C	-0.072005	-1.495876	-0.436636
C28	C	-0.070065	-1.368314	-0.566409
C29	C	0.052550	-1.366725	-0.565251
C30	C	-0.510524	-1.394915	-0.715681
C31	C	-0.510484	-1.394944	-0.822895
C32	C	-0.510633	-1.646440	-0.464110
C33	C	-0.510639	-1.753654	-0.464120
C34	C	-0.510627	-0.840724	-0.464104
C35	C	-0.510622	-0.949956	-0.464088
C36	C	-0.510413	-1.394970	-1.019190
C37	C	-0.510456	-1.394953	-0.909958
C38	C	-0.510635	-1.394834	-0.213473
C39	C	-0.510376	-1.394992	-0.106260
H40	H	-0.100161	-1.244206	-0.406834
C41	C	0.089905	-1.574280	-0.507465
C42	C	0.163985	-1.546099	-0.590926
C43	C	0.203302	-1.623417	-0.661826
C44	C	0.168540	-1.728916	-0.649265
C45	C	0.094456	-1.757103	-0.565801
C46	C	0.055138	-1.679785	-0.494900
H47	H	0.189721	-1.467997	-0.600227
H48	H	0.258144	-1.602550	-0.723613
H49	H	0.197645	-1.786152	-0.701750
H50	H	0.068719	-1.835205	-0.556499
H51	H	0.000296	-1.700651	-0.433114
C52	C	0.091009	-1.527732	-0.336764
C53	C	0.165266	-1.460959	-0.279706
C54	C	0.205684	-1.491724	-0.179902
C55	C	0.171844	-1.589262	-0.137156
C56	C	0.097583	-1.656041	-0.194214
C57	C	0.057166	-1.625276	-0.294018
H58	H	0.190320	-1.388750	-0.311349
H59	H	0.260657	-1.442289	-0.137664
H60	H	0.201763	-1.612036	-0.063275
H61	H	0.072529	-1.728250	-0.162572
H62	H	0.002193	-1.674711	-0.336256
C63	C	-0.110751	-1.269578	-0.600203
C64	C	-0.186474	-1.211321	-0.535822
C65	C	-0.227155	-1.112577	-0.569599
C66	C	-0.192111	-1.072089	-0.667757
C67	C	-0.116384	-1.130347	-0.732144
C68	C	-0.075703	-1.229091	-0.698367
H69	H	-0.212419	-1.241291	-0.463153
H70	H	-0.283213	-1.069451	-0.521935
H71	H	-0.222226	-0.998993	-0.692761
H72	H	-0.090439	-1.100376	-0.804812
H73	H	-0.019645	-1.272217	-0.746031
H74	H	-0.102963	-1.337059	-0.314889
H75	H	-0.101723	-1.553166	-0.488759
C76	C	0.092885	-1.265808	-0.592829
C77	C	0.065566	-1.178563	-0.529172
C78	C	0.105914	-1.077649	-0.556747
C79	C	0.173582	-1.063980	-0.647979
C80	C	0.200905	-1.151228	-0.711642
C81	C	0.160556	-1.252142	-0.684068
H82	H	0.015470	-1.188679	-0.461631
H83	H	0.085688	-1.013063	-0.509619
H84	H	0.203451	-0.989278	-0.668392
H85	H	0.251000	-1.141112	-0.779183
H86	H	0.180782	-1.316729	-0.731196
H87	H	0.083233	-1.417214	-0.623589
C88	C	-0.109252	-1.441447	-0.641652
C89	C	-0.228590	-1.453392	-0.660120
C90	C	-0.267789	-1.526521	-0.735357
C91	C	-0.187649	-1.587705	-0.792126
C92	C	-0.068303	-1.575762	-0.773660
C93	C	-0.029105	-1.502633	-0.698423
H94	H	-0.287921	-1.408098	-0.618094
H95	H	-0.356136	-1.535362	-0.749027
H96	H	-0.216666	-1.641840	-0.847822
H97	H	-0.008973	-1.621056	-0.815685
H98	H	0.059243	-1.493793	-0.684753
C99	C	0.092775	-1.219221	-0.411748
C100	C	0.063333	-1.134154	-0.345959
C101	C	0.104970	-1.032477	-0.368732
C102	C	0.176050	-1.015867	-0.457295
C103	C	0.205496	-1.100937	-0.523090
C104	C	0.163859	-1.202613	-0.500316
H105	H	0.010712	-1.146447	-0.280395
H106	H	0.083172	-0.969503	-0.320026
H107	H	0.206872	-0.940600	-0.474153
H108	H	0.258117	-1.088643	-0.588654
H109	H	0.185657	-1.265587	-0.549023
C110	C	-0.111691	-1.525695	-0.336133
C111	C	-0.031829	-1.550327	-0.256369
C112	C	-0.071509	-1.580147	-0.155864
C113	C	-0.191052	-1.585335	-0.135123
C114	C	-0.270922	-1.560702	-0.214889
C115	C	-0.231241	-1.530882	-0.315394
H116	H	0.056671	-1.546488	-0.271721
H117	H	-0.012383	-1.598382	-0.096816
H118	H	-0.220425	-1.607409	-0.060723
H119	H	-0.359421	-1.564541	-0.199537
H120	H	-0.290367	-1.512647	-0.374442
H121	H	0.079711	-1.338457	-0.313256
