data_functionalizedCrystal
_audit_creation_method	'MofGen! by Chris Wilmer'
_symmetry_space_group_name_H-M	'P1'
_symmetry_Int_Tables_number	1
_symmetry_cell_setting	triclinic
loop_
_symmetry_equiv_pos_as_xyz
  x,y,z
_cell_length_a	16.120484
_cell_length_b	19.077142
_cell_length_c	19.076919
_cell_angle_alpha	89.925643
_cell_angle_beta	95.046610
_cell_angle_gamma	89.262225
loop_
_atom_site_label
_atom_site_type_symbol
_atom_site_fract_x
_atom_site_fract_y
_atom_site_fract_z
Zn1	Zn	-0.403281	-1.040335	-0.456977
Zn2	Zn	0.096719	-0.540335	0.043023
Zn3	Zn	-0.537307	-1.039014	-0.344962
Zn4	Zn	-0.037307	-0.539014	0.155038
Zn5	Zn	-0.392113	-0.928049	-0.334309
Zn6	Zn	0.107887	-0.428049	0.165691
Zn7	Zn	-0.536802	-0.916859	-0.457690
Zn8	Zn	-0.036802	-0.416859	0.042310
O9	O	-0.467376	-0.981064	-0.398485
O10	O	0.032624	-0.481064	0.101515
O11	O	-0.425946	-1.138274	-0.446278
O12	O	0.074054	-0.638274	0.053722
O13	O	-0.513584	-1.028425	-0.245035
O14	O	-0.013584	-0.528425	0.254965
O15	O	-0.276952	-0.948180	-0.345825
O16	O	0.223048	-0.448180	0.154175
O17	O	-0.524413	-1.137304	-0.363981
O18	O	-0.024413	-0.637304	0.136019
O19	O	-0.285157	-1.030676	-0.435949
O20	O	0.214843	-0.530676	0.064051
O21	O	-0.406910	-0.946900	-0.237208
O22	O	0.093090	-0.446900	0.262792
O23	O	-0.406421	-0.828450	-0.346516
O24	O	0.093579	-0.328450	0.153484
O25	O	-0.523553	-0.929107	-0.556110
O26	O	-0.023553	-0.429107	-0.056110
O27	O	-0.512723	-0.820229	-0.437163
O28	O	-0.012723	-0.320229	0.062837
O29	O	-0.425456	-1.019824	-0.555586
O30	O	0.074544	-0.519824	-0.055586
O31	O	-0.653882	-1.017574	-0.364673
O32	O	-0.153882	-0.517574	0.135327
O33	O	-0.653511	-0.927827	-0.447493
O34	O	-0.153511	-0.427827	0.052507
C35	C	-0.683943	-0.971361	-0.407332
C36	C	-0.183943	-0.471361	0.092668
C37	C	-0.776595	-0.967274	-0.411144
C38	C	-0.276595	-0.467274	0.088856
C39	C	-0.458306	-0.798900	-0.390762
C40	C	0.041694	-0.298900	0.109238
C41	C	-0.454446	-0.720967	-0.387475
C42	C	0.045554	-0.220967	0.112525
C43	C	-0.475694	-0.973365	-0.582106
C44	C	0.024306	-0.473365	-0.082106
C45	C	-0.479238	-0.970084	-0.660354
C46	C	0.020762	-0.470084	-0.160354
C47	C	-0.946233	-0.959814	-0.418117
C48	C	-0.446233	-0.459814	0.081883
C49	C	-0.987684	-1.002440	-0.378870
C50	C	-0.487684	-0.502440	0.121130
C51	C	-1.082077	-0.998289	-0.382749
C52	C	-0.582077	-0.498289	0.117251
C53	C	-0.851832	-0.963963	-0.414238
C54	C	-0.351832	-0.463963	0.085762
C55	C	-0.249965	-0.990823	-0.389619
C56	C	0.250035	-0.490823	0.110381
C57	C	-0.157317	-0.994982	-0.385841
C58	C	0.342683	-0.494982	0.114159
C59	C	-0.508056	-0.680091	-0.433059
C60	C	-0.008056	-0.180091	0.066941
C61	C	-0.504419	-0.606866	-0.429974
C62	C	-0.004419	-0.106866	0.070026
C63	C	-0.447176	-0.574518	-0.381301
C64	C	0.052824	-0.074518	0.118699
C65	C	-0.393560	-0.615399	-0.335715
C66	C	0.106440	-0.115399	0.164285
C67	C	-0.397194	-0.688623	-0.338804
C68	C	0.102806	-0.188623	0.161196
C69	C	-0.430361	-0.355978	-0.367012
C70	C	0.069639	0.144022	0.132988
C71	C	-0.426733	-0.282749	-0.363925
C72	C	0.073267	0.217251	0.136075
C73	C	-0.537592	-0.274221	-0.458185
C74	C	-0.037592	0.225779	0.041815
C75	C	-0.541224	-0.347447	-0.461267
C76	C	-0.041224	0.152553	0.038733
C77	C	-0.487605	-0.388322	-0.415684
C78	C	0.012395	0.111678	0.084316
N79	N	-0.443458	-0.499669	-0.378145
N80	N	0.056542	0.000331	0.121855
N81	N	-0.491319	-0.463168	-0.418844
N82	N	0.008681	0.036832	0.081156
C83	C	-0.476477	-0.163941	-0.406230
C84	C	0.023523	0.336059	0.093770
C85	C	-0.480343	-0.241873	-0.409509
C86	C	0.019657	0.258127	0.090491
C87	C	-0.429832	-1.015772	-0.696843
C88	C	0.070168	-0.515772	-0.196843
C89	C	-0.433159	-1.012680	-0.770365
C90	C	0.066841	-0.512680	-0.270365
C91	C	-0.485897	-0.963904	-0.807397
C92	C	0.014103	-0.463904	-0.307397
C93	C	-0.535305	-0.918212	-0.770902
C94	C	-0.035305	-0.418212	-0.270902
C95	C	-0.531973	-0.921300	-0.697381
C96	C	-0.031973	-0.421300	-0.197381
C97	C	-0.501335	-0.949600	-1.027310
C98	C	-0.001335	-0.449600	-0.527310
C99	C	-0.504665	-0.946516	-1.100836
C100	C	-0.004665	-0.446516	-0.600836
C101	C	-0.402517	-1.040984	-1.100295
C102	C	0.097483	-0.540984	-0.600295
C103	C	-0.399194	-1.044071	-1.026773
C104	C	0.100806	-0.544071	-0.526773
C105	C	-0.448598	-0.998376	-0.990284
C106	C	0.051402	-0.498376	-0.490284
N107	N	-0.489301	-0.960745	-0.882548
N108	N	0.010699	-0.460745	-0.382548
N109	N	-0.445190	-1.001533	-0.915133
N110	N	0.054810	-0.501533	-0.415133
C111	C	-0.459032	-0.988777	-0.215578
C112	C	0.040968	-0.488777	0.284422
C113	C	-0.455259	-0.992204	-0.137326
C114	C	0.044741	-0.492204	0.362674
H115	H	-0.952280	-1.042049	-0.342355
H116	H	-0.452280	-0.542049	0.157645
C117	C	-0.561893	-0.893619	-1.141172
C118	C	-0.061893	-0.393619	-0.641172
C119	C	-0.554249	-0.900709	-1.213369
C120	C	-0.054249	-0.400709	-0.713369
C121	C	-0.606956	-0.852000	-1.250548
C122	C	-0.106956	-0.352000	-0.750548
H123	H	-0.546846	-0.847532	-1.126711
H124	H	-0.046846	-0.347532	-0.626711
H125	H	-0.617887	-0.901865	-1.131886
H126	H	-0.117887	-0.401865	-0.631886
H127	H	-0.498267	-0.892458	-1.222650
H128	H	0.001733	-0.392458	-0.722650
H129	H	-0.569302	-0.946786	-1.227850
H130	H	-0.069302	-0.446786	-0.727850
H131	H	-0.662950	-0.860247	-1.241263
H132	H	-0.162950	-0.360247	-0.741263
H133	H	-0.591905	-0.805917	-1.236081
H134	H	-0.091905	-0.305917	-0.736081
H135	H	-0.601783	-0.856809	-1.299538
H136	H	-0.101783	-0.356809	-0.799538
H137	H	-0.981635	-0.920206	-0.454628
H138	H	-0.481635	-0.420206	0.045372
C139	C	-0.372061	-0.400391	-0.317635
C140	C	0.127939	0.099609	0.182365
C141	C	-0.322586	-0.443137	-0.357162
C142	C	0.177414	0.056863	0.142838
C143	C	-0.268862	-0.484057	-0.311697
C144	C	0.231138	0.015943	0.188303
H145	H	-0.403821	-0.428875	-0.289408
H146	H	0.096179	0.071125	0.210592
H147	H	-0.337403	-0.370663	-0.288213
H148	H	0.162597	0.129337	0.211787
H149	H	-0.357239	-0.472862	-0.386571
H150	H	0.142761	0.027138	0.113429
H151	H	-0.290808	-0.414671	-0.385386
H152	H	0.209192	0.085329	0.114614
H153	H	-0.234204	-0.454329	-0.282276
H154	H	0.265796	0.045671	0.217724
H155	H	-0.300629	-0.512537	-0.283473
H156	H	0.199371	-0.012537	0.216527
H157	H	-0.235282	-0.513060	-0.338509
H158	H	0.264718	-0.013060	0.161491
H159	H	-0.572196	-0.884089	-0.667671
H160	H	-0.072196	-0.384089	-0.167671
H161	H	-0.554673	-0.706424	-0.472691
H162	H	-0.054673	-0.206424	0.027309
H163	H	-0.548075	-0.573588	-0.467092
H164	H	-0.048075	-0.073588	0.032908
H165	H	-0.541576	-0.912401	-0.997611
H166	H	-0.041576	-0.412401	-0.497611
C167	C	-0.603403	-0.382435	-0.514186
C168	C	-0.103403	0.117565	-0.014186
C169	C	-0.649562	-0.330964	-0.553459
C170	C	-0.149562	0.169036	-0.053459
C171	C	-0.706846	-0.363169	-0.602218
C172	C	-0.206846	0.136831	-0.102218
H173	H	-0.639943	-0.410497	-0.489971
H174	H	-0.139943	0.089503	0.010029
H175	H	-0.574404	-0.411127	-0.544847
H176	H	-0.074404	0.088873	-0.044847
H177	H	-0.678559	-0.302284	-0.522802
H178	H	-0.178559	0.197716	-0.022802
H179	H	-0.613045	-0.302900	-0.577688
H180	H	-0.113045	0.197100	-0.077688
H181	H	-0.677847	-0.391861	-0.632879
H182	H	-0.177847	0.108139	-0.132879
H183	H	-0.743379	-0.391230	-0.577997
H184	H	-0.243379	0.108770	-0.077997
H185	H	-0.738166	-0.328251	-0.628875
H186	H	-0.238166	0.171749	-0.128875
H187	H	-0.581244	-0.240933	-0.495297
H188	H	-0.081244	0.259067	0.004703
C189	C	-0.364491	-0.247758	-0.311054
C190	C	0.135509	0.252242	0.188946
C191	C	-0.318295	-0.299226	-0.271807
C192	C	0.181705	0.200774	0.228193
C193	C	-0.260948	-0.267018	-0.223105
C194	C	0.239052	0.232982	0.276895
H195	H	-0.393416	-0.219056	-0.280364
H196	H	0.106584	0.280944	0.219636
H197	H	-0.327987	-0.219706	-0.335334
H198	H	0.172013	0.280294	0.164666
H199	H	-0.354794	-0.327265	-0.247529
H200	H	0.145206	0.172735	0.252471
H201	H	-0.289353	-0.327931	-0.302478
H202	H	0.210647	0.172069	0.197522
H203	H	-0.224445	-0.238966	-0.247384
H204	H	0.275555	0.261034	0.252616
H205	H	-0.289880	-0.238317	-0.192420
H206	H	0.210120	0.261683	0.307580
H207	H	-0.229593	-0.301934	-0.196474
H208	H	0.270407	0.198066	0.303526
C209	C	-0.338952	-0.732883	-0.289225
C210	C	0.161048	-0.232883	0.210775
C211	C	-0.288059	-0.688883	-0.245923
C212	C	0.211941	-0.188883	0.254077
C213	C	-0.234402	-0.729630	-0.200235
C214	C	0.265598	-0.229630	0.299765
H215	H	-0.305244	-0.761956	-0.315845
H216	H	0.194756	-0.261956	0.184155
H217	H	-0.370789	-0.761290	-0.260974
H218	H	0.129211	-0.261290	0.239026
H219	H	-0.256225	-0.660488	-0.274170
H220	H	0.243775	-0.160488	0.225830
H221	H	-0.321744	-0.659810	-0.219288
H222	H	0.178256	-0.159810	0.280712
H223	H	-0.266239	-0.758037	-0.171984
H224	H	0.233761	-0.258037	0.328016
H225	H	-0.200700	-0.758701	-0.226861
H226	H	0.299300	-0.258701	0.273139
H227	H	-0.199870	-0.699782	-0.170845
H228	H	0.300130	-0.199782	0.329155
C229	C	-0.592541	-0.865325	-0.811234
C230	C	-0.092541	-0.365325	-0.311234
C231	C	-0.584903	-0.872410	-0.883432
C232	C	-0.084903	-0.372410	-0.383432
C233	C	-0.637626	-0.823709	-0.920607
C234	C	-0.137626	-0.323709	-0.420607
H235	H	-0.577504	-0.819235	-0.796773
H236	H	-0.077504	-0.319235	-0.296773
H237	H	-0.648531	-0.873581	-0.801944
H238	H	-0.148531	-0.373581	-0.301944
H239	H	-0.528925	-0.864149	-0.892717
H240	H	-0.028925	-0.364149	-0.392717
H241	H	-0.599947	-0.918489	-0.897914
H242	H	-0.099947	-0.418489	-0.397914
H243	H	-0.693617	-0.831966	-0.911317
H244	H	-0.193617	-0.331966	-0.411317
H245	H	-0.622585	-0.777623	-0.906140
H246	H	-0.122585	-0.277623	-0.406140
H247	H	-0.632457	-0.828515	-0.969597
H248	H	-0.132457	-0.328515	-0.469597
C249	C	-0.372488	-1.068755	-0.656766
C250	C	0.127512	-0.568755	-0.156766
C251	C	-0.329916	-1.108091	-0.704461
C252	C	0.170084	-0.608091	-0.204461
C253	C	-0.277072	-1.156900	-0.667568
C254	C	0.222928	-0.656900	-0.167568
H255	H	-0.404503	-1.099146	-0.630678
H256	H	0.095497	-0.599146	-0.130678
H257	H	-0.333491	-1.044786	-0.625480
H258	H	0.166509	-0.544786	-0.125480
H259	H	-0.368908	-1.132059	-0.735734
H260	H	0.131092	-0.632059	-0.235734
H261	H	-0.297885	-1.077720	-0.730549
H262	H	0.202115	-0.577720	-0.230549
H263	H	-0.238075	-1.132930	-0.636282
H264	H	0.261925	-0.632930	-0.136282
H265	H	-0.309094	-1.187285	-0.641483
H266	H	0.190906	-0.687285	-0.141483
H267	H	-0.248175	-1.183590	-0.699923
H268	H	0.251825	-0.683590	-0.199923
C269	C	-0.379655	-1.062308	-0.810086
C270	C	0.120345	-0.562308	-0.310086
C271	C	-0.430995	-1.103339	-0.856148
C272	C	0.069005	-0.603339	-0.356148
C273	C	-0.381730	-1.149054	-0.892758
C274	C	0.118270	-0.649054	-0.392758
H275	H	-0.347755	-1.091867	-0.777589
H276	H	0.152245	-0.591867	-0.277589
H277	H	-0.343319	-1.035922	-0.836183
H278	H	0.156681	-0.535922	-0.336183
H279	H	-0.467316	-1.129723	-0.830053
H280	H	0.032684	-0.629723	-0.330053
H281	H	-0.462895	-1.073799	-0.888658
H282	H	0.037105	-0.573799	-0.388658
H283	H	-0.345394	-1.122668	-0.918856
H284	H	0.154606	-0.622668	-0.418856
H285	H	-0.349832	-1.178609	-0.860257
H286	H	0.150168	-0.678609	-0.360257
H287	H	-0.416556	-1.176895	-0.924021
H288	H	0.083444	-0.676895	-0.424021
C289	C	-0.348907	-1.090505	-1.140036
C290	C	0.151093	-0.590505	-0.640036
C291	C	-0.363093	-1.077351	-1.212348
C292	C	0.136907	-0.577351	-0.712348
C293	C	-0.313709	-1.122949	-1.248978
C294	C	0.186291	-0.622949	-0.748978
H295	H	-0.362855	-1.137600	-1.130569
H296	H	0.137145	-0.637600	-0.630569
H297	H	-0.291830	-1.083253	-1.125306
H298	H	0.208170	-0.583253	-0.625306
H299	H	-0.420158	-1.084609	-1.227073
H300	H	0.079842	-0.584609	-0.727073
H301	H	-0.349140	-1.030265	-1.221836
H302	H	0.150860	-0.530265	-0.721836
H303	H	-0.256631	-1.115698	-1.234247
H304	H	0.243369	-0.615698	-0.734247
H305	H	-0.327661	-1.170042	-1.239505
H306	H	0.172339	-0.670042	-0.739505
H307	H	-0.323321	-1.114027	-1.298044
H308	H	0.176679	-0.614027	-0.798044
H309	H	-0.346948	-0.589055	-0.296088
H310	H	0.153052	-0.089055	0.203912
H311	H	-0.356251	-1.083792	-0.996627
H312	H	0.143749	-0.583792	-0.496627
