data_functionalizedCrystal
_audit_creation_method	'MofGen! by Chris Wilmer'
_symmetry_space_group_name_H-M	'P1'
_symmetry_Int_Tables_number	1
_symmetry_cell_setting	triclinic
loop_
_symmetry_equiv_pos_as_xyz
  x,y,z
_cell_length_a	17.640280
_cell_length_b	12.759401
_cell_length_c	12.759393
_cell_angle_alpha	90.019676
_cell_angle_beta	101.231035
_cell_angle_gamma	78.801324
loop_
_atom_site_label
_atom_site_type_symbol
_atom_site_fract_x
_atom_site_fract_y
_atom_site_fract_z
Zn1	Zn	-0.314622	1.690825	0.509518
Zn2	Zn	-0.446815	1.726245	0.298348
Zn3	Zn	-0.314661	1.515134	0.333847
Zn4	Zn	-0.446758	1.550629	0.474005
O5	O	-0.380714	1.620708	0.403929
O6	O	-0.332165	1.842546	0.481512
O7	O	-0.429326	1.698209	0.156025
O8	O	-0.204049	1.508762	0.386869
O9	O	-0.429287	1.868569	0.326367
O10	O	-0.204020	1.637841	0.515934
O11	O	-0.332232	1.543107	0.182106
O12	O	-0.332176	1.372820	0.352433
O13	O	-0.429189	1.569257	0.625748
O14	O	-0.429227	1.398897	0.455406
O15	O	-0.332109	1.672259	0.651839
O16	O	-0.557414	1.732627	0.291931
O17	O	-0.557372	1.603602	0.420985
C18	C	-0.380700	1.347737	0.403918
C19	C	-0.380714	1.230964	0.403933
C20	C	-0.330233	1.162577	0.484797
C21	C	-0.330241	1.052855	0.484802
C22	C	-0.431217	1.079919	0.323075
C23	C	-0.431204	1.189637	0.323067
C24	C	-0.586072	1.675838	0.348775
C25	C	-0.673925	1.699519	0.325215
C26	C	-0.962889	1.441237	0.583296
C27	C	-1.045441	1.463491	0.561124
C28	C	-1.045419	1.597927	0.426876
C29	C	-0.962866	1.575688	0.449040
C30	C	-0.921608	1.497341	0.527250
C31	C	-0.921585	1.631793	0.392994
C32	C	-0.839039	1.609551	0.415153
C33	C	-0.797775	1.531205	0.493357
C34	C	-0.839062	1.475100	0.549409
C35	C	-0.962845	1.710134	0.314779
C36	C	-0.921564	1.766238	0.258733
C37	C	-0.839016	1.744002	0.280897
C38	C	-0.797752	1.665657	0.359102
C39	C	-0.797729	1.800108	0.224846
C40	C	-0.715183	1.777866	0.247005
C41	C	-0.715206	1.643415	0.381260
C42	C	-0.174554	1.565391	0.459322
C43	C	-0.086701	1.541819	0.482927
C44	C	-0.380638	1.620766	0.677983
C45	C	-0.380606	1.620791	0.794769
C46	C	-0.380728	1.894745	0.403941
C47	C	-0.380734	2.011523	0.403946
C48	C	-0.380732	1.620695	0.130957
C49	C	-0.380542	1.620814	0.014232
C50	C	-0.330048	1.674427	0.863220
C51	C	-0.330014	1.674435	0.972954
C52	C	-0.431102	1.567172	0.945772
C53	C	-0.431131	1.567157	0.836042
H54	H	-0.472312	1.245321	0.257212
N55	N	-0.842242	1.884590	0.140482
H56	H	-0.876451	1.942469	0.174031
H57	H	-0.803519	1.916677	0.108359
H58	H	-0.681612	1.579625	0.444955
N59	N	-0.275785	0.979104	0.572018
H60	H	-0.288126	1.001544	0.643742
H61	H	-0.283469	0.903347	0.559663
H62	H	-0.289118	1.196221	0.550641
N63	N	-0.485682	1.035343	0.235872
H64	H	-0.517659	1.095318	0.184643
H65	H	-0.453473	0.981141	0.195977
H66	H	-0.472240	1.523508	0.979390
H67	H	-0.288844	1.718109	1.028684
H68	H	-0.472301	1.523473	0.780306
H69	H	-0.730561	1.513090	0.511390
N70	N	-0.794553	1.390610	0.633777
H71	H	-0.833228	1.358444	0.665928
H72	H	-0.760349	1.332795	0.600153
N73	N	-0.918373	1.356743	0.667656
H74	H	-0.932693	1.376881	0.738893
H75	H	-0.932801	1.285598	0.647318
N76	N	-1.089968	1.402972	0.621575
H77	H	-1.051302	1.349967	0.674480
H78	H	-1.124171	1.454926	0.661053
H79	H	-1.030059	1.728243	0.296743
H80	H	-1.079023	1.661715	0.363194
N81	N	-0.275559	1.732277	0.818700
H82	H	-0.238940	1.679756	0.783001
H83	H	-0.307762	1.789576	0.764599
H84	H	-0.955168	1.830025	0.195052
H85	H	-0.681572	1.823552	0.201365
