data_functionalizedCrystal
_audit_creation_method	'MofGen! by Chris Wilmer'
_symmetry_space_group_name_H-M	'P1'
_symmetry_Int_Tables_number	1
_symmetry_cell_setting	triclinic
loop_
_symmetry_equiv_pos_as_xyz
  x,y,z
_cell_length_a	12.759395
_cell_length_b	29.839131
_cell_length_c	12.759387
_cell_angle_alpha	89.955417
_cell_angle_beta	89.980929
_cell_angle_gamma	90.036766
loop_
_atom_site_label
_atom_site_type_symbol
_atom_site_fract_x
_atom_site_fract_y
_atom_site_fract_z
Zn1	Zn	1.606104	-0.178813	-0.593902
Zn2	Zn	1.605936	-0.253950	-0.418179
Zn3	Zn	1.430406	-0.178837	-0.418239
Zn4	Zn	1.430332	-0.253918	-0.593818
O5	O	1.518194	-0.216379	-0.506035
O6	O	1.753103	-0.188783	-0.570602
O7	O	1.582613	-0.244009	-0.271166
O8	O	1.453815	-0.115966	-0.441601
O9	O	1.752979	-0.243986	-0.441499
O10	O	1.582899	-0.115949	-0.570660
O11	O	1.453652	-0.188824	-0.271210
O12	O	1.283375	-0.188793	-0.441520
O13	O	1.453687	-0.243932	-0.740851
O14	O	1.283320	-0.243956	-0.570517
O15	O	1.582826	-0.188752	-0.740912
O16	O	1.582540	-0.316813	-0.441418
O17	O	1.453524	-0.316790	-0.570459
C18	C	1.245227	-0.216374	-0.506017
C19	C	1.128450	-0.216382	-0.506034
C20	C	1.128431	-0.273916	-0.640141
C21	C	1.073561	-0.302686	-0.707198
C22	C	0.963840	-0.302691	-0.707211
C23	C	0.908986	-0.273923	-0.640162
C24	C	0.963856	-0.245152	-0.573105
C25	C	1.073580	-0.245151	-0.573097
C26	C	0.963875	-0.187618	-0.439005
C27	C	1.073596	-0.187614	-0.438985
C28	C	0.909021	-0.158849	-0.371956
C29	C	0.963891	-0.130080	-0.304892
C30	C	1.073619	-0.130076	-0.304881
C31	C	1.128467	-0.158844	-0.371928
C32	C	1.518034	-0.333102	-0.505946
C33	C	1.518062	-0.383036	-0.505943
C34	C	1.585394	-0.692636	-0.573331
C35	C	1.585508	-0.880309	-0.573394
O36	O	1.642599	-0.904536	-0.630624
N37	N	1.518373	-0.903821	-0.506151
C38	C	1.451200	-0.880413	-0.438892
O39	O	1.394092	-0.904718	-0.381707
C40	C	1.451081	-0.692741	-0.438835
C41	C	1.518228	-0.669231	-0.506075
C42	C	1.652535	-0.669125	-0.640567
C43	C	1.652509	-0.622210	-0.640546
C44	C	1.585344	-0.598805	-0.573290
C45	C	1.518203	-0.622315	-0.506055
C46	C	1.383903	-0.669333	-0.371582
C47	C	1.383878	-0.622412	-0.371576
C48	C	1.451025	-0.598902	-0.438816
C49	C	1.451012	-0.551995	-0.438778
N50	N	1.518147	-0.528482	-0.506022
C51	C	1.585313	-0.551887	-0.573278
C52	C	1.451268	-0.978944	-0.438925
C53	C	1.451299	-1.025861	-0.438938
C54	C	1.585606	-1.025754	-0.573442
C55	C	1.585580	-0.978835	-0.573423
C56	C	1.518403	-0.955431	-0.506169
C57	C	1.585256	-0.453361	-0.573229
C58	C	1.585228	-0.406442	-0.573199
C59	C	1.450917	-0.406553	-0.438700
C60	C	1.450948	-0.453469	-0.438725
C61	C	1.518121	-0.476872	-0.505998
O62	O	1.393942	-0.527738	-0.381587
O63	O	1.642395	-0.527574	-0.630471
C64	C	1.585419	-0.739551	-0.573352
C65	C	1.518278	-0.763062	-0.506116
C66	C	1.451113	-0.739656	-0.438860
C67	C	1.518309	-0.809979	-0.506129
C68	C	1.585475	-0.833384	-0.573385
C69	C	1.652610	-0.809872	-0.640628
C70	C	1.652585	-0.762956	-0.640608
C71	C	1.383978	-0.763169	-0.371617
C72	C	1.384009	-0.810085	-0.371642
C73	C	1.451175	-0.833490	-0.438898
C74	C	1.792228	-0.216385	-0.506053
C75	C	1.909005	-0.216388	-0.506061
C76	C	1.518267	-0.216336	-0.780068
C77	C	1.518298	-0.216318	-0.896845
C78	C	1.518384	-0.099201	-0.506147
C79	C	1.518465	-0.049267	-0.506194
C80	C	1.652837	-0.158827	-1.116353
C81	C	1.720060	-0.130106	-1.061523
C82	C	1.720030	-0.130121	-0.951801
C83	C	1.652773	-0.158861	-0.896907
C84	C	1.585550	-0.187582	-0.951737
C85	C	1.585585	-0.187563	-1.061461
C86	C	1.451075	-0.245038	-0.951675
C87	C	1.451098	-0.245022	-1.061397
C88	C	1.383818	-0.273778	-0.896781
C89	C	1.316588	-0.302497	-0.951611
C90	C	1.316620	-0.302481	-1.061339
C91	C	1.383875	-0.273743	-1.116227
C92	C	1.518183	-0.216390	-0.233067
C93	C	1.518355	-0.216282	-0.116291
H94	H	1.118235	-0.326108	-0.761790
H95	H	0.819645	-0.273926	-0.640188
H96	H	0.919164	-0.326116	-0.761820
O97	O	0.802438	-0.158854	-0.372157
C98	C	0.765828	-0.147365	-0.472900
H99	H	0.829071	-0.155070	-0.533377
H100	H	0.692408	-0.167646	-0.491476
H101	H	0.746400	-0.110092	-0.475309
O102	O	1.717701	-0.832634	-0.706075
C103	C	1.657847	-0.859776	-0.773859
H104	H	1.575094	-0.845659	-0.780267
H105	H	1.695794	-0.860269	-0.854750
H106	H	1.654254	-0.895346	-0.741374
H107	H	1.261883	-0.325871	-1.105975
O108	O	1.785292	-0.102204	-1.115009
C109	C	1.770927	-0.108355	-1.223611
H110	H	1.689827	-0.123063	-1.238579
H111	H	1.778124	-0.074698	-1.265345
H112	H	1.833214	-0.132277	-1.254725
O113	O	0.910771	-0.102095	-0.239735
C114	C	0.982724	-0.076711	-0.180518
H115	H	1.060963	-0.075176	-0.223542
H116	H	0.951063	-0.041310	-0.169484
H117	H	0.994327	-0.093120	-0.100645
O118	O	1.383912	-0.273810	-1.222810
C119	C	1.410862	-0.316859	-1.259422
H120	H	1.392848	-0.342745	-1.196165
H121	H	1.363487	-0.324833	-1.332820
H122	H	1.498042	-0.317810	-1.278887
H123	H	1.217773	-0.273918	-0.640130
O124	O	1.318679	-0.832850	-0.306285
C125	C	1.259414	-0.802126	-0.246907
H126	H	1.255750	-0.768665	-0.289927
H127	H	1.176644	-0.815712	-0.235640
H128	H	1.297922	-0.797155	-0.167143
H129	H	1.261838	-0.325897	-0.906907
H130	H	1.118288	-0.106645	-0.250282
O131	O	1.717840	-0.740191	-0.706030
C132	C	1.777138	-0.770918	-0.765370
H133	H	1.734114	-0.804376	-0.768969
H134	H	1.788292	-0.757330	-0.848157
H135	H	1.856954	-0.775894	-0.726969
O136	O	1.318510	-0.599657	-0.306392
C137	C	1.250624	-0.572511	-0.366137
H138	H	1.244102	-0.586618	-0.448885
H139	H	1.169788	-0.572026	-0.328071
H140	H	1.283083	-0.536939	-0.369765
O141	O	1.383741	-0.273888	-0.790198
C142	C	1.309977	-0.305416	-0.753508
H143	H	1.295191	-0.331632	-0.816750
H144	H	1.341687	-0.322500	-0.680144
H145	H	1.233407	-0.287610	-0.733963
H146	H	1.639947	-0.472410	-0.628016
H147	H	1.217808	-0.158844	-0.371923
H148	H	1.639910	-0.387301	-0.627954
H149	H	1.707183	-0.603071	-0.695302
H150	H	1.707229	-0.688177	-0.695341
O151	O	1.650831	-0.956069	-0.638847
C152	C	1.710135	-0.986793	-0.698186
H153	H	1.667119	-1.020253	-0.701782
H154	H	1.721285	-0.973206	-0.780974
H155	H	1.789954	-0.991765	-0.659786
H156	H	1.640296	-1.044818	-0.628203
H157	H	1.396632	-1.045000	-0.384173
O158	O	1.385982	-0.956282	-0.373483
C159	C	1.326727	-0.987101	-0.314159
H160	H	1.369792	-1.020528	-0.310585
H161	H	1.315561	-0.973587	-0.231362
H162	H	1.246913	-0.992108	-0.352557
O163	O	1.785362	-0.102180	-0.898696
C164	C	1.844754	-0.076820	-0.970668
H165	H	1.801753	-0.075250	-1.048885
H166	H	1.856010	-0.041429	-0.938997
H167	H	1.924523	-0.093273	-0.982319
H168	H	1.652764	-0.158875	-0.807565
H169	H	1.329225	-0.688467	-0.316828
O170	O	1.318879	-0.740387	-0.306227
C171	C	1.378719	-0.713264	-0.238390
H172	H	1.458311	-0.706186	-0.275516
H173	H	1.335911	-0.680295	-0.224245
H174	H	1.390324	-0.731377	-0.160556
O175	O	1.652864	-0.158894	-1.222935
C176	C	1.679810	-0.201942	-1.259555
H177	H	1.661806	-0.227829	-1.196297
H178	H	1.632425	-0.209915	-1.332947
H179	H	1.766987	-0.202892	-1.279032
O180	O	1.385630	-0.476240	-0.373371
C181	C	1.326366	-0.445519	-0.313982
H182	H	1.322696	-0.412056	-0.356994
H183	H	1.243599	-0.459107	-0.302712
H184	H	1.364880	-0.440550	-0.234219
H185	H	1.396234	-0.387490	-0.383937
