data_functionalizedCrystal
_audit_creation_method	'MofGen! by Chris Wilmer'
_symmetry_space_group_name_H-M	'P1'
_symmetry_Int_Tables_number	1
_symmetry_cell_setting	triclinic
loop_
_symmetry_equiv_pos_as_xyz
  x,y,z
_cell_length_a	15.995292
_cell_length_b	10.723024
_cell_length_c	9.198806
_cell_angle_alpha	89.996352
_cell_angle_beta	90.006186
_cell_angle_gamma	96.031757
loop_
_atom_site_label
_atom_site_type_symbol
_atom_site_fract_x
_atom_site_fract_y
_atom_site_fract_z
O1	O	-0.117438	1.655653	-0.120894
O2	O	-0.128679	1.292354	-0.120900
O3	O	-0.001225	1.483972	-0.120876
O4	O	-0.244892	1.464035	-0.120918
O5	O	-0.001224	1.483957	0.120909
O6	O	-0.128678	1.292339	0.120885
O7	O	-0.117437	1.655638	0.120891
Cu8	Cu	-0.123058	1.473987	0.142965
Cu9	Cu	-0.123058	1.474005	-0.142974
O10	O	-0.244892	1.464019	0.120867
C11	C	-0.127861	1.245857	-0.000008
C12	C	-0.125413	1.107335	-0.000009
C13	C	-0.196730	1.031420	-0.000022
C14	C	-0.194202	0.888250	-0.000024
C15	C	-0.276092	1.464838	-0.000030
C16	C	-0.369059	1.467271	-0.000047
C17	C	-0.706849	1.476215	0.000001
C18	C	-0.682742	1.337910	0.000534
C19	C	-0.586051	1.335281	-0.000026
C20	C	-0.539267	1.471777	-0.000022
C21	C	-0.568777	1.540932	-0.138083
C22	C	-0.665577	1.542597	-0.138184
C23	C	-0.665427	1.545403	0.136771
C24	C	-0.568905	1.540278	0.138581
C25	C	-0.444557	1.469276	-0.000040
C26	C	-0.801559	1.478720	0.000008
C27	C	0.029976	1.483153	0.000019
C28	C	0.122943	1.480720	0.000025
C29	C	-0.118256	1.702134	-0.000004
C30	C	-0.120703	1.840657	-0.000012
N31	N	-0.123057	1.473983	0.344079
N32	N	-0.123052	1.474018	-0.344088
C33	C	-0.069307	1.554442	0.416286
C34	C	-0.069304	1.554461	0.583698
H35	H	-0.566708	1.281110	0.098932
H36	H	-0.255254	0.823020	-0.000041
H37	H	-0.169076	1.405135	0.593827
H38	H	-0.023287	1.623307	0.354169
H39	H	-0.710429	1.284592	0.099544
O40	O	-0.014286	1.636587	0.657608
C41	C	0.068685	1.615983	0.620569
H42	H	0.068844	1.567952	0.510029
H43	H	0.109516	1.709647	0.615505
H44	H	0.094786	1.553691	0.706219
O45	O	-0.531346	1.660709	-0.144033
C46	C	-0.477813	1.683842	-0.023077
H47	H	-0.458921	1.591175	0.020111
H48	H	-0.419139	1.746589	-0.057240
H49	H	-0.512091	1.732469	0.065704
O50	O	-0.697371	1.485356	-0.261161
C51	C	-0.754275	1.380949	-0.223472
H52	H	-0.779043	1.394043	-0.108882
H53	H	-0.809013	1.372110	-0.303476
H54	H	-0.720786	1.292268	-0.227583
H55	H	-0.169070	1.405110	0.406199
O56	O	-0.047916	0.918585	-0.000194
C57	C	-0.044741	0.994743	-0.125436
H58	H	-0.111255	1.001181	-0.167196
H59	H	-0.014190	1.092616	-0.097269
H60	H	-0.006213	0.952016	-0.213114
H61	H	-0.536504	1.639903	0.146926
H62	H	-0.693429	1.502074	0.241421
O63	O	-0.717101	1.274556	-0.116772
C64	C	-0.771391	1.170383	-0.069401
H65	H	-0.793194	1.187612	0.046167
H66	H	-0.828275	1.156403	-0.144563
H67	H	-0.736605	1.082898	-0.071502
H68	H	-0.680711	1.644003	-0.144450
H69	H	-0.548451	1.492920	-0.240838
O70	O	-0.271735	1.080527	-0.000092
C71	C	-0.257561	1.212544	-0.000045
H72	H	-0.192376	1.243005	-0.045813
H73	H	-0.307057	1.252604	-0.070243
H74	H	-0.261790	1.248774	0.115954
H75	H	-0.550040	1.489924	0.240718
H76	H	-0.567342	1.280819	-0.099177
O77	O	-0.050264	1.058643	0.000065
C78	C	0.015556	1.157026	0.000036
H79	H	-0.008339	1.245493	0.045809
H80	H	0.069480	1.129726	0.070239
H81	H	0.038750	1.175412	-0.115958
O82	O	-0.682921	1.666804	0.137714
C83	C	-0.732311	1.689211	0.015376
H84	H	-0.766383	1.596790	-0.024405
H85	H	-0.780384	1.755867	0.046483
H86	H	-0.690105	1.733096	-0.074872
