data_functionalizedCrystal
_audit_creation_method	'MofGen! by Chris Wilmer'
_symmetry_space_group_name_H-M	'P1'
_symmetry_Int_Tables_number	1
_symmetry_cell_setting	triclinic
loop_
_symmetry_equiv_pos_as_xyz
  x,y,z
_cell_length_a	13.262503
_cell_length_b	11.804365
_cell_length_c	10.654550
_cell_angle_alpha	78.051847
_cell_angle_beta	95.537345
_cell_angle_gamma	93.581207
loop_
_atom_site_label
_atom_site_type_symbol
_atom_site_fract_x
_atom_site_fract_y
_atom_site_fract_z
O1	O	-1.323855	-0.329728	0.253301
O2	O	-1.038065	-0.237168	0.248079
O3	O	-1.187530	-0.285580	0.068458
O4	O	-1.174390	-0.281316	0.432921
O5	O	-1.148182	-0.470891	0.115694
O6	O	-0.998717	-0.422479	0.295315
O7	O	-1.284506	-0.515038	0.300537
Cu8	Cu	-1.138019	-0.485679	0.302239
Cu9	Cu	-1.184553	-0.266527	0.246377
O10	O	-1.135042	-0.466626	0.480157
C11	C	-0.981797	-0.317971	0.267642
C12	C	-0.872758	-0.282657	0.255545
C13	C	-0.479590	-0.587163	0.324458
C14	C	-0.582036	-0.620348	0.335831
C15	C	-0.654721	-0.535928	0.315760
C16	C	-0.624951	-0.418317	0.284316
C17	C	-0.522494	-0.385128	0.272952
C18	C	-0.697625	-0.333893	0.264253
C19	C	-0.667855	-0.216282	0.232809
C20	C	-0.565408	-0.183099	0.221446
C21	C	-0.492722	-0.267519	0.241517
C22	C	-0.800082	-0.367082	0.275617
C23	C	-0.842986	-0.165048	0.224111
C24	C	-0.740540	-0.131862	0.212738
N25	N	-1.105296	-0.639821	0.341529
C26	C	-1.295862	-1.075494	0.112703
C27	C	-1.320616	-0.958850	0.082974
C28	C	-1.266788	-0.879087	0.147610
C29	C	-1.188203	-0.915979	0.241980
C30	C	-1.163452	-1.032636	0.271719
C31	C	-1.134377	-0.836229	0.306626
C32	C	-1.055792	-0.873122	0.400996
C33	C	-1.031045	-0.989768	0.430729
C34	C	-1.084873	-1.069531	0.366093
C35	C	-1.159128	-0.719572	0.276888
C36	C	-1.026717	-0.676715	0.435904
C37	C	-1.001964	-0.793359	0.465632
C38	C	-0.340776	-0.434236	0.280962
C39	C	-0.449818	-0.469554	0.293023
C40	C	-1.166891	-0.377922	0.045203
C41	C	-1.164005	-0.376983	-0.094463
N42	N	-1.217284	-0.112388	0.207077
C43	C	-1.252008	-0.405488	-0.167165
C44	C	-1.249291	-0.404600	-0.298397
C45	C	-1.070560	-0.346703	-0.284213
C46	C	-1.073280	-0.347584	-0.152985
C47	C	-1.355195	-0.438919	-0.175354
C48	C	-1.352478	-0.438031	-0.306587
C49	C	-1.155681	-0.374282	0.503411
C50	C	-1.158569	-0.375214	0.643076
H51	H	-0.606267	-0.716107	0.361432
H52	H	-1.223112	-0.689546	0.200052
H53	H	-0.420401	-0.655884	0.340806
Br54	Br	-0.924409	-1.039844	0.558821
H55	H	-0.824310	-0.462842	0.301222
Br56	Br	-1.389833	-0.588268	-0.338261
Br57	Br	-1.300381	-0.720782	0.107263
Br58	Br	-1.051269	-1.227838	0.406433
H59	H	-0.738136	-0.562955	0.325022
Br60	Br	-0.953851	-0.308862	-0.054329
Br61	Br	-1.449910	-0.331463	-0.154169
Br62	Br	-0.947441	-0.306800	-0.363645
H63	H	-0.541172	-0.087332	0.195855
H64	H	-0.409302	-0.240506	0.232247
H65	H	-0.716286	-0.036102	0.187136
Br66	Br	-1.381621	-0.590018	-0.077741
Br67	Br	-0.895313	-0.843438	0.593701
Br68	Br	-0.953667	-0.568475	0.523638
H69	H	-1.384600	-0.928817	0.006141
H70	H	-1.339687	-1.140445	0.060091
Br71	Br	-0.941621	-0.050469	0.196886
Br72	Br	-1.432767	-0.321509	-0.412661
