data_functionalizedCrystal
_audit_creation_method	'MofGen! by Chris Wilmer'
_symmetry_space_group_name_H-M	'P1'
_symmetry_Int_Tables_number	1
_symmetry_cell_setting	triclinic
loop_
_symmetry_equiv_pos_as_xyz
  x,y,z
_cell_length_a	16.959455
_cell_length_b	16.120444
_cell_length_c	16.120339
_cell_angle_alpha	89.786690
_cell_angle_beta	92.859329
_cell_angle_gamma	92.923869
loop_
_atom_site_label
_atom_site_type_symbol
_atom_site_fract_x
_atom_site_fract_y
_atom_site_fract_z
Zn1	Zn	1.170340	-0.306962	-0.487076
Zn2	Zn	1.670340	0.193038	0.012924
Zn3	Zn	1.169520	-0.453165	-0.355064
Zn4	Zn	1.669520	0.046835	0.144936
Zn5	Zn	1.044462	-0.314124	-0.348022
Zn6	Zn	1.544462	0.185876	0.151978
Zn7	Zn	1.031102	-0.445970	-0.494062
Zn8	Zn	1.531102	0.054030	0.005938
O9	O	1.103856	-0.380055	-0.421056
O10	O	1.603856	0.119945	0.078944
O11	O	1.280841	-0.326370	-0.469588
O12	O	1.780841	0.173630	0.030412
O13	O	1.158179	-0.440730	-0.237765
O14	O	1.658179	0.059270	0.262235
O15	O	1.067095	-0.196810	-0.360597
O16	O	1.567095	0.303190	0.139403
O17	O	1.280238	-0.433785	-0.372600
O18	O	1.780238	0.066215	0.127400
O19	O	1.159577	-0.191548	-0.462760
O20	O	1.659577	0.308452	0.037240
O21	O	1.066299	-0.338577	-0.232591
O22	O	1.566299	0.161423	0.267409
O23	O	0.932081	-0.331600	-0.367371
O24	O	1.432081	0.168400	0.132629
O25	O	1.044324	-0.421522	-0.609501
O26	O	1.544324	0.078478	-0.109501
O27	O	0.922265	-0.428467	-0.474666
O28	O	1.422265	0.071533	0.025334
O29	O	1.146622	-0.319393	-0.604369
O30	O	1.646622	0.180607	-0.104369
O31	O	1.145224	-0.568575	-0.379373
O32	O	1.645224	-0.068575	0.120627
O33	O	1.043529	-0.563289	-0.481494
O34	O	1.543529	-0.063289	0.018506
C35	C	0.898493	-0.380030	-0.421013
C36	C	1.398493	0.119970	0.078987
C37	C	0.810636	-0.380039	-0.421015
C38	C	1.310636	0.119961	0.078985
C39	C	0.438837	-0.435935	-0.370524
C40	C	0.938837	0.064065	0.129476
C41	C	0.439470	-0.324240	-0.471693
C42	C	0.939470	0.175760	0.028307
C43	C	0.522018	-0.324227	-0.471672
C44	C	1.022018	0.175773	0.028328
C45	C	0.562979	-0.380070	-0.421077
C46	C	1.062979	0.119930	0.078923
C47	C	0.521392	-0.435926	-0.370504
C48	C	1.021392	0.064074	0.129496
C49	C	0.563610	-0.268378	-0.522251
C50	C	1.063610	0.231622	-0.022251
C51	C	0.646162	-0.268364	-0.522232
C52	C	1.146162	0.231636	-0.022232
C53	C	0.687125	-0.324203	-0.471633
C54	C	1.187125	0.175797	0.028367
C55	C	0.645534	-0.380061	-0.421057
C56	C	1.145534	0.119939	0.078943
C57	C	0.686494	-0.435904	-0.370462
C58	C	1.186494	0.064096	0.129538
C59	C	0.644905	-0.491758	-0.319881
C60	C	1.144905	0.008242	0.180119
C61	C	0.562355	-0.491765	-0.319904
C62	C	1.062355	0.008235	0.180096
C63	C	0.769675	-0.324196	-0.471610
C64	C	1.269675	0.175804	0.028390
C65	C	0.769049	-0.435894	-0.370442
C66	C	1.269049	0.064106	0.129558
C67	C	1.092858	-0.596103	-0.431974
C68	C	1.592858	-0.096103	0.068026
C69	C	1.088224	-0.688528	-0.436673
C70	C	1.588224	-0.188528	0.063327
C71	C	1.128080	-0.901516	-0.396861
C72	C	1.628080	-0.401516	0.103139
C73	C	1.079778	-0.857744	-0.445260
C74	C	1.579778	-0.357744	0.054740
C75	C	1.084479	-0.763583	-0.440481
C76	C	1.584479	-0.263583	0.059519
C77	C	1.123380	-0.995684	-0.401639
C78	C	1.623380	-0.495684	0.098361
C79	C	1.310021	-0.380081	-0.421100
C80	C	1.810021	0.119919	0.078900
C81	C	1.397876	-0.380092	-0.421119
C82	C	1.897876	0.119908	0.078881
C83	C	1.094074	-0.368856	-0.637951
C84	C	1.594074	0.131144	-0.137951
C85	C	1.089906	-0.364084	-0.730378
C86	C	1.589906	0.135916	-0.230378
C87	C	1.114918	-0.163163	-0.410114
C88	C	1.614918	0.336837	0.089886
C89	C	1.119631	-0.070736	-0.405451
C90	C	1.619631	0.429264	0.094549
C91	C	1.113648	-0.391151	-0.205002
C92	C	1.613648	0.108849	0.294998
C93	C	1.117982	-0.395689	-0.112564
C94	C	1.617982	0.104311	0.387436
C95	C	1.081991	-0.355803	0.100374
C96	C	1.581991	0.144197	0.600374
C97	C	1.125895	-0.403967	0.056679
C98	C	1.625895	0.096033	0.556679
C99	C	1.121490	-0.399360	-0.037496
C100	C	1.621490	0.100640	0.462504
C101	C	1.086394	-0.360409	0.194558
C102	C	1.586394	0.139591	0.694558
H103	H	0.528485	-0.537238	-0.278723
H104	H	1.028485	-0.037238	0.221277
H105	H	1.041099	-0.311113	0.067057
H106	H	1.541099	0.188887	0.567057
H107	H	0.530253	-0.222919	-0.563447
H108	H	1.030253	0.277081	-0.063447
H109	H	0.803534	-0.278722	-0.512794
H110	H	1.303534	0.221278	-0.012794
C111	C	1.019954	-0.902216	-0.505212
C112	C	1.519954	-0.402216	-0.005212
C113	C	1.027105	-0.988123	-0.498072
C114	C	1.527105	-0.488123	0.001928
C115	C	0.972003	-1.029121	-0.553274
C116	C	1.472003	-0.529121	-0.053274
H117	H	1.029593	-0.885212	-0.560428
H118	H	1.529593	-0.385212	-0.060428
H119	H	0.968080	-0.888767	-0.492272
H120	H	1.468080	-0.388767	0.007728
H121	H	1.078968	-1.001567	-0.511018
H122	H	1.578968	-0.501567	-0.011018
H123	H	1.017459	-1.005152	-0.442868
H124	H	1.517459	-0.505152	0.057132
H125	H	0.920128	-1.015672	-0.540334
H126	H	1.420128	-0.515672	-0.040334
H127	H	0.981647	-1.012111	-0.608487
H128	H	1.481647	-0.512111	-0.108487
H129	H	0.976843	-1.087414	-0.548432
H130	H	1.476843	-0.587414	-0.048432
C131	C	1.187792	-0.857158	-0.336716
C132	C	1.687792	-0.357158	0.163284
C133	C	1.147906	-0.810132	-0.280887
C134	C	1.647906	-0.310132	0.219113
C135	C	1.202882	-0.769257	-0.225462
C136	C	1.702882	-0.269257	0.274538
H137	H	1.222455	-0.821518	-0.366770
H138	H	1.722455	-0.321518	0.133230
H139	H	1.217471	-0.896977	-0.306921
H140	H	1.717471	-0.396977	0.193079
H141	H	1.118241	-0.770318	-0.310679
H142	H	1.618241	-0.270318	0.189321
H143	H	1.113246	-0.845753	-0.250814
H144	H	1.613246	-0.345753	0.249186
H145	H	1.232560	-0.809076	-0.195667
H146	H	1.732560	-0.309076	0.304333
H147	H	1.237542	-0.733621	-0.255523
H148	H	1.737542	-0.233621	0.244477
H149	H	1.175827	-0.737351	-0.187571
H150	H	1.675827	-0.237351	0.312429
C151	C	0.813373	-0.496620	-0.315483
C152	C	1.313373	0.003380	0.184517
C153	C	0.759278	-0.545545	-0.271210
C154	C	1.259278	-0.045545	0.228790
C155	C	0.800078	-0.601502	-0.220583
C156	C	1.300078	-0.101502	0.279417
H157	H	0.848815	-0.466717	-0.277617
H158	H	1.348815	0.033283	0.222383
H159	H	0.842292	-0.531306	-0.349044
H160	H	1.342292	-0.031306	0.150956
H161	H	0.730372	-0.510864	-0.237652
H162	H	1.230372	-0.010864	0.262348
H163	H	0.723834	-0.575466	-0.309055
H164	H	1.223834	-0.075466	0.190945
H165	H	0.828998	-0.636188	-0.254145
H166	H	1.328998	-0.136188	0.245855
H167	H	0.835520	-0.571592	-0.182723
H168	H	1.335520	-0.071592	0.317277
H169	H	0.763381	-0.634709	-0.190544
H170	H	1.263381	-0.134709	0.309456
C171	C	0.393543	-0.496539	-0.315700
C172	C	0.893543	0.003461	0.184300
C173	C	0.312480	-0.484612	-0.326555
C174	C	0.812480	0.015388	0.173445
C175	C	0.270730	-0.540433	-0.276072
C176	C	0.770730	-0.040433	0.223928
H177	H	0.410098	-0.487220	-0.259195
H178	H	0.910098	0.012780	0.240805
H179	H	0.403647	-0.551821	-0.330610
H180	H	0.903647	-0.051821	0.169390
H181	H	0.302381	-0.429342	-0.311639
H182	H	0.802381	0.070658	0.188361
H183	H	0.295902	-0.493938	-0.383049
H184	H	0.795902	0.006062	0.116951
H185	H	0.280834	-0.595715	-0.290982
H186	H	0.780834	-0.095715	0.209018
H187	H	0.287291	-0.531109	-0.219570
H188	H	0.787291	-0.031109	0.280430
H189	H	0.215724	-0.532353	-0.283436
H190	H	0.715724	-0.032353	0.216564
H191	H	0.680018	-0.222884	-0.563418
H192	H	1.180018	0.277116	-0.063418
C193	C	0.394861	-0.263649	-0.526532
C194	C	0.894861	0.236351	-0.026532
C195	C	0.313667	-0.275600	-0.515712
C196	C	0.813667	0.224400	-0.015712
C197	C	0.272547	-0.219788	-0.566209
C198	C	0.772547	0.280212	-0.066209
H199	H	0.405178	-0.272961	-0.583032
H200	H	0.905178	0.227039	-0.083032
H201	H	0.411720	-0.208364	-0.511613
H202	H	0.911720	0.291636	-0.011613
H203	H	0.296813	-0.330872	-0.530636
H204	H	0.796813	0.169128	-0.030636
H205	H	0.303326	-0.266281	-0.459224
H206	H	0.803326	0.233719	0.040776
H207	H	0.289406	-0.164503	-0.551290
H208	H	0.789406	0.335497	-0.051290
H209	H	0.282870	-0.229105	-0.622706
H210	H	0.782870	0.270895	-0.122706
H211	H	0.217453	-0.227884	-0.558869
H212	H	0.717453	0.272116	-0.058869
C213	C	1.180340	-0.463547	0.101250
C214	C	1.680340	0.036453	0.601250
C215	C	1.173916	-0.456355	0.187150
C216	C	1.673916	0.043645	0.687150
C217	C	1.224046	-0.511236	0.228238
C218	C	1.724046	-0.011236	0.728238
H219	H	1.233384	-0.450358	0.087658
H220	H	1.733384	0.049642	0.587658
H221	H	1.165647	-0.518851	0.084453
H222	H	1.665647	-0.018851	0.584453
H223	H	1.188614	-0.401065	0.203941
H224	H	1.688614	0.098935	0.703941
H225	H	1.120884	-0.469551	0.200766
H226	H	1.620884	0.030449	0.700766
H227	H	1.209353	-0.566539	0.211441
H228	H	1.709353	-0.066539	0.711441
H229	H	1.277087	-0.498042	0.214640
H230	H	1.777087	0.001958	0.714640
H231	H	1.219689	-0.506369	0.286525
H232	H	1.719689	-0.006369	0.786525
H233	H	0.678266	-0.537229	-0.278692
H234	H	1.178266	-0.037229	0.221308
