data_functionalizedCrystal
_audit_creation_method	'MofGen! by Chris Wilmer'
_symmetry_space_group_name_H-M	'P1'
_symmetry_Int_Tables_number	1
_symmetry_cell_setting	triclinic
loop_
_symmetry_equiv_pos_as_xyz
  x,y,z
_cell_length_a	14.446369
_cell_length_b	17.917603
_cell_length_c	17.917603
_cell_angle_alpha	60.138055
_cell_angle_beta	90.003104
_cell_angle_gamma	63.032965
loop_
_atom_site_label
_atom_site_type_symbol
_atom_site_fract_x
_atom_site_fract_y
_atom_site_fract_z
Zr1	Zr	0.944586	0.806818	-0.129031
O2	O	0.811760	0.951856	-0.249571
O3	O	0.978956	0.654589	-0.087379
O4	O	0.995726	0.796440	-0.242787
O5	O	0.788982	0.820699	0.023078
O6	O	1.148063	0.796434	-0.242782
O7	O	0.794990	0.810005	-0.094163
O8	O	1.118064	0.542687	0.035214
O9	O	0.818981	1.074445	-0.254918
O10	O	1.114971	0.719861	-0.075290
O11	O	0.996800	0.727847	0.012202
O12	O	1.016545	0.894858	-0.170771
O13	O	0.898374	0.902844	-0.083278
Zr14	Zr	1.177962	0.823863	0.057963
Zr15	Zr	1.187545	0.806808	-0.129024
Zr16	Zr	0.935003	0.823873	0.057955
Zr17	Zr	0.956102	1.002333	-0.137559
Zr18	Zr	1.166446	0.628348	0.066491
O19	O	1.143592	0.976092	0.016310
O20	O	1.157217	0.951842	-0.249561
O21	O	0.798135	0.976107	0.016300
O22	O	1.310788	0.678825	0.178503
O23	O	1.324413	0.654574	-0.087368
O24	O	0.965331	0.678839	0.178492
O25	O	1.333566	0.809982	-0.094147
O26	O	1.126821	0.834241	0.171718
O27	O	0.974485	0.834247	0.171714
O28	O	1.327558	0.820676	0.023095
O29	O	1.012101	1.074437	-0.254912
O30	O	1.110447	0.556244	0.183844
O31	O	1.303567	0.556236	0.183850
O32	O	1.311184	0.542679	0.035220
O33	O	0.811364	1.088002	-0.106289
O34	O	1.004484	1.087994	-0.106283
O35	O	1.106003	0.735823	0.099702
O36	O	1.224174	0.727837	0.012209
O37	O	1.125748	0.902834	-0.083271
O38	O	1.007577	0.910820	0.004222
C39	C	1.046869	0.570781	-0.024867
C40	C	1.041980	0.487780	-0.021247
C41	C	0.757369	0.815353	-0.035544
C42	C	0.654227	0.815357	-0.035547
C43	C	1.033048	0.335814	-0.014636
C44	C	1.089497	0.294862	-0.056431
C45	C	1.084527	0.210303	-0.052752
C46	C	1.038017	0.420381	-0.018313
C47	C	0.445468	0.925741	-0.095487
C48	C	0.552721	0.925791	-0.095800
C49	C	0.649589	0.754364	-0.073298
C50	C	0.541884	0.755060	-0.073733
C51	C	0.536144	0.765077	0.062255
C52	C	0.642249	0.767239	0.062010
C53	C	1.365179	0.815328	-0.035525
C54	C	1.468321	0.815324	-0.035522
C55	C	1.073260	0.794007	-0.269426
C56	C	1.077328	0.786767	-0.348807
C57	C	1.075679	1.059900	-0.046201
C58	C	1.080568	1.142901	-0.049822
C59	C	1.084782	0.773541	-0.494162
C60	C	1.037768	0.857136	-0.576909
C61	C	1.041916	0.849777	-0.657790
C62	C	1.080636	0.780898	-0.413272
C63	C	1.049288	0.836674	0.198358
C64	C	1.045220	0.843915	0.277738
C65	C	1.350774	0.570769	-0.024858
C66	C	1.449028	0.487763	-0.021235
C67	C	1.034883	0.592115	0.209025
C68	C	1.025926	0.516354	0.292026
C69	C	1.338788	0.592102	0.209034
C70	C	1.432974	0.516337	0.292038
C71	C	0.783760	1.038579	-0.280102
C72	C	0.689574	1.114344	-0.363107
C73	C	0.771774	1.059912	-0.046211
C74	C	0.673520	1.142918	-0.049834
C75	C	1.087665	1.038566	-0.280093
C76	C	1.096622	1.114327	-0.363094
C77	C	1.438166	0.444619	-0.065215
C78	C	1.530478	0.366636	-0.061828
C79	C	1.633650	0.331794	-0.014456
C80	C	1.644510	0.374946	0.029526
C81	C	1.552199	0.452932	0.026133
C82	C	1.078722	0.484940	0.376685
C83	C	1.070303	0.413767	0.454680
C84	C	1.009092	0.374003	0.448014
C85	C	0.956289	0.405424	0.363345
C86	C	0.964704	0.476602	0.285352
C87	C	1.538898	0.476589	0.285347
C88	C	1.627406	0.405410	0.363331
C89	C	1.609986	0.373975	0.448005
C90	C	1.504051	0.413731	0.454693
C91	C	1.415546	0.484914	0.376710
C92	C	0.583650	1.154101	-0.356416
C93	C	0.495144	1.225305	-0.434401
C94	C	0.512564	1.256744	-0.519075
C95	C	0.618499	1.216983	-0.525763
C96	C	0.707003	1.145786	-0.447780
C97	C	0.684383	1.186069	-0.005862
C98	C	0.592073	1.264072	-0.009270
C99	C	0.488902	1.298917	-0.056646
C100	C	0.478041	1.255762	-0.100623
C101	C	0.570351	1.177765	-0.097220
C102	C	1.157841	1.154068	-0.356399
C103	C	1.166278	1.225244	-0.434379
C104	C	1.113489	1.256682	-0.519055
C105	C	1.052267	1.216933	-0.525749
C106	C	1.043837	1.145753	-0.447769
H107	H	1.141556	0.323310	-0.094976
C108	C	0.469193	0.819115	0.105506
H109	H	0.511608	0.787624	0.164464
H110	H	0.448848	0.887962	0.070124
H111	H	0.405816	0.815087	0.108620
H112	H	1.009289	1.242541	-0.594702
H113	H	1.354167	0.472985	-0.103802
C114	C	1.233612	1.268966	-0.427006
H115	H	1.231089	1.315853	-0.485570
H116	H	1.204497	1.302219	-0.397346
H117	H	1.306801	1.215792	-0.393560
H118	H	1.708806	0.268290	-0.011699
H119	H	0.980991	0.307370	0.023905
C120	C	1.743922	0.361658	0.355964
H121	H	1.794146	0.314762	0.414530
H122	H	1.752185	0.328407	0.326306
H123	H	1.757320	0.414812	0.322519
H124	H	0.396716	0.964456	-0.167261
H125	H	0.994401	0.934230	-0.587009
C126	C	1.564154	0.500386	0.074514
H127	H	1.494408	0.551829	0.065708
H128	H	1.598055	0.449870	0.137042
H129	H	1.607370	0.528752	0.050622
H130	H	0.921713	0.502168	0.216421
H131	H	0.642652	0.811777	0.090257
H132	H	0.714172	0.687043	0.110055
H133	H	1.128142	0.696453	-0.484064
H134	H	0.440488	1.314717	-0.582567
C135	C	0.552250	0.989877	-0.061985
H136	H	0.486354	1.016120	-0.047938
H137	H	0.611906	0.949000	-0.009631
H138	H	0.558172	1.044069	-0.107541
H139	H	0.392804	0.973493	-0.070600
H140	H	0.394027	1.284144	-0.139195
H141	H	0.556538	0.964635	-0.168004
C142	C	0.563604	0.655277	0.122818
H143	H	0.533902	0.640091	0.088730
H144	H	0.640206	0.610827	0.145510
H145	H	0.533618	0.647184	0.171567
C146	C	0.823514	1.102047	-0.455149
H147	H	0.821202	1.130964	-0.516748
H148	H	0.863169	1.117293	-0.428511
H149	H	0.858044	1.030895	-0.424750
H150	H	1.728525	0.346566	0.068095
H151	H	0.569445	1.128508	-0.287478
C152	C	0.797859	1.147754	0.046255
H153	H	0.791093	1.184640	0.071944
H154	H	0.831580	1.078067	0.092692
H155	H	0.840907	1.156940	0.006272
H156	H	0.413746	1.362428	-0.059410
C157	C	1.558081	0.511157	0.192217
H158	H	1.633848	0.477291	0.199414
H159	H	1.523586	0.495547	0.161775
H160	H	1.528664	0.581966	0.158012
C161	C	1.518512	0.319172	-0.110199
H162	H	1.443843	0.351084	-0.138881
H163	H	1.556801	0.328014	-0.153987
H164	H	1.547494	0.249134	-0.067558
H165	H	0.497530	0.789406	-0.145569
C166	C	0.637646	1.251564	-0.618906
H167	H	0.569759	1.299650	-0.664385
H168	H	0.680042	1.281391	-0.626792
H169	H	0.674935	1.194976	-0.623011
C170	C	0.568553	0.645271	-0.018195
H171	H	0.645104	0.600442	0.004526
H172	H	0.538099	0.634460	0.030536
H173	H	0.538924	0.633175	-0.055399
H174	H	1.128566	0.517309	0.382131
H175	H	0.720905	0.672936	-0.031513
C176	C	0.999852	0.295703	0.533812
H177	H	1.040075	0.282687	0.585184
H178	H	0.925754	0.321259	0.532711
H179	H	1.028054	0.234844	0.536480
H180	H	1.113306	0.388193	0.523614
C181	C	1.215920	1.119496	-0.263266
H182	H	1.253594	1.153358	-0.270459
H183	H	1.163868	1.135109	-0.232826
H184	H	1.266154	1.048687	-0.229061
H185	H	0.657626	0.787849	-0.144429
H186	H	1.682063	0.316013	0.511496
C187	C	1.122761	1.334986	-0.604826
H188	H	1.166774	1.354155	-0.588703
H189	H	1.154757	1.306357	-0.637460
H190	H	1.052463	1.392770	-0.641221
H191	H	0.906452	0.373038	0.357930
H192	H	1.489883	0.388126	0.523645
H193	H	1.329299	0.517268	0.382170
C194	C	0.976474	1.102059	-0.455141
H195	H	0.979008	1.055161	-0.396576
H196	H	0.903295	1.155240	-0.488583
H197	H	1.005575	1.068803	-0.484805
H198	H	0.408895	1.257666	-0.428938
H199	H	0.561491	1.142633	-0.133025
C200	C	0.604037	1.311520	0.039117
H201	H	0.678703	1.279580	0.067831
H202	H	0.575074	1.381553	-0.003507
H203	H	0.565730	1.302678	0.082897
