data_functionalizedCrystal
_audit_creation_method	'MofGen! by Chris Wilmer'
_symmetry_space_group_name_H-M	'P1'
_symmetry_Int_Tables_number	1
_symmetry_cell_setting	triclinic
loop_
_symmetry_equiv_pos_as_xyz
  x,y,z
_cell_length_a	10.723024
_cell_length_b	10.723022
_cell_length_c	9.798715
_cell_angle_alpha	89.998022
_cell_angle_beta	90.003391
_cell_angle_gamma	95.532452
loop_
_atom_site_label
_atom_site_type_symbol
_atom_site_fract_x
_atom_site_fract_y
_atom_site_fract_z
O1	O	-1.657186	0.175025	-0.113478
O2	O	-1.294034	0.191778	-0.113483
O3	O	-1.483988	0.001825	-0.113475
O4	O	-1.467232	0.364978	-0.113486
O5	O	-1.483974	0.001824	0.113507
O6	O	-1.294020	0.191777	0.113499
O7	O	-1.657172	0.175024	0.113504
Zn8	Zn	-1.475594	0.183401	0.149540
Zn9	Zn	-1.475612	0.183401	-0.149519
O10	O	-1.467218	0.364977	0.113496
C11	C	-1.247527	0.190558	0.000008
C12	C	-1.108973	0.186911	0.000006
C13	C	-1.482762	-0.044675	0.000014
C14	C	-1.479115	-0.183229	0.000009
C15	C	-1.703679	0.176243	0.000010
C16	C	-1.842233	0.179891	0.000003
C17	C	-1.033990	0.293199	0.000002
C18	C	-0.890786	0.289431	0.000001
C19	C	-1.581631	-0.401408	0.000004
C20	C	-1.585403	-0.258205	0.000009
N21	N	-1.475590	0.183399	0.353640
C22	C	-1.468444	0.411477	0.000004
C23	C	-1.472091	0.550031	-0.000000
N24	N	-1.475626	0.183393	-0.353619
C25	C	-1.555346	0.103292	0.421420
C26	C	-1.555366	0.103288	0.578582
H27	H	-1.075811	0.386984	0.000007
O28	O	-0.805446	0.409966	0.000011
H29	H	-0.745467	0.413763	-0.092496
H30	H	-1.407317	0.251975	0.411961
O31	O	-1.645747	0.012406	0.344184
H32	H	-1.631531	0.026658	0.232863
H33	H	-1.385323	-0.225033	-0.000001
O34	O	-1.645821	0.012431	0.655775
H35	H	-1.631636	0.026679	0.767102
H36	H	-1.067151	0.093125	-0.000026
O37	O	-0.927564	0.059350	0.000022
H38	H	-0.987555	0.055553	-0.092484
O39	O	-1.702168	-0.486752	0.000011
H40	H	-1.680290	-0.585836	0.000002
H41	H	-1.679190	-0.216393	-0.000037
O42	O	-1.385169	0.274237	0.569176
H43	H	-1.402152	0.371620	0.596500
O44	O	-1.351553	-0.364626	0.000009
H45	H	-1.347755	-0.304650	-0.092506
