data_functionalizedCrystal
_audit_creation_method	'MofGen! by Chris Wilmer'
_symmetry_space_group_name_H-M	'P1'
_symmetry_Int_Tables_number	1
_symmetry_cell_setting	triclinic
loop_
_symmetry_equiv_pos_as_xyz
  x,y,z
_cell_length_a	12.594517
_cell_length_b	18.215405
_cell_length_c	18.215399
_cell_angle_alpha	90.027541
_cell_angle_beta	90.020001
_cell_angle_gamma	90.022532
loop_
_atom_site_label
_atom_site_type_symbol
_atom_site_fract_x
_atom_site_fract_y
_atom_site_fract_z
Zn1	Zn	1.627204	-0.292996	0.416121
Zn2	Zn	1.627078	-0.416067	0.293056
Zn3	Zn	1.449212	-0.293018	0.293068
Zn4	Zn	1.449169	-0.416025	0.416080
O5	O	1.538165	-0.354526	0.354581
O6	O	1.776133	-0.309330	0.399808
O7	O	1.603449	-0.399772	0.190073
O8	O	1.472893	-0.190031	0.309414
O9	O	1.776040	-0.399750	0.309393
O10	O	1.603663	-0.190014	0.399820
O11	O	1.472771	-0.309368	0.190082
O12	O	1.300260	-0.309327	0.309374
O13	O	1.472820	-0.399677	0.519070
O14	O	1.300229	-0.399699	0.399751
O15	O	1.603622	-0.309289	0.519100
O16	O	1.603407	-0.519046	0.309353
O17	O	1.472698	-0.519015	0.399739
C18	C	1.261625	-0.354512	0.354560
C19	C	1.143319	-0.354523	0.354568
C20	C	1.538063	-0.545733	0.354556
C21	C	1.538117	-0.627532	0.354570
C22	C	1.606242	-0.815656	0.401708
C23	C	1.606280	-0.892515	0.401722
C24	C	1.470221	-0.892645	0.307500
C25	C	1.470178	-0.815788	0.307491
C26	C	1.538194	-0.777295	0.354594
C27	C	1.538276	-0.931011	0.354617
C28	C	1.538317	-1.014345	0.354632
C29	C	1.538152	-0.693956	0.354580
C30	C	1.074052	-0.305303	0.305506
C31	C	1.003230	-0.372431	0.287401
C32	C	1.003342	-0.287428	0.372686
C33	C	1.074056	-0.421686	0.336427
C34	C	1.074173	-0.336639	0.421744
C35	C	1.003383	-0.403813	0.403664
C36	C	1.815786	-0.354542	0.354604
C37	C	1.934092	-0.354548	0.354613
C38	C	1.538230	-0.354476	0.546534
C39	C	1.538258	-0.354454	0.628333
C40	C	1.538297	-0.162574	0.354623
C41	C	1.538353	-0.080775	0.354641
C42	C	1.538162	-0.354524	0.163375
C43	C	1.538341	-0.354338	0.081577
C44	C	1.606391	-0.307345	0.816544
C45	C	1.606403	-0.307323	0.893403
C46	C	1.470201	-0.401450	0.893360
C47	C	1.470183	-0.401467	0.816503
C48	C	1.538284	-0.354415	0.778097
C49	C	1.538314	-0.354377	0.931813
C50	C	1.538328	-0.354354	1.015147
C51	C	1.538270	-0.354437	0.694758
H52	H	1.661623	-0.784317	0.440063
H53	H	1.661689	-0.923744	0.440089
C54	C	1.395321	-0.773585	0.255666
H55	H	1.405029	-0.722299	0.262414
H56	H	1.410942	-0.786197	0.206229
H57	H	1.323801	-0.786213	0.266397
H58	H	1.414846	-0.923995	0.269150
C59	C	0.961112	-0.392884	0.210690
H60	H	0.919606	-0.436320	0.213963
H61	H	0.918542	-0.353959	0.192334
H62	H	1.019210	-0.400999	0.178447
H63	H	1.105081	-0.263719	0.263965
H64	H	1.661861	-0.268992	0.924703
C65	C	1.395302	-0.453209	0.935606
H66	H	1.354731	-0.481241	0.901698
H67	H	1.436005	-0.485269	0.965585
H68	H	1.348946	-0.425046	0.965589
H69	H	1.104988	-0.478455	0.321059
C70	C	0.961716	-0.460119	0.459737
H71	H	0.986059	-0.507746	0.446762
H72	H	0.987080	-0.447812	0.507296
H73	H	0.886291	-0.459544	0.459730
C74	C	0.961381	-0.210765	0.393371
H75	H	0.919918	-0.214155	0.436798
H76	H	1.019540	-0.178564	0.401568
H77	H	0.918780	-0.192284	0.354505
C78	C	1.395270	-0.453252	0.774208
H79	H	1.354726	-0.481280	0.808088
H80	H	1.348905	-0.425108	0.744225
H81	H	1.435972	-0.485326	0.744226
C82	C	1.116311	-0.316155	0.498437
H83	H	1.092145	-0.268434	0.511222
H84	H	1.091064	-0.350641	0.533430
H85	H	1.191733	-0.316736	0.497966
H86	H	1.661840	-0.269030	0.785276
