data_functionalizedCrystal
_audit_creation_method	'MofGen! by Chris Wilmer'
_symmetry_space_group_name_H-M	'P1'
_symmetry_Int_Tables_number	1
_symmetry_cell_setting	triclinic
loop_
_symmetry_equiv_pos_as_xyz
  x,y,z
_cell_length_a	17.038272
_cell_length_b	10.723024
_cell_length_c	9.798715
_cell_angle_alpha	90.003391
_cell_angle_beta	89.996584
_cell_angle_gamma	92.210287
loop_
_atom_site_label
_atom_site_type_symbol
_atom_site_fract_x
_atom_site_fract_y
_atom_site_fract_z
O1	O	0.109720	-1.667337	-0.113484
O2	O	0.609720	-1.167337	0.386516
O3	O	0.120222	-1.305156	-0.113489
O4	O	0.620222	-0.805156	0.386511
O5	O	0.001144	-1.484094	-0.113475
O6	O	0.501144	-0.984094	0.386525
O7	O	0.228799	-1.488399	-0.113497
O8	O	0.728799	-0.988399	0.386503
O9	O	0.001144	-1.484079	0.113507
O10	O	0.501144	-0.984079	0.613507
O11	O	0.120222	-1.305141	0.113494
O12	O	0.620222	-0.805141	0.613494
O13	O	0.109720	-1.667322	0.113498
O14	O	0.609720	-1.167322	0.613498
Zn15	Zn	0.114971	-1.486230	0.149534
Zn16	Zn	0.614971	-0.986230	0.649534
Zn17	Zn	0.114971	-1.486248	-0.149525
Zn18	Zn	0.614971	-0.986248	0.350475
O19	O	0.228798	-1.488384	0.113485
O20	O	0.728798	-0.988384	0.613485
C21	C	0.119458	-1.258578	0.000002
C22	C	0.619458	-0.758578	0.500002
C23	C	0.117171	-1.119813	0.000000
C24	C	0.617171	-0.619813	0.500000
C25	C	-0.028006	-1.480171	0.000015
C26	C	0.471994	-0.980171	0.500015
C27	C	-0.114864	-1.468489	0.000015
C28	C	0.385136	-0.968489	0.500015
N29	N	0.114970	-1.486226	0.353634
N30	N	0.614970	-0.986226	0.853634
C31	C	-0.164385	-1.575744	0.000018
C32	C	0.335615	-1.075744	0.500018
C33	C	-0.245996	-1.564760	0.000005
C34	C	0.254004	-1.064760	0.500005
C35	C	-0.278084	-1.446520	-0.000002
C36	C	0.221916	-0.946520	0.499998
C37	C	-0.228557	-1.339256	-0.000009
C38	C	0.271443	-0.839256	0.499991
C39	C	-0.146947	-1.350241	-0.000005
C40	C	0.353053	-0.850241	0.499995
C41	C	-0.524057	-1.407711	-0.000021
C42	C	-0.024057	-0.907711	0.499979
C43	C	-0.605673	-1.396734	-0.000020
C44	C	-0.105673	-0.896734	0.499980
C45	C	-0.623107	-1.622239	-0.000009
C46	C	-0.123107	-1.122239	0.499991
C47	C	-0.541495	-1.633214	0.000002
C48	C	-0.041495	-1.133214	0.500002
C49	C	-0.491974	-1.525950	-0.000012
C50	C	0.008026	-1.025950	0.499988
C51	C	-0.361504	-1.435289	-0.000011
C52	C	0.138496	-0.935289	0.499989
C53	C	-0.408556	-1.537182	-0.000013
C54	C	0.091444	-1.037182	0.499987
C55	C	0.257948	-1.492307	-0.000009
C56	C	0.757948	-0.992307	0.499991
C57	C	0.344806	-1.503989	-0.000017
C58	C	0.844806	-1.003989	0.499983
C59	C	0.110484	-1.713900	0.000005
C60	C	0.610484	-1.213900	0.500005
C61	C	0.112771	-1.852666	-0.000003
C62	C	0.612771	-1.352666	0.499997
C63	C	0.183801	-1.050993	-0.000007
C64	C	0.683801	-0.550993	0.499993
C65	C	0.181440	-0.907571	-0.000008
C66	C	0.681440	-0.407571	0.499992
N67	N	0.114966	-1.486261	-0.353624
N68	N	0.614966	-0.986261	0.146376
C69	C	0.064752	-1.561337	0.421416
C70	C	0.564752	-1.061337	0.921416
C71	C	0.064749	-1.561356	0.578579
C72	C	0.564749	-1.061356	1.078579
H73	H	-0.286314	-1.652100	0.000010
H74	H	0.213686	-1.152100	0.500010
H75	H	0.055727	-0.911814	-0.000005
H76	H	0.555727	-0.411814	0.499995
H77	H	-0.663435	-1.709567	-0.000000
H78	H	-0.163435	-1.209567	0.500000
H79	H	-0.515375	-1.729498	0.000007
H80	H	-0.015375	-1.229498	0.500007
H81	H	0.058378	-1.072552	-0.000029
H82	H	0.558378	-0.572552	0.499971
N83	N	0.171916	-1.401073	0.569173
N84	N	0.671916	-0.901073	1.069173
H85	H	0.162568	-1.311438	0.593988
H86	H	0.662568	-0.811438	1.093988
H87	H	0.227470	-1.421673	0.593987
H88	H	0.727470	-0.921673	1.093987
H89	H	0.021758	-1.625667	0.636869
H90	H	0.521758	-1.125667	1.136869
N91	N	0.007781	-1.646469	0.344182
N92	N	0.507781	-1.146469	0.844182
H93	H	0.015850	-1.634373	0.242857
H94	H	0.515850	-1.134373	0.742857
H95	H	0.017137	-1.736083	0.369048
H96	H	0.517137	-1.236083	0.869048
N97	N	0.171917	-1.401060	0.430878
N98	N	0.671917	-0.901060	0.930878
H99	H	0.227496	-1.421549	0.406078
H100	H	0.727496	-0.921549	0.906078
H101	H	0.162501	-1.311452	0.406069
H102	H	0.662501	-0.811452	0.906069
N103	N	-0.129778	-1.703276	0.000037
N104	N	0.370222	-1.203276	0.500037
H105	H	-0.173536	-1.769554	0.000035
H106	H	0.326464	-1.269554	0.500035
H107	H	-0.096293	-1.712754	-0.084105
H108	H	0.403707	-1.212754	0.415895
N109	N	-0.640285	-1.269197	-0.000029
N110	N	-0.140285	-0.769197	0.499971
H111	H	-0.596531	-1.202912	-0.000041
H112	H	-0.096531	-0.702912	0.499959
H113	H	-0.673765	-1.259746	-0.084173
H114	H	-0.173765	-0.759746	0.415827
H115	H	-0.483747	-1.320369	-0.000032
H116	H	0.016253	-0.820369	0.499968
H117	H	-0.254689	-1.242982	-0.000022
H118	H	0.245311	-0.742982	0.499978
H119	H	-0.106627	-1.262902	-0.000008
H120	H	0.393373	-0.762902	0.499992
H121	H	-0.382426	-1.633453	-0.000038
H122	H	0.117574	-1.133453	0.499962
N123	N	0.257002	-0.829226	-0.000029
N124	N	0.757002	-0.329226	0.499971
H125	H	0.244604	-0.737876	-0.000031
H126	H	0.744604	-0.237876	0.499969
H127	H	0.288482	-0.848749	0.084113
H128	H	0.788482	-0.348749	0.584113
H129	H	-0.387640	-1.339017	-0.000013
H130	H	0.112360	-0.839017	0.499987
H131	H	0.242594	-1.098254	-0.000005
H132	H	0.742594	-0.598254	0.499995
