data_functionalizedCrystal
_audit_creation_method	'MofGen! by Chris Wilmer'
_symmetry_space_group_name_H-M	'P1'
_symmetry_Int_Tables_number	1
_symmetry_cell_setting	triclinic
loop_
_symmetry_equiv_pos_as_xyz
  x,y,z
_cell_length_a	16.625548
_cell_length_b	21.395361
_cell_length_c	21.395355
_cell_angle_alpha	90.021511
_cell_angle_beta	90.024527
_cell_angle_gamma	90.031776
loop_
_atom_site_label
_atom_site_type_symbol
_atom_site_fract_x
_atom_site_fract_y
_atom_site_fract_z
Zn1	Zn	1.232666	-0.249493	0.354248
Zn2	Zn	1.732666	0.250507	0.854248
Zn3	Zn	1.232540	-0.354253	0.249465
Zn4	Zn	1.732540	0.145747	0.749465
Zn5	Zn	1.097818	-0.249495	0.249485
Zn6	Zn	1.597818	0.250505	0.749485
Zn7	Zn	1.097779	-0.354239	0.354205
Zn8	Zn	1.597779	0.145761	0.854205
O9	O	1.165201	-0.301870	0.301851
O10	O	1.665201	0.198130	0.801851
O11	O	1.345481	-0.263395	0.340358
O12	O	1.845481	0.236605	0.840358
O13	O	1.214633	-0.340364	0.161790
O14	O	1.714633	0.159636	0.661790
O15	O	1.115775	-0.161817	0.263408
O16	O	1.615775	0.338183	0.763408
O17	O	1.345389	-0.340362	0.263374
O18	O	1.845389	0.159638	0.763374
O19	O	1.214847	-0.161816	0.340377
O20	O	1.714847	0.338184	0.840377
O21	O	1.115653	-0.263398	0.161804
O22	O	1.615653	0.236602	0.661804
O23	O	0.984981	-0.263385	0.263366
O24	O	1.484981	0.236615	0.763366
O25	O	1.115708	-0.340337	0.441889
O26	O	1.615708	0.159663	0.941889
O27	O	0.984951	-0.340339	0.340304
O28	O	1.484951	0.159661	0.840304
O29	O	1.214809	-0.263381	0.441920
O30	O	1.714809	0.236619	0.941920
O31	O	1.214595	-0.441929	0.263333
O32	O	1.714595	0.058071	0.763333
O33	O	1.115586	-0.441919	0.340285
O34	O	1.615586	0.058081	0.840285
C35	C	1.165094	-0.464658	0.301816
C36	C	1.665094	0.035342	0.801816
C37	C	1.165122	-0.534299	0.301822
C38	C	1.665122	-0.034299	0.801822
C39	C	0.955710	-0.301861	0.301833
C40	C	1.455710	0.198139	0.801833
C41	C	0.866089	-0.301872	0.301841
C42	C	1.366089	0.198128	0.801841
C43	C	1.216722	-0.566997	0.261794
C44	C	1.716722	-0.066997	0.761794
C45	C	1.216760	-0.632432	0.261808
C46	C	1.716760	-0.132432	0.761808
C47	C	1.165183	-0.665167	0.301843
C48	C	1.665183	-0.165167	0.801843
C49	C	1.113580	-0.632462	0.341879
C50	C	1.613580	-0.132462	0.841879
C51	C	1.113550	-0.567028	0.341868
C52	C	1.613550	-0.067028	0.841868
C53	C	1.092583	-0.768884	0.306753
C54	C	1.592583	-0.268884	0.806753
C55	C	1.092612	-0.834316	0.306760
C56	C	1.592612	-0.334316	0.806760
C57	C	1.165277	-0.866988	0.301880
C58	C	1.665277	-0.366988	0.801880
C59	C	1.237915	-0.834219	0.296981
C60	C	1.737915	-0.334219	0.796981
C61	C	1.237885	-0.768784	0.296970
C62	C	1.737885	-0.268784	0.796970
C63	C	1.165211	-0.736120	0.301860
C64	C	1.665211	-0.236120	0.801860
C65	C	1.216922	-0.970638	0.261865
C66	C	1.716922	-0.470638	0.761865
C67	C	1.216960	-1.036075	0.261884
C68	C	1.716960	-0.536075	0.761884
C69	C	1.113774	-1.036103	0.341952
C70	C	1.613774	-0.536103	0.841952
C71	C	1.113742	-0.970668	0.341936
C72	C	1.613742	-0.470668	0.841936
C73	C	1.165315	-0.937939	0.301890
C74	C	1.665315	-0.437939	0.801890
C75	C	0.537913	-0.301877	0.301867
C76	C	1.037913	0.198123	0.801867
C77	C	0.629222	-0.301874	0.301858
C78	C	1.129222	0.198126	0.801858
C79	C	0.701998	-0.301875	0.301853
C80	C	1.201998	0.198125	0.801853
C81	C	0.793312	-0.301871	0.301845
C82	C	1.293312	0.198129	0.801845
C83	C	1.375510	-0.301880	0.301869
C84	C	1.875510	0.198120	0.801869
C85	C	1.465131	-0.301884	0.301876
C86	C	1.965131	0.198116	0.801876
C87	C	1.165268	-0.301857	0.465274
C88	C	1.665268	0.198143	0.965274
C89	C	1.165296	-0.301852	0.534915
C90	C	1.665296	0.198148	1.034915
C91	C	1.165330	-0.138447	0.301899
C92	C	1.665330	0.361553	0.801899
C93	C	1.165384	-0.068806	0.301920
C94	C	1.665384	0.431194	0.801920
C95	C	1.165180	-0.301838	0.139063
C96	C	1.665180	0.198162	0.639063
C97	C	1.165308	-0.301666	0.069422
C98	C	1.665308	0.198334	0.569422
C99	C	1.216896	-0.261779	0.567646
C100	C	1.716896	0.238221	1.067646
C101	C	1.216895	-0.261752	0.633081
C102	C	1.716895	0.238248	1.133081
C103	C	1.165302	-0.301809	0.665784
C104	C	1.665302	0.198191	1.165784
C105	C	1.113693	-0.341885	0.633045
C106	C	1.613693	0.158115	1.133045
C107	C	1.113690	-0.341906	0.567611
C108	C	1.613690	0.158094	1.067611
C109	C	1.158899	-0.358225	0.769446
C110	C	1.658899	0.141775	1.269446
C111	C	1.158908	-0.358204	0.834879
C112	C	1.658908	0.141796	1.334879
C113	C	1.165307	-0.301743	0.867605
C114	C	1.665307	0.198257	1.367605
C115	C	1.171715	-0.245300	0.834889
C116	C	1.671715	0.254700	1.334889
C117	C	1.171712	-0.245322	0.769455
C118	C	1.671712	0.254678	1.269455
C119	C	1.165300	-0.301790	0.736736
C120	C	1.665300	0.198210	1.236736
C121	C	1.216909	-0.261638	0.971288
C122	C	1.716909	0.238362	1.471288
C123	C	1.216902	-0.261610	1.036724
C124	C	1.716902	0.238390	1.536724
C125	C	1.113704	-0.341748	1.036687
C126	C	1.613704	0.158252	1.536687
C127	C	1.113707	-0.341770	0.971252
C128	C	1.613707	0.158230	1.471252
C129	C	1.165313	-0.301716	0.938556
C130	C	1.665313	0.198284	1.438556
H131	H	1.258718	-0.540351	0.229187
H132	H	1.758718	-0.040351	0.729187
Br133	Br	1.043708	-0.926289	0.396262
Br134	Br	1.543708	-0.426289	0.896262
H135	H	1.033466	-0.860992	0.310743
H136	H	1.533466	-0.360992	0.810743
H137	H	1.258925	-0.229020	0.944665
H138	H	1.758925	0.270980	1.444665
H139	H	1.258781	-0.659060	0.229213
H140	H	1.758781	-0.159060	0.729213
H141	H	1.258917	-0.229163	0.541029
H142	H	1.758917	0.270837	1.041029
Br143	Br	1.286908	-0.207348	0.677511
Br144	Br	1.786908	0.292652	1.177511
Br145	Br	1.286949	-0.207230	1.081146
Br146	Br	1.786949	0.292770	1.581146
Br147	Br	1.180404	-0.168725	0.725056
Br148	Br	1.680404	0.331275	1.225056
Br149	Br	1.043517	-0.522649	0.396197
Br150	Br	1.543517	-0.022649	0.896197
H151	H	1.297028	-0.742105	0.292983
H152	H	1.797028	-0.242105	0.792983
H153	H	1.176928	-0.199324	0.861532
H154	H	1.676928	0.300676	1.361532
H155	H	1.071689	-0.374357	1.063313
H156	H	1.571689	0.125643	1.563313
Br157	Br	1.043676	-0.396159	0.926828
Br158	Br	1.543676	0.103841	1.426828
Br159	Br	1.043589	-0.676886	0.396218
Br160	Br	1.543589	-0.176886	0.896218
H161	H	1.297086	-0.860818	0.293008
H162	H	1.797086	-0.360818	0.793008
H163	H	1.153695	-0.404164	0.861511
H164	H	1.653695	0.095836	1.361511
H165	H	1.153472	-0.404191	0.742807
H166	H	1.653472	0.095809	1.242807
H167	H	1.071783	-1.062755	0.374552
H168	H	1.571783	-0.562755	0.874552
H169	H	1.258918	-0.943990	0.229259
H170	H	1.758918	-0.443990	0.729259
H171	H	1.071683	-0.374498	0.659676
H172	H	1.571683	0.125502	1.159676
Br173	Br	1.043655	-0.396294	0.523188
Br174	Br	1.543655	0.103706	1.023188
H175	H	1.258984	-1.062696	0.229289
H176	H	1.758984	-0.562696	0.729289
H177	H	1.033406	-0.742289	0.310729
H178	H	1.533406	-0.242289	0.810729
