data_functionalizedCrystal
_audit_creation_method	'MofGen! by Chris Wilmer'
_symmetry_space_group_name_H-M	'P1'
_symmetry_Int_Tables_number	1
_symmetry_cell_setting	triclinic
loop_
_symmetry_equiv_pos_as_xyz
  x,y,z
_cell_length_a	16.959455
_cell_length_b	18.050589
_cell_length_c	16.959447
_cell_angle_alpha	89.973357
_cell_angle_beta	89.985678
_cell_angle_gamma	90.025168
loop_
_atom_site_label
_atom_site_type_symbol
_atom_site_fract_x
_atom_site_fract_y
_atom_site_fract_z
Zn1	Zn	1.208339	-0.295705	-0.446929
Zn2	Zn	1.208243	-0.419907	-0.314759
Zn3	Zn	1.076167	-0.295729	-0.314766
Zn4	Zn	1.076113	-0.419851	-0.446897
O5	O	1.142216	-0.357798	-0.380838
O6	O	1.318937	-0.312194	-0.429406
O7	O	1.190705	-0.403467	-0.204149
O8	O	1.093763	-0.191801	-0.332314
O9	O	1.318866	-0.403445	-0.332301
O10	O	1.190869	-0.191784	-0.429414
O11	O	1.093670	-0.312234	-0.204154
O12	O	0.965549	-0.312180	-0.332284
O13	O	1.093671	-0.403350	-0.557512
O14	O	0.965510	-0.403373	-0.429360
O15	O	1.190817	-0.312141	-0.557536
O16	O	1.190653	-0.523824	-0.332271
O17	O	1.093578	-0.523783	-0.429353
C18	C	0.936849	-0.357774	-0.380820
C19	C	0.848993	-0.357781	-0.380831
C20	C	1.142120	-0.550750	-0.380825
C21	C	1.142152	-0.633296	-0.380846
C22	C	0.477513	-0.310275	-0.330396
C23	C	0.477521	-0.405382	-0.431325
C24	C	0.560067	-0.405371	-0.431320
C25	C	0.601340	-0.357813	-0.380852
C26	C	0.560067	-0.310265	-0.330388
C27	C	0.601346	-0.452924	-0.481777
C28	C	0.683897	-0.452916	-0.481774
C29	C	0.725171	-0.405353	-0.431309
C30	C	0.683893	-0.357802	-0.380844
C31	C	0.725166	-0.310243	-0.330375
C32	C	0.683890	-0.262689	-0.279913
C33	C	0.601342	-0.262702	-0.279923
C34	C	0.807720	-0.405340	-0.431299
C35	C	0.807720	-0.310233	-0.330367
C36	C	1.089414	-0.832751	-0.433620
C37	C	1.070151	-0.882194	-0.361493
C38	C	1.142229	-0.784426	-0.380856
C39	C	1.161531	-0.882065	-0.452991
C40	C	1.142303	-0.930411	-0.380872
C41	C	1.122929	-0.832782	-0.308691
C42	C	1.214342	-0.832648	-0.400237
C43	C	1.195106	-0.882069	-0.328061
C44	C	1.142185	-0.700328	-0.380848
C45	C	1.142347	-1.014508	-0.380872
C46	C	1.348384	-0.357823	-0.380857
C47	C	1.436240	-0.357834	-0.380864
C48	C	1.142249	-0.357737	-0.587006
C49	C	1.142263	-0.357710	-0.674863
C50	C	1.142333	-0.164092	-0.380868
C51	C	1.142383	-0.081547	-0.380881
C52	C	1.091778	-0.405121	-1.046329
C53	C	1.192936	-0.310143	-1.046348
C54	C	1.192915	-0.310159	-0.963802
C55	C	1.142326	-0.357657	-0.922516
C56	C	1.091757	-0.405139	-0.963775
C57	C	1.243489	-0.262683	-0.922537
C58	C	1.243470	-0.262698	-0.839986
C59	C	1.192876	-0.310192	-0.798698
C60	C	1.142305	-0.357676	-0.839962
C61	C	1.091715	-0.405174	-0.798676
C62	C	1.041139	-0.452654	-0.839939
C63	C	1.041162	-0.452634	-0.922488
C64	C	1.192852	-0.310212	-0.716149
C65	C	1.091694	-0.405193	-0.716122
C66	C	1.142228	-0.357806	-0.175472
C67	C	1.142368	-0.357623	-0.087615
H68	H	0.841319	-0.271500	-0.289274
C69	C	0.907301	-0.488790	-0.947902
C70	C	0.985577	-0.504826	-0.967844
H71	H	0.872988	-0.521010	-0.975909
H72	H	0.900050	-0.495601	-0.892838
H73	H	0.895776	-0.438887	-0.961450
H74	H	0.997104	-0.554728	-0.954291
H75	H	0.992831	-0.498022	-1.022921
H76	H	1.234033	-0.271557	-0.682556
C77	C	0.810434	-0.220453	-0.235091
C78	C	0.729263	-0.210412	-0.224439
H79	H	0.838446	-0.188177	-0.200848
H80	H	0.823930	-0.270331	-0.223428
H81	H	0.823976	-0.209646	-0.288222
H82	H	0.715721	-0.221224	-0.171310
H83	H	0.715762	-0.160522	-0.236097
C84	C	1.053198	-0.530865	-1.071708
C85	C	1.036186	-0.457311	-1.091679
H86	H	1.018874	-0.563084	-1.099702
H87	H	1.106295	-0.541732	-1.085242
H88	H	1.045948	-0.537664	-1.016634
H89	H	1.043442	-0.450511	-1.146752
H90	H	0.983076	-0.446441	-1.078150
C91	C	0.609626	-0.168687	-0.180155
C92	C	0.555970	-0.210437	-0.224454
H93	H	0.581612	-0.136420	-0.145914
H94	H	0.641803	-0.201003	-0.149862
H95	H	0.641843	-0.140313	-0.214650
H96	H	0.523757	-0.238815	-0.189959
H97	H	0.523780	-0.178117	-0.254750
C98	C	0.953595	-0.828524	-0.473286
C99	C	1.029036	-0.803508	-0.493770
H100	H	0.916320	-0.810465	-0.510415
H101	H	0.952878	-0.881140	-0.473375
H102	H	0.940420	-0.810920	-0.422178
H103	H	1.042213	-0.821116	-0.544876
H104	H	1.029755	-0.750881	-0.493689
H105	H	1.177827	-0.903713	-0.513989
H106	H	0.443903	-0.271555	-0.289313
H107	H	1.284652	-0.224036	-0.806396
C108	C	1.282082	-0.136932	-0.947986
C109	C	1.299095	-0.210479	-0.967921
H110	H	1.316416	-0.104704	-0.976006
H111	H	1.228989	-0.126058	-0.961516
H112	H	1.289316	-0.130155	-0.892918
H113	H	1.291855	-0.217257	-1.022989
H114	H	1.352201	-0.221357	-0.954397
C115	C	1.235080	-0.886115	-0.192324
C116	C	1.255442	-0.911128	-0.267768
H117	H	1.272325	-0.904061	-0.155102
H118	H	1.235077	-0.833499	-0.191694
H119	H	1.184033	-0.903835	-0.179006
H120	H	1.306487	-0.893404	-0.281088
H121	H	1.255454	-0.963755	-0.268400
C122	C	0.350983	-0.447625	-0.476148
C123	C	0.432155	-0.457656	-0.486798
H124	H	0.322976	-0.479895	-0.510401
H125	H	0.337441	-0.458438	-0.423027
H126	H	0.337482	-0.397739	-0.487806
H127	H	0.445658	-0.507541	-0.475134
H128	H	0.445704	-0.446849	-0.539931
H129	H	0.567735	-0.491649	-0.522861
H130	H	1.275277	-0.810871	-0.416650
C131	C	0.675603	-0.546923	-0.581546
C132	C	0.729264	-0.505180	-0.537247
H133	H	0.703614	-0.579184	-0.615797
H134	H	0.643391	-0.575297	-0.547059
H135	H	0.643421	-0.514597	-0.611837
H136	H	0.761442	-0.537505	-0.506952
H137	H	0.761489	-0.476804	-0.571739
C138	C	0.900589	-0.415772	-0.537589
C139	C	0.853094	-0.457606	-0.486759
H140	H	0.928604	-0.448042	-0.571826
H141	H	0.868404	-0.383466	-0.567887
H142	H	0.936978	-0.387446	-0.507525
H143	H	0.816700	-0.485928	-0.516823
H144	H	0.885282	-0.489925	-0.456458
H145	H	1.009203	-0.903974	-0.345115
C146	C	0.991711	-0.499082	-0.724396
C147	C	1.036090	-0.457412	-0.670743
H148	H	0.957390	-0.531325	-0.696379
H149	H	0.961499	-0.466714	-0.756592
H150	H	1.026149	-0.527479	-0.756594
H151	H	1.001651	-0.429012	-0.638549
H152	H	1.066304	-0.489784	-0.638533
C153	C	1.100953	-0.726115	-0.227071
C154	C	1.100827	-0.803686	-0.226324
H155	H	1.087301	-0.708153	-0.176224
H156	H	1.151989	-0.708744	-0.240911
H157	H	1.063644	-0.708843	-0.264579
H158	H	1.138141	-0.820958	-0.188820
H159	H	1.049784	-0.821065	-0.212474
C160	C	1.231522	-0.184391	-1.071797
C161	C	1.248544	-0.257937	-1.091728
H162	H	1.265857	-0.152161	-1.099813
H163	H	1.178430	-0.173521	-1.085333
H164	H	1.238749	-0.177613	-1.016728
H165	H	1.241312	-0.264717	-1.146797
H166	H	1.301649	-0.268811	-1.078197
H167	H	0.999952	-0.491330	-0.806313
