data_functionalizedCrystal
_audit_creation_method	'MofGen! by Chris Wilmer'
_symmetry_space_group_name_H-M	'P1'
_symmetry_Int_Tables_number	1
_symmetry_cell_setting	triclinic
loop_
_symmetry_equiv_pos_as_xyz
  x,y,z
_cell_length_a	16.109301
_cell_length_b	23.532407
_cell_length_c	14.586319
_cell_angle_alpha	89.991566
_cell_angle_beta	89.998857
_cell_angle_gamma	83.155131
loop_
_atom_site_label
_atom_site_type_symbol
_atom_site_fract_x
_atom_site_fract_y
_atom_site_fract_z
O1	O	1.102555	0.073203	-0.076200
O2	O	0.860421	0.082312	-0.076214
O3	O	0.988790	-0.005147	-0.076189
O4	O	0.974187	0.160662	-0.076224
O5	O	0.988781	-0.005149	0.076291
O6	O	0.860413	0.082311	0.076267
O7	O	1.102546	0.073201	0.076281
Cu8	Cu	0.981479	0.077756	0.090197
Cu9	Cu	0.981489	0.077758	-0.090129
O10	O	0.974178	0.160661	0.076257
C11	C	0.829445	0.081943	0.000025
C12	C	0.737158	0.080836	0.000021
C13	C	0.427781	0.129116	0.000027
C14	C	0.514493	0.130161	0.000021
C15	C	0.535182	0.026393	0.000030
C16	C	0.448471	0.025349	0.000029
C17	C	0.394773	0.076712	0.000032
C18	C	0.568195	0.078801	0.000028
C19	C	0.662212	0.079934	0.000022
C20	C	0.300749	0.075580	0.000036
C21	C	0.988414	-0.026365	0.000053
C22	C	0.987296	-0.089586	0.000060
C23	C	1.133523	0.073571	0.000040
C24	C	1.225809	0.074677	0.000039
C25	C	1.056249	-0.488435	0.000014
C26	C	1.055210	-0.547839	0.000007
O27	O	1.119130	-0.584348	-0.000023
N28	N	0.978895	-0.570747	0.000003
C29	C	0.903614	-0.534247	-0.000003
O30	O	0.838607	-0.559187	-0.000007
C31	C	0.904653	-0.474844	-0.000002
C32	C	0.980973	-0.451940	0.000011
C33	C	1.132562	-0.465530	0.000026
C34	C	1.133601	-0.406130	0.000035
C35	C	1.058325	-0.369635	0.000032
C36	C	0.982011	-0.392540	0.000020
C37	C	0.829373	-0.438346	-0.000015
C38	C	0.830419	-0.378939	-0.000015
C39	C	0.906739	-0.356035	-0.000002
C40	C	0.907774	-0.296645	0.000025
N41	N	0.984089	-0.273737	0.000029
C42	C	1.059365	-0.310232	0.000032
C43	C	0.901437	-0.658998	-0.000005
C44	C	0.900396	-0.718399	0.000001
C45	C	1.051993	-0.731987	0.000009
C46	C	1.053032	-0.672585	0.000009
C47	C	0.977752	-0.636090	-0.000002
C48	C	1.061539	-0.185487	0.000051
C49	C	1.062571	-0.126082	0.000064
C50	C	0.910975	-0.112499	0.000051
C51	C	0.909943	-0.171899	0.000043
C52	C	0.985232	-0.208393	0.000040
O53	O	0.843888	-0.260101	0.000051
O54	O	1.124361	-0.285284	0.000025
C55	C	0.974554	0.181879	0.000012
C56	C	0.975672	0.245100	-0.000001
N57	N	0.981477	0.077755	0.217029
N58	N	0.981497	0.077755	-0.216961
C59	C	1.038337	0.039041	0.452046
C60	C	1.038340	0.039039	0.548027
C61	C	0.924631	0.116471	0.548015
C62	C	0.924625	0.116469	0.452036
C63	C	0.981483	0.077754	0.404053
C64	C	0.981491	0.077755	0.596014
C65	C	0.981493	0.077754	0.700081
C66	C	0.981480	0.077755	0.299980
H67	H	1.124722	-0.107437	0.000077
Br68	Br	0.725789	-0.469414	-0.000036
Br69	Br	1.237183	-0.375056	0.000027
Br70	Br	0.403670	-0.045776	0.000020
H71	H	1.122847	-0.215194	0.000045
H72	H	1.084635	0.007514	0.587100
Br73	Br	0.847454	0.169008	0.386895
H74	H	0.541363	0.172834	0.000016
H75	H	1.084633	0.007516	0.412981
H76	H	1.193864	-0.495239	0.000026
Br77	Br	0.799260	-0.609474	-0.000012
H78	H	0.384061	0.170940	0.000028
H79	H	0.578914	-0.015425	0.000030
Br80	Br	0.796815	-0.749476	0.000005
Br81	Br	1.154153	-0.781528	0.000010
Br82	Br	1.156612	-0.641507	0.000029
Br83	Br	0.806365	-0.202985	0.000046
Br84	Br	0.728246	-0.329414	-0.000034
Br85	Br	0.808820	-0.062959	0.000047
Br86	Br	0.847471	0.169011	0.613137
