data_functionalizedCrystal
_audit_creation_method	'MofGen! by Chris Wilmer'
_symmetry_space_group_name_H-M	'P1'
_symmetry_Int_Tables_number	1
_symmetry_cell_setting	triclinic
loop_
_symmetry_equiv_pos_as_xyz
  x,y,z
_cell_length_a	16.120530
_cell_length_b	16.120484
_cell_length_c	16.120297
_cell_angle_alpha	95.614431
_cell_angle_beta	90.128140
_cell_angle_gamma	90.167327
loop_
_atom_site_label
_atom_site_type_symbol
_atom_site_fract_x
_atom_site_fract_y
_atom_site_fract_z
Zn1	Zn	1.224987	-0.422264	-0.554813
Zn2	Zn	1.224883	-0.554948	-0.422118
Zn3	Zn	1.093726	-0.408180	-0.408056
Zn4	Zn	1.078880	-0.554181	-0.554051
O5	O	1.155619	-0.484893	-0.484760
O6	O	1.341009	-0.446081	-0.543415
O7	O	1.213654	-0.529906	-0.303620
O8	O	1.117395	-0.293418	-0.421958
O9	O	1.340932	-0.543563	-0.445925
O10	O	1.213832	-0.303765	-0.529780
O11	O	1.117294	-0.422076	-0.293289
O12	O	0.975721	-0.421332	-0.421218
O13	O	1.092092	-0.542255	-0.670785
O14	O	0.964814	-0.528598	-0.528480
O15	O	1.199436	-0.445336	-0.671345
O16	O	1.199258	-0.671477	-0.445185
O17	O	1.091990	-0.670913	-0.542116
C18	C	0.940181	-0.473354	-0.473241
C19	C	0.848013	-0.468438	-0.468334
C20	C	0.679262	-0.459445	-0.459381
C21	C	0.632810	-0.510407	-0.510202
C22	C	0.538911	-0.505403	-0.505220
C23	C	0.773169	-0.464448	-0.464361
C24	C	1.144023	-0.701438	-0.495113
C25	C	1.139137	-0.794083	-0.499574
C26	C	1.130220	-0.963706	-0.507736
C27	C	1.181166	-1.005249	-0.461804
C28	C	1.176204	-1.099633	-0.466346
C29	C	1.135180	-0.869313	-0.503196
C30	C	1.371899	-0.496479	-0.496324
C31	C	1.464064	-0.501416	-0.501252
C32	C	1.144119	-0.495281	-0.702152
C33	C	1.139219	-0.499708	-0.794791
C34	C	1.167282	-0.267505	-0.474385
C35	C	1.172251	-0.174867	-0.469964
C36	C	1.130243	-0.507770	-0.964403
C37	C	1.181172	-0.461776	-1.005965
C38	C	1.176177	-0.466262	-1.100342
C39	C	1.135236	-0.503285	-0.870017
C40	C	1.167125	-0.474489	-0.268213
C41	C	1.172198	-0.469836	-0.175571
H42	H	0.663563	-0.557794	-0.557453
H43	H	1.082881	-0.999022	-0.550467
N44	N	1.067530	-0.564387	-1.011164
H45	H	1.077997	-0.623926	-0.999615
H46	H	1.009785	-0.547502	-0.992260
H47	H	0.648511	-0.412060	-0.412135
N48	N	1.243904	-0.405157	-0.959225
H49	H	1.214159	-0.363043	-0.919447
H50	H	1.282369	-0.439468	-0.926840
N51	N	1.243878	-0.958475	-0.405195
H52	H	1.238578	-0.896703	-0.409932
H53	H	1.233381	-0.970147	-0.345690
