data_functionalizedCrystal
_audit_creation_method	'MofGen! by Chris Wilmer'
_symmetry_space_group_name_H-M	'P1'
_symmetry_Int_Tables_number	1
_symmetry_cell_setting	triclinic
loop_
_symmetry_equiv_pos_as_xyz
  x,y,z
_cell_length_a	25.639242
_cell_length_b	25.639239
_cell_length_c	25.639234
_cell_angle_alpha	90.021106
_cell_angle_beta	90.019181
_cell_angle_gamma	90.033587
loop_
_atom_site_label
_atom_site_type_symbol
_atom_site_fract_x
_atom_site_fract_y
_atom_site_fract_z
Zn1	Zn	0.799213	-0.208273	0.295734
Zn2	Zn	1.132546	0.125060	0.629067
Zn3	Zn	1.465879	0.458393	0.962401
Zn4	Zn	0.799140	-0.295696	0.208298
Zn5	Zn	1.132473	0.037638	0.541632
Zn6	Zn	1.465806	0.370971	0.874965
Zn7	Zn	0.711793	-0.208268	0.208299
Zn8	Zn	1.045126	0.125065	0.541632
Zn9	Zn	1.378459	0.458398	0.874966
Zn10	Zn	0.711734	-0.295672	0.295689
Zn11	Zn	1.045067	0.037662	0.629023
Zn12	Zn	1.378401	0.370995	0.962356
O13	O	0.755470	-0.251977	0.252005
O14	O	1.088803	0.081356	0.585339
O15	O	1.422136	0.414689	0.918672
O16	O	0.872368	-0.219882	0.284154
O17	O	1.205702	0.113451	0.617487
O18	O	1.539035	0.446784	0.950821
O19	O	0.787547	-0.284106	0.135133
O20	O	1.120880	0.049227	0.468467
O21	O	1.454214	0.382560	0.801800
O22	O	0.723444	-0.135104	0.219917
O23	O	1.056777	0.198230	0.553250
O24	O	1.390111	0.531563	0.886583
O25	O	0.872315	-0.284111	0.219915
O26	O	1.205648	0.049222	0.553249
O27	O	1.538981	0.382556	0.886582
O28	O	0.787671	-0.135107	0.284155
O29	O	1.121005	0.198226	0.617488
O30	O	1.454338	0.531559	0.950821
O31	O	0.723373	-0.219874	0.135134
O32	O	1.056707	0.113460	0.468467
O33	O	1.390040	0.446793	0.801800
O34	O	0.638620	-0.219851	0.219873
O35	O	0.971953	0.113483	0.553206
O36	O	1.305286	0.446816	0.886540
O37	O	0.723344	-0.284070	0.368860
O38	O	1.056678	0.049263	0.702194
O39	O	1.390011	0.382596	1.035527
O40	O	0.638577	-0.284065	0.284078
O41	O	0.971910	0.049268	0.617412
O42	O	1.305243	0.382601	0.950745
O43	O	0.787614	-0.219859	0.368893
O44	O	1.120948	0.113474	0.702227
O45	O	1.454281	0.446808	1.035560
O46	O	0.787490	-0.368858	0.219872
O47	O	1.120824	-0.035524	0.553205
O48	O	1.454157	0.297809	0.886539
O49	O	0.723274	-0.368840	0.284078
O50	O	1.056607	-0.035507	0.617411
O51	O	1.389940	0.297826	0.950744
C52	C	0.619627	-0.251955	0.251971
C53	C	0.952961	0.081378	0.585304
C54	C	1.286294	0.414711	0.918638
C55	C	0.561513	-0.251958	0.251969
C56	C	0.894847	0.081375	0.585302
C57	C	1.228180	0.414708	0.918636
C58	C	0.310333	-0.218485	0.218631
C59	C	0.643667	0.114849	0.551965
C60	C	0.977000	0.448182	0.885298
C61	C	0.364938	-0.218480	0.218625
C62	C	0.698271	0.114853	0.551958
C63	C	1.031604	0.448187	0.885291
O64	O	0.393186	-0.189989	0.190250
O65	O	0.726519	0.143345	0.523584
O66	O	1.059853	0.476678	0.856917
N67	N	0.392239	-0.251965	0.251995
N68	N	0.725573	0.081368	0.585329
N69	N	1.058906	0.414702	0.918662
C70	C	0.364934	-0.285453	0.285378
C71	C	0.698267	0.047880	0.618712
C72	C	1.031600	0.381214	0.952045
O73	O	0.393170	-0.313934	0.313762
O74	O	0.726503	0.019400	0.647096
O75	O	1.059837	0.352733	0.980429
C76	C	0.310330	-0.285455	0.285387
C77	C	0.643664	0.047879	0.618721
C78	C	0.976997	0.381212	0.952054
C79	C	0.283032	-0.251971	0.252011
C80	C	0.616365	0.081362	0.585344
C81	C	0.949698	0.414695	0.918678
C82	C	0.283035	-0.185004	0.185258
C83	C	0.616368	0.148330	0.518591
C84	C	0.949701	0.481663	0.851925
C85	C	0.228434	-0.185009	0.185264
C86	C	0.561767	0.148324	0.518597
C87	C	0.895101	0.481657	0.851931
C88	C	0.201132	-0.218496	0.218644
C89	C	0.534466	0.114837	0.551977
C90	C	0.867799	0.448171	0.885310
C91	C	0.228431	-0.251977	0.252017
C92	C	0.561764	0.081356	0.585350
C93	C	0.895098	0.414690	0.918684
C94	C	0.283026	-0.318940	0.318773
C95	C	0.616359	0.014393	0.652106
C96	C	0.949693	0.347727	0.985439
C97	C	0.228419	-0.318939	0.318779
C98	C	0.561752	0.014395	0.652112
C99	C	0.895086	0.347728	0.985446
C100	C	0.201120	-0.285455	0.285403
C101	C	0.534453	0.047878	0.618736
C102	C	0.867787	0.381211	0.952069
C103	C	0.146529	-0.285469	0.285402
C104	C	0.479862	0.047864	0.618736
C105	C	0.813196	0.381197	0.952069
N106	N	0.119227	-0.251985	0.252032
N107	N	0.452561	0.081349	0.585365
N108	N	0.785894	0.414682	0.918699
C109	C	0.146529	-0.218498	0.218652
C110	C	0.479862	0.114835	0.551986
C111	C	0.813196	0.448169	0.885319
C112	C	0.479604	-0.285446	0.285358
C113	C	0.812938	0.047887	0.618691
C114	C	1.146271	0.381221	0.952025
C115	C	0.534207	-0.285447	0.285347
C116	C	0.867540	0.047886	0.618680
C117	C	1.200873	0.381219	0.952013
C118	C	0.534207	-0.218473	0.218594
C119	C	0.867540	0.114860	0.551927
C120	C	1.200874	0.448193	0.885260
C121	C	0.479604	-0.218475	0.218602
C122	C	0.812937	0.114858	0.551936
C123	C	1.146270	0.448192	0.885269
C124	C	0.452303	-0.251961	0.251987
C125	C	0.785636	0.081372	0.585321
C126	C	1.118969	0.414706	0.918654
C127	C	0.031864	-0.218513	0.218667
C128	C	0.365197	0.114821	0.552001
C129	C	0.698531	0.448154	0.885334
C130	C	-0.022742	-0.218523	0.218675
C131	C	0.310592	0.114811	0.552008
C132	C	0.643925	0.448144	0.885342
C133	C	-0.022737	-0.285494	0.285430
C134	C	0.310596	0.047839	0.618763
C135	C	0.643930	0.381172	0.952096
C136	C	0.031864	-0.285487	0.285421
C137	C	0.365197	0.047847	0.618754
C138	C	0.698530	0.381180	0.952087
C139	C	0.059163	-0.251991	0.252038
C140	C	0.392496	0.081342	0.585371
C141	C	0.725829	0.414675	0.918704
O142	O	0.118246	-0.313945	0.313764
O143	O	0.451579	0.019389	0.647097
O144	O	0.784913	0.352722	0.980430
O145	O	0.118286	-0.190017	0.190278
O146	O	0.451620	0.143316	0.523611
O147	O	0.784953	0.476650	0.856945
C148	C	0.755382	-0.387820	0.251981
C149	C	1.088715	-0.054487	0.585315
C150	C	1.422049	0.278847	0.918648
C151	C	0.755392	-0.445934	0.251988
C152	C	1.088725	-0.112601	0.585322
C153	C	1.422059	0.220733	0.918655
C154	C	0.788995	-0.806294	0.218630
C155	C	1.122328	-0.472960	0.551964
C156	C	1.455661	-0.139627	0.885297
C157	C	0.789015	-0.860898	0.218637
C158	C	1.122348	-0.527564	0.551971
C159	C	1.455682	-0.194231	0.885304
O160	O	0.817494	-0.889132	0.190249
O161	O	1.150827	-0.555798	0.523582
O162	O	1.484160	-0.222465	0.856915
N163	N	0.755562	-0.888216	0.252040
N164	N	1.088895	-0.554883	0.585373
N165	N	1.422228	-0.221550	0.918707
C166	C	0.722090	-0.860928	0.285441
C167	C	1.055423	-0.527594	0.618775
C168	C	1.388756	-0.194261	0.952108
O169	O	0.693637	-0.889178	0.313854
O170	O	1.026971	-0.555845	0.647187
O171	O	1.360304	-0.222512	0.980520
C172	C	0.722073	-0.806324	0.285437
C173	C	1.055406	-0.472991	0.618770
C174	C	1.388739	-0.139658	0.952103
C175	C	0.755524	-0.779009	0.252028
C176	C	1.088858	-0.445675	0.585361
C177	C	1.422191	-0.112342	0.918695
C178	C	0.822444	-0.778978	0.185225
C179	C	1.155777	-0.445644	0.518558
C180	C	1.489111	-0.112311	0.851892
C181	C	0.822423	-0.724377	0.185217
C182	C	1.155756	-0.391044	0.518551
C183	C	1.489090	-0.057711	0.851884
C184	C	0.788952	-0.697092	0.218615
C185	C	1.122286	-0.363759	0.551949
C186	C	1.455619	-0.030426	0.885282
C187	C	0.755503	-0.724408	0.252021
C188	C	1.088836	-0.391075	0.585354
C189	C	1.422170	-0.057742	0.918687
C190	C	0.688604	-0.779037	0.318840
C191	C	1.021937	-0.445703	0.652174
C192	C	1.355270	-0.112370	0.985507
C193	C	0.688590	-0.724430	0.318833
C194	C	1.021923	-0.391096	0.652166
C195	C	1.355256	-0.057763	0.985500
C196	C	0.722041	-0.697114	0.285425
C197	C	1.055375	-0.363781	0.618758
C198	C	1.388708	-0.030447	0.952091
C199	C	0.722012	-0.642523	0.285411
C200	C	1.055345	-0.309190	0.618744
C201	C	1.388678	0.024144	0.952077
N202	N	0.755465	-0.615204	0.252008
N203	N	1.088798	-0.281871	0.585342
N204	N	1.422131	0.051462	0.918675
C205	C	0.788935	-0.642489	0.218610
C206	C	1.122269	-0.309156	0.551944
C207	C	1.455602	0.024178	0.885277
C208	C	0.722129	-0.975598	0.285449
C209	C	1.055463	-0.642265	0.618783
C210	C	1.388796	-0.308932	0.952116
C211	C	0.722143	-1.030201	0.285452
C212	C	1.055477	-0.696867	0.618785
C213	C	1.388810	-0.363534	0.952119
C214	C	0.789069	-1.030167	0.218648
C215	C	1.122403	-0.696834	0.551982
C216	C	1.455736	-0.363500	0.885315
C217	C	0.789052	-0.975564	0.218644
C218	C	1.122385	-0.642230	0.551977
C219	C	1.455719	-0.308897	0.885310
C220	C	0.755582	-0.948280	0.252047
C221	C	1.088916	-0.614946	0.585380
C222	C	1.422249	-0.281613	0.918714
C223	C	0.788888	-0.527824	0.218597
C224	C	1.122221	-0.194491	0.551930
C225	C	1.455555	0.138843	0.885263
C226	C	0.788862	-0.473219	0.218591
C227	C	1.122196	-0.139885	0.551924
C228	C	1.455529	0.193448	0.885257
C229	C	0.721939	-0.473257	0.285396
C230	C	1.055272	-0.139924	0.618729
C231	C	1.388605	0.193410	0.952063
C232	C	0.721962	-0.527858	0.285400
C233	C	1.055295	-0.194524	0.618734
C234	C	1.388629	0.138809	0.952067
C235	C	0.755441	-0.555140	0.251999
C236	C	1.088774	-0.221807	0.585332
C237	C	1.422108	0.111527	0.918666
O238	O	0.693549	-0.614254	0.313786
O239	O	1.026882	-0.280921	0.647120
O240	O	1.360215	0.052412	0.980453
O241	O	0.817388	-0.614232	0.190208
O242	O	1.150721	-0.280899	0.523541
O243	O	1.484054	0.052435	0.856874
C244	C	0.891843	-0.252000	0.252040
C245	C	1.225176	0.081333	0.585373
C246	C	1.558509	0.414667	0.918706
C247	C	0.949957	-0.252009	0.252054
C248	C	1.283290	0.081324	0.585388
C249	C	1.616623	0.414657	0.918721
C250	C	0.755481	-0.251963	0.388378
C251	C	1.088814	0.081371	0.721712
C252	C	1.422148	0.414704	1.055045
C253	C	0.755486	-0.251956	0.446492
C254	C	1.088819	0.081377	0.779826
C255	C	1.422152	0.414710	1.113159
C256	C	0.755572	-0.115604	0.252041
C257	C	1.088906	0.217729	0.585374
C258	C	1.422239	0.551062	0.918707
C259	C	0.755616	-0.057490	0.252056
C260	C	1.088949	0.275843	0.585389
C261	C	1.422283	0.609176	0.918722
C262	C	0.755489	-0.251954	0.116163
C263	C	1.088822	0.081379	0.449496
C264	C	1.422155	0.414712	0.782829
C265	C	0.755585	-0.251813	0.058049
C266	C	1.088919	0.081520	0.391382
C267	C	1.422252	0.414853	0.724716
C268	C	0.722055	-0.285325	0.697663
C269	C	1.055388	0.048008	1.030996
C270	C	1.388722	0.381341	1.364330
C271	C	0.722046	-0.285337	0.643059
C272	C	1.055379	0.047996	0.976392
C273	C	1.388713	0.381330	1.309725
O274	O	0.693572	-0.313761	0.614803
O275	O	1.026905	0.019573	0.948136
O276	O	1.360239	0.352906	1.281469
N277	N	0.755506	-0.251914	0.615766
N278	N	1.088839	0.081419	0.949100
N279	N	1.422172	0.414753	1.282433
C280	C	0.788973	-0.218473	0.643081
C281	C	1.122306	0.114860	0.976414
C282	C	1.455640	0.448193	1.309748
O283	O	0.817432	-0.190045	0.614853
O284	O	1.150765	0.143288	0.948186
O285	O	1.484098	0.476622	1.281519
C286	C	0.788979	-0.218459	0.697684
C287	C	1.122312	0.114874	1.031018
C288	C	1.455646	0.448207	1.364351
C289	C	0.755521	-0.251888	0.724974
C290	C	1.088854	0.081445	1.058307
C291	C	1.422188	0.414778	1.391641
C292	C	0.688599	-0.318751	0.724953
C293	C	1.021933	0.014582	1.058286
C294	C	1.355266	0.347916	1.391619
C295	C	0.688609	-0.318740	0.779553
C296	C	1.021943	0.014593	1.112886
C297	C	1.355276	0.347927	1.446220
C298	C	0.722075	-0.285303	0.806864
C299	C	1.055408	0.048030	1.140197
C300	C	1.388742	0.381364	1.473531
C301	C	0.755531	-0.251877	0.779575
C302	C	1.088864	0.081456	1.112908
C303	C	1.422198	0.414790	1.446241
C304	C	0.822443	-0.185016	0.724998
C305	C	1.155777	0.148317	1.058332
C306	C	1.489110	0.481650	1.391665
C307	C	0.822446	-0.185005	0.779605
C308	C	1.155780	0.148329	1.112939
C309	C	1.489113	0.481662	1.446272
C310	C	0.788988	-0.218434	0.806895
C311	C	1.122321	0.114900	1.140228
C312	C	1.455655	0.448233	1.473561
C313	C	0.789007	-0.218429	0.861486
C314	C	1.122340	0.114905	1.194819
C315	C	1.455673	0.448238	1.528153
N316	N	0.755547	-0.251852	0.888778
N317	N	1.088880	0.081482	1.222112
N318	N	1.422214	0.414815	1.555445
C319	C	0.722081	-0.285289	0.861467
C320	C	1.055415	0.048045	1.194801
C321	C	1.388748	0.381378	1.528134
C322	C	0.788957	-0.218505	0.528410
C323	C	1.122290	0.114829	0.861744
C324	C	1.455623	0.448162	1.195077
C325	C	0.788954	-0.218521	0.473808
C326	C	1.122287	0.114812	0.807141
C327	C	1.455620	0.448146	1.140475
C328	C	0.722026	-0.285384	0.473789
C329	C	1.055359	0.047949	0.807123
C330	C	1.388693	0.381283	1.140456
C331	C	0.722032	-0.285370	0.528393
C332	C	1.055365	0.047963	0.861726
C333	C	1.388699	0.381297	1.195059
C334	C	0.755497	-0.251928	0.555703
C335	C	1.088830	0.081406	0.889036
C336	C	1.422164	0.414739	1.222369
C337	C	0.722105	-0.285263	0.976133
C338	C	1.055438	0.048070	1.309466
C339	C	1.388772	0.381404	1.642799
C340	C	0.722120	-0.285250	1.030738
C341	C	1.055453	0.048083	1.364071
C342	C	1.388786	0.381416	1.697405
C343	C	0.789045	-0.218385	1.030752
C344	C	1.122378	0.114948	1.364085
C345	C	1.455712	0.448281	1.697419
C346	C	0.789033	-0.218400	0.976151
C347	C	1.122366	0.114934	1.309485
C348	C	1.455699	0.448267	1.642818
C349	C	0.755559	-0.251840	0.948843
C350	C	1.088892	0.081493	1.282176
C351	C	1.422225	0.414826	1.615510
O352	O	0.817465	-0.190018	0.889777
O353	O	1.150798	0.143315	1.223110
O354	O	1.484131	0.476649	1.556444
O355	O	0.693622	-0.313707	0.889702
O356	O	1.026956	0.019626	1.223036
O357	O	1.360289	0.352959	1.556369
H358	H	0.206194	-0.346206	0.345967
H359	H	0.539527	-0.012872	0.679301
H360	H	0.872860	0.320461	1.012634
C361	C	0.685309	-0.322024	1.060753
C362	C	1.018643	0.011309	1.394087
C363	C	1.351976	0.344642	1.727420
N364	N	0.657583	-0.349720	1.083359
N365	N	0.990917	-0.016387	1.416692
N366	N	1.324250	0.316946	1.750026
C367	C	0.651769	-0.694421	0.355580
C368	C	0.985103	-0.361088	0.688914
C369	C	1.318436	-0.027754	1.022247
N370	N	0.624036	-0.671819	0.383258
N371	N	0.957369	-0.338486	0.716591
N372	N	1.290702	-0.005153	1.049924
H373	H	0.305243	-0.346206	0.345951
H374	H	0.638577	-0.012873	0.679285
H375	H	0.971910	0.320461	1.012618
C376	C	0.825661	-0.443175	0.181835
C377	C	1.158994	-0.109841	0.515168
C378	C	1.492328	0.223492	0.848501
N379	N	0.853376	-0.420547	0.154150
N380	N	1.186710	-0.087214	0.487484
N381	N	1.520043	0.246119	0.820817
H382	H	0.694775	-0.312610	0.451543
H383	H	1.028109	0.020724	0.784876
H384	H	1.361442	0.354057	1.118210
C385	C	0.198412	-0.148167	0.148555
C386	C	0.531746	0.185166	0.481888
C387	C	0.865079	0.518500	0.815221
N388	N	0.175804	-0.120413	0.120906
N389	N	0.509137	0.212921	0.454239
N390	N	0.842470	0.546254	0.787572
H391	H	0.816204	-0.191305	0.451593
H392	H	1.149538	0.142028	0.784927
H393	H	1.482871	0.475362	1.118260
C394	C	0.685284	-0.322052	0.946101
C395	C	1.018617	0.011282	1.279435
C396	C	1.351951	0.344615	1.612768
N397	N	0.657553	-0.349764	0.923482
N398	N	0.990887	-0.016431	1.256816
N399	N	1.324220	0.316903	1.590149
H400	H	0.054092	-0.312755	0.312594
H401	H	0.387425	0.020578	0.645928
H402	H	0.720758	0.353911	0.979261
H403	H	0.661363	-0.345960	0.801767
H404	H	0.994696	-0.012627	1.135101
H405	H	1.328030	0.320707	1.468434
H406	H	0.305258	-0.157732	0.158076
H407	H	0.638591	0.175601	0.491410
H408	H	0.971924	0.508935	0.824743
H409	H	0.816212	-0.191272	0.550643
H410	H	1.149546	0.142061	0.883976
H411	H	1.482879	0.475394	1.217310
H412	H	0.661361	-0.801268	0.346043
H413	H	0.994695	-0.467935	0.679376
H414	H	1.328028	-0.134601	1.012709
C415	C	0.825853	-0.945522	0.181894
C416	C	1.159186	-0.612188	0.515227
C417	C	1.492519	-0.278855	0.848560
N418	N	0.853573	-0.922896	0.154213
N419	N	1.186907	-0.589563	0.487546
N420	N	1.520240	-0.256230	0.820879
H421	H	0.849702	-0.801187	0.158028
H422	H	1.183036	-0.467854	0.491362
H423	H	1.516369	-0.134521	0.824695
C424	C	0.859245	-0.148235	0.694992
C425	C	1.192578	0.185098	1.028325
C426	C	1.525912	0.518431	1.361659
N427	N	0.886964	-0.120527	0.672392
N428	N	1.220297	0.212806	1.005725
N429	N	1.553631	0.546139	1.339059
H430	H	0.816325	-1.052392	0.191456
H431	H	1.149658	-0.719059	0.524789
H432	H	1.482991	-0.385726	0.858123
H433	H	0.457380	-0.191208	0.191426
H434	H	0.790714	0.142125	0.524760
H435	H	1.124047	0.475458	0.858093
H436	H	0.694899	-1.052436	0.312652
H437	H	1.028232	-0.719103	0.645985
H438	H	1.361565	-0.385770	0.979318
C439	C	-0.052767	-0.181684	0.181959
C440	C	0.280566	0.151649	0.515293
C441	C	0.613900	0.484982	0.848626
N442	N	-0.075380	-0.153937	0.154307
N443	N	0.257953	0.179397	0.487641
N444	N	0.591286	0.512730	0.820974
C445	C	0.449578	-0.322295	0.322077
C446	C	0.782912	0.011039	0.655411
C447	C	1.116245	0.344372	0.988744
N448	N	0.426966	-0.350050	0.349733
N449	N	0.760299	-0.016717	0.683066
N450	N	1.093632	0.316616	1.016400
C451	C	0.651781	-0.355538	0.694919
C452	C	0.985114	-0.022205	1.028252
C453	C	1.318448	0.311129	1.361586
N454	N	0.624049	-0.383251	0.672302
N455	N	0.957383	-0.049917	1.005635
N456	N	1.290716	0.283416	1.338968
C457	C	0.685310	-0.945591	0.322200
C458	C	1.018643	-0.612258	0.655534
C459	C	1.351976	-0.278924	0.988867
N460	N	0.657580	-0.922992	0.349884
N461	N	0.990913	-0.589659	0.683217
N462	N	1.324247	-0.256325	1.016550
H463	H	0.694725	-0.550099	0.312606
H464	H	1.028058	-0.216766	0.645939
H465	H	1.361391	0.116567	0.979272
C466	C	0.564249	-0.181634	0.181879
C467	C	0.897583	0.151700	0.515212
C468	C	1.230916	0.485033	0.848545
N469	N	0.586879	-0.153887	0.154227
N470	N	0.920212	0.179446	0.487560
N471	N	1.253545	0.512779	0.820894
C472	C	0.685125	-0.443233	0.322134
C473	C	1.018458	-0.109900	0.655467
C474	C	1.351792	0.223433	0.988800
N475	N	0.657400	-0.420618	0.349808
N476	N	0.990733	-0.087285	0.683142
N477	N	1.324067	0.246049	1.016475
H478	H	0.816281	-0.191183	0.953931
H479	H	1.149614	0.142150	1.287264
H480	H	1.482948	0.475484	1.620598
C481	C	0.685222	-0.322141	0.558406
C482	C	1.018556	0.011193	0.891739
C483	C	1.351889	0.344526	1.225073
N484	N	0.657494	-0.349836	0.581010
N485	N	0.990827	-0.016503	0.914343
N486	N	1.324161	0.316831	1.247676
H487	H	-0.044976	-0.312760	0.312605
H488	H	0.288358	0.020573	0.645938
H489	H	0.621691	0.353906	0.979271
C490	C	0.825713	-0.557827	0.181851
C491	C	1.159047	-0.224493	0.515184
C492	C	1.492380	0.108840	0.848517
N493	N	0.853447	-0.580424	0.154170
N494	N	1.186781	-0.247091	0.487504
N495	N	1.520114	0.086243	0.820837
H496	H	0.849696	-0.157769	0.801838
H497	H	1.183029	0.175564	1.135172
H498	H	1.516363	0.508898	1.468505
C499	C	0.859218	-0.694337	0.148461
C500	C	1.192552	-0.361004	0.481794
C501	C	1.525885	-0.027671	0.815128
N502	N	0.886934	-0.671714	0.120772
N503	N	1.220267	-0.338381	0.454106
N504	N	1.553600	-0.005048	0.787439
H505	H	0.816294	-0.191164	1.052998
H506	H	1.149627	0.142170	1.386332
H507	H	1.482961	0.475503	1.719665
H508	H	0.556429	-0.312718	0.312520
H509	H	0.889762	0.020615	0.645853
H510	H	1.223095	0.353948	0.979186
C511	C	0.061885	-0.181669	0.181942
C512	C	0.395218	0.151664	0.515275
C513	C	0.728552	0.484998	0.848608
N514	N	0.084496	-0.153921	0.154277
N515	N	0.417830	0.179412	0.487610
N516	N	0.751163	0.512745	0.820943
