data_functionalizedCrystal
_audit_creation_method	'MofGen! by Chris Wilmer'
_symmetry_space_group_name_H-M	'P1'
_symmetry_Int_Tables_number	1
_symmetry_cell_setting	triclinic
loop_
_symmetry_equiv_pos_as_xyz
  x,y,z
_cell_length_a	10.654550
_cell_length_b	11.026607
_cell_length_c	9.730223
_cell_angle_alpha	89.999947
_cell_angle_beta	89.996251
_cell_angle_gamma	96.535460
loop_
_atom_site_label
_atom_site_type_symbol
_atom_site_fract_x
_atom_site_fract_y
_atom_site_fract_z
O1	O	1.704901	0.170762	-0.114401
O2	O	1.342954	0.187032	-0.114379
O3	O	1.493930	0.001991	-0.114383
O4	O	1.553926	0.355802	-0.114397
O5	O	1.493929	0.001996	0.114196
O6	O	1.342953	0.187036	0.114201
O7	O	1.704900	0.170767	0.114179
Zn8	Zn	1.523926	0.178902	0.150482
Zn9	Zn	1.523928	0.178896	-0.150682
O10	O	1.553924	0.355807	0.114183
C11	C	1.295897	0.185839	-0.000086
C12	C	1.155677	0.182265	-0.000078
C13	C	1.099841	0.291214	-0.000102
C14	C	0.968090	0.287849	-0.000126
C15	C	0.948022	0.066576	-0.000107
C16	C	1.079771	0.069943	-0.000073
C17	C	1.111426	0.418964	-0.000119
C18	C	0.979675	0.415599	-0.000143
C19	C	1.482861	-0.043310	-0.000094
C20	C	1.449867	-0.178302	-0.000097
C21	C	1.540970	-0.251341	-0.000105
C22	C	1.506871	-0.390862	-0.000108
C23	C	1.751958	0.171959	-0.000117
C24	C	1.892177	0.175533	-0.000135
C25	C	1.564993	0.401109	-0.000109
C26	C	1.597988	0.536100	-0.000115
N27	N	1.523934	0.178906	0.356018
N28	N	1.523928	0.178883	-0.356219
C29	C	1.590814	0.096998	0.427942
C30	C	1.590808	0.096983	0.571825
C31	C	1.457040	0.260795	0.571847
C32	C	1.457040	0.260803	0.427967
C33	C	1.668049	0.002426	0.427931
C34	C	1.668043	0.002411	0.571814
H35	H	1.155912	0.459640	-0.098808
H36	H	0.948391	0.463731	-0.095812
H37	H	1.644212	-0.210581	-0.000103
C38	C	1.165708	0.486461	0.129118
N39	N	1.206593	0.537294	0.226459
H40	H	1.402575	0.327472	0.630443
H41	H	0.942384	0.454208	0.098540
C42	C	1.367386	-0.445916	-0.000097
N43	N	1.262328	-0.487384	-0.000085
C44	C	1.611669	-0.123817	0.375171
N45	N	1.569200	-0.218899	0.335432
C46	C	1.737473	-0.408849	-0.000122
N47	N	1.842533	-0.367384	-0.000125
H48	H	1.125227	-0.018774	-0.000034
C49	C	1.310389	-0.233361	-0.000087
N50	N	1.205331	-0.274829	-0.000075
H51	H	1.402568	0.327488	0.369407
H52	H	1.618360	-0.085899	0.616435
H53	H	1.769076	0.023243	0.610858
C54	C	0.864513	-0.056973	-0.000109
N55	N	0.801615	-0.150032	-0.000114
C56	C	1.799918	0.042422	0.367626
N57	N	1.899243	0.072547	0.322205
