data_functionalizedCrystal
_audit_creation_method	'MofGen! by Chris Wilmer'
_symmetry_space_group_name_H-M	'P1'
_symmetry_Int_Tables_number	1
_symmetry_cell_setting	triclinic
loop_
_symmetry_equiv_pos_as_xyz
  x,y,z
_cell_length_a	16.109301
_cell_length_b	17.019294
_cell_length_c	15.186229
_cell_angle_alpha	86.117288
_cell_angle_beta	89.999362
_cell_angle_gamma	83.427968
loop_
_atom_site_label
_atom_site_type_symbol
_atom_site_fract_x
_atom_site_fract_y
_atom_site_fract_z
O1	O	1.103039	0.101395	-0.080860
O2	O	0.860966	0.114013	-0.081831
O3	O	0.988756	-0.007131	-0.072633
O4	O	0.975249	0.222538	-0.090058
O5	O	0.988747	-0.007132	0.073824
O6	O	0.860957	0.114011	0.064627
O7	O	1.103031	0.101393	0.065597
Zn8	Zn	0.981993	0.107702	0.088365
Zn9	Zn	0.982004	0.107704	-0.104599
O10	O	0.975241	0.222537	0.056400
C11	C	0.829987	0.113501	-0.008565
C12	C	0.737693	0.111969	-0.008454
C13	C	0.988239	-0.036520	0.002823
C14	C	0.986703	-0.124090	0.009461
C15	C	0.515359	0.180290	-0.013627
C16	C	0.428640	0.178844	-0.013512
C17	C	0.448644	0.035111	-0.002611
C18	C	0.535362	0.036558	-0.002720
C19	C	0.568717	0.109150	-0.008233
C20	C	0.395280	0.106257	-0.008008
C21	C	0.301255	0.104688	-0.007883
C22	C	0.662747	0.110718	-0.008356
C23	C	0.985988	-0.165225	-0.067254
C24	C	0.984539	-0.247506	-0.061014
C25	C	0.983811	-0.288651	0.021941
C26	C	0.984524	-0.247510	0.098662
C27	C	0.985967	-0.165230	0.092421
C28	C	0.979449	-0.537082	0.044778
C29	C	0.978009	-0.619368	0.051013
C30	C	0.978022	-0.619359	-0.108664
C31	C	0.979470	-0.537078	-0.114897
C32	C	0.980178	-0.495944	-0.038177
C33	C	0.982333	-0.372755	0.028321
C34	C	0.981651	-0.411840	-0.044558
C35	C	1.134009	0.101905	-0.007670
C36	C	1.226303	0.103437	-0.007787
C37	C	0.975757	0.251927	-0.019059
C38	C	0.977294	0.339496	-0.025702
N39	N	0.981991	0.107700	0.220058
N40	N	0.982012	0.107700	-0.236291
C41	C	1.038596	0.054076	0.449852
C42	C	1.038598	0.054074	0.542042
C43	C	0.925402	0.161327	0.533908
C44	C	0.925396	0.161324	0.441720
C45	C	0.981997	0.107700	0.399695
C46	C	0.982006	0.107700	0.584072
C47	C	0.982008	0.107699	0.684029
C48	C	0.981994	0.107700	0.299732
H49	H	0.542514	0.239399	-0.018110
H50	H	0.879319	0.204988	0.568135
O51	O	0.870382	0.213495	0.393122
C52	C	0.758072	0.319843	0.394777
C53	C	0.820341	0.260822	0.449920
H54	H	0.717586	0.358112	0.440676
H55	H	0.793872	0.359313	0.348639
H56	H	0.716618	0.285754	0.354186
H57	H	0.861811	0.294847	0.490563
H58	H	0.784489	0.221353	0.496002
H59	H	0.385200	0.236773	-0.017903
H60	H	0.986538	-0.131737	0.154891
O61	O	0.416103	-0.035332	0.002693
C62	C	0.291376	-0.101263	0.007740
C63	C	0.328115	-0.021430	0.001712
H64	H	0.220233	-0.090051	0.006969
H65	H	0.313300	-0.136426	-0.050899
H66	H	0.313406	-0.136420	0.071684
H67	H	0.306101	0.013791	-0.062195
H68	H	0.306195	0.013673	0.060397
H69	H	0.578808	-0.021377	0.001676
O70	O	0.983707	-0.287550	0.179194
C71	C	0.910065	-0.371463	0.278248
C72	C	0.910890	-0.326170	0.187008
H73	H	0.851190	-0.402685	0.284602
H74	H	0.967508	-0.417263	0.285726
H75	H	0.910865	-0.327918	0.331992
H76	H	0.910061	-0.369654	0.133208
H77	H	0.853452	-0.280359	0.179606
H78	H	0.981743	-0.406265	0.095864
O79	O	0.986542	-0.125283	-0.147863
C80	C	0.915011	-0.091211	-0.286947
C81	C	0.914275	-0.136459	-0.195674
H82	H	0.856598	-0.100245	-0.325635
H83	H	0.916111	-0.025319	-0.278297
H84	H	0.972909	-0.114619	-0.324503
H85	H	0.856385	-0.113119	-0.158068
H86	H	0.913219	-0.202346	-0.204386
O87	O	0.983708	-0.287471	-0.135519
C88	C	0.910140	-0.371431	-0.221848
C89	C	0.910962	-0.326200	-0.137438
H90	H	0.851340	-0.402768	-0.223418
H91	H	0.910864	-0.327907	-0.282231
H92	H	0.967651	-0.417151	-0.222356
H93	H	0.853461	-0.280480	-0.136844
H94	H	0.910282	-0.369772	-0.077094
O95	O	0.982464	-0.371971	-0.125184
C96	C	1.054936	-0.355680	-0.262856
C97	C	1.054105	-0.400919	-0.171586
H98	H	1.112861	-0.379055	-0.300391
H99	H	0.996539	-0.364638	-0.301618
H100	H	1.056046	-0.289808	-0.254101
H101	H	1.053024	-0.466805	-0.180261
H102	H	1.112498	-0.391895	-0.132857
O103	O	0.980134	-0.497229	-0.195551
C104	C	0.980043	-0.505912	-0.353269
C105	C	0.979266	-0.551135	-0.261986
H106	H	0.979359	-0.549478	-0.407006
H107	H	0.922549	-0.460177	-0.360793
H108	H	1.038862	-0.474601	-0.359582
H109	H	0.920485	-0.582494	-0.255610
H110	H	1.036799	-0.596826	-0.254502
O111	O	0.977172	-0.659341	-0.183156
C112	C	0.903564	-0.743325	-0.269412
C113	C	0.904420	-0.698063	-0.185026
H114	H	0.844758	-0.774657	-0.270942
H115	H	0.904273	-0.699821	-0.329814
H116	H	0.961069	-0.789051	-0.269922
H117	H	0.846925	-0.652337	-0.184430
H118	H	0.903753	-0.741615	-0.124662
O119	O	0.977263	-0.659211	0.131670
C120	C	0.977444	-0.650548	0.289390
C121	C	0.978268	-0.605325	0.198109
H122	H	0.978274	-0.607003	0.343131
H123	H	0.918601	-0.681816	0.295802
H124	H	1.034912	-0.696320	0.296809
H125	H	0.920840	-0.559516	0.190628
H126	H	1.037149	-0.574111	0.191738
H127	H	1.084683	0.010410	0.415637
O128	O	0.980002	-0.497086	0.119279
C129	C	0.909670	-0.395225	0.204228
C130	C	0.908926	-0.440470	0.119822
H131	H	0.852221	-0.349430	0.204686
H132	H	0.908856	-0.438735	0.264612
H133	H	0.968529	-0.363978	0.205845
H134	H	0.850077	-0.471720	0.118119
H135	H	0.909785	-0.396923	0.059477
O136	O	1.093660	0.001955	0.590630
C137	C	1.205903	-0.104455	0.588965
C138	C	1.143603	-0.045457	0.533833
H139	H	1.246287	-0.142815	0.543069
H140	H	1.247453	-0.070426	0.629517
H141	H	1.170045	-0.143839	0.635140
H142	H	1.179394	-0.006059	0.487609
H143	H	1.102054	-0.079535	0.493341
