data_functionalizedCrystal
_audit_creation_method	'MofGen! by Chris Wilmer'
_symmetry_space_group_name_H-M	'P1'
_symmetry_Int_Tables_number	1
_symmetry_cell_setting	triclinic
loop_
_symmetry_equiv_pos_as_xyz
  x,y,z
_cell_length_a	19.288864
_cell_length_b	17.038272
_cell_length_c	18.366186
_cell_angle_alpha	89.993834
_cell_angle_beta	89.977106
_cell_angle_gamma	87.123901
loop_
_atom_site_label
_atom_site_type_symbol
_atom_site_fract_x
_atom_site_fract_y
_atom_site_fract_z
O1	O	0.927386	0.097514	-0.060785
O2	O	1.260719	0.430847	0.272548
O3	O	1.594053	0.764181	0.605881
O4	O	0.725939	0.110668	-0.060736
O5	O	1.059273	0.444002	0.272597
O6	O	1.392606	0.777335	0.605931
O7	O	0.825465	-0.009720	-0.060755
O8	O	1.158799	0.323613	0.272579
O9	O	1.492132	0.656946	0.605912
O10	O	0.827860	0.217903	-0.060767
O11	O	1.161193	0.551236	0.272567
O12	O	1.494527	0.884569	0.605900
O13	O	0.825447	-0.009726	0.060345
O14	O	1.158780	0.323607	0.393678
O15	O	1.492114	0.656940	0.727011
O16	O	0.725921	0.110662	0.060363
O17	O	1.059254	0.443996	0.393697
O18	O	1.392587	0.777329	0.727030
O19	O	0.927368	0.097508	0.060314
O20	O	1.260701	0.430841	0.393647
O21	O	1.594034	0.764175	0.726981
Zn22	Zn	0.826641	0.104084	0.079566
Zn23	Zn	1.159975	0.437418	0.412899
Zn24	Zn	1.493308	0.770751	0.746232
Zn25	Zn	0.826666	0.104092	-0.079988
Zn26	Zn	1.159999	0.437425	0.253345
Zn27	Zn	1.493332	0.770759	0.586679
O28	O	0.827841	0.217897	0.060333
O29	O	1.161175	0.551230	0.393666
O30	O	1.494508	0.884563	0.726999
C31	C	0.700027	0.110242	-0.000180
C32	C	1.033361	0.443575	0.333153
C33	C	1.366694	0.776909	0.666487
C34	C	0.622845	0.108972	-0.000161
C35	C	0.956179	0.442305	0.333173
C36	C	1.289512	0.775638	0.666506
C37	C	0.582519	0.179610	-0.000176
C38	C	0.915853	0.512944	0.333157
C39	C	1.249186	0.846277	0.666491
C40	C	0.509998	0.178417	-0.000184
C41	C	0.843332	0.511750	0.333149
C42	C	1.176665	0.845083	0.666483
C43	C	0.477806	0.106580	-0.000191
C44	C	0.811140	0.439913	0.333142
C45	C	1.144473	0.773247	0.666475
C46	C	0.518141	0.035932	-0.000172
C47	C	0.851475	0.369266	0.333161
C48	C	1.184808	0.702599	0.666495
C49	C	0.590661	0.037128	-0.000157
C50	C	0.923994	0.370461	0.333177
C51	C	1.257328	0.703795	0.666510
C52	C	0.366057	0.050111	-0.042639
C53	C	0.699390	0.383444	0.290694
C54	C	1.032724	0.716778	0.624027
C55	C	0.293539	0.048918	-0.042659
C56	C	0.626872	0.382251	0.290674
C57	C	0.960205	0.715585	0.624008
C58	C	0.254132	0.102889	-0.000235
C59	C	0.587466	0.436223	0.333098
C60	C	0.920799	0.769556	0.666431
C61	C	0.287253	0.158066	0.042199
C62	C	0.620586	0.491400	0.375532
C63	C	0.953919	0.824733	0.708866
C64	C	0.359772	0.159262	0.042214
C65	C	0.693105	0.492596	0.375548
C66	C	1.026439	0.825929	0.708881
C67	C	0.399172	0.105276	-0.000207
C68	C	0.732505	0.438609	0.333126
C69	C	1.065838	0.771942	0.666459
C70	C	0.135171	0.172238	-0.000258
C71	C	0.468504	0.505572	0.333075
C72	C	0.801838	0.838905	0.666409
C73	C	0.062649	0.171042	-0.000262
C74	C	0.395982	0.504375	0.333072
C75	C	0.729315	0.837708	0.666405
C76	C	0.070793	0.028556	-0.000257
C77	C	0.404127	0.361889	0.333076
C78	C	0.737460	0.695222	0.666410
C79	C	0.143314	0.029754	-0.000246
C80	C	0.476647	0.363088	0.333087
C81	C	0.809980	0.696421	0.666421
C82	C	0.175498	0.101598	-0.000250
C83	C	0.508831	0.434931	0.333083
C84	C	0.842165	0.768265	0.666417
C85	C	0.823278	-0.038845	-0.000205
C86	C	1.156612	0.294489	0.333129
C87	C	1.489945	0.627822	0.666462
C88	C	0.816781	-0.125616	-0.000203
C89	C	1.150114	0.207717	0.333130
C90	C	1.483447	0.541050	0.666464
C91	C	0.876437	-0.175923	-0.000217
C92	C	1.209770	0.157410	0.333116
C93	C	1.543103	0.490744	0.666450
C94	C	0.870327	-0.257454	-0.000222
C95	C	1.203661	0.075879	0.333111
C96	C	1.536994	0.409213	0.666444
C97	C	0.804561	-0.288677	-0.000209
C98	C	1.137895	0.044657	0.333125
C99	C	1.471228	0.377990	0.666458
C100	C	0.744901	-0.238363	-0.000197
C101	C	1.078234	0.094970	0.333136
C102	C	1.411567	0.428303	0.666470
C103	C	0.751011	-0.156834	-0.000197
C104	C	1.084344	0.176499	0.333137
C105	C	1.417677	0.509832	0.666470
C106	C	0.782976	-0.534365	-0.000213
C107	C	1.116309	-0.201031	0.333120
C108	C	1.449642	0.132302	0.666453
C109	C	0.776870	-0.615900	-0.000211
C110	C	1.110204	-0.282567	0.333122
C111	C	1.443537	0.050766	0.666455
C112	C	0.902297	-0.634985	-0.000238
C113	C	1.235631	-0.301652	0.333095
C114	C	1.568964	0.031681	0.666428
C115	C	0.908402	-0.553454	-0.000234
C116	C	1.241735	-0.220120	0.333100
C117	C	1.575068	0.113213	0.666433
C118	C	0.848741	-0.503148	-0.000226
C119	C	1.182074	-0.169814	0.333108
C120	C	1.515408	0.163519	0.666441
C121	C	0.798315	-0.372014	-0.000212
C122	C	1.131648	-0.038681	0.333121
C123	C	1.464982	0.294653	0.666455
C124	C	0.854988	-0.419812	-0.000228
C125	C	1.188321	-0.086479	0.333106
C126	C	1.521655	0.246855	0.666439
C127	C	0.953279	0.097934	-0.000244
C128	C	1.286613	0.431268	0.333090
C129	C	1.619946	0.764601	0.666423
C130	C	1.030462	0.099205	-0.000268
C131	C	1.363795	0.432538	0.333066
C132	C	1.697128	0.765871	0.666399
C133	C	0.830029	0.247021	-0.000219
C134	C	1.163362	0.580354	0.333114
C135	C	1.496695	0.913688	0.666448
C136	C	0.836526	0.333793	-0.000225
C137	C	1.169860	0.667126	0.333108
C138	C	1.503193	1.000460	0.666441
N139	N	0.826630	0.104079	0.188457
N140	N	1.159963	0.437412	0.521790
N141	N	1.493296	0.770745	0.855124
N142	N	0.826682	0.104092	-0.188879
N143	N	1.160016	0.437425	0.144454
N144	N	1.493349	0.770758	0.477788
C145	C	0.870717	0.050797	0.226549
C146	C	1.204050	0.384130	0.559882
C147	C	1.537384	0.717463	0.893216
C148	C	0.870721	0.050793	0.302777
C149	C	1.204054	0.384126	0.636110
C150	C	1.537388	0.717460	0.969444
C151	C	0.826645	0.104085	0.340910
C152	C	1.159979	0.437418	0.674243
C153	C	1.493312	0.770752	1.007576
C154	C	0.782550	0.157371	0.302808
C155	C	1.115883	0.490704	0.636142
C156	C	1.449216	0.824038	0.969475
C157	C	0.782542	0.157368	0.226582
C158	C	1.115875	0.490701	0.559915
C159	C	1.449208	0.824035	0.893249
C160	C	0.821754	0.175309	0.461668
C161	C	1.155087	0.508642	0.795001
C162	C	1.488421	0.841975	1.128334
C163	C	0.821767	0.175313	0.537893
C164	C	1.155100	0.508646	0.871226
C165	C	1.488433	0.841980	1.204559
C166	C	0.826666	0.104095	0.576017
C167	C	1.159999	0.437428	0.909351
C168	C	1.493332	0.770761	1.242684
C169	C	0.831567	0.032869	0.537908
C170	C	1.164900	0.366202	0.871241
C171	C	1.498233	0.699536	1.204574
C172	C	0.831559	0.032866	0.461681
C173	C	1.164892	0.366199	0.795014
C174	C	1.498225	0.699533	1.128348
C175	C	0.826649	0.104094	0.423564
C176	C	1.159982	0.437427	0.756898
C177	C	1.493315	0.770761	1.090231
C178	C	0.870760	0.050805	0.696764
C179	C	1.204093	0.384138	1.030098
C180	C	1.537427	0.717471	1.363431
C181	C	0.870759	0.050800	0.772993
C182	C	1.204093	0.384133	1.106327
C183	C	1.537426	0.717467	1.439660
C184	C	0.782591	0.157385	0.773023
C185	C	1.115925	0.490718	1.106357
C186	C	1.449258	0.824052	1.439690
C187	C	0.782588	0.157383	0.696796
C188	C	1.115922	0.490716	1.030129
C189	C	1.449255	0.824049	1.363462
C190	C	0.826676	0.104093	0.658671
C191	C	1.160010	0.437427	0.992004
C192	C	1.493343	0.770760	1.325337
H193	H	0.491926	-0.022557	-0.000188
H194	H	0.825259	0.310776	0.333145
H195	H	1.158593	0.644109	0.666479
H196	H	0.906623	0.007403	0.333797
H197	H	1.239957	0.340736	0.667131
H198	H	1.573290	0.674069	1.000464
H199	H	0.029816	0.228567	-0.000270
H200	H	0.363149	0.561900	0.333064
H201	H	0.696483	0.895233	0.666397
H202	H	0.746701	0.200773	0.804071
H203	H	1.080035	0.534107	1.137404
H204	H	1.413368	0.867440	1.470737
Br205	Br	0.930590	-0.021524	0.824694
Br206	Br	1.263923	0.311810	1.158028
Br207	Br	1.597257	0.645143	1.491361
Br208	Br	0.722755	0.229700	0.645093
Br209	Br	1.056089	0.563033	0.978427
Br210	Br	1.389422	0.896366	1.311760
H211	H	0.398136	0.006159	-0.077190
H212	H	0.731469	0.339493	0.256143
H213	H	1.064803	0.672826	0.589476
Br214	Br	0.930590	-0.021518	0.645021
Br215	Br	1.263924	0.311815	0.978354
Br216	Br	1.597257	0.645148	1.311688
H217	H	0.255169	0.202015	0.076745
H218	H	0.588503	0.535348	0.410079
H219	H	0.921836	0.868681	0.743412
H220	H	0.744768	-0.397444	-0.000199
H221	H	1.078101	-0.064111	0.333134
H222	H	1.411435	0.269222	0.666467
H223	H	0.723313	-0.641318	-0.000188
H224	H	1.056646	-0.307985	0.333145
H225	H	1.389980	0.025349	0.666478
Br226	Br	0.983261	-0.703261	-0.000249
Br227	Br	1.316594	-0.369928	0.333084
Br228	Br	1.649927	-0.036594	0.666418
H229	H	0.817781	0.233309	0.568916
H230	H	1.151114	0.566642	0.902249
H231	H	1.484447	0.899976	1.235582
H232	H	0.929990	-0.150509	-0.000224
H233	H	1.263324	0.182825	0.333110
H234	H	1.596657	0.516158	0.666443
Br235	Br	0.178854	0.269738	-0.000258
Br236	Br	0.512187	0.603071	0.333075
Br237	Br	0.845521	0.936404	0.666408
H238	H	0.835556	-0.025124	0.568947
H239	H	1.168889	0.308210	0.902280
H240	H	1.502222	0.641543	1.235614
Br241	Br	0.930546	-0.021525	0.174807
Br242	Br	1.263879	0.311808	0.508141
Br243	Br	1.597213	0.645142	0.841474
Br244	Br	0.815175	0.271973	0.409935
Br245	Br	1.148508	0.605307	0.743268
Br246	Br	1.481841	0.938640	1.076601
Br247	Br	0.645393	-0.058746	-0.000134
Br248	Br	0.978726	0.274587	0.333199
Br249	Br	1.312059	0.607920	0.666532
H250	H	0.691353	-0.263791	-0.000190
H251	H	1.024686	0.069542	0.333143
H252	H	1.358019	0.402876	0.666476
Br253	Br	0.702007	-0.466103	-0.000207
Br254	Br	1.035340	-0.132769	0.333126
Br255	Br	1.368674	0.200564	0.666459
Br256	Br	0.944239	-0.377437	-0.000253
Br257	Br	1.277573	-0.044104	0.333081
Br258	Br	1.610906	0.289229	0.666414
H259	H	0.918906	-0.298411	-0.000232
H260	H	1.252239	0.034922	0.333101
H261	H	1.585573	0.368256	0.666435
H262	H	0.835547	-0.025128	0.430655
H263	H	1.168881	0.308205	0.763989
H264	H	1.502214	0.641538	1.097322
H265	H	0.044583	-0.029935	-0.000308
H266	H	0.377917	0.303398	0.333025
H267	H	0.711250	0.636732	0.666359
H268	H	0.961955	-0.528039	-0.000245
H269	H	1.295288	-0.194706	0.333089
H270	H	1.628622	0.138628	0.666422
H271	H	0.702432	-0.115875	-0.000186
H272	H	1.035766	0.217459	0.333148
H273	H	1.369099	0.550792	0.666481
H274	H	0.746661	0.200761	0.333860
H275	H	1.079995	0.534094	0.667193
H276	H	1.413328	0.867428	1.000527
Br277	Br	0.722704	0.229684	0.174881
Br278	Br	1.056037	0.563017	0.508214
Br279	Br	1.389371	0.896350	0.841548
H280	H	0.608719	0.238111	-0.000181
H281	H	0.942052	0.571444	0.333153
H282	H	1.275386	0.904778	0.666486
H283	H	0.477159	0.235941	-0.000194
H284	H	0.810492	0.569274	0.333139
H285	H	1.143826	0.902607	0.666472
Br286	Br	0.198046	-0.066118	-0.000227
Br287	Br	0.531379	0.267215	0.333106
Br288	Br	0.864712	0.600549	0.666439
H289	H	0.386736	0.204187	0.076768
H290	H	0.720069	0.537520	0.410101
H291	H	1.053402	0.870854	0.743435
H292	H	0.266578	0.003993	-0.077214
H293	H	0.599911	0.337326	0.256119
H294	H	0.933244	0.670659	0.589452
