data_functionalizedCrystal
_audit_creation_method	'MofGen! by Chris Wilmer'
_symmetry_space_group_name_H-M	'P1'
_symmetry_Int_Tables_number	1
_symmetry_cell_setting	triclinic
loop_
_symmetry_equiv_pos_as_xyz
  x,y,z
_cell_length_a	10.489711
_cell_length_b	27.731996
_cell_length_c	8.965430
_cell_angle_alpha	89.994463
_cell_angle_beta	89.994616
_cell_angle_gamma	83.574198
loop_
_atom_site_label
_atom_site_type_symbol
_atom_site_fract_x
_atom_site_fract_y
_atom_site_fract_z
O1	O	1.691048	0.068120	-0.124115
O2	O	1.319562	0.074536	-0.124108
O3	O	1.516877	0.001002	-0.124080
O4	O	1.493733	0.141654	-0.124144
O5	O	1.516861	0.001007	0.123999
O6	O	1.319546	0.074541	0.123971
O7	O	1.691031	0.068125	0.123964
Cu8	Cu	1.505287	0.071334	0.146619
Cu9	Cu	1.505307	0.071328	-0.146763
O10	O	1.493716	0.141659	0.123935
C11	C	1.272043	0.074057	-0.000068
C12	C	1.130476	0.072616	-0.000063
C13	C	0.946124	0.116838	-0.000101
C14	C	1.039259	0.094746	-0.122404
C15	C	1.039216	0.094739	0.122182
C16	C	0.971389	0.047934	-0.122499
C17	C	0.971336	0.047933	0.122198
C18	C	1.064446	0.025808	-0.000136
C19	C	1.516393	-0.017006	-0.000035
C20	C	1.514961	-0.070671	-0.000020
C21	C	1.505961	-0.403446	-0.135320
C22	C	1.500523	-0.605139	-0.135347
O23	O	1.499772	-0.631216	-0.250353
N24	N	1.499838	-0.630357	-0.000120
C25	C	1.500505	-0.605150	0.135123
O26	O	1.499785	-0.631227	0.250141
C27	C	1.505934	-0.403458	0.135147
C28	C	1.506631	-0.378242	-0.000088
C29	C	1.506657	-0.378231	-0.270545
C30	C	1.508023	-0.327811	-0.270537
C31	C	1.508694	-0.302607	-0.135305
C32	C	1.507998	-0.327822	-0.000080
C33	C	1.506591	-0.378250	0.270388
C34	C	1.507945	-0.327824	0.270383
C35	C	1.508643	-0.302609	0.135147
C36	C	1.510034	-0.252199	0.135160
N37	N	1.510719	-0.226980	-0.000067
C38	C	1.510048	-0.252184	-0.135299
C39	C	1.497657	-0.711041	0.135100
C40	C	1.496302	-0.761464	0.135094
C41	C	1.496318	-0.761449	-0.135375
C42	C	1.497682	-0.711026	-0.135368
C43	C	1.498342	-0.685822	-0.000126
C44	C	1.512919	-0.146299	-0.135272
C45	C	1.514291	-0.095875	-0.135252
C46	C	1.514269	-0.095894	0.135217
C47	C	1.512904	-0.146313	0.135198
C48	C	1.512225	-0.171515	-0.000059
O49	O	1.510771	-0.226089	0.250107
O50	O	1.510740	-0.226097	-0.250300
C51	C	1.504594	-0.453866	-0.135328
C52	C	1.503898	-0.479082	-0.000104
C53	C	1.504569	-0.453878	0.135128
C54	C	1.502543	-0.529504	-0.000110
C55	C	1.501873	-0.554709	-0.135342
C56	C	1.502557	-0.529490	-0.270568
C57	C	1.503924	-0.479070	-0.270561
C58	C	1.503884	-0.479096	0.270355
C59	C	1.502519	-0.529516	0.270336
C60	C	1.501849	-0.554720	0.135104
C61	C	1.738550	0.068604	-0.000080
C62	C	1.880118	0.070045	-0.000094
C63	C	1.494200	0.159667	-0.000113
C64	C	1.495632	0.213332	-0.000138
N65	N	1.505282	0.071337	0.352968
N66	N	1.505321	0.071320	-0.353112
C67	C	1.414003	0.105333	0.450260
C68	C	1.529067	0.115108	0.549667
C69	C	1.390267	0.061566	0.549689
C70	C	1.620404	0.081135	0.450185
C71	C	1.481529	0.027573	0.450199
C72	C	1.596676	0.037330	0.549560
H73	H	0.941466	0.028151	-0.226018
C74	C	1.556230	0.165093	0.608739
C75	C	1.674805	0.169466	0.706968
C76	C	1.701949	0.219451	0.766049
C77	C	1.610517	0.265061	0.726901
C78	C	1.491933	0.260689	0.628666
C79	C	1.464790	0.210705	0.569585
H80	H	1.742496	0.135701	0.735953
H81	H	1.789733	0.222687	0.838769
H82	H	1.630610	0.302062	0.770636
H83	H	1.424243	0.294454	0.599682
H84	H	1.377006	0.207468	0.496865
C85	C	1.701084	-0.001520	0.608107
C86	C	1.842857	0.001391	0.568443
C87	C	1.947267	-0.037456	0.626993
C88	C	1.909903	-0.079215	0.725209
C89	C	1.768124	-0.082128	0.764879
C90	C	1.663714	-0.043280	0.706328
H91	H	1.870521	0.032305	0.495733
H92	H	2.052222	-0.035300	0.597626
H93	H	1.987194	-0.107972	0.768551
H94	H	1.740459	-0.113042	0.837589
H95	H	1.558759	-0.045437	0.735695
H96	H	1.069381	0.114545	-0.225816
C97	C	1.309819	0.144204	0.391339
C98	C	1.168185	0.141862	0.432833
C99	C	1.064009	0.180733	0.373908
C100	C	1.101466	0.221946	0.273489
C101	C	1.243107	0.224289	0.231989
C102	C	1.347283	0.185418	0.290914
H103	H	1.140451	0.111353	0.507174
H104	H	0.959157	0.178999	0.404629
H105	H	1.024349	0.250720	0.229869
H106	H	1.270841	0.254798	0.157648
H107	H	1.452135	0.187152	0.260193
C108	C	1.454305	-0.022399	0.391113
C109	C	1.544356	-0.068149	0.432498
C110	C	1.517114	-0.118121	0.373409
C111	C	1.399822	-0.122342	0.272936
C112	C	1.309763	-0.076591	0.231545
C113	C	1.337005	-0.026619	0.290634
H114	H	1.631189	-0.065025	0.506879
H115	H	1.583783	-0.151989	0.404050
H116	H	1.379657	-0.159335	0.229195
H117	H	1.222930	-0.079714	0.157164
H118	H	1.270337	0.007250	0.259994
C119	C	1.514995	-0.068161	0.283965
C120	C	1.403994	-0.069982	0.395513
C121	C	1.404706	-0.042247	0.544261
C122	C	1.516418	-0.012690	0.581460
C123	C	1.627427	-0.010868	0.469909
C124	C	1.626715	-0.038603	0.321161
H125	H	1.321291	-0.091863	0.367979
H126	H	1.322529	-0.043596	0.626838
H127	H	1.516945	0.007841	0.691572
H128	H	1.710130	0.011013	0.497444
H129	H	1.708892	-0.037253	0.238584
H130	H	0.894724	0.155298	-0.000240
H131	H	1.115614	-0.012688	-0.000180
H132	H	0.941186	0.028153	0.225619
H133	H	1.069285	0.114548	0.225581
H134	H	1.514862	-0.075347	-0.245382
H135	H	1.717706	0.089436	0.406662
C136	C	1.495571	-0.789178	-0.284136
C137	C	1.606544	-0.787358	-0.395722
C138	C	1.605786	-0.815089	-0.544474
C139	C	1.494055	-0.844640	-0.581640
C140	C	1.383074	-0.846461	-0.470051
C141	C	1.383832	-0.818731	-0.321299
H142	H	1.689262	-0.765481	-0.368213
H143	H	1.687943	-0.813740	-0.627080
H144	H	1.493494	-0.865168	-0.691755
H145	H	1.300356	-0.868338	-0.497560
H146	H	1.301675	-0.820079	-0.238693
H147	H	1.512360	-0.166812	-0.245411
H148	H	1.498201	-0.690525	0.245237
H149	H	1.508586	-0.307285	-0.380660
H150	H	1.506106	-0.398746	-0.380673
H151	H	1.498248	-0.690499	-0.245489
H152	H	1.504491	-0.458544	-0.380683
H153	H	1.292985	0.053309	0.593400
H154	H	1.506025	-0.398772	0.380512
H155	H	1.495754	-0.781991	0.245217
H156	H	1.508463	-0.307305	0.380515
H157	H	1.512348	-0.166845	0.245317
H158	H	1.502017	-0.550020	-0.380680
H159	H	1.501961	-0.550043	0.380469
H160	H	1.504432	-0.458580	0.380480
