data_functionalizedCrystal
_audit_creation_method	'MofGen! by Chris Wilmer'
_symmetry_space_group_name_H-M	'P1'
_symmetry_Int_Tables_number	1
_symmetry_cell_setting	triclinic
loop_
_symmetry_equiv_pos_as_xyz
  x,y,z
_cell_length_a	18.215407
_cell_length_b	18.215405
_cell_length_c	18.215399
_cell_angle_alpha	89.969449
_cell_angle_beta	89.982632
_cell_angle_gamma	90.022329
loop_
_atom_site_label
_atom_site_type_symbol
_atom_site_fract_x
_atom_site_fract_y
_atom_site_fract_z
Zn1	Zn	1.125072	-0.293042	-0.416054
Zn2	Zn	1.625072	0.206958	0.083946
Zn3	Zn	1.124980	-0.416113	-0.292982
Zn4	Zn	1.624980	0.083887	0.207018
Zn5	Zn	1.002004	-0.293060	-0.293007
Zn6	Zn	1.502004	0.206940	0.206993
Zn7	Zn	1.001970	-0.416066	-0.416012
Zn8	Zn	1.501970	0.083934	0.083988
O9	O	1.063507	-0.354570	-0.354514
O10	O	1.563507	0.145430	0.145486
O11	O	1.228044	-0.309380	-0.399736
O12	O	1.728044	0.190620	0.100264
O13	O	1.108643	-0.399817	-0.190001
O14	O	1.608643	0.100183	0.309999
O15	O	1.018382	-0.190073	-0.309357
O16	O	1.518382	0.309927	0.190643
O17	O	1.227977	-0.399800	-0.309315
O18	O	1.727977	0.100200	0.190685
O19	O	1.108799	-0.190060	-0.399759
O20	O	1.608799	0.309940	0.100241
O21	O	1.018293	-0.309410	-0.190019
O22	O	1.518293	0.190590	0.309981
O23	O	0.899016	-0.309364	-0.309317
O24	O	1.399016	0.190636	0.190683
O25	O	1.018324	-0.399719	-0.519002
O26	O	1.518324	0.100281	-0.019002
O27	O	0.898991	-0.399736	-0.399688
O28	O	1.398991	0.100264	0.100312
O29	O	1.108766	-0.309334	-0.519033
O30	O	1.608766	0.190666	-0.019033
O31	O	1.108610	-0.519091	-0.309275
O32	O	1.608610	-0.019091	0.190725
O33	O	1.018235	-0.519056	-0.399665
O34	O	1.518235	-0.019056	0.100335
C35	C	0.872301	-0.354548	-0.354501
C36	C	1.372301	0.145452	0.145499
C37	C	0.790502	-0.354556	-0.354513
C38	C	1.290502	0.145444	0.145487
C39	C	0.602342	-0.307571	-0.401669
C40	C	1.102342	0.192429	0.098331
C41	C	0.525483	-0.307577	-0.401672
C42	C	1.025483	0.192423	0.098328
C43	C	0.525424	-0.401590	-0.307372
C44	C	1.025424	0.098410	0.192628
C45	C	0.602281	-0.401580	-0.307366
C46	C	1.102281	0.098420	0.192634
C47	C	0.640738	-0.354571	-0.354519
C48	C	1.140738	0.145429	0.145481
C49	C	0.487022	-0.354588	-0.354527
C50	C	0.987022	0.145412	0.145473
C51	C	0.403688	-0.354595	-0.354529
C52	C	0.903688	0.145405	0.145471
C53	C	0.724077	-0.354563	-0.354516
C54	C	1.224077	0.145437	0.145484
C55	C	1.063429	-0.545777	-0.354479
C56	C	1.563429	-0.045777	0.145521
C57	C	1.063463	-0.627575	-0.354488
C58	C	1.563463	-0.127575	0.145512
C59	C	1.110632	-0.815763	-0.307509
C60	C	1.610632	-0.315763	0.192491
C61	C	1.110665	-0.892622	-0.307526
C62	C	1.610665	-0.392622	0.192474
C63	C	1.016476	-0.892625	-0.401572
C64	C	1.516476	-0.392625	0.098428
C65	C	1.016447	-0.815768	-0.401557
C66	C	1.516447	-0.315768	0.098443
C67	C	1.063524	-0.777339	-0.354522
C68	C	1.563524	-0.277339	0.145478
C69	C	1.063586	-0.931055	-0.354554
C70	C	1.563586	-0.431055	0.145446
C71	C	1.063621	-1.014389	-0.354574
C72	C	1.563621	-0.514389	0.145426
C73	C	1.063490	-0.694000	-0.354503
C74	C	1.563490	-0.194000	0.145497
C75	C	1.255460	-0.354593	-0.354527
C76	C	1.755460	0.145407	0.145473
C77	C	1.337259	-0.354603	-0.354533
C78	C	1.837259	0.145397	0.145467
C79	C	1.063552	-0.354520	-0.546467
C80	C	1.563552	0.145480	-0.046467
C81	C	1.063571	-0.354498	-0.628266
C82	C	1.563571	0.145502	-0.128266
C83	C	1.063605	-0.162617	-0.354566
C84	C	1.563605	0.337383	0.145434
C85	C	1.063647	-0.080818	-0.354588
C86	C	1.563647	0.419182	0.145412
C87	C	1.110681	-0.307390	-0.816477
C88	C	1.610681	0.192610	-0.316477
C89	C	1.110690	-0.307369	-0.893336
C90	C	1.610690	0.192631	-0.393336
C91	C	1.016513	-0.401492	-0.893293
C92	C	1.516513	0.098508	-0.393293
C93	C	1.016501	-0.401509	-0.816435
C94	C	1.516501	0.098491	-0.316435
C95	C	1.063589	-0.354459	-0.778029
C96	C	1.563589	0.145541	-0.278029
C97	C	1.063610	-0.354421	-0.931746
C98	C	1.563610	0.145579	-0.431746
C99	C	1.063619	-0.354398	-1.015079
C100	C	1.563619	0.145602	-0.515079
C101	C	1.063579	-0.354481	-0.694690
C102	C	1.563579	0.145519	-0.194690
C103	C	1.063504	-0.354568	-0.163308
C104	C	1.563504	0.145432	0.336692
C105	C	1.063628	-0.354382	-0.081509
C106	C	1.563628	0.145618	0.418491
H107	H	0.494103	-0.439864	-0.268982
H108	H	0.994103	0.060136	0.231018
C109	C	0.964625	-0.773497	-0.453276
C110	C	1.464625	-0.273497	0.046724
C111	C	0.880970	-0.784126	-0.447198
C112	C	1.380970	-0.284126	0.052802
C113	C	0.829154	-0.741855	-0.498917
C114	C	1.329154	-0.241855	0.001083
C115	C	0.860993	-0.688954	-0.556714
C116	C	1.360993	-0.188954	-0.056714
C117	C	0.944652	-0.678322	-0.562795
C118	C	1.444652	-0.178322	-0.062795
C119	C	0.996468	-0.720593	-0.511076
C120	C	1.496468	-0.220593	-0.011076
H121	H	0.857397	-0.823289	-0.404411
H122	H	1.357397	-0.323289	0.095589
H123	H	0.767224	-0.749725	-0.494416
H124	H	1.267224	-0.249725	0.005584
H125	H	0.822635	-0.657662	-0.595000
H126	H	1.322635	-0.157662	-0.095000
H127	H	0.968225	-0.639159	-0.605582
H128	H	1.468225	-0.139159	-0.105582
H129	H	1.058399	-0.712723	-0.515577
H130	H	1.558399	-0.212723	-0.015577
H131	H	0.978148	-0.439837	-0.785130
H132	H	1.478148	0.060163	-0.285130
H133	H	0.978177	-0.439799	-0.924572
H134	H	1.478177	0.060201	-0.424572
H135	H	0.633544	-0.439854	-0.268967
H136	H	1.133544	0.060146	0.231033
H137	H	0.978146	-0.923924	-0.439866
H138	H	1.478146	-0.423924	0.060134
H139	H	1.148966	-0.784476	-0.269210
H140	H	1.648966	-0.284476	0.230790
C141	C	1.162484	-0.934888	-0.255811
C142	C	1.662484	-0.434888	0.244189
C143	C	1.214266	-0.892615	-0.204078
C144	C	1.714266	-0.392615	0.295922
C145	C	1.266089	-0.934881	-0.152361
C146	C	1.766089	-0.434881	0.347639
C147	C	1.266130	-1.019421	-0.152378
C148	C	1.766130	-0.519421	0.347622
C149	C	1.214346	-1.061699	-0.204113
C150	C	1.714346	-0.561699	0.295887
C151	C	1.162523	-1.019433	-0.255830
C152	C	1.662523	-0.519433	0.244170
H153	H	1.214237	-0.830029	-0.204064
H154	H	1.714237	-0.330029	0.295936
H155	H	1.304423	-0.903583	-0.114064
H156	H	1.804423	-0.403583	0.385936
H157	H	1.304493	-1.050709	-0.114095
H158	H	1.804493	-0.550709	0.385905
H159	H	1.214375	-1.124285	-0.204127
H160	H	1.714375	-0.624285	0.295873
H161	H	1.124189	-1.050731	-0.294127
H162	H	1.624189	-0.550731	0.205873
H163	H	1.149021	-0.269078	-0.785209
H164	H	1.649021	0.230922	-0.285209
H165	H	1.149035	-0.269039	-0.924636
H166	H	1.649035	0.230961	-0.424636
C167	C	0.644646	-0.255856	-0.453528
C168	C	1.144646	0.244144	0.046472
C169	C	0.697497	-0.287805	-0.511249
C170	C	1.197497	0.212195	-0.011249
C171	C	0.739799	-0.236086	-0.563107
C172	C	1.239799	0.263914	-0.063107
C173	C	0.729251	-0.152419	-0.557244
C174	C	1.229251	0.347581	-0.057244
C175	C	0.676398	-0.120466	-0.499521
C176	C	1.176398	0.379534	0.000479
C177	C	0.634095	-0.172185	-0.447663
C178	C	1.134095	0.327815	0.052337
H179	H	0.705308	-0.349744	-0.515591
H180	H	1.205308	0.150256	-0.015591
H181	H	0.778925	-0.259741	-0.605837
H182	H	1.278925	0.240259	-0.105837
H183	H	0.760566	-0.114134	-0.595633
H184	H	1.260566	0.385866	-0.095633
H185	H	0.668587	-0.058527	-0.495179
H186	H	1.168587	0.441473	0.004821
H187	H	0.594970	-0.148530	-0.404933
H188	H	1.094970	0.351470	0.095067
C189	C	0.483247	-0.255878	-0.453540
C190	C	0.983247	0.244122	0.046460
C191	C	0.525551	-0.204172	-0.505403
C192	C	1.025551	0.295828	-0.005403
C193	C	0.483315	-0.152470	-0.557273
C194	C	0.983315	0.347530	-0.057273
C195	C	0.398775	-0.152473	-0.557280
C196	C	0.898775	0.347527	-0.057280
C197	C	0.356466	-0.204181	-0.505415
C198	C	0.856466	0.295819	-0.005415
C199	C	0.398702	-0.255883	-0.453545
C200	C	0.898702	0.244117	0.046455
H201	H	0.588137	-0.204168	-0.505400
H202	H	1.088137	0.295832	-0.005400
H203	H	0.514636	-0.114192	-0.595667
H204	H	1.014636	0.385808	-0.095667
H205	H	0.367510	-0.114200	-0.595677
H206	H	0.867510	0.385800	-0.095677
H207	H	0.293880	-0.204185	-0.505418
H208	H	0.793880	0.295815	-0.005418
H209	H	0.367382	-0.294161	-0.415151
H210	H	0.867382	0.205839	0.084849
