data_functionalizedCrystal
_audit_creation_method	'MofGen! by Chris Wilmer'
_symmetry_space_group_name_H-M	'P1'
_symmetry_Int_Tables_number	1
_symmetry_cell_setting	triclinic
loop_
_symmetry_equiv_pos_as_xyz
  x,y,z
_cell_length_a	10.654562
_cell_length_b	23.532407
_cell_length_c	9.730223
_cell_angle_alpha	90.004051
_cell_angle_beta	90.005697
_cell_angle_gamma	83.669390
loop_
_atom_site_label
_atom_site_type_symbol
_atom_site_fract_x
_atom_site_fract_y
_atom_site_fract_z
O1	O	1.665295	0.080015	0.114396
O2	O	1.299577	0.087628	0.114380
O3	O	1.493464	0.000962	0.114363
O4	O	1.471408	0.166681	0.114413
O5	O	1.493451	0.000968	-0.114217
O6	O	1.299564	0.087634	-0.114200
O7	O	1.665282	0.080021	-0.114184
Zn8	Zn	1.482421	0.083828	-0.150484
Zn9	Zn	1.482438	0.083820	0.150680
O10	O	1.471395	0.166687	-0.114167
C11	C	1.252791	0.087070	0.000088
C12	C	1.113401	0.085393	0.000081
C13	C	1.047889	0.084614	-0.124507
C14	C	0.916916	0.083043	-0.124485
C15	C	0.916980	0.083033	0.124725
C16	C	1.047952	0.084600	0.124701
C17	C	1.047850	0.084623	-0.268387
C18	C	0.916877	0.083052	-0.268365
C19	C	1.492896	-0.020255	0.000070
C20	C	1.491207	-0.083483	0.000059
C21	C	1.595354	-0.481905	0.000139
C22	C	1.593785	-0.541316	0.000149
O23	O	1.690330	-0.577430	0.000204
N24	N	1.478520	-0.564696	0.000143
C25	C	1.364815	-0.528661	0.000141
O26	O	1.266628	-0.554002	0.000138
C27	C	1.366385	-0.469252	0.000141
C28	C	1.481658	-0.445876	0.000133
C29	C	1.710618	-0.458529	0.000133
C30	C	1.712186	-0.399122	0.000120
C31	C	1.598490	-0.363093	0.000113
C32	C	1.483227	-0.386469	0.000120
C33	C	1.252682	-0.433218	0.000148
C34	C	1.254262	-0.373806	0.000149
C35	C	1.369535	-0.350430	0.000141
C36	C	1.371099	-0.291033	0.000100
N37	N	1.486365	-0.267654	0.000106
C38	C	1.600060	-0.303683	0.000113
C39	C	1.361527	-0.653425	0.000145
C40	C	1.359955	-0.712833	0.000135
C41	C	1.588926	-0.725484	0.000146
C42	C	1.590496	-0.666075	0.000146
C43	C	1.476792	-0.630046	0.000151
C44	C	1.603345	-0.178925	0.000084
C45	C	1.604903	-0.119513	0.000066
C46	C	1.375933	-0.106867	0.000062
C47	C	1.374374	-0.166274	0.000074
C48	C	1.488091	-0.202302	0.000089
O49	O	1.274605	-0.254885	0.000051
O50	O	1.698231	-0.278334	0.000133
C51	C	1.712068	0.080578	0.000111
C52	C	1.851458	0.082255	0.000127
C53	C	1.471963	0.187904	0.000129
C54	C	1.473652	0.251132	0.000149
N55	N	1.482419	0.083833	-0.356020
C56	C	1.406718	0.048956	-0.571856
C57	C	1.406705	0.048965	-0.427973
C58	C	1.558160	0.118690	-0.427958
C59	C	1.558178	0.118677	-0.571838
C60	C	1.319273	0.008703	-0.571863
C61	C	1.319260	0.008712	-0.427980
N62	N	1.482450	0.083811	0.356216
H63	H	0.888602	0.041521	-0.313023
H64	H	0.863675	0.082386	0.226187
C65	C	1.734427	-0.253075	-0.117403
C66	C	1.728341	-0.218523	0.000094
H67	H	1.811590	-0.277523	-0.117396
H68	H	1.730268	-0.229639	-0.197102
H69	H	1.665558	-0.275504	-0.117381
H70	H	1.797205	-0.196091	0.000067
H71	H	1.732512	-0.241961	0.079813
C72	C	1.184948	0.027609	-0.231379
C73	C	1.184944	0.027609	-0.375285
H74	H	1.102028	0.039271	-0.198851
H75	H	1.240873	0.053364	-0.198842
H76	H	1.211928	-0.009810	-0.198851
H77	H	1.157973	0.065029	-0.407813
H78	H	1.129000	0.001854	-0.407835
C79	C	1.034856	0.084423	0.371034
C80	C	1.119967	0.085449	0.261653
H81	H	1.079318	0.084950	0.455584
H82	H	0.993751	0.050665	0.365837
H83	H	0.973791	0.116965	0.365873
H84	H	1.181027	0.052904	0.266808
H85	H	1.161093	0.119210	0.266852
C86	C	1.768260	0.141917	-0.616073
C87	C	1.641438	0.156987	-0.650896
H88	H	1.819661	0.165572	-0.664874
H89	H	1.792066	0.103053	-0.639646
H90	H	1.779064	0.146914	-0.520083
H91	H	1.630632	0.151986	-0.746885
H92	H	1.617624	0.195860	-0.627333
C93	C	1.410680	-0.087191	-0.474851
C94	C	1.374432	-0.049167	-0.367694
H95	H	1.444734	-0.122922	-0.437628
H96	H	1.472722	-0.072022	-0.529778
H97	H	1.339157	-0.092422	-0.529807
H98	H	1.445957	-0.043933	-0.312744
H99	H	1.312385	-0.064340	-0.312745
H100	H	1.076106	0.126156	-0.313018
C101	C	1.565024	0.195331	-0.266176
C102	C	1.641389	0.157017	-0.348875
H103	H	1.616408	0.218996	-0.217364
H104	H	1.519934	0.174574	-0.202749
H105	H	1.506952	0.218415	-0.322339
H106	H	1.699454	0.133931	-0.292711
H107	H	1.686499	0.177777	-0.412310
C108	C	1.938348	-0.417613	0.000145
C109	C	1.838899	-0.373433	0.000129
H110	H	2.016578	-0.401755	0.000163
H111	H	1.932966	-0.440521	-0.079561
H112	H	1.932954	-0.440519	0.079861
H113	H	1.844288	-0.350529	-0.079593
H114	H	1.844284	-0.350515	0.079844
H115	H	0.869341	0.122410	-0.323589
H116	H	1.681503	-0.754831	0.000157
H117	H	1.158814	-0.452240	0.000163
H118	H	1.095353	0.045269	-0.323652
C119	C	1.831079	-0.137995	0.000088
C120	C	1.731620	-0.093819	0.000068
H121	H	1.909304	-0.122132	0.000101
H122	H	1.825701	-0.160906	-0.079615
H123	H	1.825692	-0.160899	0.079808
H124	H	1.737002	-0.070917	-0.079657
H125	H	1.737001	-0.070898	0.079779
C126	C	1.841734	-0.532668	0.117643
C127	C	1.835610	-0.498126	0.000139
H128	H	1.918910	-0.557107	0.117641
H129	H	1.772886	-0.555101	0.117633
H130	H	1.837582	-0.509221	0.197345
H131	H	1.839752	-0.521572	-0.079564
H132	H	1.904477	-0.475691	0.000136
H133	H	1.684362	-0.647046	0.000140
C134	C	1.133790	-0.694346	0.000128
C135	C	1.233243	-0.738524	0.000133
H136	H	1.055562	-0.710206	0.000141
H137	H	1.139163	-0.671445	-0.079584
H138	H	1.139186	-0.671432	0.079838
H139	H	1.227852	-0.761436	-0.079583
H140	H	1.227867	-0.761435	0.079853
C141	C	1.239790	-0.225740	0.117585
C142	C	1.247671	-0.191977	0.000070
H143	H	1.161571	-0.241607	0.117585
H144	H	1.245158	-0.202818	0.197271
H145	H	1.307287	-0.255699	0.117582
H146	H	1.180179	-0.162015	0.000078
H147	H	1.242290	-0.214900	-0.079637
C148	C	1.230428	-0.579276	0.117635
C149	C	1.236530	-0.613825	0.000132
H150	H	1.153257	-0.554834	0.117630
H151	H	1.299282	-0.556847	0.117628
H152	H	1.234586	-0.602718	0.197338
H153	H	1.232382	-0.590382	-0.079572
H154	H	1.167657	-0.636256	0.000126
H155	H	1.161668	-0.344473	0.000155
C156	C	1.276697	-0.010176	0.000064
C157	C	1.250963	-0.067256	0.000064
H158	H	1.199543	0.014279	0.000081
H159	H	1.323972	-0.003047	-0.079648
H160	H	1.324011	-0.003046	0.079775
H161	H	1.203656	-0.074386	-0.079653
H162	H	1.203667	-0.074387	0.079783
H163	H	1.351624	-0.036208	-0.610887
H164	H	1.224131	0.026595	-0.616519
