data_functionalizedCrystal
_audit_creation_method	'MofGen! by Chris Wilmer'
_symmetry_space_group_name_H-M	'P1'
_symmetry_Int_Tables_number	1
_symmetry_cell_setting	triclinic
loop_
_symmetry_equiv_pos_as_xyz
  x,y,z
_cell_length_a	25.639242
_cell_length_b	21.395361
_cell_length_c	25.639243
_cell_angle_alpha	89.983775
_cell_angle_beta	90.019739
_cell_angle_gamma	89.973766
loop_
_atom_site_label
_atom_site_type_symbol
_atom_site_fract_x
_atom_site_fract_y
_atom_site_fract_z
Zn1	Zn	0.799242	0.249619	0.295734
Zn2	Zn	1.132575	0.582952	0.629068
Zn3	Zn	1.465908	0.916285	0.962401
Zn4	Zn	0.799181	0.354369	0.208295
Zn5	Zn	1.132514	0.687702	0.541629
Zn6	Zn	1.465848	1.021035	0.874962
Zn7	Zn	0.711822	0.249601	0.208298
Zn8	Zn	1.045155	0.582934	0.541632
Zn9	Zn	1.378488	0.916268	0.874965
Zn10	Zn	0.711775	0.354354	0.295685
Zn11	Zn	1.045108	0.687687	0.629018
Zn12	Zn	1.378442	1.021021	0.962352
O13	O	0.755505	0.301986	0.252003
O14	O	1.088838	0.635319	0.585337
O15	O	1.422171	0.968652	0.918670
O16	O	0.872399	0.263527	0.284154
O17	O	1.205732	0.596861	0.617488
O18	O	1.539065	0.930194	0.950821
O19	O	0.787587	0.340470	0.135130
O20	O	1.120920	0.673803	0.468464
O21	O	1.454253	1.007136	0.801797
O22	O	0.723463	0.161925	0.219919
O23	O	1.056796	0.495259	0.553252
O24	O	1.390129	0.828592	0.886585
O25	O	0.872354	0.340487	0.219913
O26	O	1.205687	0.673820	0.553247
O27	O	1.539021	1.007154	0.886580
O28	O	0.787690	0.161938	0.284157
O29	O	1.121023	0.495272	0.617491
O30	O	1.454357	0.828605	0.950824
O31	O	0.723404	0.263497	0.135133
O32	O	1.056737	0.596831	0.468466
O33	O	1.390071	0.930164	0.801799
O34	O	0.638650	0.263483	0.219871
O35	O	0.971984	0.596816	0.553204
O36	O	1.305317	0.930150	0.886538
O37	O	0.723384	0.340462	0.368857
O38	O	1.056717	0.673795	0.702190
O39	O	1.390050	1.007129	1.035524
O40	O	0.638616	0.340445	0.284074
O41	O	0.971949	0.673778	0.617407
O42	O	1.305283	1.007111	0.950741
O43	O	0.787645	0.263513	0.368893
O44	O	1.120978	0.596847	0.702226
O45	O	1.454312	0.930180	1.035560
O46	O	0.787541	0.442045	0.219866
O47	O	1.120875	0.775378	0.553199
O48	O	1.454208	1.108711	0.886533
O49	O	0.723325	0.442034	0.284071
O50	O	1.056658	0.775367	0.617404
O51	O	1.389992	1.108701	0.950738
C52	C	0.619662	0.301961	0.251968
C53	C	0.952996	0.635294	0.585301
C54	C	1.286329	0.968628	0.918634
C55	C	0.561548	0.301965	0.251965
C56	C	0.894881	0.635299	0.585298
C57	C	1.228215	0.968632	0.918632
C58	C	0.755436	0.464773	0.251974
C59	C	1.088769	0.798107	0.585307
C60	C	1.422102	1.131440	0.918641
C61	C	0.755454	0.534414	0.251979
C62	C	1.088787	0.867748	0.585313
C63	C	1.422121	1.201081	0.918646
C64	C	0.755516	0.301988	0.388376
C65	C	1.088849	0.635321	0.721710
C66	C	1.422183	0.968655	1.055043
C67	C	0.755521	0.301989	0.446490
C68	C	1.088854	0.635322	0.779824
C69	C	1.422187	0.968656	1.113157
C70	C	0.201176	0.342127	0.285402
C71	C	0.534510	0.675460	0.618735
C72	C	0.867843	1.008793	0.952069
C73	C	0.146572	0.342130	0.285410
C74	C	0.479905	0.675464	0.618743
C75	C	0.813239	1.008797	0.952077
O76	O	0.118328	0.376246	0.313809
O77	O	0.451661	0.709579	0.647143
O78	O	0.784994	1.042913	0.980476
N79	N	0.119266	0.302003	0.252037
N80	N	0.452599	0.635336	0.585371
N81	N	0.785932	0.968669	0.918704
C82	C	0.146567	0.261864	0.218658
C83	C	0.479900	0.595198	0.551991
C84	C	0.813233	0.928531	0.885325
O85	O	0.118327	0.227733	0.190273
O86	O	0.451660	0.561066	0.523606
O87	O	0.784993	0.894399	0.856939
C88	C	0.201170	0.261858	0.218653
C89	C	0.534503	0.595191	0.551986
C90	C	0.867837	0.928525	0.885319
C91	C	0.228473	0.301992	0.252024
C92	C	0.561807	0.635326	0.585357
C93	C	0.895140	0.968659	0.918691
C94	C	0.228480	0.382257	0.318771
C95	C	0.561813	0.715591	0.652104
C96	C	0.895146	1.048924	0.985437
C97	C	0.283080	0.382254	0.318762
C98	C	0.616414	0.715588	0.652095
C99	C	0.949747	1.048921	0.985428
C100	C	0.310377	0.342120	0.285384
C101	C	0.643711	0.675453	0.618717
C102	C	0.977044	1.008787	0.952050
C103	C	0.283074	0.301989	0.252015
C104	C	0.616407	0.635323	0.585348
C105	C	0.949741	0.968656	0.918681
C106	C	0.228470	0.221717	0.185276
C107	C	0.561803	0.555050	0.518610
C108	C	0.895136	0.888383	0.851943
C109	C	0.283077	0.221713	0.185274
C110	C	0.616410	0.555047	0.518607
C111	C	0.949744	0.888380	0.851941
C112	C	0.310380	0.261848	0.218645
C113	C	0.643714	0.595181	0.551979
C114	C	0.977047	0.928515	0.885312
C115	C	0.364971	0.261852	0.218628
C116	C	0.698305	0.595185	0.551961
C117	C	1.031638	0.928519	0.885294
N118	N	0.392278	0.301980	0.252001
N119	N	0.725611	0.635313	0.585334
N120	N	1.058944	0.968646	0.918667
C121	C	0.364981	0.342114	0.285379
C122	C	0.698314	0.675447	0.618712
C123	C	1.031647	1.008780	0.952045
C124	C	0.031896	0.261880	0.218672
C125	C	0.365229	0.595214	0.552005
C126	C	0.698563	0.928547	0.885339
C127	C	-0.022706	0.261890	0.218674
C128	C	0.310627	0.595223	0.552008
C129	C	0.643960	0.928556	0.885341
C130	C	-0.022697	0.342155	0.285427
C131	C	0.310636	0.675488	0.618761
C132	C	0.643969	1.008822	0.952094
C133	C	0.031906	0.342148	0.285422
C134	C	0.365239	0.675482	0.618755
C135	C	0.698573	1.008815	0.952089
C136	C	0.059202	0.302008	0.252045
C137	C	0.392536	0.635341	0.585378
C138	C	0.725869	0.968675	0.918711
C139	C	0.479646	0.342104	0.285357
C140	C	0.812979	0.675438	0.618690
C141	C	1.146312	1.008771	0.952023
C142	C	0.534251	0.342099	0.285343
C143	C	0.867584	0.675433	0.618676
C144	C	1.200918	1.008766	0.952010
C145	C	0.534237	0.261832	0.218592
C146	C	0.867571	0.595165	0.551925
C147	C	1.200904	0.928499	0.885259
C148	C	0.479637	0.261839	0.218604
C149	C	0.812970	0.595172	0.551937
C150	C	1.146303	0.928506	0.885270
C151	C	0.452342	0.301977	0.251990
C152	C	0.785676	0.635311	0.585323
C153	C	1.119009	0.968644	0.918657
O154	O	0.393250	0.227752	0.190245
O155	O	0.726584	0.561085	0.523578
O156	O	1.059917	0.894419	0.856911
O157	O	0.393227	0.376234	0.313764
O158	O	0.726561	0.709567	0.647097
O159	O	1.059894	1.042900	0.980430
C160	C	0.891878	0.302011	0.252039
C161	C	1.225211	0.635344	0.585372
C162	C	1.558544	0.968677	0.918706
C163	C	0.949992	0.302022	0.252054
C164	C	1.283325	0.635355	0.585388
C165	C	1.616658	0.968688	0.918721
C166	C	0.755588	0.138562	0.252044
C167	C	1.088922	0.471896	0.585377
C168	C	1.422255	0.805229	0.918711
C169	C	0.755624	0.068921	0.252061
C170	C	1.088957	0.402254	0.585395
C171	C	1.422291	0.735588	0.918728
C172	C	0.788921	0.567112	0.218582
C173	C	1.122255	0.900446	0.551915
C174	C	1.455588	1.233779	0.885249
C175	C	0.788946	0.632548	0.218594
C176	C	1.122279	0.965881	0.551927
C177	C	1.455612	1.299214	0.885260
C178	C	0.755493	0.665283	0.251997
C179	C	1.088827	0.998616	0.585330
C180	C	1.422160	1.331949	0.918664
C181	C	0.722024	0.632577	0.285401
C182	C	1.055357	0.965910	0.618734
C183	C	1.388690	1.299244	0.952068
C184	C	0.722004	0.567143	0.285392
C185	C	1.055337	0.900476	0.618725
C186	C	1.388671	1.233809	0.952059
C187	C	0.708416	0.768994	0.256087
C188	C	1.041749	1.102327	0.589420
C189	C	1.375082	1.435661	0.922754
C190	C	0.708434	0.834427	0.256092
C191	C	1.041768	1.167760	0.589426
C192	C	1.375101	1.501094	0.922759
C193	C	0.755554	0.867103	0.252028
C194	C	1.088888	1.200437	0.585361
C195	C	1.422221	1.533770	0.918694
C196	C	0.802657	0.834339	0.247947
C197	C	1.135990	1.167672	0.581280
C198	C	1.469323	1.501006	0.914614
C199	C	0.802637	0.768905	0.247938
C200	C	1.135970	1.102238	0.581271
C201	C	1.469304	1.435572	0.914605
C202	C	0.755511	0.736235	0.252011
C203	C	1.088844	1.069568	0.585344
C204	C	1.422178	1.402902	0.918677
C205	C	0.789051	0.970754	0.218641
C206	C	1.122384	1.304087	0.551975
C207	C	1.455717	1.637421	0.885308
C208	C	0.789076	1.036191	0.218657
C209	C	1.122409	1.369524	0.551990
C210	C	1.455742	1.702857	0.885323
C211	C	0.722149	1.036218	0.285461
C212	C	1.055483	1.369552	0.618795
C213	C	1.388816	1.702885	0.952128
C214	C	0.722129	0.970783	0.285449
C215	C	1.055462	1.304116	0.618782
C216	C	1.388796	1.637450	0.952115
C217	C	0.755579	0.938055	0.252036
C218	C	1.088912	1.271388	0.585369
C219	C	1.422245	1.604721	0.918703
C220	C	0.788922	0.342072	0.697675
C221	C	1.122256	0.675406	1.031008
C222	C	1.455589	1.008739	1.364342
C223	C	0.788924	0.342074	0.643071
C224	C	1.122257	0.675407	0.976404
C225	C	1.455590	1.008740	1.309737
O226	O	0.817329	0.376170	0.614827
O227	O	1.150663	0.709503	0.948160
O228	O	1.483996	1.042837	1.281493
N229	N	0.755510	0.301996	0.615764
N230	N	1.088844	0.635329	0.949097
N231	N	1.422177	0.968663	1.282431
C232	C	0.722090	0.261919	0.643065
C233	C	1.055423	0.595252	0.976398
C234	C	1.388756	0.928586	1.309731
O235	O	0.693669	0.227831	0.614825
O236	O	1.027002	0.561164	0.948158
O237	O	1.360336	0.894497	1.281491
C238	C	0.722086	0.261922	0.697668
C239	C	1.055419	0.595255	1.031001
C240	C	1.388753	0.928588	1.364335
C241	C	0.755505	0.301997	0.724972
C242	C	1.088839	0.635331	1.058305
C243	C	1.422172	0.968664	1.391638
C244	C	0.822338	0.382145	0.724979
C245	C	1.155672	0.715479	1.058312
C246	C	1.489005	1.048812	1.391645
C247	C	0.822338	0.382143	0.779579
C248	C	1.155671	0.715477	1.112913
C249	C	1.489004	1.048810	1.446246
C250	C	0.788921	0.342068	0.806876
C251	C	1.122254	0.675402	1.140209
C252	C	1.455587	1.008735	1.473543
C253	C	0.755505	0.301995	0.779572
C254	C	1.088838	0.635329	1.112906
C255	C	1.422171	0.968662	1.446239
C256	C	0.688663	0.221849	0.724968
C257	C	1.021997	0.555182	1.058301
C258	C	1.355330	0.888515	1.391634
C259	C	0.688662	0.221855	0.779575
C260	C	1.021996	0.555188	1.112908
C261	C	1.355329	0.888522	1.446241
C262	C	0.722081	0.261931	0.806878
C263	C	1.055415	0.595264	1.140212
C264	C	1.388748	0.928597	1.473545
C265	C	0.722087	0.261918	0.861470
C266	C	1.055420	0.595252	1.194803
C267	C	1.388753	0.928585	1.528136
N268	N	0.755500	0.301996	0.888776
N269	N	1.088833	0.635329	1.222110
N270	N	1.422167	0.968663	1.555443
C271	C	0.788917	0.342071	0.861479
C272	C	1.122250	0.675404	1.194813
C273	C	1.455584	1.008738	1.528146
C274	C	0.722099	0.261918	0.528394
C275	C	1.055433	0.595251	0.861727
C276	C	1.388766	0.928584	1.195061
C277	C	0.722105	0.261911	0.473792
C278	C	1.055439	0.595245	0.807125
C279	C	1.388772	0.928578	1.140459
C280	C	0.788939	0.342067	0.473801
C281	C	1.122272	0.675400	0.807135
C282	C	1.455605	1.008733	1.140468
C283	C	0.788935	0.342069	0.528405
C284	C	1.122268	0.675403	0.861738
C285	C	1.455602	1.008736	1.195071
C286	C	0.755513	0.301995	0.555701
C287	C	1.088846	0.635329	0.889034
C288	C	1.422179	0.968662	1.222367
C289	C	0.788913	0.342063	0.976144
C290	C	1.122246	0.675397	1.309478
C291	C	1.455580	1.008730	1.642811
C292	C	0.788911	0.342056	1.030750
C293	C	1.122244	0.675389	1.364083
C294	C	1.455577	1.008723	1.697417
C295	C	0.722076	0.261903	1.030735
C296	C	1.055409	0.595236	1.364069
C297	C	1.388742	0.928570	1.697402
C298	C	0.722080	0.261908	0.976135
C299	C	1.055413	0.595241	1.309468
C300	C	1.388746	0.928575	1.642802
C301	C	0.755500	0.301993	0.948841
C302	C	1.088833	0.635326	1.282174
C303	C	1.422167	0.968660	1.615507
O304	O	0.693694	0.227841	0.889748
O305	O	1.027027	0.561175	1.223082
O306	O	1.360361	0.894508	1.556415
O307	O	0.817328	0.376160	0.889726
O308	O	1.150661	0.709493	1.223060
O309	O	1.483995	1.042826	1.556393
C310	C	0.755492	0.301993	1.116161
C311	C	1.088825	0.635327	1.449494
C312	C	1.422159	0.968660	1.782827
C313	C	0.755494	0.301981	1.058047
C314	C	1.088827	0.635314	1.391380
C315	C	1.422160	0.968647	1.724713
H316	H	0.556479	0.374784	0.312518
H317	H	0.889812	0.708118	0.645852
H318	H	1.223146	1.041451	0.979185
H319	H	0.457429	0.374787	0.312544
H320	H	0.790762	0.708121	0.645878
H321	H	1.124096	1.041454	0.979211
O322	O	0.825050	0.667833	0.182582
O323	O	1.158383	1.001167	0.515915
O324	O	1.491717	1.334500	0.849248
H325	H	0.801679	0.697692	0.155966
H326	H	1.135012	1.031025	0.489300
H327	H	1.468345	1.364359	0.822633
O328	O	0.686070	1.071520	0.321491
O329	O	1.019403	1.404853	0.654824
O330	O	1.352736	1.738186	0.988157
H331	H	0.662795	1.037786	0.344714
H332	H	0.996128	1.371119	0.678048
H333	H	1.329461	1.704453	1.011381
H334	H	0.694874	0.229267	0.953903
H335	H	1.028207	0.562600	1.287236
H336	H	1.361541	0.895933	1.620570
O337	O	0.686057	0.218679	0.557830
O338	O	1.019390	0.552012	0.891163
O339	O	1.352723	0.885345	1.224496
H340	H	0.709476	0.186809	0.582723
H341	H	1.042810	0.520143	0.916057
H342	H	1.376143	0.853476	1.249390
O343	O	0.825005	0.531811	0.182553
O344	O	1.158338	0.865144	0.515886
O345	O	1.491671	1.198477	0.849220
H346	H	0.848285	0.565546	0.159336
H347	H	1.181618	0.898879	0.492669
H348	H	1.514952	1.232212	0.826002
O349	O	0.824967	0.385290	0.946713
O350	O	1.158300	0.718623	1.280046
O351	O	1.491633	1.051956	1.613379
H352	H	0.815982	0.434462	0.957184
H353	H	1.149315	0.767795	1.290518
H354	H	1.482648	1.101129	1.623851
O355	O	0.853486	0.869568	0.243553
O356	O	1.186819	1.202901	0.576886
O357	O	1.520152	1.536235	0.910220
H358	H	0.879135	0.856959	0.276818
H359	H	1.212468	1.190292	0.610151
H360	H	1.545802	1.523625	0.943484
O361	O	0.824956	0.385282	1.060201
O362	O	1.158289	0.718615	1.393535
O363	O	1.491622	1.051949	1.726868
H364	H	0.801536	0.417149	1.085066
H365	H	1.134869	0.750482	1.418399
H366	H	1.468202	1.083816	1.751733
O367	O	0.858368	0.425385	0.809026
O368	O	1.191701	0.758719	1.142359
O369	O	1.525034	1.092052	1.475693
H370	H	0.881594	0.453257	0.780864
H371	H	1.214927	0.786591	1.114197
H372	H	1.548261	1.119924	1.447530
O373	O	0.853436	0.733563	0.243544
O374	O	1.186769	1.066896	0.576877
O375	O	1.520102	1.400230	0.910211
H376	H	0.886207	0.767273	0.240723
H377	H	1.219541	1.100606	0.574056
H378	H	1.552874	1.433939	0.907389
O379	O	0.686070	0.218675	0.444347
O380	O	1.019403	0.552008	0.777680
O381	O	1.352736	0.885341	1.111013
H382	H	0.645028	0.229411	0.454807
H383	H	0.978362	0.562745	0.788141
H384	H	1.311695	0.896078	1.121474
O385	O	0.061331	0.218596	0.182655
O386	O	0.394665	0.551929	0.515989
O387	O	0.727998	0.885263	0.849322
H388	H	0.050865	0.169439	0.191690
H389	H	0.384198	0.502772	0.525024
H390	H	0.717532	0.836106	0.858357
O391	O	-0.052157	0.218612	0.182676
O392	O	0.281176	0.551945	0.516010
O393	O	0.614509	0.885278	0.849343
H394	H	-0.041660	0.169453	0.191719
H395	H	0.291673	0.502786	0.525053
H396	H	0.625007	0.836119	0.858386
H397	H	0.816289	0.944105	0.191436
H398	H	1.149623	1.277439	0.524770
H399	H	1.482956	1.610772	0.858103
O400	O	0.686042	0.218679	1.060190
O401	O	1.019375	0.552012	1.393523
O402	O	1.352708	0.885345	1.726857
H403	H	0.644999	0.229410	1.049697
H404	H	0.978332	0.562743	1.383031
H405	H	1.311666	0.896076	1.716364
O406	O	0.199028	0.178423	0.149287
O407	O	0.532362	0.511756	0.482621
O408	O	0.865695	0.845089	0.815954
H409	H	0.227192	0.150512	0.126086
H410	H	0.560525	0.483845	0.459420
H411	H	0.893859	0.817178	0.792753
O412	O	0.825173	1.071463	0.182633
O413	O	1.158507	1.404796	0.515966
O414	O	1.491840	1.738130	0.849300
H415	H	0.848424	1.037709	0.159395
H416	H	1.181757	1.371042	0.492729
H417	H	1.515091	1.704376	0.826062
H418	H	0.661449	0.189216	0.702746
H419	H	0.994782	0.522549	1.036080
H420	H	1.328115	0.855882	1.369413
H421	H	0.694874	0.944159	0.312642
H422	H	1.028208	1.277492	0.645975
H423	H	1.361541	1.610825	0.979308
O424	O	0.312519	0.178426	0.149267
O425	O	0.645852	0.511759	0.482600
O426	O	0.979186	0.845093	0.815934
H427	H	0.284356	0.150528	0.126061
H428	H	0.617689	0.483861	0.459395
H429	H	0.951023	0.817194	0.792728
H430	H	0.457405	0.229159	0.191429
H431	H	0.790738	0.562493	0.524762
H432	H	1.124072	0.895826	0.858096
O433	O	0.652617	0.178627	0.809017
O434	O	0.985950	0.511960	1.142350
O435	O	1.319283	0.845294	1.475683
H436	H	0.629385	0.150759	0.780853
H437	H	0.962719	0.484092	1.114187
H438	H	1.296052	0.817426	1.447520
H439	H	0.816148	0.374703	0.550632
H440	H	1.149481	0.708036	0.883965
H441	H	1.482814	1.041369	1.217299
H442	H	0.849551	0.414782	0.702759
H443	H	1.182884	0.748116	1.036093
H444	H	1.516218	1.081449	1.369426
O445	O	0.824979	0.385299	0.444356
O446	O	1.158312	0.718632	0.777689
O447	O	1.491645	1.051966	1.111022
H448	H	0.819359	0.378567	0.401800
H449	H	1.152692	0.711900	0.735134
H450	H	1.486026	1.045233	1.068467
H451	H	0.305306	0.414935	0.345937
H452	H	0.638639	0.748268	0.679270
H453	H	0.971972	1.081601	1.012604
H454	H	0.206260	0.414940	0.345954
H455	H	0.539593	0.748273	0.679287
H456	H	0.872927	1.081606	1.012621
H457	H	0.054133	0.374829	0.312597
H458	H	0.387466	0.708162	0.645930
H459	H	0.720800	1.041495	0.979263
H460	H	0.556472	0.229158	0.191415
H461	H	0.889806	0.562491	0.524748
H462	H	1.223139	0.895825	0.858082
O463	O	0.657635	0.869765	0.260493
O464	O	0.990968	1.203098	0.593827
O465	O	1.324301	1.536432	0.927160
H466	H	0.624867	0.836052	0.263329
H467	H	0.958200	1.169385	0.596662
H468	H	1.291533	1.502718	0.929996
H469	H	-0.044932	0.374832	0.312607
H470	H	0.288401	0.708166	0.645941
H471	H	0.621734	1.041499	0.979274
H472	H	0.694788	0.659234	0.312599
H473	H	1.028121	0.992567	0.645932
H474	H	1.361454	1.325901	0.979266
H475	H	0.670042	0.742395	0.259399
H476	H	1.003375	1.075728	0.592732
H477	H	1.336709	1.409062	0.926066
O478	O	0.685896	0.531869	0.321405
O479	O	1.019230	0.865203	0.654738
O480	O	1.352563	1.198536	0.988071
H481	H	0.662634	0.565622	0.344632
H482	H	0.995967	0.898955	0.677965
H483	H	1.329301	1.232289	1.011298
