data_functionalizedCrystal
_audit_creation_method	'MofGen! by Chris Wilmer'
_symmetry_space_group_name_H-M	'P1'
_symmetry_Int_Tables_number	1
_symmetry_cell_setting	triclinic
loop_
_symmetry_equiv_pos_as_xyz
  x,y,z
_cell_length_a	15.995350
_cell_length_b	15.995350
_cell_length_c	15.072220
_cell_angle_alpha	90.001101
_cell_angle_beta	89.991149
_cell_angle_gamma	83.492375
loop_
_atom_site_label
_atom_site_type_symbol
_atom_site_fract_x
_atom_site_fract_y
_atom_site_fract_z
O1	O	1.110996	0.107921	-0.073703
O2	O	0.867221	0.121249	-0.073721
O3	O	0.995772	-0.007303	-0.073710
O4	O	0.982444	0.236472	-0.073713
O5	O	0.995740	-0.007296	0.073855
O6	O	0.867189	0.121256	0.073844
O7	O	1.110964	0.107928	0.073862
Zn8	Zn	0.989071	0.114593	0.097283
Zn9	Zn	0.989113	0.114584	-0.097141
O10	O	0.982413	0.236480	0.073852
C11	C	0.836010	0.120701	0.000060
C12	C	0.743060	0.119049	0.000053
C13	C	0.405312	0.113117	0.000071
C14	C	0.452746	0.021565	0.000401
C15	C	0.549436	0.023217	0.000063
C16	C	0.572873	0.116060	0.000063
C17	C	0.531804	0.161212	-0.084201
C18	C	0.435168	0.158912	-0.084266
C19	C	0.434793	0.160812	0.083543
C20	C	0.531738	0.160790	0.084651
C21	C	0.667570	0.117727	0.000055
C22	C	0.310614	0.111452	0.000073
C23	C	0.995205	-0.038494	0.000070
C24	C	0.993553	-0.131444	0.000065
C25	C	0.987621	-0.469192	0.000068
C26	C	0.896069	-0.421758	-0.000270
C27	C	0.897721	-0.325068	0.000063
C28	C	0.990564	-0.301631	0.000066
C29	C	1.035702	-0.342705	0.084335
C30	C	1.033402	-0.439341	0.084405
C31	C	1.035330	-0.439707	-0.083404
C32	C	1.035308	-0.342761	-0.084518
C33	C	0.992231	-0.206934	0.000068
C34	C	0.985956	-0.563890	0.000072
C35	C	1.142175	0.108476	0.000080
C36	C	1.235125	0.110127	0.000081
C37	C	0.982980	0.267671	0.000069
C38	C	0.984631	0.360621	0.000069
N39	N	0.989049	0.114599	0.229971
N40	N	0.989142	0.114571	-0.229830
C41	C	0.989112	0.114580	0.589173
C42	C	0.920095	0.183135	0.551560
C43	C	0.920254	0.183385	0.448735
C44	C	0.989080	0.114590	0.410969
C45	C	1.076445	0.133671	0.448266
C46	C	1.076058	0.134159	0.551124
C47	C	0.971542	0.026741	0.551272
C48	C	0.969537	0.027327	0.448409
C49	C	0.989067	0.114593	0.310255
C50	C	0.989130	0.114579	0.689886
H51	H	0.416873	0.125979	-0.147255
N52	N	0.888913	0.009169	0.417829
N53	N	0.845961	0.060262	0.368641
H54	H	0.789019	0.047440	0.347038
N55	N	0.852898	-0.290100	0.075976
N56	N	0.889707	-0.250264	0.132453
H57	H	0.858051	-0.225568	0.186072
H58	H	0.931160	0.247952	0.577399
H59	H	0.547102	0.228494	0.089741
N60	N	1.028500	-0.039666	0.416152
N61	N	1.086146	-0.024117	0.364819
H62	H	1.127795	-0.071429	0.342036
N63	N	0.429495	-0.024293	0.076244
N64	N	0.354389	-0.036284	0.087779
H65	H	0.337969	-0.068655	0.141360
H66	H	0.854945	0.171953	0.576317
H67	H	1.005411	-0.460250	-0.147274
H68	H	1.129019	0.086195	0.576003
H69	H	0.559041	0.127829	0.146989
N70	N	1.121271	-0.324996	0.088295
N71	N	1.179637	-0.383993	0.088028
H72	H	1.240071	-0.371486	0.090827
H73	H	0.402920	0.226128	-0.088090
H74	H	0.931473	0.248570	0.424121
H75	H	0.859626	-0.441349	0.059819
H76	H	1.129029	0.085068	0.423801
H77	H	0.545929	0.229421	-0.087335
N78	N	1.034683	-0.037252	0.581790
N79	N	1.092401	-0.018366	0.631236
H80	H	1.136996	-0.063554	0.652795
N81	N	1.120002	-0.479566	-0.084124
N82	N	1.145745	-0.525519	-0.147808
H83	H	1.205542	-0.553675	-0.148310
H84	H	0.403031	0.228312	0.084113
N85	N	0.996325	-0.307106	0.162996
N86	N	0.920251	-0.313138	0.177215
H87	H	0.892434	-0.287998	0.232768
N88	N	0.585078	-0.021316	0.075836
N89	N	0.538548	-0.053839	0.129340
H90	H	0.563716	-0.085299	0.182855
N91	N	0.853204	-0.289423	-0.075718
N92	N	0.820693	-0.335950	-0.129221
H93	H	0.789246	-0.310780	-0.182743
H94	H	0.859490	-0.440293	-0.060701
H95	H	0.433165	-0.014865	-0.059694
N96	N	0.992076	-0.462289	0.163427
N97	N	0.965129	-0.406960	0.218140
H98	H	0.935940	-0.423162	0.273951
H99	H	1.100617	-0.471588	0.088231
N100	N	0.993954	-0.308517	-0.162719
N101	N	0.931759	-0.254020	-0.156252
H102	H	0.902550	-0.229830	-0.211481
N103	N	1.120252	-0.323515	-0.090909
N104	N	1.165413	-0.351246	-0.154434
H105	H	1.225409	-0.337657	-0.158943
H106	H	0.577307	-0.012521	-0.060446
N107	N	0.567443	0.121879	-0.162867
N108	N	0.623076	0.060603	-0.157090
H109	H	0.648256	0.032827	-0.212646
H110	H	0.855314	0.172016	0.423519
N111	N	1.095484	0.214523	0.581202
N112	N	1.109231	0.269860	0.526229
H113	H	1.122951	0.326620	0.547467
N114	N	0.893334	0.003738	0.583816
N115	N	0.835970	-0.008553	0.530707
H116	H	0.780730	-0.024791	0.553687
N117	N	1.096317	0.213126	0.415948
N118	N	1.048725	0.278651	0.432911
H119	H	1.062753	0.334769	0.410088
N120	N	0.409008	0.123265	0.163663
N121	N	0.368584	0.060890	0.160212
H122	H	0.350371	0.034365	0.216792
