data_functionalizedCrystal
_audit_creation_method	'MofGen! by Chris Wilmer'
_symmetry_space_group_name_H-M	'P1'
_symmetry_Int_Tables_number	1
_symmetry_cell_setting	triclinic
loop_
_symmetry_equiv_pos_as_xyz
  x,y,z
_cell_length_a	10.540510
_cell_length_b	14.044220
_cell_length_c	13.101039
_cell_angle_alpha	93.667477
_cell_angle_beta	86.608574
_cell_angle_gamma	88.851094
loop_
_atom_site_label
_atom_site_type_symbol
_atom_site_fract_x
_atom_site_fract_y
_atom_site_fract_z
O1	O	1.705807	0.128358	-0.085224
O2	O	2.039140	0.461692	0.248109
O3	O	2.372474	0.795025	0.581442
O4	O	1.337666	0.140983	-0.085225
O5	O	1.670999	0.474317	0.248108
O6	O	2.004332	0.807650	0.581442
O7	O	1.516210	-0.003350	-0.085215
O8	O	1.849543	0.329983	0.248119
O9	O	2.182876	0.663317	0.581452
O10	O	1.527263	0.272692	-0.085235
O11	O	1.860596	0.606025	0.248099
O12	O	2.193930	0.939358	0.581432
O13	O	1.503401	0.007023	0.085215
O14	O	1.836735	0.340356	0.418548
O15	O	2.170068	0.673690	0.751881
O16	O	1.324857	0.151356	0.085204
O17	O	1.658191	0.484690	0.418537
O18	O	1.991524	0.818023	0.751871
O19	O	1.692999	0.138731	0.085205
O20	O	2.026332	0.472065	0.418538
O21	O	2.359665	0.805398	0.751872
Zn22	Zn	1.506894	0.146691	0.112264
Zn23	Zn	1.840228	0.480024	0.445597
Zn24	Zn	2.173561	0.813358	0.778930
Zn25	Zn	1.523770	0.133024	-0.112284
Zn26	Zn	1.857103	0.466357	0.221049
Zn27	Zn	2.190437	0.799691	0.554383
O28	O	1.514455	0.283065	0.085194
O29	O	1.847788	0.616398	0.418528
O30	O	2.181121	0.949732	0.751861
C31	C	1.283863	0.145229	-0.000011
C32	C	1.617196	0.478562	0.333323
C33	C	1.950529	0.811896	0.666656
C34	C	1.142628	0.142414	-0.000011
C35	C	1.475962	0.475748	0.333323
C36	C	1.809295	0.809081	0.666656
C37	C	1.504968	-0.033510	0.000000
C38	C	1.838301	0.299823	0.333334
C39	C	2.171635	0.633156	0.666667
C40	C	1.490538	-0.138833	0.000002
C41	C	1.823871	0.194501	0.333335
C42	C	2.157205	0.527834	0.666668
C43	C	1.464158	-0.331671	-0.000013
C44	C	1.797491	0.001662	0.333320
C45	C	2.130825	0.334995	0.666653
C46	C	1.566501	-0.388620	-0.000016
C47	C	1.899835	-0.055287	0.333317
C48	C	2.233168	0.278047	0.666651
C49	C	1.551823	-0.495922	-0.000024
C50	C	1.885156	-0.162589	0.333309
C51	C	2.218490	0.170744	0.666642
C52	C	1.478834	-0.224359	-0.000005
C53	C	1.812168	0.108974	0.333328
C54	C	2.145501	0.442307	0.666662
C55	C	0.935340	0.242658	-0.000410
C56	C	1.268673	0.575992	0.332924
C57	C	1.602006	0.909325	0.666257
C58	C	1.082210	0.245684	-0.000019
C59	C	1.415543	0.579018	0.333314
C60	C	1.748876	0.912351	0.666647
C61	C	1.085210	0.095473	0.097314
C62	C	1.418543	0.428807	0.430648
C63	C	1.751876	0.762140	0.763981
C64	C	0.938213	0.093207	0.097390
C65	C	1.271547	0.426540	0.430723
C66	C	1.604880	0.759873	0.764056
C67	C	0.952755	0.079260	-0.096420
C68	C	1.286089	0.412593	0.236913
C69	C	1.619422	0.745927	0.570247
C70	C	1.099688	0.084080	-0.097700
C71	C	1.433021	0.417414	0.235633
C72	C	1.766355	0.750747	0.568966
C73	C	1.746802	0.134486	-0.000012
C74	C	2.080135	0.467819	0.333321
C75	C	2.413468	0.801152	0.666655
C76	C	1.888037	0.137300	-0.000019
C77	C	2.221370	0.470633	0.333315
C78	C	2.554703	0.803967	0.666648
C79	C	1.525697	0.313225	-0.000023
C80	C	1.859030	0.646558	0.333310
C81	C	2.192363	0.979892	0.666644
C82	C	1.540127	0.418547	-0.000031
C83	C	1.873460	0.751880	0.333302
C84	C	2.206794	1.085213	0.666636
N85	N	1.495386	0.156018	0.265512
N86	N	1.828720	0.489351	0.598845
N87	N	2.162053	0.822684	0.932178
N88	N	1.535287	0.123690	-0.265532
N89	N	1.868620	0.457023	0.067802
N90	N	2.201954	0.790356	0.401135
C91	C	1.479730	0.168716	0.474553
C92	C	1.813064	0.502049	0.807887
C93	C	2.146397	0.835382	1.141220
C94	C	1.550939	0.110995	0.525433
C95	C	1.884273	0.444328	0.858766
C96	C	2.217606	0.777661	1.192100
C97	C	1.542228	0.118060	0.641751
C98	C	1.875561	0.451393	0.975084
C99	C	2.208895	0.784727	1.308418
C100	C	1.488440	0.161652	0.358225
C101	C	1.821773	0.494985	0.691558
C102	C	2.155107	0.828318	1.024891
H103	H	1.665149	-0.356793	-0.000085
H104	H	1.998482	-0.023460	0.333249
H105	H	2.331816	0.309873	0.666582
H106	H	1.412230	0.223436	0.518346
H107	H	1.745563	0.556769	0.851680
H108	H	2.078896	0.890102	1.185013
H109	H	0.922811	0.001685	-0.097072
H110	H	1.256145	0.335018	0.236261
H111	H	1.589478	0.668352	0.569594
H112	H	1.120980	0.282795	-0.069789
H113	H	1.454313	0.616128	0.263545
H114	H	1.787647	0.949462	0.596878
H115	H	1.618446	0.056272	0.481635
H116	H	1.951780	0.389606	0.814968
H117	H	2.285113	0.722939	1.148302
H118	H	1.365524	-0.363501	-0.000016
H119	H	1.698857	-0.030167	0.333317
H120	H	2.032190	0.303166	0.666651
H121	H	0.902699	0.278643	-0.070207
H122	H	1.236033	0.611977	0.263126
H123	H	1.569366	0.945310	0.596459
H124	H	1.109568	0.291546	0.069858
H125	H	1.442902	0.624879	0.403192
H126	H	1.776235	0.958213	0.736525
H127	H	0.890661	0.286883	0.068986
H128	H	1.223995	0.620217	0.402320
H129	H	1.557328	0.953550	0.735653
H130	H	0.907077	0.016236	0.101816
H131	H	1.240410	0.349570	0.435150
H132	H	1.573743	0.682903	0.768483
H133	H	0.896182	0.133762	0.170136
H134	H	1.229516	0.467096	0.503469
H135	H	1.562849	0.800429	0.836803
H136	H	0.919043	0.107337	-0.170187
H137	H	1.252377	0.440671	0.163146
H138	H	1.585710	0.774004	0.496480
H139	H	1.114333	0.136595	0.169738
H140	H	1.447666	0.469928	0.503071
H141	H	1.780999	0.803261	0.836405
H142	H	1.124641	0.019668	0.100939
H143	H	1.457974	0.353001	0.434273
H144	H	1.791307	0.686335	0.767606
H145	H	1.141574	0.008328	-0.103572
H146	H	1.474908	0.341661	0.229761
H147	H	1.808241	0.674994	0.563095
H148	H	1.137606	0.118162	-0.169701
H149	H	1.470939	0.451495	0.163633
H150	H	1.804272	0.784829	0.496966
