data_functionalizedCrystal
_audit_creation_method	'MofGen! by Chris Wilmer'
_symmetry_space_group_name_H-M	'P1'
_symmetry_Int_Tables_number	1
_symmetry_cell_setting	triclinic
loop_
_symmetry_equiv_pos_as_xyz
  x,y,z
_cell_length_a	14.044220
_cell_length_b	14.519709
_cell_length_c	12.503572
_cell_angle_alpha	93.528838
_cell_angle_beta	86.164750
_cell_angle_gamma	88.434511
loop_
_atom_site_label
_atom_site_type_symbol
_atom_site_fract_x
_atom_site_fract_y
_atom_site_fract_z
O1	O	-1.263535	-0.217488	0.089210
O2	O	-0.987553	-0.209462	0.089237
O3	O	-1.132861	-0.079828	0.089213
O4	O	-1.118227	-0.347123	0.089234
O5	O	-1.121933	-0.089595	-0.089427
O6	O	-0.976625	-0.219229	-0.089403
O7	O	-1.252607	-0.227255	-0.089430
Cu8	Cu	-1.113618	-0.224134	-0.105728
Cu9	Cu	-1.126542	-0.212583	0.105535
O10	O	-1.107299	-0.356890	-0.089406
C11	C	-0.946769	-0.210833	-0.000079
C12	C	-0.841526	-0.200356	-0.000069
C13	C	-1.293391	-0.225884	-0.000111
C14	C	-1.398634	-0.236361	-0.000114
C15	C	-1.126715	-0.050296	-0.000107
C16	C	-1.124671	0.052250	-0.000107
C17	C	-0.648831	-0.181202	-0.000092
C18	C	-0.591324	-0.255510	-0.000091
C19	C	-0.484102	-0.244853	-0.000104
C20	C	-0.756063	-0.191858	-0.000079
C21	C	-1.113446	-0.386421	-0.000083
C22	C	-1.115490	-0.488967	-0.000076
N23	N	-1.104535	-0.232258	-0.254318
C24	C	-1.117148	0.427754	-0.000078
C25	C	-1.119237	0.323277	-0.000087
C26	C	-1.120909	0.240005	-0.000094
C27	C	-1.122999	0.135522	-0.000100
C28	C	-1.091174	-0.244217	-0.473431
C29	C	-1.148990	-0.192497	-0.526768
C30	C	-1.141556	-0.199151	-0.648690
C31	C	-1.098607	-0.237564	-0.351498
N32	N	-1.135632	-0.204453	0.254126
H33	H	-0.622617	-0.327131	-0.000080
O34	O	-1.025386	-0.303020	-0.528017
C35	C	-0.973103	-0.349825	-0.454421
H36	H	-0.976711	-0.307618	-0.374221
H37	H	-0.895476	-0.359506	-0.487024
H38	H	-1.004842	-0.420198	-0.442506
O39	O	-0.611473	-0.095772	0.000095
C40	C	-0.560547	-0.080157	0.092597
H41	H	-0.588050	-0.126708	0.157262
H42	H	-0.571062	-0.004845	0.123657
H43	H	-0.481351	-0.096288	0.071673
O44	O	-1.214508	-0.133608	-0.471848
C45	C	-1.207301	-0.139838	-0.360578
H46	H	-1.173273	-0.209563	-0.345275
H47	H	-1.281584	-0.132791	-0.317635
H48	H	-1.161221	-0.082199	-0.328846
