data_functionalizedCrystal
_audit_creation_method	'MofGen! by Chris Wilmer'
_symmetry_space_group_name_H-M	'P1'
_symmetry_Int_Tables_number	1
_symmetry_cell_setting	triclinic
loop_
_symmetry_equiv_pos_as_xyz
  x,y,z
_cell_length_a	19.077236
_cell_length_b	19.077068
_cell_length_c	11.169409
_cell_angle_alpha	92.259065
_cell_angle_beta	87.675582
_cell_angle_gamma	94.708605
loop_
_atom_site_label
_atom_site_type_symbol
_atom_site_fract_x
_atom_site_fract_y
_atom_site_fract_z
Zn1	Zn	1.066490	-0.237380	-0.768037
Zn2	Zn	1.061653	-0.355294	-0.575071
Zn3	Zn	0.948590	-0.242148	-0.559595
Zn4	Zn	0.943826	-0.359959	-0.767937
O5	O	1.005140	-0.298695	-0.667660
O6	O	1.164501	-0.249073	-0.748958
O7	O	1.046624	-0.340328	-0.405069
O8	O	0.968248	-0.142864	-0.580810
O9	O	1.160947	-0.335704	-0.607187
O10	O	1.054868	-0.139361	-0.733952
O11	O	0.963557	-0.257201	-0.393699
O12	O	0.849306	-0.261724	-0.580713
O13	O	0.960129	-0.343656	-0.935899
O14	O	0.845806	-0.348279	-0.733781
O15	O	1.050249	-0.253597	-0.935973
O16	O	1.042005	-0.454564	-0.607090
O17	O	0.955438	-0.457992	-0.748788
C18	C	0.821976	-0.306026	-0.655558
C19	C	0.743617	-0.309179	-0.650410
C20	C	0.708652	-0.265628	-0.721926
C21	C	0.635026	-0.268587	-0.717079
C22	C	0.596366	-0.315102	-0.640720
C23	C	0.631336	-0.358655	-0.569196
C24	C	0.704961	-0.355692	-0.574038
C25	C	0.375972	-0.328790	-0.618305
C26	C	0.302342	-0.331752	-0.613471
C27	C	0.306037	-0.241683	-0.761353
C28	C	0.379663	-0.238727	-0.766193
C29	C	0.414627	-0.282277	-0.694664
N30	N	0.521108	-0.318129	-0.635767
N31	N	0.489884	-0.279245	-0.699613
C32	C	0.997699	-0.481857	-0.679634
C33	C	0.994580	-0.560211	-0.684802
C34	C	1.038221	-0.595213	-0.613521
C35	C	1.035291	-0.668835	-0.618388
C36	C	0.988718	-0.707455	-0.694531
C37	C	0.945076	-0.672448	-0.765820
C38	C	0.948009	-0.598827	-0.760958
C39	C	0.975112	-0.927833	-0.716982
C40	C	0.972180	-1.001459	-0.721836
C41	C	1.062397	-0.997841	-0.574405
C42	C	1.065323	-0.924219	-0.569544
C43	C	1.021684	-0.889218	-0.640838
N44	N	0.985721	-0.782709	-0.699505
N45	N	1.024685	-0.813966	-0.635869
C46	C	1.189019	-0.291337	-0.679810
C47	C	1.267377	-0.288201	-0.684987
C48	C	1.005197	-0.298615	-0.980701
C49	C	1.005222	-0.298581	-1.114100
C50	C	1.012629	-0.114818	-0.655666
C51	C	1.015821	-0.036461	-0.650555
C52	C	1.005125	-0.298723	-0.355836
C53	C	1.005246	-0.298553	-0.222433
H54	H	0.411135	-0.200852	-0.828377
H55	H	0.939577	-0.899341	-0.775029
N56	N	1.109472	-1.035593	-0.497532
H57	H	1.139422	-0.999956	-0.448561
H58	H	1.079577	-1.067342	-0.442074
H59	H	1.076143	-0.563774	-0.551512
N60	N	0.900942	-0.561071	-0.837843
H61	H	0.870992	-0.596706	-0.886816
H62	H	0.869547	-0.531882	-0.784779
H63	H	0.270866	-0.369633	-0.551291
N64	N	0.894844	-0.714098	-0.847951
H65	H	0.899605	-0.766048	-0.840213
H66	H	0.845012	-0.703296	-0.825028
H67	H	0.277561	-0.206226	-0.819586
N68	N	0.750347	-0.215463	-0.804293
H69	H	0.717022	-0.188322	-0.848860
H70	H	0.782205	-0.181577	-0.755405
H71	H	0.606561	-0.233125	-0.775317
H72	H	0.404431	-0.364253	-0.560062
N73	N	0.589643	-0.408818	-0.486824
H74	H	0.537695	-0.404088	-0.494608
H75	H	0.600477	-0.458661	-0.509496
H76	H	0.934263	-1.032901	-0.783862
H77	H	0.733429	-0.391155	-0.515801
N78	N	1.082360	-0.706588	-0.541507
H79	H	1.112306	-0.670952	-0.492527
H80	H	1.052459	-0.738337	-0.486056
H81	H	1.103247	-0.892776	-0.507543
