data_functionalizedCrystal
_audit_creation_method	'MofGen! by Chris Wilmer'
_symmetry_space_group_name_H-M	'P1'
_symmetry_Int_Tables_number	1
_symmetry_cell_setting	triclinic
loop_
_symmetry_equiv_pos_as_xyz
  x,y,z
_cell_length_a	12.759401
_cell_length_b	12.594516
_cell_length_c	12.759393
_cell_angle_alpha	89.969200
_cell_angle_beta	89.981433
_cell_angle_gamma	90.010860
loop_
_atom_site_label
_atom_site_type_symbol
_atom_site_fract_x
_atom_site_fract_y
_atom_site_fract_z
Zn1	Zn	1.606276	-0.423706	-0.593989
Zn2	Zn	1.606180	-0.601726	-0.418311
Zn3	Zn	1.430578	-0.423759	-0.418328
Zn4	Zn	1.430576	-0.601640	-0.593953
O5	O	1.518403	-0.512708	-0.506145
O6	O	1.753285	-0.447335	-0.570693
O7	O	1.582846	-0.578176	-0.271292
O8	O	1.453927	-0.274806	-0.441652
O9	O	1.753213	-0.578125	-0.441624
O10	O	1.583011	-0.274768	-0.570709
O11	O	1.453833	-0.447424	-0.271305
O12	O	1.283557	-0.447341	-0.441617
O13	O	1.453922	-0.577979	-0.740979
O14	O	1.283555	-0.578030	-0.570647
O15	O	1.583009	-0.447252	-0.741005
O16	O	1.582844	-0.750660	-0.441588
O17	O	1.453829	-0.750597	-0.570631
C18	C	1.245435	-0.512683	-0.506131
C19	C	1.128659	-0.512698	-0.506149
C20	C	1.073827	-0.444724	-0.573460
C21	C	0.964103	-0.444744	-0.573467
C22	C	0.964052	-0.580722	-0.438849
C23	C	1.073774	-0.580695	-0.438838
C24	C	1.073855	-0.366222	-0.651184
C25	C	0.964131	-0.366242	-0.651190
C26	C	1.518354	-0.789249	-0.506127
C27	C	1.518429	-0.907554	-0.506154
C28	C	1.588682	-0.976803	-0.436043
C29	C	1.614358	-1.047495	-0.531935
C30	C	1.492885	-1.047661	-0.410323
C31	C	1.544154	-0.976688	-0.602097
C32	C	1.422637	-0.976848	-0.480420
C33	C	1.448276	-1.047508	-0.576379
C34	C	1.792436	-0.512734	-0.506161
C35	C	1.909212	-0.512745	-0.506167
C36	C	1.518476	-0.512600	-0.780179
C37	C	1.518507	-0.512555	-0.896955
C38	C	1.518480	-0.235087	-0.506187
C39	C	1.518513	-0.116782	-0.506204
C40	C	1.585732	-0.444479	-0.951833
C41	C	1.585757	-0.444440	-1.061557
C42	C	1.451330	-0.580563	-1.061516
C43	C	1.451300	-0.580595	-0.951794
C44	C	1.663346	-0.365892	-0.951858
C45	C	1.663371	-0.365854	-1.061582
C46	C	1.518390	-0.512738	-0.233178
C47	C	1.518562	-0.512484	-0.116402
H48	H	0.919352	-0.636083	-0.384047
N49	N	1.624812	-0.262105	-1.106680
H50	H	1.671655	-0.202388	-1.082272
H51	H	1.626228	-0.265957	-1.185728
H52	H	1.740619	-0.395444	-0.917822
N53	N	1.113292	-0.256989	-0.622501
H54	H	1.051750	-0.208263	-0.609703
H55	H	1.157268	-0.261721	-0.556866
N56	N	1.771150	-0.395098	-1.101040
H57	H	1.819226	-0.408184	-1.039507
H58	H	1.766380	-0.461564	-1.145032
H59	H	0.930085	-0.287902	-0.622190
H60	H	1.396556	-0.636026	-0.907117
N61	N	1.118981	-0.405438	-0.753498
H62	H	1.163554	-0.347865	-0.785955
H63	H	1.163490	-0.470336	-0.740073
N64	N	1.667380	-0.935670	-0.357572
H65	H	1.739754	-0.961367	-0.377172
H66	H	1.666229	-0.855489	-0.357668
H67	H	1.565714	-0.945646	-0.683231
N68	N	1.721706	-1.088612	-0.560811
H69	H	1.774695	-1.062901	-0.507791
H70	H	1.720668	-1.168794	-0.561299
N71	N	1.378831	-0.653933	-1.120664
H72	H	1.389043	-0.643577	-1.198500
H73	H	1.395141	-0.729963	-1.101478
N74	N	0.924719	-0.395621	-0.758923
H75	H	0.986272	-0.408724	-0.806991
H76	H	0.880710	-0.462104	-0.754056
H77	H	1.641573	-0.283462	-0.922100
N78	N	1.315322	-0.935687	-0.451509
H79	H	1.286653	-0.891531	-0.511053
H80	H	1.266853	-0.997542	-0.437696
N81	N	1.132917	-0.653991	-0.366222
H82	H	1.081496	-0.697068	-0.323584
H83	H	1.178466	-0.703295	-0.408888
H84	H	1.388901	-1.078358	-0.635760
N85	N	1.464213	-1.088961	-0.302950
H86	H	1.517302	-1.063241	-0.250034
H87	H	1.392323	-1.062150	-0.283040
