data_functionalizedCrystal
_audit_creation_method	'MofGen! by Chris Wilmer'
_symmetry_space_group_name_H-M	'P1'
_symmetry_Int_Tables_number	1
_symmetry_cell_setting	triclinic
loop_
_symmetry_equiv_pos_as_xyz
  x,y,z
_cell_length_a	17.077404
_cell_length_b	13.032721
_cell_length_c	13.032268
_cell_angle_alpha	103.289627
_cell_angle_beta	97.162375
_cell_angle_gamma	97.204757
loop_
_atom_site_label
_atom_site_type_symbol
_atom_site_fract_x
_atom_site_fract_y
_atom_site_fract_z
Zn1	Zn	1.090014	-0.499079	-0.654216
Zn2	Zn	1.590014	0.000921	-0.154216
Zn3	Zn	1.089929	-0.654163	-0.499164
Zn4	Zn	1.589929	-0.154163	0.000836
Zn5	Zn	0.977841	-0.476574	-0.476634
Zn6	Zn	1.477841	0.023426	0.023366
Zn7	Zn	0.939633	-0.676637	-0.676704
Zn8	Zn	1.439633	-0.176637	-0.176704
O9	O	1.024354	-0.576613	-0.576680
O10	O	1.524354	-0.076613	-0.076680
O11	O	1.199847	-0.519664	-0.633666
O12	O	1.699847	-0.019664	-0.133666
O13	O	1.091015	-0.611782	-0.347556
O14	O	1.591015	-0.111782	0.152444
O15	O	1.008748	-0.330929	-0.481351
O16	O	1.508748	0.169071	0.018649
O17	O	1.199784	-0.633604	-0.519749
O18	O	1.699784	-0.133604	-0.019749
O19	O	1.091161	-0.347463	-0.611820
O20	O	1.591161	0.152537	-0.111820
O21	O	1.008665	-0.481308	-0.331003
O22	O	1.508665	0.018692	0.168997
O23	O	0.862929	-0.503100	-0.503156
O24	O	1.362929	-0.003100	-0.003156
O25	O	0.943627	-0.671908	-0.822340
O26	O	1.443627	-0.171908	-0.322340
O27	O	0.834857	-0.650086	-0.650147
O28	O	1.334857	-0.150086	-0.150147
O29	O	1.054112	-0.541456	-0.805819
O30	O	1.554112	-0.041456	-0.305819
O31	O	1.053965	-0.805775	-0.541555
O32	O	1.553965	-0.305775	-0.041555
O33	O	0.943544	-0.822287	-0.671993
O34	O	1.443544	-0.322287	-0.171993
C35	C	0.820412	-0.576590	-0.576648
C36	C	1.320412	-0.076590	-0.076648
C37	C	0.733159	-0.576609	-0.576663
C38	C	1.233159	-0.076609	-0.076663
C39	C	0.677573	-0.653234	-0.653105
C40	C	1.177573	-0.153234	-0.153105
C41	C	0.595590	-0.653238	-0.653122
C42	C	1.095590	-0.153238	-0.153122
C43	C	0.569195	-0.576622	-0.576692
C44	C	1.069195	-0.076622	-0.076692
C45	C	0.624788	-0.499990	-0.500246
C46	C	1.124788	0.000010	-0.000246
C47	C	0.706769	-0.499982	-0.500234
C48	C	1.206769	0.000018	-0.000234
C49	C	0.453913	-0.500014	-0.500274
C50	C	0.953913	-0.000014	-0.000274
C51	C	0.371927	-0.500023	-0.500284
C52	C	0.871927	-0.000023	-0.000284
C53	C	0.342735	-0.653270	-0.653162
C54	C	0.842735	-0.153270	-0.153162
C55	C	0.424715	-0.653262	-0.653150
C56	C	0.924715	-0.153262	-0.153150
C57	C	0.480302	-0.576631	-0.576703
C58	C	0.980302	-0.076631	-0.076703
C59	C	0.994618	-0.852572	-0.611682
C60	C	1.494618	-0.352572	-0.111682
C61	C	0.981965	-0.970633	-0.626692
C62	C	1.481965	-0.470633	-0.126692
C63	C	1.030995	-1.015070	-0.568894
C64	C	1.530995	-0.515070	-0.068894
C65	C	1.017918	-1.137092	-0.584405
C66	C	1.517918	-0.637092	-0.084405
C67	C	1.229093	-0.576637	-0.576712
C68	C	1.729093	-0.076637	-0.076712
C69	C	1.316341	-0.576648	-0.576726
C70	C	1.816341	-0.076648	-0.076726
C71	C	0.994617	-0.611699	-0.853693
C72	C	1.494617	-0.111699	-0.353693
C73	C	0.981944	-0.626651	-0.971739
C74	C	1.481944	-0.126651	-0.471739
C75	C	1.054226	-0.299580	-0.541564
C76	C	1.554226	0.200420	-0.041564
C77	C	1.066955	-0.181525	-0.526599
C78	C	1.566955	0.318475	-0.026599
C79	C	1.030960	-0.568772	-1.016193
C80	C	1.530960	-0.068772	-0.516193
C81	C	1.017864	-0.584224	-1.138200
C82	C	1.517864	-0.084224	-0.638200
C83	C	1.054030	-0.541587	-0.300734
C84	C	1.554030	-0.041587	0.199266
C85	C	1.066886	-0.526337	-0.182651
C86	C	1.566886	-0.026337	0.317349
H87	H	0.297471	-0.715663	-0.715411
H88	H	0.797471	-0.215663	-0.215411
H89	H	1.118546	-0.465335	-1.130388
H90	H	1.618546	0.034665	-0.630388
C91	C	0.595759	-0.415710	-0.416174
C92	C	1.095759	0.084290	0.083826
H93	H	0.640608	-0.370068	-0.370652
H94	H	1.140608	0.129932	0.129348
H95	H	0.564377	-0.450399	-0.374980
H96	H	1.064377	0.049601	0.125020
H97	H	0.564395	-0.374652	-0.451027
H98	H	1.064395	0.125348	0.048973
H99	H	0.930310	-1.022925	-0.687663
H100	H	1.430310	-0.522925	-0.187663
H101	H	0.930280	-0.687636	-1.024005
H102	H	1.430280	-0.187636	-0.524005
H103	H	0.966260	-1.189381	-0.645381
H104	H	1.466260	-0.689381	-0.145381
C105	C	0.706600	-0.737511	-0.737180
C106	C	1.206600	-0.237511	-0.237180
H107	H	0.661751	-0.783139	-0.782715
H108	H	1.161751	-0.283139	-0.282715
H109	H	0.737966	-0.778570	-0.702340
H110	H	1.237966	-0.278570	-0.202340
H111	H	0.737981	-0.702811	-0.778375
H112	H	1.237981	-0.202811	-0.278375
H113	H	0.550335	-0.715634	-0.715368
H114	H	1.050335	-0.215634	-0.215368
H115	H	0.350439	-0.437625	-0.438059
H116	H	0.850439	0.062375	0.061941
H117	H	1.118619	-1.129238	-0.465632
H118	H	1.618619	-0.629238	0.034368
H119	H	1.082618	-0.507777	-0.963926
H120	H	1.582618	-0.007777	-0.463926
C121	C	1.100782	-0.944438	-0.486532
C122	C	1.600782	-0.444438	0.013468
H123	H	1.100413	-0.871691	-0.486907
H124	H	1.600413	-0.371691	0.013093
H125	H	1.149917	-0.964475	-0.504419
H126	H	1.649917	-0.464475	-0.004419
H127	H	1.095060	-0.953563	-0.417448
H128	H	1.595060	-0.453563	0.082552
C129	C	0.767913	-0.415694	-0.416150
C130	C	1.267913	0.084306	0.083850
H131	H	0.740453	-0.370070	-0.370627
H132	H	1.240453	0.129930	0.129373
H133	H	0.800507	-0.374634	-0.450990
H134	H	1.300507	0.125366	0.049010
H135	H	0.800494	-0.450380	-0.374943
H136	H	1.300494	0.049620	0.125057
H137	H	0.499171	-0.437605	-0.438031
H138	H	0.999171	0.062395	0.061969
C139	C	0.948074	-0.666629	-1.208795
C140	C	1.448074	-0.166629	-0.708795
H141	H	0.948431	-0.666211	-1.281537
H142	H	1.448431	-0.166211	-0.781537
H143	H	0.898939	-0.648807	-1.188695
H144	H	1.398939	-0.148807	-0.688695
H145	H	0.953808	-0.735716	-1.199717
H146	H	1.453808	-0.235716	-0.699717
H147	H	0.446203	-0.715655	-0.715381
H148	H	0.946203	-0.215655	-0.215381
