data_functionalizedCrystal
_audit_creation_method	'MofGen! by Chris Wilmer'
_symmetry_space_group_name_H-M	'P1'
_symmetry_Int_Tables_number	1
_symmetry_cell_setting	triclinic
loop_
_symmetry_equiv_pos_as_xyz
  x,y,z
_cell_length_a	14.519731
_cell_length_b	14.519731
_cell_length_c	7.088929
_cell_angle_alpha	83.763267
_cell_angle_beta	96.215673
_cell_angle_gamma	83.688853
loop_
_atom_site_label
_atom_site_type_symbol
_atom_site_fract_x
_atom_site_fract_y
_atom_site_fract_z
O1	O	1.214413	0.130448	-0.158997
O2	O	0.945940	0.144664	-0.159001
O3	O	1.087286	0.003318	-0.158981
O4	O	1.073068	0.271794	-0.159016
O5	O	1.106175	-0.015614	0.158996
O6	O	0.964829	0.125732	0.158977
O7	O	1.233303	0.111516	0.158981
Cu8	Cu	1.100791	0.116895	0.188013
Cu9	Cu	1.078452	0.139285	-0.188033
O10	O	1.091957	0.252861	0.158961
C11	C	0.921025	0.134532	-0.000012
C12	C	0.818645	0.132536	-0.000013
C13	C	0.735500	0.130914	-0.000020
C14	C	0.631191	0.128888	-0.000021
C15	C	0.548052	0.127279	-0.000020
C16	C	0.443736	0.125253	-0.000024
C17	C	1.096064	-0.040507	0.000008
C18	C	1.094068	-0.142888	0.000009
C19	C	1.092446	-0.226032	0.000004
C20	C	1.090419	-0.330340	-0.000010
C21	C	1.088810	-0.413478	-0.000022
C22	C	1.086783	-0.517793	-0.000034
C23	C	1.258217	0.121648	-0.000012
C24	C	1.360597	0.123645	-0.000024
C25	C	1.083178	0.296687	-0.000032
C26	C	1.085173	0.399069	-0.000046
N27	N	1.116509	0.101147	0.452503
N28	N	1.062741	0.155026	-0.452523
H29	H	1.007015	0.210859	0.465823
H30	H	1.172245	0.045316	0.534166
