data_functionalizedCrystal
_audit_creation_method	'MofGen! by Chris Wilmer'
_symmetry_space_group_name_H-M	'P1'
_symmetry_Int_Tables_number	1
_symmetry_cell_setting	triclinic
loop_
_symmetry_equiv_pos_as_xyz
  x,y,z
_cell_length_a	10.540510
_cell_length_b	10.540510
_cell_length_c	12.503572
_cell_angle_alpha	93.560801
_cell_angle_beta	86.446316
_cell_angle_gamma	84.513311
loop_
_atom_site_label
_atom_site_type_symbol
_atom_site_fract_x
_atom_site_fract_y
_atom_site_fract_z
O1	O	1.693145	0.171444	-0.089321
O2	O	1.323725	0.188340	-0.089321
O3	O	1.516883	-0.004818	-0.089321
O4	O	1.499987	0.364602	-0.089322
O5	O	1.502356	0.009733	0.089321
O6	O	1.309199	0.202891	0.089321
O7	O	1.678619	0.185995	0.089321
Cu8	Cu	1.492582	0.195771	0.105632
Cu9	Cu	1.509761	0.178563	-0.105633
O10	O	1.485461	0.379153	0.089320
C11	C	1.269159	0.194356	-0.000000
C12	C	1.128209	0.190589	-0.000001
C13	C	0.910773	0.324742	-0.000411
C14	C	1.057335	0.328793	-0.000002
C15	C	1.075162	0.128151	0.102010
C16	C	0.928395	0.125118	0.102089
C17	C	0.945108	0.105693	-0.101060
C18	C	1.091558	0.112139	-0.102402
C19	C	1.508361	-0.044846	-0.000002
C20	C	1.504594	-0.185796	-0.000009
C21	C	1.638747	-0.403233	0.000401
C22	C	1.642798	-0.256671	-0.000008
C23	C	1.442142	-0.238856	-0.102020
C24	C	1.439110	-0.385623	-0.102100
C25	C	1.419712	-0.368885	0.101050
C26	C	1.426158	-0.222435	0.102392
C27	C	1.733185	0.179979	-0.000003
C28	C	1.874135	0.183745	-0.000009
C29	C	1.493983	0.419181	-0.000001
C30	C	1.497750	0.560130	-0.000001
N31	N	1.480509	0.207874	0.254224
N32	N	1.521845	0.166451	-0.254225
C33	C	1.462748	0.225688	0.473340
C34	C	1.539602	0.148641	0.526667
C35	C	1.529719	0.158553	0.648590
C36	C	1.472629	0.215778	0.351405
H37	H	1.092621	0.378183	-0.073130
H38	H	0.874762	0.372625	-0.073570
H39	H	0.861345	0.384199	0.072332
H40	H	1.612821	0.075236	0.480754
C41	C	1.087665	0.412028	0.098973
H42	H	1.010358	0.443487	0.139091
H43	H	1.130833	0.481790	0.076251
H44	H	1.140502	0.362134	0.142659
H45	H	1.141137	0.010738	-0.108562
C46	C	1.363854	0.324858	0.535355
H47	H	1.370115	0.318601	0.610352
H48	H	1.280430	0.308958	0.517005
H49	H	1.380029	0.408207	0.516988
H50	H	0.881973	0.179678	0.178344
H51	H	1.122254	0.026717	0.105805
C52	C	0.896827	-0.014004	0.108358
H53	H	0.973674	-0.068419	0.110855
H54	H	0.854140	-0.038728	0.046844
H55	H	0.843208	-0.020694	0.171267
C56	C	1.709560	-0.208987	0.098765
H57	H	1.734449	-0.279221	0.139501
H58	H	1.652409	-0.148655	0.141928
H59	H	1.783041	-0.169689	0.075796
C60	C	1.138494	0.173368	-0.204354
H61	H	1.180262	0.246432	-0.184608
H62	H	1.067615	0.198113	-0.244409
H63	H	1.196591	0.113335	-0.246935
C64	C	1.108478	0.202874	0.204573
H65	H	1.075970	0.164350	0.265877
H66	H	1.071396	0.288729	0.205485
H67	H	1.198629	0.201626	0.205635
C68	C	0.896274	0.156198	-0.205516
H69	H	0.832138	0.225367	-0.188472
H70	H	0.861408	0.089746	-0.245352
H71	H	0.965155	0.184675	-0.247154
C72	C	0.915267	-0.034553	-0.102000
H73	H	0.859834	-0.045543	-0.041145
H74	H	0.992440	-0.088520	-0.099759
H75	H	0.875085	-0.056108	-0.165669
H76	H	1.457344	-0.404773	0.178375
H77	H	1.686641	-0.439235	0.073558
C78	C	1.719058	-0.470000	-0.097872
H79	H	1.667034	-0.520103	-0.139148
H80	H	1.788064	-0.523568	-0.074415
H81	H	1.751604	-0.407510	-0.140697
H82	H	1.493659	-0.432055	-0.178354
H83	H	1.704431	-0.234238	-0.073259
C84	C	1.299989	-0.417194	-0.108385
H85	H	1.245574	-0.340347	-0.110886
H86	H	1.275260	-0.459876	-0.046877
H87	H	1.293305	-0.470818	-0.171299
C88	C	1.305119	-0.175237	-0.107158
H89	H	1.284735	-0.115603	-0.046994
H90	H	1.246930	-0.238702	-0.106211
H91	H	1.299168	-0.132130	-0.171437
H92	H	1.497447	-0.214189	-0.177936
C93	C	1.487395	-0.175476	0.204345
H94	H	1.560454	-0.133708	0.184599
H95	H	1.512147	-0.246345	0.244405
H96	H	1.427363	-0.117373	0.246921
C97	C	1.289178	-0.155452	0.110726
H98	H	1.277977	-0.104045	0.051593
H99	H	1.275199	-0.103138	0.175836
H100	H	1.229846	-0.217855	0.109866
H101	H	1.315892	-0.390967	0.101737
