data_functionalizedCrystal
_audit_creation_method	'MofGen! by Chris Wilmer'
_symmetry_space_group_name_H-M	'P1'
_symmetry_Int_Tables_number	1
_symmetry_cell_setting	triclinic
loop_
_symmetry_equiv_pos_as_xyz
  x,y,z
_cell_length_a	16.956995
_cell_length_b	16.992695
_cell_length_c	16.176319
_cell_angle_alpha	90.003592
_cell_angle_beta	90.009091
_cell_angle_gamma	83.361347
loop_
_atom_site_label
_atom_site_type_symbol
_atom_site_fract_x
_atom_site_fract_y
_atom_site_fract_z
O1	O	1.060101	0.032362	0.068804
O2	O	0.829691	0.059775	0.068793
O3	O	0.943972	-0.068014	0.068792
O4	O	0.945820	0.160151	0.068805
O5	O	0.943958	-0.068014	-0.068701
O6	O	0.829677	0.059776	-0.068700
O7	O	1.060087	0.032362	-0.068689
Cu8	Cu	0.944880	0.046069	-0.081249
Cu9	Cu	0.944897	0.046068	0.081353
O10	O	0.945805	0.160152	-0.068688
C11	C	0.800065	0.061179	0.000045
C12	C	0.711811	0.065352	0.000041
C13	C	0.214500	0.096570	0.000074
C14	C	0.297425	0.092643	0.000073
C15	C	0.343815	0.018931	0.000062
C16	C	0.307278	-0.050860	0.000061
C17	C	0.224354	-0.046932	0.000068
C18	C	0.592349	-0.000510	0.000047
C19	C	0.675278	-0.004433	0.000037
C20	C	0.665419	0.139071	0.000051
C21	C	0.582495	0.142992	0.000053
C22	C	0.545964	0.073202	0.000056
N23	N	0.428578	0.014915	0.000059
N24	N	0.461203	0.077218	0.000065
C25	C	0.941589	-0.097073	0.000045
C26	C	0.934498	-0.183657	0.000045
C27	C	1.002913	-0.238332	0.000047
C28	C	0.996246	-0.319686	0.000055
C29	C	0.921163	-0.346365	0.000054
C30	C	0.852743	-0.291683	0.000055
C31	C	0.859411	-0.210331	0.000053
C32	C	0.893527	-0.588171	0.000065
C33	C	0.886865	-0.669531	0.000064
C34	C	1.030368	-0.697528	0.000066
C35	C	1.037029	-0.616172	0.000059
C36	C	0.968609	-0.561498	0.000064
N37	N	0.914346	-0.429522	0.000059
N38	N	0.975427	-0.478343	0.000064
C39	C	1.089713	0.030958	0.000060
C40	C	1.177967	0.026785	0.000070
C41	C	0.948189	0.189210	0.000060
C42	C	0.955280	0.275795	0.000066
N43	N	0.944874	0.046069	-0.195614
C44	C	0.996053	0.090338	-0.238869
C45	C	0.996061	0.090334	-0.325417
C46	C	0.944886	0.046066	-0.368707
C47	C	0.893706	0.001791	-0.325445
C48	C	0.893702	0.001791	-0.238900
C49	C	0.893720	0.001791	-0.674474
C50	C	0.893726	0.001797	-0.761025
C51	C	0.996079	0.090335	-0.760990
C52	C	0.996076	0.090334	-0.674445
C53	C	0.944898	0.046057	-0.631191
C54	C	0.944891	0.046060	-0.537347
C55	C	0.944889	0.046066	-0.462549
N56	N	0.944909	0.046062	0.195718
H57	H	0.194611	-0.103758	0.000066
N58	N	1.083896	-0.209560	0.000040
H59	H	1.126224	-0.256544	0.000044
H60	H	1.089795	-0.176412	0.051009
N61	N	0.785614	-0.151367	0.000037
H62	H	0.785178	-0.116995	-0.050935
H63	H	0.785220	-0.117036	0.051036
N64	N	1.104158	-0.756499	0.000076
H65	H	1.152734	-0.727253	0.000078
H66	H	1.104516	-0.790868	-0.050893
N67	N	0.552954	-0.075780	0.000038
H68	H	0.518783	-0.077359	0.051010
H69	H	0.594975	-0.123027	-0.000006
N70	N	1.070038	-0.378654	0.000050
H71	H	1.070459	-0.413036	-0.050916
H72	H	1.070439	-0.412973	0.051055
H73	H	0.852027	-0.034257	-0.203682
H74	H	1.037737	0.126381	-0.360631
H75	H	1.098170	-0.594458	0.000059
H76	H	1.037721	0.126391	-0.203629
H77	H	0.713048	-0.064462	0.000033
N78	N	0.838515	-0.045959	-0.372139
H79	H	0.801812	-0.009463	-0.408050
H80	H	0.806147	-0.074002	-0.331552
H81	H	1.037745	0.126385	-0.639202
N82	N	1.051282	0.138091	-0.807642
H83	H	1.043525	0.131375	-0.869038
H84	H	1.108054	0.118956	-0.792501
N85	N	0.838513	-0.045943	-0.627819
H86	H	0.870646	-0.086388	-0.591906
H87	H	0.806099	-0.073931	-0.668424
H88	H	0.176733	0.156595	0.000076
H89	H	0.852052	-0.034254	-0.796270
N90	N	0.336829	0.167911	0.000091
H91	H	0.294857	0.215203	0.000097
H92	H	0.371014	0.169416	-0.050877
H93	H	0.791609	-0.313411	0.000059
N94	N	0.819734	-0.529210	0.000064
H95	H	0.819305	-0.494834	0.051036
H96	H	0.771203	-0.558518	0.000031
H97	H	0.695172	0.195890	0.000049
N98	N	0.805879	-0.698308	0.000064
H99	H	0.763546	-0.651328	0.000069
H100	H	0.800001	-0.731452	0.051034
H101	H	0.544728	0.203017	0.000064
H102	H	0.345056	-0.110878	0.000057
