data_functionalizedCrystal
_audit_creation_method	'MofGen! by Chris Wilmer'
_symmetry_space_group_name_H-M	'P1'
_symmetry_Int_Tables_number	1
_symmetry_cell_setting	triclinic
loop_
_symmetry_equiv_pos_as_xyz
  x,y,z
_cell_length_a	14.971506
_cell_length_b	14.048226
_cell_length_c	14.971507
_cell_angle_alpha	89.990763
_cell_angle_beta	96.377475
_cell_angle_gamma	90.001638
loop_
_atom_site_label
_atom_site_type_symbol
_atom_site_fract_x
_atom_site_fract_y
_atom_site_fract_z
O1	O	1.186938	0.079172	-0.116651
O2	O	1.520271	0.412505	0.216682
O3	O	1.853604	0.745839	0.550016
O4	O	0.926541	0.079173	-0.130591
O5	O	1.259874	0.412506	0.202742
O6	O	1.593208	0.745840	0.536076
O7	O	1.063709	0.079161	0.006577
O8	O	1.397042	0.412494	0.339911
O9	O	1.730376	0.745828	0.673244
O10	O	1.049770	0.079184	-0.253819
O11	O	1.383103	0.412517	0.079514
O12	O	1.716437	0.745851	0.412847
O13	O	1.063706	-0.079160	0.006589
O14	O	1.397039	0.254173	0.339922
O15	O	1.730373	0.587506	0.673255
O16	O	0.926538	-0.079148	-0.130580
O17	O	1.259872	0.254185	0.202754
O18	O	1.593205	0.587518	0.536087
O19	O	1.186935	-0.079149	-0.116640
O20	O	1.520268	0.254184	0.216693
O21	O	1.853602	0.587517	0.550027
Zn22	Zn	1.056736	-0.104286	-0.123608
Zn23	Zn	1.390069	0.229048	0.209725
Zn24	Zn	1.723403	0.562381	0.543059
Zn25	Zn	1.056740	0.104309	-0.123623
Zn26	Zn	1.390073	0.437643	0.209710
Zn27	Zn	1.723407	0.770976	0.543044
O28	O	1.049767	-0.079137	-0.253808
O29	O	1.383100	0.254196	0.079525
O30	O	1.716434	0.587529	0.412859
C31	C	0.893215	0.000012	-0.129959
C32	C	1.226549	0.333346	0.203375
C33	C	1.559882	0.666679	0.536708
C34	C	0.793919	0.000012	-0.128081
C35	C	1.127252	0.333346	0.205253
C36	C	1.460586	0.666679	0.538586
C37	C	0.355642	0.000029	-0.201498
C38	C	0.688975	0.333362	0.131835
C39	C	1.022309	0.666695	0.465169
C40	C	0.448942	0.000033	-0.203256
C41	C	0.782276	0.333366	0.130078
C42	C	1.115609	0.666699	0.463411
C43	C	0.506156	0.000021	-0.122664
C44	C	0.839489	0.333355	0.210669
C45	C	1.172823	0.666688	0.544003
C46	C	0.470065	0.000015	-0.040310
C47	C	0.803399	0.333349	0.293024
C48	C	1.136732	0.666682	0.626357
C49	C	0.376767	0.000018	-0.038553
C50	C	0.710100	0.333351	0.294780
C51	C	1.043433	0.666685	0.628114
C52	C	0.664529	0.000008	-0.043976
C53	C	0.997862	0.333341	0.289357
C54	C	1.331195	0.666674	0.622690
C55	C	0.757834	0.000003	-0.045733
C56	C	1.091167	0.333337	0.287601
C57	C	1.424501	0.666670	0.620934
C58	C	0.736704	0.000023	-0.208679
C59	C	1.070038	0.333356	0.124654
C60	C	1.403371	0.666689	0.457988
C61	C	0.643406	0.000025	-0.206922
C62	C	0.976739	0.333358	0.126411
C63	C	1.310072	0.666692	0.459744
C64	C	0.607321	0.000017	-0.124568
C65	C	0.940655	0.333351	0.208766
C66	C	1.273988	0.666684	0.542099
C67	C	1.063081	-0.000001	0.039907
C68	C	1.396414	0.333333	0.373241
C69	C	1.729748	0.666666	0.706574
C70	C	1.061203	-0.000003	0.139204
C71	C	1.394536	0.333330	0.472537
C72	C	1.727869	0.666663	0.805870
C73	C	1.220261	0.000013	-0.117272
C74	C	1.553594	0.333347	0.216061
C75	C	1.886927	0.666680	0.549395
C76	C	1.319557	0.000020	-0.119150
C77	C	1.652890	0.333353	0.214183
C78	C	1.986224	0.666686	0.547517
N79	N	1.056743	0.246670	-0.123626
N80	N	1.390076	0.580003	0.209707
N81	N	1.723410	0.913337	0.543040
N82	N	1.056740	-0.246646	-0.123597
N83	N	1.390073	0.086687	0.209736
N84	N	1.723407	0.420020	0.543069
C85	C	1.117594	0.296483	-0.063008
C86	C	1.450928	0.629816	0.270325
C87	C	1.784261	0.963150	0.603659
C88	C	1.117598	0.396141	-0.063005
C89	C	1.450931	0.729474	0.270328
C90	C	1.784265	1.062807	0.603661
C91	C	1.056745	0.445984	-0.123617
C92	C	1.390079	0.779317	0.209716
C93	C	1.723412	1.112650	0.543049
C94	C	0.995891	0.396164	-0.184242
C95	C	1.329225	0.729497	0.149091
C96	C	1.662558	1.062831	0.482425
C97	C	0.995893	0.296508	-0.184249
C98	C	1.329226	0.629841	0.149085
C99	C	1.662559	0.963175	0.482418
C100	C	0.995891	0.603878	-0.184223
C101	C	1.329225	0.937211	0.149110
C102	C	1.662558	1.270545	0.482444
C103	C	0.995889	0.703541	-0.184216
C104	C	1.329222	1.036874	0.149118
C105	C	1.662555	1.370207	0.482451
C106	C	1.117597	0.703511	-0.062980
C107	C	1.450930	1.036844	0.270354
C108	C	1.784264	1.370177	0.603687
C109	C	1.117598	0.603855	-0.062986
C110	C	1.450932	0.937188	0.270347
C111	C	1.784265	1.270521	0.603681
C112	C	1.056743	0.554042	-0.123610
C113	C	1.390076	0.887375	0.209723
C114	C	1.723409	1.220709	0.543057
C115	C	1.134619	-0.000034	0.577481
C116	C	1.467952	0.333299	0.910814
C117	C	1.801286	0.666632	1.244147
C118	C	1.136377	-0.000034	0.484180
C119	C	1.469710	0.333299	0.817514
C120	C	1.803043	0.666633	1.150847
C121	C	1.055785	-0.000027	0.426966
C122	C	1.389119	0.333307	0.760300
C123	C	1.722452	0.666640	1.093633
C124	C	0.973431	-0.000029	0.463057
C125	C	1.306764	0.333304	0.796390
C126	C	1.640097	0.666637	1.129723
C127	C	0.971674	-0.000036	0.556355
C128	C	1.305007	0.333297	0.889689
C129	C	1.638341	0.666630	1.223022
C130	C	0.977098	-0.000012	0.268594
C131	C	1.310431	0.333321	0.601927
C132	C	1.643765	0.666655	0.935260
C133	C	0.978855	-0.000003	0.175288
C134	C	1.312188	0.333330	0.508622
C135	C	1.645521	0.666664	0.841955
C136	C	1.141801	-0.000010	0.196418
C137	C	1.475134	0.333324	0.529752
C138	C	1.808467	0.666657	0.863085
C139	C	1.140044	-0.000017	0.289717
C140	C	1.473377	0.333317	0.623050
C141	C	1.806711	0.666650	0.956384
C142	C	1.057689	-0.000018	0.325801
C143	C	1.391023	0.333316	0.659134
C144	C	1.724356	0.666649	0.992468
C145	C	1.050395	0.000009	0.712862
C146	C	1.383728	0.333342	1.046195
C147	C	1.717061	0.666676	1.379528
C148	C	1.052271	-0.000034	0.613565
C149	C	1.385604	0.333299	0.946899
C150	C	1.718938	0.666633	1.280232
H151	H	0.516657	0.000012	0.025309
H152	H	0.849990	0.333345	0.358643
H153	H	1.183323	0.666679	0.691976
H154	H	0.478317	0.000049	-0.270311
H155	H	0.811651	0.333382	0.063022
H156	H	1.144984	0.666716	0.396355
H157	H	0.804416	0.000002	0.019892
H158	H	1.137749	0.333335	0.353226
H159	H	1.471083	0.666669	0.686559
F160	F	0.582516	0.000032	-0.292697
F161	F	0.915849	0.333365	0.040636
F162	F	1.249182	0.666699	0.373970
F163	F	0.931128	0.243495	-0.248770
F164	F	1.264462	0.576828	0.084563
F165	F	1.597795	0.910162	0.417897
H166	H	1.208857	0.000079	0.167035
H167	H	1.542190	0.333412	0.500368
H168	H	1.875524	0.666745	0.833701
F169	F	0.775108	0.000023	-0.296328
F170	F	1.108442	0.333356	0.037006
F171	F	1.441775	0.666690	0.370339
F172	F	0.626128	-0.000004	0.043675
F173	F	0.959461	0.333329	0.377009
F174	F	1.292795	0.666663	0.710342
F175	F	1.220397	-0.000035	0.638365
F176	F	1.553731	0.333298	0.971698
F177	F	1.887064	0.666632	1.305031
F178	F	0.884028	-0.000041	0.594758
F179	F	1.217361	0.333292	0.928092
F180	F	1.550695	0.666626	1.261425
F181	F	1.182364	0.449155	0.001510
F182	F	1.515697	0.782489	0.334844
F183	F	1.849030	1.115822	0.668177
H184	H	0.309064	0.000031	-0.267125
H185	H	0.642397	0.333364	0.066208
H186	H	0.975731	0.666697	0.399541
H187	H	0.913230	-0.000003	0.128706
H188	H	1.246563	0.333330	0.462040
H189	H	1.579896	0.666664	0.795373
F190	F	1.224023	-0.000016	0.445781
F191	F	1.557356	0.333318	0.779114
F192	F	1.890690	0.666651	1.112448
F193	F	0.338364	0.000009	0.049093
F194	F	0.671697	0.333342	0.382426
F195	F	1.005030	0.666675	0.715760
H196	H	1.167144	0.563273	-0.013627
H197	H	1.500478	0.896606	0.319706
H198	H	1.833811	1.229939	0.653040
F199	F	1.182359	0.243445	0.001509
F200	F	1.515693	0.576779	0.334843
F201	F	1.849026	0.910112	0.668176
H202	H	1.167148	0.744074	-0.013618
H203	H	1.500481	1.077407	0.319715
H204	H	1.833814	1.410741	0.653049
F205	F	1.225818	-0.000018	0.350607
F206	F	1.559152	0.333315	0.683940
F207	F	1.892485	0.666649	1.017274
H208	H	0.910036	-0.000026	0.297969
H209	H	1.243369	0.333307	0.631302
H210	H	1.576703	0.666641	0.964636
H211	H	0.946337	0.744118	-0.233573
H212	H	1.279670	1.077451	0.099760
H213	H	1.613004	1.410785	0.433094
F214	F	0.931124	0.550868	-0.248750
F215	F	1.264457	0.884201	0.084583
F216	F	1.597790	1.217534	0.417917
H217	H	0.946347	0.436752	-0.233598
H218	H	1.279680	0.770085	0.099735
H219	H	1.613013	1.103419	0.433069
F220	F	0.887659	-0.000026	0.402163
F221	F	1.220992	0.333307	0.735496
F222	F	1.554326	0.666640	1.068829
