data_functionalizedCrystal
_audit_creation_method	'MofGen! by Chris Wilmer'
_symmetry_space_group_name_H-M	'P1'
_symmetry_Int_Tables_number	1
_symmetry_cell_setting	triclinic
loop_
_symmetry_equiv_pos_as_xyz
  x,y,z
_cell_length_a	6.817900
_cell_length_b	9.514072
_cell_length_c	14.858572
_cell_angle_alpha	90.776379
_cell_angle_beta	104.524003
_cell_angle_gamma	118.843421
loop_
_atom_site_label
_atom_site_type_symbol
_atom_site_fract_x
_atom_site_fract_y
_atom_site_fract_z
V1	V	-4.123443	-0.223218	-0.290692
V2	V	-3.623443	0.276782	0.209308
O3	O	-4.021919	0.009686	-0.284409
O4	O	-3.521919	0.509686	0.215591
O5	O	-4.158163	-0.441603	-0.289425
O6	O	-3.658163	0.058397	0.210575
O7	O	-4.078948	-0.220240	-0.417144
O8	O	-3.578948	0.279760	0.082856
O9	O	-4.101682	-0.213208	-0.155806
O10	O	-3.601682	0.286792	0.344194
V11	V	-4.595795	-0.195306	-0.274471
V12	V	-4.095795	0.304694	0.225529
O13	O	-4.409207	-0.284445	-0.326274
O14	O	-3.909207	0.215555	0.173726
O15	O	-4.760229	-0.134079	-0.238889
O16	O	-4.260229	0.365921	0.261111
O17	O	-4.337869	0.023079	-0.275738
O18	O	-3.837869	0.523079	0.224262
O19	O	-4.814717	-0.428210	-0.280754
O20	O	-4.314717	0.071790	0.219246
O21	O	-4.734954	-0.205315	-0.409357
O22	O	-4.234954	0.294685	0.090643
O23	O	-4.417084	-0.198283	-0.148019
O24	O	-3.917084	0.301717	0.351981
C25	C	-4.023258	-0.494826	-0.285025
C26	C	-3.523258	0.005174	0.214975
C27	C	-4.132958	-0.673362	-0.284832
C28	C	-3.632958	-0.173362	0.215168
C29	C	-3.922210	-0.212454	-0.447942
C30	C	-3.422210	0.287546	0.052058
C31	C	-3.967663	-0.211465	-0.551322
C32	C	-3.467663	0.288535	-0.051322
C33	C	-4.134027	-0.207850	-0.929878
C34	C	-3.634027	0.292150	-0.429878
C35	C	-4.087731	-0.208856	-0.824552
C36	C	-3.587731	0.291144	-0.324552
C37	C	-4.050847	-0.209659	-0.740604
C38	C	-3.550847	0.290341	-0.240604
C39	C	-4.004547	-0.210662	-0.635271
C40	C	-3.504547	0.289338	-0.135271
C41	C	-4.136119	0.076294	-0.280135
C42	C	-3.636119	0.576294	0.219865
C43	C	-4.005658	0.254828	-0.280334
C44	C	-3.505658	0.754828	0.219666
C45	C	-4.237166	-0.206074	-0.117216
C46	C	-3.737166	0.293926	0.382784
C47	C	-4.170948	-0.207055	-0.013835
C48	C	-3.670948	0.292945	0.486165
H49	H	-4.325902	-0.748484	-0.288568
H50	H	-3.825902	-0.248484	0.211432
H51	H	-3.812720	-0.670054	-0.276585
H52	H	-3.312720	-0.170054	0.223415
