data_functionalizedCrystal
_audit_creation_method	'MofGen! by Chris Wilmer'
_symmetry_space_group_name_H-M	'P1'
_symmetry_Int_Tables_number	1
_symmetry_cell_setting	triclinic
loop_
_symmetry_equiv_pos_as_xyz
  x,y,z
_cell_length_a	25.639242
_cell_length_b	25.639239
_cell_length_c	12.759393
_cell_angle_alpha	90.037052
_cell_angle_beta	90.029872
_cell_angle_gamma	90.033587
loop_
_atom_site_label
_atom_site_type_symbol
_atom_site_fract_x
_atom_site_fract_y
_atom_site_fract_z
Zn1	Zn	0.799268	-0.208191	0.594260
Zn2	Zn	1.299268	0.291809	1.094260
Zn3	Zn	0.799179	-0.295638	0.418563
Zn4	Zn	1.299179	0.204362	0.918563
Zn5	Zn	0.711832	-0.208210	0.418565
Zn6	Zn	1.211832	0.291790	0.918565
Zn7	Zn	0.711789	-0.295589	0.594170
Zn8	Zn	1.211789	0.204411	1.094170
O9	O	0.755517	-0.251907	0.506389
O10	O	1.255517	0.248093	1.006389
O11	O	0.872421	-0.219803	0.570991
O12	O	1.372421	0.280197	1.070991
O13	O	0.787572	-0.284069	0.271542
O14	O	1.287572	0.215931	0.771542
O15	O	0.723485	-0.135043	0.441909
O16	O	1.223485	0.364957	0.941909
O17	O	0.872356	-0.284050	0.441907
O18	O	1.372356	0.215950	0.941907
O19	O	0.787724	-0.135028	0.570992
O20	O	1.287724	0.364972	1.070992
O21	O	0.723399	-0.219836	0.271543
O22	O	1.223399	0.280164	0.771543
O23	O	0.638661	-0.219789	0.441822
O24	O	1.138661	0.280211	0.941822
O25	O	0.723413	-0.283968	0.741203
O26	O	1.223413	0.216032	1.241203
O27	O	0.638630	-0.283986	0.570838
O28	O	1.138630	0.216014	1.070838
O29	O	0.787683	-0.219756	0.741269
O30	O	1.287683	0.280244	1.241269
O31	O	0.787531	-0.368797	0.441820
O32	O	1.287531	0.131203	0.941820
O33	O	0.723327	-0.368761	0.570837
O34	O	1.223327	0.131239	1.070837
C35	C	0.619674	-0.251885	0.506321
C36	C	1.119674	0.248115	1.006321
C37	C	0.561560	-0.251888	0.506317
C38	C	1.061560	0.248112	1.006317
C39	C	0.310374	-0.218424	0.439327
C40	C	0.810374	0.281576	0.939327
C41	C	0.364979	-0.218419	0.439313
C42	C	0.864979	0.281581	0.939313
O43	O	0.393221	-0.189936	0.382297
O44	O	0.893221	0.310064	0.882297
N45	N	0.392286	-0.251895	0.506370
N46	N	0.892286	0.248105	1.006370
C47	C	0.364987	-0.285374	0.573451
C48	C	0.864987	0.214626	1.073451
O49	O	0.393229	-0.313846	0.630487
O50	O	0.893229	0.186154	1.130487
C51	C	0.310384	-0.285375	0.573469
C52	C	0.810384	0.214625	1.073469
C53	C	0.283079	-0.251901	0.506401
C54	C	0.783079	0.248099	1.006401
C55	C	0.283069	-0.184952	0.372265
C56	C	0.783069	0.315048	0.872265
C57	C	0.228469	-0.184958	0.372277
C58	C	0.728469	0.315042	0.872277
C59	C	0.201173	-0.218435	0.439351
C60	C	0.701173	0.281565	0.939351
C61	C	0.228478	-0.251907	0.506413
C62	C	0.728478	0.248093	1.006413
C63	C	0.283085	-0.318851	0.640555
C64	C	0.783085	0.181149	1.140555
C65	C	0.228478	-0.318850	0.640567
C66	C	0.728478	0.181150	1.140567
C67	C	0.201173	-0.285376	0.573499
C68	C	0.701173	0.214624	1.073499
C69	C	0.146582	-0.285390	0.573499
C70	C	0.646582	0.214610	1.073499
N71	N	0.119274	-0.251914	0.506443
N72	N	0.619274	0.248086	1.006443
C73	C	0.146570	-0.218437	0.439369
C74	C	0.646570	0.281563	0.939369
C75	C	0.479658	-0.285367	0.573410
C76	C	0.979658	0.214633	1.073410
C77	C	0.534260	-0.285368	0.573387
C78	C	1.034260	0.214632	1.073387
C79	C	0.534248	-0.218412	0.439251
C80	C	1.034248	0.281588	0.939251
C81	C	0.479644	-0.218414	0.439269
C82	C	0.979644	0.281586	0.939269
C83	C	0.452350	-0.251891	0.506353
C84	C	0.952350	0.248109	1.006353
C85	C	0.031905	-0.218452	0.439399
C86	C	0.531905	0.281548	0.939399
C87	C	-0.022701	-0.218462	0.439414
C88	C	0.477299	0.281538	0.939414
C89	C	-0.022684	-0.285415	0.573554
C90	C	0.477316	0.214585	1.073554
C91	C	0.031917	-0.285407	0.573536
C92	C	0.531917	0.214593	1.073536
C93	C	0.059210	-0.251921	0.506455
C94	C	0.559210	0.248079	1.006455
O95	O	0.118305	-0.313857	0.630490
O96	O	0.618305	0.186143	1.130490
O97	O	0.118322	-0.189964	0.382352
O98	O	0.618322	0.310036	0.882352
C99	C	0.755429	-0.387750	0.506341
C100	C	1.255429	0.112250	1.006341
C101	C	0.755439	-0.445864	0.506356
C102	C	1.255439	0.054136	1.006356
C103	C	0.789035	-0.806233	0.439325
C104	C	1.289035	-0.306233	0.939325
C105	C	0.789056	-0.860837	0.439339
C106	C	1.289056	-0.360837	0.939339
O107	O	0.817529	-0.889079	0.382293
O108	O	1.317529	-0.389079	0.882293
N109	N	0.755609	-0.888146	0.506459
N110	N	1.255609	-0.388146	1.006459
C111	C	0.722143	-0.860848	0.573577
C112	C	1.222143	-0.360848	1.073577
O113	O	0.693696	-0.889091	0.630671
O114	O	1.193696	-0.389091	1.130671
C115	C	0.722126	-0.806245	0.573568
C116	C	1.222126	-0.306245	1.073568
C117	C	0.755571	-0.778939	0.506435
C118	C	1.255571	-0.278939	1.006435
C119	C	0.822479	-0.778926	0.372199
C120	C	1.322479	-0.278926	0.872199
C121	C	0.822457	-0.724326	0.372183
C122	C	1.322457	-0.224326	0.872183
C123	C	0.788993	-0.697032	0.439294
C124	C	1.288993	-0.197032	0.939294
C125	C	0.755550	-0.724338	0.506420
C126	C	1.255550	-0.224338	1.006420
C127	C	0.688663	-0.778948	0.640691
C128	C	1.188663	-0.278948	1.140691
C129	C	0.688649	-0.724341	0.640676
C130	C	1.188649	-0.224341	1.140676
C131	C	0.722095	-0.697035	0.573544
C132	C	1.222095	-0.197035	1.073544
C133	C	0.722065	-0.642443	0.573516
C134	C	1.222065	-0.142443	1.073516
N135	N	0.755512	-0.615134	0.506396
N136	N	1.255512	-0.115134	1.006396
C137	C	0.788976	-0.642428	0.439285
C138	C	1.288976	-0.142428	0.939285
C139	C	0.722182	-0.975519	0.573594
C140	C	1.222182	-0.475519	1.073594
C141	C	0.722197	-1.030121	0.573599
C142	C	1.222197	-0.530121	1.073599
C143	C	0.789110	-1.030106	0.439361
C144	C	1.289110	-0.530106	0.939361
C145	C	0.789093	-0.975503	0.439351
C146	C	1.289093	-0.475503	0.939351
C147	C	0.755629	-0.948210	0.506473
C148	C	1.255629	-0.448210	1.006473
C149	C	0.788929	-0.527763	0.439257
C150	C	1.288929	-0.027763	0.939257
C151	C	0.788903	-0.473158	0.439245
C152	C	1.288903	0.026842	0.939245
C153	C	0.721992	-0.473178	0.573486
C154	C	1.221992	0.026822	1.073486
C155	C	0.722015	-0.527778	0.573495
C156	C	1.222015	-0.027778	1.073495
C157	C	0.755488	-0.555070	0.506377
C158	C	1.255488	-0.055070	1.006377
O159	O	0.693607	-0.614167	0.630535
O160	O	1.193607	-0.114167	1.130535
O161	O	0.817423	-0.614179	0.382211
O162	O	1.317423	-0.114179	0.882211
C163	C	0.891890	-0.251930	0.506459
C164	C	1.391890	0.248070	1.006459
C165	C	0.950004	-0.251939	0.506488
C166	C	1.450004	0.248061	1.006488
C167	C	0.755553	-0.251854	0.780423
C168	C	1.255553	0.248146	1.280423
C169	C	0.755569	-0.251832	0.897200
C170	C	1.255569	0.248168	1.397200
C171	C	0.755619	-0.115534	0.506461
C172	C	1.255619	0.384466	1.006461
C173	C	0.755663	-0.057420	0.506491
C174	C	1.255663	0.442580	1.006491
C175	C	0.755510	-0.251922	0.233422
C176	C	1.255510	0.248078	0.733422
C177	C	0.755596	-0.251797	0.116646
C178	C	1.255596	0.248203	0.616646
C179	C	0.789039	-0.218394	0.952098
C180	C	1.289039	0.281606	1.452098
C181	C	0.789052	-0.218375	1.061822
C182	C	1.289052	0.281625	1.561822
C183	C	0.722122	-0.285237	1.061740
C184	C	1.222122	0.214763	1.561740
C185	C	0.722108	-0.285252	0.952018
C186	C	1.222108	0.214748	1.452018
C187	C	0.827682	-0.179793	0.952146
C188	C	1.327682	0.320207	1.452146
C189	C	0.827694	-0.179775	1.061870
C190	C	1.327694	0.320225	1.561870
H191	H	0.305287	-0.157688	0.317645
H192	H	0.805287	0.342312	0.817645
H193	H	0.816360	-1.052339	0.384719
H194	H	1.316360	-0.552339	0.884719
H195	H	0.816866	-0.139301	0.922394
H196	H	1.316866	0.360699	1.422394
H197	H	0.868184	-0.190623	1.091663
H198	H	1.368184	0.309377	1.591663
H199	H	0.305308	-0.346110	0.695168
H200	H	0.805308	0.153890	1.195168
O201	O	0.686120	-1.059572	0.645998
O202	O	1.186120	-0.559572	1.145998
H203	H	0.662852	-1.031413	0.692662
H204	H	1.162852	-0.531413	1.192662
H205	H	0.457416	-0.191155	0.384660
H206	H	0.957416	0.308845	0.884660
O207	O	0.686032	-0.321281	1.120865
O208	O	1.186032	0.178719	1.620865
H209	H	0.709415	-0.347882	1.170848
H210	H	1.209415	0.152118	1.670848
H211	H	-0.044930	-0.191202	0.384796
H212	H	0.455070	0.308798	0.884796
H213	H	0.054120	-0.191182	0.384780
H214	H	0.554120	0.308818	0.884780
H215	H	0.866130	-0.194313	0.918123
H216	H	1.366130	0.305687	1.418123
H217	H	0.816327	-0.953273	0.384687
H218	H	1.316327	-0.453273	0.884687
O219	O	0.563688	-0.182300	0.366901
O220	O	1.063688	0.317700	0.866901
H221	H	0.588591	-0.155722	0.414017
H222	H	1.088591	0.344278	0.914017
O223	O	-0.052128	-0.321519	0.645904
O224	O	0.447872	0.178481	1.145904
H225	H	-0.094683	-0.315890	0.634649
H226	H	0.405317	0.184110	1.134649
H227	H	0.694744	-0.450946	0.628124
H228	H	1.194744	0.049054	1.128124
H229	H	0.661426	-0.801171	0.695352
H230	H	1.161426	-0.301171	1.195352
O231	O	0.808536	-0.128811	1.106989
O232	O	1.308536	0.371189	1.606989
H233	H	0.798371	-0.101805	1.042176
H234	H	1.298371	0.398195	1.542176
H235	H	0.849732	-0.801143	0.317548
H236	H	1.349732	-0.301143	0.817548
O237	O	0.199021	-0.148847	0.299953
O238	O	0.699021	0.351153	0.799953
H239	H	0.227182	-0.125566	0.253325
H240	H	0.727182	0.374434	0.753325
H241	H	0.556487	-0.312631	0.627990
H242	H	1.056487	0.187369	1.127990
H243	H	0.457438	-0.312632	0.628036
H244	H	0.957438	0.187368	1.128036
H245	H	0.206258	-0.346109	0.695201
H246	H	0.706258	0.153891	1.195201
O247	O	0.686075	-0.946081	0.645967
O248	O	1.186075	-0.446081	1.145967
H249	H	0.662817	-0.974249	0.692624
H250	H	1.162817	-0.474249	1.192624
H251	H	0.661400	-0.702121	0.695338
H252	H	1.161400	-0.202121	1.195338
H253	H	0.816138	-0.450927	0.384574
H254	H	1.316138	0.049073	0.884574
O255	O	0.061373	-0.321511	0.645868
O256	O	0.561373	0.178489	1.145868
H257	H	0.033217	-0.344789	0.692513
H258	H	0.533217	0.155211	1.192513
H259	H	0.694783	-0.550012	0.628163
H260	H	1.194783	-0.050012	1.128163
H261	H	0.694851	-0.312479	0.907324
H262	H	1.194851	0.187521	1.407324
H263	H	0.816187	-0.549977	0.384606
H264	H	1.316187	-0.049977	0.884606
H265	H	0.849693	-0.702096	0.317522
H266	H	1.349693	-0.202096	0.817522
