data_functionalizedCrystal
_audit_creation_method	'MofGen! by Chris Wilmer'
_symmetry_space_group_name_H-M	'P1'
_symmetry_Int_Tables_number	1
_symmetry_cell_setting	triclinic
loop_
_symmetry_equiv_pos_as_xyz
  x,y,z
_cell_length_a	12.645331
_cell_length_b	12.645330
_cell_length_c	12.645324
_cell_angle_alpha	90.030867
_cell_angle_beta	89.983975
_cell_angle_gamma	89.974579
loop_
_atom_site_label
_atom_site_type_symbol
_atom_site_fract_x
_atom_site_fract_y
_atom_site_fract_z
Zn1	Zn	1.620672	0.421981	-0.599257
Zn2	Zn	2.120672	0.921981	-0.099257
Zn3	Zn	1.620526	0.599290	-0.421999
Zn4	Zn	2.120526	1.099290	0.078001
Zn5	Zn	1.443385	0.422039	-0.422022
Zn6	Zn	1.943385	0.922039	0.077978
Zn7	Zn	1.443342	0.599200	-0.599236
Zn8	Zn	1.943342	1.099200	-0.099236
O9	O	1.531981	0.510627	-0.510629
O10	O	2.031981	1.010627	-0.010629
O11	O	1.769000	0.445514	-0.575742
O12	O	2.269000	0.945514	-0.075742
O13	O	1.596985	0.575839	-0.273655
O14	O	2.096985	1.075839	0.226345
O15	O	1.466982	0.273684	-0.445551
O16	O	1.966982	0.773684	0.054449
O17	O	1.768893	0.575783	-0.445512
O18	O	2.268893	1.075783	0.054488
O19	O	1.597233	0.273641	-0.575764
O20	O	2.097233	0.773641	-0.075764
O21	O	1.466841	0.445613	-0.273672
O22	O	1.966841	0.945613	0.226328
O23	O	1.295032	0.445526	-0.445531
O24	O	1.795032	0.945526	0.054469
O25	O	1.466908	0.575630	-0.747586
O26	O	1.966908	1.075630	-0.247586
O27	O	1.295000	0.575686	-0.575730
O28	O	1.795000	1.075686	-0.075730
O29	O	1.597191	0.445427	-0.747601
O30	O	2.097191	0.945427	-0.247601
O31	O	1.596943	0.747625	-0.445492
O32	O	2.096943	1.247625	0.054508
O33	O	1.466766	0.747559	-0.575707
O34	O	1.966766	1.247559	-0.075707
C35	C	1.256551	0.510603	-0.510631
C36	C	1.756551	1.010603	-0.010631
C37	C	1.138721	0.510619	-0.510658
C38	C	1.638721	1.010619	-0.010658
C39	C	0.971173	0.592951	-0.592138
C40	C	1.471173	1.092951	-0.092138
C41	C	1.093733	0.592685	-0.592479
C42	C	1.593733	1.092685	-0.092479
C43	C	1.094260	0.398960	-0.541177
C44	C	1.594260	0.898960	-0.041177
C45	C	0.971662	0.399462	-0.541751
C46	C	1.471662	0.899462	-0.041751
C47	C	0.971471	0.539045	-0.398399
C48	C	1.471471	1.039045	0.101601
C49	C	1.094077	0.541487	-0.399004
C50	C	1.594077	1.041487	0.100996
C51	C	1.531863	0.786057	-0.510618
C52	C	2.031863	1.286057	-0.010618
C53	C	1.531909	0.903887	-0.510649
C54	C	2.031909	1.403887	-0.010649
C55	C	1.450328	1.071454	-0.592823
C56	C	1.950328	1.571454	-0.092823
C57	C	1.449929	0.948894	-0.592557
C58	C	1.949929	1.448894	-0.092557
C59	C	1.501657	0.948494	-0.398932
C60	C	2.001657	1.448494	0.101068
C61	C	1.501141	1.071093	-0.399432
C62	C	2.001141	1.571093	0.100568
C63	C	1.644186	1.070974	-0.539293
C64	C	2.144186	1.570974	-0.039293
C65	C	1.643516	0.948367	-0.541734
C66	C	2.143516	1.448367	-0.041734
C67	C	1.808486	0.510652	-0.510627
C68	C	2.308486	1.010652	-0.010627
C69	C	1.926316	0.510663	-0.510626
C70	C	2.426316	1.010663	-0.010626
C71	C	1.532091	1.234122	-0.510666
C72	C	2.032091	1.734122	-0.010666
C73	C	1.532043	1.116292	-0.510693
C74	C	2.032043	1.616292	-0.010693
C75	C	1.532061	0.510512	-0.787134
C76	C	2.032061	1.010512	-0.287134
C77	C	1.532095	0.510463	-0.904964
C78	C	2.032095	1.010463	-0.404964
C79	C	1.614375	0.428790	-1.072538
C80	C	2.114375	0.928790	-0.572538
C81	C	1.614111	0.428495	-0.949978
C82	C	2.114111	0.928495	-0.449978
C83	C	1.420417	0.480103	-0.949455
C84	C	1.920417	0.980103	-0.449455
C85	C	1.420917	0.479483	-1.072054
C86	C	1.920917	0.979483	-0.572054
C87	C	1.560585	0.622615	-1.072161
C88	C	2.060585	1.122615	-0.572161
C89	C	1.563029	0.622051	-0.949555
C90	C	2.063029	1.122051	-0.449555
C91	C	1.531963	0.510666	-0.235199
C92	C	2.031963	1.010666	0.264801
C93	C	1.532135	0.510416	-0.117369
C94	C	2.032135	1.010416	0.382631
H95	H	0.941669	0.676026	-0.573222
H96	H	1.441669	1.176026	-0.073222
H97	H	1.559296	0.919344	-0.336066
H98	H	2.059296	1.419344	0.163934
H99	H	1.123402	0.335982	-0.483662
H100	H	1.623402	0.835982	0.016338
H101	H	1.595781	0.346135	-1.103362
H102	H	2.095781	0.846135	-0.603362
H103	H	1.671772	1.101809	-0.619373
H104	H	2.171772	1.601809	-0.119373
H105	H	1.469074	1.100856	-0.675934
H106	H	1.969074	1.600856	-0.175934
H107	H	0.942463	0.479107	-0.337665
H108	H	1.442463	0.979107	0.162335
H109	H	1.420544	0.917885	-0.374262
H110	H	1.920544	1.417885	0.125738
H111	H	1.123147	0.623652	-0.375986
H112	H	1.623147	1.123652	0.124014
H113	H	1.595275	0.345380	-0.920666
H114	H	2.095275	0.845380	-0.420666
H115	H	1.468858	0.918730	-0.675395
H116	H	1.968858	1.418730	-0.175395
H117	H	0.943091	0.375390	-0.623794
H118	H	1.443091	0.875390	-0.123794
H119	H	1.666330	0.919207	-0.623952
H120	H	2.166330	1.419207	-0.123952
H121	H	1.507482	0.686141	-0.918910
H122	H	2.007482	1.186141	-0.418910
H123	H	1.124989	0.374449	-0.622331
H124	H	1.624989	0.874449	-0.122331
H125	H	1.645214	0.644943	-0.920474
H126	H	2.145214	1.144943	-0.420474
H127	H	0.940537	0.619079	-0.370658
H128	H	1.440537	1.119079	0.129342
H129	H	1.367711	1.102356	-0.574118
H130	H	1.867711	1.602356	-0.074118
H131	H	1.124701	0.485901	-0.335013
H132	H	1.624701	0.985901	0.164987
H133	H	1.697461	0.447564	-1.102021
H134	H	2.197461	0.947564	-0.602021
H135	H	1.123793	0.675486	-0.573352
H136	H	1.623793	1.175486	-0.073352
H137	H	1.366801	0.919661	-0.573609
H138	H	1.866801	1.419661	-0.073609
H139	H	1.500691	0.683435	-1.101161
H140	H	2.000691	1.183435	-0.601161
H141	H	1.419165	1.099786	-0.375202
H142	H	1.919165	1.599786	0.124798
H143	H	1.558076	1.100758	-0.336153
H144	H	2.058076	1.600758	0.163847
H145	H	1.707614	0.917724	-0.486269
H146	H	2.207614	1.417724	0.013731
H147	H	1.705066	1.099970	-0.479474
H148	H	2.205066	1.599970	0.020526
H149	H	1.696923	0.447508	-0.919897
H150	H	2.196923	0.947508	-0.419897
H151	H	0.940385	0.574410	-0.674811
H152	H	1.440385	1.074410	-0.174811
H153	H	1.396798	0.397467	-1.100665
H154	H	1.896798	0.897467	-0.600665
H155	H	1.357556	0.536350	-1.101710
H156	H	1.857556	1.036350	-0.601710
H157	H	1.640597	0.650253	-1.103137
H158	H	2.140597	1.150253	-0.603137
H159	H	1.357474	0.537729	-0.920297
H160	H	1.857474	1.037729	-0.420297
H161	H	1.123085	0.573901	-0.675635
H162	H	1.623085	1.073901	-0.175635
H163	H	1.395856	0.399002	-0.918762
H164	H	1.895856	0.899002	-0.418762
H165	H	0.941990	0.335953	-0.485103
H166	H	1.441990	0.835953	0.014897
