data_functionalizedCrystal
_audit_creation_method	'MofGen! by Chris Wilmer'
_symmetry_space_group_name_H-M	'P1'
_symmetry_Int_Tables_number	1
_symmetry_cell_setting	triclinic
loop_
_symmetry_equiv_pos_as_xyz
  x,y,z
_cell_length_a	16.959454
_cell_length_b	12.759395
_cell_length_c	12.759387
_cell_angle_alpha	90.020509
_cell_angle_beta	89.969920
_cell_angle_gamma	89.978388
loop_
_atom_site_label
_atom_site_type_symbol
_atom_site_fract_x
_atom_site_fract_y
_atom_site_fract_z
Zn1	Zn	-0.314607	-1.606229	-0.594010
Zn2	Zn	-0.446808	-1.606104	-0.418333
Zn3	Zn	-0.314651	-1.430528	-0.418347
Zn4	Zn	-0.446751	-1.430504	-0.593972
O5	O	-0.380704	-1.518341	-0.506166
O6	O	-0.332150	-1.753234	-0.570716
O7	O	-0.429318	-1.582770	-0.271314
O8	O	-0.204034	-1.453898	-0.441671
O9	O	-0.429276	-1.753141	-0.441647
O10	O	-0.204002	-1.582985	-0.570730
O11	O	-0.332223	-1.453776	-0.271324
O12	O	-0.332169	-1.283503	-0.441634
O13	O	-0.429181	-1.453857	-0.740998
O14	O	-0.429222	-1.283486	-0.570665
O15	O	-0.332095	-1.582962	-0.741026
O16	O	-0.557411	-1.582747	-0.441610
O17	O	-0.557370	-1.453734	-0.570651
C18	C	-0.380695	-1.245374	-0.506148
C19	C	-0.380710	-1.128597	-0.506165
C20	C	-0.586071	-1.518253	-0.506148
C21	C	-0.673927	-1.518311	-0.506175
C22	C	-0.380627	-1.518420	-0.780199
C23	C	-0.380594	-1.518454	-0.896976
C24	C	-1.045411	-1.451262	-0.573350
C25	C	-1.045394	-1.585713	-0.439088
C26	C	-0.962848	-1.585676	-0.439078
C27	C	-0.921580	-1.518430	-0.506205
C28	C	-0.962858	-1.451221	-0.573340
C29	C	-0.921565	-1.652877	-0.371936
C30	C	-0.839014	-1.652842	-0.371923
C31	C	-0.797744	-1.585601	-0.439055
C32	C	-0.839026	-1.518389	-0.506195
C33	C	-0.797758	-1.451143	-0.573321
C34	C	-0.839039	-1.383936	-0.640466
C35	C	-0.921588	-1.383979	-0.640473
C36	C	-0.715195	-1.585558	-0.439049
C37	C	-0.715205	-1.451102	-0.573311
C38	C	-0.174536	-1.518458	-0.506207
C39	C	-0.086679	-1.518508	-0.506224
C40	C	-0.380714	-1.792374	-0.506184
C41	C	-0.380719	-1.909151	-0.506192
C42	C	-0.481935	-1.128617	-0.640307
C43	C	-0.532554	-1.073766	-0.707381
C44	C	-0.532564	-0.964045	-0.707394
C45	C	-0.481947	-0.909171	-0.640328
C46	C	-0.431328	-0.964022	-0.573254
C47	C	-0.431326	-1.073746	-0.573246
C48	C	-0.330100	-0.964002	-0.439118
C49	C	-0.330093	-1.073723	-0.439098
C50	C	-0.279483	-0.909128	-0.372052
C51	C	-0.228867	-0.963979	-0.304971
C52	C	-0.228860	-1.073707	-0.304960
C53	C	-0.279474	-1.128574	-0.372024
C54	C	-0.279505	-1.652900	-0.897025
C55	C	-0.228949	-1.720138	-0.951910
C56	C	-0.228920	-1.720164	-1.061632
C57	C	-0.279451	-1.652942	-1.116471
C58	C	-0.330007	-1.585704	-1.061586
C59	C	-0.330032	-1.585688	-0.951861
C60	C	-0.431091	-1.451254	-1.061537
C61	C	-0.431125	-1.451233	-0.951815
C62	C	-0.481622	-1.384033	-1.116375
C63	C	-0.532183	-1.316799	-1.061490
C64	C	-0.532211	-1.316777	-0.951762
C65	C	-0.481681	-1.383995	-0.896930
C66	C	-0.380724	-1.518322	-0.233198
C67	C	-0.380535	-1.518492	-0.116422
H68	H	-0.681609	-1.396346	-0.627978
H69	H	-0.187806	-1.774867	-0.907249
H70	H	-0.481938	-1.217958	-0.640296
H71	H	-0.573317	-1.262067	-1.106149
H72	H	-1.079000	-1.640456	-0.384431
Br73	Br	-0.600820	-1.225511	-0.877284
Br74	Br	-0.659174	-1.676744	-0.347917
H75	H	-0.279475	-1.217915	-0.372019
Br76	Br	-0.481947	-0.760262	-0.640365
Br77	Br	-0.160293	-1.811394	-1.136124
Br78	Br	-0.783023	-1.292669	-0.731555
Br79	Br	-0.601249	-1.148240	-0.798390
H80	H	-0.481702	-1.383988	-0.807588
Br81	Br	-0.601254	-0.889600	-0.798433
H82	H	-0.279491	-0.819787	-0.372072
H83	H	-0.955206	-1.329262	-0.695138
H84	H	-0.187655	-0.919293	-0.250376
Br85	Br	-0.481582	-1.384064	-1.265285
Br86	Br	-1.101431	-1.360064	-0.664480
H87	H	-0.187634	-1.118360	-0.250347
H88	H	-0.955171	-1.707618	-0.317278
Br89	Br	-0.279555	-1.652889	-0.748116
H90	H	-0.805408	-1.707566	-0.317251
Br91	Br	-0.279402	-1.652965	-1.265380
