data_functionalizedCrystal
_audit_creation_method	'MofGen! by Chris Wilmer'
_symmetry_space_group_name_H-M	'P1'
_symmetry_Int_Tables_number	1
_symmetry_cell_setting	triclinic
loop_
_symmetry_equiv_pos_as_xyz
  x,y,z
_cell_length_a	10.723023
_cell_length_b	14.044220
_cell_length_c	9.798715
_cell_angle_alpha	89.995620
_cell_angle_beta	89.997007
_cell_angle_gamma	88.828213
loop_
_atom_site_label
_atom_site_type_symbol
_atom_site_fract_x
_atom_site_fract_y
_atom_site_fract_z
O1	O	1.670497	0.133037	-0.113481
O2	O	1.308619	0.145772	-0.113487
O3	O	1.484126	0.001384	-0.113471
O4	O	1.494990	0.277424	-0.113498
O5	O	1.484113	0.001383	0.113511
O6	O	1.308606	0.145771	0.113495
O7	O	1.670484	0.133035	0.113501
Zn8	Zn	1.489543	0.139403	0.149536
Zn9	Zn	1.489560	0.139404	-0.149523
O10	O	1.494977	0.277423	0.113484
C11	C	1.262020	0.144845	0.000003
C12	C	1.123188	0.142072	0.000001
C13	C	1.061286	0.140836	0.117584
C14	C	0.917796	0.137970	0.117584
C15	C	1.479364	-0.033962	0.000021
C16	C	1.465180	-0.139280	0.000022
C17	C	1.439248	-0.332109	0.000002
C18	C	1.539850	-0.389089	-0.000000
C19	C	1.525421	-0.496386	-0.000012
C20	C	1.453675	-0.224802	0.000013
C21	C	1.717083	0.133963	0.000007
C22	C	1.855915	0.136735	0.000000
C23	C	1.499739	0.312769	-0.000010
C24	C	1.513923	0.418087	-0.000021
N25	N	1.489540	0.139401	0.353636
N26	N	1.489572	0.139399	-0.353622
C27	C	1.563415	0.078646	0.578575
C28	C	1.563398	0.078647	0.421412
H29	H	0.864561	0.136912	0.218251
H30	H	0.909141	0.137804	-0.100672
C31	C	1.052144	0.140852	-0.134193
C32	C	0.972300	0.220834	-0.141337
C33	C	0.906850	0.219748	-0.264948
H34	H	1.004514	0.084679	-0.139394
H35	H	1.109545	0.142051	-0.208004
H36	H	0.914906	0.219626	-0.067546
H37	H	1.019897	0.277018	-0.136160
H38	H	0.964251	0.220947	-0.338759
H39	H	0.859228	0.163573	-0.270138
H40	H	0.852677	0.274019	-0.269817
H41	H	1.426345	0.191416	0.588076
C42	C	1.132422	0.142107	0.251718
C43	C	1.212310	0.062149	0.258833
C44	C	1.277870	0.063295	0.382372
H45	H	1.075127	0.140914	0.325605
H46	H	1.180021	0.198315	0.256793
H47	H	1.164715	0.005957	0.253771
H48	H	1.269630	0.063325	0.184975
H49	H	1.325469	0.119503	0.387447
H50	H	1.220566	0.062105	0.456249
H51	H	1.332090	0.009050	0.387211
C52	C	1.669038	-0.346511	0.000087
C53	C	1.657857	-0.247008	0.000134
C54	C	1.776832	-0.207749	0.000238
H55	H	1.713240	-0.366903	-0.079041
H56	H	1.713123	-0.366973	0.079277
H57	H	1.613791	-0.226554	-0.079047
H58	H	1.613677	-0.226590	0.079257
H59	H	1.820917	-0.228212	0.079428
H60	H	1.821025	-0.228148	-0.078891
H61	H	1.769262	-0.140233	0.000283
H62	H	1.342291	-0.363909	-0.000003
H63	H	1.626652	0.026635	0.636875
H64	H	1.626613	0.026630	0.363104
H65	H	1.426312	0.191414	0.411935
