data_functionalizedCrystal
_audit_creation_method	'MofGen! by Chris Wilmer'
_symmetry_space_group_name_H-M	'P1'
_symmetry_Int_Tables_number	1
_symmetry_cell_setting	triclinic
loop_
_symmetry_equiv_pos_as_xyz
  x,y,z
_cell_length_a	8.559649
_cell_length_b	13.101039
_cell_length_c	8.559649
_cell_angle_alpha	87.109304
_cell_angle_beta	110.221336
_cell_angle_gamma	87.116543
loop_
_atom_site_label
_atom_site_type_symbol
_atom_site_fract_x
_atom_site_fract_y
_atom_site_fract_z
O1	O	-2.136905	0.085216	-0.065084
O2	O	-1.636905	0.585216	0.434916
O3	O	-1.661420	0.085216	0.018697
O4	O	-1.161420	0.585216	0.518697
O5	O	-1.941053	0.085215	-0.260936
O6	O	-1.441053	0.585215	0.239064
O7	O	-1.857272	0.085217	0.214549
O8	O	-1.357272	0.585217	0.714549
O9	O	-1.920986	-0.085215	-0.240843
O10	O	-1.420986	0.414785	0.259157
O11	O	-1.641353	-0.085214	0.038790
O12	O	-1.141353	0.414786	0.538790
O13	O	-2.116838	-0.085214	-0.044991
O14	O	-1.616838	0.414786	0.455009
Zn15	Zn	-1.875909	-0.112273	0.000090
Zn16	Zn	-1.375909	0.387727	0.500090
Zn17	Zn	-1.902348	0.112275	-0.026384
Zn18	Zn	-1.402348	0.612275	0.473616
O19	O	-1.837205	-0.085213	0.234642
O20	O	-1.337205	0.414787	0.734642
C21	C	-1.591077	0.000001	0.035093
C22	C	-1.091077	0.500001	0.535093
C23	C	-1.411378	0.000001	0.053992
C24	C	-0.911378	0.500001	0.553992
N25	N	-1.857877	-0.265522	0.018154
N26	N	-1.357877	0.234478	0.518154
C27	C	-1.833342	-0.474564	0.042747
C28	C	-1.333342	0.025436	0.542747
C29	C	-1.944924	-0.525441	-0.069050
C30	C	-1.444924	-0.025441	0.430950
C31	C	-1.931272	-0.641759	-0.055366
C32	C	-1.431272	-0.141759	0.444634
C33	C	-1.846991	-0.358236	0.029066
C34	C	-1.346991	0.141764	0.529066
C35	C	-1.187180	0.000001	-0.061387
C36	C	-0.687180	0.500001	0.438613
C37	C	-1.366880	0.000001	-0.080286
C38	C	-0.866880	0.500001	0.419714
C39	C	-1.937369	0.000002	-0.311199
C40	C	-1.437369	0.500002	0.188801
C41	C	-1.956269	0.000007	-0.490899
C42	C	-1.456269	0.500007	0.009101
N43	N	-1.920395	0.265524	-0.044463
N44	N	-1.420395	0.765524	0.455537
C45	C	-1.840889	0.000002	0.284904
C46	C	-1.340889	0.500002	0.784904
C47	C	-1.821990	0.000003	0.464603
C48	C	-1.321990	0.500003	0.964603
H49	H	-1.311991	0.000007	0.183419
H50	H	-0.811991	0.500007	0.683419
H51	H	-1.727569	-0.518361	0.148730
H52	H	-1.227569	-0.018361	0.648730
C53	C	-1.647153	0.000013	-0.401155
C54	C	-1.147153	0.500013	0.098845
H55	H	-1.656960	0.000027	-0.293938
H56	H	-1.156960	0.500027	0.206062
H57	H	-1.581313	-0.059418	-0.406327
H58	H	-1.081313	0.440582	0.093673
H59	H	-1.595330	0.059455	-0.420363
H60	H	-1.095330	0.559455	0.079637
H61	H	-2.085696	-0.000001	-0.590286
H62	H	-1.585696	0.499999	-0.090286
H63	H	-1.466258	0.000007	-0.209706
H64	H	-0.966258	0.500007	0.290294
H65	H	-2.050706	-0.481639	-0.175038
H66	H	-1.550706	0.018361	0.324962
