data_functionalizedCrystal
_audit_creation_method	'MofGen! by Chris Wilmer'
_symmetry_space_group_name_H-M	'P1'
_symmetry_Int_Tables_number	1
_symmetry_cell_setting	triclinic
loop_
_symmetry_equiv_pos_as_xyz
  x,y,z
_cell_length_a	15.944551
_cell_length_b	15.995350
_cell_length_c	14.472310
_cell_angle_alpha	89.998838
_cell_angle_beta	90.008536
_cell_angle_gamma	83.495556
loop_
_atom_site_label
_atom_site_type_symbol
_atom_site_fract_x
_atom_site_fract_y
_atom_site_fract_z
O1	O	-1.114529	-0.107983	-0.076740
O2	O	-0.869979	-0.121297	-0.076762
O3	O	-0.998939	0.007247	-0.076750
O4	O	-0.985569	-0.236527	-0.076753
O5	O	-0.998906	0.007240	0.076932
O6	O	-0.869946	-0.121304	0.076920
O7	O	-1.114496	-0.107990	0.076942
Cu8	Cu	-0.992218	-0.114648	0.090963
Cu9	Cu	-0.992257	-0.114639	-0.090784
O10	O	-0.985536	-0.236535	0.076929
C11	C	-0.838668	-0.120748	0.000076
C12	C	-0.745422	-0.119091	0.000067
C13	C	-1.145806	-0.108539	0.000102
C14	C	-1.239052	-0.110196	0.000105
C15	C	-0.998370	0.038438	0.000090
C16	C	-0.996712	0.131389	0.000084
C17	C	-0.530570	-0.035452	0.000086
C18	C	-0.469564	-0.074288	-0.075688
C19	C	-0.574697	-0.116093	0.000078
C20	C	-0.469554	-0.074314	0.075831
C21	C	-0.409784	-0.113192	0.000093
C22	C	-0.514919	-0.154950	-0.075758
C23	C	-0.514915	-0.154966	0.075828
C24	C	-0.453926	-0.193859	0.000036
C25	C	-0.669699	-0.117762	0.000069
C26	C	-0.314783	-0.111529	0.000095
C27	C	-0.986105	-0.267726	0.000088
C28	C	-0.987762	-0.360676	0.000087
N29	N	-0.992196	-0.114654	0.218794
C30	C	-0.990761	0.469137	0.000087
C31	C	-0.898918	0.421708	-0.000266
C32	C	-0.900576	0.325017	0.000080
C33	C	-0.993713	0.301576	0.000085
C34	C	-1.038995	0.342647	0.087847
C35	C	-1.036687	0.439283	0.087921
C36	C	-1.038622	0.439649	-0.086844
C37	C	-1.038601	0.342704	-0.088004
C38	C	-0.995386	0.206878	0.000087
C39	C	-0.989091	0.563835	0.000091
N40	N	-0.992285	-0.114627	-0.218614
C41	C	-0.992256	-0.114636	0.592885
C42	C	-0.923020	-0.183187	0.553713
C43	C	-0.923180	-0.183437	0.446625
C44	C	-0.992226	-0.114645	0.407294
C45	C	-1.079868	-0.133731	0.446139
C46	C	-1.079479	-0.134219	0.553261
C47	C	-0.974631	-0.026795	0.553414
C48	C	-0.972621	-0.027381	0.446286
C49	C	-0.992214	-0.114648	0.302406
C50	C	-0.992273	-0.114634	0.697774
H51	H	-0.563907	0.031473	-0.000007
F52	F	-0.443301	-0.029705	-0.159422
F53	F	-0.541210	-0.199515	0.159564
H54	H	-0.534918	-0.189029	-0.139889
F55	F	-0.995662	0.306706	-0.172878
F56	F	-0.443285	-0.029720	0.159561
F57	F	-0.410578	-0.281424	-0.000018
F58	F	-0.854050	0.287872	-0.082150
F59	F	-1.128432	0.324180	0.092121
H60	H	-0.857663	-0.172001	0.579495
H61	H	-1.095771	-0.197063	0.419303
F62	F	-1.148781	-0.071376	0.587132
F63	F	-0.850952	0.445934	-0.082530
H64	H	-0.862359	0.441301	0.062313
H65	H	-0.864714	0.297152	0.063093
F66	F	-0.993489	0.463204	0.173662
H67	H	-1.007517	0.314264	0.153154
H68	H	-1.104116	0.471527	0.091906
H69	H	-1.132619	-0.085131	0.420661
H70	H	-1.008609	0.460194	-0.153363
H71	H	-1.106522	0.327338	-0.093300
H72	H	-1.106338	0.471406	-0.087431
H73	H	-0.858034	-0.172064	0.420363
F74	F	-0.937864	-0.268646	0.413115
F75	F	-0.937535	-0.267912	0.588870
F76	F	-1.099779	-0.217952	0.585910
F77	F	-0.892897	-0.002821	0.588759
H78	H	-0.908150	-0.012896	0.420898
H79	H	-1.019773	0.026022	0.419517
H80	H	-1.025121	0.024218	0.578745
