data_functionalizedCrystal
_audit_creation_method	'MofGen! by Chris Wilmer'
_symmetry_space_group_name_H-M	'P1'
_symmetry_Int_Tables_number	1
_symmetry_cell_setting	triclinic
loop_
_symmetry_equiv_pos_as_xyz
  x,y,z
_cell_length_a	11.169417
_cell_length_b	25.639240
_cell_length_c	11.169409
_cell_angle_alpha	89.953594
_cell_angle_beta	89.979436
_cell_angle_gamma	90.033637
loop_
_atom_site_label
_atom_site_type_symbol
_atom_site_fract_x
_atom_site_fract_y
_atom_site_fract_z
Zn1	Zn	1.834784	-0.208097	-0.678425
Zn2	Zn	2.334784	0.291903	-0.178425
Zn3	Zn	1.834592	-0.295547	-0.477692
Zn4	Zn	2.334592	0.204453	0.022308
Zn5	Zn	1.634067	-0.208128	-0.477759
Zn6	Zn	2.134067	0.291872	0.022241
Zn7	Zn	1.633999	-0.295504	-0.678337
Zn8	Zn	2.133999	0.204496	-0.178337
O9	O	1.734361	-0.251819	-0.578053
O10	O	2.234361	0.248181	-0.078053
O11	O	2.002708	-0.219701	-0.651806
O12	O	2.502708	0.280299	-0.151806
O13	O	1.807941	-0.283981	-0.309751
O14	O	2.307941	0.216019	0.190249
O15	O	1.660802	-0.134959	-0.504443
O16	O	2.160802	0.365041	-0.004443
O17	O	2.002567	-0.283951	-0.504329
O18	O	2.502567	0.216049	-0.004329
O19	O	1.808268	-0.134935	-0.651871
O20	O	2.308268	0.365065	-0.151871
O21	O	1.660616	-0.219756	-0.309801
O22	O	2.160616	0.280244	0.190199
O23	O	1.466109	-0.219714	-0.504358
O24	O	1.966109	0.280286	-0.004358
O25	O	1.660685	-0.283878	-0.846299
O26	O	2.160685	0.216122	-0.346299
O27	O	1.466058	-0.283909	-0.651721
O28	O	1.966058	0.216091	-0.151721
O29	O	1.808201	-0.219660	-0.846363
O30	O	2.308201	0.280340	-0.346363
O31	O	1.807874	-0.368706	-0.504244
O32	O	2.307874	0.131294	-0.004244
O33	O	1.660499	-0.368675	-0.651656
O34	O	2.160499	0.131325	-0.151656
C35	C	1.422536	-0.251811	-0.578038
C36	C	1.922536	0.248189	-0.078038
C37	C	1.289136	-0.251820	-0.578060
C38	C	1.789136	0.248180	-0.078060
C39	C	1.734191	-0.387661	-0.577959
C40	C	2.234191	0.112339	-0.077959
C41	C	1.734228	-0.445776	-0.577959
C42	C	2.234228	0.054224	-0.077959
C43	C	1.811184	-0.806088	-0.654958
C44	C	2.311184	-0.306088	-0.154958
C45	C	1.811220	-0.860692	-0.654982
C46	C	2.311220	-0.360692	-0.154982
O47	O	1.876449	-0.888886	-0.720352
O48	O	2.376449	-0.388886	-0.220352
N49	N	1.734527	-0.888058	-0.578169
N50	N	2.234527	-0.388058	-0.078169
C51	C	1.657786	-0.860816	-0.501336
C52	C	2.157786	-0.360816	-0.001336
O53	O	1.592555	-0.889107	-0.436004
O54	O	2.092555	-0.389107	0.063996
C55	C	1.657745	-0.806213	-0.501318
C56	C	2.157745	-0.306213	-0.001318
C57	C	1.734451	-0.778850	-0.578128
C58	C	2.234451	-0.278850	-0.078128
C59	C	1.887883	-0.778725	-0.731762
C60	C	2.387883	-0.278725	-0.231762
C61	C	1.887849	-0.724124	-0.731735
C62	C	2.387849	-0.224124	-0.231735
C63	C	1.811116	-0.696887	-0.654905
C64	C	2.311116	-0.196887	-0.154905
C65	C	1.734417	-0.724250	-0.578101
C66	C	2.234417	-0.224250	-0.078101
C67	C	1.580999	-0.778973	-0.424492
C68	C	2.080999	-0.278973	0.075508
C69	C	1.580964	-0.724366	-0.424482
C70	C	2.080964	-0.224366	0.075518
C71	C	1.657670	-0.697003	-0.501291
C72	C	2.157670	-0.197003	-0.001291
C73	C	1.657650	-0.642412	-0.501245
C74	C	2.157650	-0.142412	-0.001245
N75	N	1.734343	-0.615046	-0.578058
N76	N	2.234343	-0.115046	-0.078058
C77	C	1.811075	-0.642283	-0.654888
C78	C	2.311075	-0.142283	-0.154888
C79	C	1.657875	-0.975487	-0.501380
C80	C	2.157875	-0.475487	-0.001380
C81	C	1.657921	-1.030089	-0.501390
C82	C	2.157921	-0.530089	-0.001390
C83	C	1.811354	-1.029961	-0.655038
C84	C	2.311354	-0.529961	-0.155038
C85	C	1.811313	-0.975358	-0.655021
C86	C	2.311313	-0.475358	-0.155021
C87	C	1.734568	-0.948121	-0.578193
C88	C	2.234568	-0.448121	-0.078193
C89	C	1.810999	-0.527618	-0.654826
C90	C	2.310999	-0.027618	-0.154826
C91	C	1.810961	-0.473013	-0.654789
C92	C	2.310961	0.026987	-0.154789
C93	C	1.657525	-0.473146	-0.501146
C94	C	2.157525	0.026854	-0.001146
C95	C	1.657566	-0.527747	-0.501178
C96	C	2.157566	-0.027747	-0.001178
C97	C	1.734307	-0.554981	-0.578028
C98	C	2.234307	-0.054981	-0.078028
O99	O	1.592451	-0.614183	-0.435912
O100	O	2.092451	-0.114183	0.064088
O101	O	1.876284	-0.613986	-0.720220
O102	O	2.376284	-0.113986	-0.220220
C103	C	2.047403	-0.251827	-0.578070
C104	C	2.547403	0.248173	-0.078070
C105	C	2.180803	-0.251831	-0.578077
C106	C	2.680803	0.248169	-0.078077
C107	C	1.734457	-0.251761	-0.891096
C108	C	2.234457	0.248239	-0.391096
C109	C	1.734498	-0.251736	-1.024496
C110	C	2.234498	0.248264	-0.524496
C111	C	1.734564	-0.115446	-0.578174
C112	C	2.234564	0.384554	-0.078174
C113	C	1.734650	-0.057332	-0.578225
C114	C	2.234650	0.442668	-0.078225
C115	C	1.734334	-0.251839	-0.266229
C116	C	2.234334	0.248161	0.233771
C117	C	1.734526	-0.251716	-0.132829
C118	C	2.234526	0.248284	0.367171
H119	H	1.873429	-0.450736	-0.717337
H120	H	2.373429	0.049264	-0.217337
H121	H	1.873773	-0.953082	-0.717566
H122	H	2.373773	-0.453082	-0.217566
N123	N	1.498200	-0.694987	-0.341606
N124	N	1.998200	-0.194987	0.158394
H125	H	1.442541	-0.672331	-0.390319
H126	H	1.942541	-0.172331	0.109681
H127	H	1.449699	-0.720641	-0.292969
H128	H	1.949699	-0.220641	0.207031
H129	H	1.873480	-0.549787	-0.717413
H130	H	2.373480	-0.049787	-0.217413
H131	H	1.873832	-1.052148	-0.717600
H132	H	2.373832	-0.552148	-0.217600
H133	H	1.595115	-0.550027	-0.438624
H134	H	2.095115	-0.050027	0.061376
H135	H	1.595053	-0.450961	-0.438588
H136	H	2.095053	0.049039	0.061412
H137	H	1.950306	-0.701849	-0.794283
H138	H	2.450306	-0.201849	-0.294283
H139	H	1.950368	-0.800896	-0.794333
H140	H	2.450368	-0.300896	-0.294333
N141	N	1.575110	-0.946117	-0.418487
N142	N	2.075110	-0.446117	0.081513
H143	H	1.623897	-0.923467	-0.362902
H144	H	2.123897	-0.423467	0.137098
H145	H	1.519455	-0.923492	-0.467276
H146	H	2.019455	-0.423492	0.032724
H147	H	1.595472	-1.052364	-0.438832
H148	H	2.095472	-0.552364	0.061168
N149	N	1.498258	-0.808471	-0.341643
N150	N	1.998258	-0.308471	0.158357
H151	H	1.412497	-0.798987	-0.360222
H152	H	1.912497	-0.298987	0.139778
H153	H	1.510007	-0.847188	-0.353332
H154	H	2.010007	-0.347188	0.146668
