data_functionalizedCrystal
_audit_creation_method	'MofGen! by Chris Wilmer'
_symmetry_space_group_name_H-M	'P1'
_symmetry_Int_Tables_number	1
_symmetry_cell_setting	triclinic
loop_
_symmetry_equiv_pos_as_xyz
  x,y,z
_cell_length_a	13.339070
_cell_length_b	13.339070
_cell_length_c	12.376457
_cell_angle_alpha	75.601917
_cell_angle_beta	75.589755
_cell_angle_gamma	64.370706
loop_
_atom_site_label
_atom_site_type_symbol
_atom_site_fract_x
_atom_site_fract_y
_atom_site_fract_z
O1	O	1.511964	-0.535384	-0.094035
O2	O	1.197153	-0.463125	-0.094030
O3	O	1.318428	-0.341851	-0.094029
O4	O	1.390689	-0.656659	-0.094037
O5	O	1.288108	-0.372116	0.093983
O6	O	1.166834	-0.493391	0.093982
O7	O	1.481644	-0.565650	0.093976
Zn8	Zn	1.319425	-0.534326	0.123830
Zn9	Zn	1.359372	-0.494450	-0.123884
O10	O	1.360369	-0.686924	0.093975
C11	C	1.140878	-0.466052	-0.000024
C12	C	1.018364	-0.429669	-0.000022
C13	C	0.732980	-0.712564	-0.000047
C14	C	0.848090	-0.746750	-0.000052
C15	C	0.890664	-0.667483	-0.000044
C16	C	0.818117	-0.554023	-0.000031
C17	C	0.702998	-0.519831	-0.000035
C18	C	0.860682	-0.474751	-0.000032
C19	C	0.788135	-0.361291	-0.000020
C20	C	0.673027	-0.327105	-0.000022
C21	C	0.630453	-0.406372	-0.000030
C22	C	0.975801	-0.508942	-0.000029
C23	C	0.945819	-0.316210	-0.000017
C24	C	0.830709	-0.282023	-0.000012
C25	C	1.291062	-0.315868	-0.000024
C26	C	1.254679	-0.193353	-0.000028
C27	C	1.537920	-0.562723	-0.000033
C28	C	1.660435	-0.599105	-0.000042
C29	C	1.387736	-0.712907	-0.000032
C30	C	1.424120	-0.835420	-0.000035
N31	N	1.292170	-0.561541	0.292888
C32	C	1.537579	0.092035	-0.000032
C33	C	1.571765	-0.023075	-0.000022
C34	C	1.492496	-0.065651	-0.000024
C35	C	1.379036	0.006896	-0.000035
C36	C	1.344845	0.122016	-0.000037
C37	C	1.299763	-0.035669	-0.000028
C38	C	1.186303	0.036877	-0.000040
C39	C	1.152118	0.151986	-0.000042
C40	C	1.231386	0.194561	-0.000040
C41	C	1.333954	-0.150790	-0.000027
C42	C	1.141220	-0.120808	-0.000031
C43	C	1.107034	-0.005698	-0.000042
N44	N	1.386634	-0.467227	-0.292942
C45	C	1.449896	-0.404029	0.647875
C46	C	1.468966	-0.384979	0.529535
C47	C	1.424768	-0.429117	0.470367
C48	C	1.361498	-0.492310	0.529551
C49	C	1.342434	-0.511370	0.647902
C50	C	1.317306	-0.536458	0.470395
C51	C	1.254035	-0.599651	0.529579
C52	C	1.234974	-0.618707	0.647918
C53	C	1.279171	-0.574568	0.707086
C54	C	1.336370	-0.517399	0.352044
C55	C	1.228907	-0.624740	0.352071
C56	C	1.209837	-0.643790	0.470411
H57	H	0.771627	-0.189640	-0.000011
C58	C	1.623778	0.138138	-0.000204
C59	C	1.705852	0.116645	-0.096916
C60	C	1.785291	0.159085	-0.097104
H61	H	1.587316	0.217087	-0.000262
H62	H	1.658470	0.102537	0.065327
H63	H	1.671164	0.152249	-0.162430
H64	H	1.742343	0.037705	-0.096879
H65	H	1.819983	0.123485	-0.031572
H66	H	1.748819	0.238033	-0.097158
H67	H	1.840993	0.144499	-0.162715
H68	H	1.387885	-0.465947	0.303867
H69	H	0.698306	-0.777089	-0.000063
C70	C	1.055055	-0.166836	-0.000213
C71	C	1.004181	-0.114204	-0.096926
C72	C	0.924797	-0.156573	-0.097121
H73	H	1.091529	-0.245767	-0.000273
H74	H	0.999223	-0.152328	0.065317
H75	H	1.060004	-0.128721	-0.162439
H76	H	0.967684	-0.035276	-0.096887
H77	H	0.868965	-0.142065	-0.031591
H78	H	0.961280	-0.235503	-0.097178
H79	H	0.890262	-0.120861	-0.162734
H80	H	1.520338	-0.159380	-0.000016
H81	H	1.440298	-0.413604	0.374010
H82	H	0.613963	-0.234717	-0.000025
C83	C	1.537631	-0.316292	0.465486
C84	C	1.572231	-0.281689	0.542628
C85	C	1.635476	-0.218396	0.483666
H86	H	1.601942	-0.361118	0.419305
H87	H	1.492738	-0.251987	0.419355
H88	H	1.617123	-0.345985	0.588740
H89	H	1.507943	-0.236849	0.588812
H90	H	1.590583	-0.154090	0.437535
H91	H	1.699781	-0.263228	0.437487
H92	H	1.658951	-0.194901	0.535997
H93	H	1.059730	0.211050	-0.000042
C94	C	1.497652	-0.355950	0.712180
C95	C	1.409332	-0.283202	0.780119
C96	C	1.453283	-0.238877	0.839365
H97	H	1.546995	-0.415642	0.758426
H98	H	1.538022	-0.315516	0.660028
H99	H	1.368981	-0.323635	0.832264
H100	H	1.359982	-0.223491	0.733901
H101	H	1.493653	-0.198444	0.787214
H102	H	1.502625	-0.298577	0.885605
H103	H	1.393365	-0.189506	0.885460
H104	H	0.984393	-0.695324	-0.000051
C105	C	1.258643	-0.595182	0.835574
C106	C	1.310911	-0.543018	0.874715
C107	C	1.292040	-0.561996	0.993072
H108	H	1.179949	-0.564726	0.862505
H109	H	1.289103	-0.673907	0.862381
H110	H	1.280446	-0.464309	0.847920
H111	H	1.389606	-0.573465	0.847816
H112	H	1.322501	-0.640720	1.019879
H113	H	1.213345	-0.531538	1.019992
H114	H	1.327509	-0.526614	1.019644
C115	C	1.166216	-0.687309	0.711973
C116	C	1.131565	-0.721862	0.634833
C117	C	1.068212	-0.785048	0.693796
H118	H	1.211018	-0.751634	0.758131
H119	H	1.101925	-0.642392	0.758128
H120	H	1.195845	-0.766777	0.588697
H121	H	1.086747	-0.657560	0.588673
H122	H	1.003922	-0.740132	0.739951
H123	H	1.113023	-0.849368	0.739952
H124	H	1.044685	-0.808492	0.641466
C125	C	1.181130	-0.672750	0.287703
C126	C	1.269444	-0.745458	0.219723
C127	C	1.225482	-0.789694	0.160394
H128	H	1.140746	-0.713198	0.339770
H129	H	1.131795	-0.612980	0.241483
H130	H	1.318760	-0.805218	0.265940
H131	H	1.309835	-0.705035	0.167635
H132	H	1.176147	-0.729925	0.114174
H133	H	1.185099	-0.830138	0.212469
H134	H	1.285395	-0.839023	0.114255
H135	H	1.158322	-0.695244	0.518613
H136	H	1.034857	-0.601322	-0.000035
H137	H	0.907151	-0.839128	-0.000071
H138	H	0.536722	-0.378543	-0.000025
H139	H	0.980482	-0.251662	-0.000015
H140	H	1.426333	-0.209846	-0.000018
H141	H	1.664144	-0.082135	-0.000012
H142	H	1.203558	0.288293	-0.000052
H143	H	1.014653	0.053385	-0.000050
