data_functionalizedCrystal
_audit_creation_method	'MofGen! by Chris Wilmer'
_symmetry_space_group_name_H-M	'P1'
_symmetry_Int_Tables_number	1
_symmetry_cell_setting	triclinic
loop_
_symmetry_equiv_pos_as_xyz
  x,y,z
_cell_length_a	16.109301
_cell_length_b	10.654550
_cell_length_c	9.730223
_cell_angle_alpha	89.999807
_cell_angle_beta	90.002516
_cell_angle_gamma	83.973192
loop_
_atom_site_label
_atom_site_type_symbol
_atom_site_fract_x
_atom_site_fract_y
_atom_site_fract_z
O1	O	1.104087	0.161415	-0.114199
O2	O	0.862144	0.181503	-0.114221
O3	O	0.988678	-0.011355	-0.114205
O4	O	0.977553	0.354274	-0.114216
O5	O	0.988677	-0.011351	0.114375
O6	O	0.862143	0.181508	0.114359
O7	O	1.104085	0.161420	0.114381
Zn8	Zn	0.983114	0.171465	0.150662
Zn9	Zn	0.983116	0.171458	-0.150502
O10	O	0.977551	0.354279	0.114364
C11	C	0.987861	-0.058140	0.000084
C12	C	0.985417	-0.197550	0.000079
C13	C	0.831164	0.180692	0.000066
C14	C	0.738854	0.178253	0.000058
C15	C	1.059918	-0.278046	0.000089
C16	C	1.057616	-0.409036	0.000080
C17	C	0.906306	-0.379020	0.000054
C18	C	0.908608	-0.248033	0.000054
C19	C	1.147276	-0.295377	0.000110
C20	C	1.144974	-0.426367	0.000100
C21	C	0.517228	0.287019	0.000071
C22	C	0.430494	0.284717	0.000080
C23	C	0.449008	0.055896	0.000081
C24	C	0.535741	0.058199	0.000082
C25	C	0.569848	0.173764	0.000070
C26	C	0.396382	0.169159	0.000078
C27	C	0.302341	0.166662	0.000087
C28	C	0.663895	0.176262	0.000063
C29	C	1.135066	0.162231	0.000090
C30	C	1.227376	0.164671	0.000089
C31	C	0.978369	0.401063	0.000073
C32	C	0.980813	0.540473	0.000069
N33	N	0.983119	0.171468	0.356198
N34	N	0.983118	0.171445	-0.356038
C35	C	1.039162	0.086099	0.428131
C36	C	1.039160	0.086084	0.572014
C37	C	0.927068	0.256818	0.572018
C38	C	0.927067	0.256826	0.428138
C39	C	1.103881	-0.012469	0.428130
C40	C	1.103878	-0.012485	0.572013
H41	H	0.843771	-0.420139	0.000033
H42	H	0.881424	0.326330	0.369571
H43	H	1.177889	-0.468571	0.095762
H44	H	0.387654	0.376940	0.000083
H45	H	1.181445	-0.266485	-0.095540
H46	H	1.083679	-0.103433	0.616630
O47	O	0.872704	0.339687	0.642116
C48	C	0.884704	0.321351	0.784535
H49	H	0.950533	0.274448	0.804190
H50	H	0.837289	0.258334	0.825352
C51	C	0.792088	0.507413	0.834276
C52	C	0.872942	0.449815	0.858417
H53	H	0.784830	0.586654	0.879852
H54	H	0.784001	0.519765	0.738326
H55	H	0.752584	0.454886	0.868290
H56	H	0.912444	0.502334	0.824388
H57	H	0.881036	0.437475	0.954364
O58	O	0.415736	-0.056248	0.000021
C59	C	0.327900	-0.033999	0.000051
H60	H	0.308098	0.064011	-0.043224
H61	H	0.303727	-0.040078	0.109711
C62	C	0.315677	-0.254258	-0.036444
C63	C	0.291356	-0.133884	-0.089605
H64	H	0.293134	-0.315874	-0.091742
H65	H	0.374854	-0.269249	-0.036459
H66	H	0.295531	-0.259306	0.054939
H67	H	0.311511	-0.128832	-0.180979
H68	H	0.232181	-0.118894	-0.089607
H69	H	0.578586	-0.034032	0.000085
H70	H	1.089686	-0.108809	0.389078
O71	O	1.176393	-0.481092	-0.117766
C72	C	1.129259	-0.430766	-0.230791
H73	H	1.096755	-0.334006	-0.202476
H74	H	1.080483	-0.496507	-0.259141
C75	C	1.227493	-0.536534	-0.388982
C76	C	1.187577	-0.417687	-0.354209
H77	H	1.263464	-0.528472	-0.465115
H78	H	1.259247	-0.570445	-0.312836
H79	H	1.186838	-0.591306	-0.412599
H80	H	1.228231	-0.362923	-0.330577
H81	H	1.155831	-0.383767	-0.430354
O82	O	1.180411	-0.253093	0.117788
C83	C	1.180835	-0.120983	0.110810
H84	H	1.131524	-0.080465	0.034297
H85	H	1.244951	-0.097444	0.075876
C86	C	1.221859	-0.112969	0.347709
C87	C	1.161291	-0.063203	0.253743
H88	H	1.209808	-0.077327	0.435877
H89	H	1.221577	-0.201975	0.352410
H90	H	1.275285	-0.093350	0.318580
H91	H	1.107869	-0.082836	0.282863
H92	H	1.161563	0.025801	0.249050
H93	H	0.544995	0.381119	0.000071
H94	H	1.164243	0.017300	0.383509
H95	H	1.167768	0.008167	0.611069
H96	H	0.847942	-0.182496	0.000026
