data_functionalizedCrystal
_audit_creation_method	'MofGen! by Chris Wilmer'
_symmetry_space_group_name_H-M	'P1'
_symmetry_Int_Tables_number	1
_symmetry_cell_setting	triclinic
loop_
_symmetry_equiv_pos_as_xyz
  x,y,z
_cell_length_a	14.628931
_cell_length_b	27.440280
_cell_length_c	27.440280
_cell_angle_alpha	90.008003
_cell_angle_beta	60.006359
_cell_angle_gamma	59.998398
loop_
_atom_site_label
_atom_site_type_symbol
_atom_site_fract_x
_atom_site_fract_y
_atom_site_fract_z
Zr1	Zr	1.000459	0.469502	-0.063890
O2	O	1.191164	0.391682	-0.141709
O3	O	0.809754	0.493357	-0.040034
O4	O	1.000437	0.493356	-0.141697
O5	O	1.000499	0.391684	0.040147
O6	O	1.000419	0.573559	-0.141687
O7	O	1.000482	0.391683	-0.040047
O8	O	0.659322	0.573561	0.040169
O9	O	1.341596	0.391682	-0.141709
O10	O	0.888181	0.563386	-0.029852
O11	O	0.888207	0.503533	0.029988
O12	O	1.112711	0.503531	-0.089707
O13	O	1.112738	0.443678	-0.029867
Zr14	Zr	1.000459	0.597418	0.064026
Zr15	Zr	1.000431	0.597416	-0.063874
Zr16	Zr	1.000487	0.469503	0.064010
Zr17	Zr	1.240380	0.469502	-0.063889
Zr18	Zr	0.760538	0.597417	0.064025
O19	O	1.191164	0.573562	0.040170
O20	O	1.191124	0.573559	-0.141686
O21	O	1.191204	0.391684	0.040147
O22	O	0.809754	0.675238	0.141845
O23	O	0.809714	0.675235	-0.040011
O24	O	0.809794	0.493360	0.141822
O25	O	1.000419	0.675235	-0.040011
O26	O	1.000482	0.573563	0.141832
O27	O	1.000499	0.493360	0.141822
O28	O	1.000437	0.675236	0.040182
O29	O	1.341574	0.493357	-0.141696
O30	O	0.659345	0.573563	0.141832
O31	O	0.659322	0.675237	0.141845
O32	O	0.659300	0.675236	0.040182
O33	O	1.341618	0.391683	-0.040046
O34	O	1.341596	0.493358	-0.040033
O35	O	0.888207	0.563388	0.089843
O36	O	0.888181	0.623242	0.030003
O37	O	1.112711	0.563387	-0.029852
O38	O	1.112738	0.503533	0.029988
C39	C	0.700355	0.533459	0.000068
C40	C	0.598502	0.533459	0.000067
C41	C	0.474333	0.575450	0.042058
C42	C	0.369061	0.575451	0.042059
C43	C	1.000494	0.373458	0.000048
C44	C	1.000506	0.319156	0.000041
C45	C	0.883235	0.013702	0.031328
C46	C	0.883228	-0.037317	0.031333
O47	O	0.783552	-0.037133	0.057923
N48	N	1.000429	-0.094077	0.000089
C49	C	1.117646	-0.099819	-0.031157
O50	O	1.217334	-0.152782	-0.057732
C51	C	1.117651	-0.048801	-0.031159
C52	C	1.000442	0.007959	0.000082
C53	C	0.766035	0.070459	0.062567
C54	C	0.766043	0.121474	0.062561
C55	C	0.883250	0.115731	0.031315
C56	C	1.000450	0.058974	0.000076
C57	C	1.234866	-0.054543	-0.062401
C58	C	1.234862	-0.003519	-0.062400
C59	C	1.117653	0.053241	-0.031159
C60	C	1.117665	0.104246	-0.031176
N61	N	1.000463	0.161007	0.000068
C62	C	0.883256	0.166749	0.031314
C63	C	1.117625	-0.206957	-0.031151
C64	C	1.117620	-0.257975	-0.031154
C65	C	0.883202	-0.195469	0.031338
C66	C	0.883208	-0.144451	0.031337
C67	C	1.000423	-0.150197	0.000093
C68	C	0.883281	0.273882	0.031298
C69	C	0.883299	0.324898	0.031287
C70	C	1.117716	0.262388	-0.031202
C71	C	1.117699	0.211376	-0.031194
C72	C	1.000471	0.217127	0.000061
O73	O	1.217290	0.104108	-0.057750
O74	O	0.783585	0.219715	0.057890
C75	C	1.300564	0.533460	0.000068
C76	C	1.402417	0.533460	0.000068
C77	C	1.000424	0.533457	-0.159914
C78	C	1.000412	0.533457	-0.214211
C79	C	1.000424	0.693461	0.000088
C80	C	1.000412	0.747764	0.000095
C81	C	1.117683	0.502221	-0.582189
C82	C	1.117690	0.502223	-0.633211
O83	O	1.217367	0.475670	-0.686170
N84	N	1.000489	0.533465	-0.627485
C85	C	0.883273	0.564713	-0.570732
O86	O	0.783584	0.591288	-0.570546
C87	C	0.883267	0.564715	-0.519711
C88	C	1.000476	0.533465	-0.525442
C89	C	1.234883	0.470975	-0.587917
C90	C	1.234875	0.470972	-0.536898
C91	C	1.117668	0.502216	-0.480151
C92	C	1.000468	0.533463	-0.474423
C93	C	0.766052	0.595966	-0.462959
C94	C	0.766056	0.595965	-0.411937
C95	C	0.883265	0.564715	-0.417668
C96	C	0.883254	0.564704	-0.366657
N97	N	1.000455	0.533462	-0.372383
C98	C	1.117662	0.502218	-0.429130
C99	C	0.883294	0.564709	-0.677882
C100	C	0.883298	0.564704	-0.728901
C101	C	1.117716	0.502215	-0.791377
C102	C	1.117711	0.502216	-0.740356
C103	C	1.000495	0.533466	-0.683608
C104	C	1.117637	0.502214	-0.321984
C105	C	1.117619	0.502213	-0.270958
C106	C	0.883202	0.564705	-0.208487
C107	C	0.883219	0.564704	-0.259508
C108	C	1.000447	0.533458	-0.316259
O109	O	0.783628	0.591246	-0.313679
O110	O	1.217334	0.475654	-0.429305
C111	C	1.000494	0.533462	0.160050
C112	C	1.000506	0.533463	0.214347
C113	C	0.700319	0.693460	0.000088
C114	C	0.598455	0.747763	0.000094
C115	C	0.700390	0.533462	0.160050
C116	C	0.598549	0.533462	0.214346
C117	C	0.700355	0.693463	0.160070
C118	C	0.598502	0.747766	0.214373
C119	C	1.300564	0.373457	-0.159934
C120	C	1.402417	0.319153	-0.214237
C121	C	1.300599	0.373459	0.000048
C122	C	1.402464	0.319156	0.000042
C123	C	1.300529	0.533458	-0.159914
C124	C	1.402369	0.533457	-0.214211
C125	C	0.550618	0.742021	-0.031152
C126	C	0.454918	0.793039	-0.031157
C127	C	0.407051	0.849799	0.000087
C128	C	0.454897	0.855541	0.031334
C129	C	0.550601	0.804523	0.031335
C130	C	0.550723	0.564706	0.271094
C131	C	0.455047	0.564705	0.322116
C132	C	0.407190	0.533462	0.316389
C133	C	0.455025	0.502214	0.259636
C134	C	0.550707	0.502213	0.208615
C135	C	0.550657	0.804516	0.208639
C136	C	0.454969	0.855545	0.259658
C137	C	0.407121	0.849823	0.316410
C138	C	0.454975	0.793067	0.322144
C139	C	0.550668	0.742039	0.271125
C140	C	1.450273	0.262403	-0.208503
C141	C	1.545991	0.211374	-0.259522
C142	C	1.593844	0.217096	-0.316274
C143	C	1.545984	0.273852	-0.322008
C144	C	1.450274	0.324880	-0.270989
C145	C	1.450310	0.324899	0.031282
C146	C	1.546036	0.273880	0.031274
C147	C	1.593907	0.217120	0.000028
C148	C	1.546056	0.211378	-0.031217
C149	C	1.450339	0.262396	-0.031211
C150	C	1.450195	0.564706	-0.208465
C151	C	1.545873	0.564717	-0.259478
C152	C	1.593729	0.533475	-0.316235
C153	C	1.545894	0.502225	-0.321979
C154	C	1.450212	0.502218	-0.270967
H155	H	0.445964	0.611398	0.078009
H156	H	1.330332	0.445532	-0.634120
H157	H	0.589634	0.476772	0.162411
H158	H	0.670586	0.075145	0.088014
H159	H	1.584943	0.165166	-0.254842
H160	H	0.415910	0.901762	0.056771
H161	H	0.262582	0.611402	0.078008
H162	H	0.329121	0.891337	0.000081
H163	H	1.584958	0.278504	-0.368222
H164	H	0.787775	0.590141	-0.162275
H165	H	0.415974	0.788352	-0.056602
H166	H	1.411245	0.590146	-0.162255
H167	H	1.213140	0.165159	-0.056641
H168	H	0.416047	0.476777	0.254983
H169	H	0.589591	0.695808	-0.056601
H170	H	1.671641	0.533486	-0.357767
H171	H	1.584874	0.476789	-0.368198
H172	H	0.787765	-0.190801	0.056778
H173	H	1.411310	0.371087	-0.275666
H174	H	0.787766	-0.098238	0.056781
H175	H	1.411283	0.476769	-0.275654
H176	H	0.416015	0.901753	0.254979
H177	H	1.584810	0.590163	-0.254789
H178	H	1.411385	0.257712	-0.056649
H179	H	1.671847	0.175583	0.000028
H180	H	1.671777	0.175542	-0.357812
H181	H	0.508894	0.497510	-0.035885
H182	H	1.585048	0.165157	-0.056656
H183	H	0.589601	0.809187	0.162433
H184	H	0.626871	0.497509	-0.035880
H185	H	0.787855	0.590143	-0.724228
H186	H	0.787849	0.371114	0.056729
H187	H	0.589538	0.809207	0.056783
H188	H	0.416111	0.590153	0.368322
H189	H	0.329280	0.533468	0.357939
H190	H	0.589677	0.590148	0.275768
H191	H	0.329201	0.891378	0.357948
H192	H	1.330311	-0.100751	-0.087841
H193	H	0.416003	0.788417	0.368358
H194	H	1.584980	0.278567	0.056719
H195	H	0.670599	0.167686	0.087998
H196	H	1.213064	-0.304187	-0.056601
H197	H	1.213081	-0.211644	-0.056596
H198	H	0.787823	0.278573	0.056749
H199	H	1.330315	-0.008204	-0.087835
H200	H	1.411341	0.371111	0.056730
H201	H	1.213069	0.476763	-0.275631
H202	H	1.411316	0.257732	-0.162297
H203	H	1.213144	0.257723	-0.056644
H204	H	1.213096	0.476771	-0.368187
H205	H	1.330319	0.445528	-0.541572
H206	H	0.589611	0.695833	0.275803
H207	H	1.213153	0.476770	-0.745028
H208	H	0.787837	0.590154	-0.631675
H209	H	1.213153	0.476773	-0.837592
H210	H	0.670608	0.621413	-0.458281
H211	H	0.670603	0.621413	-0.365731
H212	H	0.787778	0.590142	-0.254841
