data_functionalizedCrystal
_audit_creation_method	'MofGen! by Chris Wilmer'
_symmetry_space_group_name_H-M	'P1'
_symmetry_Int_Tables_number	1
_symmetry_cell_setting	triclinic
loop_
_symmetry_equiv_pos_as_xyz
  x,y,z
_cell_length_a	12.827893
_cell_length_b	12.827892
_cell_length_c	12.827885
_cell_angle_alpha	90.032871
_cell_angle_beta	89.983682
_cell_angle_gamma	89.974292
loop_
_atom_site_label
_atom_site_type_symbol
_atom_site_fract_x
_atom_site_fract_y
_atom_site_fract_z
Zn1	Zn	1.597615	0.415905	-0.590744
Zn2	Zn	1.847615	0.665905	-0.340744
Zn3	Zn	2.097615	0.915905	-0.090744
Zn4	Zn	2.347615	1.165905	0.159256
Zn5	Zn	1.597486	0.590682	-0.415995
Zn6	Zn	1.847486	0.840682	-0.165995
Zn7	Zn	2.097486	1.090682	0.084005
Zn8	Zn	2.347486	1.340682	0.334005
Zn9	Zn	1.422856	0.415964	-0.416027
Zn10	Zn	1.672856	0.665964	-0.166027
Zn11	Zn	1.922856	0.915964	0.083973
Zn12	Zn	2.172856	1.165964	0.333973
Zn13	Zn	1.422819	0.590613	-0.590704
Zn14	Zn	1.672819	0.840613	-0.340704
Zn15	Zn	1.922819	1.090613	-0.090704
Zn16	Zn	2.172819	1.340613	0.159296
O17	O	1.510194	0.503291	-0.503367
O18	O	1.760194	0.753291	-0.253367
O19	O	2.010194	1.003291	-0.003367
O20	O	2.260194	1.253291	0.246633
O21	O	1.743834	0.439094	-0.567567
O22	O	1.993834	0.689094	-0.317567
O23	O	2.243834	0.939094	-0.067567
O24	O	2.493834	1.189094	0.182433
O25	O	1.574283	0.567559	-0.269763
O26	O	1.824283	0.817559	-0.019763
O27	O	2.074283	1.067559	0.230237
O28	O	2.324283	1.317559	0.480237
O29	O	1.446108	0.269720	-0.439233
O30	O	1.696108	0.519720	-0.189233
O31	O	1.946108	0.769720	0.060767
O32	O	2.196108	1.019720	0.310767
O33	O	1.743739	0.567502	-0.439179
O34	O	1.993739	0.817502	-0.189179
O35	O	2.243739	1.067502	0.060821
O36	O	2.493739	1.317502	0.310821
O37	O	1.574503	0.269677	-0.567597
O38	O	1.824503	0.519677	-0.317597
O39	O	2.074503	0.769677	-0.067597
O40	O	2.324503	1.019677	0.182403
O41	O	1.445983	0.439195	-0.269786
O42	O	1.695983	0.689195	-0.019786
O43	O	1.945983	0.939195	0.230214
O44	O	2.195983	1.189195	0.480214
O45	O	1.276615	0.439128	-0.439194
O46	O	1.526615	0.689128	-0.189194
O47	O	1.776615	0.939128	0.060806
O48	O	2.026615	1.189128	0.310806
O49	O	1.446044	0.567384	-0.736945
O50	O	1.696044	0.817384	-0.486945
O51	O	1.946044	1.067384	-0.236945
O52	O	2.196044	1.317384	0.013055
O53	O	1.276588	0.567441	-0.567529
O54	O	1.526588	0.817441	-0.317529
O55	O	1.776588	1.067441	-0.067529
O56	O	2.026588	1.317441	0.182471
O57	O	1.574466	0.439026	-0.736975
O58	O	1.824466	0.689026	-0.486975
O59	O	2.074466	0.939026	-0.236975
O60	O	2.324466	1.189026	0.013025
O61	O	1.574246	0.736909	-0.439140
O62	O	1.824246	0.986909	-0.189140
O63	O	2.074246	1.236909	0.060860
O64	O	2.324246	1.486909	0.310860
O65	O	1.445919	0.736858	-0.567498
O66	O	1.695919	0.986858	-0.317498
O67	O	1.945919	1.236858	-0.067498
O68	O	2.195919	1.486858	0.182502
C69	C	1.238684	0.503284	-0.503361
C70	C	1.488684	0.753284	-0.253361
C71	C	1.738684	1.003284	-0.003361
C72	C	1.988684	1.253284	0.246639
C73	C	1.122531	0.503307	-0.503384
C74	C	1.372531	0.753307	-0.253384
C75	C	1.622531	1.003307	-0.003384
C76	C	1.872531	1.253307	0.246616
C77	C	1.510093	0.774801	-0.503334
C78	C	1.760093	1.024801	-0.253334
C79	C	2.010093	1.274801	-0.003334
C80	C	2.260093	1.524801	0.246666
C81	C	1.510145	0.890954	-0.503355
C82	C	1.760145	1.140954	-0.253355
C83	C	2.010145	1.390954	-0.003355
C84	C	2.260145	1.640954	0.246645
C85	C	1.510265	0.503191	-0.775938
C86	C	1.760265	0.753191	-0.525938
C87	C	2.010265	1.003191	-0.275938
C88	C	2.260265	1.253191	-0.025938
C89	C	1.510295	0.503148	-0.892091
C90	C	1.760295	0.753148	-0.642091
C91	C	2.010295	1.003148	-0.392091
C92	C	2.260295	1.253148	-0.142091
C93	C	1.782764	0.503299	-0.503374
C94	C	2.032764	0.753299	-0.253374
C95	C	2.282764	1.003299	-0.003374
C96	C	2.532764	1.253299	0.246626
C97	C	1.898917	0.503302	-0.503377
C98	C	2.148917	0.753302	-0.253377
C99	C	2.398917	1.003302	-0.003377
C100	C	2.648917	1.253302	0.246623
C101	C	1.950749	0.439770	-0.566901
C102	C	2.200749	0.689770	-0.316901
C103	C	2.450749	0.939770	-0.066901
C104	C	2.700749	1.189770	0.183099
C105	C	2.070799	0.439772	-0.566906
C106	C	2.320799	0.689772	-0.316906
C107	C	2.570799	0.939772	-0.066906
C108	C	2.820799	1.189772	0.183094
C109	C	1.446623	0.942748	-0.566821
C110	C	1.696623	1.192748	-0.316821
C111	C	1.946623	1.442748	-0.066821
C112	C	2.196623	1.692748	0.183179
C113	C	1.446676	1.062799	-0.566844
C114	C	1.696676	1.312799	-0.316844
C115	C	1.946676	1.562799	-0.066844
C116	C	2.196676	1.812799	0.183156
C117	C	1.510290	1.230721	-0.503411
C118	C	1.760290	1.480721	-0.253411
C119	C	2.010290	1.730721	-0.003411
C120	C	2.260290	1.980721	0.246589
C121	C	1.510244	1.114568	-0.503397
C122	C	1.760244	1.364568	-0.253397
C123	C	2.010244	1.614568	-0.003397
C124	C	2.260244	1.864568	0.246603
C125	C	1.573850	0.439620	-0.943890
C126	C	1.823850	0.689620	-0.693890
C127	C	2.073850	0.939620	-0.443890
C128	C	2.323850	1.189620	-0.193890
C129	C	1.573882	0.439575	-1.063941
C130	C	1.823882	0.689575	-0.813941
C131	C	2.073882	0.939575	-0.563941
C132	C	2.323882	1.189575	-0.313941
C133	C	1.510183	0.503316	-0.231857
C134	C	1.760183	0.753316	0.018143
C135	C	2.010183	1.003316	0.268143
C136	C	2.260183	1.253316	0.518143
C137	C	1.510355	0.503064	-0.115705
C138	C	1.760355	0.753064	0.134295
C139	C	2.010355	1.003064	0.384295
C140	C	2.260355	1.253064	0.634295
H141	H	1.906247	0.385380	-0.621288
H142	H	2.156247	0.635380	-0.371288
H143	H	2.406247	0.885380	-0.121288
H144	H	2.656247	1.135380	0.128712
Br145	Br	1.600905	1.040343	-0.412833
Br146	Br	1.850905	1.290343	-0.162833
Br147	Br	2.100905	1.540343	0.087167
Br148	Br	2.350905	1.790343	0.337167
Br149	Br	1.664472	0.348988	-0.869683
Br150	Br	1.914472	0.598988	-0.619683
Br151	Br	2.164472	0.848988	-0.369683
Br152	Br	2.414472	1.098988	-0.119683
H153	H	1.455945	0.557459	-1.071165
H154	H	1.705945	0.807459	-0.821165
H155	H	1.955945	1.057459	-0.571165
H156	H	2.205945	1.307459	-0.321165
Br157	Br	2.145084	0.349099	-0.657550
Br158	Br	2.395084	0.599099	-0.407550
Br159	Br	2.645084	0.849099	-0.157550
Br160	Br	2.895084	1.099099	0.092450
Br161	Br	2.048253	0.593964	-0.412719
Br162	Br	2.298253	0.843964	-0.162719
Br163	Br	2.548253	1.093964	0.087281
Br164	Br	2.798253	1.343964	0.337281
H165	H	1.392195	0.898217	-0.621137
H166	H	1.642195	1.148217	-0.371137
H167	H	1.892195	1.398217	-0.121137
H168	H	2.142195	1.648217	0.128863
H169	H	1.628297	0.385190	-1.108487
H170	H	1.878297	0.635190	-0.858487
H171	H	2.128297	0.885190	-0.608487
H172	H	2.378297	1.135190	-0.358487
Br173	Br	1.356035	1.137030	-0.657423
Br174	Br	1.606035	1.387030	-0.407423
Br175	Br	1.856035	1.637030	-0.157423
Br176	Br	2.106035	1.887030	0.092577
Br177	Br	1.419632	0.593740	-0.966298
Br178	Br	1.669632	0.843740	-0.716298
Br179	Br	1.919632	1.093740	-0.466298
Br180	Br	2.169632	1.343740	-0.216298
H181	H	1.943419	0.557701	-0.449000
H182	H	2.193419	0.807701	-0.199000
H183	H	2.443419	1.057701	0.051000
H184	H	2.693419	1.307701	0.301000
H185	H	1.564565	0.935488	-0.449033
H186	H	1.814565	1.185488	-0.199033
H187	H	2.064565	1.435488	0.050967
H188	H	2.314565	1.685488	0.300967
