data_functionalizedCrystal
_audit_creation_method	'MofGen! by Chris Wilmer'
_symmetry_space_group_name_H-M	'P1'
_symmetry_Int_Tables_number	1
_symmetry_cell_setting	triclinic
loop_
_symmetry_equiv_pos_as_xyz
  x,y,z
_cell_length_a	19.077236
_cell_length_b	19.076808
_cell_length_c	11.169409
_cell_angle_alpha	87.662578
_cell_angle_beta	87.675582
_cell_angle_gamma	94.519737
loop_
_atom_site_label
_atom_site_type_symbol
_atom_site_fract_x
_atom_site_fract_y
_atom_site_fract_z
Zn1	Zn	1.066497	-0.237396	-0.735519
Zn2	Zn	1.061663	-0.355317	-0.526401
Zn3	Zn	0.948597	-0.242165	-0.526424
Zn4	Zn	0.943837	-0.359983	-0.718628
O5	O	1.005148	-0.298715	-0.626743
O6	O	1.164508	-0.249090	-0.714839
O7	O	1.046634	-0.340351	-0.358449
O8	O	0.968252	-0.142874	-0.561240
O9	O	1.160957	-0.335726	-0.561200
O10	O	1.054872	-0.139370	-0.714861
O11	O	0.963565	-0.257218	-0.358466
O12	O	0.849313	-0.261742	-0.544861
O13	O	0.960139	-0.343678	-0.888823
O14	O	0.845816	-0.348303	-0.686072
O15	O	1.050257	-0.253614	-0.901234
O16	O	1.042018	-0.454594	-0.544821
O17	O	0.955451	-0.458022	-0.686049
C18	C	0.821985	-0.306046	-0.613637
C19	C	0.743626	-0.309200	-0.608057
C20	C	0.708660	-0.265646	-0.685539
C21	C	0.635034	-0.268605	-0.680286
C22	C	0.596375	-0.315123	-0.597556
C23	C	0.631346	-0.358679	-0.520066
C24	C	0.704971	-0.355715	-0.525314
C25	C	0.375982	-0.328812	-0.573266
C26	C	0.302351	-0.331774	-0.568026
C27	C	0.306044	-0.241699	-0.728246
C28	C	0.379670	-0.238743	-0.733491
C29	C	0.414635	-0.282296	-0.655997
N30	N	0.521117	-0.318151	-0.592187
N31	N	0.489892	-0.279264	-0.661360
C32	C	0.997713	-0.481889	-0.613627
C33	C	0.994596	-0.560248	-0.608061
C34	C	1.038197	-0.595179	-0.685488
C35	C	1.035266	-0.668806	-0.680260
C36	C	0.988737	-0.707502	-0.597598
C37	C	0.945131	-0.672566	-0.520168
C38	C	0.948060	-0.598941	-0.525402
C39	C	0.975144	-0.927902	-0.573364
C40	C	0.972221	-1.001533	-0.568133
C41	C	1.062355	-0.997767	-0.728228
C42	C	1.065282	-0.924140	-0.733450
C43	C	1.021674	-0.889211	-0.656024
N44	N	0.985741	-0.782761	-0.592250
N45	N	1.024666	-0.813954	-0.661379
C46	C	1.189027	-0.291356	-0.639901
C47	C	1.267385	-0.288220	-0.645508
C48	C	1.005206	-0.298635	-0.939795
C49	C	1.005230	-0.298600	-1.073199
C50	C	1.012632	-0.114826	-0.639937
C51	C	1.015822	-0.036463	-0.645560
C52	C	1.005134	-0.298743	-0.314915
C53	C	1.005254	-0.298573	-0.181536
H54	H	0.411141	-0.200866	-0.800863
H55	H	0.939638	-0.899469	-0.510319
H56	H	0.606568	-0.233140	-0.743383
C57	C	1.083229	-0.707226	-0.765427
H58	H	1.111365	-0.673635	-0.815396
H59	H	1.055106	-0.737028	-0.813715
H60	H	1.112818	-0.734710	-0.719707
C61	C	0.893947	-0.715127	-0.429243
H62	H	0.868395	-0.683777	-0.383888
H63	H	0.919786	-0.742767	-0.376874
H64	H	0.862073	-0.745085	-0.470879
C65	C	0.921040	-1.044100	-0.477200
H66	H	0.925551	-1.092951	-0.485163
H67	H	0.874144	-1.033974	-0.492159
H68	H	0.931866	-1.031644	-0.398168
C69	C	0.743438	-0.403623	-0.440087
H70	H	0.792823	-0.395191	-0.455052
H71	H	0.729461	-0.451490	-0.453262
H72	H	0.731768	-0.393732	-0.359355
H73	H	0.277567	-0.206240	-0.791336
H74	H	0.912554	-0.570501	-0.462354
H75	H	0.740131	-0.227768	-0.752910
C76	C	0.259825	-0.382940	-0.477015
H77	H	0.210969	-0.378471	-0.485000
H78	H	0.272284	-0.372081	-0.398005
H79	H	0.269977	-0.429839	-0.491914
C80	C	0.588827	-0.409848	-0.429063
H81	H	0.620199	-0.435359	-0.383662
H82	H	0.558875	-0.441753	-0.470640
H83	H	0.561184	-0.383998	-0.376726
C84	C	1.089379	-0.552616	-0.776414
H85	H	1.084885	-0.503764	-0.768437
H86	H	1.078559	-0.565069	-0.855443
H87	H	1.136275	-0.562752	-0.761440
C88	C	1.116475	-0.881579	-0.824360
H89	H	1.142023	-0.912928	-0.869725
H90	H	1.148342	-0.851627	-0.782710
H91	H	1.090642	-0.853933	-0.876740
C92	C	0.414434	-0.376721	-0.488029
H93	H	0.380863	-0.404853	-0.438017
H94	H	0.444232	-0.348562	-0.439788
H95	H	0.441924	-0.406317	-0.533702
H96	H	1.097857	-1.026214	-0.791265
