data_functionalizedCrystal
_audit_creation_method	'MofGen! by Chris Wilmer'
_symmetry_space_group_name_H-M	'P1'
_symmetry_Int_Tables_number	1
_symmetry_cell_setting	triclinic
loop_
_symmetry_equiv_pos_as_xyz
  x,y,z
_cell_length_a	14.853569
_cell_length_b	14.853567
_cell_length_c	12.376457
_cell_angle_alpha	101.296114
_cell_angle_beta	78.692705
_cell_angle_gamma	83.635248
loop_
_atom_site_label
_atom_site_type_symbol
_atom_site_fract_x
_atom_site_fract_y
_atom_site_fract_z
O1	O	1.213620	0.100464	-0.093944
O2	O	0.951163	0.114481	-0.093957
O3	O	1.089403	-0.023758	-0.093953
O4	O	1.075381	0.238703	-0.093947
O5	O	1.054855	0.010755	0.094058
O6	O	0.916616	0.148994	0.094055
O7	O	1.179073	0.134976	0.094067
Zn8	Zn	1.042359	0.147465	0.123912
Zn9	Zn	1.087877	0.101993	-0.123801
O10	O	1.040833	0.273215	0.094064
C11	C	0.900301	0.131102	0.000047
C12	C	0.800219	0.129196	0.000042
C13	C	0.763843	0.046185	0.000036
C14	C	0.742551	0.210420	0.000053
C15	C	0.648516	0.208634	0.000054
C16	C	0.612141	0.125622	0.000048
C17	C	0.669800	0.044396	0.000041
C18	C	0.590848	0.289860	0.000073
C19	C	0.496807	0.288077	0.000075
C20	C	0.460432	0.205063	0.000061
C21	C	0.518097	0.123834	0.000053
C22	C	0.481722	0.040822	0.000047
C23	C	0.539387	-0.040410	0.000030
C24	C	0.633424	-0.038618	0.000027
C25	C	0.366395	0.203271	0.000065
C26	C	0.387678	0.039034	0.000051
C27	C	1.071495	-0.040091	0.000049
C28	C	1.069593	-0.140176	0.000039
C29	C	0.979424	-0.552707	0.000056
C30	C	1.143655	-0.573986	0.000064
C31	C	1.145446	-0.479954	0.000057
C32	C	1.064225	-0.422293	0.000052
C33	C	0.981212	-0.458665	0.000053
C34	C	1.228456	-0.443572	0.000068
C35	C	1.230250	-0.349534	0.000062
C36	C	1.149029	-0.291873	0.000049
C37	C	1.066013	-0.328251	0.000049
C38	C	0.984792	-0.270591	0.000043
C39	C	0.901776	-0.306968	0.000035
C40	C	0.899991	-0.401005	0.000040
C41	C	1.150814	-0.197837	0.000044
C42	C	0.986580	-0.176548	0.000040
C43	C	1.229935	0.118355	0.000061
C44	C	1.330019	0.120259	0.000059
C45	C	1.058742	0.289548	0.000059
C46	C	1.060645	0.389632	0.000062
N47	N	1.011301	0.178498	0.292969
N48	N	1.118943	0.070953	-0.292859
C49	C	1.191039	-0.001102	0.647959
C50	C	1.212771	-0.022822	0.529619
C51	C	1.162405	0.027506	0.470451
C52	C	1.090303	0.099558	0.529634
C53	C	1.068573	0.121285	0.647985
C54	C	1.039940	0.149893	0.470477
C55	C	0.967838	0.221945	0.529660
C56	C	0.946111	0.243668	0.647999
C57	C	0.996477	0.193340	0.707167
C58	C	1.061670	0.128166	0.352126
C59	C	0.939205	0.250552	0.352152
C60	C	0.917472	0.272273	0.470491
H61	H	0.920439	-0.129607	0.000031
C62	C	0.343206	0.358264	0.000075
C63	C	0.433428	0.377361	0.000079
H64	H	0.304079	0.413386	0.000080
H65	H	0.344221	0.312202	-0.065486
H66	H	0.320128	0.336268	0.065642
H67	H	0.456510	0.399351	-0.065493
H68	H	0.432417	0.423439	0.065646
H69	H	0.680383	-0.104752	0.000016
H70	H	0.835644	-0.260007	0.000039
H71	H	1.180103	0.009818	0.374094
H72	H	0.911835	-0.582331	0.000045
H73	H	1.297846	-0.319924	0.000068
H74	H	1.271477	-0.081485	0.481437
H75	H	0.620471	0.357445	0.000085
H76	H	1.120376	0.069501	0.303950
C77	C	0.824327	-0.535703	0.000064
C78	C	0.808744	-0.440990	0.000047
H79	H	0.767992	-0.560386	0.000080
H80	H	0.869811	-0.567520	-0.065495
H81	H	0.845732	-0.543432	0.065633
H82	H	0.787345	-0.433261	-0.065526
H83	H	0.763245	-0.409163	0.065614
H84	H	0.358071	-0.028567	0.000040
H85	H	1.232045	-0.042068	0.696141
C86	C	1.032027	0.157827	0.876680
C87	C	0.972593	0.217221	0.837253
H88	H	1.017286	0.172575	0.956990
H89	H	1.024529	0.095278	0.849915
H90	H	1.094575	0.165361	0.849888
H91	H	0.910046	0.209682	0.864038
H92	H	0.980084	0.279785	0.864029
C93	C	0.827240	0.362459	0.636136
C94	C	0.866862	0.322873	0.713055
H95	H	0.778312	0.411353	0.676299
H96	H	0.873278	0.386483	0.589971
H97	H	0.803243	0.316388	0.589982
H98	H	0.890864	0.368942	0.759203
H99	H	0.820815	0.298851	0.759238
H100	H	0.319446	0.269411	0.000088
H101	H	0.509759	-0.108000	0.000018
C102	C	0.944218	0.348780	0.219069
C103	C	0.883836	0.305881	0.287126
H104	H	0.910040	0.382931	0.178916
H105	H	0.973297	0.389751	0.265230
H106	H	0.990259	0.302747	0.166890
H107	H	0.837799	0.351914	0.339311
H108	H	0.854742	0.264906	0.240961
H109	H	0.810799	-0.019953	0.000018
H110	H	0.772172	0.278006	0.000065
C111	C	1.339475	-0.579413	-0.096574
C112	C	1.317728	-0.506953	0.000077
H113	H	1.394593	-0.618541	-0.096570
H114	H	1.289783	-0.614526	-0.096572
H115	H	1.348812	-0.554310	-0.162129
H116	H	1.308384	-0.532056	0.065633
H117	H	1.367431	-0.471835	0.000086
C118	C	1.312969	-0.228320	0.000052
C119	C	1.242057	-0.157851	0.000044
H120	H	1.369302	-0.203635	0.000042
H121	H	1.296809	-0.252510	0.065617
H122	H	1.320896	-0.276599	-0.065511
H123	H	1.234125	-0.109575	0.065612
H124	H	1.258220	-0.133647	-0.065527
H125	H	1.209780	-0.620937	0.000078
H126	H	0.858765	0.330939	0.518693
