data_functionalizedCrystal
_audit_creation_method	'MofGen! by Chris Wilmer'
_symmetry_space_group_name_H-M	'P1'
_symmetry_Int_Tables_number	1
_symmetry_cell_setting	triclinic
loop_
_symmetry_equiv_pos_as_xyz
  x,y,z
_cell_length_a	25.639239
_cell_length_b	12.645331
_cell_length_c	12.645323
_cell_angle_alpha	89.977324
_cell_angle_beta	90.031874
_cell_angle_gamma	89.962335
loop_
_atom_site_label
_atom_site_type_symbol
_atom_site_fract_x
_atom_site_fract_y
_atom_site_fract_z
Zn1	Zn	-0.208161	-1.620577	0.599395
Zn2	Zn	-0.295600	-1.620393	0.422113
Zn3	Zn	-0.208179	-1.443291	0.422139
Zn4	Zn	-0.295566	-1.443208	0.599328
O5	O	-0.251876	-1.531867	0.510744
O6	O	-0.219767	-1.768900	0.575895
O7	O	-0.284025	-1.596858	0.273769
O8	O	-0.135011	-1.466920	0.445691
O9	O	-0.284008	-1.768765	0.445647
O10	O	-0.134998	-1.597171	0.575920
O11	O	-0.219797	-1.466742	0.273788
O12	O	-0.219764	-1.294933	0.445627
O13	O	-0.283949	-1.466778	0.747685
O14	O	-0.283967	-1.294872	0.575807
O15	O	-0.219734	-1.597090	0.747733
O16	O	-0.368760	-1.596778	0.445582
O17	O	-0.368735	-1.466600	0.575782
C18	C	-0.251864	-1.256438	0.510713
C19	C	-0.251871	-1.138607	0.510725
C20	C	-0.387719	-1.531689	0.510695
C21	C	-0.445833	-1.531710	0.510710
C22	C	-0.251836	-1.531945	0.787249
C23	C	-0.251819	-1.531979	0.905079
C24	C	-0.806196	-1.599827	0.443064
C25	C	-0.860801	-1.599869	0.443079
O26	O	-0.889038	-1.657600	0.385511
N27	N	-0.888115	-1.532054	0.510814
C28	C	-0.860823	-1.464201	0.578547
O29	O	-0.889070	-1.406523	0.636163
C30	C	-0.806219	-1.464166	0.578538
C31	C	-0.778908	-1.531978	0.510790
C32	C	-0.778884	-1.667635	0.375323
C33	C	-0.724284	-1.667592	0.375308
C34	C	-0.696995	-1.599742	0.443034
C35	C	-0.724307	-1.531935	0.510775
C36	C	-0.778928	-1.396319	0.646275
C37	C	-0.724321	-1.396290	0.646260
C38	C	-0.697009	-1.464102	0.578513
C39	C	-0.642418	-1.464042	0.578485
N40	N	-0.615103	-1.531857	0.510750
C41	C	-0.642392	-1.599707	0.443024
C42	C	-0.975493	-1.464281	0.578564
C43	C	-1.030096	-1.464309	0.578569
C44	C	-1.030070	-1.599979	0.443101
C45	C	-0.975466	-1.599944	0.443092
C46	C	-0.948179	-1.532096	0.510828
C47	C	-0.527727	-1.599611	0.442997
C48	C	-0.473122	-1.599560	0.442984
C49	C	-0.473152	-1.463894	0.578455
C50	C	-0.527753	-1.463942	0.578464
C51	C	-0.555039	-1.531809	0.510731
O52	O	-0.614146	-1.406343	0.636027
O53	O	-0.614138	-1.657385	0.385428
C54	C	-0.115503	-1.532075	0.510816
C55	C	-0.057389	-1.532164	0.510846
C56	C	-0.251889	-1.808372	0.510775
C57	C	-0.251895	-1.926203	0.510788
C58	C	-0.211295	-0.971047	0.429281
C59	C	-0.211400	-1.093606	0.428922
C60	C	-0.306949	-1.094046	0.480197
C61	C	-0.306727	-0.971448	0.479641
C62	C	-0.237893	-0.971468	0.623013
C63	C	-0.236663	-1.094075	0.622389
C64	C	-0.251879	-1.531850	0.235314
C65	C	-0.251749	-1.532023	0.117485
C66	C	-0.292026	-1.449747	1.072613
C67	C	-0.292225	-1.449962	0.950053
C68	C	-0.266773	-1.643667	0.949595
C69	C	-0.267025	-1.643216	1.072194
C70	C	-0.196432	-1.503578	1.072291
C71	C	-0.196764	-1.501086	0.949684
H72	H	-0.549937	-1.654878	0.387844
H73	H	-1.052298	-1.655230	0.387959
C74	C	-0.155952	-0.931281	0.454849
C75	C	-0.144324	-0.811823	0.455176
C76	C	-0.088980	-0.772049	0.480748
C77	C	-0.045264	-0.851733	0.505994
C78	C	-0.056891	-0.971199	0.505669
C79	C	-0.112235	-1.010973	0.480096
H80	H	-0.176686	-0.752829	0.436486
H81	H	-0.080373	-0.683612	0.480990
H82	H	-0.004295	-0.822290	0.524925
H83	H	-0.024529	-1.030193	0.524358
H84	H	-0.120842	-1.099410	0.479855
H85	H	-0.220447	-0.940192	0.346607
H86	H	-0.220654	-1.122877	0.345759
C87	C	-0.321652	-1.675815	1.110825
C88	C	-0.369665	-1.609520	1.079652
C89	C	-0.424292	-1.642131	1.118269
C90	C	-0.430907	-1.741037	1.188058
C91	C	-0.382893	-1.807337	1.219235
C92	C	-0.328265	-1.774726	1.180618
H93	H	-0.364769	-1.536299	1.027986
H94	H	-0.459836	-1.593051	1.095190
H95	H	-0.471346	-1.765177	1.216645
H96	H	-0.387788	-1.880558	1.270900
H97	H	-0.292722	-1.823807	1.203697
H98	H	-1.052328	-1.409080	0.633725
H99	H	-0.306787	-1.668196	0.918897
H100	H	-0.182801	-1.423555	1.103198
C101	C	-0.277837	-0.932294	0.705065
C102	C	-0.310896	-1.012490	0.767498
C103	C	-0.350840	-0.973311	0.849542
C104	C	-0.357726	-0.853935	0.869153
C105	C	-0.324666	-0.773731	0.806719
C106	C	-0.284721	-0.812910	0.724675
H107	H	-0.305799	-1.100866	0.752983
H108	H	-0.375313	-1.032684	0.895760
H109	H	-0.387295	-0.824932	0.929887
H110	H	-0.329762	-0.685355	0.821234
H111	H	-0.260248	-0.753537	0.678457
H112	H	-0.338001	-0.941780	0.536418
H113	H	-0.702050	-1.722813	0.320146
C114	C	-0.348911	-1.133422	0.557869
C115	C	-0.333615	-1.206671	0.650142
C116	C	-0.375576	-1.246049	0.727815
C117	C	-0.432832	-1.212177	0.713215
C118	C	-0.448130	-1.138924	0.620937
C119	C	-0.406170	-1.099546	0.543264
H120	H	-0.291229	-1.231749	0.660953
H121	H	-0.364251	-1.300276	0.796125
H122	H	-0.463894	-1.241327	0.770713
H123	H	-0.490517	-1.113846	0.610126
H124	H	-0.417494	-1.045319	0.474955
C125	C	-0.323267	-1.135434	0.370550
C126	C	-0.286717	-1.209605	0.308621
C127	C	-0.303031	-1.250990	0.198972
C128	C	-0.355897	-1.218204	0.151250
C129	C	-0.392451	-1.144029	0.213179
C130	C	-0.376136	-1.102644	0.322829
H131	H	-0.247579	-1.233878	0.343947
H132	H	-0.275971	-1.305899	0.153128
H133	H	-0.367974	-1.248840	0.070081
H134	H	-0.431588	-1.119756	0.177853
H135	H	-0.403196	-1.047735	0.368672
H136	H	-0.702106	-1.341041	0.701423
C137	C	-0.156221	-1.134307	0.454751
C138	C	-0.110049	-1.104694	0.382781
C139	C	-0.054865	-1.145382	0.408601
C140	C	-0.045853	-1.215681	0.506393
C141	C	-0.092026	-1.245297	0.578370
C142	C	-0.147210	-1.204610	0.552549
H143	H	-0.116720	-1.052651	0.310384
H144	H	-0.020685	-1.123457	0.355319
H145	H	-0.005002	-1.245800	0.525507
H146	H	-0.085355	-1.297341	0.650767
H147	H	-0.181390	-1.226534	0.605832
C148	C	-0.945479	-1.389628	0.653067
C149	C	-0.907998	-1.306394	0.607049
C150	C	-0.877988	-1.231743	0.681553
C151	C	-0.885459	-1.240326	0.802075
C152	C	-0.922942	-1.323563	0.848100
C153	C	-0.952952	-1.398214	0.773596
H154	H	-0.902467	-1.300037	0.517826
H155	H	-0.850241	-1.170125	0.647482
H156	H	-0.863244	-1.185065	0.857227
H157	H	-0.928474	-1.329920	0.937323
H158	H	-0.980699	-1.459832	0.807667
C159	C	-0.557802	-1.389352	0.652982
C160	C	-0.595404	-1.306180	0.606994
C161	C	-0.625450	-1.231600	0.681524
C162	C	-0.617892	-1.240193	0.802041
C163	C	-0.580288	-1.323368	0.848036
C164	C	-0.550243	-1.397947	0.773506
H165	H	-0.601000	-1.299816	0.517774
H166	H	-0.653287	-1.170028	0.647475
H167	H	-0.640134	-1.184984	0.857213
H168	H	-0.574692	-1.329731	0.937256
H169	H	-0.522405	-1.459519	0.807555
H170	H	-0.450886	-1.654780	0.387812
C171	C	-0.184583	-0.929775	0.660525
C172	C	-0.175825	-0.810036	0.673696
C173	C	-0.122514	-0.768341	0.711196
C174	C	-0.077960	-0.846385	0.735523
C175	C	-0.086717	-0.966132	0.722352
C176	C	-0.140028	-1.007826	0.684853
H177	H	-0.208808	-0.752256	0.655687
H178	H	-0.116032	-0.679696	0.720946
H179	H	-0.038496	-0.815520	0.763282
H180	H	-0.053734	-1.023911	0.740361
H181	H	-0.146510	-1.096471	0.675103
C182	C	-0.279574	-1.338077	0.909394
C183	C	-0.231364	-1.319791	0.839166
C184	C	-0.218710	-1.207900	0.798520
C185	C	-0.254266	-1.114294	0.828101
C186	C	-0.302479	-1.132577	0.898333
C187	C	-0.315133	-1.244468	0.938979
H188	H	-0.205041	-1.389086	0.817265
H189	H	-0.183020	-1.194367	0.746530
H190	H	-0.244899	-1.031466	0.798012
H191	H	-0.328803	-1.063282	0.920234
H192	H	-0.350824	-1.258001	0.990969
H193	H	-0.450925	-1.408649	0.633594
C194	C	-0.229129	-1.728857	1.112306
C195	C	-0.198736	-1.797443	1.032781
C196	C	-0.160847	-1.883094	1.072889
C197	C	-0.153353	-1.900159	1.192521
C198	C	-0.183747	-1.831572	1.272053
C199	C	-0.221635	-1.745921	1.231946
H200	H	-0.204283	-1.784811	0.944216
H201	H	-0.138347	-1.933866	1.014013
H202	H	-0.125305	-1.963563	1.222211
H203	H	-0.178200	-1.844203	1.360619
H204	H	-0.244135	-1.695149	1.290822
H205	H	-0.282758	-1.366679	1.102089
H206	H	-0.196132	-1.123209	0.645409
C207	C	-0.347082	-1.474854	1.114228
C208	C	-0.355591	-1.569657	1.188705
C209	C	-0.410646	-1.594767	1.230321
C210	C	-0.457193	-1.525074	1.197461
C211	C	-0.448686	-1.430265	1.122979
C212	C	-0.393631	-1.405155	1.081363
H213	H	-0.321132	-1.621253	1.213034
H214	H	-0.416943	-1.664951	1.285457
H215	H	-0.497948	-1.543663	1.228268
H216	H	-0.483144	-1.378669	1.098650
H217	H	-0.387334	-1.334971	1.026227
C218	C	-0.228398	-1.728705	0.910243
C219	C	-0.248480	-1.822645	0.844361
C220	C	-0.210104	-1.907679	0.805007
C221	C	-0.151645	-1.898773	0.831535
C222	C	-0.131560	-1.804829	0.897421
C223	C	-0.169937	-1.719795	0.936775
H224	H	-0.291757	-1.829241	0.824720
H225	H	-0.224972	-1.977222	0.756233
H226	H	-0.123237	-1.961720	0.802402
H227	H	-0.088283	-1.798233	0.917061
H228	H	-0.155068	-1.650252	0.985548
C229	C	-0.181524	-1.390054	0.910369
C230	C	-0.131885	-1.375009	0.843544
C231	C	-0.116648	-1.263978	0.804218
C232	C	-0.151048	-1.167992	0.831718
C233	C	-0.200690	-1.183033	0.898546
C234	C	-0.215928	-1.294065	0.937872
H235	H	-0.106417	-1.446067	0.823184
H236	H	-0.079900	-1.252844	0.754747
H237	H	-0.139769	-1.085800	0.802606
H238	H	-0.226158	-1.111976	0.918906
H239	H	-0.252676	-1.305199	0.987343
C240	C	-0.808895	-1.742276	0.300814
C241	C	-0.801419	-1.733672	0.180295
C242	C	-0.831425	-1.808313	0.105773
C243	C	-0.868906	-1.891557	0.151770
C244	C	-0.876384	-1.900165	0.272296
C245	C	-0.846378	-1.825524	0.346818
H246	H	-0.773672	-1.672046	0.146239
H247	H	-0.825889	-1.801940	0.016552
H248	H	-0.891118	-1.946811	0.096605
H249	H	-0.904131	-1.961791	0.306351
H250	H	-0.851914	-1.831896	0.436039
H251	H	-0.953232	-1.655163	0.387927
H252	H	-0.165168	-1.556637	0.919071
H253	H	-0.801156	-1.341094	0.701438
H254	H	-0.318601	-0.942793	0.397599
H255	H	-0.264076	-1.124713	0.686368
H256	H	-0.166423	-1.563505	1.101312
H257	H	-0.333234	-1.468736	0.920729
