data_functionalizedCrystal
_audit_creation_method	'MofGen! by Chris Wilmer'
_symmetry_space_group_name_H-M	'P1'
_symmetry_Int_Tables_number	1
_symmetry_cell_setting	triclinic
loop_
_symmetry_equiv_pos_as_xyz
  x,y,z
_cell_length_a	23.532407
_cell_length_b	11.792241
_cell_length_c	10.868271
_cell_angle_alpha	90.005281
_cell_angle_beta	89.993225
_cell_angle_gamma	96.478954
loop_
_atom_site_label
_atom_site_type_symbol
_atom_site_fract_x
_atom_site_fract_y
_atom_site_fract_z
O1	O	0.756076	-0.137772	-0.102392
O2	O	0.590331	-0.157706	-0.102379
O3	O	0.677225	0.017526	-0.102377
O4	O	0.669181	-0.313004	-0.102394
O5	O	0.677218	0.017533	0.102267
O6	O	0.590323	-0.157699	0.102265
O7	O	0.756069	-0.137765	0.102253
Zn8	Zn	0.673195	-0.147731	0.134751
Zn9	Zn	0.673204	-0.147740	-0.134877
O10	O	0.669174	-0.312997	0.102251
C11	C	0.569108	-0.157195	-0.000055
C12	C	0.505882	-0.155669	-0.000050
C13	C	0.777291	-0.138276	-0.000074
C14	C	0.840517	-0.139802	-0.000087
C15	C	0.676716	0.059809	-0.000055
C16	C	0.675204	0.185787	-0.000056
C17	C	1.239063	-0.045676	-0.000040
C18	C	1.298471	-0.047094	-0.000034
O19	O	1.334699	0.040162	0.000014
N20	N	1.321715	-0.151269	-0.000043
C21	C	1.285546	-0.254034	-0.000045
O22	O	1.310772	-0.342773	-0.000051
C23	C	1.226139	-0.252615	-0.000042
C24	C	1.202899	-0.148432	-0.000045
C25	C	1.215822	0.058498	-0.000042
C26	C	1.156417	0.059915	-0.000050
C27	C	1.120253	-0.042841	-0.000055
C28	C	1.143494	-0.147015	-0.000053
C29	C	1.189971	-0.355378	-0.000034
C30	C	1.130560	-0.353950	-0.000030
C31	C	1.107320	-0.249768	-0.000034
C32	C	1.047926	-0.248354	-0.000066
N33	N	1.024682	-0.144179	-0.000057
C34	C	1.060846	-0.041422	-0.000052
C35	C	1.410306	-0.257006	-0.000050
C36	C	1.469713	-0.258426	-0.000062
C37	C	1.482634	-0.051485	-0.000049
C38	C	1.423226	-0.050066	-0.000046
C39	C	1.387063	-0.152830	-0.000041
C40	C	0.936092	-0.038454	-0.000069
C41	C	0.876681	-0.037045	-0.000082
C42	C	0.863766	-0.243985	-0.000088
C43	C	0.923171	-0.245394	-0.000082
C44	C	0.959333	-0.142619	-0.000068
O45	O	1.011663	-0.335565	-0.000109
O46	O	1.035612	0.047303	-0.000030
C47	C	0.669683	-0.355280	-0.000074
C48	C	0.671195	-0.481258	-0.000081
N49	N	0.673193	-0.147724	0.318765
C50	C	0.672423	0.416434	-0.000077
C51	C	0.673968	0.288085	-0.000066
N52	N	0.673211	-0.147737	-0.318892
C53	C	0.673201	-0.147737	0.569771
C54	C	0.673195	-0.147734	0.430093
H55	H	0.857763	0.047796	-0.000088
H56	H	1.245261	0.142180	-0.000034
H57	H	1.380865	-0.340694	-0.000055
H58	H	0.942093	-0.330228	-0.000080
N59	N	1.399490	0.056353	-0.000012
N60	N	1.367785	0.080239	0.086263
H61	H	1.351024	0.155403	0.086293
N62	N	1.519589	0.053471	-0.000044
N63	N	1.572629	0.052177	-0.000040
H64	H	1.598731	0.126297	-0.000037
N65	N	1.493457	-0.364836	-0.000056
N66	N	1.546499	-0.366103	-0.000044
H67	H	1.563268	-0.441258	-0.000031
N68	N	1.093629	-0.458935	-0.000015
N69	N	1.114392	-0.551938	-0.000008
H70	H	1.088311	-0.626084	0.000002
N71	N	0.973016	0.066537	-0.000046
N72	N	0.952248	0.159535	-0.000046
H73	H	0.978326	0.233686	-0.000034
N74	N	1.213691	-0.461810	-0.000039
N75	N	1.181384	-0.553538	-0.000037
H76	H	1.198134	-0.628713	-0.000040
N77	N	0.826809	-0.348931	-0.000082
N78	N	0.792211	-0.371201	0.086182
H79	H	0.766107	-0.445319	0.086193
N80	N	1.132692	0.166346	-0.000053
N81	N	1.164998	0.258076	-0.000047
H82	H	1.148246	0.333250	-0.000047
