data_functionalizedCrystal
_audit_creation_method	'MofGen! by Chris Wilmer'
_symmetry_space_group_name_H-M	'P1'
_symmetry_Int_Tables_number	1
_symmetry_cell_setting	triclinic
loop_
_symmetry_equiv_pos_as_xyz
  x,y,z
_cell_length_a	17.038272
_cell_length_b	17.019294
_cell_length_c	9.730223
_cell_angle_alpha	86.116633
_cell_angle_beta	90.002388
_cell_angle_gamma	87.244363
loop_
_atom_site_label
_atom_site_type_symbol
_atom_site_fract_x
_atom_site_fract_y
_atom_site_fract_z
O1	O	1.037219	0.171286	-0.134386
O2	O	0.809590	0.168566	-0.134105
O3	O	0.929755	0.055520	-0.120698
O4	O	0.917054	0.284333	-0.147793
O5	O	0.929747	0.055516	0.107882
O6	O	0.809583	0.168563	0.094476
O7	O	1.037211	0.171283	0.094194
Zn8	Zn	0.923396	0.169922	0.130627
Zn9	Zn	0.923406	0.169927	-0.170537
O10	O	0.917047	0.284329	0.080788
C11	C	0.780460	0.166091	-0.019527
C12	C	0.693674	0.158711	-0.018669
C13	C	0.643502	0.226471	-0.026692
C14	C	0.561957	0.219531	-0.025851
C15	C	0.530586	0.144831	-0.016997
C16	C	0.580765	0.077066	-0.008970
C17	C	0.662308	0.084006	-0.009801
C18	C	0.284849	0.120313	-0.014057
C19	C	0.203300	0.113378	-0.013231
C20	C	0.184498	0.255845	-0.030110
C21	C	0.266043	0.262778	-0.030948
C22	C	0.316215	0.195013	-0.022913
C23	C	0.447235	0.137736	-0.016142
C24	C	0.399564	0.202108	-0.023759
C25	C	0.929269	0.026096	-0.002927
C26	C	0.927825	-0.061571	0.007444
C27	C	0.927152	-0.102751	-0.112282
C28	C	0.925790	-0.185123	-0.102532
C29	C	0.925106	-0.226315	0.026944
C30	C	0.925776	-0.185129	0.146679
C31	C	0.927133	-0.102758	0.136928
C32	C	0.921004	-0.475023	0.062618
C33	C	0.919649	-0.557400	0.072359
C34	C	0.919662	-0.557388	-0.176853
C35	C	0.921023	-0.475016	-0.186592
C36	C	0.921689	-0.433837	-0.066857
C37	C	0.923716	-0.310513	0.036912
C38	C	0.923074	-0.349640	-0.076827
C39	C	1.066341	0.173758	-0.020387
C40	C	1.153128	0.181139	-0.021254
C41	C	0.917532	0.313753	-0.036986
C42	C	0.918977	0.401420	-0.047367
N43	N	0.923395	0.169919	0.336164
N44	N	0.923413	0.169925	-0.376074
C45	C	0.976621	0.119885	0.414023
C46	C	0.976629	0.119886	0.557906
C47	C	0.870181	0.219960	0.546056
C48	C	0.870170	0.219955	0.402177
H49	H	0.521110	0.274709	-0.032385
Br50	Br	1.048853	0.051977	0.324440
Br51	Br	0.924835	-0.241030	0.322399
H52	H	0.325690	0.065133	-0.007513
Br53	Br	1.048864	0.051977	0.663571
H54	H	0.923161	-0.344061	0.142332
H55	H	0.927670	-0.069230	0.234422
H56	H	0.826823	0.260698	0.338779
H57	H	0.826848	0.260700	0.599819
H58	H	0.669037	0.287300	-0.033902
H59	H	0.923625	-0.316098	-0.182246
H60	H	0.291579	0.323607	-0.038174
H61	H	0.143640	0.311015	-0.036648
H62	H	0.555216	0.016243	-0.001741
Br63	Br	0.160726	0.011992	-0.001185
H64	H	0.703158	0.028828	-0.003268
H65	H	0.425110	0.262929	-0.030960
H66	H	0.421684	0.076915	-0.008894
H67	H	0.925245	-0.218648	-0.200026
Br68	Br	0.928089	-0.046856	-0.288008
Br69	Br	0.921957	-0.419119	-0.362317
H70	H	0.919118	-0.590925	-0.274334
Br71	Br	0.918729	-0.613304	0.248089
Br72	Br	0.921892	-0.419147	0.225116
