data_functionalizedCrystal
_audit_creation_method	'MofGen! by Chris Wilmer'
_symmetry_space_group_name_H-M	'P1'
_symmetry_Int_Tables_number	1
_symmetry_cell_setting	triclinic
loop_
_symmetry_equiv_pos_as_xyz
  x,y,z
_cell_length_a	13.635800
_cell_length_b	19.452420
_cell_length_c	11.102300
_cell_angle_alpha	85.479994
_cell_angle_beta	108.605850
_cell_angle_gamma	78.303285
loop_
_atom_site_label
_atom_site_type_symbol
_atom_site_fract_x
_atom_site_fract_y
_atom_site_fract_z
V1	V	2.038355	-0.097183	0.396878
O2	O	2.036118	0.004670	0.388683
O3	O	2.009631	-0.192697	0.394779
O4	O	2.027013	-0.095688	0.569690
O5	O	2.018616	-0.093011	0.212562
V6	V	2.279088	-0.085000	0.374758
O7	O	2.171238	-0.123907	0.445401
O8	O	2.371304	-0.058276	0.326235
O9	O	2.196208	0.010515	0.376857
O10	O	2.340023	-0.186853	0.382952
O11	O	2.357525	-0.089172	0.559074
O12	O	2.178827	-0.086495	0.201946
V13	V	2.538355	-0.097183	0.396878
O14	O	2.536118	0.004670	0.388683
O15	O	2.509631	-0.192697	0.394779
O16	O	2.527013	-0.095688	0.569690
O17	O	2.518616	-0.093011	0.212562
V18	V	2.779088	-0.085000	0.374758
O19	O	2.671238	-0.123907	0.445401
O20	O	2.871304	-0.058276	0.326235
O21	O	2.696208	0.010515	0.376857
O22	O	2.840023	-0.186853	0.382952
O23	O	2.857525	-0.089172	0.559074
O24	O	2.678827	-0.086495	0.201946
C25	C	1.930615	-0.215982	0.388677
C26	C	1.947860	-0.294066	0.388113
C27	C	1.927674	-0.320695	0.271382
C28	C	1.943910	-0.394062	0.270813
C29	C	1.980312	-0.440796	0.386980
C30	C	2.000506	-0.414160	0.503726
C31	C	1.984280	-0.340795	0.504293
N32	N	1.969799	-0.561245	0.468794
N33	N	1.985209	-0.630938	0.468247
C34	C	2.029205	-0.661842	0.385280
N35	N	2.057191	-0.620418	0.302858
N36	N	2.041774	-0.550718	0.303401
C37	C	1.997911	-0.520350	0.386378
C38	C	2.026623	-0.768023	0.267924
C39	C	2.042867	-0.841392	0.267360
C40	C	2.099453	-0.861488	0.500276
C41	C	2.083219	-0.788121	0.500837
C42	C	2.046799	-0.741392	0.384657
C43	C	1.952787	-0.092236	0.611791
C44	C	1.984125	-0.091645	0.753070
C45	C	2.106895	0.033795	0.382955
C46	C	2.079270	0.111879	0.383528
C47	C	2.084724	-0.089949	0.159838
C48	C	2.043004	-0.090536	0.018558
C49	C	2.430615	-0.215982	0.388677
C50	C	2.447860	-0.294066	0.388113
C51	C	2.452787	-0.092236	0.611791
C52	C	2.484125	-0.091645	0.753070
C53	C	2.090225	-0.094876	0.825939
C54	C	2.119665	-0.094319	0.958684
C55	C	1.936894	-0.087303	0.945679
C56	C	1.907455	-0.087855	0.812935
C57	C	2.606895	0.033795	0.382955
C58	C	2.579270	0.111879	0.383528
C59	C	2.584724	-0.089949	0.159838
C60	C	2.543004	-0.090536	0.018558
C61	C	2.547334	-0.334317	0.394220
C62	C	2.563556	-0.407687	0.393710
C63	C	2.480300	-0.440805	0.387082
C64	C	2.380819	-0.400549	0.380978
C65	C	2.364601	-0.327181	0.381498
C66	C	2.652290	0.152129	0.377424
C67	C	2.626341	0.225499	0.377941
C68	C	2.527373	0.258617	0.384571
C69	C	2.454347	0.218362	0.390672
C70	C	2.480294	0.144994	0.390146
C71	C	2.590225	-0.094876	0.825939
C72	C	2.619665	-0.094319	0.958684
C73	C	2.436894	-0.087303	0.945679
C74	C	2.407455	-0.087855	0.812935
H75	H	1.898026	-0.282653	0.176779
H76	H	2.373766	0.245337	0.396069
H77	H	2.030148	-0.452216	0.598310
H78	H	2.420830	0.112226	0.395128
C79	C	2.256722	-0.426531	0.479760
C80	C	2.289305	-0.436957	0.373678
H81	H	2.200228	-0.449012	0.475247
H82	H	2.232818	-0.377081	0.479191
H83	H	2.315020	-0.446439	0.556785
H84	H	2.231009	-0.417044	0.296653
H85	H	2.313206	-0.486417	0.374235
C86	C	1.986804	-0.402883	0.078097
C87	C	1.921712	-0.423343	0.142494
H88	H	1.973092	-0.420957	-0.001124
H89	H	2.059528	-0.421314	0.129913
H90	H	1.971921	-0.352501	0.061809
H91	H	1.936601	-0.473726	0.158789
H92	H	1.848972	-0.404916	0.090666
C93	C	2.645644	-0.038907	0.666694
C94	C	2.674495	-0.099035	0.760128
H95	H	2.697669	-0.041478	0.626064
H96	H	2.641463	0.002597	0.706338
H97	H	2.578240	-0.037071	0.604301
H98	H	2.741896	-0.100869	0.822526
H99	H	2.678688	-0.140551	0.720484
C100	C	2.149452	-0.982871	0.602826
C101	C	2.139469	-0.912851	0.627971
H102	H	2.174154	-1.014581	0.681664
H103	H	2.198930	-0.993035	0.558964
H104	H	2.082033	-0.988484	0.550813
H105	H	2.206889	-0.907236	0.679977
H106	H	2.089989	-0.902683	0.671853
H107	H	2.493520	-0.500547	0.386660
H108	H	2.706059	-0.096949	1.018009
H109	H	2.152657	-0.097961	0.777201
H110	H	2.374477	-0.084219	0.994438
H111	H	2.000722	-0.319115	0.599352
C112	C	2.583870	0.367592	0.378410
C113	C	2.498866	0.339264	0.385160
H114	H	2.566275	0.417379	0.378784
H115	H	2.597165	0.358731	0.301443
H116	H	2.645813	0.345884	0.450439
H117	H	2.436923	0.360969	0.313125
H118	H	2.485556	0.348132	0.462135
C119	C	1.976608	-0.646633	0.165371
C120	C	1.986601	-0.716653	0.140225
H121	H	1.951895	-0.614922	0.086533
H122	H	2.044014	-0.641015	0.217376
H123	H	1.927123	-0.636473	0.209240
H124	H	2.036092	-0.726815	0.096364
H125	H	1.919185	-0.722274	0.088199
H126	H	2.026433	-0.863071	0.172300
H127	H	2.099650	-0.766440	0.595892
C128	C	2.819670	0.166574	0.364860
C129	C	2.761077	0.115738	0.370121
H130	H	2.886827	0.144111	0.360338
H131	H	2.830296	0.188622	0.439827
H132	H	2.781628	0.201460	0.290833
H133	H	2.799115	0.080855	0.444154
H134	H	2.750454	0.093680	0.295146
C135	C	2.661121	-0.484870	0.290664
C136	C	2.672905	-0.451924	0.400396
H137	H	2.728627	-0.512180	0.294793
H138	H	2.632887	-0.449685	0.216120
H139	H	2.613869	-0.515099	0.286672
H140	H	2.720151	-0.421690	0.404382
H141	H	2.701154	-0.487113	0.474959
C142	C	2.285854	-0.145114	0.673673
C143	C	2.290823	-0.084336	0.732860
H144	H	2.213854	-0.142945	0.624243
H145	H	2.313044	-0.186179	0.737618
H146	H	2.327283	-0.147428	0.619000
H147	H	2.249401	-0.082025	0.787540
H148	H	2.263619	-0.043260	0.668906
H149	H	1.821051	-0.085219	0.753600
H150	H	2.206059	-0.096949	1.018009
H151	H	2.615135	-0.307362	0.399609
H152	H	1.874477	-0.084219	0.994438
C153	C	2.177184	-0.289067	0.260952
C154	C	2.255245	-0.282939	0.374760
H155	H	2.109672	-0.261753	0.256791
H156	H	2.174945	-0.337499	0.259710
H157	H	2.193990	-0.272092	0.189171
H158	H	2.238443	-0.299919	0.446542
H159	H	2.257482	-0.234497	0.376014
H160	H	2.685815	0.258265	0.372974
