data_functionalizedCrystal
_audit_creation_method	'MofGen! by Chris Wilmer'
_symmetry_space_group_name_H-M	'P1'
_symmetry_Int_Tables_number	1
_symmetry_cell_setting	triclinic
loop_
_symmetry_equiv_pos_as_xyz
  x,y,z
_cell_length_a	10.723023
_cell_length_b	11.026607
_cell_length_c	9.198806
_cell_angle_alpha	89.998911
_cell_angle_beta	89.996513
_cell_angle_gamma	96.526782
loop_
_atom_site_label
_atom_site_type_symbol
_atom_site_fract_x
_atom_site_fract_y
_atom_site_fract_z
O1	O	1.693992	0.170514	-0.120873
O2	O	1.334363	0.186836	-0.120879
O3	O	1.484372	0.001774	-0.120871
O4	O	1.543983	0.355576	-0.120881
O5	O	1.484356	0.001773	0.120914
O6	O	1.334347	0.186836	0.120906
O7	O	1.693977	0.170513	0.120912
Cu8	Cu	1.514161	0.178674	0.142986
Cu9	Cu	1.514179	0.178675	-0.142953
O10	O	1.543968	0.355576	0.120904
C11	C	1.287599	0.185649	0.000013
C12	C	1.148278	0.182095	0.000011
C13	C	1.086156	0.180511	0.125262
C14	C	0.942160	0.176838	0.125262
C15	C	1.473367	-0.043529	0.000020
C16	C	1.440583	-0.178516	0.000014
C17	C	1.531104	-0.251568	0.000013
C18	C	1.497223	-0.391084	0.000007
C19	C	1.740740	0.171701	0.000017
C20	C	1.880062	0.175254	0.000010
C21	C	1.554973	0.400878	0.000011
C22	C	1.587756	0.535865	0.000007
N23	N	1.514157	0.178673	0.344100
N24	N	1.514190	0.178667	-0.344067
C25	C	1.577067	0.100628	0.416300
C26	C	1.577086	0.100624	0.583713
H27	H	0.933478	0.176624	-0.107227
F28	F	1.306500	-0.231765	-0.000002
H29	H	1.633684	-0.210823	0.000024
F30	F	1.443766	0.266002	0.425297
H31	H	1.460333	0.245492	0.593854
F32	F	1.721847	-0.410893	0.000002
H33	H	1.139575	0.181866	0.232493
H34	H	1.394636	-0.431824	-0.000004
H35	H	0.888737	0.175482	0.232494
H36	H	1.094858	0.180730	-0.107220
H37	H	1.630909	0.033809	0.354177
F38	F	1.647495	0.013291	0.664864
