data_functionalizedCrystal
_audit_creation_method	'MofGen! by Chris Wilmer'
_symmetry_space_group_name_H-M	'P1'
_symmetry_Int_Tables_number	1
_symmetry_cell_setting	triclinic
loop_
_symmetry_equiv_pos_as_xyz
  x,y,z
_cell_length_a	21.295418
_cell_length_b	16.994747
_cell_length_c	21.295411
_cell_angle_alpha	89.994024
_cell_angle_beta	90.043738
_cell_angle_gamma	90.026880
loop_
_atom_site_label
_atom_site_type_symbol
_atom_site_fract_x
_atom_site_fract_y
_atom_site_fract_z
Zn1	Zn	0.962441	-0.313785	0.356354
Zn2	Zn	0.962379	-0.445672	0.251131
Zn3	Zn	0.857164	-0.313822	0.251064
Zn4	Zn	0.857169	-0.445687	0.356327
O5	O	0.909788	-0.379741	0.303719
O6	O	1.050522	-0.331258	0.342435
O7	O	0.948394	-0.428190	0.163032
O8	O	0.871153	-0.203436	0.265015
O9	O	1.050477	-0.428155	0.265128
O10	O	0.948499	-0.203409	0.342371
O11	O	0.871093	-0.331321	0.162984
O12	O	0.769075	-0.331336	0.264988
O13	O	0.871162	-0.428181	0.444420
O14	O	0.769079	-0.428217	0.342324
O15	O	0.948504	-0.331273	0.444440
O16	O	0.948399	-0.556055	0.265101
O17	O	0.871102	-0.556066	0.342389
C18	C	0.746237	-0.379783	0.303647
C19	C	0.676268	-0.379820	0.303631
C20	C	0.909752	-0.584681	0.303747
C21	C	0.909756	-0.674003	0.303746
Zn22	Zn	0.857182	-0.944908	0.251047
Zn23	Zn	0.962469	-0.944850	0.356327
Zn24	Zn	0.857191	-0.813080	0.356316
Zn25	Zn	0.962390	-0.812927	0.251110
O26	O	0.909808	-0.878941	0.303700
O27	O	0.871178	-1.055282	0.264990
O28	O	0.948540	-0.927410	0.444415
O29	O	0.769100	-0.830655	0.342321
O30	O	0.948532	-1.055239	0.342339
O31	O	0.769094	-0.927510	0.264980
O32	O	0.871192	-0.830599	0.444407
O33	O	0.871116	-0.702678	0.342383
O34	O	0.948398	-0.830395	0.163012
O35	O	0.948406	-0.702566	0.265088
O36	O	0.871102	-0.927361	0.162966
O37	O	1.050548	-0.927262	0.342400
O38	O	1.050490	-0.830338	0.265098
C39	C	0.643420	-0.430332	0.343839
C40	C	0.577678	-0.430313	0.343868
C41	C	0.544786	-0.379789	0.303676
C42	C	0.577642	-0.329267	0.263464
C43	C	0.643383	-0.329282	0.263442
N44	N	0.441508	-0.373615	0.248616
N45	N	0.379057	-0.373605	0.248639
C46	C	0.346711	-0.379739	0.303743
N47	N	0.379176	-0.385898	0.358823
N48	N	0.441634	-0.385912	0.358799
C49	C	0.473501	-0.379767	0.303696
C50	C	0.242578	-0.430233	0.343985
C51	C	0.176834	-0.430208	0.344015
C52	C	0.176800	-0.329166	0.263606
C53	C	0.242542	-0.329187	0.263582
C54	C	0.275427	-0.379725	0.303771
C55	C	1.073979	-0.379700	0.303792
C56	C	1.143947	-0.379683	0.303823
C57	C	0.909840	-0.379725	0.467909
C58	C	0.909863	-0.379718	0.537878
C59	C	0.909828	-0.174001	0.303687
C60	C	0.909847	-0.084679	0.303674
C61	C	0.909772	-0.379701	0.140167
C62	C	0.909872	-0.379486	0.070200
C63	C	0.950133	-0.329255	0.570756
C64	C	0.950132	-0.329221	0.636498
C65	C	0.909868	-0.379663	0.669360
C66	C	0.869589	-0.430129	0.636474
C67	C	0.869587	-0.430156	0.570733
N68	N	0.905030	-0.448668	0.772600
N69	N	0.905036	-0.448640	0.835052
C70	C	0.909872	-0.379583	0.867435
N71	N	0.914714	-0.310554	0.835007
N72	N	0.914711	-0.310583	0.772550
C73	C	0.909866	-0.379639	0.740645
C74	C	0.950143	-0.329080	0.971599
C75	C	0.950138	-0.329044	1.037342
C76	C	0.869598	-0.429959	1.037317
C77	C	0.869600	-0.429988	0.971574
C78	C	0.909876	-0.379549	0.938719
C79	C	1.073360	-0.878779	0.303759
C80	C	1.143328	-0.878733	0.303802
C81	C	0.909740	-0.878868	0.139510
C82	C	0.909711	-0.878836	0.069541
C83	C	0.745618	-0.879106	0.303642
C84	C	0.675650	-0.879176	0.303618
C85	C	0.909831	-0.879059	0.467251
C86	C	0.909684	-0.879241	0.537219
C87	C	1.176197	-0.929221	0.344037
C88	C	1.241940	-0.929193	0.344079
C89	C	1.274812	-0.878672	0.303887
C90	C	1.241938	-0.828182	0.263648
C91	C	1.176196	-0.828214	0.263604
C92	C	0.869449	-0.929307	0.036656
C93	C	0.869409	-0.929278	-0.029087
C94	C	0.909636	-0.878781	-0.061942
C95	C	0.949900	-0.828305	-0.029052
C96	C	0.949936	-0.828331	0.036689
C97	C	0.642792	-0.828777	0.343874
C98	C	0.577049	-0.828827	0.343851
C99	C	0.544166	-0.879282	0.303575
C100	C	0.577028	-0.929684	0.263314
C101	C	0.642770	-0.929629	0.263334
C102	C	0.869633	-0.828557	0.570046
C103	C	0.869483	-0.828727	0.635788
C104	C	0.909387	-0.879579	0.668702
C105	C	0.949440	-0.930269	0.635871
C106	C	0.949587	-0.930102	0.570130
H107	H	0.670191	-0.471483	0.376565
H108	H	0.550928	-0.471446	0.376613
H109	H	0.836868	-0.787446	0.662510
N110	N	1.277393	-0.773688	0.220303
H111	H	1.304669	-0.805684	0.191124
H112	H	1.304634	-0.737174	0.245988
N113	N	0.277976	-0.274700	0.220218
H114	H	0.247166	-0.242687	0.194762
H115	H	0.305207	-0.306753	0.191040
N116	N	1.140748	-0.983722	0.387382
H117	H	1.113476	-0.951734	0.416569
H118	H	1.171592	-1.015691	0.412829
N119	N	0.826166	-0.484359	1.072756
H120	H	0.851740	-0.520895	1.100065
H121	H	0.800663	-0.516282	1.041911
H122	H	0.982205	-0.971373	0.543408
H123	H	0.490635	-0.879316	0.303562
H124	H	0.550245	-0.970762	0.230522
H125	H	0.550857	-0.288128	0.230741
H126	H	0.909263	-0.879706	0.722233
H127	H	0.981928	-0.971673	0.662680
H128	H	0.836620	-0.970383	-0.055856
N129	N	0.678817	-0.274792	0.220077
H130	H	0.648007	-0.242777	0.194621
H131	H	0.706045	-0.306849	0.190898
H132	H	0.669557	-0.787687	0.376673
H133	H	0.909601	-0.878769	-0.115473
N134	N	0.678206	-0.983993	0.219914
H135	H	0.647394	-1.015962	0.194400
H136	H	0.705498	-1.020487	0.245538
N137	N	0.278053	-0.484735	0.387331
H138	H	0.247265	-0.516729	0.412812
H139	H	0.305381	-0.452688	0.416486
N140	N	1.140748	-0.773754	0.220207
H141	H	1.171552	-0.741746	0.194757
H142	H	1.113478	-0.737299	0.245845
H143	H	0.150090	-0.471340	0.376761
H144	H	0.982928	-0.288183	0.544009
N145	N	0.141333	-0.274665	0.220259
H146	H	0.094701	-0.282317	0.226376
H147	H	0.152767	-0.286860	0.175284
H148	H	1.268696	-0.970308	0.376849
N149	N	0.993292	-0.773855	-0.064496
H150	H	1.018809	-0.741882	-0.033692
H151	H	0.967647	-0.737367	-0.091776
N152	N	0.993571	-0.274791	0.671966
H153	H	1.038544	-0.287042	0.660562
H154	H	0.987408	-0.282453	0.718587
N155	N	0.826156	-0.484522	0.671922
H156	H	0.851728	-0.521060	0.699231
H157	H	0.800647	-0.516444	0.641080
N158	N	0.826142	-0.484575	0.535267
H159	H	0.800628	-0.516520	0.566057
H160	H	0.851749	-0.521088	0.508018
N161	N	0.993579	-0.274679	0.936156
H162	H	1.019088	-0.242701	0.966963
H163	H	0.967963	-0.238196	0.908845
N164	N	0.993564	-0.274600	1.072807
H165	H	1.019074	-0.242652	1.042015
H166	H	1.022688	-0.306682	1.100123
H167	H	0.982725	-0.787233	0.063459
H168	H	0.837138	-0.787143	0.543256
H169	H	0.836811	-0.471084	0.944805
N170	N	1.345718	-0.878642	0.303947
H171	H	1.361559	-0.824542	0.315578
H172	H	1.361507	-0.893105	0.260756
N173	N	0.826060	-0.983776	0.072085
H174	H	0.800549	-1.015738	0.041268
H175	H	0.796934	-0.951708	0.099359
N176	N	0.541613	-0.774459	0.387274
H177	H	0.572424	-0.742495	0.412792
H178	H	0.514351	-0.806598	0.416390
