data_functionalizedCrystal
_audit_creation_method	'MofGen! by Chris Wilmer'
_symmetry_space_group_name_H-M	'P1'
_symmetry_Int_Tables_number	1
_symmetry_cell_setting	triclinic
loop_
_symmetry_equiv_pos_as_xyz
  x,y,z
_cell_length_a	19.077105
_cell_length_b	19.077600
_cell_length_c	19.076919
_cell_angle_alpha	94.656929
_cell_angle_beta	89.923776
_cell_angle_gamma	94.467655
loop_
_atom_site_label
_atom_site_type_symbol
_atom_site_fract_x
_atom_site_fract_y
_atom_site_fract_z
Zn1	Zn	1.071340	0.341570	0.454658
Zn2	Zn	1.080323	0.455092	0.341884
Zn3	Zn	0.958196	0.332112	0.332057
Zn4	Zn	0.958129	0.454667	0.454618
O5	O	1.016997	0.395860	0.395804
O6	O	1.171022	0.360766	0.443827
O7	O	1.067911	0.434999	0.242091
O8	O	0.969473	0.234568	0.344224
O9	O	1.177622	0.444170	0.360972
O10	O	1.052599	0.241517	0.434298
O11	O	0.978184	0.344646	0.234871
O12	O	0.859697	0.344233	0.344186
O13	O	0.969359	0.443444	0.553112
O14	O	0.859648	0.434273	0.434231
O15	O	1.052534	0.360353	0.553141
O16	O	1.067846	0.553835	0.360934
O17	O	0.978070	0.553522	0.443760
C18	C	0.834135	0.388181	0.388138
C19	C	0.755906	0.384913	0.384876
C20	C	0.719152	0.430322	0.430158
C21	C	0.645646	0.427243	0.427096
C22	C	0.608897	0.378757	0.378748
C23	C	0.645656	0.333343	0.333465
C24	C	0.719160	0.336420	0.336531
C25	C	0.389065	0.364518	0.364562
C26	C	0.315556	0.361447	0.361498
C27	C	0.315552	0.455346	0.455130
C28	C	0.389057	0.458421	0.458189
C29	C	0.425809	0.413005	0.412908
N30	N	0.533763	0.375610	0.375616
N31	N	0.500942	0.416149	0.416045
C32	C	1.023944	0.579297	0.403425
C33	C	1.026979	0.657776	0.406712
C34	C	1.048763	1.099911	0.430267
C35	C	1.045903	1.026172	0.427172
C36	C	1.001231	0.985751	0.378700
C37	C	0.959421	1.019073	0.333314
C38	C	0.962285	1.092811	0.336405
C39	C	0.988033	0.764836	0.364418
C40	C	0.985171	0.691093	0.361331
C41	C	1.071655	0.698197	0.455189
C42	C	1.074511	0.771936	0.458280
C43	C	1.032704	0.805252	0.412891
N44	N	0.998305	0.910377	0.375537
N45	N	1.035634	0.880624	0.416051
C46	C	1.200573	0.403570	0.403500
C47	C	1.278802	0.406856	0.406780
C48	C	1.010011	1.211707	0.388162
C49	C	1.006954	1.133228	0.384886
C50	C	1.009937	0.402906	0.579378
C51	C	1.006929	0.405909	0.657606
C52	C	1.024068	0.388793	0.212944
C53	C	1.027205	0.385597	0.134713
C54	C	1.048818	0.364060	0.694374
C55	C	1.045983	0.366878	0.767878
C56	C	1.001261	0.411549	0.804612
C57	C	0.959367	0.453399	0.767839
C58	C	0.962199	0.450577	0.694336
C59	C	0.988143	0.424625	1.024438
C60	C	0.985316	0.427446	1.097946
C61	C	1.071931	0.340923	1.097979
C62	C	1.074762	0.338108	1.024476
C63	C	1.032866	0.379956	0.987709
N64	N	0.998363	0.414432	0.879744
N65	N	1.035760	0.377068	0.912578
H66	H	0.418980	0.327542	0.327686
Cl67	Cl	0.269345	0.512438	0.512050
Cl68	Cl	0.269358	0.300493	0.300709
H69	H	0.418973	0.497905	0.497557
H70	H	0.749068	0.469807	0.469525
Cl71	Cl	0.599456	0.272384	0.272689
Cl72	Cl	1.130661	0.822746	0.519231
H73	H	0.953990	0.791952	0.327459
Cl74	Cl	1.105046	0.307903	0.648202
H75	H	0.749084	0.299439	0.299661
H76	H	0.948790	0.658185	0.321856
Cl77	Cl	1.130987	0.281948	0.978301
H78	H	1.085133	1.132817	0.469746
Cl79	Cl	1.098679	0.314298	0.814100
H80	H	1.079948	0.999045	0.464125
Cl81	Cl	1.124210	0.656310	0.512244
H82	H	0.923050	0.986158	0.293842
Cl83	Cl	1.124595	0.288316	1.144205
H84	H	0.928240	1.119937	0.299451
H85	H	0.922951	0.489769	0.797753
Cl86	Cl	0.929086	0.483604	1.144125
Cl87	Cl	0.935473	0.477234	0.978226
Cl88	Cl	0.909533	0.503187	0.648113
H89	H	0.615725	0.464221	0.463968
