data_functionalizedCrystal
_audit_creation_method	'MofGen! by Chris Wilmer'
_symmetry_space_group_name_H-M	'P1'
_symmetry_Int_Tables_number	1
_symmetry_cell_setting	triclinic
loop_
_symmetry_equiv_pos_as_xyz
  x,y,z
_cell_length_a	11.026607
_cell_length_b	15.944551
_cell_length_c	10.065875
_cell_angle_alpha	98.788968
_cell_angle_beta	79.302338
_cell_angle_gamma	96.042377
loop_
_atom_site_label
_atom_site_type_symbol
_atom_site_fract_x
_atom_site_fract_y
_atom_site_fract_z
O1	O	1.627949	0.342077	-0.113512
O2	O	1.274640	0.302024	-0.113511
O3	O	1.460941	0.201235	-0.113499
O4	O	1.441648	0.442866	-0.113524
O5	O	1.425416	0.220553	0.113487
O6	O	1.239115	0.321342	0.113475
O7	O	1.592424	0.361394	0.113475
Zn8	Zn	1.410129	0.344435	0.149514
Zn9	Zn	1.456935	0.318983	-0.149550
O10	O	1.406123	0.462183	0.113463
C11	C	1.211666	0.304294	-0.000018
C12	C	1.076950	0.282267	-0.000017
C13	C	1.003150	0.343086	-0.000024
C14	C	0.863914	0.320322	-0.000024
C15	C	1.442377	0.179479	-0.000006
C16	C	1.439975	0.085870	-0.000005
C17	C	1.318759	-0.147313	-0.000024
C18	C	1.357533	-0.190296	0.111894
C19	C	1.435632	-0.085514	-0.000015
C20	C	1.392586	-0.209321	-0.111896
C21	C	1.431429	-0.251063	-0.000031
C22	C	1.474424	-0.127256	0.111995
C23	C	1.509476	-0.146286	-0.111896
C24	C	1.548331	-0.189236	0.000049
C25	C	1.438050	0.009855	-0.000005
C26	C	1.429019	-0.346429	-0.000032
C27	C	1.655399	0.359124	-0.000022
C28	C	1.790116	0.381150	-0.000031
C29	C	1.424687	0.483939	-0.000034
C30	C	1.427090	0.577548	-0.000043
N31	N	1.378194	0.361806	0.353617
N32	N	1.488879	0.301607	-0.353654
C33	C	1.445816	0.325021	0.421401
C34	C	1.421248	0.338398	0.578566
H35	H	1.037057	0.213342	-0.000045
H36	H	1.221730	-0.128661	0.000088
H37	H	1.564962	0.260203	0.588030
C38	C	0.843047	0.473115	0.000029
C39	C	0.747970	0.524814	0.000056
C40	C	0.796680	0.609536	0.000130
H41	H	0.904207	0.477620	-0.079103
H42	H	0.879408	0.491017	0.079217
H43	H	0.711629	0.506918	-0.079124
H44	H	0.686803	0.520335	0.079183
H45	H	0.833041	0.627438	0.079318
H46	H	0.857840	0.614032	-0.079005
H47	H	0.732177	0.644625	0.000160
C48	C	1.677820	-0.213926	-0.000184
C49	C	1.714485	-0.271074	-0.117532
C50	C	1.833773	-0.293817	-0.117808
H51	H	1.677808	-0.240093	0.078499
H52	H	1.733886	-0.164416	0.000522
H53	H	1.658433	-0.320576	-0.118226
H54	H	1.714525	-0.244925	-0.196234
H55	H	1.889840	-0.244307	-0.117102
H56	H	1.833751	-0.319981	-0.039120
H57	H	1.858671	-0.332588	-0.197432
H58	H	1.521895	0.283620	0.363081
C59	C	1.346199	-0.256701	-0.238012
C60	C	1.225998	-0.235621	-0.237484
C61	C	1.183224	-0.279238	-0.353642
H62	H	1.345608	-0.316283	-0.237664
H63	H	1.399309	-0.240989	-0.317522
H64	H	1.172902	-0.251338	-0.157996
H65	H	1.226556	-0.176046	-0.237852
H66	H	1.236333	-0.263527	-0.433152
H67	H	1.182640	-0.338818	-0.353284
H68	H	1.101668	-0.264935	-0.353306
C69	C	1.319606	0.393467	0.656242
C70	C	1.205651	0.359044	0.621636
C71	C	1.111990	0.409742	0.693179
H72	H	1.336472	0.449558	0.632946
H73	H	1.316492	0.395105	0.751554
H74	H	1.208766	0.357415	0.526346
H75	H	1.188745	0.302959	0.644936
H76	H	1.108877	0.411380	0.788491
H77	H	1.128868	0.465830	0.669878
H78	H	1.034660	0.386389	0.669719
H79	H	1.293291	-0.209825	0.206512
H80	H	1.302107	0.403200	0.411939
C81	C	1.056580	0.434935	-0.000096
C82	C	1.184067	0.439250	-0.000124
C83	C	1.233326	0.523847	-0.000205
H84	H	1.017697	0.468931	0.079036
H85	H	1.042416	0.455395	-0.079285
H86	H	1.198222	0.418801	0.079057
H87	H	1.222983	0.405272	-0.079250
H88	H	1.219162	0.544306	-0.079395
H89	H	1.194434	0.557836	0.078927
H90	H	1.319832	0.526785	-0.000237
C91	C	0.810511	0.228457	-0.000087
C92	C	0.683034	0.224137	-0.000122
C93	C	0.633799	0.139527	-0.000199
H94	H	0.824621	0.207927	0.079048
H95	H	0.849465	0.194523	-0.079273
H96	H	0.644092	0.258059	0.079056
H97	H	0.668889	0.244650	-0.079250
H98	H	0.672753	0.105593	-0.079385
H99	H	0.647919	0.119004	0.078937
H100	H	0.547304	0.136583	-0.000236
H101	H	1.508991	-0.091738	0.206717
H102	H	1.573676	-0.126742	-0.206519
