data_functionalizedCrystal
_audit_creation_method	'MofGen! by Chris Wilmer'
_symmetry_space_group_name_H-M	'P1'
_symmetry_Int_Tables_number	1
_symmetry_cell_setting	triclinic
loop_
_symmetry_equiv_pos_as_xyz
  x,y,z
_cell_length_a	17.077404
_cell_length_b	19.077432
_cell_length_c	17.077396
_cell_angle_alpha	92.327207
_cell_angle_beta	90.019501
_cell_angle_gamma	87.727210
loop_
_atom_site_label
_atom_site_type_symbol
_atom_site_fract_x
_atom_site_fract_y
_atom_site_fract_z
Zn1	Zn	1.212589	-0.280193	0.431292
Zn2	Zn	1.217762	-0.397895	0.294754
Zn3	Zn	1.081322	-0.280218	0.300039
Zn4	Zn	1.086553	-0.397853	0.425980
O5	O	1.149557	-0.339040	0.363016
O6	O	1.323123	-0.295813	0.413192
O7	O	1.199639	-0.382312	0.185607
O8	O	1.094381	-0.181725	0.321885
O9	O	1.326923	-0.382289	0.312878
O10	O	1.190823	-0.181707	0.418316
O11	O	1.099397	-0.295855	0.189490
O12	O	0.972169	-0.295815	0.316734
O13	O	1.103296	-0.382217	0.536533
O14	O	0.976012	-0.382241	0.409262
O15	O	1.195895	-0.295773	0.540436
O16	O	1.204711	-0.496379	0.307726
O17	O	1.108312	-0.496348	0.404137
C18	C	0.945608	-0.339027	0.362995
C19	C	0.858359	-0.339038	0.363004
C20	C	0.819393	-0.384108	0.411100
C21	C	0.737413	-0.384110	0.411112
C22	C	0.694400	-0.339044	0.363024
C23	C	0.733371	-0.293969	0.314927
C24	C	0.815350	-0.293965	0.314919
C25	C	0.562502	-0.293983	0.314945
C26	C	0.480517	-0.293988	0.314951
C27	C	0.484565	-0.384128	0.411138
C28	C	0.566544	-0.384124	0.411130
C29	C	0.605509	-0.339049	0.363031
C30	C	1.157661	-0.521901	0.354799
C31	C	1.161201	-0.600130	0.351310
C32	C	1.112639	-0.636891	0.399825
C33	C	1.115968	-0.710395	0.396543
C34	C	1.167862	-0.747137	0.344750
C35	C	1.216426	-0.710370	0.296229
C36	C	1.213093	-0.636867	0.299507
C37	C	1.183214	-0.966966	0.329563
C38	C	1.186545	-1.040474	0.326291
C39	C	1.086085	-1.040494	0.426604
C40	C	1.082760	-0.966990	0.429881
C41	C	1.131321	-0.930230	0.381358
N42	N	1.171268	-0.822270	0.341396
N43	N	1.127911	-0.855098	0.384708
C44	C	1.354302	-0.339053	0.363038
C45	C	1.441552	-0.339059	0.363047
C46	C	1.149602	-0.338988	0.567763
C47	C	1.149621	-0.338966	0.655014
C48	C	1.141442	-0.155464	0.371283
C49	C	1.137984	-0.077236	0.374806
C50	C	1.149555	-0.339040	0.159068
C51	C	1.149679	-0.338864	0.071827
C52	C	1.197839	-0.293950	0.698038
C53	C	1.197847	-0.293927	0.780019
C54	C	1.149641	-0.338923	0.818975
C55	C	1.101418	-0.383940	0.775945
C56	C	1.101406	-0.383960	0.693966
C57	C	1.101448	-0.383898	0.946817
C58	C	1.101461	-0.383880	1.028803
C59	C	1.197889	-0.293865	1.032871
C60	C	1.197877	-0.293884	0.950891
C61	C	1.149655	-0.338903	0.907867
H62	H	0.601563	-0.420824	0.450283
H63	H	1.258676	-0.740290	0.254054
H64	H	1.062165	-0.420574	0.807670
H65	H	0.452835	-0.420827	0.450305
H66	H	0.445497	-0.257284	0.275804
H67	H	1.237096	-0.257311	0.666326
H68	H	1.046549	-1.070433	0.466108
H69	H	0.594224	-0.257273	0.275785
H70	H	1.228809	-1.070387	0.284114
H71	H	1.237135	-0.257249	0.919176
H72	H	1.252635	-0.606936	0.260000
H73	H	1.062134	-0.420609	0.658937
H74	H	0.705691	-0.420811	0.450276
H75	H	0.698343	-0.257273	0.275776
H76	H	1.237113	-0.257272	0.815046
H77	H	1.222755	-0.937041	0.290055
H78	H	0.854409	-0.420808	0.450256
H79	H	1.237152	-0.257208	1.067906
H80	H	1.062168	-0.420546	0.911790
H81	H	0.847074	-0.257260	0.275759
H82	H	1.070384	-0.606981	0.442004
H83	H	1.076417	-0.740324	0.436042
H84	H	1.040503	-0.937077	0.472055
H85	H	1.062206	-0.420518	1.060518
