data_functionalizedCrystal
_audit_creation_method	'MofGen! by Chris Wilmer'
_symmetry_space_group_name_H-M	'P1'
_symmetry_Int_Tables_number	1
_symmetry_cell_setting	triclinic
loop_
_symmetry_equiv_pos_as_xyz
  x,y,z
_cell_length_a	19.188929
_cell_length_b	15.995300
_cell_length_c	17.666332
_cell_angle_alpha	89.992587
_cell_angle_beta	90.026346
_cell_angle_gamma	96.691706
loop_
_atom_site_label
_atom_site_type_symbol
_atom_site_fract_x
_atom_site_fract_y
_atom_site_fract_z
O1	O	-0.089828	1.110684	-0.063013
O2	O	-0.100979	0.866863	-0.063013
O3	O	0.006235	0.995810	-0.062966
O4	O	-0.197042	0.981737	-0.063060
O5	O	0.006238	0.995795	0.062930
O6	O	-0.100976	0.866848	0.062884
O7	O	-0.089826	1.110670	0.062884
Cu8	Cu	-0.095401	0.988758	0.074379
Cu9	Cu	-0.095404	0.988775	-0.074509
O10	O	-0.197040	0.981723	0.062837
C11	C	-0.100522	0.835662	-0.000064
C12	C	-0.099159	0.742714	-0.000062
C13	C	-0.096641	0.572540	-0.000066
C14	C	-0.172980	0.524795	-0.000100
C15	C	-0.171587	0.428112	-0.000387
C16	C	-0.094163	0.404992	-0.000070
C17	C	-0.056290	0.446272	-0.071804
C18	C	-0.058222	0.542899	-0.071863
C19	C	-0.057089	0.543165	0.071311
C20	C	-0.057096	0.446221	0.072252
C21	C	-0.092759	0.310302	-0.000075
C22	C	-0.098044	0.667231	-0.000067
C23	C	-0.223053	0.982186	-0.000124
C24	C	-0.300561	0.983554	-0.000160
C25	C	-0.345304	0.907892	-0.000144
C26	C	-0.418130	0.909177	-0.000127
C27	C	-0.446211	0.986129	-0.000110
C28	C	-0.401459	1.061800	-0.000130
C29	C	-0.328634	1.060513	-0.000154
N30	N	-0.554320	1.044943	0.042783
N31	N	-0.623501	1.046161	0.042808
C32	C	-0.665629	0.990012	-0.000037
N33	N	-0.635964	0.932586	-0.042900
N34	N	-0.566776	0.931366	-0.042921
C35	C	-0.525177	0.987533	-0.000084
C36	C	-0.789340	0.915738	-0.000005
C37	C	-0.862168	0.917027	0.000008
C38	C	-0.845494	1.069652	0.000013
C39	C	-0.772668	1.068362	-0.000007
C40	C	-0.744595	0.991402	-0.000012
C41	C	0.032249	0.995347	-0.000008
C42	C	0.109757	0.993979	0.000023
C43	C	-0.090282	1.141871	-0.000067
C44	C	-0.091645	1.234819	-0.000075
N45	N	-0.095398	0.988752	0.179098
N46	N	-0.095401	0.988787	-0.179228
C47	C	-0.047940	1.045887	0.781169
C48	C	-0.047941	1.045888	0.701922
C49	C	-0.095397	0.988776	0.662280
C50	C	-0.142868	0.931672	0.701892
C51	C	-0.142869	0.931678	0.781138
N52	N	-0.104268	0.914648	0.537865
N53	N	-0.104262	0.914645	0.462584
C54	C	-0.095396	0.988756	0.423516
N55	N	-0.086522	1.062873	0.462572
N56	N	-0.086525	1.062875	0.537859
C57	C	-0.095401	0.988763	0.576351
C58	C	-0.047934	1.045861	0.297984
C59	C	-0.047941	1.045864	0.218735
C60	C	-0.142864	0.931641	0.218707
C61	C	-0.142860	0.931646	0.297954
C62	C	-0.095392	0.988755	0.337588
H63	H	-0.203657	0.543168	0.051331
H64	H	-0.322452	0.845226	-0.000155
Cl65	Cl	0.011726	1.117657	0.168945
H66	H	-0.181506	0.885142	0.186431
Cl67	Cl	-0.217540	0.383985	0.078980
H68	H	-0.181505	0.885147	0.330201
Cl69	Cl	-0.096438	0.402393	-0.154577
H70	H	-0.181508	0.885172	0.669612
H71	H	-0.009284	1.092366	0.330255
H72	H	-0.082221	0.563567	0.125700
H73	H	-0.203202	0.544298	-0.051490
Cl74	Cl	-0.754045	0.818992	-0.000016
H75	H	-0.201220	0.400162	-0.052135
Cl76	Cl	-0.272382	1.155639	-0.000172
H77	H	-0.002166	0.575377	-0.074903
Cl78	Cl	-0.100366	0.571041	-0.155005
H79	H	0.000599	0.432381	-0.074245
Cl80	Cl	-0.099792	0.403844	0.154190
H81	H	-0.736237	1.129974	-0.000015
Cl82	Cl	0.030055	0.422855	0.079315
Cl83	Cl	0.011731	1.117676	0.652127
H84	H	-0.000806	0.575152	0.072027
H85	H	-0.454567	0.847562	-0.000113
H86	H	-0.868357	1.132308	-0.000028
H87	H	-0.009290	1.092390	0.813437
H88	H	-0.424327	1.124455	-0.000130
H89	H	-0.181519	0.885180	0.813384
Cl90	Cl	-0.918417	0.821899	0.000017
