data_functionalizedCrystal
_audit_creation_method	'MofGen! by Chris Wilmer'
_symmetry_space_group_name_H-M	'P1'
_symmetry_Int_Tables_number	1
_symmetry_cell_setting	triclinic
loop_
_symmetry_equiv_pos_as_xyz
  x,y,z
_cell_length_a	27.731994
_cell_length_b	27.732048
_cell_length_c	26.210047
_cell_angle_alpha	89.990375
_cell_angle_beta	89.989666
_cell_angle_gamma	82.631595
loop_
_atom_site_label
_atom_site_type_symbol
_atom_site_fract_x
_atom_site_fract_y
_atom_site_fract_z
O1	O	0.640953	0.057391	-0.042362
O2	O	0.500156	0.066164	-0.042379
O3	O	0.574927	-0.008620	-0.042360
O4	O	0.566181	0.132175	-0.042381
O5	O	0.574904	-0.008620	0.042498
O6	O	0.500132	0.066164	0.042479
O7	O	0.640929	0.057391	0.042496
Cu8	Cu	0.570529	0.061778	0.050236
Cu9	Cu	0.570556	0.061778	-0.050119
O10	O	0.566158	0.132175	0.042477
C11	C	0.482137	0.065984	0.000047
C12	C	0.428480	0.065442	0.000041
C13	C	0.095749	0.062026	0.046317
C14	C	-0.105909	0.059964	0.046324
O15	O	-0.131993	0.059677	0.085663
N16	N	-0.131111	0.059708	0.000067
C17	C	-0.105895	0.059964	-0.046193
O18	O	-0.131958	0.059694	-0.085537
C19	C	0.095762	0.062023	-0.046199
C20	C	0.120961	0.062283	0.000060
C21	C	0.120948	0.062286	0.092573
C22	C	0.171359	0.062804	0.092571
C23	C	0.196571	0.063062	0.046313
C24	C	0.171372	0.062801	0.000058
C25	C	0.120978	0.062275	-0.092459
C26	C	0.171396	0.062789	-0.092457
C27	C	0.196595	0.063050	-0.046197
C28	C	0.246996	0.063577	-0.046201
N29	N	0.272198	0.063833	0.000055
C30	C	0.246986	0.063576	0.046312
C31	C	-0.211769	0.058885	-0.046187
C32	C	-0.262183	0.058371	-0.046186
C33	C	-0.262193	0.058370	0.046331
C34	C	-0.211778	0.058887	0.046329
C35	C	-0.186566	0.059141	0.000069
C36	C	0.352853	0.064664	0.046305
C37	C	0.403268	0.065184	0.046298
C38	C	0.403274	0.065182	-0.046218
C39	C	0.352863	0.064665	-0.046213
C40	C	0.327654	0.064404	0.000053
O41	O	0.273111	0.063859	-0.085520
O42	O	0.273058	0.063835	0.085650
C43	C	0.045338	0.061508	0.046319
C44	C	0.020139	0.061247	0.000064
C45	C	0.045351	0.061505	-0.046193
C46	C	-0.030275	0.060734	0.000065
C47	C	-0.055488	0.060476	0.046323
C48	C	-0.030286	0.060732	0.092579
C49	C	0.020126	0.061250	0.092577
C50	C	0.020149	0.061249	-0.092449
C51	C	-0.030262	0.060732	-0.092443
C52	C	-0.055474	0.060474	-0.046186
C53	C	0.574732	-0.026627	0.000070
C54	C	0.574179	-0.080282	0.000074
C55	C	0.614884	-0.419105	0.000053
C56	C	0.612833	-0.620764	0.000046
O57	O	0.650055	-0.652027	0.000028
N58	N	0.568496	-0.639879	0.000041
C59	C	0.524670	-0.608576	0.000034
O60	O	0.486912	-0.629462	0.000024
C61	C	0.526721	-0.406918	0.000038
C62	C	0.571060	-0.387805	0.000048
C63	C	0.659220	-0.399992	0.000063
C64	C	0.659732	-0.349580	0.000068
C65	C	0.615908	-0.318281	0.000062
C66	C	0.571573	-0.337394	0.000053
C67	C	0.482895	-0.375615	0.000028
C68	C	0.483412	-0.325198	0.000027
C69	C	0.527751	-0.306086	0.000037
C70	C	0.528262	-0.255683	0.000052
N71	N	0.572598	-0.236567	0.000057
C72	C	0.616421	-0.267867	0.000062
C73	C	0.523596	-0.714450	0.000033
C74	C	0.523083	-0.764864	0.000033
C75	C	0.611246	-0.777049	0.000044
C76	C	0.611759	-0.726633	0.000048
C77	C	0.567932	-0.695335	0.000038
C78	C	0.617494	-0.161998	0.000073
C79	C	0.618002	-0.111581	0.000079
C80	C	0.529839	-0.099401	0.000066
C81	C	0.529331	-0.149813	0.000062
C82	C	0.573162	-0.181111	0.000063
O83	O	0.491060	-0.224391	0.000064
O84	O	0.654174	-0.246971	0.000061
C85	C	0.614372	-0.469517	0.000049
C86	C	0.570036	-0.488629	0.000039
C87	C	0.526213	-0.457330	0.000034
C88	C	0.569523	-0.539043	0.000039
C89	C	0.613346	-0.570343	0.000044
C90	C	0.657683	-0.551228	0.000049
C91	C	0.658195	-0.500816	0.000054
C92	C	0.481876	-0.476445	0.000029
C93	C	0.481367	-0.526857	0.000025
C94	C	0.525191	-0.558157	0.000030
C95	C	0.658949	0.057571	0.000068
C96	C	0.712605	0.058114	0.000071
C97	C	0.566353	0.150182	0.000046
C98	C	0.566906	0.203837	0.000038
N99	N	0.570513	0.061777	0.120820
N100	N	0.570576	0.061774	-0.120703
C101	C	0.599649	0.090883	0.473333
C102	C	0.599663	0.090882	0.686992
O103	O	0.624425	0.115623	0.714613
N104	N	0.570568	0.061773	0.713714
C105	C	0.541469	0.032659	0.687017
O106	O	0.516726	0.007895	0.714649
C107	C	0.541458	0.032657	0.473360
C108	C	0.570551	0.061772	0.446641
C109	C	0.628741	0.119995	0.446614
C110	C	0.628735	0.119997	0.393203
C111	C	0.599637	0.090886	0.366510
C112	C	0.570546	0.061774	0.393229
C113	C	0.512362	0.003540	0.446665
C114	C	0.512363	0.003542	0.393247
C115	C	0.541456	0.032657	0.366528
C116	C	0.541442	0.032665	0.313126
N117	N	0.570538	0.061775	0.286404
C118	C	0.599635	0.090885	0.313096
C119	C	0.541476	0.032662	0.799191
C120	C	0.541478	0.032663	0.852605
C121	C	0.599674	0.090886	0.852576
C122	C	0.599669	0.090888	0.799160
C123	C	0.570572	0.061772	0.772469
C124	C	0.599620	0.090887	0.200928
C125	C	0.599610	0.090888	0.147512
C126	C	0.541417	0.032663	0.147546
C127	C	0.541425	0.032664	0.200958
C128	C	0.570531	0.061777	0.227647
O129	O	0.516698	0.007933	0.285471
O130	O	0.624383	0.115637	0.285456
C131	C	0.599655	0.090881	0.526745
C132	C	0.570563	0.061768	0.553464
C133	C	0.541466	0.032658	0.526771
C134	C	0.570565	0.061769	0.606878
C135	C	0.599663	0.090880	0.633570
C136	C	0.628758	0.119990	0.606848
C137	C	0.628753	0.119991	0.553437
C138	C	0.512370	0.003548	0.553493
C139	C	0.512378	0.003549	0.606905
C140	C	0.541475	0.032660	0.633597
H141	H	-0.050822	0.060525	0.130243
C142	C	0.482225	-0.065469	-0.000023
C143	C	0.455517	-0.074055	-0.043682
C144	C	0.411650	-0.042809	-0.043782
H145	H	0.488817	-0.032691	-0.000048
H146	H	0.463989	-0.071233	0.029548
H147	H	0.473750	-0.068287	-0.073245
H148	H	0.448913	-0.106827	-0.043666
H149	H	0.393414	-0.048574	-0.014211
H150	H	0.418247	-0.010034	-0.043806
H151	H	0.393522	-0.048634	-0.073402
H152	H	0.446789	-0.391167	0.000016
H153	H	0.488681	-0.020159	0.628655
H154	H	0.040672	0.061457	-0.130118
H155	H	0.653186	-0.187475	0.000072
H156	H	0.654110	-0.096023	0.000089
H157	H	0.040638	0.061463	0.130246
H158	H	0.695837	-0.334024	0.000074
C159	C	0.509959	0.000995	0.770184
C160	C	0.539501	-0.031962	0.739522
C161	C	0.510481	-0.061139	0.712799
H162	H	0.487559	0.020913	0.749311
H163	H	0.492639	-0.016366	0.793733
H164	H	0.556813	-0.014602	0.715976
H165	H	0.561900	-0.051891	0.760382
H166	H	0.493160	-0.078501	0.736348
H167	H	0.488082	-0.041218	0.691929
H168	H	0.530521	-0.083508	0.691996
C169	C	0.480722	-0.028073	0.524610
C170	C	0.455236	-0.053553	0.559450
C171	C	0.426068	-0.082682	0.532864
H172	H	0.500639	-0.050502	0.503768
H173	H	0.458297	-0.008114	0.503790
H174	H	0.477658	-0.073511	0.580262
H175	H	0.435310	-0.031136	0.580294
H176	H	0.403644	-0.062723	0.512044
H177	H	0.445989	-0.105108	0.512023
H178	H	0.408769	-0.099970	0.556499
H179	H	0.623364	0.114591	0.874318
H180	H	0.623321	0.114594	0.222653
C181	C	0.706767	-0.434027	0.000149
C182	C	0.709034	-0.463338	0.043801
C183	C	0.752828	-0.494698	0.043898
H184	H	0.733282	-0.415478	0.000180
H185	H	0.708418	-0.453973	-0.029427
H186	H	0.707389	-0.443395	0.073369
H187	H	0.682529	-0.481897	0.043779
H188	H	0.754478	-0.514644	0.014323
H189	H	0.779339	-0.476145	0.043928
H190	H	0.754369	-0.514592	0.073513
H191	H	0.517782	0.008961	0.874355
C192	C	0.198799	0.063103	0.142743
C193	C	0.248346	0.063619	0.132852
C194	C	0.273634	0.063898	0.179060
H195	H	0.194485	0.034825	0.161786
H196	H	0.186660	0.091227	0.161753
H197	H	0.260481	0.035498	0.113850
H198	H	0.252674	0.091895	0.113816
H199	H	0.261495	0.092022	0.198070
H200	H	0.269317	0.035620	0.198099
H201	H	0.307254	0.064253	0.172355
H202	H	0.423782	0.065398	0.083970
H203	H	0.652438	0.143701	0.468341
C204	C	0.660272	0.151593	0.364106
C205	C	0.654037	0.145379	0.311613
C206	C	0.683078	0.174484	0.284797
H207	H	0.693431	0.142407	0.372793
H208	H	0.651035	0.184741	0.372831
H209	H	0.663278	0.112238	0.302891
H210	H	0.620885	0.154568	0.302910
H211	H	0.673840	0.207632	0.293522
H212	H	0.716235	0.165296	0.293488
H213	H	0.678848	0.170275	0.249177
H214	H	0.694301	-0.485260	0.000062
H215	H	0.423811	0.065394	-0.083880
H216	H	0.488671	-0.020169	0.468410
H217	H	0.647863	-0.711076	0.000056
C218	C	0.705212	-0.585296	0.000027
C219	C	0.695266	-0.633535	0.000008
C220	C	0.739034	-0.664934	-0.000023
H221	H	0.723439	-0.579611	0.029612
H222	H	0.723418	-0.579562	-0.029575
H223	H	0.677067	-0.639266	0.029607
H224	H	0.677045	-0.639235	-0.029576
H225	H	0.757241	-0.659200	-0.029625
H226	H	0.757258	-0.659244	0.029563
H227	H	0.732292	-0.697667	-0.000041
C228	C	0.093591	0.062088	-0.142671
C229	C	0.058902	0.103399	-0.145400
C230	C	0.033671	0.103245	-0.191653
H231	H	0.077782	0.033719	-0.144639
H232	H	0.115816	0.062338	-0.170229
H233	H	0.036680	0.103145	-0.117849
H234	H	0.074698	0.131775	-0.143440
H235	H	0.055896	0.103495	-0.219212
H236	H	0.017865	0.074874	-0.193618
H237	H	0.010135	0.131276	-0.193513
H238	H	0.493226	-0.165375	0.000068
C239	C	0.433174	-0.547510	-0.000012
C240	C	0.394908	-0.509303	-0.000031
C241	C	0.350507	-0.528307	-0.000077
H242	H	0.431058	-0.566922	0.029568
H243	H	0.431124	-0.566901	-0.029620
H244	H	0.396957	-0.489920	0.029574
H245	H	0.397008	-0.489887	-0.029608
H246	H	0.348458	-0.547698	-0.029684
H247	H	0.348397	-0.547720	0.029504
H248	H	0.324539	-0.502387	-0.000094
C249	C	0.658812	-0.811059	-0.000061
C250	C	0.661099	-0.840340	-0.043727
C251	C	0.704910	-0.871673	-0.043850
H252	H	0.660486	-0.831031	0.029495
H253	H	0.685308	-0.792476	-0.000088
H254	H	0.634611	-0.858921	-0.043696
H255	H	0.659434	-0.820381	-0.073290
H256	H	0.731406	-0.853090	-0.043877
H257	H	0.706580	-0.891642	-0.014292
H258	H	0.706470	-0.891541	-0.073479
C259	C	0.434307	-0.442445	-0.000080
C260	C	0.432024	-0.413144	-0.043741
C261	C	0.388205	-0.381824	-0.043858
H262	H	0.432618	-0.422485	0.029480
H263	H	0.407819	-0.461037	-0.000111
H264	H	0.458505	-0.394553	-0.043705
H265	H	0.433706	-0.433090	-0.073307
H266	H	0.361717	-0.400417	-0.043890
H267	H	0.386519	-0.361868	-0.014297
H268	H	0.386648	-0.361943	-0.073484
C269	C	0.631253	0.122514	0.118596
C270	C	0.656747	0.147996	0.153409
C271	C	0.685905	0.177128	0.126792
H272	H	0.611328	0.144943	0.097759
H273	H	0.653672	0.102558	0.097766
H274	H	0.634330	0.167951	0.174229
H275	H	0.676681	0.125579	0.174246
H276	H	0.708324	0.157171	0.105963
H277	H	0.665976	0.199553	0.105957
H278	H	0.703209	0.194417	0.150408
H279	H	0.332333	0.064456	0.083978
C280	C	0.631311	0.122511	0.770246
C281	C	0.656799	0.147995	0.805061
C282	C	0.685960	0.177126	0.778447
H283	H	0.611388	0.144938	0.749406
H284	H	0.653733	0.102554	0.749420
H285	H	0.634380	0.167950	0.825878
H286	H	0.676732	0.125580	0.825902
H287	H	0.708382	0.157169	0.757621
H288	H	0.666033	0.199550	0.757608
H289	H	0.703261	0.194417	0.802065
H290	H	0.652444	0.143700	0.531687
H291	H	-0.191265	0.059100	0.083998
H292	H	-0.191246	0.059091	-0.083860
H293	H	-0.050775	0.060523	-0.130116
H294	H	-0.282730	0.058161	0.083996
C295	C	-0.289590	0.058018	-0.096373
C296	C	-0.312790	0.016126	-0.099066
C297	C	-0.338045	0.015784	-0.145289
H298	H	-0.267402	0.058218	-0.123963
H299	H	-0.313182	0.086002	-0.098307
H300	H	-0.289202	-0.011851	-0.097137
H301	H	-0.334986	0.015916	-0.071487
H302	H	-0.361637	0.043768	-0.147223
H303	H	-0.315854	0.015986	-0.172875
H304	H	-0.353793	-0.012637	-0.147120
H305	H	0.191921	0.062995	-0.130128
H306	H	0.332344	0.064460	-0.083880
H307	H	0.100426	0.062075	0.130243
H308	H	0.488668	-0.020169	0.371518
H309	H	0.517726	0.008963	0.125804
C310	C	0.474892	-0.785517	0.000002
C311	C	0.436627	-0.747310	-0.000017
C312	C	0.392226	-0.766314	-0.000056
H313	H	0.472779	-0.804926	0.029585
H314	H	0.472840	-0.804911	-0.029603
H315	H	0.438678	-0.727924	0.029585
H316	H	0.438725	-0.727897	-0.029598
H317	H	0.390174	-0.785709	-0.029661
H318	H	0.390118	-0.785724	0.029527
H319	H	0.366258	-0.740394	-0.000074
C320	C	0.509914	0.001023	0.230033
C321	C	0.539471	-0.031917	0.260700
C322	C	0.510463	-0.061071	0.287492
H323	H	0.492575	-0.016356	0.206541
H324	H	0.487530	0.020973	0.250905
H325	H	0.561847	-0.051864	0.239830
H326	H	0.556810	-0.014550	0.284202
H327	H	0.488078	-0.041122	0.308364
H328	H	0.493125	-0.078448	0.263996
H329	H	0.530512	-0.083422	0.308306
C330	C	0.476023	-0.680449	-0.000078
C331	C	0.473740	-0.651153	-0.043742
C332	C	0.429920	-0.619833	-0.043864
H333	H	0.474333	-0.660487	0.029479
H334	H	0.449535	-0.699042	-0.000108
H335	H	0.500221	-0.632561	-0.043708
H336	H	0.475422	-0.671102	-0.073307
H337	H	0.403432	-0.638426	-0.043893
H338	H	0.428234	-0.599874	-0.014305
H339	H	0.428364	-0.599955	-0.073491
H340	H	0.652448	0.143695	0.628591
C341	C	0.435790	-0.291274	-0.000061
C342	C	0.409081	-0.299863	-0.043718
C343	C	0.365208	-0.268627	-0.043813
H344	H	0.442374	-0.258493	-0.000084
H345	H	0.417558	-0.297045	0.029511
H346	H	0.427310	-0.294088	-0.073283
H347	H	0.402485	-0.332637	-0.043705
H348	H	0.346976	-0.274399	-0.014241
H349	H	0.371796	-0.235849	-0.043835
H350	H	0.347079	-0.274454	-0.073431
