data_functionalizedCrystal
_audit_creation_method	'MofGen! by Chris Wilmer'
_symmetry_space_group_name_H-M	'P1'
_symmetry_Int_Tables_number	1
_symmetry_cell_setting	triclinic
loop_
_symmetry_equiv_pos_as_xyz
  x,y,z
_cell_length_a	10.685980
_cell_length_b	13.897447
_cell_length_c	10.686551
_cell_angle_alpha	85.594025
_cell_angle_beta	81.591741
_cell_angle_gamma	94.386237
loop_
_atom_site_label
_atom_site_type_symbol
_atom_site_fract_x
_atom_site_fract_y
_atom_site_fract_z
Zn1	Zn	1.995765	-0.216203	-0.866700
Zn2	Zn	1.979324	-0.390948	-0.654433
Zn3	Zn	1.767189	-0.243050	-0.638164
Zn4	Zn	1.783448	-0.390855	-0.850343
O5	O	1.881432	-0.310264	-0.752410
O6	O	2.171219	-0.228187	-0.852196
O7	O	1.937499	-0.382604	-0.474643
O8	O	1.797587	-0.104500	-0.668516
O9	O	2.159140	-0.356572	-0.696245
O10	O	1.965521	-0.084776	-0.836420
O11	O	1.781645	-0.273944	-0.462690
O12	O	1.591711	-0.273853	-0.652656
O13	O	1.825297	-0.356412	-1.030145
O14	O	1.603656	-0.382444	-0.808543
O15	O	1.981286	-0.228096	-1.042162
O16	O	1.953264	-0.525924	-0.680385
O17	O	1.809355	-0.525855	-0.824319
C18	C	1.551625	-0.331052	-0.727060
C19	C	1.410535	-0.339967	-0.716245
C20	C	1.881326	-0.560887	-0.752373
C21	C	1.881400	-0.668094	-0.752408
C22	C	1.881464	-0.755158	-0.752442
C23	C	1.881555	-0.864383	-0.752481
C24	C	2.212526	-0.289395	-0.777860
C25	C	2.353618	-0.280502	-0.788705
C26	C	1.906939	-0.289249	-1.083500
C27	C	1.917809	-0.280294	-1.224590
C28	C	1.881574	-0.058659	-0.752478
C29	C	1.881635	0.048560	-0.752507
C30	C	1.856096	-0.331123	-0.422614
C31	C	1.845473	-0.339791	-0.281543
H32	H	1.351318	-0.397701	-0.645925
C33	C	2.012718	-0.202223	-1.304535
H34	H	2.007819	-0.206239	-1.392058
H35	H	2.096346	-0.212325	-1.289416
H36	H	1.992521	-0.139936	-1.281463
H37	H	1.412828	-0.222766	-0.859012
C38	C	1.750572	-0.417860	-1.201604
H39	H	1.755462	-0.413835	-1.114081
H40	H	1.770757	-0.480144	-1.224678
H41	H	1.666936	-0.407750	-1.216717
