data_functionalizedCrystal
_audit_creation_method	'MofGen! by Chris Wilmer'
_symmetry_space_group_name_H-M	'P1'
_symmetry_Int_Tables_number	1
_symmetry_cell_setting	triclinic
loop_
_symmetry_equiv_pos_as_xyz
  x,y,z
_cell_length_a	12.827893
_cell_length_b	29.839131
_cell_length_c	12.827885
_cell_angle_alpha	89.955525
_cell_angle_beta	89.980728
_cell_angle_gamma	90.035389
loop_
_atom_site_label
_atom_site_type_symbol
_atom_site_fract_x
_atom_site_fract_y
_atom_site_fract_z
Zn1	Zn	1.597526	-0.178830	-0.590742
Zn2	Zn	1.597359	-0.253967	-0.415957
Zn3	Zn	1.422767	-0.178852	-0.416016
Zn4	Zn	1.422692	-0.253934	-0.590657
O5	O	1.510086	-0.216395	-0.503343
O6	O	1.743739	-0.188801	-0.567567
O7	O	1.574161	-0.244026	-0.269729
O8	O	1.446050	-0.115982	-0.439253
O9	O	1.743617	-0.244004	-0.439154
O10	O	1.574445	-0.115965	-0.567624
O11	O	1.445889	-0.188839	-0.269772
O12	O	1.276521	-0.188807	-0.439171
O13	O	1.445922	-0.243948	-0.736905
O14	O	1.276466	-0.243969	-0.567480
O15	O	1.574372	-0.188769	-0.736967
O16	O	1.574088	-0.316830	-0.439072
O17	O	1.445761	-0.316805	-0.567423
C18	C	1.238576	-0.216387	-0.503323
C19	C	1.122423	-0.216394	-0.503339
C20	C	1.070698	-0.189127	-0.566982
C21	C	0.950648	-0.189134	-0.567000
C22	C	1.509926	-0.333118	-0.503255
C23	C	1.509954	-0.383052	-0.503252
C24	C	1.576926	-0.692652	-0.570281
C25	C	1.577040	-0.880325	-0.570344
O26	O	1.633826	-0.904553	-0.627269
N27	N	1.510263	-0.903837	-0.503459
C28	C	1.443449	-0.880428	-0.436559
O29	O	1.386647	-0.904733	-0.379678
C30	C	1.443331	-0.692756	-0.436502
C31	C	1.510119	-0.669247	-0.503384
C32	C	1.643708	-0.669143	-0.637158
C33	C	1.643683	-0.622227	-0.637138
C34	C	1.576876	-0.598822	-0.570240
C35	C	1.510094	-0.622331	-0.503363
C36	C	1.376512	-0.669348	-0.369608
C37	C	1.376487	-0.622427	-0.369601
C38	C	1.443275	-0.598917	-0.436483
C39	C	1.443262	-0.552010	-0.436445
N40	N	1.510039	-0.528498	-0.503330
C41	C	1.576846	-0.551904	-0.570228
C42	C	1.443517	-0.978959	-0.436592
C43	C	1.443548	-1.025877	-0.436604
C44	C	1.577137	-1.025771	-0.570391
C45	C	1.577111	-0.978852	-0.570372
C46	C	1.510293	-0.955447	-0.503477
C47	C	1.576789	-0.453378	-0.570179
C48	C	1.576761	-0.406458	-0.570150
C49	C	1.443168	-0.406569	-0.436367
C50	C	1.443199	-0.453484	-0.436392
C51	C	1.510013	-0.476888	-0.503307
O52	O	1.386498	-0.527753	-0.379559
O53	O	1.633623	-0.527591	-0.627116
C54	C	1.576951	-0.739568	-0.570301
C55	C	1.510169	-0.763078	-0.503424
C56	C	1.443362	-0.739672	-0.436527
C57	C	1.510200	-0.809995	-0.503437
C58	C	1.577007	-0.833401	-0.570334
C59	C	1.643783	-0.809889	-0.637219
C60	C	1.643758	-0.762974	-0.637199
C61	C	1.376586	-0.763184	-0.369642
C62	C	1.376617	-0.810099	-0.369667
C63	C	1.443424	-0.833505	-0.436565
C64	C	1.782656	-0.216404	-0.503364
C65	C	1.898809	-0.216408	-0.503372
C66	C	1.510157	-0.216352	-0.775913
C67	C	1.510187	-0.216334	-0.892067
C68	C	1.510274	-0.099217	-0.503454
C69	C	1.510355	-0.049283	-0.503502
C70	C	1.573755	-0.189024	-0.943882
C71	C	1.573788	-0.189005	-1.063933
C72	C	1.510075	-0.216406	-0.231833
C73	C	1.510247	-0.216298	-0.115681
H74	H	0.906166	-0.165790	-0.621489
C75	C	1.303139	-0.835954	-0.296087
N76	N	1.247790	-0.855427	-0.240676
C77	C	1.717270	-0.835645	-0.710808
N78	N	1.772612	-0.855046	-0.766237
H79	H	1.698065	-0.603089	-0.691601
C80	C	1.436691	-0.247900	-0.952200
N81	N	1.381331	-0.271677	-0.997492
H82	H	0.943284	-0.239756	-0.448889
H83	H	1.077829	-0.239743	-0.448865
H84	H	1.631151	-0.387318	-0.624613
C85	C	1.369735	-0.479345	-0.362814
N86	N	1.314393	-0.498821	-0.307401
H87	H	1.388777	-0.387504	-0.381897
C88	C	1.650294	-0.479115	-0.643781
N89	N	1.705665	-0.498500	-0.699212
H90	H	1.322182	-0.744130	-0.315168
C91	C	1.717216	-0.694882	-0.710748
N92	N	1.772596	-0.714265	-0.766173
C93	C	1.650578	-0.952996	-0.643951
N94	N	1.705915	-0.933523	-0.699375
C95	C	1.650620	-1.051526	-0.643985
N96	N	1.705957	-1.070927	-0.699419
H97	H	1.628214	-0.165626	-1.108493
C98	C	1.370084	-1.051732	-0.363021
N99	N	1.314743	-1.071205	-0.307601
H100	H	1.455826	-0.239681	-1.071127
H101	H	1.115292	-0.165775	-0.621450
H102	H	1.628150	-0.165657	-0.899366
H103	H	1.389105	-0.959906	-0.382115
C104	C	1.303031	-0.695198	-0.296038
N105	N	1.247678	-0.714667	-0.240625
C106	C	1.302981	-0.596684	-0.296007
N107	N	1.247620	-0.577296	-0.240574
H108	H	1.698143	-0.743836	-0.691660
