data_functionalizedCrystal
_audit_creation_method	'MofGen! by Chris Wilmer'
_symmetry_space_group_name_H-M	'P1'
_symmetry_Int_Tables_number	1
_symmetry_cell_setting	triclinic
loop_
_symmetry_equiv_pos_as_xyz
  x,y,z
_cell_length_a	14.044220
_cell_length_b	14.044220
_cell_length_c	12.996460
_cell_angle_alpha	89.993022
_cell_angle_beta	89.999501
_cell_angle_gamma	93.188878
loop_
_atom_site_label
_atom_site_type_symbol
_atom_site_fract_x
_atom_site_fract_y
_atom_site_fract_z
O1	O	1.277169	0.230169	-0.085462
O2	O	1.527169	0.480169	0.164538
O3	O	1.777169	0.730169	0.414538
O4	O	2.027169	0.980169	0.664538
O5	O	1.000498	0.221864	-0.085487
O6	O	1.250498	0.471864	0.164513
O7	O	1.500498	0.721864	0.414513
O8	O	1.750498	0.971864	0.664513
O9	O	1.134681	0.087681	-0.085465
O10	O	1.384681	0.337681	0.164535
O11	O	1.634681	0.587681	0.414535
O12	O	1.884681	0.837681	0.664535
O13	O	1.142987	0.364352	-0.085484
O14	O	1.392987	0.614352	0.164516
O15	O	1.642987	0.864352	0.414516
O16	O	1.892987	1.114352	0.664516
O17	O	1.134665	0.087671	0.085669
O18	O	1.384665	0.337671	0.335669
O19	O	1.634665	0.587671	0.585669
O20	O	1.884665	0.837671	0.835669
O21	O	1.000482	0.221854	0.085646
O22	O	1.250482	0.471854	0.335646
O23	O	1.500482	0.721854	0.585646
O24	O	1.750482	0.971854	0.835646
O25	O	1.277153	0.230160	0.085672
O26	O	1.527153	0.480160	0.335672
O27	O	1.777153	0.730160	0.585672
O28	O	2.027153	0.980160	0.835672
Cu29	Cu	1.138816	0.226006	0.101285
Cu30	Cu	1.388816	0.476006	0.351285
Cu31	Cu	1.638816	0.726006	0.601285
Cu32	Cu	1.888816	0.976006	0.851285
Cu33	Cu	1.138835	0.226017	-0.101100
Cu34	Cu	1.388835	0.476017	0.148900
Cu35	Cu	1.638835	0.726017	0.398900
Cu36	Cu	1.888835	0.976017	0.648900
O37	O	1.142971	0.364343	0.085650
O38	O	1.392971	0.614343	0.335650
O39	O	1.642971	0.864343	0.585650
O40	O	1.892971	1.114343	0.835650
C41	C	0.964868	0.218223	0.000076
C42	C	1.214868	0.468223	0.250076
C43	C	1.464868	0.718223	0.500076
C44	C	1.714868	0.968223	0.750076
C45	C	0.858725	0.207379	0.000067
C46	C	1.108725	0.457379	0.250067
C47	C	1.358725	0.707379	0.500067
C48	C	1.608725	0.957379	0.750067
C49	C	1.131037	0.052054	0.000102
C50	C	1.381037	0.302054	0.250102
C51	C	1.631037	0.552054	0.500102
C52	C	1.881037	0.802054	0.750102
C53	C	1.120193	-0.054088	0.000103
C54	C	1.370193	0.195912	0.250103
C55	C	1.620193	0.445912	0.500103
C56	C	1.870193	0.695912	0.750103
C57	C	0.664388	0.187553	0.000088
C58	C	0.914388	0.437553	0.250088
C59	C	1.164388	0.687553	0.500088
C60	C	1.414388	0.937553	0.750088
C61	C	0.613258	0.264467	0.000087
C62	C	0.863258	0.514467	0.250087
C63	C	1.113258	0.764467	0.500087
C64	C	1.363258	1.014467	0.750087
C65	C	0.505122	0.253435	0.000100
C66	C	0.755122	0.503435	0.250100
C67	C	1.005122	0.753435	0.500100
C68	C	1.255122	1.003435	0.750100
C69	C	0.772534	0.198583	0.000076
C70	C	1.022534	0.448583	0.250076
C71	C	1.272534	0.698583	0.500076
C72	C	1.522534	0.948583	0.750076
C73	C	1.100366	-0.248426	0.000086
C74	C	1.350366	0.001574	0.250086
C75	C	1.600366	0.251574	0.500086
C76	C	1.850366	0.501574	0.750086
C77	C	1.177281	-0.299556	0.000090
C78	C	1.427281	-0.049556	0.250090
C79	C	1.677281	0.200444	0.500090
C80	C	1.927281	0.450444	0.750090
C81	C	1.166249	-0.407692	0.000081
C82	C	1.416249	-0.157692	0.250081
C83	C	1.666249	0.092308	0.500081
C84	C	1.916249	0.342308	0.750081
C85	C	1.111397	-0.140280	0.000095
C86	C	1.361397	0.109720	0.250095
C87	C	1.611397	0.359720	0.500095
C88	C	1.861397	0.609720	0.750095
C89	C	1.312783	0.233800	0.000106
C90	C	1.562783	0.483800	0.250106
C91	C	1.812783	0.733800	0.500106
C92	C	2.062783	0.983800	0.750106
C93	C	1.418926	0.244645	0.000109
C94	C	1.668926	0.494645	0.250109
C95	C	1.918926	0.744645	0.500109
C96	C	2.168926	0.994645	0.750109
C97	C	1.146614	0.399969	0.000080
C98	C	1.396614	0.649969	0.250080
C99	C	1.646614	0.899969	0.500080
C100	C	1.896614	1.149969	0.750080
C101	C	1.157459	0.506112	0.000073
C102	C	1.407459	0.756112	0.250073
C103	C	1.657459	1.006112	0.500073
C104	C	1.907459	1.256112	0.750073
N105	N	1.138810	0.225998	0.243632
N106	N	1.388810	0.475998	0.493632
N107	N	1.638810	0.725998	0.743632
N108	N	1.888810	0.975998	0.993632
N109	N	1.138848	0.226018	-0.243447
N110	N	1.388848	0.476018	0.006553
N111	N	1.638848	0.726018	0.256553
N112	N	1.888848	0.976018	0.506553
C113	C	1.138834	0.226018	0.663447
C114	C	1.388834	0.476018	0.913447
C115	C	1.638834	0.726018	1.163447
C116	C	1.888834	0.976018	1.413447
C117	C	1.138825	0.226016	0.546642
C118	C	1.388825	0.476016	0.796642
C119	C	1.638825	0.726016	1.046642
C120	C	1.888825	0.976016	1.296642
C121	C	1.138822	0.226009	0.453543
C122	C	1.388822	0.476009	0.703543
C123	C	1.638822	0.726009	0.953543
C124	C	1.888822	0.976009	1.203543
C125	C	1.138812	0.226005	0.336731
C126	C	1.388812	0.476005	0.586731
C127	C	1.638812	0.726005	0.836731
C128	C	1.888812	0.976005	1.086731
H129	H	0.650697	0.338600	0.000077
H130	H	0.900697	0.588600	0.250077
H131	H	1.150697	0.838600	0.500077
H132	H	1.400697	1.088600	0.750077
C133	C	1.277433	-0.248986	0.000116
C134	C	1.527433	0.001014	0.250116
C135	C	1.777433	0.251014	0.500116
C136	C	2.027433	0.501014	0.750116
C137	C	1.288475	-0.139279	0.000134
C138	C	1.538475	0.110721	0.250134
C139	C	1.788475	0.360721	0.500134
C140	C	2.038475	0.610721	0.750134
C141	C	1.388623	-0.088705	0.000166
C142	C	1.638623	0.161295	0.250166
C143	C	1.888623	0.411295	0.500166
C144	C	2.138623	0.661295	0.750166
C145	C	1.477730	-0.147838	0.000180
C146	C	1.727730	0.102162	0.250180
C147	C	1.977730	0.352162	0.500180
C148	C	2.227730	0.602162	0.750180
C149	C	1.466691	-0.257551	0.000162
C150	C	1.716691	-0.007551	0.250162
C151	C	1.966691	0.242449	0.500162
C152	C	2.216691	0.492449	0.750162
C153	C	1.366542	-0.308126	0.000130
C154	C	1.616542	-0.058126	0.250130
C155	C	1.866542	0.191874	0.500130
C156	C	2.116542	0.441874	0.750130
H157	H	1.222511	-0.095500	0.000124
H158	H	1.472511	0.154500	0.250124
H159	H	1.722511	0.404500	0.500124
H160	H	1.972511	0.654500	0.750124
H161	H	1.396795	-0.007487	0.000180
H162	H	1.646795	0.242513	0.250180
H163	H	1.896795	0.492513	0.500180
H164	H	2.146795	0.742513	0.750180
H165	H	1.551865	-0.110399	0.000204
H166	H	1.801865	0.139601	0.250204
H167	H	2.051865	0.389601	0.500204
H168	H	2.301865	0.639601	0.750204
H169	H	1.532655	-0.301331	0.000172
H170	H	1.782655	-0.051331	0.250172
H171	H	2.032655	0.198669	0.500172
H172	H	2.282655	0.448669	0.750172
H173	H	1.358371	-0.389343	0.000116
H174	H	1.608371	-0.139343	0.250116
H175	H	1.858371	0.110657	0.500116
H176	H	2.108371	0.360657	0.750116
H177	H	0.626951	0.113425	0.000099
H178	H	0.876951	0.363425	0.250099
H179	H	1.126951	0.613425	0.500099
H180	H	1.376951	0.863425	0.750099
H181	H	1.026239	-0.285863	0.000076
H182	H	1.276239	-0.035863	0.250076
H183	H	1.526239	0.214137	0.500076
H184	H	1.776239	0.464137	0.750076
