data_functionalizedCrystal
_audit_creation_method	'MofGen! by Chris Wilmer'
_symmetry_space_group_name_H-M	'P1'
_symmetry_Int_Tables_number	1
_symmetry_cell_setting	triclinic
loop_
_symmetry_equiv_pos_as_xyz
  x,y,z
_cell_length_a	27.732048
_cell_length_b	13.262390
_cell_length_c	12.376457
_cell_angle_alpha	94.164441
_cell_angle_beta	101.174161
_cell_angle_gamma	83.571259
loop_
_atom_site_label
_atom_site_type_symbol
_atom_site_fract_x
_atom_site_fract_y
_atom_site_fract_z
O1	O	0.113057	1.285880	0.489395
O2	O	0.111500	0.999223	0.401259
O3	O	0.042200	1.151459	0.448044
O4	O	0.182357	1.133644	0.442610
O5	O	0.024923	1.189547	0.271737
O6	O	0.094223	1.037311	0.224952
O7	O	0.095780	1.323969	0.313088
Zn8	Zn	0.092258	1.186687	0.241028
Zn9	Zn	0.115022	1.136504	0.473320
O10	O	0.165080	1.171733	0.266303
C11	C	0.101360	0.981605	0.301833
C12	C	0.096881	0.872363	0.268245
C13	C	0.121922	0.481385	0.558000
C14	C	0.126128	0.584023	0.589560
C15	C	0.118817	0.656113	0.509234
C16	C	0.107298	0.625554	0.397343
C17	C	0.103088	0.522907	0.365780
C18	C	0.099983	0.697635	0.317014
C19	C	0.088465	0.667077	0.205122
C20	C	0.084255	0.564439	0.173565
C21	C	0.091566	0.492349	0.253891
C22	C	0.104193	0.800283	0.348577
C23	C	0.085360	0.841805	0.156356
C24	C	0.081153	0.739167	0.124796
C25	C	0.015541	1.170130	0.359773
C26	C	-0.038155	1.169006	0.359418
C27	C	-0.373987	1.251868	0.384953
C28	C	-0.575795	1.247689	0.383684
O29	O	-0.604322	1.323461	0.407030
N30	N	-0.598163	1.157422	0.355929
C31	C	-0.570075	1.068192	0.328497
O32	O	-0.593730	0.991316	0.304872
C33	C	-0.368267	1.072371	0.329774
C34	C	-0.345903	1.162646	0.357520
C35	C	-0.351622	1.342136	0.412697
C36	C	-0.301173	1.343181	0.413009
C37	C	-0.273090	1.253958	0.385575
C38	C	-0.295454	1.163691	0.357831
C39	C	-0.340179	0.983140	0.302350
C40	C	-0.289724	0.984192	0.302674
C41	C	-0.267360	1.074467	0.330420
C42	C	-0.216922	1.075513	0.330709
N43	N	-0.194554	1.165780	0.358463
C44	C	-0.222638	1.255003	0.385897
C45	C	-0.676028	1.066005	0.327826
C46	C	-0.726480	1.064961	0.327505
C47	C	-0.732196	1.244458	0.382694
C48	C	-0.681744	1.245503	0.383007
C49	C	-0.653659	1.156272	0.355581
C50	C	-0.116692	1.257191	0.386547
C51	C	-0.066239	1.258229	0.386851
C52	C	-0.060527	1.078731	0.331668
C53	C	-0.110976	1.077694	0.331358
C54	C	-0.139057	1.166931	0.358804
O55	O	-0.188363	0.999779	0.307387
O56	O	-0.198971	1.331862	0.409542
C57	C	-0.424435	1.250823	0.384642
C58	C	-0.446800	1.160556	0.356897
C59	C	-0.418716	1.071333	0.329464
C60	C	-0.497252	1.159511	0.356576
C61	C	-0.525336	1.248734	0.384009
C62	C	-0.502967	1.339000	0.411764
C63	C	-0.452519	1.340045	0.412075
C64	C	-0.441084	0.981066	0.301709
C65	C	-0.491533	0.980029	0.301399
C66	C	-0.519617	1.069251	0.328833
C67	C	0.191740	1.153061	0.354577
C68	C	0.245437	1.154183	0.354938
C69	C	0.105920	1.341586	0.412516
C70	C	0.110400	1.450827	0.446112
N71	N	0.130554	1.102256	0.631853
N72	N	0.076723	1.220944	0.082497
C73	C	0.040673	1.300472	1.047753
C74	C	0.029807	1.324447	0.936781
C75	C	0.054993	1.268901	0.860544
C76	C	0.091046	1.189376	0.895289
C77	C	0.101910	1.165394	1.006270
C78	C	0.116230	1.133823	0.819061
C79	C	0.152284	1.054298	0.853806
C80	C	0.163146	1.030320	0.964776
C81	C	0.137960	1.085865	1.041014
C82	C	0.105366	1.157806	0.708080
C83	C	0.166604	1.022728	0.666596
C84	C	0.177469	0.998753	0.777568
H85	H	-0.048033	1.331745	0.409443
N86	N	0.192327	0.965969	0.588730
N87	N	0.168886	0.918575	0.508102
H88	H	0.187050	0.878490	0.453102
H89	H	0.046145	1.288426	0.770187
N90	N	-0.007030	1.405657	0.901313
N91	N	-0.050520	1.402461	0.913546
H92	H	-0.076541	1.459818	0.888505
H93	H	0.071775	0.714271	0.033693
H94	H	0.113573	0.825152	0.439679
N95	N	-0.658899	1.337710	0.411379
N96	N	-0.624101	1.342268	0.492041
H97	H	-0.607969	1.407392	0.512083
N98	N	-0.261029	0.893051	0.274669
N99	N	-0.224949	0.857558	0.343008
H100	H	-0.204682	0.793191	0.323229
H101	H	0.146808	1.066348	1.131378
H102	H	-0.129189	1.004191	0.308736
N103	N	0.014885	1.357167	1.125532
N104	N	0.017308	1.450793	1.141121
H105	H	-0.000934	1.490821	1.196019
N106	N	0.072491	0.533245	0.059266
N107	N	0.100400	0.549024	-0.004490
H108	H	0.092093	0.526998	-0.085216
H109	H	-0.037652	1.006090	0.309329
H110	H	0.079406	0.900502	0.090948
H111	H	0.206825	0.934001	0.805872
N112	N	-0.429687	1.432270	0.440415
N113	N	-0.454775	1.511919	0.464903
H114	H	-0.438654	1.577058	0.484921
H115	H	0.192499	0.965559	0.993062
N116	N	-0.145364	1.348351	0.414587
N117	N	-0.125381	1.428934	0.439354
H118	H	-0.145630	1.493318	0.459153
N119	N	-0.531668	1.430133	0.439772
N120	N	-0.576713	1.429174	0.439482
H121	H	-0.596985	1.493532	0.459265
H122	H	0.122243	0.739684	0.534937
N123	N	-0.278340	1.435403	0.441357
N124	N	-0.303429	1.515051	0.465851
H125	H	-0.287306	1.580188	0.485877
H126	H	-0.509738	0.906512	0.278795
N127	N	-0.380296	1.433290	0.440732
N128	N	-0.360311	1.513870	0.465503
H129	H	-0.380560	1.578257	0.485299
N130	N	-0.647337	0.974860	0.299813
N131	N	-0.611260	0.939349	0.368147
H132	H	-0.590999	0.874978	0.348360
H133	H	0.127868	0.422683	0.623390
N134	N	0.137882	0.615227	0.703850
N135	N	0.109969	0.599442	0.767595
H136	H	0.118269	0.621476	0.848320
N137	N	0.087280	0.387499	0.221656
N138	N	0.123352	0.322834	0.247542
H139	H	0.120327	0.248780	0.224780
N140	N	-0.760896	1.335590	0.410706
N141	N	-0.805941	1.334633	0.410411
H142	H	-0.826212	1.398991	0.430197
N143	N	-0.749316	0.972744	0.299136
N144	N	-0.724229	0.893092	0.274645
H145	H	-0.740354	0.827959	0.254612
H146	H	-0.358379	0.909627	0.279763
N147	N	-0.412408	0.889913	0.273686
N148	N	-0.432391	0.809330	0.248911
H149	H	-0.412141	0.744947	0.229112
N150	N	0.068535	1.239022	0.672596
N151	N	0.025041	1.235848	0.684808
H152	H	-0.000973	1.293211	0.659751
