data_functionalizedCrystal
_audit_creation_method	'MofGen! by Chris Wilmer'
_symmetry_space_group_name_H-M	'P1'
_symmetry_Int_Tables_number	1
_symmetry_cell_setting	triclinic
loop_
_symmetry_equiv_pos_as_xyz
  x,y,z
_cell_length_a	10.723024
_cell_length_b	9.065218
_cell_length_c	8.140239
_cell_angle_alpha	89.998314
_cell_angle_beta	89.997577
_cell_angle_gamma	84.741877
loop_
_atom_site_label
_atom_site_type_symbol
_atom_site_fract_x
_atom_site_fract_y
_atom_site_fract_z
O1	O	1.658026	0.206940	-0.136596
O2	O	1.294954	0.226748	-0.136601
O3	O	1.483995	0.002159	-0.136595
O4	O	1.468985	0.431529	-0.136602
O5	O	1.483984	0.002156	0.136632
O6	O	1.294944	0.226745	0.136627
O7	O	1.658015	0.206937	0.136631
Zn8	Zn	1.476478	0.216841	0.180010
Zn9	Zn	1.476492	0.216844	-0.179979
O10	O	1.468975	0.431526	0.136626
C11	C	1.482547	-0.052821	0.000016
C12	C	1.478234	-0.216639	0.000008
C13	C	1.248443	0.225305	0.000012
C14	C	1.109872	0.220992	0.000010
C15	C	1.035399	0.346660	0.000007
C16	C	0.892178	0.342206	0.000005
C17	C	1.704526	0.208380	0.000015
C18	C	1.843098	0.212693	0.000006
C19	C	1.470423	0.486506	0.000011
C20	C	1.474736	0.650324	0.000008
N21	N	1.476477	0.216837	0.425692
N22	N	1.476502	0.216836	-0.425661
H23	H	1.077672	0.457547	0.000015
H24	H	0.828182	0.449788	-0.000004
H25	H	1.067599	0.110105	-0.000030
H26	H	0.907086	0.105105	-0.000002
