data_functionalizedCrystal
_audit_creation_method	'MofGen! by Chris Wilmer'
_symmetry_space_group_name_H-M	'P1'
_symmetry_Int_Tables_number	1
_symmetry_cell_setting	triclinic
loop_
_symmetry_equiv_pos_as_xyz
  x,y,z
_cell_length_a	19.077236
_cell_length_b	13.031981
_cell_length_c	19.076919
_cell_angle_alpha	95.212724
_cell_angle_beta	90.112677
_cell_angle_gamma	99.168272
loop_
_atom_site_label
_atom_site_type_symbol
_atom_site_fract_x
_atom_site_fract_y
_atom_site_fract_z
Zn1	Zn	1.027260	-0.379248	0.406832
Zn2	Zn	1.018200	-0.546676	0.274444
Zn3	Zn	0.914520	-0.378700	0.284661
Zn4	Zn	0.894879	-0.560614	0.385943
O5	O	0.963714	-0.466310	0.337970
O6	O	1.124850	-0.395853	0.393737
O7	O	1.008875	-0.518331	0.178007
O8	O	0.941487	-0.232571	0.313886
O9	O	1.118194	-0.518863	0.296472
O10	O	1.024316	-0.232973	0.403644
O11	O	0.932702	-0.394920	0.185514
O12	O	0.813122	-0.408435	0.293630
O13	O	0.908011	-0.542618	0.486506
O14	O	0.798692	-0.542087	0.368042
O15	O	1.005271	-0.409369	0.501853
O16	O	0.989829	-0.694727	0.276216
O17	O	0.899226	-0.704967	0.358134
C18	C	0.780291	-0.476715	0.329678
C19	C	0.701819	-0.481192	0.326145
C20	C	0.668407	-0.419362	0.375185
C21	C	0.594675	-0.423564	0.371860
C22	C	0.554355	-0.489602	0.319497
C23	C	0.587773	-0.551435	0.270452
C24	C	0.661504	-0.547227	0.273775
C25	C	0.333472	-0.509038	0.304120
C26	C	0.259735	-0.513244	0.300803
C27	C	0.266643	-0.385371	0.402209
C28	C	0.340375	-0.381173	0.405530
C29	C	0.373786	-0.443002	0.356483
N30	N	0.478989	-0.493901	0.316098
N31	N	0.449152	-0.438697	0.359879
C32	C	0.941432	-0.737755	0.313816
C33	C	0.931963	-0.853878	0.303509
C34	C	0.968693	-0.905770	0.343365
C35	C	0.958907	-1.025789	0.332713
C36	C	1.147854	-0.455864	0.346295
C37	C	1.226323	-0.451413	0.349842
C38	C	0.955460	-0.477609	0.520245
C39	C	0.951943	-0.482425	0.597920
C40	C	0.986103	-0.193804	0.362235
C41	C	0.995643	-0.077678	0.372575
C42	C	0.971983	-0.454976	0.156413
C43	C	0.975662	-0.449859	0.078771
C44	C	1.000926	-0.415314	0.642403
C45	C	0.997612	-0.419835	0.715386
C46	C	0.945319	-0.491472	0.743885
C47	C	0.896331	-0.558586	0.699397
C48	C	0.899642	-0.554059	0.626415
C49	C	0.929984	-0.512445	0.961301
C50	C	0.926679	-0.516969	1.034288
C51	C	1.027960	-0.378217	1.050273
C52	C	1.031269	-0.373700	0.977288
C53	C	0.982278	-0.440810	0.932807
N54	N	0.941932	-0.496098	0.818486
N55	N	0.985662	-0.436179	0.858208
H56	H	0.701230	-0.365589	0.417826
H57	H	1.037501	-0.365189	0.751602
H58	H	0.554939	-0.605200	0.227815
H59	H	1.067844	-0.323579	1.086497
H60	H	0.853750	-0.616911	0.722606
O61	O	0.870270	-0.594231	1.065031
H62	H	0.836755	-0.640130	1.021840
O63	O	0.369503	-0.575728	0.251226
H64	H	0.408531	-0.524764	0.221399
O65	O	0.216244	-0.584462	0.244317
H66	H	0.223134	-0.666419	0.249539
O67	O	0.697545	-0.613910	0.220879
H68	H	0.725372	-0.667150	0.248872
O69	O	0.877117	-0.584773	0.913330
H70	H	0.840191	-0.635332	0.945412
O71	O	1.046907	-1.018834	0.428215
H72	H	1.101177	-1.035774	0.416936
H73	H	0.920210	-1.070214	0.290706
O74	O	0.846803	-0.626428	0.578432
H75	H	0.809884	-0.677003	0.610508
H76	H	0.893268	-0.898307	0.261504
O77	O	1.057328	-0.338048	0.611665
H78	H	1.090828	-0.292135	0.654862
O79	O	1.087676	-0.296439	0.946553
H80	H	1.081671	-0.215993	0.967308
O81	O	0.558638	-0.356871	0.424751
H82	H	0.568828	-0.377516	0.478610
O83	O	0.383865	-0.309929	0.461997
H84	H	0.348245	-0.267628	0.495534
H85	H	1.007382	-0.861345	0.385376
O86	O	0.230610	-0.318670	0.455100
H87	H	0.172568	-0.332678	0.443990
