data_functionalizedCrystal
_audit_creation_method	'MofGen! by Chris Wilmer'
_symmetry_space_group_name_H-M	'P1'
_symmetry_Int_Tables_number	1
_symmetry_cell_setting	triclinic
loop_
_symmetry_equiv_pos_as_xyz
  x,y,z
_cell_length_a	16.109301
_cell_length_b	14.472310
_cell_length_c	16.109304
_cell_angle_alpha	89.998261
_cell_angle_beta	83.462059
_cell_angle_gamma	90.010306
loop_
_atom_site_label
_atom_site_type_symbol
_atom_site_fract_x
_atom_site_fract_y
_atom_site_fract_z
O1	O	1.103144	0.076777	0.106861
O2	O	0.861082	0.076791	0.120161
O3	O	0.988761	0.076784	-0.007520
O4	O	0.975465	0.076784	0.234542
O5	O	0.988729	-0.076898	-0.007512
O6	O	0.861049	-0.076891	0.120168
O7	O	1.103111	-0.076905	0.106869
Cu8	Cu	0.982077	-0.090931	0.113519
Cu9	Cu	0.982116	0.090816	0.113510
O10	O	0.975432	-0.076898	0.234549
C11	C	0.830091	-0.000048	0.119626
C12	C	0.737795	-0.000043	0.118010
N13	N	0.982056	-0.218762	0.113525
C14	C	0.515524	-0.000054	0.190018
C15	C	0.428803	-0.000060	0.188494
C16	C	0.448676	-0.000056	0.037005
C17	C	0.535395	-0.000056	0.038530
C18	C	0.568816	-0.000051	0.115039
C19	C	0.395377	-0.000056	0.111990
C20	C	0.301351	-0.000062	0.110337
C21	C	0.662848	-0.000046	0.116693
C22	C	0.982115	-0.592853	0.113507
C23	C	0.913567	-0.553683	0.181597
C24	C	0.913725	-0.446595	0.181845
C25	C	0.982085	-0.407262	0.113516
C26	C	1.068829	-0.446104	0.132440
C27	C	1.068444	-0.553226	0.132924
C28	C	0.964692	-0.553381	0.026291
C29	C	0.962702	-0.446253	0.026873
C30	C	0.982073	-0.302374	0.113519
C31	C	0.982132	-0.697741	0.113505
C32	C	1.134102	-0.000064	0.107404
C33	C	1.226398	-0.000064	0.109019
C34	C	0.988206	-0.000055	-0.038491
C35	C	0.986590	-0.000049	-0.130786
N36	N	0.982144	0.218647	0.113498
C37	C	0.982874	0.083720	-0.343128
C38	C	0.981348	0.083719	-0.429848
C39	C	0.981316	-0.083833	-0.429837
C40	C	0.982837	-0.083831	-0.343117
C41	C	0.983620	-0.000052	-0.299766
C42	C	0.980573	-0.000055	-0.473205
C43	C	0.978919	-0.000056	-0.567231
C44	C	0.985273	-0.000050	-0.205734
C45	C	0.975987	-0.000058	0.265520
C46	C	0.977603	-0.000058	0.357816
H47	H	0.542732	-0.000056	0.252316
C48	C	0.928768	-0.411955	0.269271
H49	H	0.928913	-0.346312	0.269723
H50	H	0.981132	-0.434142	0.282626
H51	H	0.885532	-0.434031	0.309402
C52	C	0.980530	0.175866	-0.477547
H53	H	0.979504	0.163870	-0.535402
H54	H	1.029241	0.210287	-0.469693
H55	H	0.932326	0.210288	-0.456979
H56	H	0.385416	-0.000064	0.249550
C57	C	0.983659	-0.175985	-0.295416
H58	H	0.982987	-0.225881	-0.333655
H59	H	0.935798	-0.179465	-0.255232
H60	H	1.032712	-0.179464	-0.267942
H61	H	1.084553	-0.419268	0.195320
C62	C	1.089178	-0.586972	0.218850
H63	H	1.097753	-0.535214	0.253134
H64	H	1.138458	-0.623513	0.211831
H65	H	1.044100	-0.622995	0.244605
C66	C	0.411909	-0.000050	-0.047147
H67	H	0.352630	-0.000040	-0.037318
H68	H	0.430193	-0.053639	-0.078021
H69	H	0.430215	0.053552	-0.078015
C70	C	1.139414	-0.588232	0.068475
H71	H	1.168358	-0.536982	0.042119
H72	H	1.116565	-0.624713	0.027626
H73	H	1.177115	-0.624584	0.095929
H74	H	0.980681	-0.152043	-0.465144
H75	H	0.578788	-0.000056	-0.022530
C76	C	0.826617	-0.411115	0.166635
H77	H	0.790813	-0.462171	0.160252
H78	H	0.831192	-0.374521	0.117371
H79	H	0.804096	-0.374779	0.212916
C80	C	0.826178	-0.588524	0.166634
H81	H	0.830711	-0.627276	0.118731
H82	H	0.791341	-0.537286	0.157955
H83	H	0.802573	-0.622527	0.213987
H84	H	1.121056	-0.420624	0.084164
C85	C	0.928385	-0.590027	0.268541
H86	H	0.976166	-0.628965	0.263525
H87	H	0.880918	-0.624129	0.291703
H88	H	0.937229	-0.539401	0.304031
H89	H	0.902813	-0.580445	0.008088
H90	H	0.898892	-0.420867	0.012511
H91	H	1.009388	-0.419482	-0.026169
H92	H	1.014681	-0.578710	-0.024379
H93	H	0.983509	0.151939	-0.307833
