data_functionalizedCrystal
_audit_creation_method	'MofGen! by Chris Wilmer'
_symmetry_space_group_name_H-M	'P1'
_symmetry_Int_Tables_number	1
_symmetry_cell_setting	triclinic
loop_
_symmetry_equiv_pos_as_xyz
  x,y,z
_cell_length_a	10.685661
_cell_length_b	10.685194
_cell_length_c	11.169409
_cell_angle_alpha	85.594469
_cell_angle_beta	85.612724
_cell_angle_gamma	89.666413
loop_
_atom_site_label
_atom_site_type_symbol
_atom_site_fract_x
_atom_site_fract_y
_atom_site_fract_z
Zn1	Zn	1.879763	-0.646589	-0.768232
Zn2	Zn	2.213096	-0.313256	-0.434899
Zn3	Zn	2.546429	0.020077	-0.101566
Zn4	Zn	1.863570	-0.856426	-0.551058
Zn5	Zn	2.196903	-0.523092	-0.217724
Zn6	Zn	2.530237	-0.189759	0.115609
Zn7	Zn	1.669958	-0.630560	-0.553459
Zn8	Zn	2.003291	-0.297227	-0.220126
Zn9	Zn	2.336624	0.036107	0.113207
Zn10	Zn	1.653902	-0.840227	-0.737618
Zn11	Zn	1.987235	-0.506894	-0.404284
Zn12	Zn	2.320569	-0.173560	-0.070951
O13	O	1.766798	-0.743450	-0.652592
O14	O	2.100131	-0.410117	-0.319258
O15	O	2.433465	-0.076784	0.014075
O16	O	2.053166	-0.687912	-0.751231
O17	O	2.386499	-0.354579	-0.417897
O18	O	2.719832	-0.021245	-0.084564
O19	O	1.837830	-0.826535	-0.383417
O20	O	2.171163	-0.493201	-0.050084
O21	O	2.504496	-0.159868	0.283250
O22	O	1.711285	-0.457123	-0.595767
O23	O	2.044618	-0.123789	-0.262434
O24	O	2.377952	0.209544	0.070900
O25	O	2.041269	-0.842078	-0.591673
O26	O	2.374602	-0.508744	-0.258340
O27	O	2.707936	-0.175411	0.074993
O28	O	1.865428	-0.468899	-0.753560
O29	O	2.198761	-0.135566	-0.420226
O30	O	2.532094	0.197767	-0.086893
O31	O	1.695583	-0.660592	-0.385182
O32	O	2.028917	-0.327259	-0.051848
O33	O	2.362250	0.006074	0.281485
O34	O	1.492277	-0.644885	-0.566081
O35	O	1.825610	-0.311552	-0.232748
O36	O	2.158944	0.021781	0.100585
O37	O	1.683920	-0.814470	-0.909638
O38	O	2.017254	-0.481137	-0.576305
O39	O	2.350587	-0.147803	-0.242971
O40	O	1.480481	-0.798927	-0.701382
O41	O	1.813814	-0.465593	-0.368048
O42	O	2.147148	-0.132260	-0.034715
O43	O	1.849859	-0.672205	-0.932130
O44	O	2.183193	-0.338872	-0.598797
O45	O	2.516526	-0.005538	-0.265464
O46	O	1.822261	-1.029840	-0.561988
O47	O	2.155594	-0.696507	-0.228654
O48	O	2.488928	-0.363174	0.104679
O49	O	1.668219	-1.017939	-0.699053
O50	O	2.001552	-0.684606	-0.365719
O51	O	2.334886	-0.351273	-0.032386
C52	C	1.440861	-0.718410	-0.630671
C53	C	1.774194	-0.385076	-0.297337
C54	C	2.107527	-0.051743	0.035996
C55	C	1.301421	-0.707728	-0.621319
C56	C	1.634754	-0.374394	-0.287986
C57	C	1.968087	-0.041061	0.045348
C58	C	1.741775	-1.069414	-0.626966
C59	C	2.075108	-0.736081	-0.293632
C60	C	2.408441	-0.402748	0.039701
C61	C	1.731184	-1.208872	-0.616051
C62	C	2.064518	-0.875538	-0.282717
C63	C	2.397851	-0.542205	0.050616
C64	C	2.094008	-0.768590	-0.674599
C65	C	2.427342	-0.435256	-0.341266
C66	C	2.760675	-0.101923	-0.007932
C67	C	2.233446	-0.779303	-0.683977
C68	C	2.566779	-0.445969	-0.350644
C69	C	2.900113	-0.112636	-0.017310
C70	C	1.766905	-0.743319	-0.965652
C71	C	2.100238	-0.409985	-0.632318
C72	C	2.433572	-0.076652	-0.298985
C73	C	1.766951	-0.743262	-1.099059
C74	C	2.100284	-0.409929	-0.765726
C75	C	2.433617	-0.076596	-0.432393
C76	C	1.791954	-0.416217	-0.678346
C77	C	2.125287	-0.082883	-0.345013
C78	C	2.458620	0.250450	-0.011680
C79	C	1.802673	-0.276769	-0.689321
C80	C	2.136007	0.056564	-0.355988
C81	C	2.469340	0.389898	-0.022655
C82	C	1.766771	-0.743497	-0.340762
C83	C	2.100104	-0.410164	-0.007428
C84	C	2.433437	-0.076830	0.325905
C85	C	1.766995	-0.743218	-0.207399
C86	C	2.100329	-0.409885	0.125934
C87	C	2.433662	-0.076552	0.459268
H88	H	1.281932	-0.848756	-0.744783
H89	H	1.615265	-0.515422	-0.411449
H90	H	1.948599	-0.182089	-0.078116
H91	H	1.252942	-0.638268	-0.560529
H92	H	1.586275	-0.304935	-0.227195
H93	H	1.919608	0.028399	0.106138
H94	H	1.871982	-1.228211	-0.760408
H95	H	2.205315	-0.894878	-0.427075
H96	H	2.538649	-0.561544	-0.093741
C97	C	1.637568	-1.274478	-0.519988
C98	C	1.970901	-0.941145	-0.186655
C99	C	2.304234	-0.607811	0.146679
N100	N	1.567069	-1.323895	-0.447624
N101	N	1.900403	-0.990561	-0.114290
N102	N	2.233736	-0.657228	0.219043
