data_functionalizedCrystal
_audit_creation_method	'MofGen! by Chris Wilmer'
_symmetry_space_group_name_H-M	'P1'
_symmetry_Int_Tables_number	1
_symmetry_cell_setting	triclinic
loop_
_symmetry_equiv_pos_as_xyz
  x,y,z
_cell_length_a	14.908783
_cell_length_b	12.594516
_cell_length_c	14.908308
_cell_angle_alpha	93.271498
_cell_angle_beta	89.788727
_cell_angle_gamma	93.307231
loop_
_atom_site_label
_atom_site_type_symbol
_atom_site_fract_x
_atom_site_fract_y
_atom_site_fract_z
Zn1	Zn	1.345337	-0.372278	-0.587858
Zn2	Zn	1.353928	-0.539464	-0.437510
Zn3	Zn	1.203650	-0.371126	-0.428829
Zn4	Zn	1.194954	-0.559845	-0.579133
O5	O	1.274467	-0.460678	-0.508333
O6	O	1.472304	-0.386408	-0.575198
O7	O	1.341228	-0.508122	-0.310535
O8	O	1.222489	-0.222331	-0.449942
O9	O	1.478615	-0.509239	-0.464738
O10	O	1.326586	-0.223177	-0.566780
O11	O	1.230819	-0.384445	-0.304157
O12	O	1.076669	-0.404208	-0.441483
O13	O	1.207669	-0.543976	-0.706115
O14	O	1.070281	-0.542859	-0.551911
O15	O	1.318154	-0.406171	-0.712524
O16	O	1.332796	-0.691115	-0.456279
O17	O	1.215999	-0.706089	-0.560329
C18	C	1.040849	-0.475621	-0.494809
C19	C	0.940905	-0.482040	-0.489044
C20	C	0.746516	-0.366399	-0.593410
C21	C	0.652609	-0.372427	-0.587997
C22	C	0.659185	-0.500119	-0.472801
C23	C	0.753091	-0.494091	-0.478214
C24	C	0.796753	-0.427229	-0.538522
C25	C	0.890661	-0.421207	-0.543939
C26	C	0.897235	-0.548893	-0.428739
C27	C	0.803328	-0.554921	-0.423326
C28	C	1.274409	-0.737222	-0.508320
C29	C	1.274464	-0.855526	-0.508350
C30	C	1.210935	-0.932960	-0.564900
C31	C	1.193765	-0.999318	-0.481590
C32	C	1.291715	-0.999962	-0.591679
C33	C	1.257254	-0.920326	-0.424993
C34	C	1.355239	-0.920965	-0.535141
C35	C	1.338103	-0.987286	-0.451775
C36	C	1.508998	-0.445678	-0.521910
C37	C	1.608940	-0.439286	-0.527696
C38	C	1.260983	-0.477475	-0.742856
C39	C	1.255237	-0.484633	-0.842796
C40	C	1.274549	-0.183054	-0.508366
C41	C	1.274584	-0.064747	-0.508380
C42	C	1.359485	-0.354563	-1.037270
C43	C	1.354089	-0.361284	-1.131173
C44	C	1.239044	-0.504792	-1.124506
C45	C	1.244440	-0.498071	-1.030604
C46	C	1.304664	-0.422954	-0.986989
C47	C	1.310064	-0.416239	-0.893085
C48	C	1.195015	-0.559741	-0.886419
C49	C	1.189619	-0.566462	-0.980322
C50	C	1.287951	-0.443866	-0.274724
C51	C	1.293871	-0.436398	-0.174795
H52	H	0.782066	-0.311963	-0.642519
H53	H	0.623619	-0.554541	-0.423692
N54	N	1.139655	-0.900991	-0.628132
H55	H	1.140494	-0.820745	-0.628098
H56	H	1.152048	-0.931288	-0.690846
N57	N	0.756234	-0.627023	-0.358276
H58	H	0.689121	-0.621610	-0.363172
H59	H	0.771839	-0.703008	-0.373112
N60	N	1.103361	-1.044758	-0.451577
H61	H	1.089885	-1.014619	-0.389062
H62	H	1.055420	-1.025226	-0.494374
N63	N	1.375019	-0.335229	-0.846039
H64	H	1.408927	-0.292922	-0.892145
H65	H	1.340669	-0.285528	-0.804964
N66	N	1.174073	-0.585763	-1.171576
H67	H	1.208347	-0.635537	-1.212662
H68	H	1.140158	-0.628001	-1.125434
H69	H	0.938148	-0.598435	-0.384052
H70	H	0.926209	-0.366767	-0.593045
H71	H	1.306259	-1.034796	-0.662138
H72	H	0.611709	-0.322890	-0.632691
N73	N	1.237889	-0.874372	-0.331628
H74	H	1.237936	-0.794217	-0.332197
H75	H	1.177141	-0.903660	-0.311334
N76	N	1.124659	-0.647456	-1.027380
H77	H	1.158944	-0.697228	-1.068457
H78	H	1.090756	-0.689690	-0.981228
N79	N	1.424445	-0.273562	-0.990222
H80	H	1.458360	-0.231258	-1.036325
H81	H	1.390099	-0.223855	-0.949147
N82	N	1.409345	-1.018977	-0.388378
H83	H	1.396242	-0.989755	-0.325493
H84	H	1.409321	-1.099219	-0.389199
H85	H	1.150378	-0.615433	-0.845470
N86	N	1.413209	-0.287511	-1.185407
H87	H	1.452174	-0.238906	-1.143525
H88	H	1.452573	-0.330955	-1.226775
H89	H	1.423475	-0.886654	-0.557816
