data_functionalizedCrystal
_audit_creation_method	'MofGen! by Chris Wilmer'
_symmetry_space_group_name_H-M	'P1'
_symmetry_Int_Tables_number	1
_symmetry_cell_setting	triclinic
loop_
_symmetry_equiv_pos_as_xyz
  x,y,z
_cell_length_a	10.908937
_cell_length_b	16.109301
_cell_length_c	14.586319
_cell_angle_alpha	90.005214
_cell_angle_beta	89.994711
_cell_angle_gamma	108.226282
loop_
_atom_site_label
_atom_site_type_symbol
_atom_site_fract_x
_atom_site_fract_y
_atom_site_fract_z
O1	O	1.703891	0.128408	-0.076263
O2	O	2.037225	0.461741	0.257071
O3	O	2.370558	0.795075	0.590404
O4	O	1.330003	0.063482	-0.076261
O5	O	1.663337	0.396815	0.257073
O6	O	1.996670	0.730149	0.590406
O7	O	1.527218	0.218394	-0.076252
O8	O	1.860552	0.551728	0.257081
O9	O	2.193885	0.885061	0.590414
O10	O	1.506676	-0.026504	-0.076271
O11	O	1.840010	0.306829	0.257063
O12	O	2.173343	0.640163	0.590396
O13	O	1.527205	0.218394	0.076229
O14	O	1.860538	0.551728	0.409562
O15	O	2.193871	0.885061	0.742895
O16	O	1.329990	0.063482	0.076220
O17	O	1.663323	0.396815	0.409554
O18	O	1.996656	0.730149	0.742887
O19	O	1.703878	0.128408	0.076218
O20	O	2.037211	0.461741	0.409552
O21	O	2.370544	0.795075	0.742885
Cu22	Cu	1.516932	0.095945	0.090142
Cu23	Cu	1.850266	0.429278	0.423475
Cu24	Cu	2.183599	0.762612	0.756809
Cu25	Cu	1.516949	0.095945	-0.090184
Cu26	Cu	1.850282	0.429278	0.243149
Cu27	Cu	2.183615	0.762612	0.576482
O28	O	1.506663	-0.026504	0.076210
O29	O	1.839996	0.306829	0.409543
O30	O	2.173329	0.640163	0.742877
C31	C	1.282153	0.057415	-0.000020
C32	C	1.615486	0.390748	0.333314
C33	C	1.948820	0.724081	0.666647
C34	C	1.139594	0.039345	-0.000019
C35	C	1.472927	0.372678	0.333315
C36	C	1.806261	0.706012	0.666648
C37	C	0.943272	0.086611	-0.000032
C38	C	1.276605	0.419944	0.333302
C39	C	1.609938	0.753278	0.666635
C40	C	1.090614	0.105288	-0.000019
C41	C	1.423948	0.438622	0.333315
C42	C	1.757281	0.771955	0.666648
C43	C	1.526380	0.249254	-0.000011
C44	C	1.859713	0.582588	0.333322
C45	C	2.193046	0.915921	0.666655
C46	C	1.523885	0.341205	-0.000010
C47	C	1.857218	0.674539	0.333323
C48	C	2.190551	1.007872	0.666657
C49	C	1.751728	0.134476	-0.000025
C50	C	2.085062	0.467809	0.333309
C51	C	2.418395	0.801142	0.666642
C52	C	1.894287	0.152545	-0.000032
C53	C	2.227620	0.485879	0.333302
C54	C	2.560954	0.819212	0.666635
C55	C	1.507502	-0.057364	-0.000033
C56	C	1.840835	0.275969	0.333300
C57	C	2.174168	0.609303	0.666634
C58	C	1.509996	-0.149315	-0.000040
C59	C	1.843330	0.184018	0.333293
C60	C	2.176663	0.517352	0.666626
N61	N	1.516930	0.095947	0.216974
N62	N	1.850264	0.429280	0.550307
N63	N	2.183597	0.762614	0.883640
C64	C	1.635108	0.578835	-0.000025
C65	C	1.968441	0.912169	0.333308
C66	C	2.301774	1.245502	0.666641
C67	C	1.632754	0.665231	-0.000033
C68	C	1.966087	0.998564	0.333301
C69	C	2.299420	1.331897	0.666634
C70	C	1.398765	0.613047	-0.000028
C71	C	1.732098	0.946380	0.333305
C72	C	2.065431	1.279714	0.666639
C73	C	1.401120	0.526653	-0.000027
C74	C	1.734453	0.859987	0.333306
C75	C	2.067787	1.193320	0.666640
C76	C	1.519295	0.509551	-0.000021
C77	C	1.852629	0.842884	0.333312
C78	C	2.185962	1.176217	0.666646
C79	C	1.514586	0.682340	-0.000029
C80	C	1.847919	1.015673	0.333304
C81	C	2.181252	1.349006	0.666637
C82	C	1.512033	0.776013	-0.000038
C83	C	1.845366	1.109346	0.333296
C84	C	2.178699	1.442680	0.666629
C85	C	1.521849	0.415871	-0.000014
C86	C	1.855183	0.749205	0.333319
C87	C	2.188516	1.082538	0.666652
N88	N	1.516961	0.095951	-0.217016
N89	N	1.850294	0.429285	0.116317
N90	N	2.183627	0.762618	0.449651
C91	C	1.604286	0.164527	0.451984
C92	C	1.937619	0.497860	0.785317
C93	C	2.270953	0.831194	1.118650
C94	C	1.604290	0.164530	0.547965
C95	C	1.937623	0.497863	0.881298
C96	C	2.270956	0.831196	1.214632
C97	C	1.429596	0.027367	0.547967
C98	C	1.762929	0.360700	0.881301
C99	C	2.096263	0.694034	1.214634
C100	C	1.429587	0.027369	0.451988
C101	C	1.762920	0.360702	0.785321
C102	C	2.096254	0.694035	1.118654
C103	C	1.516939	0.095949	0.403998
C104	C	1.850273	0.429282	0.737332
C105	C	2.183606	0.762615	1.070665
C106	C	1.516952	0.095950	0.595959
C107	C	1.850285	0.429283	0.929293
C108	C	2.183619	0.762616	1.262626
C109	C	1.516955	0.095952	0.700026
C110	C	1.850289	0.429285	1.033360
C111	C	2.183622	0.762619	1.366693
C112	C	1.516935	0.095947	0.299925
C113	C	1.850268	0.429281	0.633258
C114	C	2.183601	0.762614	0.966591
H115	H	1.157755	0.175569	-0.000015
H116	H	1.491088	0.508903	0.333318
H117	H	1.824421	0.842236	0.666652
H118	H	1.731333	0.564914	-0.000022
H119	H	2.064667	0.898248	0.333311
H120	H	2.398000	1.231581	0.666644
H121	H	1.072455	-0.030936	-0.000030
H122	H	1.405788	0.302397	0.333303
H123	H	1.739122	0.635730	0.666636
H124	H	1.727060	0.721641	-0.000038
H125	H	2.060393	1.054974	0.333295
H126	H	2.393726	1.388308	0.666628
H127	H	0.961431	0.222821	-0.000028
H128	H	1.294765	0.556154	0.333305
H129	H	1.628098	0.889488	0.666639
H130	H	1.302550	0.626983	-0.000031
H131	H	1.635884	0.960317	0.333302
H132	H	1.969217	1.293650	0.666636
F133	F	1.697251	0.237518	0.400914
F134	F	2.030585	0.570851	0.734247
F135	F	2.363918	0.904184	1.067581
H136	H	1.358453	-0.028478	0.412915
H137	H	1.691786	0.304856	0.746249
H138	H	2.025119	0.638189	1.079582
H139	H	1.306806	0.470237	-0.000026
H140	H	1.640139	0.803570	0.333307
H141	H	1.973472	1.136903	0.666641
F142	F	1.336637	-0.045619	0.599047
F143	F	1.669970	0.287714	0.932380
F144	F	2.003303	0.621048	1.265714
F145	F	0.855516	-0.005247	-0.000053
F146	F	1.188849	0.328086	0.333281
F147	F	1.522182	0.661419	0.666614
F148	F	1.697253	0.237521	0.599032
F149	F	2.030586	0.570855	0.932365
F150	F	2.363920	0.904188	1.265698
