data_functionalizedCrystal
_audit_creation_method	'MofGen! by Chris Wilmer'
_symmetry_space_group_name_H-M	'P1'
_symmetry_Int_Tables_number	1
_symmetry_cell_setting	triclinic
loop_
_symmetry_equiv_pos_as_xyz
  x,y,z
_cell_length_a	10.654549
_cell_length_b	10.654551
_cell_length_c	9.730223
_cell_angle_alpha	89.998531
_cell_angle_beta	89.998748
_cell_angle_gamma	95.513860
loop_
_atom_site_label
_atom_site_type_symbol
_atom_site_fract_x
_atom_site_fract_y
_atom_site_fract_z
O1	O	1.667832	-0.176423	-0.114314
O2	O	1.302354	-0.193222	-0.114309
O3	O	1.493495	-0.002083	-0.114312
O4	O	1.476691	-0.367561	-0.114310
O5	O	1.493493	-0.002088	0.114268
O6	O	1.302352	-0.193227	0.114271
O7	O	1.667830	-0.176427	0.114266
Zn8	Zn	1.485091	-0.184828	0.150561
Zn9	Zn	1.485093	-0.184822	-0.150603
O10	O	1.476689	-0.367566	0.114269
C11	C	1.255555	-0.191990	-0.000018
C12	C	1.116112	-0.188295	-0.000016
C13	C	0.826128	-0.409918	-0.000054
C14	C	0.877666	-0.525937	-0.000048
C15	C	1.008684	-0.529412	-0.000030
C16	C	1.088169	-0.416857	-0.000022
C17	C	1.036632	-0.300839	-0.000028
C18	C	0.905609	-0.297375	-0.000042
C19	C	1.064575	-0.072277	-0.000022
C20	C	0.933557	-0.068799	-0.000031
C21	C	1.144060	0.040278	-0.000015
C22	C	1.092523	0.156300	-0.000011
C23	C	0.961496	0.159771	-0.000028
C24	C	0.882019	0.047220	-0.000037
C25	C	1.492260	0.044712	-0.000025
C26	C	1.488568	0.184155	-0.000034
C27	C	1.714629	-0.177660	-0.000028
C28	C	1.854072	-0.181354	-0.000038
C29	C	1.477924	-0.414362	-0.000020
C30	C	1.481616	-0.553805	-0.000020
N31	N	1.485098	-0.184832	0.356097
C32	C	1.486837	0.249670	-0.124631
C33	C	1.483356	0.380690	-0.124625
C34	C	1.483344	0.380671	0.124586
C35	C	1.486815	0.249652	0.124578
C36	C	1.488590	0.184174	-0.249243
C37	C	1.486860	0.249689	-0.373850
C38	C	1.483380	0.380709	-0.373844
C39	C	1.481629	0.446215	-0.249231
N40	N	1.485096	-0.184808	-0.356140
C41	C	1.569757	-0.100224	0.428022
C42	C	1.569754	-0.100209	0.571904
C43	C	1.400428	-0.269419	0.571926
C44	C	1.400426	-0.269428	0.428045
C45	C	1.654429	-0.015628	0.356073
C46	C	1.739096	0.068985	0.427998
C47	C	1.739093	0.069000	0.571881
C48	C	1.654422	-0.015598	0.643839
H49	H	0.812935	-0.617577	-0.000059
Cl50	Cl	1.192450	0.297781	-0.000009
H51	H	1.194850	-0.419697	-0.000023
Cl52	Cl	1.492971	0.019464	-0.249260
Cl53	Cl	1.293990	-0.375791	0.337624
H54	H	1.050644	-0.623885	-0.000023
H55	H	1.481919	0.434016	0.226040
Cl56	Cl	0.661418	-0.405558	-0.000048
H57	H	1.808025	0.137869	0.369402
H58	H	1.250741	0.037440	-0.000007
H59	H	1.808023	0.137904	0.630440
Cl60	Cl	1.489057	0.167341	-0.530497
H61	H	0.919544	0.254247	-0.000040
Cl62	Cl	1.293997	-0.375768	0.662388
Cl63	Cl	0.717308	0.051573	-0.000049
Cl64	Cl	1.481192	0.463066	-0.530488
Cl65	Cl	1.477241	0.610926	-0.249227
H66	H	1.488198	0.196305	0.226035
H67	H	1.654442	-0.015635	0.238916
H68	H	1.654418	-0.015570	0.760998
