data_functionalizedCrystal
_audit_creation_method	'MofGen! by Chris Wilmer'
_symmetry_space_group_name_H-M	'P1'
_symmetry_Int_Tables_number	1
_symmetry_cell_setting	triclinic
loop_
_symmetry_equiv_pos_as_xyz
  x,y,z
_cell_length_a	14.908618
_cell_length_b	14.908579
_cell_length_c	14.908694
_cell_angle_alpha	83.252790
_cell_angle_beta	96.408947
_cell_angle_gamma	90.205933
loop_
_atom_site_label
_atom_site_type_symbol
_atom_site_fract_x
_atom_site_fract_y
_atom_site_fract_z
Zn1	Zn	-1.387400	0.474991	-0.617460
Zn2	Zn	-1.370832	0.616620	-0.473821
Zn3	Zn	-1.228310	0.456533	-0.456384
Zn4	Zn	-1.228268	0.616546	-0.616412
O5	O	-1.303702	0.541173	-0.541019
O6	O	-1.511446	0.501534	-0.606142
O7	O	-1.345010	0.587691	-0.344423
O8	O	-1.256364	0.332743	-0.470891
O9	O	-1.499273	0.605588	-0.500612
O10	O	-1.373247	0.346304	-0.589233
O11	O	-1.240299	0.470076	-0.331611
O12	O	-1.102061	0.470004	-0.469875
O13	O	-1.256293	0.605462	-0.743636
O14	O	-1.102030	0.587565	-0.587448
O15	O	-1.373207	0.501461	-0.744406
O16	O	-1.344970	0.742849	-0.499596
O17	O	-1.240228	0.742795	-0.604356
C18	C	-1.069312	0.526774	-0.526656
C19	C	-0.969038	0.520637	-0.520534
C20	C	-0.780612	0.631691	-0.631312
C21	C	-0.686396	0.625928	-0.625563
C22	C	-0.686390	0.503345	-0.503293
C23	C	-0.780606	0.509108	-0.509042
C24	C	-0.827713	0.573284	-0.573053
C25	C	-0.921930	0.579051	-0.578796
C26	C	-0.921923	0.456464	-0.456531
C27	C	-0.827707	0.450701	-0.450782
C28	C	-1.290822	0.775557	-0.553776
C29	C	-1.285396	0.875834	-0.559269
C30	C	-0.539008	0.555621	-0.555432
C31	C	-0.639282	0.561758	-0.561555
C32	C	-1.384391	1.064275	-0.460604
C33	C	-1.379296	1.158495	-0.465762
C34	C	-1.270115	1.158495	-0.574747
C35	C	-1.275211	1.064276	-0.569589
C36	C	-1.332349	1.017169	-0.512514
C37	C	-1.337439	0.922947	-0.507352
C38	C	-1.228264	0.922950	-0.616342
C39	C	-1.223169	1.017170	-0.621500
C40	C	-1.316593	0.555512	-0.777894
C41	C	-1.322087	0.561623	-0.878837
C42	C	-1.316653	1.305876	-0.528245
C43	C	-1.322159	1.205608	-0.522831
C44	C	-1.223353	0.450634	-1.055177
C45	C	-1.228511	0.456372	-1.150021
C46	C	-1.337557	0.578842	-1.163370
C47	C	-1.332398	0.573103	-1.068526
C48	C	-1.275295	0.508996	-1.014433
C49	C	-1.270142	0.503254	-0.919587
C50	C	-1.379182	0.625727	-0.932937
C51	C	-1.384341	0.631466	-1.027781
C52	C	-1.290917	0.526827	-0.305065
C53	C	-1.285612	0.520473	-0.204120
H54	H	-0.960284	0.631308	-0.630916
O55	O	-1.435419	1.209306	-0.409768
H56	H	-1.475999	1.160716	-0.369211
H57	H	-0.789339	0.398448	-0.398669
H58	H	-0.648019	0.451090	-0.451184
O59	O	-1.435225	0.688674	-0.888997
H60	H	-1.416863	0.759631	-0.910104
O61	O	-1.172130	0.872146	-0.672341
H62	H	-1.185274	0.798714	-0.659171
H63	H	-0.960282	0.408906	-0.409090
O64	O	-1.399140	0.647981	-1.221724
H65	H	-1.378778	0.716731	-1.206425
H66	H	-1.383962	0.884593	-0.460876
H67	H	-0.648050	0.673488	-0.673006
O68	O	-1.445926	0.700604	-1.086134
H69	H	-1.425566	0.769355	-1.070836
O70	O	-0.831431	0.700905	-0.700346
H71	H	-0.782849	0.740551	-0.739896
H72	H	-1.430909	1.025919	-0.414124
H73	H	-1.223602	1.196867	-0.621221
H74	H	-1.176651	1.055537	-0.667971
O75	O	-1.208558	0.434113	-0.861238
H76	H	-1.173301	0.394500	-0.905509
H77	H	-1.176866	0.398428	-1.011134
O78	O	-1.172496	0.393419	-1.193972
H79	H	-1.131930	0.347875	-1.140421
