data_functionalizedCrystal
_audit_creation_method	'MofGen! by Chris Wilmer'
_symmetry_space_group_name_H-M	'P1'
_symmetry_Int_Tables_number	1
_symmetry_cell_setting	triclinic
loop_
_symmetry_equiv_pos_as_xyz
  x,y,z
_cell_length_a	17.640112
_cell_length_b	12.645330
_cell_length_c	12.645324
_cell_angle_alpha	89.968341
_cell_angle_beta	101.175553
_cell_angle_gamma	101.241872
loop_
_atom_site_label
_atom_site_type_symbol
_atom_site_fract_x
_atom_site_fract_y
_atom_site_fract_z
Zn1	Zn	1.208346	-0.094026	-0.272304
Zn2	Zn	1.208259	-0.271358	-0.095067
Zn3	Zn	1.076170	-0.129957	-0.130833
Zn4	Zn	1.076155	-0.307123	-0.308048
O5	O	1.142233	-0.200616	-0.201563
O6	O	1.318936	-0.087544	-0.218866
O7	O	1.190707	-0.252670	0.048528
O8	O	1.093746	0.023169	-0.149608
O9	O	1.318872	-0.217829	-0.088651
O10	O	1.190855	0.049567	-0.253546
O11	O	1.093662	-0.148784	0.022251
O12	O	0.965567	-0.183463	-0.184268
O13	O	1.093720	-0.278785	-0.451646
O14	O	0.965556	-0.313626	-0.314467
O15	O	1.190840	-0.122224	-0.425385
O16	O	1.190693	-0.424461	-0.123311
O17	O	1.093636	-0.450737	-0.279787
C18	C	0.936883	-0.256325	-0.257128
C19	C	0.849034	-0.280184	-0.280924
C20	C	1.142175	-0.476061	-0.201564
C21	C	1.142223	-0.593878	-0.201580
C22	C	0.560028	-0.019348	-0.020796
C23	C	0.477481	-0.041788	-0.043171
C24	C	0.477523	-0.177513	-0.178513
C25	C	0.560073	-0.155081	-0.156154
C26	C	0.601319	-0.075998	-0.077294
C27	C	0.601363	-0.211731	-0.212651
C28	C	0.683905	-0.189304	-0.190289
C29	C	0.725157	-0.110227	-0.111430
C30	C	0.683861	-0.053571	-0.054932
C31	C	0.560116	-0.290819	-0.291506
C32	C	0.601406	-0.347469	-0.348003
C33	C	0.683950	-0.325038	-0.325647
C34	C	0.725202	-0.245960	-0.246788
C35	C	0.725246	-0.381694	-0.382146
C36	C	0.807788	-0.359267	-0.359784
C37	C	0.807744	-0.223534	-0.224426
C38	C	1.081416	-0.777948	-0.300203
C39	C	1.081105	-0.655473	-0.300023
C40	C	1.119674	-0.644605	-0.095963
C41	C	1.119303	-0.767304	-0.096562
C42	C	1.225949	-0.738241	-0.207567
C43	C	1.225436	-0.615773	-0.210149
C44	C	1.348384	-0.144689	-0.145782
C45	C	1.436233	-0.120857	-0.122011
C46	C	1.142288	-0.200486	-0.478053
C47	C	1.142312	-0.200431	-0.595877
C48	C	1.142312	0.075911	-0.201580
C49	C	1.142346	0.193750	-0.201587
C50	C	1.203424	-0.101916	-0.624234
C51	C	1.203686	-0.102059	-0.746723
C52	C	1.164646	-0.306139	-0.757711
C53	C	1.165066	-0.305579	-0.635000
C54	C	1.058761	-0.194183	-0.663668
C55	C	1.059232	-0.191563	-0.786147
C56	C	1.142223	-0.200656	0.073864
C57	C	1.142352	-0.200371	0.191729
H58	H	0.841329	-0.159121	-0.160226
C59	C	1.106375	-0.406659	-0.812811
N60	N	1.062484	-0.482369	-0.854315
C61	C	1.176644	-0.791821	0.004451
N62	N	1.219829	-0.810283	0.080537
H63	H	0.691651	-0.446090	-0.446346
H64	H	0.792368	-0.091971	-0.093223
C65	C	0.729236	0.033429	0.031815
N66	N	0.763413	0.098952	0.097152
H67	H	1.189657	-0.022503	-0.598506
H68	H	0.593613	0.045065	0.043404
H69	H	1.189756	-0.022942	-0.780601
H70	H	1.019824	-0.825567	-0.298163
C71	C	1.286588	-0.104933	-0.560120
N72	N	1.349228	-0.107209	-0.511827
C73	C	0.853210	-0.421580	-0.421939
N74	N	0.887422	-0.468517	-0.468755
H75	H	0.443865	0.004357	0.002835
H76	H	1.162645	-0.603792	-0.021470
C77	C	0.997360	-0.638705	-0.297163
N78	N	0.934274	-0.626078	-0.295036
C79	C	1.287339	-0.105248	-0.763719
N80	N	1.350349	-0.107655	-0.776519
H81	H	1.058188	-0.812584	-0.088867
H82	H	1.059196	-0.630410	-0.087658
H83	H	0.443930	-0.241906	-0.242718
H84	H	1.225042	-0.314635	-0.772100
H85	H	1.271343	-0.754917	-0.135465
C86	C	1.247568	-0.316220	-0.574045
N87	N	1.309713	-0.324228	-0.528138
H88	H	1.013233	-0.266207	-0.646951
C89	C	0.469316	-0.315487	-0.316103
N90	N	0.400926	-0.334064	-0.334630
C91	C	0.556026	-0.434456	-0.434749
N92	N	0.521847	-0.499973	-0.500091
C93	C	1.100161	-0.609549	-0.406780
N94	N	1.114511	-0.574965	-0.487196
C95	C	1.100294	-0.812554	-0.407376
N96	N	1.114512	-0.838629	-0.488101
C97	C	1.031255	-0.093378	-0.629375
N98	N	1.010546	-0.017445	-0.603543
H99	H	1.246519	-0.763493	-0.282081
C100	C	1.107539	-0.406506	-0.610438
N101	N	1.064217	-0.482530	-0.591940
H102	H	1.042414	-0.113838	-0.819805
H103	H	1.242441	-0.581998	-0.287767
C104	C	0.994480	-0.283848	-0.844958
N105	N	0.945713	-0.353377	-0.889237
C106	C	1.289995	-0.556859	-0.117748
N107	N	1.338619	-0.512487	-0.048142
