data_functionalizedCrystal
_audit_creation_method	'MofGen! by Chris Wilmer'
_symmetry_space_group_name_H-M	'P1'
_symmetry_Int_Tables_number	1
_symmetry_cell_setting	triclinic
loop_
_symmetry_equiv_pos_as_xyz
  x,y,z
_cell_length_a	10.723024
_cell_length_b	8.597340
_cell_length_c	7.088929
_cell_angle_alpha	76.045281
_cell_angle_beta	96.281863
_cell_angle_gamma	84.901851
loop_
_atom_site_label
_atom_site_type_symbol
_atom_site_fract_x
_atom_site_fract_y
_atom_site_fract_z
O1	O	0.171369	2.103244	-0.187485
O2	O	0.191739	1.638784	-0.110971
O3	O	-0.000106	1.881728	-0.151001
O4	O	0.363215	1.860300	-0.147456
O5	O	-0.025802	1.914194	-0.474325
O6	O	0.166043	1.671250	-0.434296
O7	O	0.145673	2.135710	-0.510810
Cu8	Cu	0.153512	1.906445	-0.502075
Cu9	Cu	0.183901	1.868049	-0.119706
O10	O	0.337519	1.892766	-0.470781
C11	C	0.178135	1.595546	-0.262837
C12	C	0.175867	1.418340	-0.233644
C13	C	-0.059441	1.896402	-0.312404
C14	C	-0.197958	1.891736	-0.311628
C15	C	-0.273999	2.027674	-0.334020
C16	C	-0.417165	2.022855	-0.333219
C17	C	0.396854	1.878092	-0.309374
C18	C	0.535373	1.882757	-0.310136
C19	C	0.159278	2.178948	-0.358941
C20	C	0.161547	2.356153	-0.388120
N21	N	0.132138	1.933462	-0.771015
N22	N	0.205265	1.841045	0.149231
H23	H	-0.233112	2.147624	-0.353792
O24	O	-0.386881	1.743767	-0.287323
C25	C	-0.370502	1.455166	-0.239650
C26	C	-0.458708	1.612453	-0.265513
H27	H	-0.428535	1.348954	-0.221969
H28	H	-0.319605	1.463531	-0.374135
H29	H	-0.298040	1.436566	-0.103548
H30	H	-0.531241	1.631149	-0.401541
H31	H	-0.509512	1.604015	-0.130928
O32	O	0.041572	2.047648	-0.887021
C33	C	-0.180479	2.144612	-0.964695
C34	C	-0.078042	2.015222	-0.833153
H35	H	-0.277214	2.118422	-0.921219
H36	H	-0.161402	2.268712	-0.945830
H37	H	-0.178659	2.142431	-1.124535
H38	H	-0.079805	2.017254	-0.673265
H39	H	-0.097156	1.891181	-0.852188
H40	H	0.186394	1.336002	-0.079039
O41	O	0.295766	1.726743	-0.734841
C42	C	0.462723	1.515593	-0.720778
C43	C	0.360298	1.645005	-0.852312
H44	H	0.514908	1.449449	-0.815695
H45	H	0.532531	1.575711	-0.637001
H46	H	0.416489	1.425733	-0.612223
H47	H	0.406422	1.734905	-0.960977
H48	H	0.290501	1.584775	-0.935950
H49	H	0.151012	1.438482	-0.542715
H50	H	-0.482504	2.139229	-0.352396
H51	H	-0.238846	1.771786	-0.291855
