data_functionalizedCrystal
_audit_creation_method	'MofGen! by Chris Wilmer'
_symmetry_space_group_name_H-M	'P1'
_symmetry_Int_Tables_number	1
_symmetry_cell_setting	triclinic
loop_
_symmetry_equiv_pos_as_xyz
  x,y,z
_cell_length_a	17.077404
_cell_length_b	10.686285
_cell_length_c	17.077396
_cell_angle_alpha	85.608118
_cell_angle_beta	89.980499
_cell_angle_gamma	85.631810
loop_
_atom_site_label
_atom_site_type_symbol
_atom_site_fract_x
_atom_site_fract_y
_atom_site_fract_z
Zn1	Zn	1.224115	-0.502339	-0.419935
Zn2	Zn	1.724115	-0.002339	0.080065
Zn3	Zn	1.234129	-0.713359	-0.278625
Zn4	Zn	1.734129	-0.213359	0.221375
Zn5	Zn	1.092848	-0.502383	-0.288680
Zn6	Zn	1.592848	-0.002383	0.211320
Zn7	Zn	1.102918	-0.713284	-0.409853
Zn8	Zn	1.602918	-0.213284	0.090147
O9	O	1.163502	-0.607841	-0.349273
O10	O	1.663502	-0.107841	0.150727
O11	O	1.335290	-0.530344	-0.401201
O12	O	1.835290	-0.030344	0.098799
O13	O	1.215364	-0.685422	-0.170110
O14	O	1.715364	-0.185422	0.329890
O15	O	1.101856	-0.325802	-0.314519
O16	O	1.601856	0.174198	0.185481
O17	O	1.342648	-0.685379	-0.297382
O18	O	1.842648	-0.185379	0.202618
O19	O	1.198297	-0.325769	-0.410951
O20	O	1.698297	0.174231	0.089049
O21	O	1.111566	-0.530419	-0.177497
O22	O	1.611566	-0.030419	0.322503
O23	O	0.984337	-0.530347	-0.304743
O24	O	1.484337	-0.030347	0.195257
O25	O	1.119018	-0.685252	-0.521039
O26	O	1.619018	-0.185252	-0.021039
O27	O	0.991734	-0.685295	-0.393768
O28	O	1.491734	-0.185295	0.106232
O29	O	1.208061	-0.530271	-0.528447
O30	O	1.708061	-0.030271	-0.028447
O31	O	1.225128	-0.889924	-0.287606
O32	O	1.725128	-0.389924	0.212394
O33	O	1.128728	-0.889869	-0.384018
O34	O	1.628728	-0.389869	0.115982
C35	C	0.959553	-0.607818	-0.349253
C36	C	1.459553	-0.107818	0.150747
C37	C	0.872305	-0.607839	-0.349261
C38	C	1.372305	-0.107839	0.150739
C39	C	0.835193	-0.688642	-0.395530
C40	C	1.335193	-0.188642	0.104470
C41	C	0.753212	-0.688645	-0.395542
C42	C	1.253212	-0.188645	0.104458
C43	C	0.708346	-0.607850	-0.349281
C44	C	1.208346	-0.107850	0.150719
C45	C	0.745463	-0.527038	-0.303011
C46	C	1.245463	-0.027038	0.196989
C47	C	0.827441	-0.527030	-0.303003
C48	C	1.327441	-0.027030	0.196997
C49	C	0.574594	-0.527063	-0.303028
C50	C	1.074594	-0.027063	0.196972
C51	C	0.492610	-0.527072	-0.303035
C52	C	0.992610	-0.027072	0.196965
C53	C	0.500365	-0.688678	-0.395568
C54	C	1.000365	-0.188678	0.104432
C55	C	0.582344	-0.688670	-0.395560
C56	C	1.082344	-0.188670	0.104440
C57	C	0.619455	-0.607859	-0.349288
C58	C	1.119455	-0.107859	0.150712
C59	C	1.179129	-0.935681	-0.333644
C60	C	1.679129	-0.435681	0.166356
C61	C	1.185885	-1.075932	-0.326983
C62	C	1.685885	-0.575932	0.173017
C63	C	1.368248	-0.607865	-0.349294
C64	C	1.868248	-0.107865	0.150706
C65	C	1.455498	-0.607875	-0.349303
C66	C	1.955498	-0.107875	0.150697
C67	C	1.163545	-0.607748	-0.554022
C68	C	1.663545	-0.107748	-0.054022
C69	C	1.163564	-0.607709	-0.641274
C70	C	1.663564	-0.107709	-0.141274
C71	C	1.147836	-0.278722	-0.364981
C72	C	1.647836	0.221278	0.135019
C73	C	1.141160	-0.138470	-0.371675
C74	C	1.641160	0.361530	0.128325
C75	C	1.209930	-0.527004	-0.686123
C76	C	1.709930	-0.027004	-0.186123
C77	C	1.209937	-0.526962	-0.768105
C78	C	1.709937	-0.026962	-0.268105
C79	C	1.163582	-0.607632	-0.805237
C80	C	1.663582	-0.107632	-0.305237
C81	C	1.117211	-0.688341	-0.760382
C82	C	1.617211	-0.188341	-0.260382
C83	C	1.117200	-0.688375	-0.678402
C84	C	1.617200	-0.188375	-0.178402
C85	C	1.117239	-0.688265	-0.931256
C86	C	1.617239	-0.188265	-0.431256
C87	C	1.117251	-0.688232	-1.013242
C88	C	1.617251	-0.188232	-0.513242
C89	C	1.209976	-0.526851	-1.020959
C90	C	1.709976	-0.026851	-0.520959
C91	C	1.209965	-0.526886	-0.938979
C92	C	1.709965	-0.026886	-0.438979
C93	C	1.163595	-0.607596	-0.894130
C94	C	1.663595	-0.107596	-0.394130
C95	C	1.163500	-0.607843	-0.145325
C96	C	1.663500	-0.107843	0.354675
C97	C	1.163617	-0.607527	-0.058091
C98	C	1.663617	-0.107527	0.441909
H99	H	0.723000	-0.754444	-0.433218
H100	H	1.223000	-0.254444	0.066782
H101	H	1.229342	-1.129693	-0.283617
H102	H	1.729342	-0.629693	0.216383
F103	F	0.444861	-0.441086	-0.253795
F104	F	0.944861	0.058914	0.246205
H105	H	0.618873	-0.754467	-0.433225
H106	H	1.118873	-0.254467	0.066775
F107	F	1.084354	-1.068212	-0.428349
F108	F	1.584354	-0.568212	0.071651
F109	F	1.259272	-0.441148	-0.646611
F110	F	1.759272	0.058852	-0.146611
H111	H	1.247695	-0.461247	-0.804617
H112	H	1.747695	0.038753	-0.304617
H113	H	1.247716	-0.461204	-0.908748
H114	H	1.747716	0.038796	-0.408748
F115	F	0.614088	-0.441053	-0.253781
F116	F	1.114088	0.058947	0.246219
F117	F	0.882937	-0.774643	-0.444764
F118	F	1.382937	-0.274643	0.055236
F119	F	0.460867	-0.774669	-0.444824
F120	F	0.960867	-0.274669	0.055176
F121	F	0.866938	-0.441025	-0.253759
F122	F	1.366938	0.058975	0.246241
F123	F	1.067848	-0.774270	-0.630671
F124	F	1.567848	-0.274270	-0.130671
F125	F	0.697710	-0.441041	-0.253781
F126	F	1.197710	0.058959	0.246219
H127	H	1.247732	-0.461131	-1.057480
H128	H	1.747732	0.038869	-0.557480
F129	F	1.067908	-0.774080	-1.052760
F130	F	1.567908	-0.274080	-0.552760
H131	H	1.079466	-0.753968	-0.894743
H132	H	1.579466	-0.253968	-0.394743
F133	F	1.067873	-0.774191	-0.799903
F134	F	1.567873	-0.274191	-0.299903
