data_functionalizedCrystal
_audit_creation_method	'MofGen! by Chris Wilmer'
_symmetry_space_group_name_H-M	'P1'
_symmetry_Int_Tables_number	1
_symmetry_cell_setting	triclinic
loop_
_symmetry_equiv_pos_as_xyz
  x,y,z
_cell_length_a	17.699083
_cell_length_b	15.944551
_cell_length_c	16.776229
_cell_angle_alpha	89.992397
_cell_angle_beta	89.998886
_cell_angle_gamma	83.390877
loop_
_atom_site_label
_atom_site_type_symbol
_atom_site_fract_x
_atom_site_fract_y
_atom_site_fract_z
O1	O	1.004260	0.106222	-0.066178
O2	O	1.504260	0.606222	0.433822
O3	O	0.783905	0.120042	-0.066204
O4	O	1.283905	0.620042	0.433796
O5	O	0.900100	-0.009156	-0.066183
O6	O	1.400100	0.490844	0.433817
O7	O	0.888065	0.235419	-0.066199
O8	O	1.388065	0.735419	0.433801
O9	O	0.900084	-0.009164	0.066393
O10	O	1.400084	0.490836	0.566393
O11	O	0.783890	0.120034	0.066372
O12	O	1.283890	0.620034	0.566372
O13	O	1.004244	0.106214	0.066398
O14	O	1.504244	0.606214	0.566398
Zn15	Zn	0.894065	0.113123	0.087435
Zn16	Zn	1.394065	0.613123	0.587435
Zn17	Zn	0.894085	0.113133	-0.087241
Zn18	Zn	1.394085	0.613133	0.412759
O19	O	0.888050	0.235411	0.066377
O20	O	1.388050	0.735411	0.566377
C21	C	0.755700	0.119542	0.000080
C22	C	1.255700	0.619542	0.500080
C23	C	0.671679	0.118057	0.000071
C24	C	1.171679	0.618057	0.500071
C25	C	0.899593	-0.040453	0.000105
C26	C	1.399593	0.459547	0.500105
C27	C	0.898095	-0.133696	0.000105
C28	C	1.398095	0.366304	0.500105
C29	C	0.623187	0.193893	0.000066
C30	C	1.123187	0.693893	0.500066
C31	C	0.544242	0.192492	0.000076
C32	C	1.044242	0.692492	0.500076
C33	C	0.513789	0.115254	0.000086
C34	C	1.013789	0.615254	0.500086
C35	C	0.562287	0.039412	0.000093
C36	C	1.062287	0.539412	0.500093
C37	C	0.641231	0.040814	0.000088
C38	C	1.141231	0.540814	0.500088
C39	C	0.243914	0.033758	0.000113
C40	C	0.743914	0.533758	0.500113
C41	C	0.164964	0.032362	0.000115
C42	C	0.664964	0.532362	0.500115
C43	C	0.146925	0.185436	0.000101
C44	C	0.646925	0.685436	0.500101
C45	C	0.225869	0.186837	0.000096
C46	C	0.725869	0.686837	0.500096
C47	C	0.274360	0.110996	0.000108
C48	C	0.774360	0.610996	0.500108
C49	C	0.359962	0.112516	0.000098
C50	C	0.859962	0.612516	0.500098
C51	C	0.428189	0.113733	0.000090
C52	C	0.928189	0.613733	0.500090
C53	C	0.822492	-0.348393	0.000085
C54	C	1.322492	0.151607	0.500085
C55	C	0.857592	-0.409488	0.065458
C56	C	1.357592	0.090512	0.565458
C57	C	0.895385	-0.304416	0.000099
C58	C	1.395385	0.195584	0.500099
C59	C	0.857624	-0.409464	-0.065252
C60	C	1.357624	0.090536	0.434748
C61	C	0.892762	-0.469323	0.000089
C62	C	1.392762	0.030677	0.500089
C63	C	0.930505	-0.364283	0.065525
C64	C	1.430505	0.135717	0.565525
C65	C	0.930527	-0.364252	-0.065244
C66	C	1.430527	0.135748	0.434756
C67	C	0.965680	-0.425329	0.000145
C68	C	1.465680	0.074671	0.500145
C69	C	0.896894	-0.209417	0.000105
C70	C	1.396894	0.290583	0.500105
C71	C	0.891259	-0.564321	0.000089
C72	C	1.391259	-0.064321	0.500089
C73	C	1.032450	0.106713	0.000112
C74	C	1.532450	0.606713	0.500112
C75	C	1.116471	0.108199	0.000116
C76	C	1.616471	0.608199	0.500116
C77	C	0.888557	0.266708	0.000087
C78	C	1.388557	0.766708	0.500087
C79	C	0.890055	0.359951	0.000082
C80	C	1.390055	0.859951	0.500082
N81	N	0.894056	0.113115	0.206646
N82	N	1.394056	0.613115	0.706646
N83	N	0.894099	0.113134	-0.206452
N84	N	1.394099	0.613134	0.293548
C85	C	0.945523	0.055930	0.248372
C86	C	1.445523	0.555930	0.748372
C87	C	0.945527	0.055929	0.331824
C88	C	1.445527	0.555929	0.831824
C89	C	0.894068	0.113118	0.373549
C90	C	1.394068	0.613118	0.873549
C91	C	0.842595	0.170306	0.331816
C92	C	1.342595	0.670306	0.831816
C93	C	0.842588	0.170302	0.248366
C94	C	1.342588	0.670302	0.748366
C95	C	0.842623	0.170323	0.668364
C96	C	1.342623	0.670323	1.168364
C97	C	0.842636	0.170324	0.751820
C98	C	1.342636	0.670324	1.251820
C99	C	0.945562	0.055949	0.751822
C100	C	1.445562	0.555949	1.251822
C101	C	0.945555	0.055945	0.668372
C102	C	1.445555	0.555945	1.168372
C103	C	0.894080	0.113130	0.626647
C104	C	1.394080	0.613130	1.126647
C105	C	0.894075	0.113129	0.536158
C106	C	1.394075	0.613129	1.036158
C107	C	0.894076	0.113124	0.464036
C108	C	1.394076	0.613124	0.964036
H109	H	0.647975	0.256789	0.000058
H110	H	1.147975	0.756789	0.500058
C111	C	0.798186	0.315798	0.642670
C112	C	1.298186	0.815798	1.142670
C113	C	0.786049	0.233189	0.622510
C114	C	1.286049	0.733189	1.122510
H115	H	0.763261	0.354611	0.614356
H116	H	1.263261	0.854611	1.114356
H117	H	0.790830	0.323972	0.698335
H118	H	1.290830	0.823972	1.198335
H119	H	0.848696	0.324836	0.628976
H120	H	1.348696	0.824836	1.128976
H121	H	0.735540	0.224149	0.636209
H122	H	1.235540	0.724149	1.136209
H123	H	0.793399	0.225011	0.566832
H124	H	1.293399	0.725011	1.066832
H125	H	0.800692	0.216868	0.365793
H126	H	1.300692	0.716868	0.865793
C127	C	0.444995	0.279719	-0.068086
C128	C	0.944995	0.779719	0.431914
C129	C	0.490941	0.275855	0.000063
C130	C	0.990941	0.775855	0.500063
H131	H	0.412088	0.331185	-0.068091
H132	H	0.912088	0.831185	0.431909
H133	H	0.476166	0.277081	-0.114311
H134	H	0.976166	0.777081	0.385689
H135	H	0.415562	0.233517	-0.068066
H136	H	0.915562	0.733517	0.431934
H137	H	0.520379	0.322053	0.000039
H138	H	1.020379	0.822053	0.500039
H139	H	0.459766	0.278501	0.046299
H140	H	0.959766	0.778501	0.546299
H141	H	0.283386	-0.027997	0.000123
H142	H	0.783386	0.472003	0.500123
H143	H	0.761987	-0.314958	0.000143
H144	H	1.261987	0.185042	0.500143
C145	C	0.853416	-0.412632	0.208473
C146	C	1.353416	0.087368	0.708473
C147	C	0.815966	-0.436559	0.140055
C148	C	1.315966	0.063441	0.640055
H149	H	0.827712	-0.429339	0.254523
H150	H	1.327712	0.070661	0.754523
H151	H	0.904268	-0.439240	0.208545
H152	H	1.404268	0.060760	0.708545
H153	H	0.853654	-0.353086	0.208756
H154	H	1.353654	0.146914	0.708756
H155	H	0.815733	-0.496107	0.139770
H156	H	1.315733	0.003893	0.639770
H157	H	0.765101	-0.409954	0.139984
H158	H	1.265101	0.090046	0.639984
C159	C	0.865720	-0.492115	-0.185226
C160	C	1.365720	0.007885	0.314774
C161	C	0.816001	-0.436492	-0.139860
C162	C	1.316001	0.063508	0.360140
H163	H	0.840016	-0.508801	-0.231280
H164	H	1.340016	-0.008801	0.268720
H165	H	0.908250	-0.464742	-0.200933
H166	H	1.408250	0.035258	0.299067
H167	H	0.882601	-0.540533	-0.154233
H168	H	1.382601	-0.040533	0.345767
H169	H	0.799124	-0.388071	-0.170851
H170	H	1.299124	0.111929	0.329149
H171	H	0.773456	-0.463865	-0.124154
H172	H	1.273456	0.036135	0.375846
H173	H	0.800678	0.216867	0.214393
H174	H	1.300678	0.716867	0.714393
C175	C	0.973070	-0.249712	0.139566
C176	C	1.473070	0.250288	0.639566
C177	C	0.972078	-0.337395	0.140221
C178	C	1.472078	0.162605	0.640221
H179	H	0.998730	-0.233114	0.185683
H180	H	1.498730	0.266886	0.685683
H181	H	0.998795	-0.233875	0.093214
H182	H	1.498795	0.266125	0.593214
H183	H	0.922355	-0.222684	0.139371
H184	H	1.422355	0.277316	0.639371
H185	H	1.022794	-0.364424	0.140410
H186	H	1.522794	0.135576	0.640410
H187	H	0.946355	-0.353241	0.186585
H188	H	1.446355	0.146759	0.686585
C189	C	0.711613	0.219814	0.777537
C190	C	1.211613	0.719814	1.277537
C191	C	0.786061	0.233183	0.797688
C192	C	1.286061	0.733183	1.297688
H193	H	0.676690	0.258615	0.805859
H194	H	1.176690	0.758615	1.305859
H195	H	0.704242	0.228002	0.721873
H196	H	1.204242	0.728002	1.221873
H197	H	0.703414	0.163760	0.791226
H198	H	1.203414	0.663760	1.291226
H199	H	0.794262	0.289235	0.783993
H200	H	1.294262	0.789235	1.283993
H201	H	0.793435	0.225001	0.853364
H202	H	1.293435	0.725001	1.353364
C203	C	0.989916	-0.089557	0.642865
C204	C	1.489916	0.410443	1.142865
C205	C	1.002116	-0.006993	0.622587
C206	C	1.502116	0.493007	1.122587
H207	H	1.024831	-0.128435	0.614619
H208	H	1.524831	0.371565	1.114619
H209	H	0.997243	-0.097658	0.698545
H210	H	1.497243	0.402342	1.198545
H211	H	0.939402	-0.098573	0.629170
H212	H	1.439402	0.401427	1.129170
H213	H	1.052629	0.002025	0.636287
H214	H	1.552629	0.502025	1.136287
H215	H	0.994796	0.001111	0.566894
H216	H	1.494796	0.501111	1.066894
C217	C	1.076584	0.006436	0.777508
C218	C	1.576584	0.506436	1.277508
C219	C	1.002138	-0.006921	0.797687
C220	C	1.502138	0.493079	1.297687
H221	H	1.111510	-0.032374	0.805826
H222	H	1.611510	0.467626	1.305826
H223	H	1.083938	-0.001747	0.721843
H224	H	1.583938	0.498253	1.221843
H225	H	1.084795	0.062486	0.791184
H226	H	1.584795	0.562486	1.291184
H227	H	0.993925	-0.062969	0.784006
H228	H	1.493925	0.437031	1.284006
H229	H	0.994781	0.001256	0.853365
H230	H	1.494781	0.501256	1.353365
C231	C	1.085395	-0.447487	0.068705
C232	C	1.585395	0.052513	0.568705
C233	C	1.047427	-0.470275	0.000202
C234	C	1.547427	0.029725	0.500202
H235	H	1.135859	-0.475241	0.068744
H236	H	1.635859	0.024759	0.568744
H237	H	1.086782	-0.388115	0.069138
H238	H	1.586782	0.111885	0.569138
H239	H	1.059299	-0.463664	0.114691
H240	H	1.559299	0.036336	0.614691
H241	H	1.073520	-0.454093	-0.045784
H242	H	1.573520	0.045907	0.454216
H243	H	1.046044	-0.529660	-0.000238
H244	H	1.546044	-0.029660	0.499762
H245	H	0.250659	0.249732	0.000085
H246	H	0.750659	0.749732	0.500085
H247	H	0.987430	0.009363	0.214406
H248	H	1.487430	0.509363	0.714406
C249	C	0.047671	0.272672	-0.068049
C250	C	0.547671	0.772672	0.431951
C251	C	0.093619	0.268804	0.000098
C252	C	0.593619	0.768804	0.500098
H253	H	0.014762	0.324137	-0.068049
H254	H	0.514762	0.824137	0.431951
H255	H	0.078840	0.270040	-0.114275
H256	H	0.578840	0.770040	0.385725
H257	H	0.018240	0.226469	-0.068031
H258	H	0.518240	0.726469	0.431969
H259	H	0.123055	0.315004	0.000077
H260	H	0.623055	0.815004	0.500077
H261	H	0.062447	0.271444	0.046336
H262	H	0.562447	0.771444	0.546336
C263	C	0.190721	-0.118818	0.000148
C264	C	0.690721	0.381182	0.500148
C265	C	0.131489	-0.052545	0.000134
C266	C	0.631489	0.447455	0.500134
H267	H	0.170053	-0.171231	0.000164
H268	H	0.670053	0.328769	0.500164
H269	H	0.221136	-0.115095	-0.046083
H270	H	0.721136	0.384905	0.453917
H271	H	0.221138	-0.115081	0.046382
H272	H	0.721138	0.384919	0.546382
H273	H	0.101075	-0.056278	-0.046104
H274	H	0.601075	0.443722	0.453896
H275	H	0.101061	-0.056270	0.046369
H276	H	0.601061	0.443730	0.546369
C277	C	0.449283	-0.030708	0.000099
C278	C	0.949283	0.469292	0.500099
C279	C	0.528815	-0.045490	0.000102
C280	C	1.028815	0.454510	0.500102
H281	H	0.428622	-0.083126	0.000098
H282	H	0.928622	0.416874	0.500098
H283	H	0.432643	0.000501	0.046327
H284	H	0.932643	0.500501	0.546327
H285	H	0.432645	0.000515	-0.046138
H286	H	0.932645	0.500515	0.453862
H287	H	0.545452	-0.076707	0.046342
H288	H	1.045452	0.423293	0.546342
H289	H	0.545461	-0.076713	-0.046131
H290	H	1.045461	0.423287	0.453869
H291	H	0.680713	-0.020940	0.000091
H292	H	1.180713	0.479060	0.500091
C293	C	0.922784	-0.280308	-0.184415
C294	C	1.422784	0.219692	0.315585
C295	C	0.972121	-0.337147	-0.139843
C296	C	1.472121	0.162853	0.360157
H297	H	0.948461	-0.263569	-0.230471
H298	H	1.448461	0.236431	0.269529
H299	H	0.879718	-0.306755	-0.200110
H300	H	1.379718	0.193245	0.299890
H301	H	0.906724	-0.232043	-0.152893
H302	H	1.406724	0.267957	0.347107
H303	H	0.988177	-0.385415	-0.171363
H304	H	1.488177	0.114585	0.328637
H305	H	1.015201	-0.310701	-0.124149
H306	H	1.515201	0.189299	0.375851
C307	C	1.047288	-0.057105	0.323444
C308	C	1.547288	0.442895	0.823444
C309	C	1.002113	-0.006918	0.377690
C310	C	1.502113	0.493082	0.877690
H311	H	1.082228	-0.095899	0.351761
H312	H	1.582228	0.404101	0.851761
H313	H	1.015788	-0.087287	0.290910
H314	H	1.515788	0.412713	0.790910
H315	H	1.074495	-0.022161	0.290881
H316	H	1.574495	0.477839	0.790881
H317	H	0.974901	-0.041861	0.410250
H318	H	1.474901	0.458139	0.910250
H319	H	1.033617	0.023267	0.410238
H320	H	1.533617	0.523267	0.910238
