data_functionalizedCrystal
_audit_creation_method	'MofGen! by Chris Wilmer'
_symmetry_space_group_name_H-M	'P1'
_symmetry_Int_Tables_number	1
_symmetry_cell_setting	triclinic
loop_
_symmetry_equiv_pos_as_xyz
  x,y,z
_cell_length_a	26.809956
_cell_length_b	14.853567
_cell_length_c	14.853567
_cell_angle_alpha	96.365070
_cell_angle_beta	90.007509
_cell_angle_gamma	90.010559
loop_
_atom_site_label
_atom_site_type_symbol
_atom_site_fract_x
_atom_site_fract_y
_atom_site_fract_z
O1	O	0.041441	-1.196348	0.117715
O2	O	0.041449	-0.933888	0.131736
O3	O	0.041446	-1.072129	-0.006504
O4	O	0.041444	-1.058107	0.255955
O5	O	-0.041513	-1.072151	-0.006530
O6	O	-0.041510	-0.933910	0.131711
O7	O	-0.041518	-1.196370	0.117689
Zn8	Zn	-0.054686	-1.065143	0.124696
Zn9	Zn	0.054616	-1.065115	0.124729
O10	O	-0.041516	-1.058129	0.255930
C11	C	-0.000030	-0.900311	0.131088
C12	C	-0.000026	-0.800227	0.129184
N13	N	-0.129282	-1.065170	0.124673
N14	N	0.129212	-1.065095	0.124745
C15	C	0.473837	-1.126479	0.063629
C16	C	0.682715	-1.126493	0.063608
O17	O	0.709718	-1.178677	0.011680
N18	N	0.708840	-1.065164	0.124692
C19	C	0.682741	-1.003830	0.185788
O20	O	0.709755	-0.951672	0.237749
C21	C	0.473865	-1.003821	0.185812
C22	C	0.447743	-1.065148	0.124719
C23	C	0.447715	-1.187802	0.002541
C24	C	0.395499	-1.187794	0.002543
C25	C	0.369405	-1.126463	0.063634
C26	C	0.395527	-1.065140	0.124721
C27	C	0.447768	-0.942492	0.246913
C28	C	0.395545	-0.942497	0.246915
C29	C	0.369423	-1.003824	0.185822
C30	C	0.317216	-1.003802	0.185814
N31	N	0.291091	-1.065132	0.124731
C32	C	0.317186	-1.126462	0.063641
C33	C	0.792405	-1.003838	0.185770
C34	C	0.844624	-1.003839	0.185763
C35	C	0.844594	-1.126504	0.063584
C36	C	0.792374	-1.126497	0.063587
C37	C	0.766280	-1.065168	0.124687
C38	C	0.207528	-1.126441	0.063650
C39	C	0.155307	-1.126426	0.063655
C40	C	0.155342	-1.003765	0.185837
C41	C	0.207558	-1.003777	0.185829
C42	C	0.233650	-1.065123	0.124732
O43	O	0.290181	-0.951653	0.237722
O44	O	0.290163	-1.178626	0.011701
C45	C	0.526054	-1.126486	0.063626
C46	C	0.552175	-1.065163	0.124714
C47	C	0.526081	-1.003832	0.185804
C48	C	0.604394	-1.065164	0.124707
C49	C	0.630489	-1.126495	0.063617
C50	C	0.604364	-1.187824	0.002534
C51	C	0.552148	-1.187817	0.002536
C52	C	0.552206	-0.942503	0.246888
C53	C	0.604422	-0.942515	0.246880
C54	C	0.630516	-1.003845	0.185789
C55	C	-0.000032	-1.071504	-0.040106
C56	C	-0.000028	-1.069601	-0.140189
C57	C	-0.000039	-1.229947	0.118337
C58	C	-0.000039	-1.330031	0.120241
C59	C	-0.000037	-0.387693	0.039019
C60	C	-0.000038	-0.366412	0.203251
C61	C	-0.000036	-0.460446	0.205041
C62	C	-0.000034	-0.518108	0.123819
C63	C	-0.000034	-0.481736	0.040806
C64	C	-0.000032	-0.496825	0.288053
C65	C	-0.000029	-0.590864	0.289846
C66	C	-0.000031	-0.648528	0.208623
C67	C	-0.000031	-0.612150	0.125607
C68	C	-0.000029	-0.669812	0.044384
C69	C	-0.000032	-0.633437	-0.038633
C70	C	-0.000035	-0.539399	-0.040417
C71	C	-0.000028	-0.742565	0.210407
C72	C	-0.000026	-0.763855	0.046172
C73	C	-0.000034	-0.979435	-0.552723
C74	C	-0.000039	-1.143668	-0.574004
C75	C	-0.000036	-1.145458	-0.479971
C76	C	-0.000033	-1.064235	-0.422309
C77	C	-0.000033	-0.981223	-0.458680
C78	C	-0.000042	-1.228469	-0.443591
C79	C	-0.000039	-1.230262	-0.349552
C80	C	-0.000033	-1.149039	-0.291889
C81	C	-0.000032	-1.066023	-0.328266
C82	C	-0.000029	-0.984800	-0.270604
C83	C	-0.000024	-0.901783	-0.306979
C84	C	-0.000026	-0.899999	-0.401017
C85	C	-0.000031	-1.150823	-0.197851
C86	C	-0.000027	-0.986588	-0.176561
C87	C	-0.000036	-1.058754	0.289531
C88	C	-0.000037	-1.060657	0.389615
H89	H	0.134040	-1.176366	0.013902
H90	H	0.468957	-1.237748	-0.047206
H91	H	-0.000028	-0.449870	0.354180
C92	C	-0.000044	-1.233005	-0.637428
H93	H	-0.000043	-1.220051	-0.698643
H94	H	-0.028973	-1.267049	-0.626395
H95	H	0.028890	-1.267027	-0.626387
H96	H	-0.000029	-0.911844	-0.582345
C97	C	0.126631	-0.936311	0.253035
H98	H	0.091791	-0.945103	0.244289
H99	H	0.135191	-0.876162	0.243029
H100	H	0.135192	-0.946072	0.313255
C101	C	-0.000032	-0.630870	0.381159
H102	H	-0.000038	-0.583059	0.429274
H103	H	0.028896	-0.667103	0.385285
H104	H	-0.028967	-0.667118	0.385257
H105	H	-0.000026	-0.810798	-0.019971
H106	H	-0.000038	-1.218414	-0.168238
C107	C	0.366769	-1.255258	-0.064653
H108	H	0.331931	-1.246477	-0.055914
H109	H	0.375325	-1.315402	-0.054634
H110	H	0.375325	-1.245506	-0.124874
H111	H	-0.000026	-0.772178	0.277998
C112	C	0.763644	-1.193961	-0.003610
H113	H	0.786669	-1.230487	-0.039988
H114	H	0.743271	-1.161570	-0.041267
H115	H	0.743276	-1.231465	0.028974
C116	C	-0.000033	-0.499389	-0.131727
H117	H	-0.000035	-0.547196	-0.179846
H118	H	0.028897	-0.463136	-0.135825
H119	H	-0.028966	-0.463158	-0.135847
C120	C	0.873301	-1.193971	-0.003612
H121	H	0.850269	-1.230499	-0.039997
H122	H	0.893672	-1.231458	0.028973
H123	H	0.893671	-1.161572	-0.041277
H124	H	0.530883	-1.237755	-0.047212
H125	H	0.625619	-1.237759	-0.047212
H126	H	-0.000049	-1.294596	-0.490546
H127	H	-0.000022	-0.920445	-0.129618
C128	C	0.633150	-0.875052	0.314089
H129	H	0.610126	-0.838534	0.350475
H130	H	0.653526	-0.837552	0.281522
H131	H	0.653516	-0.907461	0.351750
H132	H	0.530964	-0.892561	0.296636
H133	H	0.865889	-0.953892	0.235502
H134	H	0.771163	-0.953894	0.235526
C135	C	0.236222	-1.193914	-0.003561
H136	H	0.213179	-1.230424	-0.039943
H137	H	0.256591	-1.231420	0.029004
H138	H	0.256591	-1.161514	-0.041226
C139	C	0.476490	-0.875038	0.314124
H140	H	0.453464	-0.838526	0.350510
H141	H	0.496865	-0.837533	0.281560
H142	H	0.496857	-0.907444	0.351784
H143	H	-0.000035	-0.319459	0.269379
C144	C	0.366845	-0.875011	0.314105
H145	H	0.389884	-0.838481	0.350474
H146	H	0.346467	-0.907383	0.351772
H147	H	0.346484	-0.837513	0.281506
C148	C	-0.000038	-0.347685	-0.052293
H149	H	-0.000038	-0.283422	-0.041730
H150	H	-0.028966	-0.367487	-0.085750
H151	H	0.028897	-0.367455	-0.085727
C152	C	-0.000020	-0.812444	-0.243546
H153	H	-0.000018	-0.825404	-0.182333
H154	H	-0.028947	-0.778412	-0.254589
H155	H	0.028916	-0.778407	-0.254571
C156	C	-0.000030	-0.696870	-0.127972
H157	H	-0.000029	-0.758083	-0.115012
H158	H	0.028897	-0.685819	-0.162002
H159	H	-0.028966	-0.685853	-0.162011
C160	C	-0.000028	-0.808691	-0.441032
H161	H	-0.000036	-0.819262	-0.505295
H162	H	0.028901	-0.775229	-0.421248
H163	H	-0.028962	-0.775258	-0.421252
C164	C	-0.000043	-1.321573	-0.309542
H165	H	-0.000044	-1.311007	-0.245279
H166	H	0.028884	-1.355015	-0.329323
H167	H	-0.028979	-1.355023	-0.329331
C168	C	0.236293	-0.936317	0.253027
H169	H	0.213271	-0.899793	0.289412
H170	H	0.256670	-0.898824	0.220455
H171	H	0.256658	-0.968726	0.290689
