data_functionalizedCrystal
_audit_creation_method	'MofGen! by Chris Wilmer'
_symmetry_space_group_name_H-M	'P1'
_symmetry_Int_Tables_number	1
_symmetry_cell_setting	triclinic
loop_
_symmetry_equiv_pos_as_xyz
  x,y,z
_cell_length_a	19.188930
_cell_length_b	19.188930
_cell_length_c	18.266242
_cell_angle_alpha	90.011475
_cell_angle_beta	89.977082
_cell_angle_gamma	96.855221
loop_
_atom_site_label
_atom_site_type_symbol
_atom_site_fract_x
_atom_site_fract_y
_atom_site_fract_z
O1	O	0.926149	-0.087169	-0.061124
O2	O	0.722838	-0.098903	-0.061075
O3	O	0.830361	0.008620	-0.061087
O4	O	0.818627	-0.194691	-0.061113
O5	O	0.830343	0.008625	0.060675
O6	O	0.722820	-0.098897	0.060687
O7	O	0.926131	-0.087163	0.060638
Zn8	Zn	0.824473	-0.093029	0.079994
Zn9	Zn	0.824497	-0.093037	-0.080432
O10	O	0.818608	-0.194686	0.060649
C11	C	0.696818	-0.098520	-0.000188
C12	C	0.619313	-0.097380	-0.000169
C13	C	0.829972	0.034634	-0.000204
C14	C	0.828831	0.112138	-0.000197
C15	C	0.574389	-0.160470	-0.000188
C16	C	0.501566	-0.159399	-0.000196
C17	C	0.473669	-0.095233	-0.000199
C18	C	0.518603	-0.032133	-0.000175
C19	C	0.591425	-0.033207	-0.000160
N20	N	0.365695	-0.046188	-0.041663
N21	N	0.296516	-0.045172	-0.041679
C22	C	0.254260	-0.091994	-0.000243
N23	N	0.283795	-0.139881	0.041200
N24	N	0.352980	-0.140899	0.041213
C25	C	0.394707	-0.094062	-0.000215
C26	C	0.130372	-0.153928	-0.000270
C27	C	0.057547	-0.152853	-0.000274
C28	C	0.074586	-0.025586	-0.000261
C29	C	0.147409	-0.026662	-0.000250
C30	C	0.175298	-0.090835	-0.000258
C31	C	0.952151	-0.087546	-0.000252
C32	C	1.029656	-0.088687	-0.000276
C33	C	0.818997	-0.220700	-0.000236
C34	C	0.820138	-0.298204	-0.000247
N35	N	0.824461	-0.093024	0.189481
C36	C	0.891922	0.157062	-0.000209
C37	C	0.890850	0.229886	-0.000220
C38	C	0.826684	0.257782	-0.000206
C39	C	0.763585	0.212849	-0.000198
C40	C	0.764658	0.140026	-0.000194
N41	N	0.777631	0.365789	0.041244
N42	N	0.776615	0.434968	0.041242
C43	C	0.823446	0.477191	-0.000220
N44	N	0.871341	0.447624	-0.041669
N45	N	0.872359	0.378439	-0.041664
C46	C	0.825513	0.336745	-0.000210
C47	C	0.885379	0.601079	-0.000245
C48	C	0.884305	0.673904	-0.000261
C49	C	0.757038	0.656865	-0.000231
C50	C	0.758114	0.584042	-0.000222
C51	C	0.822287	0.556154	-0.000226
N52	N	0.824513	-0.093037	-0.189919
C53	C	0.872088	-0.045436	0.227785
C54	C	0.872092	-0.045433	0.304430
C55	C	0.824477	-0.093030	0.342768
C56	C	0.776841	-0.140621	0.304455
C57	C	0.776834	-0.140618	0.227812
N58	N	0.815401	-0.154837	0.463094
N59	N	0.815413	-0.154838	0.535902
C60	C	0.824496	-0.093040	0.573691
N61	N	0.833582	-0.031239	0.535920
N62	N	0.833574	-0.031240	0.463106
C63	C	0.824480	-0.093038	0.425875
C64	C	0.872131	-0.045444	0.695101
C65	C	0.872130	-0.045440	0.771748
C66	C	0.776882	-0.140634	0.771772
C67	C	0.776879	-0.140632	0.695127
C68	C	0.824507	-0.093038	0.656796
H69	H	0.597091	-0.212725	-0.000196
O70	O	0.458016	-0.220752	-0.000254
C71	C	0.448795	-0.347095	-0.000245
C72	C	0.498192	-0.277666	-0.000193
H73	H	0.481258	-0.393127	-0.000180
H74	H	0.414322	-0.349814	-0.051224
H75	H	0.414229	-0.349739	0.050690
H76	H	0.532803	-0.274975	-0.051093
H77	H	0.532617	-0.274975	0.050820
O78	O	0.947774	0.574099	-0.000294
C79	C	1.073890	0.598683	-0.000295
C80	C	1.003278	0.629329	-0.000253
H81	H	1.118783	0.643321	-0.000247
H82	H	1.077624	0.565029	-0.051263
H83	H	1.077534	0.565004	0.050651
H84	H	0.999586	0.663039	-0.051165
H85	H	0.999574	0.662943	0.050749
O86	O	0.635039	0.028101	-0.000276
C87	C	0.671886	0.136560	-0.063321
C88	C	0.622463	0.067148	-0.063286
H89	H	0.661726	0.168155	-0.114251
H90	H	0.728739	0.124812	-0.063360
H91	H	0.661748	0.168123	-0.012339
H92	H	0.632538	0.035550	-0.114259
H93	H	0.565627	0.078945	-0.063208
H94	H	0.495885	0.020111	-0.000188
H95	H	0.738110	-0.179386	0.802986
H96	H	0.738100	-0.179386	0.663938
O97	O	0.701210	0.239861	-0.000085
C98	C	0.592115	0.247628	0.063037
C99	C	0.662725	0.216979	0.062998
H100	H	0.560986	0.229152	0.114042
H101	H	0.560909	0.229078	0.012120
H102	H	0.602201	0.307392	0.062998
H103	H	0.652703	0.157214	0.063062
H104	H	0.693908	0.235583	0.113910
H105	H	0.706738	0.547464	-0.000208
O106	O	0.954276	0.130008	-0.000348
C107	C	1.063408	0.122318	-0.063428
C108	C	0.992810	0.152991	-0.063368
H109	H	1.094589	0.140900	-0.114366
H110	H	1.053385	0.062550	-0.063470
H111	H	1.094535	0.140837	-0.012454
H112	H	0.961647	0.134525	-0.114333
H113	H	1.002883	0.212756	-0.063288
H114	H	0.942228	0.266470	-0.000233
O115	O	0.694688	0.683920	-0.000347
C116	C	0.585579	0.691586	-0.063384
C117	C	0.656174	0.660910	-0.063348
H118	H	0.554414	0.672983	-0.114308
H119	H	0.595604	0.751355	-0.063438
H120	H	0.554432	0.673092	-0.012396
H121	H	0.687356	0.679351	-0.114328
H122	H	0.646099	0.601145	-0.063256
O123	O	0.730639	-0.186947	0.190634
C124	C	0.689322	-0.308455	0.167211
C125	C	0.741686	-0.256062	0.209348
H126	H	0.698225	-0.364345	0.182338
H127	H	0.697496	-0.300341	0.105838
H128	H	0.633438	-0.299458	0.182301
H129	H	0.797590	-0.265027	0.194320
H130	H	0.733450	-0.264189	0.270711
O131	O	0.157504	-0.216243	-0.000396
C132	C	0.229907	-0.291301	-0.063440
C133	C	0.199215	-0.220713	-0.063400
H134	H	0.263649	-0.294932	-0.114365
H135	H	0.185315	-0.336242	-0.063493
H136	H	0.263518	-0.294966	-0.012453
H137	H	0.165612	-0.216980	-0.114378
H138	H	0.243840	-0.175807	-0.063308
O139	O	0.047529	0.036763	-0.000134
C140	C	0.039806	0.145884	0.062933
C141	C	0.070487	0.075291	0.062885
H142	H	0.058368	0.177060	0.113871
H143	H	-0.019962	0.135855	0.062968
H144	H	0.058340	0.177020	0.011959
H145	H	0.052007	0.044119	0.113851
H146	H	0.130252	0.085369	0.062812
O147	O	0.918263	0.000862	0.341685
C148	C	0.933434	0.096211	0.428282
C149	C	0.881070	0.043835	0.386125
H150	H	0.903383	0.130959	0.464233
H151	H	0.967465	0.130282	0.387758
H152	H	0.968226	0.066128	0.464104
H153	H	0.846232	0.073862	0.350301
H154	H	0.847088	0.009765	0.426688
O155	O	0.918277	0.000989	0.190696
C156	C	0.959466	0.122591	0.167653
C157	C	0.907110	0.070030	0.209618
H158	H	0.950466	0.178422	0.182948
H159	H	0.951380	0.114623	0.106254
H160	H	1.015351	0.113633	0.182730
H161	H	0.851204	0.078956	0.194603
H162	H	0.915257	0.078011	0.271007
O163	O	0.191023	0.034644	-0.000370
C164	C	0.227869	0.143103	-0.063414
C165	C	0.178449	0.073689	-0.063381
H166	H	0.217710	0.174697	-0.114346
H167	H	0.284722	0.131357	-0.063451
H168	H	0.217727	0.174666	-0.012434
H169	H	0.188528	0.042091	-0.114353
H170	H	0.121612	0.085484	-0.063307
H171	H	0.935683	0.710481	-0.000274
H172	H	0.738071	-0.179374	0.335674
O173	O	0.918415	0.000859	0.657975
C174	C	1.012911	0.095251	0.666039
C175	C	0.960523	0.042862	0.708172
H176	H	1.046980	0.129214	0.706605
H177	H	0.982910	0.130104	0.630199
H178	H	1.047663	0.065179	0.630113
H179	H	0.925759	0.072876	0.744138
H180	H	0.990568	0.008009	0.743966
H181	H	0.020970	-0.204232	-0.000285
H182	H	0.713281	0.103448	-0.000184
H183	H	0.910911	-0.006685	0.802935
