data_functionalizedCrystal
_audit_creation_method	'MofGen! by Chris Wilmer'
_symmetry_space_group_name_H-M	'P1'
_symmetry_Int_Tables_number	1
_symmetry_cell_setting	triclinic
loop_
_symmetry_equiv_pos_as_xyz
  x,y,z
_cell_length_a	21.295419
_cell_length_b	21.295417
_cell_length_c	21.295411
_cell_angle_alpha	90.021644
_cell_angle_beta	90.024539
_cell_angle_gamma	90.045308
loop_
_atom_site_label
_atom_site_type_symbol
_atom_site_fract_x
_atom_site_fract_y
_atom_site_fract_z
Zn1	Zn	0.962356	-0.250432	0.355911
Zn2	Zn	0.962258	-0.355684	0.250637
Zn3	Zn	0.857079	-0.250460	0.250656
Zn4	Zn	0.857048	-0.355695	0.355868
O5	O	0.909685	-0.303068	0.303268
O6	O	1.050432	-0.264378	0.341956
O7	O	0.948278	-0.341733	0.162550
O8	O	0.871098	-0.162367	0.264645
O9	O	1.050360	-0.341706	0.264611
O10	O	0.948444	-0.162347	0.341975
O11	O	0.871003	-0.264425	0.162564
O12	O	0.768985	-0.264436	0.264603
O13	O	0.871045	-0.341724	0.443963
O14	O	0.768963	-0.341751	0.341902
O15	O	0.948414	-0.264388	0.443995
O16	O	0.948248	-0.443775	0.264570
O17	O	0.870951	-0.443783	0.341883
C18	C	0.746133	-0.303098	0.303250
C19	C	0.676165	-0.303126	0.303258
C20	C	0.643358	-0.262927	0.343593
C21	C	0.577616	-0.262910	0.343596
C22	C	0.544683	-0.303104	0.303269
C23	C	0.577498	-0.343305	0.262926
C24	C	0.643239	-0.343317	0.262920
N25	N	0.441407	-0.358181	0.298349
N26	N	0.378956	-0.358168	0.298359
C27	C	0.346608	-0.303071	0.303283
N28	N	0.379071	-0.247985	0.308210
N29	N	0.441528	-0.247999	0.308205
C30	C	0.473397	-0.303095	0.303271
C31	C	0.242516	-0.262850	0.343624
C32	C	0.176772	-0.262832	0.343622
C33	C	0.176655	-0.343233	0.262955
C34	C	0.242397	-0.343245	0.262953
C35	C	0.275324	-0.303055	0.303291
C36	C	0.909603	-0.466619	0.303233
C37	C	0.909625	-0.536588	0.303239
C38	C	0.949909	-0.569429	0.263024
C39	C	0.949939	-0.635172	0.263038
C40	C	0.909673	-0.668070	0.303261
C41	C	0.869385	-0.635220	0.343485
C42	C	0.869361	-0.569479	0.343474
N43	N	0.854606	-0.771351	0.308054
N44	N	0.854630	-0.833802	0.308061
C45	C	0.909743	-0.866145	0.303297
N46	N	0.964832	-0.833676	0.298514
N47	N	0.964807	-0.771219	0.298504
C48	C	0.909694	-0.739355	0.303278
C49	C	0.950063	-0.970272	0.263095
C50	C	0.950093	-1.036016	0.263113
C51	C	0.869534	-1.036063	0.343557
C52	C	0.869510	-0.970321	0.343541
C53	C	0.909773	-0.937429	0.303307
C54	C	1.073875	-0.303038	0.303286
C55	C	1.143843	-0.303025	0.303294
C56	C	0.909737	-0.303055	0.467458
C57	C	0.909760	-0.303049	0.537426
C58	C	0.909785	-0.138878	0.303317
C59	C	0.909828	-0.068909	0.303338
C60	C	0.909669	-0.303036	0.139716
C61	C	0.909769	-0.302864	0.069749
C62	C	0.950044	-0.262778	0.570311
C63	C	0.950043	-0.262751	0.636053
C64	C	0.909764	-0.303006	0.668909
C65	C	0.869472	-0.343279	0.636017
C66	C	0.869470	-0.343301	0.570276
N67	N	0.904908	-0.358075	0.772124
N68	N	0.904914	-0.358052	0.834576
C69	C	0.909768	-0.302942	0.866984
N70	N	0.914629	-0.247853	0.834581
N71	N	0.914626	-0.247876	0.772124
C72	C	0.909762	-0.302986	0.740194
C73	C	0.950054	-0.262638	0.971154
C74	C	0.950049	-0.262610	1.036897
C75	C	0.869481	-0.343143	1.036860
C76	C	0.869483	-0.343166	0.971118
C77	C	0.909773	-0.302914	0.938268
H78	H	0.149841	-0.375959	0.230120
C79	C	0.994356	-0.934086	0.218844
C80	C	1.038678	-0.970215	0.174613
C81	C	1.082971	-0.934031	0.130362
C82	C	1.082943	-0.861718	0.130344
C83	C	1.038619	-0.825585	0.174577
C84	C	0.994326	-0.861769	0.218827
H85	H	1.038700	-1.023749	0.174625
H86	H	1.115782	-0.960779	0.097618
H87	H	1.115731	-0.834932	0.097587
H88	H	1.038597	-0.772051	0.174565
H89	H	0.961515	-0.835021	0.251572
H90	H	0.836602	-0.662010	0.376236
C91	C	0.994362	-0.218454	0.672234
C92	C	0.967124	-0.169020	0.717424
C93	C	1.011444	-0.124724	0.753602
C94	C	1.083002	-0.129861	0.744591
C95	C	1.110243	-0.179296	0.699400
C96	C	1.065923	-0.223593	0.663221
H97	H	0.914150	-0.165215	0.724096
H98	H	0.991278	-0.088128	0.787056
H99	H	1.115810	-0.097070	0.771373
H100	H	1.163217	-0.183101	0.692728
H101	H	1.086089	-0.260188	0.629768
C102	C	0.994357	-0.218496	0.534179
C103	C	0.989263	-0.146933	0.543225
C104	C	1.033575	-0.102649	0.507093
C105	C	1.082981	-0.129927	0.461916
C106	C	1.088076	-0.201494	0.452868
C107	C	1.043764	-0.245778	0.489000
H108	H	0.952688	-0.126736	0.576670
H109	H	1.029802	-0.049670	0.513791
H110	H	1.115783	-0.097146	0.435169
H111	H	1.124651	-0.221691	0.419424
H112	H	1.047537	-0.298757	0.482302
H113	H	0.836679	-0.375913	1.063611
H114	H	0.982696	-0.542651	0.230264
C115	C	0.994248	-0.671310	0.218793
C116	C	0.989130	-0.662318	0.147226
C117	C	1.033436	-0.698454	0.102980
C118	C	1.082861	-0.743583	0.130302
C119	C	1.087981	-0.752577	0.201872
C120	C	1.043674	-0.716441	0.246118
H121	H	0.952541	-0.628909	0.126998
H122	H	1.029646	-0.691796	0.049999
H123	H	1.115659	-0.770334	0.097548
H124	H	1.124570	-0.785986	0.222100
H125	H	1.047465	-0.723099	0.299100
H126	H	0.150062	-0.230094	0.376467
C127	C	0.825165	-0.387461	0.934941
C128	C	0.825153	-0.387480	0.862628
C129	C	0.780827	-0.431771	0.826451
C130	C	0.736513	-0.476044	0.862587
C131	C	0.736523	-0.476027	0.934904
C132	C	0.780850	-0.431736	0.971081
H133	H	0.857959	-0.354705	0.835874
H134	H	0.780820	-0.431783	0.772917
H135	H	0.703700	-0.508831	0.835807
H136	H	0.703718	-0.508802	0.961658
H137	H	0.780857	-0.431724	1.024615
C138	C	0.825155	-0.387603	0.534101
C139	C	0.775749	-0.360347	0.488887
C140	C	0.731433	-0.404650	0.452712
C141	C	0.736522	-0.476208	0.461751
C142	C	0.785929	-0.503467	0.506967
C143	C	0.830246	-0.459164	0.543142
H144	H	0.771980	-0.307373	0.482195
H145	H	0.694859	-0.384471	0.419240
H146	H	0.703717	-0.509004	0.434972
H147	H	0.789698	-0.556442	0.513659
H148	H	0.866820	-0.479343	0.576613
H149	H	0.670163	-0.230200	0.376439
H150	H	0.982902	-1.062754	0.230366
C151	C	0.278737	-0.218631	0.387984
C152	C	0.323965	-0.169179	0.360789
C153	C	0.360182	-0.124957	0.405147
C154	C	0.351171	-0.130185	0.476701
C155	C	0.305941	-0.179639	0.503899
C156	C	0.269723	-0.223862	0.459541
H157	H	0.330638	-0.165307	0.307818
H158	H	0.393665	-0.088348	0.385013
H159	H	0.377981	-0.097449	0.509537
H160	H	0.299268	-0.183511	0.556870
H161	H	0.236241	-0.260470	0.479675
H162	H	0.836556	-0.542739	0.376223
C163	C	0.278489	-0.387473	0.218590
C164	C	0.242268	-0.431687	0.174232
C165	C	0.278360	-0.475916	0.129866
C166	C	0.350673	-0.475932	0.129858
C167	C	0.386898	-0.431716	0.174219
C168	C	0.350806	-0.387487	0.218585
H169	H	0.188735	-0.431677	0.174236
H170	H	0.251544	-0.508648	0.097027
H171	H	0.377390	-0.508673	0.097016
H172	H	0.440432	-0.431726	0.174215
H173	H	0.377623	-0.354755	0.251423
C174	C	0.825239	-1.072243	0.387802
C175	C	0.825261	-1.144556	0.387816
C176	C	0.780965	-1.180739	0.432064
C177	C	0.736647	-1.144609	0.476298
C178	C	0.736622	-1.072293	0.476286
C179	C	0.780919	-1.036109	0.432038
H180	H	0.858070	-1.171305	0.355070
H181	H	0.780983	-1.234273	0.432073
H182	H	0.703856	-1.171394	0.509053
H183	H	0.703814	-1.045544	0.509032
H184	H	0.780900	-0.982575	0.432029
H185	H	0.550679	-0.376030	0.230091
H186	H	0.982857	-0.229859	0.944406
C187	C	0.541518	-0.218693	0.387971
C188	C	0.577735	-0.174486	0.432340
C189	C	0.541640	-0.130270	0.476716
C190	C	0.469327	-0.130260	0.476723
C191	C	0.433106	-0.174469	0.432353
C192	C	0.469201	-0.218685	0.387976
H193	H	0.631269	-0.174492	0.432337
H194	H	0.568453	-0.097544	0.509563
H195	H	0.442607	-0.097529	0.509573
H196	H	0.379572	-0.174463	0.432356
H197	H	0.442387	-0.251411	0.355130
H198	H	0.982852	-0.229813	1.063670
C199	C	0.825190	-0.934192	0.387777
C200	C	0.753634	-0.943316	0.382576
C201	C	0.709315	-0.907188	0.426816
C202	C	0.736551	-0.861937	0.476257
C203	C	0.808111	-0.852810	0.481459
C204	C	0.852430	-0.888938	0.437219
H205	H	0.733469	-0.976816	0.345975
H206	H	0.656342	-0.913944	0.422964
H207	H	0.703743	-0.835193	0.509006
H208	H	0.828276	-0.819311	0.518060
H209	H	0.905403	-0.882182	0.441071
H210	H	0.669950	-0.376052	0.230073
H211	H	0.836675	-0.376052	0.662773
