data_functionalizedCrystal
_audit_creation_method	'MofGen! by Chris Wilmer'
_symmetry_space_group_name_H-M	'P1'
_symmetry_Int_Tables_number	1
_symmetry_cell_setting	triclinic
loop_
_symmetry_equiv_pos_as_xyz
  x,y,z
_cell_length_a	19.188933
_cell_length_b	19.188930
_cell_length_c	17.666332
_cell_angle_alpha	89.988397
_cell_angle_beta	89.992061
_cell_angle_gamma	83.145175
loop_
_atom_site_label
_atom_site_type_symbol
_atom_site_fract_x
_atom_site_fract_y
_atom_site_fract_z
O1	O	0.926149	0.087175	-0.062932
O2	O	0.722838	0.098908	-0.062940
O3	O	0.830360	-0.008614	-0.062921
O4	O	0.818626	0.194697	-0.062951
O5	O	0.830341	-0.008620	0.062976
O6	O	0.722819	0.098902	0.062957
O7	O	0.926130	0.087170	0.062965
Cu8	Cu	0.824473	0.093035	0.074456
Cu9	Cu	0.824495	0.093042	-0.074431
O10	O	0.818607	0.194692	0.062946
C11	C	0.696817	0.098525	0.000008
C12	C	0.619313	0.097384	0.000005
C13	C	0.066068	0.089242	-0.068612
C14	C	0.138892	0.090310	-0.068615
C15	C	0.175299	0.090844	0.000011
C16	C	0.138877	0.090292	0.068645
C17	C	0.066056	0.089217	0.068647
N18	N	0.284311	0.132260	0.051087
N19	N	0.353489	0.133283	0.051081
C20	C	0.394707	0.094082	0.000012
N21	N	0.364134	0.053828	-0.051062
N22	N	0.294949	0.052808	-0.051059
C23	C	0.254262	0.092009	0.000018
C24	C	0.510085	0.095787	-0.068621
C25	C	0.582911	0.096851	-0.068621
C26	C	0.582894	0.096840	0.068641
C27	C	0.510070	0.095769	0.068639
C28	C	0.473669	0.095246	0.000006
C29	C	0.829971	-0.034628	0.000030
C30	C	0.828830	-0.112132	0.000036
C31	C	0.891921	-0.157056	0.000043
C32	C	0.890849	-0.229880	0.000030
C33	C	0.826683	-0.257777	0.000027
C34	C	0.763584	-0.212843	0.000017
C35	C	0.764658	-0.140021	0.000021
N36	N	0.777630	-0.365784	0.042870
N37	N	0.776614	-0.434963	0.042868
C38	C	0.823445	-0.477185	0.000012
N39	N	0.871341	-0.447618	-0.042832
N40	N	0.872358	-0.378433	-0.042826
C41	C	0.825512	-0.336739	0.000022
C42	C	0.885378	-0.601073	0.000004
C43	C	0.884304	-0.673898	-0.000013
C44	C	0.757037	-0.656860	-0.000019
C45	C	0.758113	-0.584037	-0.000010
C46	C	0.822286	-0.556148	0.000005
C47	C	0.952150	0.087553	0.000016
C48	C	1.029655	0.088694	0.000013
C49	C	0.818997	0.220705	-0.000006
C50	C	0.820137	0.298210	-0.000018
N51	N	0.824462	0.093030	0.179176
N52	N	0.824511	0.093042	-0.179150
C53	C	0.872088	0.045443	0.218794
C54	C	0.872093	0.045439	0.298042
C55	C	0.824477	0.093036	0.337668
C56	C	0.776842	0.140627	0.298040
C57	C	0.776834	0.140624	0.218794
N58	N	0.815401	0.154843	0.462077
N59	N	0.815412	0.154843	0.537358
C60	C	0.824495	0.093045	0.576432
N61	N	0.833581	0.031245	0.537382
N62	N	0.833573	0.031245	0.462095
C63	C	0.824479	0.093043	0.423597
C64	C	0.872129	0.045450	0.701980
C65	C	0.872128	0.045446	0.781229
C66	C	0.776880	0.140639	0.781226
C67	C	0.776878	0.140638	0.701978
C68	C	0.824506	0.093044	0.662360
H69	H	0.612536	0.097272	0.124517
H70	H	0.910909	0.006691	0.813486
H71	H	0.738108	0.179390	0.813489
H72	H	0.168545	0.090760	-0.124499
H73	H	0.036408	0.088773	0.124531
H74	H	0.480422	0.095326	0.124521
H75	H	0.910868	0.006687	0.186539
H76	H	0.738099	0.179391	0.669719
H77	H	0.944175	-0.134354	0.000052
H78	H	0.942227	-0.266463	0.000032
H79	H	0.937631	-0.578365	0.000012
H80	H	0.935682	-0.710475	-0.000012
H81	H	0.910877	0.006686	0.330305
H82	H	0.480446	0.095359	-0.124506
H83	H	0.704792	-0.679573	-0.000025
H84	H	0.706738	-0.547459	-0.000011
H85	H	0.711340	-0.235562	0.000013
H86	H	0.713280	-0.103444	0.000017
H87	H	0.612558	0.097292	-0.124507
H88	H	0.036435	0.088813	-0.124498
H89	H	0.738071	0.179379	0.330308
H90	H	0.738050	0.179376	0.186536
H91	H	0.168525	0.090726	0.124521
H92	H	0.910908	0.006694	0.669721
