data_functionalizedCrystal
_audit_creation_method	'MofGen! by Chris Wilmer'
_symmetry_space_group_name_H-M	'P1'
_symmetry_Int_Tables_number	1
_symmetry_cell_setting	triclinic
loop_
_symmetry_equiv_pos_as_xyz
  x,y,z
_cell_length_a	19.805407
_cell_length_b	19.805405
_cell_length_c	19.805399
_cell_angle_alpha	89.973385
_cell_angle_beta	89.980427
_cell_angle_gamma	90.026726
loop_
_atom_site_label
_atom_site_type_symbol
_atom_site_fract_x
_atom_site_fract_y
_atom_site_fract_z
Zn1	Zn	1.034734	-0.269479	-0.382724
Zn2	Zn	1.034648	-0.382667	-0.269538
Zn3	Zn	0.921549	-0.269498	-0.269549
Zn4	Zn	0.921512	-0.382631	-0.382685
O5	O	0.978111	-0.326069	-0.326124
O6	O	1.129439	-0.284501	-0.367722
O7	O	1.019625	-0.367678	-0.174823
O8	O	0.936615	-0.174778	-0.284583
O9	O	1.129376	-0.367660	-0.284564
O10	O	1.019771	-0.174765	-0.367732
O11	O	0.936531	-0.284533	-0.174831
O12	O	0.826827	-0.284498	-0.284544
O13	O	0.936551	-0.367598	-0.477406
O14	O	0.826800	-0.367617	-0.367665
O15	O	1.019735	-0.284466	-0.477436
O16	O	1.019589	-0.477379	-0.284526
O17	O	0.936468	-0.477353	-0.367654
C18	C	0.802255	-0.326056	-0.326102
C19	C	0.727023	-0.326067	-0.326109
C20	C	0.691682	-0.369412	-0.369319
C21	C	0.620994	-0.369413	-0.369329
C22	C	0.585647	-0.326072	-0.326124
C23	C	0.620993	-0.282722	-0.282911
C24	C	0.691680	-0.282718	-0.282906
C25	C	0.335920	-0.282737	-0.282934
C26	C	0.265227	-0.282746	-0.282941
C27	C	0.265233	-0.369432	-0.369357
C28	C	0.335920	-0.369428	-0.369351
C29	C	0.371260	-0.326076	-0.326142
C30	C	0.447908	-0.326074	-0.326133
C31	C	0.509000	-0.326076	-0.326129
C32	C	0.978034	-0.501925	-0.326099
C33	C	0.978063	-0.577157	-0.326112
C34	C	1.021337	-0.612436	-0.369441
C35	C	1.021361	-0.683124	-0.369454
C36	C	0.978114	-0.718532	-0.326133
C37	C	0.934835	-0.683249	-0.282801
C38	C	0.934808	-0.612561	-0.282792
C39	C	0.934944	-0.968322	-0.282836
C40	C	0.934976	-1.039014	-0.282846
C41	C	1.021497	-1.038884	-0.369497
C42	C	1.021470	-0.968197	-0.369489
C43	C	0.978189	-0.932920	-0.326160
C44	C	0.978162	-0.856271	-0.326147
C45	C	0.978144	-0.795179	-0.326141
C46	C	1.154653	-0.326082	-0.326146
C47	C	1.229885	-0.326088	-0.326156
C48	C	0.978149	-0.326026	-0.502667
C49	C	0.978165	-0.326008	-0.577899
C50	C	0.978207	-0.149526	-0.326163
C51	C	0.978248	-0.074294	-0.326180
C52	C	1.021480	-0.282719	-0.613259
C53	C	1.021487	-0.282699	-0.683948
C54	C	0.978182	-0.325973	-0.719274
C55	C	0.934862	-0.369264	-0.683909
C56	C	0.934852	-0.369279	-0.613222
C57	C	0.934900	-0.369201	-0.968982
C58	C	0.934915	-0.369183	-1.039675
C59	C	1.021535	-0.282620	-1.039708
C60	C	1.021525	-0.282636	-0.969021
C61	C	0.978203	-0.325924	-0.933662
C62	C	0.978195	-0.325944	-0.857013
C63	C	0.978193	-0.325957	-0.795922
C64	C	0.978112	-0.326062	-0.150268
C65	C	0.978227	-0.325890	-0.075036
H66	H	0.592222	-0.404709	-0.404515
H67	H	1.056556	-0.583611	-0.404715
H68	H	1.056605	-0.711845	-0.404732
C69	C	1.136171	-0.249655	-1.061506
C70	C	1.069151	-0.235030	-1.078578
H71	H	1.165565	-0.220279	-1.085505
H72	H	1.142358	-0.243471	-1.014357
H73	H	1.146042	-0.295131	-1.073087
H74	H	1.059277	-0.189555	-1.066992
H75	H	1.062960	-0.241208	-1.125737
C76	C	0.328803	-0.197049	-0.197516
C77	C	0.374759	-0.235086	-0.235437
H78	H	0.352785	-0.167633	-0.168190
H79	H	0.301255	-0.171206	-0.227056
H80	H	0.301212	-0.226516	-0.171574
H81	H	0.402347	-0.205620	-0.261382
H82	H	0.402319	-0.260931	-0.205893
C83	C	0.820345	-0.946696	-0.249740
C84	C	0.887377	-0.929555	-0.235198
H85	H	0.790980	-0.922765	-0.220324
H86	H	0.810406	-0.935085	-0.295198
H87	H	0.814186	-0.993865	-0.243550
H88	H	0.893537	-0.882387	-0.241394
H89	H	0.897320	-0.941163	-0.189730
H90	H	0.899635	-0.404459	-0.940201
C91	C	0.896465	-0.791663	-0.244331
C92	C	0.887299	-0.722168	-0.235179
H93	H	0.867121	-0.815688	-0.214925
H94	H	0.886533	-0.803228	-0.289794
H95	H	0.941955	-0.803205	-0.234470
H96	H	0.841810	-0.710625	-0.245045
H97	H	0.897226	-0.710599	-0.189705
H98	H	1.056746	-0.247482	-0.584501
H99	H	1.056737	-1.067616	-0.404780
C100	C	0.849274	-0.454744	-1.032545
C101	C	0.887305	-0.416748	-1.078507
H102	H	0.819882	-0.484103	-1.056521
H103	H	0.878740	-0.480647	-1.004975
H104	H	0.823399	-0.425249	-1.004976
H105	H	0.913184	-0.446243	-1.106074
H106	H	0.857835	-0.390843	-1.106089
C107	C	0.156877	-0.407930	-0.407752
C108	C	0.226386	-0.417080	-0.416863
H109	H	0.132897	-0.437344	-0.437081
H110	H	0.145270	-0.417778	-0.362264
H111	H	0.145323	-0.362465	-0.417742
H112	H	0.237941	-0.462544	-0.406867
H113	H	0.237998	-0.407237	-0.462361
C114	C	0.684579	-0.197040	-0.197475
C115	C	0.730529	-0.235077	-0.235401
H116	H	0.708564	-0.167631	-0.168145
H117	H	0.657034	-0.171188	-0.227012
H118	H	0.656983	-0.226506	-0.171538
H119	H	0.758122	-0.205611	-0.261341
H120	H	0.758085	-0.260931	-0.205860
C121	C	1.106992	-0.975171	-0.455150
C122	C	1.069006	-0.929277	-0.417111
H123	H	1.136334	-0.951143	-0.484554
H124	H	1.132913	-1.002734	-0.425689
H125	H	1.077490	-1.002754	-0.481013
H126	H	1.098508	-0.901697	-0.391244
H127	H	1.043083	-0.901703	-0.446575
C128	C	0.800041	-0.407902	-0.407682
C129	C	0.730533	-0.417055	-0.416812
H130	H	0.824023	-0.437318	-0.437001
H131	H	0.811645	-0.362443	-0.417668
H132	H	0.811596	-0.417750	-0.362184
H133	H	0.718977	-0.407202	-0.462308
H134	H	0.718924	-0.462524	-0.406830
C135	C	0.328824	-0.455111	-0.454780
C136	C	0.374772	-0.417067	-0.416846
H137	H	0.352811	-0.484517	-0.484105
H138	H	0.301234	-0.480966	-0.425247
H139	H	0.301274	-0.425649	-0.480721
H140	H	0.402320	-0.446529	-0.390900
H141	H	0.402375	-0.391210	-0.446382
C142	C	0.185711	-0.273231	-0.191907
C143	C	0.226379	-0.235103	-0.235440
H144	H	0.161733	-0.243822	-0.162578
H145	H	0.154547	-0.299040	-0.217641
H146	H	0.213277	-0.302683	-0.165970
H147	H	0.198812	-0.205655	-0.261380
H148	H	0.257546	-0.209284	-0.209703
H149	H	0.592208	-0.247430	-0.247736
H150	H	1.056760	-0.247450	-0.712735
H151	H	0.899756	-1.067841	-0.247568
C152	C	0.849287	-0.619785	-0.197138
C153	C	0.887240	-0.573780	-0.235163
H154	H	0.819920	-0.595842	-0.167733
H155	H	0.823394	-0.647361	-0.226608
H156	H	0.878809	-0.647345	-0.171277
H157	H	0.857717	-0.546224	-0.261028
H158	H	0.913134	-0.546193	-0.205689
H159	H	1.056791	-0.247400	-0.940261
H160	H	0.899600	-0.404495	-0.712678
C161	C	0.849249	-0.454863	-0.620284
C162	C	0.887251	-0.416876	-0.574351
H163	H	0.819865	-0.484251	-0.596286
H164	H	0.823371	-0.425368	-0.647851
H165	H	0.878739	-0.480740	-0.647860
H166	H	0.857761	-0.390995	-0.546778
H167	H	0.913130	-0.446375	-0.546773
