data_functionalizedCrystal
_audit_creation_method	'MofGen! by Chris Wilmer'
_symmetry_space_group_name_H-M	'P1'
_symmetry_Int_Tables_number	1
_symmetry_cell_setting	triclinic
loop_
_symmetry_equiv_pos_as_xyz
  x,y,z
_cell_length_a	6.817900
_cell_length_b	16.417823
_cell_length_c	10.943624
_cell_angle_alpha	93.818576
_cell_angle_beta	108.838799
_cell_angle_gamma	103.385419
loop_
_atom_site_label
_atom_site_type_symbol
_atom_site_fract_x
_atom_site_fract_y
_atom_site_fract_z
V1	V	-4.087764	-0.115863	-0.402998
O2	O	-4.074542	0.005590	-0.394867
O3	O	-4.038453	-0.229758	-0.400683
O4	O	-4.066155	-0.114071	-0.578557
O5	O	-4.046649	-0.110898	-0.215762
V6	V	-4.568038	-0.101337	-0.380549
O7	O	-4.356148	-0.147727	-0.452241
O8	O	-4.749851	-0.069473	-0.331306
O9	O	-4.394142	0.012559	-0.382863
O10	O	-4.698656	-0.222790	-0.388680
O11	O	-4.726550	-0.106301	-0.567785
O12	O	-4.366440	-0.103129	-0.204989
C13	C	-3.882366	-0.257524	-0.394440
C14	C	-3.923514	-0.350635	-0.393718
C15	C	-3.998709	-0.640407	-0.273165
C16	C	-3.960015	-0.552917	-0.273823
C17	C	-4.076468	-0.576805	-0.510395
C18	C	-4.115146	-0.664293	-0.509736
C19	C	-4.076274	-0.696091	-0.391117
C20	C	-3.998902	-0.521113	-0.392434
C21	C	-3.956949	-0.426253	-0.393148
C22	C	-4.118226	-0.790958	-0.390403
C23	C	-3.917701	-0.109952	-0.621334
C24	C	-3.981311	-0.109240	-0.764858
C25	C	-3.827288	-0.104448	-0.841987
C26	C	-3.999621	-0.175579	-0.948251
C27	C	-3.922345	-0.036849	-0.914330
C28	C	-4.152839	-0.180438	-0.869246
C29	C	-4.075497	-0.041645	-0.835300
C30	C	-4.247962	-0.112796	-0.941535
C31	C	-4.213571	0.040320	-0.389103
C32	C	-4.151662	0.133430	-0.389833
C33	C	-4.178235	-0.107251	-0.162206
C34	C	-4.093863	-0.107958	-0.018681
H35	H	-4.108115	-0.550904	-0.606970
O36	O	-4.113221	0.025871	-0.776747
C37	C	-4.333673	0.022118	-0.829378
H38	H	-4.407077	-0.017688	-0.930640
H39	H	-4.353086	0.088911	-0.837135
H40	H	-4.419118	-0.007903	-0.762918
O41	O	-4.190591	-0.718276	-0.624443
C42	C	-4.216575	-0.671451	-0.729279
H43	H	-4.235528	-0.607065	-0.697326
H44	H	-4.365983	-0.707357	-0.815259
H45	H	-4.069229	-0.662066	-0.760026
H46	H	-3.648910	-0.101013	-0.798525
O47	O	-4.268303	-0.253000	-0.845199
C48	C	-4.228402	-0.323425	-0.904233
H49	H	-4.170490	-0.304771	-0.987757
H50	H	-4.382846	-0.377178	-0.943992
H51	H	-4.099612	-0.345276	-0.828691
H52	H	-3.968207	-0.232201	-0.997418
H53	H	-3.825517	0.023820	-0.934858
O54	O	-3.885035	-0.498867	-0.159223
C55	C	-4.032998	-0.517043	-0.093239
H56	H	-4.199280	-0.550910	-0.166566
H57	H	-4.039537	-0.455449	-0.042080
H58	H	-3.979827	-0.559466	-0.017714
H59	H	-3.967048	-0.666294	-0.176578
O60	O	-4.460955	-0.117174	-0.993130
C61	C	-4.582331	-0.192913	-0.970603
H62	H	-4.484018	-0.241278	-0.954906
H63	H	-4.736430	-0.219151	-1.058681
H64	H	-4.624694	-0.179553	-0.880012
