data_functionalizedCrystal
_audit_creation_method	'MofGen! by Chris Wilmer'
_symmetry_space_group_name_H-M	'P1'
_symmetry_Int_Tables_number	1
_symmetry_cell_setting	triclinic
loop_
_symmetry_equiv_pos_as_xyz
  x,y,z
_cell_length_a	8.597187
_cell_length_b	7.681481
_cell_length_c	19.288865
_cell_angle_alpha	84.272648
_cell_angle_beta	95.758978
_cell_angle_gamma	91.833072
loop_
_atom_site_label
_atom_site_type_symbol
_atom_site_fract_x
_atom_site_fract_y
_atom_site_fract_z
O1	O	2.035464	0.455261	-0.123805
O2	O	1.585406	0.386987	-0.128737
O3	O	1.823443	0.423062	-0.025335
O4	O	1.797427	0.419186	-0.227208
O5	O	1.852742	0.134645	-0.012578
O6	O	1.614705	0.098569	-0.115981
O7	O	2.064763	0.166844	-0.111049
Zn8	Zn	1.844386	0.086914	-0.111489
Zn9	Zn	1.805783	0.466916	-0.128297
O10	O	1.826726	0.130768	-0.214451
C11	C	1.542477	0.234043	-0.121118
C12	C	1.370911	0.208015	-0.117414
N13	N	1.870742	-0.172426	-0.100018
C14	C	2.107692	0.319791	-0.118668
C15	C	2.279257	0.345831	-0.122373
C16	C	1.837256	0.278722	0.006933
C17	C	1.834746	0.278325	0.084075
N18	N	1.779439	0.726258	-0.139763
C19	C	1.812913	0.275113	-0.246719
C20	C	1.815422	0.275521	-0.323861
C21	C	1.974414	0.299504	0.126675
C22	C	1.972051	0.299174	0.199156
C23	C	1.830015	0.277628	0.229036
C24	C	1.690328	0.256456	0.186426
C25	C	1.692693	0.256804	0.113946
C26	C	1.728621	0.159663	0.343468
C27	C	1.726263	0.159305	0.415948
C28	C	1.822714	0.276560	0.452589
C29	C	1.921551	0.394155	0.416744
C30	C	1.923916	0.394503	0.344263
C31	C	1.827435	0.277249	0.307628
C32	C	1.959829	0.297384	0.573782
C33	C	1.957459	0.297064	0.646264
C34	C	1.675734	0.254328	0.633533
C35	C	1.678106	0.254666	0.561052
C36	C	1.820159	0.276187	0.531181
H37	H	1.332049	0.483733	-0.129454
H38	H	2.004389	0.490256	0.315081
H39	H	1.574681	0.238917	0.210759
H40	H	1.318123	0.070122	-0.110341
H41	H	1.686238	-0.212670	-0.180330
C42	C	1.996670	-0.254923	-0.045213
C43	C	2.016829	-0.454635	-0.036452
C44	C	2.142754	-0.537133	0.018352
C45	C	2.248521	-0.419919	0.064395
C46	C	2.228366	-0.220195	0.055635
C47	C	2.102440	-0.137698	0.000831
H48	H	1.938531	-0.541415	-0.070536
H49	H	2.157674	-0.684982	0.024837
H50	H	2.341739	-0.480989	0.104964
H51	H	2.306663	-0.133416	0.089719
H52	H	2.087520	0.010152	-0.005654
H53	H	2.090084	0.317034	0.102359
H54	H	2.071198	0.314321	0.680948
H55	H	2.085788	0.316428	0.233847
C56	C	2.027662	0.523144	0.457039
C57	C	2.025063	0.522778	0.536764
C58	C	2.131177	0.651753	0.577064
C59	C	2.239891	0.781094	0.537638
C60	C	2.242494	0.781464	0.457909
C61	C	2.136380	0.652489	0.417609
H62	H	1.944583	0.427028	0.565954
H63	H	2.129249	0.651479	0.636085
H64	H	2.318443	0.876569	0.567470
H65	H	2.322974	0.877214	0.428719
H66	H	2.138307	0.652764	0.358588
H67	H	2.075496	0.314916	0.549460
H68	H	1.645776	0.063561	0.445127
C69	C	1.519488	0.230618	0.666389
C70	C	1.494334	0.074730	0.721101
C71	C	1.338081	0.051023	0.753959
C72	C	1.206981	0.183205	0.732106
C73	C	1.232131	0.339104	0.677392
C74	C	1.388384	0.362811	0.644533
H75	H	1.591385	-0.023129	0.737281
H76	H	1.319464	-0.064385	0.794463
H77	H	1.091314	0.165655	0.756430
H78	H	1.135080	0.436963	0.661212
H79	H	1.407001	0.478219	0.604030
H80	H	1.564374	0.237410	0.526367
C81	C	1.622513	0.030676	0.303166
C82	C	1.513814	-0.098684	0.342591
C83	C	1.407706	-0.227661	0.302290
C84	C	1.410297	-0.227278	0.222563
C85	C	1.519001	-0.097913	0.183134
C86	C	1.625109	0.031064	0.223435
H87	H	1.511892	-0.098972	0.401613
H88	H	1.327237	-0.323426	0.331478
H89	H	1.331750	-0.322754	0.192730
H90	H	1.520922	-0.097625	0.124112
H91	H	1.705578	0.126828	0.194247
H92	H	1.578955	0.239557	0.079260
