data_functionalizedCrystal
_audit_creation_method	'MofGen! by Chris Wilmer'
_symmetry_space_group_name_H-M	'P1'
_symmetry_Int_Tables_number	1
_symmetry_cell_setting	triclinic
loop_
_symmetry_equiv_pos_as_xyz
  x,y,z
_cell_length_a	13.262390
_cell_length_b	10.489716
_cell_length_c	11.804365
_cell_angle_alpha	101.956103
_cell_angle_beta	62.657606
_cell_angle_gamma	84.480389
loop_
_atom_site_label
_atom_site_type_symbol
_atom_site_fract_x
_atom_site_fract_y
_atom_site_fract_z
O1	O	1.519425	0.018741	-0.591143
O2	O	1.191433	0.064929	-0.484911
O3	O	1.362908	-0.144434	-0.540454
O4	O	1.347951	0.228104	-0.535601
O5	O	1.317765	-0.089368	-0.327775
O6	O	1.146290	0.119995	-0.272233
O7	O	1.474282	0.073807	-0.378465
Cu8	Cu	1.306164	0.101929	-0.305930
Cu9	Cu	1.359551	0.036807	-0.557446
O10	O	1.302807	0.283170	-0.322922
C11	C	1.126862	0.094937	-0.364969
C12	C	1.001718	0.102298	-0.324437
C13	C	0.747400	0.002958	-0.673928
C14	C	0.864980	-0.003964	-0.712012
C15	C	0.899171	0.022601	-0.615121
C16	C	0.815769	0.056089	-0.480141
C17	C	0.698178	0.063001	-0.442053
C18	C	0.849949	0.082644	-0.383247
C19	C	0.766547	0.116132	-0.248266
C20	C	0.648968	0.123044	-0.210185
C21	C	0.614778	0.096479	-0.307075
C22	C	0.967540	0.075732	-0.421334
C23	C	0.918318	0.135775	-0.189459
C24	C	0.800738	0.142697	-0.151375
C25	C	1.339214	-0.164334	-0.433754
C26	C	1.335854	-0.305667	-0.432677
C27	C	1.441005	-0.412730	-0.466723
C28	C	1.407697	-0.512277	-0.553585
C29	C	1.363165	-0.457949	-0.343893
C30	C	1.302608	-0.403375	-0.519639
C31	C	1.258072	-0.349019	-0.309858
C32	C	1.224692	-0.448516	-0.396720
C33	C	1.538854	0.043798	-0.498410
C34	C	1.664000	0.036435	-0.538950
C35	C	1.326502	0.303069	-0.429624
C36	C	1.329864	0.444401	-0.430710
N37	N	1.268623	0.147730	-0.129029
N38	N	1.397101	-0.009005	-0.734350
C39	C	1.487252	-0.119015	0.174104
C40	C	1.515650	-0.153669	0.040243
C41	C	1.453896	-0.078322	-0.002082
C42	C	1.363738	0.031684	0.089467
C43	C	1.335342	0.066348	0.223339
C44	C	1.301986	0.107041	0.047154
C45	C	1.211829	0.217048	0.138703
C46	C	1.183437	0.251705	0.272561
C47	C	1.245192	0.176358	0.314886
C48	C	1.330382	0.072377	-0.086718
C49	C	1.178473	0.257740	-0.037482
C50	C	1.150074	0.292394	0.096378
H51	H	0.994911	0.016964	-0.646138
H52	H	1.477022	-0.106543	-0.111078
C53	C	0.956714	-0.040776	-0.860474
H54	H	1.031640	-0.041096	-0.869281
H55	H	0.939551	0.022993	-0.899270
H56	H	0.955558	-0.126950	-0.904466
H57	H	1.532492	-0.396251	-0.496454
C58	C	1.614808	-0.274672	-0.060447
H59	H	1.647512	-0.314590	-0.016068
H60	H	1.673169	-0.246014	-0.127993
H61	H	1.584906	-0.338085	-0.099384
C62	C	1.555172	-0.201880	0.220664
H63	H	1.525343	-0.165482	0.313501
H64	H	1.635159	-0.199606	0.174312
H65	H	1.546899	-0.291682	0.202921
H66	H	0.719550	-0.018680	-0.752802
H67	H	1.222067	0.204570	0.423886
C68	C	0.708986	0.179570	-0.002904
H69	H	0.634063	0.179887	0.005896
H70	H	0.710164	0.265742	0.041050
H71	H	0.726117	0.115819	0.035936
C72	C	1.493072	-0.607403	-0.692765
H73	H	1.451407	-0.658170	-0.725246
H74	H	1.548985	-0.665927	-0.687406
H75	H	1.531484	-0.556784	-0.751516
C76	C	1.268135	-0.370586	-0.620132
H77	H	1.251544	-0.447295	-0.661326
H78	H	1.330494	-0.344667	-0.685979
H79	H	1.201082	-0.299575	-0.575075
C80	C	1.397727	-0.491023	-0.243560
H81	H	1.335119	-0.516230	-0.177291
H82	H	1.415050	-0.414658	-0.202886
H83	H	1.464337	-0.562613	-0.288618
H84	H	1.110035	0.341287	0.347099
H85	H	0.519036	0.102118	-0.276074
H86	H	1.403788	-0.017190	-0.161246
H87	H	1.076666	0.381965	0.170933
C88	C	1.059270	0.038910	-0.569799
H89	H	1.134198	0.038587	-0.578612
H90	H	1.042108	0.102672	-0.608600
H91	H	1.058109	-0.047267	-0.613780
H92	H	1.128188	0.319097	-0.071941
H93	H	0.581066	0.150289	-0.100275
H94	H	0.946154	0.157405	-0.110563
C95	C	1.101060	-0.470509	-0.356746
H96	H	1.079708	-0.452098	-0.419262
H97	H	1.047796	-0.412439	-0.270785
H98	H	1.099413	-0.560579	-0.355559
C99	C	1.172744	-0.253858	-0.170692
H100	H	1.194434	-0.272157	-0.108395
H101	H	1.096153	-0.266635	-0.145181
H102	H	1.175026	-0.164061	-0.172638
