data_functionalizedCrystal
_audit_creation_method	'MofGen! by Chris Wilmer'
_symmetry_space_group_name_H-M	'P1'
_symmetry_Int_Tables_number	1
_symmetry_cell_setting	triclinic
loop_
_symmetry_equiv_pos_as_xyz
  x,y,z
_cell_length_a	8.559649
_cell_length_b	17.699083
_cell_length_c	16.176319
_cell_angle_alpha	89.992304
_cell_angle_beta	89.992630
_cell_angle_gamma	76.530839
loop_
_atom_site_label
_atom_site_type_symbol
_atom_site_fract_x
_atom_site_fract_y
_atom_site_fract_z
O1	O	2.120234	-0.025680	-0.068732
O2	O	1.654878	0.013416	-0.068738
O3	O	1.900704	-0.117074	-0.068727
O4	O	1.874409	0.104810	-0.068742
O5	O	1.900670	-0.117080	0.068766
O6	O	1.654845	0.013410	0.068756
O7	O	2.120200	-0.025686	0.068761
Cu8	Cu	1.887519	-0.006138	0.081313
Cu9	Cu	1.887559	-0.006132	-0.081289
O10	O	1.874375	0.104804	0.068751
C11	C	1.899745	-0.145220	0.000019
C12	C	1.896918	-0.229076	0.000020
C13	C	1.595320	0.016376	0.000008
C14	C	1.417906	0.025195	0.000007
C15	C	2.041212	-0.285959	0.000022
C16	C	2.038547	-0.364749	0.000015
C17	C	1.891585	-0.386656	0.000011
C18	C	1.747280	-0.329767	0.000006
C19	C	1.749947	-0.250978	0.000007
C20	C	1.736521	-0.647514	-0.000001
C21	C	1.733865	-0.726310	-0.000000
C22	C	2.025120	-0.761286	0.000007
C23	C	2.027787	-0.682496	0.000008
C24	C	1.883483	-0.625614	-0.000001
C25	C	1.886375	-0.540181	0.000005
C26	C	1.888692	-0.472088	0.000010
C27	C	2.179758	-0.028646	0.000013
C28	C	2.357173	-0.037465	0.000010
C29	C	1.875334	0.132950	0.000002
C30	C	1.878161	0.216806	-0.000003
N31	N	1.887503	-0.006144	0.195678
N32	N	1.887588	-0.006133	-0.195654
C33	C	1.996387	-0.063906	0.238946
C34	C	1.996395	-0.063907	0.325494
C35	C	1.887526	-0.006143	0.368770
C36	C	1.778630	0.051622	0.325496
C37	C	1.778615	0.051620	0.238950
C38	C	1.778685	0.051633	0.674524
C39	C	1.778711	0.051633	0.761075
C40	C	1.996464	-0.063893	0.761067
C41	C	1.996450	-0.063896	0.674522
C42	C	1.887549	-0.006134	0.631255
C43	C	1.887540	-0.006134	0.537410
C44	C	1.887541	-0.006139	0.462613
H45	H	2.160885	-0.268130	0.000031
F46	F	2.184203	-0.659187	0.000012
F47	F	2.112328	-0.125374	0.628467
H48	H	1.614184	-0.744141	-0.000002
H49	H	2.156046	-0.411061	0.000019
H50	H	1.334165	0.085592	-0.000002
H51	H	1.619019	-0.601208	-0.000009
F52	F	2.112279	-0.125384	0.371544
F53	F	1.662753	0.113098	0.371555
H54	H	2.085048	-0.110941	0.203716
F55	F	1.590872	-0.353083	-0.000008
F56	F	2.112363	-0.125372	0.807122
F57	F	2.178704	-0.821831	0.000014
H58	H	1.690017	0.098667	0.639303
F59	F	1.662721	0.113096	0.192902
F60	F	1.596369	-0.190438	0.000001
F61	F	1.466613	-0.116406	0.000010
F62	F	1.662829	0.113116	0.807132
