data_functionalizedCrystal
_audit_creation_method	'MofGen! by Chris Wilmer'
_symmetry_space_group_name_H-M	'P1'
_symmetry_Int_Tables_number	1
_symmetry_cell_setting	triclinic
loop_
_symmetry_equiv_pos_as_xyz
  x,y,z
_cell_length_a	12.759401
_cell_length_b	16.120444
_cell_length_c	12.759393
_cell_angle_alpha	87.136376
_cell_angle_beta	90.018567
_cell_angle_gamma	92.925484
loop_
_atom_site_label
_atom_site_type_symbol
_atom_site_fract_x
_atom_site_fract_y
_atom_site_fract_z
Zn1	Zn	1.584963	-0.331879	0.615155
Zn2	Zn	1.575911	-0.471317	0.448370
Zn3	Zn	1.409262	-0.331920	0.439496
Zn4	Zn	1.400311	-0.471250	0.624007
O5	O	1.492612	-0.401591	0.531757
O6	O	1.730782	-0.350387	0.593039
O7	O	1.553762	-0.452871	0.300175
O8	O	1.440103	-0.215249	0.455380
O9	O	1.724132	-0.452831	0.470503
O10	O	1.569190	-0.215219	0.584435
O11	O	1.431326	-0.350456	0.293655
O12	O	1.261054	-0.350391	0.463963
O13	O	1.424848	-0.452717	0.769851
O14	O	1.254478	-0.452757	0.599522
O15	O	1.560511	-0.350322	0.763347
O16	O	1.545083	-0.587974	0.479087
O17	O	1.416071	-0.587925	0.608126
C18	C	1.219646	-0.401572	0.531741
C19	C	1.102868	-0.401584	0.531761
C20	C	1.051456	-0.348341	0.595676
C21	C	0.941731	-0.348357	0.595683
C22	C	0.934840	-0.454865	0.467858
C23	C	1.044563	-0.454844	0.467846
C24	C	1.109761	-0.295081	0.659590
C25	C	1.058348	-0.241835	0.723512
C26	C	0.948623	-0.241851	0.723519
C27	C	0.890310	-0.295113	0.659606
C28	C	1.478652	-0.618199	0.545553
C29	C	1.472776	-0.710865	0.551490
C30	C	1.523350	-0.921811	0.501184
C31	C	1.462068	-0.880521	0.562341
C32	C	1.468028	-0.786116	0.556302
C33	C	1.517392	-1.016225	0.507222
C34	C	1.766644	-0.401612	0.531774
C35	C	1.883420	-0.401620	0.531781
C36	C	1.492691	-0.401507	0.805785
C37	C	1.492724	-0.401472	0.922560
C38	C	1.506654	-0.184138	0.517930
C39	C	1.512639	-0.091472	0.512038
C40	C	1.492597	-0.401615	0.258791
C41	C	1.492782	-0.401416	0.142002
C42	C	1.563373	-0.348149	0.974036
C43	C	1.563400	-0.348119	1.083759
C44	C	1.422126	-0.454741	1.090518
C45	C	1.422095	-0.454766	0.980797
C46	C	1.634003	-0.294854	0.915799
C47	C	1.704659	-0.241528	0.967276
C48	C	1.704686	-0.241498	1.076998
C49	C	1.634057	-0.294794	1.135243
H50	H	1.105834	-0.198466	0.775541
H51	H	1.580287	-0.886263	0.444293
H52	H	1.364623	-0.498131	1.137950
H53	H	1.405126	-0.916072	0.619234
C54	C	0.832440	-0.129736	0.731227
C55	C	0.892109	-0.183323	0.793775
H56	H	0.797558	-0.093602	0.774606
H57	H	0.782014	-0.161457	0.693178
H58	H	0.877287	-0.097796	0.683487
H59	H	0.847260	-0.215267	0.841510
H60	H	0.942540	-0.151598	0.831842
H61	H	1.364551	-0.498173	0.938883
C62	C	1.710880	-0.236845	0.754942
C63	C	1.633971	-0.294883	0.795191
H64	H	1.710854	-0.236863	0.680484
H65	H	1.777741	-0.251270	0.780681
H66	H	1.696191	-0.183039	0.776350
H67	H	1.648665	-0.348691	0.773789
H68	H	1.567095	-0.280463	0.769441
C69	C	1.764943	-0.100371	0.924530
C70	C	1.782285	-0.182943	0.903257
H71	H	1.812864	-0.064202	0.885004
H72	H	1.775072	-0.092728	0.997235
H73	H	1.695134	-0.088179	0.905761
H74	H	1.852093	-0.195136	0.922034
H75	H	1.772165	-0.190588	0.830537
H76	H	1.762209	-0.198072	1.118907
H77	H	1.634073	-0.294756	1.224586
H78	H	1.199105	-0.295062	0.659591
H79	H	0.887353	-0.498230	0.415825
C80	C	1.069287	-0.595964	0.425374
C81	C	1.101090	-0.513373	0.397600
H82	H	1.104192	-0.632095	0.382008
H83	H	0.995607	-0.603598	0.416224
H84	H	1.086513	-0.608213	0.496722
H85	H	1.083857	-0.501121	0.326254
H86	H	1.174787	-0.505735	0.406740
H87	H	0.800966	-0.295104	0.659593
