data_functionalizedCrystal
_audit_creation_method	'MofGen! by Chris Wilmer'
_symmetry_space_group_name_H-M	'P1'
_symmetry_Int_Tables_number	1
_symmetry_cell_setting	triclinic
loop_
_symmetry_equiv_pos_as_xyz
  x,y,z
_cell_length_a	14.519709
_cell_length_b	16.109301
_cell_length_c	13.596369
_cell_angle_alpha	89.994680
_cell_angle_beta	89.993066
_cell_angle_gamma	83.570813
loop_
_atom_site_label
_atom_site_type_symbol
_atom_site_fract_x
_atom_site_fract_y
_atom_site_fract_z
O1	O	0.118543	1.103338	-0.081793
O2	O	0.368543	1.353338	0.168207
O3	O	0.618543	1.603338	0.418207
O4	O	0.868543	1.853338	0.668207
O5	O	0.133295	0.861301	-0.081796
O6	O	0.383295	1.111301	0.168204
O7	O	0.633295	1.361301	0.418204
O8	O	0.883295	1.611301	0.668204
O9	O	-0.008333	0.988737	-0.081785
O10	O	0.241667	1.238737	0.168215
O11	O	0.491667	1.488737	0.418215
O12	O	0.741667	1.738737	0.668215
O13	O	0.260171	0.975902	-0.081803
O14	O	0.510171	1.225902	0.168197
O15	O	0.760171	1.475902	0.418197
O16	O	1.010171	1.725902	0.668197
O17	O	-0.008341	0.988724	0.081797
O18	O	0.241659	1.238724	0.331797
O19	O	0.491659	1.488724	0.581797
O20	O	0.741659	1.738724	0.831797
O21	O	0.133287	0.861289	0.081787
O22	O	0.383287	1.111289	0.331787
O23	O	0.633287	1.361289	0.581787
O24	O	0.883287	1.611289	0.831787
O25	O	0.118535	1.103325	0.081790
O26	O	0.368535	1.353325	0.331790
O27	O	0.618535	1.603325	0.581790
O28	O	0.868535	1.853325	0.831790
Zn29	Zn	0.125910	0.982305	0.107761
Zn30	Zn	0.375910	1.232305	0.357761
Zn31	Zn	0.625910	1.482305	0.607761
Zn32	Zn	0.875910	1.732305	0.857761
Zn33	Zn	0.125920	0.982322	-0.107767
Zn34	Zn	0.375920	1.232322	0.142233
Zn35	Zn	0.625920	1.482322	0.392233
Zn36	Zn	0.875920	1.732322	0.642233
O37	O	0.260163	0.975890	0.081780
O38	O	0.510163	1.225890	0.331780
O39	O	0.760163	1.475890	0.581780
O40	O	1.010163	1.725890	0.831780
C41	C	-0.042696	0.988132	0.000006
C42	C	0.207304	1.238132	0.250006
C43	C	0.457304	1.488132	0.500006
C44	C	0.707304	1.738132	0.750006
C45	C	-0.145073	0.986340	0.000007
C46	C	0.104927	1.236340	0.250007
C47	C	0.354927	1.486340	0.500007
C48	C	0.604927	1.736340	0.750007
C49	C	0.132693	0.830319	-0.000004
C50	C	0.382693	1.080319	0.249996
C51	C	0.632693	1.330319	0.499996
C52	C	0.882693	1.580319	0.749996
C53	C	0.130902	0.738021	-0.000005
C54	C	0.380902	0.988021	0.249995
C55	C	0.630902	1.238021	0.499995
C56	C	0.880902	1.488021	0.749995
C57	C	0.119136	1.134307	-0.000004
C58	C	0.369136	1.384307	0.249996
C59	C	0.619136	1.634307	0.499996
C60	C	0.869136	1.884307	0.749996
C61	C	0.120928	1.226606	-0.000010
C62	C	0.370928	1.476606	0.249990
C63	C	0.620928	1.726606	0.499990
C64	C	0.870928	1.976606	0.749990
C65	C	-0.519955	0.979741	-0.000019
C66	C	-0.269955	1.229741	0.249981
C67	C	-0.019955	1.479741	0.499981
C68	C	0.230045	1.729741	0.749981
C69	C	-0.415651	0.981574	-0.000011
C70	C	-0.165651	1.231574	0.249989
C71	C	0.084349	1.481574	0.499989
C72	C	0.334349	1.731574	0.749989
C73	C	-0.332517	0.983041	-0.000005
C74	C	-0.082517	1.233041	0.249995
C75	C	0.167483	1.483041	0.499995
C76	C	0.417483	1.733041	0.749995
C77	C	-0.228207	0.984873	0.000000
C78	C	0.021793	1.234873	0.250000
C79	C	0.271793	1.484873	0.500000
C80	C	0.521793	1.734873	0.750000
C81	C	0.294526	0.976494	-0.000014
C82	C	0.544526	1.226494	0.249986
C83	C	0.794526	1.476494	0.499986
C84	C	1.044526	1.726494	0.749986
C85	C	0.396903	0.978287	-0.000021
C86	C	0.646903	1.228287	0.249979
C87	C	0.896903	1.478287	0.499979
C88	C	1.146903	1.728287	0.749979
N89	N	0.125903	0.982300	0.254853
N90	N	0.375903	1.232300	0.504853
N91	N	0.625903	1.482300	0.754853
N92	N	0.875903	1.732300	1.004853
C93	C	0.041054	1.448740	0.000001
C94	C	0.291054	1.698740	0.250001
C95	C	0.541054	1.948740	0.500001
C96	C	0.791054	2.198740	0.750001
C97	C	0.042745	1.535463	0.000004
C98	C	0.292745	1.785463	0.250004
C99	C	0.542745	2.035463	0.500004
C100	C	0.792745	2.285463	0.750004
C101	C	0.210782	1.515880	-0.000012
C102	C	0.460782	1.765880	0.249988
C103	C	0.710782	2.015880	0.499988
C104	C	0.960782	2.265880	0.749988
C105	C	0.209090	1.429158	-0.000008
C106	C	0.459090	1.679158	0.249992
C107	C	0.709090	1.929158	0.499992
C108	C	0.959090	2.179158	0.749992
C109	C	0.124224	1.395591	-0.000007
C110	C	0.374224	1.645591	0.249993
C111	C	0.624224	1.895591	0.499993
C112	C	0.874224	2.145591	0.749993
C113	C	0.127606	1.569036	-0.000007
C114	C	0.377606	1.819036	0.249993
C115	C	0.627606	2.069036	0.499993
C116	C	0.877606	2.319036	0.749993
C117	C	0.129440	1.663065	-0.000004
C118	C	0.379440	1.913065	0.249996
C119	C	0.629440	2.163065	0.499996
C120	C	0.879440	2.413065	0.749996
C121	C	0.122390	1.301556	-0.000009
C122	C	0.372390	1.551556	0.249991
C123	C	0.622390	1.801556	0.499991
C124	C	0.872390	2.051556	0.749991
N125	N	0.125920	0.982334	-0.254858
N126	N	0.375920	1.232334	-0.004858
N127	N	0.625920	1.482334	0.245142
N128	N	0.875920	1.732334	0.495142
C129	C	0.125921	0.982321	0.656144
C130	C	0.375921	1.232321	0.906144
C131	C	0.625921	1.482321	1.156144
C132	C	0.875921	1.732321	1.406144
C133	C	0.125919	0.982312	0.544492
C134	C	0.375919	1.232312	0.794492
C135	C	0.625919	1.482312	1.044492
C136	C	0.875919	1.732312	1.294492
C137	C	0.125912	0.982311	0.455502
C138	C	0.375912	1.232311	0.705502
C139	C	0.625912	1.482311	0.955502
C140	C	0.875912	1.732311	1.205502
C141	C	0.125909	0.982301	0.343843
C142	C	0.375909	1.232301	0.593843
C143	C	0.625909	1.482301	0.843843
C144	C	0.875909	1.732301	1.093843
H145	H	-0.028049	1.421413	0.000004
H146	H	0.221951	1.671413	0.250004
H147	H	0.471951	1.921413	0.500004
H148	H	0.721951	2.171413	0.750004
Br149	Br	0.325952	1.561441	-0.000023
Br150	Br	0.575952	1.811441	0.249977
Br151	Br	0.825952	2.061441	0.499977
Br152	Br	1.075952	2.311441	0.749977
H153	H	-0.024980	1.578735	0.000012
H154	H	0.225020	1.828735	0.250012
H155	H	0.475020	2.078735	0.500012
H156	H	0.725020	2.328735	0.750012
H157	H	0.276821	1.385882	-0.000011
H158	H	0.526821	1.635882	0.249989
H159	H	0.776821	1.885882	0.499989
H160	H	1.026821	2.135882	0.749989
