data_functionalizedCrystal
_audit_creation_method	'MofGen! by Chris Wilmer'
_symmetry_space_group_name_H-M	'P1'
_symmetry_Int_Tables_number	1
_symmetry_cell_setting	triclinic
loop_
_symmetry_equiv_pos_as_xyz
  x,y,z
_cell_length_a	29.839134
_cell_length_b	29.839131
_cell_length_c	14.909227
_cell_angle_alpha	86.671520
_cell_angle_beta	86.670229
_cell_angle_gamma	90.034165
loop_
_atom_site_label
_atom_site_type_symbol
_atom_site_fract_x
_atom_site_fract_y
_atom_site_fract_z
Zn1	Zn	0.701432	-0.164267	-0.510383
Zn2	Zn	0.951432	0.085733	-0.260383
Zn3	Zn	1.201432	0.335733	-0.010383
Zn4	Zn	1.451432	0.585733	0.239617
Zn5	Zn	0.697015	-0.243735	-0.359509
Zn6	Zn	0.947015	0.006265	-0.109509
Zn7	Zn	1.197015	0.256265	0.140491
Zn8	Zn	1.447015	0.506265	0.390491
Zn9	Zn	0.621966	-0.168611	-0.359502
Zn10	Zn	0.871966	0.081389	-0.109502
Zn11	Zn	1.121966	0.331389	0.140498
Zn12	Zn	1.371966	0.581389	0.390498
Zn13	Zn	0.626260	-0.239364	-0.510294
Zn14	Zn	0.876260	0.010636	-0.260294
Zn15	Zn	1.126260	0.260636	-0.010294
Zn16	Zn	1.376260	0.510636	0.239706
O17	O	0.661669	-0.203994	-0.434922
O18	O	0.911669	0.046006	-0.184922
O19	O	1.161669	0.296006	0.065078
O20	O	1.411669	0.546006	0.315078
O21	O	0.763715	-0.174820	-0.490410
O22	O	1.013715	0.075180	-0.240410
O23	O	1.263715	0.325180	0.009590
O24	O	1.513715	0.575180	0.259590
O25	O	0.683414	-0.237417	-0.233260
O26	O	0.933414	0.012583	0.016740
O27	O	1.183414	0.262583	0.266740
O28	O	1.433414	0.512583	0.516740
O29	O	0.632558	-0.105166	-0.379552
O30	O	0.882558	0.144834	-0.129552
O31	O	1.132558	0.394834	0.120448
O32	O	1.382558	0.644834	0.370448
O33	O	0.760470	-0.233205	-0.379563
O34	O	1.010470	0.016795	-0.129563
O35	O	1.260470	0.266795	0.120437
O36	O	1.510470	0.516795	0.370437
O37	O	0.690942	-0.101975	-0.490403
O38	O	0.940942	0.148025	-0.240403
O39	O	1.190942	0.398025	0.009597
O40	O	1.440942	0.648025	0.259597
O41	O	0.628275	-0.182223	-0.233255
O42	O	0.878275	0.067777	0.016745
O43	O	1.128275	0.317777	0.266745
O44	O	1.378275	0.567777	0.516745
O45	O	0.559667	-0.177985	-0.379465
O46	O	0.809667	0.072015	-0.129465
O47	O	1.059667	0.322015	0.120535
O48	O	1.309667	0.572015	0.370535
O49	O	0.639878	-0.225754	-0.636554
O50	O	0.889878	0.024246	-0.386554
O51	O	1.139878	0.274246	-0.136554
O52	O	1.389878	0.524246	0.113446
O53	O	0.562822	-0.229966	-0.490250
O54	O	0.812822	0.020034	-0.240250
O55	O	1.062822	0.270034	0.009750
O56	O	1.312822	0.520034	0.259750
O57	O	0.695107	-0.170581	-0.636620
O58	O	0.945107	0.079419	-0.386620
O59	O	1.195107	0.329419	-0.136620
O60	O	1.445107	0.579419	0.113380
O61	O	0.687578	-0.306023	-0.379476
O62	O	0.937578	-0.056023	-0.129476
O63	O	1.187578	0.193977	0.120524
O64	O	1.437578	0.443977	0.370524
O65	O	0.635595	-0.302812	-0.490257
O66	O	0.885595	-0.052812	-0.240257
O67	O	1.135595	0.197188	0.009743
O68	O	1.385595	0.447188	0.259743
C69	C	0.544944	-0.203973	-0.434847
C70	C	0.794944	0.046027	-0.184847
C71	C	1.044944	0.296027	0.065153
C72	C	1.294944	0.546027	0.315153
C73	C	0.495009	-0.203974	-0.434837
C74	C	0.745009	0.046026	-0.184837
C75	C	0.995009	0.296026	0.065163
C76	C	1.245009	0.546026	0.315163
C77	C	0.136772	-0.176881	-0.377354
C78	C	0.386772	0.073119	-0.127354
C79	C	0.636772	0.323119	0.122646
C80	C	0.886772	0.573119	0.372646
C81	C	0.324444	-0.176870	-0.377299
C82	C	0.574444	0.073130	-0.127299
C83	C	0.824444	0.323130	0.122701
C84	C	1.074444	0.573130	0.372701
O85	O	0.347303	-0.153799	-0.328341
O86	O	0.597303	0.096201	-0.078341
O87	O	0.847303	0.346201	0.171659
O88	O	1.097303	0.596201	0.421659
N89	N	0.349565	-0.203980	-0.434882
N90	N	0.599565	0.046020	-0.184882
N91	N	0.849565	0.296020	0.065118
N92	N	1.099565	0.546020	0.315118
C93	C	0.327766	-0.231092	-0.492488
C94	C	0.577766	0.018908	-0.242488
C95	C	0.827766	0.268908	0.007512
C96	C	1.077766	0.518908	0.257512
O97	O	0.353440	-0.254147	-0.541471
O98	O	0.603440	-0.004147	-0.291471
O99	O	0.853440	0.245853	-0.041471
O100	O	1.103440	0.495853	0.208529
C101	C	0.140096	-0.231101	-0.492546
C102	C	0.390096	0.018899	-0.242546
C103	C	0.640096	0.268899	0.007454
C104	C	0.890096	0.518899	0.257454
C105	C	0.114976	-0.203992	-0.434953
C106	C	0.364976	0.046008	-0.184953
C107	C	0.614976	0.296008	0.065047
C108	C	0.864976	0.546008	0.315047
C109	C	0.111653	-0.149775	-0.319766
C110	C	0.361653	0.100225	-0.069766
C111	C	0.611653	0.350225	0.180234
C112	C	0.861653	0.600225	0.430234
C113	C	0.064738	-0.149780	-0.319776
C114	C	0.314738	0.100220	-0.069776
C115	C	0.564738	0.350220	0.180224
C116	C	0.814738	0.600220	0.430224
C117	C	0.042942	-0.176891	-0.377375
C118	C	0.292942	0.073109	-0.127375
C119	C	0.542942	0.323109	0.122625
C120	C	0.792942	0.573109	0.372625
C121	C	0.068061	-0.203997	-0.434964
C122	C	0.318061	0.046003	-0.184964
C123	C	0.568061	0.296003	0.065036
C124	C	0.818061	0.546003	0.315036
C125	C	0.118298	-0.258210	-0.550156
C126	C	0.368298	-0.008210	-0.300156
C127	C	0.618298	0.241790	-0.050156
C128	C	0.868298	0.491790	0.199844
C129	C	0.071377	-0.258209	-0.550167
C130	C	0.321377	-0.008209	-0.300167
C131	C	0.571377	0.241791	-0.050167
C132	C	0.821377	0.491791	0.199833
C133	C	0.046258	-0.231101	-0.492573
C134	C	0.296258	0.018899	-0.242573
C135	C	0.546258	0.268899	0.007427
C136	C	0.796258	0.518899	0.257427
C137	C	-0.000650	-0.231113	-0.492573
C138	C	0.249350	0.018887	-0.242573
C139	C	0.499350	0.268887	0.007427
C140	C	0.749350	0.518887	0.257427
N141	N	-0.025771	-0.204004	-0.434990
N142	N	0.224229	0.045996	-0.184990
N143	N	0.474229	0.295996	0.065010
N144	N	0.724229	0.545996	0.315010
C145	C	-0.003975	-0.176892	-0.377391
C146	C	0.246025	0.073108	-0.127391
C147	C	0.496025	0.323108	0.122609
C148	C	0.746025	0.573108	0.372609
C149	C	0.426296	-0.231087	-0.492452
C150	C	0.676296	0.018913	-0.242452
C151	C	0.926296	0.268913	0.007548
C152	C	1.176296	0.518913	0.257548
C153	C	0.473213	-0.231085	-0.492436
C154	C	0.723213	0.018915	-0.242436
C155	C	0.973213	0.268915	0.007564
C156	C	1.223213	0.518915	0.257564
C157	C	0.469888	-0.176862	-0.377248
C158	C	0.719888	0.073138	-0.127248
C159	C	0.969888	0.323138	0.122752
C160	C	1.219888	0.573138	0.372752
C161	C	0.422969	-0.176866	-0.377260
C162	C	0.672969	0.073134	-0.127260
C163	C	0.922969	0.323134	0.122740
C164	C	1.172969	0.573134	0.372740
C165	C	0.401174	-0.203977	-0.434868
C166	C	0.651174	0.046023	-0.184868
C167	C	0.901174	0.296023	0.065132
C168	C	1.151174	0.546023	0.315132
C169	C	-0.102500	-0.176905	-0.377417
C170	C	0.147500	0.073095	-0.127417
C171	C	0.397500	0.323095	0.122583
C172	C	0.647500	0.573095	0.372583
C173	C	-0.149420	-0.176914	-0.377431
C174	C	0.100580	0.073086	-0.127431
C175	C	0.350580	0.323086	0.122569
C176	C	0.600580	0.573086	0.372569
C177	C	-0.146090	-0.231135	-0.492621
C178	C	0.103910	0.018865	-0.242621
C179	C	0.353910	0.268865	0.007379
C180	C	0.603910	0.518865	0.257379
C181	C	-0.099175	-0.231128	-0.492605
C182	C	0.150825	0.018872	-0.242605
C183	C	0.400825	0.268872	0.007395
C184	C	0.650825	0.518872	0.257395
C185	C	-0.077381	-0.204009	-0.435000
C186	C	0.172619	0.045991	-0.185000
C187	C	0.422619	0.295991	0.065000
C188	C	0.672619	0.545991	0.315000
O189	O	-0.023539	-0.254168	-0.541513
O190	O	0.226461	-0.004168	-0.291513
O191	O	0.476461	0.245832	-0.041513
O192	O	0.726461	0.495832	0.208487
O193	O	-0.029657	-0.153833	-0.328429
O194	O	0.220343	0.096167	-0.078429
O195	O	0.470343	0.346167	0.171571
O196	O	0.720343	0.596167	0.421571
C197	C	0.183687	-0.176876	-0.377343
C198	C	0.433687	0.073124	-0.127343
C199	C	0.683687	0.323124	0.122657
C200	C	0.933687	0.573124	0.372657
C201	C	0.208807	-0.203983	-0.434931
C202	C	0.458807	0.046017	-0.184931
C203	C	0.708807	0.296017	0.065069
C204	C	0.958807	0.546017	0.315069
C205	C	0.187011	-0.231094	-0.492530
C206	C	0.437011	0.018906	-0.242530
C207	C	0.687011	0.268906	0.007470
C208	C	0.937011	0.518906	0.257470
C209	C	0.255724	-0.203981	-0.434916
C210	C	0.505724	0.046019	-0.184916
C211	C	0.755724	0.296019	0.065084
C212	C	1.005724	0.546019	0.315084
C213	C	0.277520	-0.176870	-0.377317
C214	C	0.527520	0.073130	-0.127317
C215	C	0.777520	0.323130	0.122683
C216	C	1.027520	0.573130	0.372683
C217	C	0.252399	-0.149760	-0.319733
C218	C	0.502399	0.100240	-0.069733
C219	C	0.752399	0.350240	0.180267
C220	C	1.002399	0.600240	0.430267
C221	C	0.205483	-0.149765	-0.319744
C222	C	0.455483	0.100235	-0.069744
C223	C	0.705483	0.350235	0.180256
C224	C	0.955483	0.600235	0.430256
C225	C	0.212132	-0.258204	-0.550113
C226	C	0.462132	-0.008204	-0.300113
C227	C	0.712132	0.241796	-0.050113
C228	C	0.962132	0.491796	0.199887
C229	C	0.259047	-0.258197	-0.550097
C230	C	0.509047	-0.008197	-0.300097
C231	C	0.759047	0.241803	-0.050097
C232	C	1.009047	0.491803	0.199903
C233	C	0.280843	-0.231086	-0.492498
C234	C	0.530843	0.018914	-0.242498
C235	C	0.780843	0.268914	0.007502
C236	C	1.030843	0.518914	0.257502
C237	C	0.661586	-0.320718	-0.434877
C238	C	0.911586	-0.070718	-0.184877
C239	C	1.161586	0.179282	0.065123
C240	C	1.411586	0.429282	0.315123
C241	C	0.661593	-0.370652	-0.434888
C242	C	0.911593	-0.120652	-0.184888
C243	C	1.161593	0.129348	0.065112
C244	C	1.411593	0.379348	0.315112
C245	C	0.688791	-0.681952	-0.377323
C246	C	0.938791	-0.431952	-0.127323
C247	C	1.188791	-0.181952	0.122677
C248	C	1.438791	0.068048	0.372677
C249	C	0.688847	-0.869624	-0.377358
C250	C	0.938847	-0.619624	-0.127358
C251	C	1.188847	-0.369624	0.122642
C252	C	1.438847	-0.119624	0.372642
O253	O	0.711907	-0.895298	-0.328379
O254	O	0.961907	-0.645298	-0.078379
O255	O	1.211907	-0.395298	0.171621
O256	O	1.461907	-0.145298	0.421621
N257	N	0.661764	-0.891434	-0.434990
N258	N	0.911764	-0.641434	-0.184990
N259	N	1.161764	-0.391434	0.065010
N260	N	1.411764	-0.141434	0.315010
C261	C	0.634666	-0.866323	-0.492622
C262	C	0.884666	-0.616323	-0.242622
C263	C	1.134666	-0.366323	0.007378
C264	C	1.384666	-0.116323	0.257378
O265	O	0.611634	-0.889181	-0.541649
O266	O	0.861634	-0.639181	-0.291649
O267	O	1.111634	-0.389181	-0.041649
O268	O	1.361634	-0.139181	0.208351
C269	C	0.634612	-0.678652	-0.492591
C270	C	0.884612	-0.428652	-0.242591
C271	C	1.134612	-0.178652	0.007409
C272	C	1.384612	0.071348	0.257409
C273	C	0.661694	-0.656844	-0.434948
C274	C	0.911694	-0.406844	-0.184948
C275	C	1.161694	-0.156844	0.065052
C276	C	1.411694	0.093156	0.315052
C277	C	0.715871	-0.660144	-0.319686
C278	C	0.965871	-0.410144	-0.069686
C279	C	1.215871	-0.160144	0.180314
C280	C	1.465871	0.089856	0.430314
C281	C	0.715855	-0.613229	-0.319674
C282	C	0.965855	-0.363229	-0.069674
C283	C	1.215855	-0.113229	0.180326
C284	C	1.465855	0.136771	0.430326
C285	C	0.688758	-0.588121	-0.377300
C286	C	0.938758	-0.338121	-0.127300
C287	C	1.188758	-0.088121	0.122700
C288	C	1.438758	0.161879	0.372700
C289	C	0.661678	-0.609929	-0.434937
C290	C	0.911678	-0.359929	-0.184937
C291	C	1.161678	-0.109929	0.065063
C292	C	1.411678	0.140071	0.315063
C293	C	0.607517	-0.653542	-0.550226
C294	C	0.857517	-0.403542	-0.300226
C295	C	1.107517	-0.153542	-0.050226
C296	C	1.357517	0.096458	0.199774
C297	C	0.607507	-0.606621	-0.550215
C298	C	0.857507	-0.356621	-0.300215
C299	C	1.107507	-0.106621	-0.050215
C300	C	1.357507	0.143379	0.199785
C301	C	0.634589	-0.584814	-0.492573
C302	C	0.884589	-0.334814	-0.242573
C303	C	1.134589	-0.084814	0.007427
C304	C	1.384589	0.165186	0.257427
C305	C	0.634565	-0.537907	-0.492550
C306	C	0.884565	-0.287907	-0.242550
C307	C	1.134565	-0.037907	0.007450
C308	C	1.384565	0.212093	0.257450
N309	N	0.661649	-0.516097	-0.434918
N310	N	0.911649	-0.266097	-0.184918
N311	N	1.161649	-0.016097	0.065082
N312	N	1.411649	0.233903	0.315082
C313	C	0.688746	-0.541204	-0.377293
C314	C	0.938746	-0.291204	-0.127293
C315	C	1.188746	-0.041204	0.122707
C316	C	1.438746	0.208796	0.372707
C317	C	0.634696	-0.964854	-0.492633
C318	C	0.884696	-0.714854	-0.242633
C319	C	1.134696	-0.464854	0.007367
C320	C	1.384696	-0.214854	0.257367
C321	C	0.634708	-1.011771	-0.492640
C322	C	0.884708	-0.761771	-0.242640
C323	C	1.134708	-0.511771	0.007360
C324	C	1.384708	-0.261771	0.257360
C325	C	0.688890	-1.015068	-0.377377
C326	C	0.938890	-0.765068	-0.127377
C327	C	1.188890	-0.515068	0.122623
C328	C	1.438890	-0.265068	0.372623
C329	C	0.688875	-0.968150	-0.377366
C330	C	0.938875	-0.718150	-0.127366
C331	C	1.188875	-0.468150	0.122634
C332	C	1.438875	-0.218150	0.372634
C333	C	0.661779	-0.943043	-0.435001
C334	C	0.911779	-0.693043	-0.185001
C335	C	1.161779	-0.443043	0.064999
C336	C	1.411779	-0.193043	0.314999
C337	C	0.688709	-0.442679	-0.377272
C338	C	0.938709	-0.192679	-0.127272
C339	C	1.188709	0.057321	0.122728
C340	C	1.438709	0.307321	0.372728
C341	C	0.688689	-0.395759	-0.377263
C342	C	0.938689	-0.145759	-0.127263
C343	C	1.188689	0.104241	0.122737
C344	C	1.438689	0.354241	0.372737
C345	C	0.634509	-0.392466	-0.492529
C346	C	0.884509	-0.142466	-0.242529
C347	C	1.134509	0.107534	0.007471
C348	C	1.384509	0.357534	0.257471
C349	C	0.634527	-0.439382	-0.492535
C350	C	0.884527	-0.189382	-0.242535
C351	C	1.134527	0.060618	0.007465
C352	C	1.384527	0.310618	0.257465
C353	C	0.661631	-0.464487	-0.434904
C354	C	0.911631	-0.214487	-0.184904
C355	C	1.161631	0.035513	0.065096
C356	C	1.411631	0.285513	0.315096
O357	O	0.611522	-0.512205	-0.541511
O358	O	0.861522	-0.262205	-0.291511
O359	O	1.111522	-0.012205	-0.041511
O360	O	1.361522	0.237795	0.208489
O361	O	0.711781	-0.518338	-0.328287
O362	O	0.961781	-0.268338	-0.078287
O363	O	1.211781	-0.018338	0.171713
O364	O	1.461781	0.231662	0.421713
C365	C	0.688807	-0.728867	-0.377335
C366	C	0.938807	-0.478867	-0.127335
C367	C	1.188807	-0.228867	0.122665
C368	C	1.438807	0.021133	0.372665
C369	C	0.661727	-0.750675	-0.434972
C370	C	0.911727	-0.500675	-0.184972
C371	C	1.161727	-0.250675	0.065028
C372	C	1.411727	-0.000675	0.315028
C373	C	0.634630	-0.725567	-0.492597
C374	C	0.884630	-0.475567	-0.242597
C375	C	1.134630	-0.225567	0.007403
C376	C	1.384630	0.024433	0.257403
C377	C	0.661740	-0.797592	-0.434978
C378	C	0.911740	-0.547592	-0.184978
C379	C	1.161740	-0.297592	0.065022
C380	C	1.411740	-0.047592	0.315022
C381	C	0.688836	-0.822700	-0.377353
C382	C	0.938836	-0.572700	-0.127353
C383	C	1.188836	-0.322700	0.122647
C384	C	1.438836	-0.072700	0.372647
C385	C	0.715920	-0.800889	-0.319721
C386	C	0.965920	-0.550889	-0.069721
C387	C	1.215920	-0.300889	0.180279
C388	C	1.465920	-0.050889	0.430279
C389	C	0.715904	-0.753974	-0.319709
C390	C	0.965904	-0.503974	-0.069709
C391	C	1.215904	-0.253974	0.180291
C392	C	1.465904	-0.003974	0.430291
C393	C	0.607547	-0.747378	-0.550229
C394	C	0.857547	-0.497378	-0.300229
C395	C	1.107547	-0.247378	-0.050229
C396	C	1.357547	0.002622	0.199771
C397	C	0.607565	-0.794293	-0.550235
C398	C	0.857565	-0.544293	-0.300235
C399	C	1.107565	-0.294293	-0.050235
C400	C	1.357565	-0.044293	0.199765
C401	C	0.634661	-0.819400	-0.492610
C402	C	0.884661	-0.569400	-0.242610
C403	C	1.134661	-0.319400	0.007390
C404	C	1.384661	-0.069400	0.257390
C405	C	0.778849	-0.204016	-0.434998
C406	C	1.028849	0.045984	-0.184998
C407	C	1.278849	0.295984	0.065002
C408	C	1.528849	0.545984	0.315002
C409	C	0.828784	-0.204025	-0.435030
C410	C	1.078784	0.045975	-0.185030
C411	C	1.328784	0.295975	0.064970
C412	C	1.578784	0.545975	0.314970
C413	C	0.668464	-0.197196	-0.670237
C414	C	0.918464	0.052804	-0.420237
C415	C	1.168464	0.302804	-0.170237
C416	C	1.418464	0.552804	0.079763
C417	C	0.671360	-0.194299	-0.770514
C418	C	0.921360	0.055701	-0.520514
C419	C	1.171360	0.305701	-0.270514
C420	C	1.421360	0.555701	-0.020514
C421	C	0.661764	-0.086814	-0.434987
C422	C	0.911764	0.163186	-0.184987
C423	C	1.161764	0.413186	0.065013
C424	C	1.411764	0.663186	0.315013
C425	C	0.661805	-0.036879	-0.435014
C426	C	0.911805	0.213121	-0.185014
C427	C	1.161805	0.463121	0.064986
C428	C	1.411805	0.713121	0.314986
C429	C	0.704193	-0.161493	-0.911885
C430	C	0.954193	0.088507	-0.661885
C431	C	1.204193	0.338507	-0.411885
C432	C	1.454193	0.588507	-0.161885
C433	C	0.701474	-0.164213	-0.817666
C434	C	0.951474	0.085787	-0.567666
C435	C	1.201474	0.335787	-0.317666
C436	C	1.451474	0.585787	-0.067666
C437	C	0.643963	-0.221667	-0.817587
C438	C	0.893963	0.028333	-0.567587
C439	C	1.143963	0.278333	-0.317587
C440	C	1.393963	0.528333	-0.067587
C441	C	0.646682	-0.218947	-0.911806
C442	C	0.896682	0.031053	-0.661806
C443	C	1.146682	0.281053	-0.411806
C444	C	1.396682	0.531053	-0.161806
C445	C	0.676797	-0.188858	-0.958952
C446	C	0.926797	0.061142	-0.708952
C447	C	1.176797	0.311142	-0.458952
C448	C	1.426797	0.561142	-0.208952
C449	C	0.679513	-0.186136	-1.053173
C450	C	0.929513	0.063864	-0.803173
C451	C	1.179513	0.313864	-0.553173
C452	C	1.429513	0.563864	-0.303173
C453	C	0.622005	-0.243591	-1.053093
C454	C	0.872005	0.006409	-0.803093
C455	C	1.122005	0.256409	-0.553093
C456	C	1.372005	0.506409	-0.303093
C457	C	0.619286	-0.246312	-0.958873
C458	C	0.869286	0.003688	-0.708873
C459	C	1.119286	0.253688	-0.458873
C460	C	1.369286	0.503688	-0.208873
C461	C	0.654925	-0.210733	-0.200523
C462	C	0.904925	0.039267	0.049477
C463	C	1.154925	0.289267	0.299477
C464	C	1.404925	0.539267	0.549477
C465	C	0.652116	-0.213504	-0.100247
C466	C	0.902116	0.036496	0.149753
C467	C	1.152116	0.286496	0.399753
C468	C	1.402116	0.536496	0.649753
H469	H	0.487642	-0.154788	-0.330348
H470	H	0.737642	0.095212	-0.080348
H471	H	0.987642	0.345212	0.169652
H472	H	1.237642	0.595212	0.419652
Br473	Br	0.738658	-0.127075	-0.753791
Br474	Br	0.988658	0.122925	-0.503791
Br475	Br	1.238658	0.372925	-0.253791
Br476	Br	1.488658	0.622925	-0.003791
H477	H	0.408555	-0.253165	-0.539365
H478	H	0.658555	-0.003165	-0.289365
H479	H	0.908555	0.246835	-0.039365
H480	H	1.158555	0.496835	0.210635
H481	H	0.053634	-0.280285	-0.597082
H482	H	0.303634	-0.030285	-0.347082
H483	H	0.553634	0.219715	-0.097082
H484	H	0.803634	0.469715	0.152918
H485	H	0.704033	-0.161634	-1.091558
H486	H	0.954033	0.088366	-0.841558
H487	H	1.204033	0.338366	-0.591558
H488	H	1.454033	0.588366	-0.341558
Br489	Br	0.752691	-0.834973	-0.241512
Br490	Br	1.002691	-0.584973	0.008488
Br491	Br	1.252691	-0.334973	0.258488
Br492	Br	1.502691	-0.084973	0.508488
Br493	Br	0.281988	-0.112969	-0.241560
Br494	Br	0.531988	0.137031	0.008440
Br495	Br	0.781988	0.387031	0.258440
Br496	Br	1.031988	0.637031	0.508440
Br497	Br	0.745048	-0.120646	-0.975873
Br498	Br	0.995048	0.129354	-0.725873
Br499	Br	1.245048	0.379354	-0.475873
Br500	Br	1.495048	0.629354	-0.225873
H501	H	0.710743	-0.378005	-0.330320
H502	H	0.960743	-0.128005	-0.080320
H503	H	1.210743	0.121995	0.169680
H504	H	1.460743	0.371995	0.419680
Br505	Br	0.603098	-0.262500	-0.753589
Br506	Br	0.853098	-0.012500	-0.503589
Br507	Br	1.103098	0.237500	-0.253589
Br508	Br	1.353098	0.487500	-0.003589
Br509	Br	-0.175680	-0.267934	-0.570773
Br510	Br	0.074320	-0.017934	-0.320773
Br511	Br	0.324320	0.232066	-0.070773
Br512	Br	0.574320	0.482066	0.179227
Br513	Br	0.597946	-1.041362	-0.570859
Br514	Br	0.847946	-0.791362	-0.320859
Br515	Br	1.097946	-0.541362	-0.070859
Br516	Br	1.347946	-0.291362	0.179141
H517	H	0.612630	-0.944415	-0.539567
H518	H	0.862630	-0.694415	-0.289567
H519	H	1.112630	-0.444415	-0.039567
H520	H	1.362630	-0.194415	0.210433
Br521	Br	0.578418	-0.287145	-0.894882
Br522	Br	0.828418	-0.037145	-0.644882
Br523	Br	1.078418	0.212855	-0.394882
Br524	Br	1.328418	0.462855	-0.144882
H525	H	0.599692	-0.265870	-1.091424
H526	H	0.849692	-0.015870	-0.841424
H527	H	1.099692	0.234130	-0.591424
H528	H	1.349692	0.484130	-0.341424
H529	H	-0.169870	-0.154838	-0.330529
H530	H	0.080130	0.095162	-0.080529
H531	H	0.330130	0.345162	0.169471
H532	H	0.580130	0.595162	0.419471
H533	H	-0.084762	-0.154820	-0.330514
H534	H	0.165238	0.095180	-0.080514
H535	H	0.415238	0.345180	0.169486
H536	H	0.665238	0.595180	0.419486
Br537	Br	0.725493	-0.476742	-0.299058
Br538	Br	0.975493	-0.226742	-0.049058
Br539	Br	1.225493	0.023258	0.200942
Br540	Br	1.475493	0.273258	0.450942
Br541	Br	0.570766	-0.683126	-0.628470
Br542	Br	0.820766	-0.433126	-0.378470
Br543	Br	1.070766	-0.183126	-0.128470
Br544	Br	1.320766	0.066874	0.121530
Br545	Br	0.725662	-1.049151	-0.299168
Br546	Br	0.975662	-0.799151	-0.049168
Br547	Br	1.225662	-0.549151	0.200832
Br548	Br	1.475662	-0.299151	0.450832
Br549	Br	0.182560	-0.295001	-0.628292
Br550	Br	0.432560	-0.045001	-0.378292
Br551	Br	0.682560	0.204999	-0.128292
Br552	Br	0.932560	0.454999	0.121708
H553	H	0.185035	-0.127690	-0.272846
H554	H	0.435035	0.122310	-0.022846
H555	H	0.685035	0.372310	0.227154
H556	H	0.935035	0.622310	0.477154
H557	H	0.493661	-0.253164	-0.539325
H558	H	0.743661	-0.003164	-0.289325
H559	H	0.993661	0.246836	-0.039325
H560	H	1.243661	0.496836	0.210675
Br561	Br	0.597739	-0.358383	-0.570735
Br562	Br	0.847739	-0.108383	-0.320735
Br563	Br	1.097739	0.141617	-0.070735
Br564	Br	1.347739	0.391617	0.179265
Br565	Br	0.141224	-0.112974	-0.241588
Br566	Br	0.391224	0.137026	0.008412
Br567	Br	0.641224	0.387026	0.258412
Br568	Br	0.891224	0.637026	0.508412
Br569	Br	0.030655	-0.112983	-0.241618
Br570	Br	0.280655	0.137017	0.008382
Br571	Br	0.530655	0.387017	0.258382
Br572	Br	0.780655	0.637017	0.508382
Br573	Br	0.752618	-0.583640	-0.241454
Br574	Br	1.002618	-0.333640	0.008546
Br575	Br	1.252618	-0.083640	0.258546
Br576	Br	1.502618	0.166360	0.508546
H577	H	0.402520	-0.154791	-0.330365
H578	H	0.652520	0.095209	-0.080365
H579	H	0.902520	0.345209	0.169635
H580	H	1.152520	0.595209	0.419635
Br581	Br	-0.065084	-0.267924	-0.570756
Br582	Br	0.184916	-0.017924	-0.320756
Br583	Br	0.434916	0.232076	-0.070756
Br584	Br	0.684916	0.482076	0.179244
Br585	Br	0.570734	-0.572551	-0.628442
Br586	Br	0.820734	-0.322551	-0.378442
Br587	Br	1.070734	-0.072551	-0.128442
Br588	Br	1.320734	0.177449	0.121558
H589	H	0.612476	-0.457138	-0.539475
H590	H	0.862476	-0.207138	-0.289475
H591	H	1.112476	0.042862	-0.039475
H592	H	1.362476	0.292862	0.210525
H593	H	0.737956	-0.736222	-0.272772
H594	H	0.987956	-0.486222	-0.022772
H595	H	1.237956	-0.236222	0.227228
H596	H	1.487956	0.013778	0.477228
H597	H	0.279495	-0.280276	-0.596995
H598	H	0.529495	-0.030276	-0.346995
H599	H	0.779495	0.219724	-0.096995
H600	H	1.029495	0.469724	0.153005
Br601	Br	0.725630	-0.938559	-0.299134
Br602	Br	0.975630	-0.688559	-0.049134
Br603	Br	1.225630	-0.438559	0.200866
Br604	Br	1.475630	-0.188559	0.450866
Br605	Br	0.752651	-0.694209	-0.241471
Br606	Br	1.002651	-0.444209	0.008529
Br607	Br	1.252651	-0.194209	0.258529
Br608	Br	1.502651	0.055791	0.508529
Br609	Br	0.570805	-0.823883	-0.628470
Br610	Br	0.820805	-0.573883	-0.378470
Br611	Br	1.070805	-0.323883	-0.128470
Br612	Br	1.320805	-0.073883	0.121530
H613	H	0.138742	-0.280285	-0.597054
H614	H	0.388742	-0.030285	-0.347054
H615	H	0.638742	0.219715	-0.097054
H616	H	0.888742	0.469715	0.152946
H617	H	0.585482	-0.726939	-0.597156
H618	H	0.835482	-0.476939	-0.347156
H619	H	1.085482	-0.226939	-0.097156
H620	H	1.335482	0.023061	0.152844
