data_functionalizedCrystal
_audit_creation_method	'MofGen! by Chris Wilmer'
_symmetry_space_group_name_H-M	'P1'
_symmetry_Int_Tables_number	1
_symmetry_cell_setting	triclinic
loop_
_symmetry_equiv_pos_as_xyz
  x,y,z
_cell_length_a	19.077236
_cell_length_b	29.839125
_cell_length_c	19.077432
_cell_angle_alpha	92.312718
_cell_angle_beta	90.072528
_cell_angle_gamma	87.685594
loop_
_atom_site_label
_atom_site_type_symbol
_atom_site_fract_x
_atom_site_fract_y
_atom_site_fract_z
Zn1	Zn	1.085461	-0.275833	0.236788
Zn2	Zn	1.585461	0.224167	0.736788
Zn3	Zn	1.090106	-0.197815	0.354273
Zn4	Zn	1.590106	0.302185	0.854273
Zn5	Zn	0.967965	-0.197576	0.241492
Zn6	Zn	1.467965	0.302424	0.741492
Zn7	Zn	0.972634	-0.269778	0.358968
Zn8	Zn	1.472634	0.230222	0.858968
O9	O	1.029041	-0.235250	0.297880
O10	O	1.529041	0.264750	0.797880
O11	O	1.184412	-0.268117	0.248439
O12	O	1.684412	0.231883	0.748439
O13	O	1.073893	-0.134915	0.339316
O14	O	1.573893	0.365085	0.839316
O15	O	0.979653	-0.210391	0.142536
O16	O	1.479653	0.289609	0.642536
O17	O	1.187825	-0.210798	0.334755
O18	O	1.687825	0.289202	0.834755
O19	O	1.065977	-0.267886	0.139079
O20	O	1.565977	0.232114	0.639079
O21	O	0.984157	-0.134740	0.256456
O22	O	1.484157	0.365260	0.756456
O23	O	0.870249	-0.204520	0.261009
O24	O	1.370249	0.295480	0.761009
O25	O	0.987611	-0.333448	0.342757
O26	O	1.487611	0.166552	0.842757
O27	O	0.873680	-0.257566	0.347319
O28	O	1.373680	0.242434	0.847319
O29	O	1.070504	-0.337897	0.252991
O30	O	1.570504	0.162103	0.752991
O31	O	1.078421	-0.204927	0.453228
O32	O	1.578421	0.295073	0.953228
O33	O	0.992115	-0.257798	0.456678
O34	O	1.492115	0.242202	0.956678
C35	C	0.846467	-0.230360	0.305184
C36	C	1.346467	0.269640	0.805184
C37	C	0.768362	-0.228279	0.308326
C38	C	1.268362	0.271721	0.808326
C39	C	0.729895	-0.257186	0.264933
C40	C	1.229895	0.242814	0.764933
C41	C	0.656506	-0.255226	0.267882
C42	C	1.156506	0.244774	0.767882
C43	C	0.621587	-0.224361	0.314227
C44	C	1.121587	0.275639	0.814227
C45	C	0.660059	-0.195451	0.357622
C46	C	1.160059	0.304549	0.857622
C47	C	0.733446	-0.197409	0.354669
C48	C	1.233446	0.302591	0.854669
C49	C	0.402294	-0.215299	0.327866
C50	C	0.902294	0.284701	0.827866
C51	C	0.328902	-0.213344	0.330816
C52	C	0.828902	0.286656	0.830816
C53	C	0.325354	-0.273119	0.241075
C54	C	0.825354	0.226881	0.741075
C55	C	0.398742	-0.275076	0.238130
C56	C	0.898742	0.224924	0.738130
C57	C	0.437208	-0.246164	0.281522
C58	C	0.937208	0.253836	0.781522
N59	N	0.546572	-0.222358	0.317244
N60	N	1.046572	0.277642	0.817244
N61	N	0.512221	-0.248166	0.278501
N62	N	1.012221	0.251834	0.778501
C63	C	1.029060	-0.352429	0.297873
C64	C	1.529060	0.147571	0.797873
C65	C	1.029068	-0.402364	0.297870
C66	C	1.529068	0.097636	0.797870
C67	C	1.072273	-0.714331	0.251010
C68	C	1.572273	-0.214331	0.751010
C69	C	1.072306	-0.902007	0.250948
C70	C	1.572306	-0.402007	0.750948
O71	O	1.108991	-0.928244	0.211174
O72	O	1.608991	-0.428244	0.711174
N73	N	1.029154	-0.923156	0.297678
N74	N	1.529154	-0.423156	0.797678
C75	C	0.985987	-0.897384	0.344424
C76	C	1.485987	-0.397384	0.844424
O77	O	0.949279	-0.919680	0.384164
O78	O	1.449279	-0.419680	0.884164
C79	C	0.985951	-0.709710	0.344481
C80	C	1.485951	-0.209710	0.844481
C81	C	1.029112	-0.688562	0.297753
C82	C	1.529112	-0.188562	0.797753
C83	C	1.115429	-0.693184	0.204285
C84	C	1.615429	-0.193184	0.704285
C85	C	1.115424	-0.646267	0.204303
C86	C	1.615424	-0.146267	0.704303
C87	C	1.072262	-0.620499	0.251046
C88	C	1.572262	-0.120499	0.751046
C89	C	1.029106	-0.641646	0.297771
C90	C	1.529106	-0.141646	0.797771
C91	C	0.942782	-0.683939	0.391223
C92	C	1.442782	-0.183939	0.891223
C93	C	0.942775	-0.637017	0.391232
C94	C	1.442775	-0.137017	0.891232
C95	C	0.985935	-0.615870	0.344503
C96	C	1.485935	-0.115870	0.844503
C97	C	0.985938	-0.568962	0.344533
C98	C	1.485938	-0.068962	0.844533
N99	N	1.029090	-0.547812	0.297803
N100	N	1.529090	-0.047812	0.797803
C101	C	1.072252	-0.573580	0.251060
C102	C	1.572252	-0.073580	0.751060
C103	C	0.986010	-0.995916	0.344391
C104	C	1.486010	-0.495916	0.844391
C105	C	0.986020	-1.042835	0.344378
C106	C	1.486020	-0.542835	0.844378
C107	C	1.072337	-1.047454	0.250901
C108	C	1.572337	-0.547454	0.750901
C109	C	1.072331	-1.000535	0.250919
C110	C	1.572331	-0.500535	0.750919
C111	C	1.029162	-0.974767	0.297661
C112	C	1.529162	-0.474767	0.797661
C113	C	1.072237	-0.475053	0.251102
C114	C	1.572237	0.024947	0.751102
C115	C	1.072230	-0.428133	0.251127
C116	C	1.572230	0.071867	0.751127
C117	C	0.985910	-0.423518	0.344600
C118	C	1.485910	0.076482	0.844600
C119	C	0.985919	-0.470434	0.344579
C120	C	1.485919	0.029566	0.844579
C121	C	1.029085	-0.496201	0.297824
C122	C	1.529085	0.003799	0.797824
O123	O	0.949267	-0.542696	0.384281
O124	O	1.449267	-0.042696	0.884281
O125	O	1.108943	-0.551276	0.211315
O126	O	1.608943	-0.051276	0.711315
C127	C	1.072279	-0.761247	0.250991
C128	C	1.572279	-0.261247	0.750991
C129	C	1.029123	-0.782395	0.297716
C130	C	1.529123	-0.282395	0.797716
C131	C	0.985961	-0.756626	0.344459
C132	C	1.485961	-0.256626	0.844459
C133	C	1.029133	-0.829313	0.297703
C134	C	1.529133	-0.329313	0.797703
C135	C	1.072294	-0.855082	0.250959
C136	C	1.572294	-0.355082	0.750959
C137	C	1.115446	-0.833932	0.204230
C138	C	1.615446	-0.333932	0.704230
C139	C	1.115441	-0.787016	0.204248
C140	C	1.615441	-0.287016	0.704248
C141	C	0.942809	-0.777776	0.391189
C142	C	1.442809	-0.277776	0.891189
C143	C	0.942819	-0.824692	0.391168
C144	C	1.442819	-0.324692	0.891168
C145	C	0.985981	-0.850461	0.344424
C146	C	1.485981	-0.350461	0.844424
C147	C	1.212328	-0.240159	0.290548
C148	C	1.712328	0.259841	0.790548
C149	C	1.290434	-0.242251	0.287424
C150	C	1.790434	0.257749	0.787424
C151	C	1.036298	-0.230741	0.480449
C152	C	1.536298	0.269259	0.980449
C153	C	1.039466	-0.228829	0.558550
C154	C	1.539466	0.271171	1.058550
C155	C	1.029061	-0.118529	0.297835
C156	C	1.529061	0.381471	0.797835
C157	C	1.029181	-0.068603	0.297635
C158	C	1.529181	0.431397	0.797635
C159	C	1.021776	-0.239787	0.114598
C160	C	1.521776	0.260213	0.614598
C161	C	1.018680	-0.241721	0.036494
C162	C	1.518680	0.258279	0.536494
C163	C	0.995989	-0.255433	0.597065
C164	C	1.495989	0.244567	1.097065
C165	C	0.998969	-0.253635	0.670449
C166	C	1.498969	0.246365	1.170449
C167	C	1.045431	-0.225234	0.705316
C168	C	1.545431	0.274766	1.205316
C169	C	1.088909	-0.198627	0.666796
C170	C	1.588909	0.301373	1.166796
C171	C	1.085925	-0.200423	0.593414
C172	C	1.585925	0.299577	1.093414
C173	C	1.059175	-0.216910	0.924591
C174	C	1.559175	0.283090	1.424591
C175	C	1.062157	-0.215117	0.997979
C176	C	1.562157	0.284883	1.497979
C177	C	0.972215	-0.270124	1.001627
C178	C	1.472215	0.229876	1.501627
C179	C	0.969238	-0.271920	0.928242
C180	C	1.469238	0.228080	1.428242
C181	C	1.012714	-0.245311	0.889729
C182	C	1.512714	0.254689	1.389729
N183	N	1.048479	-0.223396	0.780327
N184	N	1.548479	0.276604	1.280327
N185	N	1.009661	-0.247147	0.814720
N186	N	1.509661	0.252853	1.314720
H187	H	0.764765	-0.173869	0.390004
H188	H	1.264765	0.326131	0.890004
H189	H	0.907674	-0.841906	0.429226
H190	H	1.407674	-0.341906	0.929226
H191	H	0.907662	-0.756800	0.429255
H192	H	1.407662	-0.256800	0.929255
C193	C	0.951140	-0.282901	0.712812
C194	C	1.451140	0.217099	1.212812
N195	N	0.915112	-0.304946	0.744720
N196	N	1.415112	0.195054	1.244720
C197	C	1.119804	-0.977277	0.199510
C198	C	1.619804	-0.477277	0.699510
N199	N	1.155561	-0.959762	0.160784
N200	N	1.655561	-0.459762	0.660784
H201	H	0.950882	-1.060049	0.382436
H202	H	1.450882	-0.560049	0.882436
H203	H	0.433604	-0.191757	0.363199
H204	H	0.933604	0.308243	0.863199
C205	C	0.918171	-0.303192	0.889892
C206	C	1.418171	0.196808	1.389892
N207	N	0.879725	-0.326759	0.861005
N208	N	1.379725	0.173241	1.361005
H209	H	1.121328	-0.178759	0.562055
H210	H	1.621328	0.321241	1.062055
H211	H	0.958158	-0.278562	0.568680
H212	H	1.458158	0.221438	1.068680
C213	C	1.140013	-0.167383	0.705154
C214	C	1.640013	0.332617	1.205154
N215	N	1.178506	-0.143849	0.734044
N216	N	1.678506	0.356151	1.234044
H217	H	0.936819	-0.291787	1.032992
H218	H	1.436819	0.208213	1.532992
C219	C	0.283035	-0.304913	0.193335
C220	C	0.783035	0.195087	0.693335
N221	N	0.251160	-0.328858	0.157371
N222	N	0.751160	0.171142	0.657371
H223	H	0.427169	-0.300212	0.200393
H224	H	0.927169	0.199788	0.700393
C225	C	0.290492	-0.179389	0.381802
C226	C	0.790492	0.320611	0.881802
N227	N	0.261561	-0.153815	0.420204
N228	N	0.761561	0.346185	0.920204
H229	H	0.625189	-0.278767	0.232548
H230	H	1.125189	0.221233	0.732548
C231	C	1.162917	-0.721522	0.152861
C232	C	1.662917	-0.221522	0.652861
N233	N	1.198693	-0.742864	0.114130
N234	N	1.698693	-0.242864	0.614130
C235	C	1.113268	-0.183871	1.036332
C236	C	1.613268	0.316129	1.536332
N237	N	1.151764	-0.160338	1.065220
N238	N	1.651764	0.339662	1.565220
H239	H	0.631622	-0.170318	0.395354
H240	H	1.131622	0.329682	0.895354
H241	H	1.107378	-0.410917	0.213074
H242	H	1.607378	0.089083	0.713074
C243	C	1.119726	-0.503390	0.199673
C244	C	1.619726	-0.003390	0.699673
N245	N	1.155499	-0.524733	0.160941
N246	N	1.655499	-0.024733	0.660941
H247	H	0.950782	-0.487653	0.382635
H248	H	1.450782	0.012347	0.882635
H249	H	1.094576	-0.195245	0.893239
H250	H	1.594576	0.304755	1.393239
H251	H	0.758321	-0.282321	0.227195
H252	H	1.258321	0.217679	0.727195
H253	H	1.150568	-0.629054	0.166251
H254	H	1.650568	-0.129054	0.666251
H255	H	1.107482	-1.068443	0.212842
H256	H	1.607482	-0.568443	0.712842
H257	H	0.907636	-0.701148	0.429274
H258	H	1.407636	-0.201148	0.929274
H259	H	0.907613	-0.616039	0.429289
H260	H	1.407613	-0.116039	0.929289
C261	C	0.938518	-0.967577	0.395816
C262	C	1.438518	-0.467577	0.895816
N263	N	0.902748	-0.946234	0.434551
N264	N	1.402748	-0.446234	0.934551
C265	C	0.938430	-0.395163	0.396012
C266	C	1.438430	0.104837	0.896012
N267	N	0.902663	-0.373806	0.434731
N268	N	1.402663	0.126194	0.934731
H269	H	1.150586	-0.769802	0.166197
H270	H	1.650586	-0.269802	0.666197
H271	H	1.150593	-0.854921	0.166172
H272	H	1.650593	-0.354921	0.666172
