data_functionalizedCrystal
_audit_creation_method	'MofGen! by Chris Wilmer'
_symmetry_space_group_name_H-M	'P1'
_symmetry_Int_Tables_number	1
_symmetry_cell_setting	triclinic
loop_
_symmetry_equiv_pos_as_xyz
  x,y,z
_cell_length_a	19.805405
_cell_length_b	18.050591
_cell_length_c	19.805398
_cell_angle_alpha	90.024004
_cell_angle_beta	89.972363
_cell_angle_gamma	89.980508
loop_
_atom_site_label
_atom_site_type_symbol
_atom_site_fract_x
_atom_site_fract_y
_atom_site_fract_z
Zn1	Zn	-0.269615	-1.135302	-0.382858
Zn2	Zn	-0.382800	-1.135217	-0.269667
Zn3	Zn	-0.269617	-1.011121	-0.269667
Zn4	Zn	-0.382754	-1.011073	-0.382797
O5	O	-0.326196	-1.073178	-0.326247
O6	O	-0.284648	-1.239215	-0.367869
O7	O	-0.367806	-1.118739	-0.174950
O8	O	-0.174900	-1.027650	-0.284708
O9	O	-0.367804	-1.239152	-0.284707
O10	O	-0.174898	-1.118885	-0.367869
O11	O	-0.284651	-1.027567	-0.174950
O12	O	-0.284606	-0.907190	-0.284649
O13	O	-0.367725	-1.027568	-0.477522
O14	O	-0.367727	-0.907155	-0.367765
O15	O	-0.284603	-1.118838	-0.477567
O16	O	-0.477510	-1.118693	-0.284648
O17	O	-0.477476	-1.027485	-0.367765
C18	C	-0.502052	-1.073095	-0.326215
C19	C	-0.577284	-1.073127	-0.326223
C20	C	-0.326162	-0.880226	-0.326201
C21	C	-0.326164	-0.797680	-0.326197
C22	C	-0.612624	-1.120665	-0.282990
C23	C	-0.683312	-1.120696	-0.283005
C24	C	-0.718660	-1.073186	-0.326250
C25	C	-0.683315	-1.025646	-0.369489
C26	C	-0.612628	-1.025618	-0.369477
C27	C	-0.968389	-1.025755	-0.369539
C28	C	-1.039081	-1.025784	-0.369546
C29	C	-1.039072	-1.120833	-0.283067
C30	C	-0.968385	-1.120806	-0.283055
C31	C	-0.933047	-1.073269	-0.326295
C32	C	-0.856399	-1.073236	-0.326280
C33	C	-0.795307	-1.073214	-0.326263
C34	C	-0.280901	-0.598227	-0.281092
C35	C	-0.342633	-0.548810	-0.264430
C36	C	-0.326177	-0.646550	-0.326220
C37	C	-0.264459	-0.548886	-0.342873
C38	C	-0.326185	-0.500565	-0.326241
C39	C	-0.387942	-0.598220	-0.309526
C40	C	-0.309727	-0.598300	-0.387997
C41	C	-0.371502	-0.548905	-0.371358
C42	C	-0.326172	-0.730648	-0.326206
C43	C	-0.326197	-0.416468	-0.326255
C44	C	-0.149653	-1.073282	-0.326295
C45	C	-0.074421	-1.073327	-0.326315
C46	C	-0.326159	-1.073207	-0.502790
C47	C	-0.326143	-1.073220	-0.578022
C48	C	-0.326219	-0.266884	-0.326283
C49	C	-0.326199	-0.349430	-0.326266
C50	C	-0.282741	-1.120834	-1.039838
C51	C	-0.282762	-1.120822	-0.969149
C52	C	-0.326049	-1.073296	-0.933784
C53	C	-0.369322	-1.025783	-0.969111
C54	C	-0.369305	-1.025799	-1.039798
C55	C	-0.369396	-1.025719	-0.684038
C56	C	-0.369409	-1.025705	-0.613345
C57	C	-0.282853	-1.120742	-0.613389
C58	C	-0.282835	-1.120758	-0.684076
C59	C	-0.326111	-1.073248	-0.719397
C60	C	-0.326089	-1.073262	-0.796045
C61	C	-0.326068	-1.073277	-0.857137
C62	C	-0.326185	-1.073192	-0.150391
C63	C	-0.326010	-1.073323	-0.075160
H64	H	-0.583848	-1.159350	-0.247771
H65	H	-0.404658	-0.986999	-0.584553
H66	H	-0.583856	-0.986909	-0.404682
C67	C	-0.483998	-0.989481	-0.705733
C68	C	-0.416965	-0.973490	-0.722847
H69	H	-0.513367	-0.957231	-0.729690
H70	H	-0.493907	-1.039368	-0.717334
H71	H	-0.490184	-0.982676	-0.658570
H72	H	-0.410778	-0.980301	-0.770010
H73	H	-0.407054	-0.923592	-0.711251
C74	C	-0.501820	-0.567436	-0.278728
C75	C	-0.458428	-0.627344	-0.290438
H76	H	-0.545334	-0.585419	-0.266947
H77	H	-0.484571	-0.538098	-0.242849
H78	H	-0.504992	-0.538170	-0.318453
H79	H	-0.455253	-0.656608	-0.250711
H80	H	-0.475682	-0.656695	-0.326320
C81	C	-0.455432	-0.579791	-0.454149
C82	C	-0.423252	-0.519846	-0.422887
H83	H	-0.487385	-0.561849	-0.485955
H84	H	-0.422817	-0.609440	-0.476684
H85	H	-0.477929	-0.608732	-0.421009
H86	H	-0.400751	-0.490908	-0.456027
H87	H	-0.455873	-0.490185	-0.400352
H88	H	-0.404570	-0.987090	-0.940311
C89	C	-1.147444	-0.983623	-0.407962
C90	C	-1.077938	-0.973561	-0.417089
H91	H	-1.171432	-0.951381	-0.437308
H92	H	-1.158986	-1.033514	-0.417914
H93	H	-1.159055	-0.972785	-0.362474
H94	H	-1.066326	-0.984405	-0.462576
H95	H	-1.066391	-0.923659	-0.407141
C96	C	-0.888829	-1.220671	-0.273739
C97	C	-0.929529	-1.173030	-0.235519
H98	H	-0.864839	-1.252910	-0.244391
H99	H	-0.916369	-1.249067	-0.303254
H100	H	-0.857669	-1.192345	-0.299483
H101	H	-0.960693	-1.201356	-0.209779
H102	H	-0.901987	-1.144632	-0.205993
H103	H	-0.712082	-1.159406	-0.247799
C104	C	-0.226219	-0.602819	-0.475819
C105	C	-0.290908	-0.627677	-0.458490
H106	H	-0.214596	-0.620962	-0.519336
H107	H	-0.225681	-0.550205	-0.476242
H108	H	-0.194508	-0.620446	-0.443635
H109	H	-0.322621	-0.610046	-0.490671
H110	H	-0.291452	-0.680302	-0.458072
H111	H	-0.247530	-1.159512	-0.940393
H112	H	-0.212269	-0.527176	-0.356926
C113	C	-0.197285	-1.214684	-0.620533
C114	C	-0.235286	-1.172972	-0.574563
H115	H	-0.167916	-1.246922	-0.596564
H116	H	-0.226771	-1.243079	-0.648101
H117	H	-0.171386	-1.182337	-0.648104
H118	H	-0.261188	-1.205319	-0.546996
H119	H	-0.205795	-1.144574	-0.546983
H120	H	-0.247584	-1.159456	-0.712867
H121	H	-0.247487	-1.159530	-1.068627
H122	H	-1.067853	-1.159543	-0.247861
C123	C	-0.483903	-0.989560	-1.061523
C124	C	-0.416867	-0.973573	-1.078625
H125	H	-0.513267	-0.957315	-1.085491
H126	H	-0.493809	-1.039449	-1.073118
H127	H	-0.490099	-0.982747	-1.014362
H128	H	-0.410670	-0.980391	-1.125786
H129	H	-0.406958	-0.923672	-1.067035
C130	C	-0.975507	-0.931787	-0.455005
C131	C	-0.929551	-0.973489	-0.417055
H132	H	-0.951527	-0.899512	-0.484335
H133	H	-1.003035	-0.964133	-0.480937
H134	H	-1.003119	-0.903423	-0.425479
H135	H	-0.901942	-1.001856	-0.446581
H136	H	-0.902011	-0.941138	-0.391121
H137	H	-0.242656	-0.619884	-0.242891
C138	C	-0.791676	-0.983475	-0.407902
C139	C	-0.722168	-0.973418	-0.417024
H140	H	-0.815659	-0.951226	-0.437245
H141	H	-0.803221	-1.033364	-0.417861
H142	H	-0.803288	-0.972644	-0.362413
H143	H	-0.710555	-0.984255	-0.462511
H144	H	-0.710619	-0.923518	-0.407069
H145	H	-0.356555	-0.527072	-0.212195
