data_functionalizedCrystal
_audit_creation_method	'MofGen! by Chris Wilmer'
_symmetry_space_group_name_H-M	'P1'
_symmetry_Int_Tables_number	1
_symmetry_cell_setting	triclinic
loop_
_symmetry_equiv_pos_as_xyz
  x,y,z
_cell_length_a	19.805407
_cell_length_b	14.908178
_cell_length_c	19.805399
_cell_angle_alpha	86.674164
_cell_angle_beta	89.984884
_cell_angle_gamma	93.311253
loop_
_atom_site_label
_atom_site_type_symbol
_atom_site_fract_x
_atom_site_fract_y
_atom_site_fract_z
Zn1	Zn	1.019205	-0.359259	-0.367131
Zn2	Zn	1.269205	-0.109259	-0.117131
Zn3	Zn	1.519205	0.140741	0.132869
Zn4	Zn	1.769205	0.390741	0.382869
Zn5	Zn	1.012611	-0.510139	-0.247410
Zn6	Zn	1.262611	-0.260139	0.002590
Zn7	Zn	1.512611	-0.010139	0.252590
Zn8	Zn	1.762611	0.239861	0.502590
Zn9	Zn	0.906024	-0.359280	-0.253959
Zn10	Zn	1.156024	-0.109280	-0.003959
Zn11	Zn	1.406024	0.140720	0.246041
Zn12	Zn	1.656024	0.390720	0.496041
Zn13	Zn	0.899471	-0.510080	-0.360563
Zn14	Zn	1.149471	-0.260080	-0.110563
Zn15	Zn	1.399471	-0.010080	0.139437
Zn16	Zn	1.649471	0.239920	0.389437
O17	O	0.959328	-0.434689	-0.307266
O18	O	1.209328	-0.184689	-0.057266
O19	O	1.459328	0.065311	0.192734
O20	O	1.709328	0.315311	0.442734
O21	O	1.113046	-0.379289	-0.351258
O22	O	1.363046	-0.129289	-0.101258
O23	O	1.613046	0.120711	0.148742
O24	O	1.863046	0.370711	0.398742
O25	O	0.998454	-0.490161	-0.153560
O26	O	1.248454	-0.240161	0.096440
O27	O	1.498454	0.009839	0.346440
O28	O	1.748454	0.259839	0.596440
O29	O	0.926541	-0.233023	-0.274461
O30	O	1.176541	0.016977	-0.024461
O31	O	1.426541	0.266977	0.225539
O32	O	1.676541	0.516977	0.475539
O33	O	1.108201	-0.490140	-0.263300
O34	O	1.358201	-0.240140	-0.013300
O35	O	1.608201	0.009860	0.236700
O36	O	1.858201	0.259860	0.486700
O37	O	1.009694	-0.233007	-0.357608
O38	O	1.259694	0.016993	-0.107608
O39	O	1.509694	0.266993	0.142392
O40	O	1.759694	0.516993	0.392392
O41	O	0.920146	-0.379326	-0.158372
O42	O	1.170146	-0.129326	0.091628
O43	O	1.420146	0.120674	0.341628
O44	O	1.670146	0.370674	0.591628
O45	O	0.810439	-0.379269	-0.268091
O46	O	1.060439	-0.129269	-0.018091
O47	O	1.310439	0.120731	0.231909
O48	O	1.560439	0.370731	0.481909
O49	O	0.915372	-0.490040	-0.456152
O50	O	1.165372	-0.240040	-0.206152
O51	O	1.415372	0.009960	0.043848
O52	O	1.665372	0.259960	0.293848
O53	O	0.805625	-0.490061	-0.346413
O54	O	1.055625	-0.240061	-0.096413
O55	O	1.305625	0.009939	0.153587
O56	O	1.555625	0.259939	0.403587
O57	O	1.003340	-0.379232	-0.460978
O58	O	1.253340	-0.129232	-0.210978
O59	O	1.503340	0.120768	0.039022
O60	O	1.753340	0.370768	0.289022
O61	O	0.992100	-0.636385	-0.256930
O62	O	1.242100	-0.386385	-0.006930
O63	O	1.492100	-0.136385	0.243070
O64	O	1.742100	0.113615	0.493070
O65	O	0.908977	-0.636342	-0.340063
O66	O	1.158977	-0.386342	-0.090063
O67	O	1.408977	-0.136342	0.159937
O68	O	1.658977	0.113658	0.409937
C69	C	0.783473	-0.434661	-0.307250
C70	C	1.033473	-0.184661	-0.057250
C71	C	1.283473	0.065339	0.192750
C72	C	1.533473	0.315339	0.442750
C73	C	0.708241	-0.434671	-0.307259
C74	C	0.958241	-0.184671	-0.057259
C75	C	1.208241	0.065329	0.192741
C76	C	1.458241	0.315329	0.442741
C77	C	0.675416	-0.377053	-0.353121
C78	C	0.925416	-0.127053	-0.103121
C79	C	1.175416	0.122947	0.146879
C80	C	1.425416	0.372947	0.396879
C81	C	0.604727	-0.377058	-0.353123
C82	C	0.854727	-0.127058	-0.103123
C83	C	1.104727	0.122942	0.146877
C84	C	1.354727	0.372942	0.396877
C85	C	0.566865	-0.434686	-0.307267
C86	C	0.816865	-0.184686	-0.057267
C87	C	1.066865	0.065314	0.192733
C88	C	1.316865	0.315314	0.442733
C89	C	0.599694	-0.492306	-0.261400
C90	C	0.849694	-0.242306	-0.011400
C91	C	1.099694	0.007694	0.238600
C92	C	1.349694	0.257694	0.488600
C93	C	0.670382	-0.492296	-0.261395
C94	C	0.920382	-0.242296	-0.011395
C95	C	1.170382	0.007704	0.238605
C96	C	1.420382	0.257704	0.488605
C97	C	0.314619	-0.492347	-0.261419
C98	C	0.564619	-0.242347	-0.011419
C99	C	0.814619	0.007653	0.238581
C100	C	1.064619	0.257653	0.488581
C101	C	0.243927	-0.492354	-0.261429
C102	C	0.493927	-0.242354	-0.011429
C103	C	0.743927	0.007646	0.238571
C104	C	0.993927	0.257646	0.488571
C105	C	0.248964	-0.377108	-0.353147
C106	C	0.498964	-0.127108	-0.103147
C107	C	0.748964	0.122892	0.146853
C108	C	0.998964	0.372892	0.396853
C109	C	0.319652	-0.377098	-0.353142
C110	C	0.569652	-0.127098	-0.103142
C111	C	0.819652	0.122902	0.146858
C112	C	1.069652	0.372902	0.396858
C113	C	0.352476	-0.434715	-0.307273
C114	C	0.602476	-0.184715	-0.057273
C115	C	0.852476	0.065285	0.192727
C116	C	1.102476	0.315285	0.442727
C117	C	0.429125	-0.434708	-0.307271
C118	C	0.679125	-0.184708	-0.057271
C119	C	0.929125	0.065292	0.192729
C120	C	1.179125	0.315292	0.442729
C121	C	0.490217	-0.434698	-0.307272
C122	C	0.740217	-0.184698	-0.057272
C123	C	0.990217	0.065302	0.192728
C124	C	1.240217	0.315302	0.442728
C125	C	0.949130	-0.669100	-0.297088
C126	C	1.199130	-0.419100	-0.047088
C127	C	1.449130	-0.169100	0.202912
C128	C	1.699130	0.080900	0.452912
C129	C	0.944830	-0.769382	-0.292757
C130	C	1.194830	-0.519382	-0.042757
C131	C	1.444830	-0.269382	0.207243
C132	C	1.694830	-0.019382	0.457243
C133	C	1.023270	-0.957655	-0.371292
C134	C	1.273270	-0.707655	-0.121292
C135	C	1.523270	-0.457655	0.128708
C136	C	1.773270	-0.207655	0.378708
C137	C	1.019232	-1.051879	-0.367224
C138	C	1.269232	-0.801879	-0.117224
C139	C	1.519232	-0.551879	0.132776
C140	C	1.769232	-0.301879	0.382776
C141	C	0.932711	-1.052054	-0.280558
C142	C	1.182711	-0.802054	-0.030558
C143	C	1.432711	-0.552054	0.219442
C144	C	1.682711	-0.302054	0.469442
C145	C	0.936750	-0.957831	-0.284625
C146	C	1.186750	-0.707831	-0.034625
C147	C	1.436750	-0.457831	0.215375
C148	C	1.686750	-0.207831	0.465375
C149	C	0.982031	-0.910635	-0.329993
C150	C	1.232031	-0.660635	-0.079993
C151	C	1.482031	-0.410635	0.170007
C152	C	1.732031	-0.160635	0.420007
C153	C	0.986073	-0.816409	-0.334057
C154	C	1.236073	-0.566409	-0.084057
C155	C	1.486073	-0.316409	0.165943
C156	C	1.736073	-0.066409	0.415943
C157	C	0.899549	-0.816586	-0.247394
C158	C	1.149549	-0.566586	0.002606
C159	C	1.399549	-0.316586	0.252606
C160	C	1.649549	-0.066586	0.502606
C161	C	0.895511	-0.910810	-0.243327
C162	C	1.145511	-0.660810	0.006673
C163	C	1.395511	-0.410810	0.256673
C164	C	1.645511	-0.160810	0.506673
C165	C	1.135869	-0.434719	-0.307281
C166	C	1.385869	-0.184719	-0.057281
C167	C	1.635869	0.065281	0.192719
C168	C	1.885869	0.315281	0.442719
C169	C	1.211101	-0.434731	-0.307288
C170	C	1.461101	-0.184731	-0.057288
C171	C	1.711101	0.065269	0.192712
C172	C	1.961101	0.315269	0.442712
C173	C	0.959360	-0.434627	-0.483811
C174	C	1.209360	-0.184627	-0.233811
C175	C	1.459360	0.065373	0.016189
C176	C	1.709360	0.315373	0.266189
C177	C	0.959374	-0.434600	-0.559044
C178	C	1.209374	-0.184600	-0.309044
C179	C	1.459374	0.065400	-0.059044
C180	C	1.709374	0.315400	0.190956
C181	C	0.969584	-0.199364	-0.317498
C182	C	1.219584	0.050636	-0.067498
C183	C	1.469584	0.300636	0.182502
C184	C	1.719584	0.550636	0.432502
C185	C	0.973954	-0.099082	-0.321858
C186	C	1.223954	0.150918	-0.071858
C187	C	1.473954	0.400918	0.178142
C188	C	1.723954	0.650918	0.428142
C189	C	0.918611	-0.376883	-0.596893
C190	C	1.168611	-0.126883	-0.346893
C191	C	1.418611	0.123117	-0.096893
C192	C	1.668611	0.373117	0.153107
C193	C	0.918622	-0.376865	-0.667583
C194	C	1.168622	-0.126865	-0.417583
C195	C	1.418622	0.123135	-0.167583
C196	C	1.668622	0.373135	0.082417
C197	C	0.959398	-0.434561	-0.700422
C198	C	1.209398	-0.184561	-0.450422
C199	C	1.459398	0.065439	-0.200422
C200	C	1.709398	0.315439	0.049578
C201	C	1.000163	-0.492285	-0.662567
C202	C	1.250163	-0.242285	-0.412567
C203	C	1.500163	0.007715	-0.162567
C204	C	1.750163	0.257715	0.087433
C205	C	1.000149	-0.492306	-0.591879
C206	C	1.250149	-0.242306	-0.341879
C207	C	1.500149	0.007694	-0.091879
C208	C	1.750149	0.257694	0.158121
C209	C	1.000220	-0.492201	-0.947644
C210	C	1.250220	-0.242201	-0.697644
C211	C	1.500220	0.007799	-0.447644
C212	C	1.750220	0.257799	-0.197644
C213	C	1.000233	-0.492173	-1.018338
C214	C	1.250233	-0.242173	-0.768338
C215	C	1.500233	0.007827	-0.518338
C216	C	1.750233	0.257827	-0.268338
C217	C	0.918693	-0.376760	-1.023348
C218	C	1.168693	-0.126760	-0.773348
C219	C	1.418693	0.123240	-0.523348
C220	C	1.668693	0.373240	-0.273348
C221	C	0.918679	-0.376781	-0.952660
C222	C	1.168679	-0.126781	-0.702660
C223	C	1.418679	0.123219	-0.452660
C224	C	1.668679	0.373219	-0.202660
C225	C	0.959440	-0.434508	-0.914811
C226	C	1.209440	-0.184508	-0.664811
C227	C	1.459440	0.065492	-0.414811
C228	C	1.709440	0.315492	-0.164811
C229	C	0.959428	-0.434527	-0.838162
C230	C	1.209428	-0.184527	-0.588162
C231	C	1.459428	0.065473	-0.338162
C232	C	1.709428	0.315473	-0.088162
C233	C	0.959415	-0.434538	-0.777070
C234	C	1.209415	-0.184538	-0.527070
C235	C	1.459415	0.065462	-0.277070
C236	C	1.709415	0.315462	-0.027070
C237	C	0.959337	-0.434687	-0.131410
C238	C	1.209337	-0.184687	0.118590
C239	C	1.459337	0.065313	0.368590
C240	C	1.709337	0.315313	0.618590
C241	C	0.959466	-0.434459	-0.056188
C242	C	1.209466	-0.184459	0.193812
C243	C	1.459466	0.065541	0.443812
C244	C	1.709466	0.315541	0.693812
H245	H	0.350476	-0.330175	-0.390485
H246	H	0.600476	-0.080175	-0.140485
H247	H	0.850476	0.169825	0.109515
H248	H	1.100476	0.419825	0.359515
H249	H	0.222231	-0.330190	-0.390493
H250	H	0.472231	-0.080190	-0.140493
H251	H	0.722231	0.169810	0.109507
H252	H	0.972231	0.419810	0.359507
H253	H	0.213101	-0.539284	-0.224084
H254	H	0.463101	-0.289284	0.025916
H255	H	0.713101	-0.039284	0.275916
H256	H	0.963101	0.210716	0.525916
H257	H	0.885477	-0.329796	-0.925926
H258	H	1.135477	-0.079796	-0.675926
H259	H	1.385477	0.170204	-0.425926
H260	H	1.635477	0.420204	-0.175926
H261	H	0.885410	-0.329895	-0.570161
H262	H	1.135410	-0.079895	-0.320161
H263	H	1.385410	0.170105	-0.070161
H264	H	1.635410	0.420105	0.179839
F265	F	0.559397	-0.553634	-0.212592
F266	F	0.809397	-0.303634	0.037408
F267	F	1.059397	-0.053634	0.287408
F268	F	1.309397	0.196366	0.537408
F269	F	1.043531	-0.553740	-0.551597
F270	F	1.293531	-0.303740	-0.301597
F271	F	1.543531	-0.053740	-0.051597
F272	F	1.793531	0.196260	0.198403
H273	H	0.341336	-0.539263	-0.224071
H274	H	0.591336	-0.289263	0.025929
H275	H	0.841336	-0.039263	0.275929
H276	H	1.091336	0.210737	0.525929
F277	F	1.043556	-0.553695	-0.697519
F278	F	1.293556	-0.303695	-0.447519
F279	F	1.543556	-0.053695	-0.197519
F280	F	1.793556	0.196305	0.052481
F281	F	0.855661	-0.766537	-0.203434
F282	F	1.105661	-0.516537	0.046566
F283	F	1.355661	-0.266537	0.296566
F284	F	1.605661	-0.016537	0.546566
F285	F	1.043606	-0.553633	-0.907373
F286	F	1.293606	-0.303633	-0.657373
F287	F	1.543606	-0.053633	-0.407373
F288	F	1.793606	0.196367	-0.157373
H289	H	1.022945	-0.777983	-0.370996
H290	H	1.272945	-0.527983	-0.120996
H291	H	1.522945	-0.277983	0.129004
H292	H	1.772945	-0.027983	0.379004
F293	F	0.715706	-0.315720	-0.401931
F294	F	0.965706	-0.065720	-0.151931
F295	F	1.215706	0.184280	0.098069
F296	F	1.465706	0.434280	0.348069
H297	H	1.060145	-0.919228	-0.408227
H298	H	1.310145	-0.669228	-0.158227
H299	H	1.560145	-0.419228	0.091773
H300	H	1.810145	-0.169228	0.341773
H301	H	0.858642	-0.949250	-0.206391
H302	H	1.108642	-0.699250	0.043609
H303	H	1.358642	-0.449250	0.293609
H304	H	1.608642	-0.199250	0.543609
H305	H	0.697107	-0.539214	-0.224049
H306	H	0.947107	-0.289214	0.025951
H307	H	1.197107	-0.039214	0.275951
H308	H	1.447107	0.210786	0.525951
F309	F	0.875308	-0.315324	-1.063634
F310	F	1.125308	-0.065324	-0.813634
F311	F	1.375308	0.184676	-0.563634
F312	F	1.625308	0.434676	-0.313634
H313	H	1.033439	-0.539159	-1.045073
H314	H	1.283439	-0.289159	-0.795073
H315	H	1.533439	-0.039159	-0.545073
H316	H	1.783439	0.210841	-0.295073
F317	F	1.063122	-1.101919	-0.411182
F318	F	1.313122	-0.851919	-0.161182
F319	F	1.563122	-0.601919	0.088818
F320	F	1.813122	-0.351919	0.338818
H321	H	0.895842	-1.090498	-0.243625
H322	H	1.145842	-0.840498	0.006375
H323	H	1.395842	-0.590498	0.256375
H324	H	1.645842	-0.340498	0.506375
H325	H	0.885426	-0.329870	-0.698396
H326	H	1.135426	-0.079870	-0.448396
H327	H	1.385426	0.170130	-0.198396
H328	H	1.635426	0.420130	0.051604
H329	H	0.578004	-0.330141	-0.390469
H330	H	0.828004	-0.080141	-0.140469
H331	H	1.078004	0.169859	0.109531
H332	H	1.328004	0.419859	0.359531
