data_functionalizedCrystal
_audit_creation_method	'MofGen! by Chris Wilmer'
_symmetry_space_group_name_H-M	'P1'
_symmetry_Int_Tables_number	1
_symmetry_cell_setting	triclinic
loop_
_symmetry_equiv_pos_as_xyz
  x,y,z
_cell_length_a	12.645331
_cell_length_b	21.295417
_cell_length_c	12.645324
_cell_angle_alpha	89.959112
_cell_angle_beta	89.977038
_cell_angle_gamma	90.029485
loop_
_atom_site_label
_atom_site_type_symbol
_atom_site_fract_x
_atom_site_fract_y
_atom_site_fract_z
Zn1	Zn	1.620640	-0.250579	-0.599379
Zn2	Zn	1.620481	-0.355866	-0.422091
Zn3	Zn	1.443354	-0.250612	-0.422123
Zn4	Zn	1.443297	-0.355812	-0.599306
O5	O	1.531943	-0.303217	-0.510725
O6	O	1.768966	-0.264553	-0.575878
O7	O	1.596942	-0.341940	-0.273748
O8	O	1.466961	-0.162519	-0.445681
O9	O	1.768849	-0.341907	-0.445625
O10	O	1.597213	-0.162494	-0.575910
O11	O	1.466807	-0.264611	-0.273772
O12	O	1.294999	-0.264559	-0.445610
O13	O	1.466864	-0.341816	-0.747663
O14	O	1.294957	-0.341849	-0.575786
O15	O	1.597158	-0.264501	-0.747717
O16	O	1.596887	-0.443948	-0.445555
O17	O	1.466710	-0.443908	-0.575754
C18	C	1.256513	-0.303202	-0.510694
C19	C	1.138683	-0.303211	-0.510706
C20	C	1.531804	-0.466769	-0.510666
C21	C	1.531841	-0.536737	-0.510677
C22	C	0.971110	-0.254364	-0.429265
C23	C	1.093670	-0.254491	-0.428906
C24	C	1.094138	-0.369526	-0.480174
C25	C	0.971539	-0.369259	-0.479618
C26	C	0.971541	-0.286374	-0.622995
C27	C	1.094147	-0.284893	-0.622372
C28	C	1.599684	-0.569603	-0.442951
C29	C	1.599734	-0.635346	-0.442975
C30	C	1.531922	-0.668219	-0.510713
C31	C	1.464074	-0.635345	-0.578452
C32	C	1.464034	-0.569604	-0.578433
N33	N	1.439186	-0.771483	-0.518784
N34	N	1.439227	-0.833935	-0.518796
C35	C	1.532040	-0.866294	-0.510774
N36	N	1.624813	-0.833843	-0.502720
N37	N	1.624771	-0.771385	-0.502703
C38	C	1.531958	-0.739505	-0.510741
C39	C	1.599943	-0.970446	-0.443071
C40	C	1.599995	-1.036190	-0.443102
C41	C	1.464325	-1.036188	-0.578573
C42	C	1.464283	-0.970445	-0.578547
C43	C	1.532091	-0.937578	-0.510791
C44	C	1.808448	-0.303233	-0.510756
C45	C	1.926278	-0.303239	-0.510770
C46	C	1.532022	-0.303149	-0.787230
C47	C	1.532056	-0.303120	-0.905061
C48	C	1.532111	-0.139027	-0.510807
C49	C	1.532183	-0.069059	-0.510842
C50	C	1.614343	-0.254622	-1.072658
C51	C	1.614079	-0.254447	-0.950098
C52	C	1.420381	-0.285092	-0.949543
C53	C	1.420880	-0.284723	-1.072142
C54	C	1.560538	-0.369716	-1.072241
C55	C	1.562982	-0.369381	-0.949635
C56	C	1.531925	-0.303240	-0.235295
C57	C	1.532096	-0.303092	-0.117466
H58	H	1.123789	-0.205316	-0.448045
H59	H	1.595755	-0.205541	-1.103495
N60	N	1.589163	-0.189071	-0.911274
H61	H	1.578299	-0.160255	-0.973802
H62	H	1.522666	-0.190177	-0.867044
H63	H	1.655160	-0.943685	-0.387902
H64	H	0.942549	-0.321972	-0.683723
H65	H	0.941881	-0.406908	-0.536393
N66	N	1.387855	-0.221297	-0.908919
H67	H	1.315898	-0.210115	-0.937982
H68	H	1.384773	-0.222253	-0.829124
N69	N	0.932097	-0.189029	-0.454324
H70	H	0.884981	-0.190475	-0.518752
H71	H	0.890753	-0.172235	-0.392131
H72	H	1.654900	-0.542845	-0.387782
N73	N	1.388937	-0.220216	-1.110067
H74	H	1.374665	-0.192286	-1.047145
H75	H	1.447924	-0.201620	-1.153938
H76	H	0.940257	-0.265388	-0.346591
H77	H	1.507430	-0.407438	-0.918972
N78	N	1.390853	-0.534147	-0.651474
H79	H	1.407283	-0.545537	-0.727238
H80	H	1.315154	-0.545652	-0.634853
H81	H	1.357434	-0.319310	-0.920367
H82	H	1.357516	-0.318491	-1.101780
N83	N	1.666557	-0.391438	-1.113205
H84	H	1.697225	-0.358307	-1.161502
H85	H	1.716040	-0.398656	-1.051718
N86	N	1.391181	-1.071630	-0.651642
H87	H	1.434253	-1.098857	-0.700818
H88	H	1.342105	-1.098918	-0.608452
N89	N	1.671841	-0.387394	-0.911128
H90	H	1.701011	-0.352783	-0.864999
H91	H	1.667172	-0.427563	-0.868871
N92	N	1.723774	-0.269384	-0.910256
H93	H	1.723813	-0.269295	-0.830385
H94	H	1.745795	-0.312157	-0.936741
H95	H	1.124787	-0.384073	-0.399012
N96	N	1.481191	-0.417557	-1.110612
H97	H	1.427079	-0.396213	-1.157063
H98	H	1.518906	-0.451135	-1.152501
N99	N	0.930639	-0.223440	-0.659783
H100	H	0.882347	-0.205224	-0.604066
H101	H	0.992155	-0.194046	-0.671991
H102	H	1.123269	-0.236092	-0.645395
N103	N	1.134729	-0.328605	-0.707123
H104	H	1.182771	-0.361048	-0.674187
H105	H	1.073051	-0.350294	-0.742328
N106	N	1.673178	-1.071642	-0.370058
H107	H	1.716123	-1.040842	-0.327133
H108	H	1.630065	-1.098969	-0.320973
N109	N	1.672912	-0.670805	-0.369927
H110	H	1.715862	-0.640008	-0.327003
H111	H	1.629793	-0.698129	-0.320842
H112	H	1.122943	-0.265638	-0.345743
N113	N	1.391101	-0.934992	-0.651587
H114	H	1.348146	-0.965791	-0.694502
H115	H	1.342050	-0.907765	-0.608377
N116	N	1.724403	-0.269384	-1.111714
H117	H	1.722022	-0.307632	-1.158835
H118	H	1.752689	-0.232416	-1.153059
H119	H	1.123293	-0.406915	-0.537674
N120	N	0.933576	-0.388201	-0.370947
H121	H	0.996481	-0.396645	-0.323854
H122	H	0.889729	-0.353174	-0.339758
H123	H	1.408862	-0.662115	-0.633606
