data_functionalizedCrystal
_audit_creation_method	'MofGen! by Chris Wilmer'
_symmetry_space_group_name_H-M	'P1'
_symmetry_Int_Tables_number	1
_symmetry_cell_setting	triclinic
loop_
_symmetry_equiv_pos_as_xyz
  x,y,z
_cell_length_a	10.540539
_cell_length_b	17.699083
_cell_length_c	16.176319
_cell_angle_alpha	90.007696
_cell_angle_beta	90.005336
_cell_angle_gamma	83.904253
loop_
_atom_site_label
_atom_site_type_symbol
_atom_site_fract_x
_atom_site_fract_y
_atom_site_fract_z
O1	O	-1.683942	-0.106662	-0.068709
O2	O	-1.183942	0.393338	0.431291
O3	O	-1.314345	-0.116711	-0.068720
O4	O	-0.814345	0.383289	0.431280
O5	O	-1.509585	-0.001565	-0.068707
O6	O	-1.009585	0.498435	0.431293
O7	O	-1.488701	-0.221808	-0.068722
O8	O	-0.988701	0.278192	0.431278
O9	O	-1.509558	-0.001558	0.068786
O10	O	-1.009558	0.498442	0.568786
O11	O	-1.314318	-0.116704	0.068773
O12	O	-0.814318	0.383296	0.568773
O13	O	-1.683915	-0.106654	0.068784
O14	O	-1.183915	0.393346	0.568784
Cu15	Cu	-1.499114	-0.111678	0.081333
Cu16	Cu	-0.999114	0.388322	0.581333
Cu17	Cu	-1.499146	-0.111687	-0.081269
Cu18	Cu	-0.999146	0.388313	0.418731
O19	O	-1.488674	-0.221800	0.068771
O20	O	-0.988674	0.278200	0.568771
C21	C	-1.267042	-0.115954	0.000026
C22	C	-0.767042	0.384046	0.500026
C23	C	-1.126135	-0.113699	0.000022
C24	C	-0.626135	0.386301	0.500022
C25	C	-1.508823	0.026641	0.000040
C26	C	-1.008823	0.526641	0.500040
C27	C	-1.506578	0.110673	0.000040
C28	C	-1.006578	0.610673	0.500040
C29	C	-1.731217	-0.107412	0.000037
C30	C	-1.231217	0.392588	0.500037
C31	C	-1.872124	-0.109666	0.000035
C32	C	-1.372124	0.390334	0.500035
C33	C	-0.944289	-0.027300	0.000349
C34	C	-0.444289	0.472700	0.500349
C35	C	-1.090865	-0.029586	0.000030
C36	C	-0.590865	0.470414	0.500030
C37	C	-1.063738	-0.154182	-0.078493
C38	C	-0.563738	0.345818	0.421507
C39	C	-0.917246	-0.151311	-0.078550
C40	C	-0.417246	0.348689	0.421450
C41	C	-0.916695	-0.153014	0.077805
C42	C	-0.416695	0.346986	0.577805
C43	C	-1.063663	-0.153789	0.078834
C44	C	-0.563663	0.346211	0.578834
C45	C	-1.489436	-0.250006	0.000022
C46	C	-0.989436	0.249994	0.500022
C47	C	-1.491681	-0.334038	0.000017
C48	C	-0.991681	0.165962	0.500017
N49	N	-1.499101	-0.111671	0.195698
N50	N	-0.999101	0.388329	0.695698
C51	C	-1.621180	0.158549	0.000044
C52	C	-1.121180	0.658549	0.500044
C53	C	-1.619064	0.237506	0.000037
C54	C	-1.119064	0.737506	0.500037
C55	C	-1.502343	0.268586	0.000031
C56	C	-1.002343	0.768586	0.500031
C57	C	-1.387732	0.220704	0.000024
C58	C	-0.887732	0.720704	0.500024
C59	C	-1.389851	0.141748	0.000026
C60	C	-0.889851	0.641748	0.500026
C61	C	-1.379187	0.539122	0.000017
C62	C	-0.879187	1.039122	0.500017
C63	C	-1.377078	0.618084	0.000018
C64	C	-0.877078	1.118084	0.500018
C65	C	-1.608400	0.634880	0.000029
C66	C	-1.108400	1.134880	0.500029
C67	C	-1.610518	0.555925	0.000030
C68	C	-1.110518	1.055925	0.500030
C69	C	-1.495908	0.508050	0.000019
C70	C	-0.995908	1.008050	0.500019
C71	C	-1.498205	0.422436	0.000025
C72	C	-0.998205	0.922436	0.500025
C73	C	-1.500045	0.354198	0.000031
C74	C	-1.000045	0.854198	0.500031
N75	N	-1.499169	-0.111688	-0.195634
N76	N	-0.999169	0.388312	0.304366
C77	C	-1.585579	-0.060706	0.238968
C78	C	-1.085579	0.439294	0.738968
C79	C	-1.585586	-0.060705	0.325515
C80	C	-1.085586	0.439295	0.825515
C81	C	-1.499119	-0.111674	0.368791
C82	C	-0.999119	0.388326	0.868791
C83	C	-1.412631	-0.162642	0.325515
C84	C	-0.912631	0.337358	0.825515
C85	C	-1.412620	-0.162639	0.238969
C86	C	-0.912620	0.337361	0.738969
C87	C	-1.412675	-0.162656	0.674543
C88	C	-0.912675	0.337344	1.174543
C89	C	-1.412695	-0.162658	0.761095
C90	C	-0.912695	0.337342	1.261095
C91	C	-1.585641	-0.060723	0.761089
C92	C	-1.085641	0.439277	1.261089
C93	C	-1.585629	-0.060720	0.674543
C94	C	-1.085629	0.439280	1.174543
C95	C	-1.499138	-0.111684	0.631275
C96	C	-0.999138	0.388316	1.131275
C97	C	-1.499130	-0.111684	0.537431
C98	C	-0.999130	0.388316	1.037431
C99	C	-1.499131	-0.111679	0.462633
C100	C	-0.999131	0.388321	0.962633
H101	H	-1.134050	0.002268	0.056314
H102	H	-0.634050	0.502268	0.556314
C103	C	-1.094854	-0.236635	0.085236
C104	C	-0.594854	0.263365	0.585236
H105	H	-1.055924	-0.259430	0.133381
H106	H	-0.555924	0.240570	0.633381
H107	H	-1.063217	-0.264066	0.037756
H108	H	-0.563217	0.235934	0.537756
H109	H	-1.184670	-0.237520	0.088530
H110	H	-0.684670	0.262480	0.588530
H111	H	-0.868357	-0.213768	0.078331
H112	H	-0.368357	0.286232	0.578331
C113	C	-0.904313	0.017402	-0.075282
C114	C	-0.404313	0.517402	0.424718
H115	H	-0.843838	-0.013914	-0.107050
H116	H	-0.343838	0.486086	0.392950
H117	H	-0.867237	0.061170	-0.057221
H118	H	-0.367237	0.561170	0.442779
H119	H	-0.977206	0.032516	-0.108244
H120	H	-0.477206	0.532516	0.391756
C121	C	-1.317574	-0.218733	0.626955
C122	C	-0.817574	0.281267	1.126955
H123	H	-1.329942	-0.211434	0.569213
H124	H	-0.829942	0.288566	1.069213
H125	H	-1.331225	-0.269320	0.641136
H126	H	-0.831225	0.230680	1.141136
H127	H	-1.232878	-0.210036	0.641145
H128	H	-0.732878	0.289964	1.141145
H129	H	-1.342222	-0.204139	0.360755
H130	H	-0.842222	0.295861	0.860755
H131	H	-1.712384	0.276484	0.000042
H132	H	-1.212384	0.776484	0.500042
C133	C	-0.879884	-0.110895	-0.157825
C134	C	-0.379884	0.389105	0.342175
H135	H	-0.954203	-0.096378	-0.189689
H136	H	-0.454203	0.403622	0.310311
H137	H	-0.822218	-0.144398	-0.189216
H138	H	-0.322218	0.355602	0.310784
H139	H	-0.840205	-0.066960	-0.143472
H140	H	-0.340205	0.433040	0.356528
H141	H	-1.296530	0.102768	0.000022
H142	H	-0.796530	0.602768	0.500022
C143	C	-1.749575	0.124368	0.000051
C144	C	-1.249575	0.624368	0.500051
H145	H	-1.817523	0.164193	0.000044
H146	H	-1.317523	0.664193	0.500044
H147	H	-1.755204	0.093923	0.047998
H148	H	-1.255204	0.593923	0.547998
H149	H	-1.755217	0.093912	-0.047902
H150	H	-1.255217	0.593912	0.452098
H151	H	-1.705564	0.530624	0.000039
H152	H	-1.205564	1.030624	0.500039
C153	C	-1.734471	0.687545	0.000027
C154	C	-1.234471	1.187545	0.500027
H155	H	-1.716499	0.739020	0.000015
H156	H	-1.216499	1.239020	0.500015
H157	H	-1.782333	0.678064	0.047976
H158	H	-1.282333	1.178064	0.547976
H159	H	-1.782347	0.678046	-0.047924
H160	H	-1.282347	1.178046	0.452076
C161	C	-1.680692	-0.004638	0.191372
C162	C	-1.180692	0.495362	0.691372
H163	H	-1.732188	0.025720	0.229541
H164	H	-1.232188	0.525720	0.729541
H165	H	-1.733440	-0.032164	0.157597
H166	H	-1.233440	0.467836	0.657597
H167	H	-1.635119	0.027135	0.157625
H168	H	-1.135119	0.527135	0.657625
H169	H	-1.342199	-0.204139	0.203740
H170	H	-0.842199	0.295861	0.703740
C171	C	-1.148080	0.013727	-0.076134
C172	C	-0.648080	0.513727	0.423866
H173	H	-1.237962	0.012481	-0.076587
H174	H	-0.737962	0.512481	0.423413
H175	H	-1.112405	-0.009558	-0.124970
H176	H	-0.612405	0.490442	0.375030
H177	H	-1.129185	0.064986	-0.073828
H178	H	-0.629185	0.564986	0.426172
H179	H	-0.916300	0.005933	0.056657
H180	H	-0.416300	0.505933	0.556657
C181	C	-0.850943	-0.233027	-0.083392
C182	C	-0.350943	0.266973	0.416608
H183	H	-0.913575	-0.267829	-0.085321
H184	H	-0.413575	0.232171	0.414679
H185	H	-0.798576	-0.243191	-0.036051
H186	H	-0.298576	0.256809	0.463949
H187	H	-0.799793	-0.238476	-0.131812
H188	H	-0.299793	0.261524	0.368188
H189	H	-1.084961	-0.215953	-0.081419
H190	H	-0.584961	0.284047	0.418581
C191	C	-1.248680	0.652270	0.000001
C192	C	-0.748680	1.152270	0.500001
H193	H	-1.180724	0.612450	-0.000015
H194	H	-0.680724	1.112450	0.499985
H195	H	-1.243026	0.682728	0.047946
H196	H	-0.743026	1.182728	0.547946
H197	H	-1.243073	0.682716	-0.047954
H198	H	-0.743073	1.182716	0.452046
C199	C	-1.680724	-0.004650	0.373108
C200	C	-1.180724	0.495350	0.873108
H201	H	-1.732231	0.025697	0.334940
H202	H	-1.232231	0.525697	0.834940
H203	H	-1.635184	0.027123	0.406884
H204	H	-1.135184	0.527123	0.906884
H205	H	-1.733475	-0.032193	0.406855
H206	H	-1.233475	0.467807	0.906855
H207	H	-1.285864	0.500152	0.000008
H208	H	-0.785864	1.000152	0.500008
H209	H	-1.292697	0.246015	0.000014
H210	H	-0.792697	0.746015	0.500014
H211	H	-1.105155	-0.124214	0.136919
H212	H	-0.605155	0.375786	0.636919
C213	C	-1.121968	-0.116206	-0.157430
C214	C	-0.621968	0.383794	0.342570
H215	H	-1.083594	-0.141109	-0.204614
H216	H	-0.583594	0.358891	0.295386
H217	H	-1.107016	-0.064220	-0.158132
H218	H	-0.607016	0.435780	0.341868
H219	H	-1.211227	-0.119872	-0.158246
H220	H	-0.711227	0.380128	0.341754
C221	C	-0.874740	-0.116239	0.158204
C222	C	-0.374740	0.383761	0.658204
H223	H	-0.829646	-0.074098	0.145090
H224	H	-0.329646	0.425902	0.645090
H225	H	-0.820847	-0.152468	0.188855
H226	H	-0.320847	0.347532	0.688855
H227	H	-0.947852	-0.099444	0.190258
H228	H	-0.447852	0.400556	0.690258
C229	C	-1.680772	-0.004653	0.808682
C230	C	-1.180772	0.495347	1.308682
H231	H	-1.732274	0.025696	0.770512
H232	H	-1.232274	0.525696	1.270512
H233	H	-1.635221	0.027117	0.842454
H234	H	-1.135221	0.527117	1.342454
H235	H	-1.733530	-0.032189	0.842432
H236	H	-1.233530	0.467811	1.342432
H237	H	-1.656042	-0.019219	0.639311
H238	H	-1.156042	0.480781	1.139311
H239	H	-1.342279	-0.204164	0.796328
H240	H	-0.842279	0.295836	1.296328
