data_functionalizedCrystal
_audit_creation_method	'MofGen! by Chris Wilmer'
_symmetry_space_group_name_H-M	'P1'
_symmetry_Int_Tables_number	1
_symmetry_cell_setting	triclinic
loop_
_symmetry_equiv_pos_as_xyz
  x,y,z
_cell_length_a	23.532407
_cell_length_b	23.532407
_cell_length_c	22.610064
_cell_angle_alpha	90.000603
_cell_angle_beta	90.005499
_cell_angle_gamma	82.848712
loop_
_atom_site_label
_atom_site_type_symbol
_atom_site_fract_x
_atom_site_fract_y
_atom_site_fract_z
O1	O	0.755263	0.069127	0.049153
O2	O	1.255263	0.569127	0.549153
O3	O	0.589400	0.079131	0.049163
O4	O	1.089400	0.579131	0.549163
O5	O	0.677333	-0.008803	0.049147
O6	O	1.177333	0.491197	0.549147
O7	O	0.667330	0.157061	0.049169
O8	O	1.167330	0.657061	0.549169
O9	O	0.677318	-0.008790	-0.049222
O10	O	1.177318	0.491210	0.450778
O11	O	0.589385	0.079143	-0.049206
O12	O	1.089385	0.579143	0.450794
O13	O	0.755248	0.069140	-0.049216
O14	O	1.255248	0.569140	0.450784
Zn15	Zn	0.672314	0.074144	-0.064829
Zn16	Zn	1.172314	0.574144	0.435171
Zn17	Zn	0.672334	0.074127	0.064777
Zn18	Zn	1.172334	0.574127	0.564777
O19	O	0.667315	0.157074	-0.049200
O20	O	1.167315	0.657074	0.450800
C21	C	0.568176	0.078882	-0.000020
C22	C	1.068176	0.578882	0.499980
C23	C	0.504959	0.078116	-0.000017
C24	C	1.004959	0.578116	0.499983
C25	C	0.677071	-0.030012	-0.000039
C26	C	1.177071	0.469988	0.499961
C27	C	0.676305	-0.093229	-0.000043
C28	C	1.176305	0.406771	0.499957
C29	C	0.238792	0.022921	-0.000040
C30	C	0.738792	0.522921	0.499960
C31	C	0.298192	0.023632	-0.000040
C32	C	0.798192	0.523632	0.499960
O33	O	0.334937	-0.020153	-0.000066
O34	O	0.834937	0.479847	0.499934
N35	N	0.320818	0.075909	-0.000029
N36	N	0.820818	0.575909	0.499971
C37	C	0.284041	0.127477	-0.000024
C38	C	0.784041	0.627477	0.499976
O39	O	0.308740	0.172007	-0.000015
O40	O	0.808740	0.672007	0.499985
C41	C	0.224642	0.126765	-0.000029
C42	C	0.724642	0.626765	0.499971
C43	C	0.202019	0.074485	-0.000034
C44	C	0.702019	0.574485	0.499966
C45	C	0.216168	-0.029354	-0.000046
C46	C	0.716168	0.470646	0.499954
C47	C	0.156772	-0.030066	-0.000045
C48	C	0.656772	0.469934	0.499955
C49	C	0.119999	0.021499	-0.000038
C50	C	0.619999	0.521499	0.499962
C51	C	0.142623	0.073774	-0.000033
C52	C	0.642623	0.573774	0.499967
C53	C	0.187865	0.178333	-0.000028
C54	C	0.687865	0.678333	0.499972
C55	C	0.128463	0.177616	-0.000033
C56	C	0.628463	0.677616	0.499967
C57	C	0.105840	0.125336	-0.000038
C58	C	0.605840	0.625336	0.499962
C59	C	0.046454	0.124627	-0.000025
C60	C	0.546454	0.624627	0.499975
N61	N	0.023828	0.072351	-0.000036
N62	N	0.523828	0.572351	0.499964
C63	C	0.060600	0.020787	-0.000043
C64	C	0.560600	0.520787	0.499957
C65	C	0.408783	0.128968	-0.000016
C66	C	0.908783	0.628968	0.499984
C67	C	0.468181	0.129681	-0.000007
C68	C	0.968181	0.629681	0.499993
C69	C	0.482328	0.025836	-0.000024
C70	C	0.982328	0.525836	0.499976
C71	C	0.422929	0.025124	-0.000028
C72	C	0.922929	0.525124	0.499972
C73	C	0.386157	0.076692	-0.000027
C74	C	0.886157	0.576692	0.499973
C75	C	-0.064136	0.019297	-0.000041
C76	C	0.435864	0.519297	0.499959
C77	C	-0.123538	0.018590	-0.000037
C78	C	0.376462	0.518590	0.499963
C79	C	-0.137680	0.122435	-0.000024
C80	C	0.362320	0.622435	0.499976
C81	C	-0.078284	0.123142	-0.000024
C82	C	0.421716	0.623142	0.499976
C83	C	-0.041512	0.071568	-0.000034
C84	C	0.458488	0.571568	0.499966
O85	O	0.009675	0.168390	-0.000001
O86	O	0.509675	0.668390	0.499999
O87	O	0.035892	-0.023737	-0.000060
O88	O	0.535892	0.476263	0.499940
C89	C	0.723538	-0.492332	-0.000014
C90	C	1.223538	0.007668	0.499986
C91	C	0.722827	-0.551733	-0.000009
C92	C	1.222827	-0.051733	0.499991
O93	O	0.766613	-0.588477	0.000010
O94	O	1.266613	-0.088477	0.500010
N95	N	0.670551	-0.574359	-0.000007
N96	N	1.170551	-0.074359	0.499993
C97	C	0.618982	-0.537581	-0.000002
C98	C	1.118982	-0.037581	0.499998
O99	O	0.574452	-0.562281	0.000001
O100	O	1.074452	-0.062281	0.500001
C101	C	0.619695	-0.478182	-0.000003
C102	C	1.119695	0.021818	0.499997
C103	C	0.671974	-0.455559	-0.000011
C104	C	1.171974	0.044441	0.499989
C105	C	0.775814	-0.469709	-0.000022
C106	C	1.275814	0.030291	0.499978
C107	C	0.776525	-0.410313	-0.000028
C108	C	1.276525	0.089687	0.499972
C109	C	0.724961	-0.373540	-0.000025
C110	C	1.224961	0.126460	0.499975
C111	C	0.672685	-0.396163	-0.000017
C112	C	1.172685	0.103837	0.499983
C113	C	0.568127	-0.441406	0.000006
C114	C	1.068127	0.058594	0.500006
C115	C	0.568843	-0.382003	0.000006
C116	C	1.068843	0.117997	0.500006
C117	C	0.621123	-0.359381	-0.000003
C118	C	1.121123	0.140619	0.499997
C119	C	0.621832	-0.299994	-0.000020
C120	C	1.121832	0.200006	0.499980
N121	N	0.674109	-0.277368	-0.000023
N122	N	1.174109	0.222632	0.499977
C123	C	0.725673	-0.314141	-0.000025
C124	C	1.225673	0.185859	0.499975
C125	C	0.617491	-0.662324	-0.000001
C126	C	1.117491	-0.162324	0.499999
C127	C	0.616778	-0.721722	-0.000005
C128	C	1.116778	-0.221722	0.499995
C129	C	0.720623	-0.735869	-0.000011
C130	C	1.220623	-0.235869	0.499989
C131	C	0.721335	-0.676470	-0.000011
C132	C	1.221335	-0.176470	0.499989
C133	C	0.669767	-0.639698	-0.000003
C134	C	1.169767	-0.139698	0.499997
C135	C	0.727163	-0.189404	-0.000038
C136	C	1.227163	0.310596	0.499962
C137	C	0.727869	-0.130002	-0.000046
C138	C	1.227869	0.369998	0.499954
C139	C	0.624025	-0.115860	-0.000037
C140	C	1.124025	0.384140	0.499963
C141	C	0.623318	-0.175257	-0.000032
C142	C	1.123318	0.324743	0.499968
C143	C	0.674891	-0.212028	-0.000030
C144	C	1.174891	0.287972	0.499970
O145	O	0.578069	-0.263215	-0.000037
O146	O	1.078069	0.236785	0.499963
O147	O	0.770196	-0.289433	-0.000021
O148	O	1.270196	0.210567	0.499979
C149	C	0.776472	0.069389	-0.000031
C150	C	1.276472	0.569389	0.499969
C151	C	0.839689	0.070155	-0.000031
C152	C	1.339689	0.570155	0.499969
C153	C	0.667577	0.178283	-0.000012
C154	C	1.167577	0.678283	0.499988
C155	C	0.668343	0.241500	-0.000004
C156	C	1.168343	0.741500	0.499996
N157	N	0.672304	0.074155	-0.153282
N158	N	1.172304	0.574155	0.346718
C159	C	0.711273	0.035196	-0.561930
C160	C	1.211273	0.535196	-0.061930
C161	C	0.711276	0.035192	-0.623850
C162	C	1.211276	0.535192	-0.123850
O163	O	0.744384	0.002076	-0.655875
O164	O	1.244384	0.502076	-0.155875
N165	N	0.672334	0.074115	-0.654819
N166	N	1.172334	0.574115	-0.154819
C167	C	0.633383	0.113041	-0.623864
C168	C	1.133383	0.613041	-0.123864
O169	O	0.600259	0.146148	-0.655891
O170	O	1.100259	0.646148	-0.155891
C171	C	0.633377	0.113042	-0.561945
C172	C	1.133377	0.613042	-0.061945
C173	C	0.672326	0.074120	-0.530980
C174	C	1.172326	0.574120	-0.030980
C175	C	0.750217	-0.003723	-0.530965
C176	C	1.250217	0.496277	-0.030965
C177	C	0.750215	-0.003718	-0.469049
C178	C	1.250215	0.496282	0.030951
C179	C	0.711268	0.035206	-0.438099
C180	C	1.211268	0.535206	0.061901
C181	C	0.672323	0.074125	-0.469064
C182	C	1.172323	0.574125	0.030936
C183	C	0.594424	0.151965	-0.530992
C184	C	1.094424	0.651965	-0.030992
C185	C	0.594422	0.151963	-0.469069
C186	C	1.094422	0.651963	0.030931
C187	C	0.633370	0.113041	-0.438104
C188	C	1.133370	0.613041	0.061896
C189	C	0.633374	0.113055	-0.376199
C190	C	1.133374	0.613055	0.123801
N191	N	0.672316	0.074131	-0.345230
N192	N	1.172316	0.574131	0.154770
C193	C	0.711263	0.035207	-0.376180
C194	C	1.211263	0.535207	0.123820
C195	C	0.633396	0.113036	-0.753898
C196	C	1.133396	0.613036	-0.253898
C197	C	0.633403	0.113038	-0.815816
C198	C	1.133403	0.613038	-0.315816
C199	C	0.711296	0.035188	-0.815797
C200	C	1.211296	0.535188	-0.315797
C201	C	0.711291	0.035189	-0.753878
C202	C	1.211291	0.535189	-0.253878
C203	C	0.672338	0.074112	-0.722929
C204	C	1.172338	0.574112	-0.222929
C205	C	0.711255	0.035221	-0.246153
C206	C	1.211255	0.535221	0.253847
C207	C	0.711251	0.035231	-0.184232
C208	C	1.211251	0.535231	0.315768
C209	C	0.633357	0.113079	-0.184256
C210	C	1.133357	0.613079	0.315744
C211	C	0.633363	0.113071	-0.246171
C212	C	1.133363	0.613071	0.253829
C213	C	0.672314	0.074137	-0.277118
C214	C	1.172314	0.574137	0.222882
O215	O	0.600281	0.146152	-0.344134
O216	O	1.100281	0.646152	0.155866
O217	O	0.744376	0.002101	-0.344146
O218	O	1.244376	0.502101	0.155854
N219	N	0.672349	0.074111	0.153229
N220	N	1.172349	0.574111	0.653229
H221	H	-0.034204	-0.022699	-0.000049
H222	H	0.465796	0.477301	0.499951
N223	N	-0.147938	-0.037799	-0.000041
N224	N	0.352062	0.462201	0.499959
H225	H	-0.115626	-0.070355	-0.000048
H226	H	0.384374	0.429645	0.499952
H227	H	-0.172279	-0.040352	-0.036508
H228	H	0.327721	0.459648	0.463492
N229	N	0.753298	-0.006791	-0.720482
N230	N	1.253298	0.493209	-0.220482
H231	H	0.777971	-0.031446	-0.749490
H232	H	1.277971	0.468554	-0.249490
H233	H	0.731640	-0.031861	-0.694797
H234	H	1.231640	0.468139	-0.194797
H235	H	0.525555	-0.459814	0.000017
H236	H	1.025555	0.040186	0.500017
N237	N	0.566933	-0.199662	-0.000031
N238	N	1.066933	0.300338	0.499969
H239	H	0.534375	-0.167350	-0.000032
H240	H	1.034375	0.332650	0.499968
H241	H	0.564382	-0.223992	0.036441
H242	H	1.064382	0.276008	0.536441
N243	N	0.132376	-0.086453	-0.000056
N244	N	0.632376	0.413547	0.499944
H245	H	0.164692	-0.119006	-0.000063
H246	H	0.664692	0.380994	0.499937
H247	H	0.108039	-0.089005	-0.036526
H248	H	0.608039	0.410995	0.463474
H249	H	0.742972	0.003517	-0.271343
H250	H	1.242972	0.503517	0.228657
H251	H	-0.059864	0.165712	-0.000019
H252	H	0.440136	0.665712	0.499981
N253	N	0.784259	-0.105602	-0.000059
N254	N	1.284259	0.394398	0.499941
H255	H	0.816815	-0.137915	-0.000058
H256	H	1.316815	0.362085	0.499942
H257	H	0.786824	-0.081262	0.036405
H258	H	1.286824	0.418738	0.536405
H259	H	0.574207	-0.740135	-0.000008
H260	H	1.074207	-0.240135	0.499992
N261	N	0.552407	0.193949	-0.435694
N262	N	1.052407	0.693949	0.064306
H263	H	0.574020	0.219061	-0.410002
H264	H	1.074020	0.719061	0.089998
H265	H	0.527324	0.172275	-0.410041
H266	H	1.027324	0.672275	0.089959
H267	H	0.526850	-0.352065	0.000013
H268	H	1.026850	0.147935	0.500013
H269	H	0.486595	0.172252	0.000005
H270	H	0.986595	0.672252	0.500005
H271	H	0.575496	-0.632386	0.000000
H272	H	1.075496	-0.132386	0.500000
N273	N	0.753305	-0.006797	-0.849185
N274	N	1.253305	0.493203	-0.349185
H275	H	0.747393	-0.000889	-0.893108
H276	H	1.247393	0.499111	-0.393108
H277	H	0.746956	-0.047166	-0.838364
H278	H	1.246956	0.452834	-0.338364
N279	N	0.369123	0.184591	-0.000033
N280	N	0.869123	0.684591	0.499967
H281	H	0.392474	0.217812	-0.000033
H282	H	0.892474	0.717812	0.499967
H283	H	0.344160	0.186572	0.036424
H284	H	0.844160	0.686572	0.536424
N285	N	0.792221	-0.045701	-0.435655
N286	N	1.292221	0.454299	0.064345
H287	H	0.816890	-0.070357	-0.464665
H288	H	1.316890	0.429643	0.035335
H289	H	0.770562	-0.070769	-0.409969
H290	H	1.270562	0.429231	0.090031
H291	H	0.601694	0.144738	-0.841023
H292	H	1.101694	0.644738	-0.341023
N293	N	0.568412	-0.076191	-0.000026
N294	N	1.068412	0.423809	0.499974
H295	H	0.535183	-0.099532	-0.000019
H296	H	1.035183	0.400468	0.499981
H297	H	0.566438	-0.051236	-0.036492
H298	H	1.066438	0.448764	0.463508
N299	N	0.552406	0.193939	-0.564378
N300	N	1.052406	0.693939	-0.064378
H301	H	0.574011	0.219055	-0.590068
H302	H	1.074011	0.719055	-0.090068
H303	H	0.527745	0.218549	-0.535326
H304	H	1.027745	0.718549	-0.035326
H305	H	0.781933	-0.035422	-0.556159
H306	H	1.281933	0.464578	-0.056159
N307	N	-0.177348	0.178048	-0.000014
N308	N	0.322652	0.678048	0.499986
H309	H	-0.218408	0.169660	-0.000017
H310	H	0.281592	0.669660	0.499983
H311	H	-0.170060	0.200849	-0.036479
H312	H	0.329940	0.700849	0.463521
N313	N	0.753263	-0.006749	-0.150833
N314	N	1.253263	0.493251	0.349167
H315	H	0.777933	-0.031408	-0.179839
H316	H	1.277933	0.468592	0.320161
H317	H	0.731605	-0.031816	-0.125144
H318	H	1.231605	0.468184	0.374856
H319	H	0.601648	0.144772	-0.159046
H320	H	1.101648	0.644772	0.340954
N321	N	0.212256	0.234720	-0.000016
N322	N	0.712256	0.734720	0.499984
H323	H	0.179939	0.267273	-0.000014
H324	H	0.679939	0.767273	0.499986
H325	H	0.236590	0.237288	-0.036481
H326	H	0.736590	0.737288	0.463519
N327	N	0.591384	0.155030	-0.720525
N328	N	1.091384	0.655030	-0.220525
H329	H	0.612998	0.180139	-0.694832
H330	H	1.112998	0.680139	-0.194832
H331	H	0.566296	0.133359	-0.694874
H332	H	1.066296	0.633359	-0.194874
N333	N	0.255826	-0.084975	-0.000057
N334	N	0.755826	0.415025	0.499943
H335	H	0.232471	-0.118194	-0.000063
H336	H	0.732471	0.381806	0.499937
H337	H	0.280780	-0.086951	0.036411
H338	H	0.780780	0.413049	0.536411
N339	N	0.398531	-0.031262	-0.000035
N340	N	0.898531	0.468738	0.499965
H341	H	0.430845	-0.063817	-0.000037
H342	H	0.930845	0.436183	0.499963
H343	H	0.374195	-0.033818	-0.036504
H344	H	0.874195	0.466182	0.463496
H345	H	0.769159	-0.219337	-0.000034
H346	H	1.269159	0.280663	0.499966
H347	H	0.817806	-0.499644	-0.000022
H348	H	1.317806	0.000356	0.499978
N349	N	0.521997	-0.029782	-0.000032
N350	N	1.021997	0.470218	0.499968
H351	H	0.563057	-0.021394	-0.000030
H352	H	1.063057	0.478606	0.499970
H353	H	0.514703	-0.052574	-0.036503
H354	H	1.014703	0.447426	0.463497
H355	H	0.819097	-0.391900	-0.000032
H356	H	1.319097	0.108100	0.499968
H357	H	0.601653	0.144770	-0.271384
H358	H	1.101653	0.644770	0.228616
H359	H	0.098525	0.219610	-0.000034
H360	H	0.598525	0.719610	0.499966
H361	H	0.762610	-0.765821	-0.000010
H362	H	1.262610	-0.265821	0.499990
N363	N	0.777722	-0.652072	-0.000021
N364	N	1.277722	-0.152072	0.499979
H365	H	0.810276	-0.684385	-0.000024
H366	H	1.310276	-0.184385	0.499976
H367	H	0.780289	-0.627737	0.036446
H368	H	1.280289	-0.127737	0.536446
