data_functionalizedCrystal
_audit_creation_method	'MofGen! by Chris Wilmer'
_symmetry_space_group_name_H-M	'P1'
_symmetry_Int_Tables_number	1
_symmetry_cell_setting	triclinic
loop_
_symmetry_equiv_pos_as_xyz
  x,y,z
_cell_length_a	14.519731
_cell_length_b	14.519709
_cell_length_c	9.730217
_cell_angle_alpha	90.004201
_cell_angle_beta	90.001503
_cell_angle_gamma	83.684499
loop_
_atom_site_label
_atom_site_type_symbol
_atom_site_fract_x
_atom_site_fract_y
_atom_site_fract_z
O1	O	1.223851	0.120983	0.114296
O2	O	0.955377	0.135199	0.114298
O3	O	1.096733	-0.006147	0.114285
O4	O	1.082496	0.262329	0.114310
O5	O	1.096728	-0.006148	-0.114295
O6	O	0.955373	0.135198	-0.114282
O7	O	1.223847	0.120982	-0.114284
Zn8	Zn	1.089609	0.128090	-0.150575
Zn9	Zn	1.089615	0.128091	0.150589
O10	O	1.082492	0.262328	-0.114270
C11	C	0.921016	0.134532	0.000009
C12	C	0.818635	0.132536	0.000009
C13	C	1.096067	-0.040507	-0.000006
C14	C	1.094079	-0.142889	-0.000006
C15	C	0.735491	0.130915	0.000015
C16	C	0.631182	0.128888	0.000015
C17	C	0.548043	0.127280	0.000015
C18	C	0.443728	0.125253	0.000017
C19	C	1.086759	-0.517785	0.000029
C20	C	1.088792	-0.413477	0.000019
C21	C	1.090419	-0.330340	0.000010
C22	C	1.092452	-0.226025	0.000002
C23	C	1.258209	0.121649	0.000009
C24	C	1.360589	0.123645	0.000017
C25	C	1.083157	0.296688	0.000023
C26	C	1.085146	0.399070	0.000033
N27	N	1.089612	0.128088	-0.356111
C28	C	1.214833	0.002962	-0.356114
C29	C	1.277450	-0.059598	-0.428055
C30	C	1.277459	-0.059598	-0.571935
C31	C	1.214843	0.002966	-0.643877
C32	C	1.152227	0.065526	-0.571936
C33	C	1.152226	0.065522	-0.428053
C34	C	1.027003	0.190646	-0.571933
C35	C	1.026996	0.190653	-0.428053
C36	C	0.964387	0.253210	-0.643875
C37	C	0.901773	0.315777	-0.571934
C38	C	0.901767	0.315775	-0.428045
C39	C	0.964380	0.253213	-0.356112
N40	N	1.089619	0.128086	0.356126
H41	H	1.214840	0.002964	-0.238960
C42	C	1.346325	-0.128415	-0.348925
H43	H	1.383612	-0.165677	-0.412379
H44	H	1.384758	-0.095147	-0.292786
H45	H	1.313087	-0.166891	-0.292810
C46	C	0.832881	0.384567	-0.651062
H47	H	0.795579	0.421819	-0.587614
H48	H	0.866091	0.423042	-0.707208
H49	H	0.794451	0.351268	-0.707172
H50	H	1.328444	-0.110543	-0.630510
H51	H	0.850773	0.366716	-0.369478
C52	C	1.214839	0.002956	-0.802140
H53	H	1.168577	0.049170	-0.834682
H54	H	1.273795	0.015714	-0.834698
H55	H	1.202120	-0.056025	-0.834680
H56	H	0.964393	0.253204	-0.761029
C57	C	0.964375	0.253208	-0.197849
H58	H	1.010629	0.206984	-0.165312
H59	H	0.977079	0.312182	-0.165282
H60	H	0.905414	0.240433	-0.165313
