data_functionalizedCrystal
_audit_creation_method	'MofGen! by Chris Wilmer'
_symmetry_space_group_name_H-M	'P1'
_symmetry_Int_Tables_number	1
_symmetry_cell_setting	triclinic
loop_
_symmetry_equiv_pos_as_xyz
  x,y,z
_cell_length_a	35.277438
_cell_length_b	35.283087
_cell_length_c	35.277682
_cell_angle_alpha	89.995669
_cell_angle_beta	120.003279
_cell_angle_gamma	60.014852
loop_
_atom_site_label
_atom_site_type_symbol
_atom_site_fract_x
_atom_site_fract_y
_atom_site_fract_z
O1	O	-0.334408	-0.259997	-0.011275
O2	O	-0.256776	-0.204882	0.011225
O3	O	-0.334394	-0.204888	-0.066397
O4	O	-0.256791	-0.259991	0.066347
O5	O	-0.271363	-0.267913	-0.066397
O6	O	-0.193745	-0.267908	0.011225
O7	O	-0.271377	-0.323022	-0.011274
Zn8	Zn	-0.222554	-0.305471	-0.000025
Zn9	Zn	-0.305600	-0.222433	-0.000025
O10	O	-0.193760	-0.323016	0.066347
C11	C	-0.062157	-0.095984	0.034109
C12	C	-0.084740	-0.050377	0.034429
C13	C	0.006486	-0.095986	0.034107
C14	C	-0.016201	-0.050380	0.034427
C15	C	-0.062135	-0.027363	0.034107
C16	C	-0.016223	-0.118897	0.034429
C17	C	-0.116537	-0.207137	0.021687
C18	C	-0.141664	-0.228887	0.018175
C19	C	-0.188628	-0.205437	0.016412
C20	C	-0.215880	-0.229015	0.012595
C21	C	-0.210461	-0.160237	0.018165
C22	C	-0.185331	-0.138493	0.021683
C23	C	-0.138367	-0.161945	0.023444
C24	C	-0.185698	0.138120	0.021678
C25	C	-0.210955	0.184982	0.018164
C26	C	-0.189260	0.208492	0.016396
C27	C	-0.216644	0.259304	0.012579
C28	C	-0.142300	0.185132	0.018149
C29	C	-0.117039	0.138270	0.021672
C30	C	-0.138746	0.114766	0.023433
C31	C	0.159555	-0.207146	0.021677
C32	C	0.202907	-0.228896	0.018156
C33	C	0.224666	-0.205449	0.016391
C34	C	0.271670	-0.229030	0.012571
C35	C	0.203069	-0.160251	0.018142
C36	C	0.159717	-0.138503	0.021661
C37	C	0.137966	-0.161956	0.023432
C38	C	-0.111123	-0.138361	0.027255
C39	C	-0.089405	-0.119564	0.030294
C40	C	0.053490	-0.119569	0.030289
C41	C	0.090958	-0.138367	0.027248
C42	C	-0.089523	0.023449	0.030290
C43	C	-0.111354	0.063952	0.027248
C44	C	-0.456816	-0.364452	-0.023593
C45	C	-0.503593	-0.341070	-0.020375
C46	C	-0.434126	-0.410058	-0.023914
C47	C	-0.388173	-0.364448	-0.023589
C48	C	-0.361556	-0.341062	-0.020368
C49	C	-0.365587	-0.410054	-0.023911
C50	C	-0.388191	-0.433072	-0.023592
C51	C	-0.361593	-0.483058	-0.020374
C52	C	-0.434108	-0.341539	-0.023911
C53	C	-0.340104	-0.523442	-0.017773
C54	C	-0.541384	-0.322180	-0.017775
C55	C	-0.340052	-0.322169	-0.017764
C56	C	-0.313146	-0.574106	-0.014511
C57	C	-0.588794	-0.298481	-0.014513
C58	C	-0.313075	-0.298466	-0.014499
C59	C	-0.466195	-0.095992	-0.438555
C60	C	-0.512124	-0.050388	-0.461473
C61	C	-0.466195	-0.095992	-0.369912
C62	C	-0.512124	-0.050388	-0.392934
C63	C	-0.534820	-0.027373	-0.438554
C64	C	-0.443603	-0.118902	-0.392935
C65	C	-0.342608	-0.207141	-0.480471
C66	C	-0.317342	-0.228891	-0.502076
C67	C	-0.339028	-0.205443	-0.547284
C68	C	-0.311630	-0.229021	-0.570709
C69	C	-0.385984	-0.160246	-0.570885
C70	C	-0.411249	-0.138502	-0.549282
C71	C	-0.389560	-0.161951	-0.504073
C72	C	-0.687882	0.138102	-0.549741
C73	C	-0.731233	0.184963	-0.571498
C74	C	-0.752979	0.208473	-0.548044
C75	C	-0.799977	0.259283	-0.571627
C76	C	-0.731374	0.185116	-0.502831
C77	C	-0.688030	0.138255	-0.481078
C78	C	-0.666285	0.114751	-0.504538
C79	C	-0.342608	-0.207141	-0.204380
C80	C	-0.317338	-0.228889	-0.157501
C81	C	-0.339024	-0.205442	-0.133986
C82	C	-0.311625	-0.229019	-0.083156
C83	C	-0.385975	-0.160246	-0.157349
C84	C	-0.411241	-0.138500	-0.204226
C85	C	-0.389556	-0.161954	-0.227740
C86	C	-0.416958	-0.138368	-0.480649
C87	C	-0.438797	-0.119571	-0.461978
C88	C	-0.438797	-0.119571	-0.319084
C89	C	-0.416958	-0.138368	-0.278569
C90	C	-0.581818	0.023437	-0.462141
C91	C	-0.619282	0.063939	-0.480944
O92	O	0.397283	-0.323039	-0.011289
O93	O	0.287051	-0.267925	0.011207
O94	O	0.287047	-0.267933	-0.066413
O95	O	0.397287	-0.323032	0.066331
O96	O	0.287068	-0.204906	-0.066416
O97	O	0.287072	-0.204899	0.011205
O98	O	0.397303	-0.260013	-0.011291
Zn99	Zn	0.342191	-0.222449	-0.000044
Zn100	Zn	0.342164	-0.305489	-0.000041
O101	O	0.397308	-0.260005	0.066329
O102	O	-0.271446	0.408761	-0.011289
O103	O	-0.193868	0.276059	0.011207
O104	O	-0.271467	0.353648	-0.066414
O105	O	-0.193848	0.331172	0.066331
O106	O	-0.334513	0.353650	-0.066411
O107	O	-0.256915	0.276061	0.011209
O108	O	-0.334493	0.408763	-0.011287
Zn109	Zn	-0.305714	0.342412	-0.000038
Zn110	Zn	-0.222647	0.342410	-0.000041
O111	O	-0.256895	0.331174	0.066334
O112	O	-0.925578	0.408737	-0.602607
O113	O	-0.815362	0.276038	-0.547486
O114	O	-0.815343	0.353634	-0.547481
O115	O	-0.925598	0.331140	-0.602612
O116	O	-0.815344	0.353636	-0.610528
O117	O	-0.815364	0.276039	-0.610533
O118	O	-0.925580	0.408738	-0.665654
Zn119	Zn	-0.870472	0.342389	-0.648104
Zn120	Zn	-0.870470	0.342387	-0.565036
O121	O	-0.925600	0.331142	-0.665659
O122	O	-0.256787	-0.259995	-0.665362
O123	O	-0.334393	-0.204888	-0.610240
O124	O	-0.256774	-0.204884	-0.610235
O125	O	-0.334406	-0.259999	-0.665367
O126	O	-0.193745	-0.267908	-0.547189
O127	O	-0.271364	-0.267912	-0.547193
O128	O	-0.193757	-0.323019	-0.602315
Zn129	Zn	-0.222553	-0.305472	-0.564744
Zn130	Zn	-0.305597	-0.222435	-0.647811
O131	O	-0.271376	-0.323023	-0.602320
C132	C	-0.071406	-0.433053	0.293205
C133	C	-0.024636	-0.483038	0.316595
C134	C	-0.094101	-0.410039	0.316124
C135	C	-0.140031	-0.364433	0.224563
C136	C	-0.166636	-0.341050	0.174561
C137	C	-0.162623	-0.341523	0.247586
C138	C	-0.140031	-0.364434	0.293206
C139	C	-0.166635	-0.341051	0.316598
C140	C	-0.094102	-0.410038	0.247585
C141	C	-0.188129	-0.322161	0.335496
C142	C	0.013149	-0.523421	0.335492
C143	C	-0.188131	-0.322159	0.134164
C144	C	-0.215093	-0.298462	0.359204
C145	C	0.060552	-0.574083	0.359199
C146	C	-0.215097	-0.298459	0.083485
C147	C	0.611839	-0.364441	0.293190
C148	C	0.638459	-0.341057	0.316581
C149	C	0.634422	-0.410045	0.316109
C150	C	0.543191	-0.364443	0.224547
C151	C	0.496413	-0.341061	0.174545
C152	C	0.565879	-0.410048	0.247570
C153	C	0.611815	-0.433061	0.293190
C154	C	0.638409	-0.483046	0.316582
C155	C	0.565903	-0.341532	0.247569
C156	C	0.659896	-0.523429	0.335480
C157	C	0.659967	-0.322165	0.335478
C158	C	0.458622	-0.322171	0.134148
C159	C	0.686851	-0.574091	0.359188
C160	C	0.686948	-0.298464	0.359186
C161	C	0.411210	-0.298473	0.083468
C162	C	-0.140118	0.318912	0.293187
C163	C	-0.166727	0.322134	0.316579
C164	C	-0.094178	0.318596	0.316103
C165	C	-0.140117	0.318899	0.224545
C166	C	-0.166725	0.322108	0.174544
C167	C	-0.094177	0.318583	0.247565
C168	C	-0.071476	0.318912	0.293184
C169	C	-0.024694	0.322135	0.316573
C170	C	-0.162714	0.318582	0.247568
C171	C	0.013100	0.324740	0.335468
C172	C	-0.188226	0.324738	0.335477
C173	C	-0.188223	0.324701	0.134148
C174	C	0.060516	0.328007	0.359173
C175	C	-0.215196	0.328005	0.359186
C176	C	-0.215192	0.327954	0.083470
C177	C	-0.062159	-0.027699	-0.438575
C178	C	-0.084766	-0.050715	-0.461493
C179	C	0.006465	-0.096317	-0.369931
C180	C	-0.016246	-0.119229	-0.392954
C181	C	-0.062182	-0.096320	-0.438574
C182	C	-0.016223	-0.050712	-0.392955
C183	C	-0.116449	0.137777	-0.480494
C184	C	-0.141553	0.184638	-0.502100
C185	C	-0.188519	0.208145	-0.547307
C186	C	-0.215747	0.258957	-0.570733
C187	C	-0.210377	0.184786	-0.570909
C188	C	-0.185268	0.137927	-0.549305
C189	C	-0.138302	0.114423	-0.504095
C190	C	-0.185820	-0.138226	-0.549761
C191	C	-0.211100	-0.159826	-0.571518
C192	C	-0.189427	-0.205015	-0.548064
C193	C	-0.216837	-0.228436	-0.571647
C194	C	-0.142465	-0.228607	-0.502850
C195	C	-0.117180	-0.207012	-0.481097
C196	C	-0.138866	-0.161817	-0.504557
C197	C	0.159566	-0.138212	-0.204399
C198	C	0.202921	-0.159806	-0.157520
C199	C	0.224659	-0.204998	-0.134003
C200	C	0.271665	-0.228413	-0.083173
C201	C	0.203037	-0.228591	-0.157366
C202	C	0.159683	-0.206995	-0.204244
C203	C	0.137953	-0.161805	-0.227758
C204	C	-0.111082	0.063612	-0.480671
C205	C	-0.089383	0.023111	-0.461999
C206	C	0.053472	-0.119730	-0.319103
C207	C	0.090942	-0.138394	-0.278588
C208	C	-0.089596	-0.119736	-0.462161
C209	C	-0.111448	-0.138402	-0.480964
O210	O	0.743079	-0.723924	0.389751
O211	O	0.665501	-0.591225	0.334623
O212	O	0.743094	-0.668822	0.334623
O213	O	0.665485	-0.646327	0.389751
O214	O	0.806145	-0.668818	0.397668
O215	O	0.728551	-0.591221	0.397669
O216	O	0.806129	-0.723920	0.452797
Zn217	Zn	0.777351	-0.657570	0.435242
Zn218	Zn	0.694279	-0.657575	0.352177
O219	O	0.728536	-0.646323	0.452797
C220	C	-0.534675	0.376468	-0.438560
C221	C	-0.511973	0.376783	-0.461479
C222	C	-0.466034	0.376480	-0.369921
C223	C	-0.443435	0.376795	-0.392944
C224	C	-0.466032	0.376466	-0.438563
C225	C	-0.511974	0.376797	-0.392941
C226	C	-0.687782	0.364040	-0.480468
C227	C	-0.731146	0.360524	-0.502071
C228	C	-0.752897	0.358752	-0.547277
C229	C	-0.799909	0.354931	-0.570700
C230	C	-0.731285	0.360500	-0.570880
C231	C	-0.687929	0.364022	-0.549279
C232	C	-0.666178	0.365792	-0.504071
C233	C	-0.411689	0.364017	-0.549750
C234	C	-0.386570	0.360500	-0.571508
C235	C	-0.339600	0.358738	-0.548056
C236	C	-0.312356	0.354917	-0.571640
C237	C	-0.317752	0.360499	-0.502844
C238	C	-0.342875	0.364025	-0.481090
C239	C	-0.389846	0.365781	-0.504548
C240	C	-0.411697	0.364088	-0.204391
C241	C	-0.386576	0.360578	-0.157513
C242	C	-0.339606	0.358818	-0.133999
C243	C	-0.312364	0.355011	-0.083171
C244	C	-0.317757	0.360564	-0.157364
C245	C	-0.342878	0.364072	-0.204240
C246	C	-0.389852	0.365838	-0.227751
C247	C	-0.619162	0.369607	-0.480650
C248	C	-0.581687	0.372649	-0.461981
C249	C	-0.438796	0.372674	-0.319094
C250	C	-0.417086	0.369642	-0.278580
C251	C	-0.438793	0.372645	-0.462151
C252	C	-0.417081	0.369600	-0.480954
H253	H	-0.203374	0.118986	0.023115
C254	C	-0.064875	-0.232934	0.023629
C255	C	-0.063429	-0.212734	-0.013945
C256	C	-0.011769	-0.238529	-0.012003
C257	C	0.038446	-0.284523	0.027512
C258	C	0.037001	-0.304726	0.065088
C259	C	-0.014659	-0.278932	0.063147
H260	H	-0.100603	-0.178684	-0.043199
H261	H	-0.010700	-0.223573	-0.039820
H262	H	0.076688	-0.303618	0.028949
H263	H	0.074175	-0.338776	0.094342
H264	H	-0.015728	-0.293887	0.090964
H265	H	-0.453132	-0.428536	-0.024431
H266	H	0.546941	-0.304073	0.229075
C267	C	-0.459763	-0.290916	-0.024613
C268	C	-0.510392	-0.265605	-0.024961
C269	C	-0.536046	-0.214984	-0.025664
C270	C	-0.511072	-0.189673	-0.026019
C271	C	-0.460441	-0.214983	-0.025671
C272	C	-0.434786	-0.265605	-0.024968
H273	H	-0.528882	-0.284342	-0.024698
H274	H	-0.573527	-0.196247	-0.025922
H275	H	-0.530063	-0.152199	-0.026540
H276	H	-0.441951	-0.196246	-0.025934
H277	H	-0.397306	-0.284341	-0.024710
H278	H	-0.075179	0.318083	0.353587
H279	H	-0.325083	0.365491	-0.223259
H280	H	0.671385	-0.428520	0.353593
H281	H	-0.324944	-0.226240	-0.443661
H282	H	-0.075180	0.318065	0.229078
H283	H	-0.531113	-0.031910	-0.374446
H284	H	-0.531118	-0.031912	-0.498957
H285	H	-0.406636	-0.156369	-0.374448
H286	H	-0.199689	0.318074	0.229084
H287	H	-0.328622	-0.428530	-0.024423
C288	C	-0.134672	-0.025414	0.035127
C289	C	-0.132412	-0.007645	0.075571
C290	C	-0.182342	0.017317	0.076268
C291	C	-0.234534	0.024511	0.036522
C292	C	-0.236797	0.006742	-0.003925
C293	C	-0.186866	-0.018221	-0.004623
H294	H	-0.093774	-0.012970	0.104996
H295	H	-0.180667	0.030471	0.106210
H296	H	-0.271495	0.042989	0.037038
H297	H	-0.275434	0.012066	-0.033351
H298	H	-0.188542	-0.031375	-0.034564
C299	C	0.009405	-0.169849	-0.367986
C300	C	0.060033	-0.195159	-0.317697
C301	C	0.085683	-0.245778	-0.292732
C302	C	0.060704	-0.271087	-0.318056
C303	C	0.010072	-0.245777	-0.368348
C304	C	-0.015577	-0.195159	-0.393313
H305	H	0.078527	-0.176424	-0.298948
H306	H	0.123163	-0.264514	-0.255503
H307	H	0.079691	-0.308558	-0.299576
H308	H	-0.008421	-0.264513	-0.387097
H309	H	-0.053058	-0.176423	-0.430542
C310	C	-0.318744	-0.232940	-0.230239
C311	C	-0.351959	-0.242135	-0.273080
C312	C	-0.328093	-0.267932	-0.298937
C313	C	-0.271011	-0.284535	-0.281953
C314	C	-0.237792	-0.275340	-0.239109
C315	C	-0.261658	-0.249542	-0.213252
H316	H	-0.394218	-0.229845	-0.285655
H317	H	-0.352684	-0.274739	-0.330653
H318	H	-0.253343	-0.303631	-0.301093
H319	H	-0.195533	-0.287630	-0.226534
H320	H	-0.237067	-0.242736	-0.181537
C321	C	-0.068445	-0.434999	0.366760
C322	C	-0.017827	-0.485272	0.392077
C323	C	0.007827	-0.510230	0.442711
C324	C	-0.017138	-0.484917	0.468026
C325	C	-0.067759	-0.434641	0.442708
C326	C	-0.093412	-0.409682	0.392075
H327	H	0.000656	-0.504013	0.373337
H328	H	0.045300	-0.547448	0.461452
H329	H	0.001852	-0.503393	0.505508
H330	H	-0.086241	-0.415900	0.461449
H331	H	-0.130885	-0.372465	0.373333
H332	H	-0.078207	0.118644	-0.443683
C333	C	-0.462890	-0.088788	-0.229926
C334	C	-0.513024	-0.078162	-0.234016
C335	C	-0.564673	-0.028450	-0.259716
C336	C	-0.566188	0.010637	-0.281326
C337	C	-0.516051	0.000012	-0.277236
C338	C	-0.464402	-0.049701	-0.251536
H339	H	-0.511905	-0.107098	-0.218019
H340	H	-0.601788	-0.020585	-0.262743
H341	H	-0.604422	0.047437	-0.300350
H342	H	-0.517171	0.028947	-0.293233
H343	H	-0.427288	-0.057565	-0.248509
C344	C	-0.663860	0.365987	-0.430741
C345	C	-0.699148	0.405489	-0.420029
C346	C	-0.675223	0.407432	-0.370302
C347	C	-0.616011	0.369873	-0.331286
C348	C	-0.580719	0.330367	-0.341998
C349	C	-0.604644	0.328424	-0.391725
H350	H	-0.742984	0.433296	-0.448912
H351	H	-0.701348	0.436677	-0.362373
H352	H	-0.598300	0.371311	-0.294475
H353	H	-0.536883	0.302561	-0.313115
H354	H	-0.578519	0.299179	-0.399654
C355	C	0.540199	-0.435009	0.222601
C356	C	0.519774	-0.452769	0.242630
C357	C	0.494095	-0.477729	0.217663
C358	C	0.488840	-0.484929	0.172667
C359	C	0.509265	-0.467169	0.152636
C360	C	0.534944	-0.442209	0.177603
H361	H	0.523664	-0.447439	0.275940
H362	H	0.478975	-0.490876	0.232491
H363	H	0.469830	-0.503406	0.154185
H364	H	0.505375	-0.472499	0.119326
H365	H	0.550064	-0.429062	0.162775
C366	C	-0.068429	-0.435004	0.222624
C367	C	-0.100968	-0.442203	0.177624
C368	C	-0.075291	-0.467171	0.152669
C369	C	-0.017074	-0.484939	0.172715
C370	C	0.015468	-0.477740	0.217718
C371	C	-0.010210	-0.452773	0.242673
H372	H	-0.144066	-0.429049	0.162782
H373	H	-0.099381	-0.472500	0.119355
H374	H	0.001934	-0.503422	0.154242
H375	H	0.058566	-0.490894	0.232559
H376	H	0.013880	-0.447444	0.275987
C377	C	-0.134700	-0.025759	-0.512131
C378	C	-0.159659	0.024513	-0.537451
C379	C	-0.209591	0.049467	-0.588088
C380	C	-0.234562	0.024150	-0.613403
C381	C	-0.209602	-0.026124	-0.588083
C382	C	-0.159671	-0.051078	-0.537447
H383	H	-0.141174	0.043257	-0.518711
H384	H	-0.228067	0.086684	-0.606831
H385	H	-0.271524	0.042623	-0.650887
H386	H	-0.228088	-0.044868	-0.606823
H387	H	-0.141194	-0.088295	-0.518703
C388	C	-0.754993	0.210656	-0.621226
C389	C	-0.778374	0.193560	-0.661263
C390	C	-0.802133	0.219252	-0.710992
C391	C	-0.802512	0.262040	-0.720683
C392	C	-0.779131	0.279138	-0.680644
C393	C	-0.755372	0.253446	-0.630916
H394	H	-0.778094	0.161884	-0.654091
H395	H	-0.819441	0.206595	-0.740631
H396	H	-0.820100	0.281059	-0.757494
H397	H	-0.779411	0.310814	-0.687817
H398	H	-0.738064	0.266103	-0.601277
C399	C	0.226702	-0.133854	-0.131820
C400	C	0.191303	-0.087815	-0.127734
C401	C	0.215086	-0.061863	-0.102034
C402	C	0.274268	-0.081951	-0.080420
C403	C	0.309671	-0.127992	-0.084506
C404	C	0.285888	-0.153944	-0.110206
H405	H	0.147490	-0.072943	-0.143734
H406	H	0.188878	-0.027780	-0.099010
H407	H	0.291873	-0.062740	-0.061396
H408	H	0.353484	-0.142864	-0.068505
H409	H	0.312096	-0.188027	-0.113230
C410	C	-0.117515	0.210332	-0.476139
C411	C	-0.150607	0.253121	-0.466836
C412	C	-0.126569	0.278815	-0.440874
C413	C	-0.069439	0.261721	-0.424216
C414	C	-0.036344	0.218930	-0.433519
C415	C	-0.060382	0.193236	-0.459481
H416	H	-0.192901	0.265777	-0.479167
H417	H	-0.151068	0.310492	-0.433987
H418	H	-0.051644	0.280741	-0.404998
H419	H	0.005950	0.206273	-0.421188
H420	H	-0.035882	0.161559	-0.466368
H421	H	0.002782	-0.032232	-0.374473
H422	H	0.141884	-0.101421	-0.223546
H423	H	-0.279111	-0.265689	-0.482857
C424	C	-0.409835	-0.134455	-0.620610
C425	C	-0.427197	-0.154663	-0.659624
C426	C	-0.451050	-0.128869	-0.709350
C427	C	-0.457541	-0.082869	-0.720061
C428	C	-0.440179	-0.062659	-0.681046
C429	C	-0.416326	-0.088452	-0.631320
H430	H	-0.422392	-0.188717	-0.651696
H431	H	-0.463903	-0.143830	-0.738232
H432	H	-0.475199	-0.063775	-0.756871
H433	H	-0.444983	-0.028604	-0.688974
H434	H	-0.403473	-0.073491	-0.602438
C435	C	-0.262036	0.210642	-0.620634
C436	C	-0.263473	0.232286	-0.659648
C437	C	-0.315135	0.258141	-0.709375
C438	C	-0.365360	0.262352	-0.720089
C439	C	-0.363925	0.240707	-0.681074
C440	C	-0.312263	0.214852	-0.631347
H441	H	-0.226292	0.229170	-0.651718
H442	H	-0.316197	0.274165	-0.738256
H443	H	-0.403603	0.281492	-0.756900
H444	H	-0.401107	0.243824	-0.689004
H445	H	-0.311202	0.198829	-0.602466
H446	H	-0.124813	-0.265405	-0.483755
C447	C	-0.262758	-0.133874	-0.621246
C448	C	-0.262316	-0.117222	-0.661284
C449	C	-0.313975	-0.091269	-0.711012
C450	C	-0.366076	-0.081967	-0.720703
C451	C	-0.366520	-0.098619	-0.680665
C452	C	-0.314861	-0.124572	-0.630936
H453	H	-0.223746	-0.124108	-0.654111
H454	H	-0.313647	-0.078943	-0.740651
H455	H	-0.404317	-0.062755	-0.757515
H456	H	-0.405090	-0.091734	-0.687837
H457	H	-0.315190	-0.136899	-0.601297
C458	C	-0.117652	-0.278601	0.016242
C459	C	-0.060529	-0.318622	0.056717
C460	C	-0.036517	-0.368336	0.054784
C461	C	-0.069629	-0.378029	0.012375
C462	C	-0.126756	-0.338008	-0.028104
C463	C	-0.150768	-0.288293	-0.026170
H464	H	-0.036014	-0.311447	0.088114
H465	H	0.005772	-0.397963	0.084749
H466	H	-0.051854	-0.414831	0.010943
H467	H	-0.151271	-0.345182	-0.059500
H468	H	-0.193057	-0.258667	-0.056135
H469	H	-0.203066	0.118911	-0.568524
C470	C	-0.265692	-0.278603	-0.131803
C471	C	-0.215557	-0.289235	-0.127715
C472	C	-0.163912	-0.338950	-0.102017
C473	C	-0.162402	-0.378032	-0.080406
C474	C	-0.212540	-0.367401	-0.084493
C475	C	-0.264185	-0.317686	-0.110191
H476	H	-0.216672	-0.260304	-0.143714
H477	H	-0.126797	-0.346820	-0.098992
H478	H	-0.124172	-0.414834	-0.061383
H479	H	-0.211424	-0.396333	-0.068494
H480	H	-0.301300	-0.309816	-0.113216
C481	C	-0.410597	0.358555	-0.621234
C482	C	-0.417147	0.319057	-0.631856
C483	C	-0.441173	0.317111	-0.681582
C484	C	-0.458649	0.354665	-0.720687
C485	C	-0.452100	0.394166	-0.710066
C486	C	-0.428073	0.396112	-0.660340
H487	H	-0.404209	0.291255	-0.602908
H488	H	-0.446021	0.287869	-0.689444
H489	H	-0.476435	0.353224	-0.757497
H490	H	-0.465037	0.421968	-0.739014
H491	H	-0.423225	0.425353	-0.652478
H492	H	-0.203478	-0.101429	-0.568867
H493	H	-0.078943	-0.226225	-0.444286
C494	C	0.226947	-0.278304	-0.131503
C495	C	0.286158	-0.317306	-0.109854
C496	C	0.310066	-0.367016	-0.083992
C497	C	0.274761	-0.377725	-0.079780
C498	C	0.215546	-0.338721	-0.101430
C499	C	0.191639	-0.289011	-0.127291
H500	H	0.312296	-0.309380	-0.112971
H501	H	0.353901	-0.395889	-0.067966
H502	H	0.292459	-0.414523	-0.060636
H503	H	0.189409	-0.346647	-0.098312
H504	H	0.147804	-0.260138	-0.143318
H505	H	0.142082	-0.226208	-0.223263
C506	C	0.226663	-0.278613	0.016229
C507	C	0.250035	-0.318629	0.056713
C508	C	0.273793	-0.368346	0.054788
C509	C	0.274179	-0.378048	0.012380
C510	C	0.250807	-0.338030	-0.028107
C511	C	0.227048	-0.288313	-0.026182
H512	H	0.249750	-0.311448	0.088109
H513	H	0.291095	-0.397970	0.084759
H514	H	0.291766	-0.414851	0.010955
H515	H	0.251092	-0.345211	-0.059503
H516	H	0.209746	-0.258689	-0.056154
C517	C	-0.462895	-0.088788	-0.575240
C518	C	-0.486750	-0.062994	-0.624964
C519	C	-0.538395	-0.013279	-0.650923
C520	C	-0.566186	0.010641	-0.627157
C521	C	-0.542331	-0.015154	-0.577431
C522	C	-0.490686	-0.064868	-0.551472
H523	H	-0.466178	-0.080701	-0.642559
H524	H	-0.556054	0.005816	-0.687734
H525	H	-0.604416	0.047443	-0.646373
H526	H	-0.562903	0.002554	-0.559836
H527	H	-0.473027	-0.083963	-0.514661
C528	C	-0.262610	0.210677	0.016229
C529	C	-0.312747	0.214761	-0.023278
C530	C	-0.364404	0.240456	-0.025214
C531	C	-0.365924	0.262066	0.012357
C532	C	-0.315786	0.257983	0.051867
C533	C	-0.264129	0.232288	0.053803
H534	H	-0.311623	0.198763	-0.051093
H535	H	-0.401519	0.243478	-0.054462
H536	H	-0.404164	0.281087	0.010924
H537	H	-0.316910	0.273981	0.079682
H538	H	-0.227014	0.229266	0.083051
C539	C	-0.755293	0.210971	-0.477030
C540	C	-0.814512	0.232616	-0.497243
C541	C	-0.838430	0.258473	-0.471441
C542	C	-0.803129	0.262685	-0.425425
C543	C	-0.743906	0.241039	-0.405209
C544	C	-0.719988	0.215182	-0.431011
H545	H	-0.840647	0.229499	-0.531310
H546	H	-0.882271	0.274497	-0.486407
H547	H	-0.820834	0.281825	-0.406325
H548	H	-0.717771	0.244156	-0.371143
H549	H	-0.676147	0.199158	-0.416045
C550	C	-0.754913	0.358596	-0.476109
C551	C	-0.719504	0.319108	-0.430056
C552	C	-0.743271	0.317178	-0.404093
C553	C	-0.802446	0.354737	-0.424181
C554	C	-0.837859	0.394228	-0.470235
C555	C	-0.814092	0.396157	-0.496199
H556	H	-0.675696	0.291302	-0.415184
H557	H	-0.717055	0.287944	-0.370000
H558	H	-0.820039	0.353308	-0.404961
H559	H	-0.881667	0.422033	-0.485108
H560	H	-0.840307	0.425391	-0.530292
H561	H	0.002809	-0.031905	0.034945
C562	C	-0.393497	0.377497	-0.367979
C563	C	-0.368523	0.377851	-0.317692
C564	C	-0.318587	0.378554	-0.292729
C565	C	-0.293625	0.378903	-0.318054
C566	C	-0.318599	0.378549	-0.368344
C567	C	-0.368535	0.377846	-0.393307
H568	H	-0.387001	0.377593	-0.298942
H569	H	-0.300099	0.378816	-0.255501
H570	H	-0.256659	0.379423	-0.299576
H571	H	-0.300121	0.378808	-0.387094
H572	H	-0.387023	0.377584	-0.430535
C573	C	-0.409836	-0.134450	-0.131486
C574	C	-0.427205	-0.154654	-0.109838
C575	C	-0.451066	-0.128857	-0.083977
C576	C	-0.457556	-0.082857	-0.079764
C577	C	-0.440187	-0.062650	-0.101412
C578	C	-0.416326	-0.088446	-0.127273
H579	H	-0.422400	-0.188708	-0.112956
H580	H	-0.463924	-0.143816	-0.067951
H581	H	-0.475219	-0.063760	-0.060620
H582	H	-0.444991	-0.028595	-0.098294
H583	H	-0.403468	-0.073488	-0.143299
C584	C	-0.118428	0.210987	0.016210
C585	C	-0.151641	0.253812	-0.026203
C586	C	-0.127771	0.279668	-0.028145
C587	C	-0.070689	0.262700	0.012325
C588	C	-0.037473	0.219874	0.054741
C589	C	-0.061342	0.194017	0.056683
H590	H	-0.193900	0.266374	-0.056165
H591	H	-0.152360	0.311371	-0.059545
H592	H	-0.053019	0.281841	0.010888
H593	H	0.004786	0.207311	0.084703
H594	H	-0.036753	0.162314	0.088083
H595	H	-0.530977	0.377297	-0.498963
C596	C	-0.410608	0.358656	-0.131813
C597	C	-0.417170	0.319168	-0.127721
C598	C	-0.441204	0.317248	-0.102021
C599	C	-0.458675	0.354816	-0.080412
C600	C	-0.452113	0.394307	-0.084504
C601	C	-0.428080	0.396227	-0.110204
H602	H	-0.404237	0.291356	-0.143718
H603	H	-0.446061	0.288014	-0.098993
H604	H	-0.476466	0.353395	-0.061388
H605	H	-0.465047	0.422120	-0.068507
H606	H	-0.423222	0.425461	-0.113232
C607	C	-0.212554	-0.290906	0.222617
C608	C	-0.237528	-0.265596	0.172326
C609	C	-0.287459	-0.214982	0.147358
C610	C	-0.312417	-0.189677	0.172681
C611	C	-0.287444	-0.214986	0.222974
C612	C	-0.237512	-0.265601	0.247942
H613	H	-0.219052	-0.284329	0.153578
H614	H	-0.305946	-0.196246	0.110127
H615	H	-0.349380	-0.152209	0.154198
H616	H	-0.305920	-0.196254	0.241722
H617	H	-0.219026	-0.284336	0.285173
C618	C	-0.755210	0.358551	-0.620603
C619	C	-0.719919	0.319048	-0.631312
C620	C	-0.743843	0.317097	-0.681037
C621	C	-0.803058	0.354651	-0.720053
C622	C	-0.838352	0.394157	-0.709344
C623	C	-0.814428	0.396107	-0.659620
H624	H	-0.676081	0.291246	-0.602430
H625	H	-0.717715	0.287852	-0.688964
H626	H	-0.820768	0.353207	-0.756862
H627	H	-0.882190	0.421958	-0.738227
H628	H	-0.840556	0.425352	-0.651693
C629	C	-0.664156	0.365944	-0.575239
C630	C	-0.688077	0.363993	-0.624961
C631	C	-0.664303	0.365913	-0.650921
C632	C	-0.616608	0.369783	-0.627158
C633	C	-0.592685	0.371734	-0.577433
C634	C	-0.616459	0.369814	-0.551473
H635	H	-0.723385	0.361128	-0.642554
H636	H	-0.682012	0.364469	-0.687731
H637	H	-0.599009	0.371205	-0.646375
H638	H	-0.557376	0.374599	-0.559840
H639	H	-0.598749	0.371258	-0.514663
C640	C	-0.065388	0.112577	0.023599
C641	C	-0.041518	0.138430	0.021655
C642	C	0.010132	0.112737	0.023581
C643	C	0.037912	0.061191	0.027449
C644	C	0.014042	0.035335	0.029393
C645	C	-0.037608	0.061028	0.027468
H646	H	-0.062083	0.176590	0.018792
H647	H	0.027802	0.131878	0.022142
H648	H	0.076147	0.042172	0.028874
H649	H	0.034607	-0.002825	0.032257
H650	H	-0.055278	0.041887	0.028906
C651	C	-0.266088	0.358565	-0.477045
C652	C	-0.264635	0.396120	-0.497262
C653	C	-0.212968	0.394183	-0.471462
C654	C	-0.162753	0.354691	-0.425445
C655	C	-0.164204	0.317133	-0.405225
C656	C	-0.215872	0.319070	-0.431025
H657	H	-0.301808	0.425357	-0.531330
H658	H	-0.211894	0.421986	-0.486431
H659	H	-0.124506	0.353256	-0.406346
H660	H	-0.127031	0.287896	-0.371157
H661	H	-0.216946	0.291267	-0.416056
H662	H	-0.670182	0.118968	-0.568846
C663	C	-0.262118	-0.134445	0.016227
C664	C	-0.314146	-0.125263	-0.026184
C665	C	-0.365804	-0.099468	-0.028122
C666	C	-0.365435	-0.082856	0.012350
C667	C	-0.313405	-0.092038	0.054764
C668	C	-0.261747	-0.117833	0.056702
H669	H	-0.314421	-0.137561	-0.056146
H670	H	-0.404320	-0.092671	-0.059520
H671	H	-0.403676	-0.063761	0.010915
H672	H	-0.313130	-0.079741	0.084727
H673	H	-0.223231	-0.124630	0.088100
C674	C	-0.266089	0.358630	-0.131503
C675	C	-0.264638	0.396197	-0.109859
C676	C	-0.212973	0.394262	-0.084000
C677	C	-0.162758	0.354760	-0.079786
C678	C	-0.164207	0.317191	-0.101431
C679	C	-0.215872	0.319125	-0.127289
H680	H	-0.301812	0.425440	-0.112978
H681	H	-0.211900	0.422074	-0.067978
H682	H	-0.124512	0.353328	-0.060644
H683	H	-0.127033	0.287947	-0.098312
H684	H	-0.216945	0.291314	-0.143312
H685	H	-0.670444	0.119240	-0.444267
H686	H	-0.530975	0.377315	-0.374458
H687	H	-0.449948	0.365529	-0.223534
H688	H	0.002762	-0.156369	0.034945
H689	H	0.141846	-0.226245	0.023118
H690	H	-0.449934	0.365450	-0.568854
H691	H	-0.325085	0.365461	-0.444280
H692	H	-0.203108	-0.101693	0.023113
H693	H	0.220790	-0.141160	0.016706
H694	H	0.142138	-0.101702	0.023089
