data_functionalizedCrystal
_audit_creation_method	'MofGen! by Chris Wilmer'
_symmetry_space_group_name_H-M	'P1'
_symmetry_Int_Tables_number	1
_symmetry_cell_setting	triclinic
loop_
_symmetry_equiv_pos_as_xyz
  x,y,z
_cell_length_a	16.625548
_cell_length_b	19.805405
_cell_length_c	19.805398
_cell_angle_alpha	90.030326
_cell_angle_beta	89.987843
_cell_angle_gamma	89.972522
loop_
_atom_site_label
_atom_site_type_symbol
_atom_site_fract_x
_atom_site_fract_y
_atom_site_fract_z
Zn1	Zn	1.232591	0.269453	-0.382694
Zn2	Zn	1.232505	0.382643	-0.269502
Zn3	Zn	1.097773	0.269476	-0.269521
Zn4	Zn	1.097714	0.382607	-0.382651
O5	O	1.165146	0.326045	-0.326092
O6	O	1.345412	0.284473	-0.367689
O7	O	1.214621	0.367656	-0.174788
O8	O	1.115718	0.174756	-0.284559
O9	O	1.345349	0.367634	-0.284528
O10	O	1.214768	0.174739	-0.367707
O11	O	1.115634	0.284512	-0.174802
O12	O	0.984933	0.284477	-0.284517
O13	O	1.115618	0.367573	-0.477373
O14	O	0.984890	0.367595	-0.367634
O15	O	1.214711	0.284438	-0.477405
O16	O	1.214564	0.477355	-0.284486
O17	O	1.115534	0.477329	-0.367616
C18	C	1.165055	0.501901	-0.326059
C19	C	1.165090	0.577133	-0.326068
C20	C	0.955655	0.326035	-0.326073
C21	C	0.866034	0.326047	-0.326081
C22	C	1.165168	0.325999	-0.502635
C23	C	1.165177	0.325979	-0.577867
C24	C	0.537858	0.326052	-0.326110
C25	C	0.629167	0.326049	-0.326100
C26	C	0.701943	0.326050	-0.326095
C27	C	0.793258	0.326046	-0.326086
C28	C	1.375455	0.326055	-0.326111
C29	C	1.465076	0.326059	-0.326120
C30	C	1.165259	0.149502	-0.326140
C31	C	1.165307	0.074270	-0.326160
C32	C	1.216705	0.612468	-0.282828
C33	C	1.216740	0.683157	-0.282843
C34	C	1.165154	0.718508	-0.326095
C35	C	1.113537	0.683168	-0.369340
C36	C	1.113507	0.612481	-0.369328
C37	C	1.113656	0.968241	-0.369390
C38	C	1.113687	1.038933	-0.369398
C39	C	1.216888	1.038917	-0.282905
C40	C	1.216858	0.968230	-0.282893
C41	C	1.165245	0.932896	-0.326140
C42	C	1.165209	0.856247	-0.326124
C43	C	1.165185	0.795155	-0.326108
C44	C	1.216846	0.369165	-1.039649
C45	C	1.216824	0.369183	-0.968960
C46	C	1.165277	0.325903	-0.933629
C47	C	1.113743	0.282607	-0.968990
C48	C	1.113762	0.282592	-1.039677
C49	C	1.113665	0.282665	-0.683916
C50	C	1.113652	0.282681	-0.613224
C51	C	1.216728	0.369256	-0.613200
C52	C	1.216746	0.369241	-0.683887
C53	C	1.165210	0.325948	-0.719241
C54	C	1.165233	0.325929	-0.795890
C55	C	1.165257	0.325918	-0.856982
C56	C	1.165171	0.326041	-0.150236
C57	C	1.165318	0.325870	-0.075005
H58	H	1.258769	0.711924	-0.247631
H59	H	1.071803	0.247337	-1.068462
O60	O	1.266844	0.411348	-0.718102
C61	C	1.312335	0.449554	-0.671738
H62	H	1.279296	0.451906	-0.621348
H63	H	1.373587	0.424774	-0.664229
C64	C	1.364493	0.518698	-0.761192
C65	C	1.323910	0.521591	-0.699304
H66	H	1.371637	0.563133	-0.778197
H67	H	1.333848	0.492956	-0.792430
H68	H	1.415532	0.498045	-0.754927
H69	H	1.272868	0.542236	-0.705572
H70	H	1.354547	0.547339	-0.668068
O71	O	1.267060	1.073137	-0.240834
C72	C	1.312594	1.026776	-0.202667
H73	H	1.279545	0.976414	-0.200291
H74	H	1.373808	1.019195	-0.227498
C75	C	1.364879	1.116259	-0.133562
C76	C	1.324284	1.054405	-0.130639
H77	H	1.372094	1.133303	-0.089132
H78	H	1.334204	1.147494	-0.159277
H79	H	1.415886	1.109933	-0.154257
H80	H	1.273274	1.060734	-0.109952
H81	H	1.354951	1.023172	-0.104918
O82	O	1.266890	0.578235	-0.240788
C83	C	1.312440	0.624585	-0.202615
H84	H	1.315230	0.674951	-0.230351
H85	H	1.282958	0.632161	-0.151189
C86	C	1.394824	0.535084	-0.158852
C87	C	1.398257	0.596943	-0.192921
H88	H	1.447759	0.518033	-0.152870
H89	H	1.364135	0.503857	-0.184568
H90	H	1.370252	0.541406	-0.116001
H91	H	1.422819	0.590619	-0.235775
H92	H	1.428952	0.628169	-0.167212
O93	O	1.266854	0.933860	-0.240805
C94	C	1.220970	0.893021	-0.197057
H95	H	1.157478	0.914371	-0.192829
H96	H	1.218152	0.839436	-0.217974
C97	C	1.338406	0.865733	-0.131919
C98	C	1.260426	0.891959	-0.126721
H99	H	1.362745	0.865075	-0.088533
H100	H	1.369319	0.893245	-0.161394
H101	H	1.336046	0.821082	-0.149353
H102	H	1.262787	0.936612	-0.109296
H103	H	1.229513	0.864454	-0.097241
O104	O	1.063590	0.240545	-0.934775
C105	C	1.018126	0.202318	-0.981142
H106	H	1.015332	0.230032	-1.031521
H107	H	1.047684	0.150911	-0.988676
C108	C	0.935740	0.158531	-0.891682
C109	C	0.932303	0.192571	-0.953557
H110	H	0.882802	0.152515	-0.874666
H111	H	0.966372	0.184282	-0.860443
H112	H	0.960376	0.115695	-0.897969
H113	H	0.907678	0.235409	-0.947268
H114	H	0.901665	0.166827	-0.984794
H115	H	1.071681	1.067715	-0.404624
H116	H	1.071628	0.939478	-0.404602
H117	H	1.071538	0.711957	-0.404560
H118	H	1.071478	0.583711	-0.404540
H119	H	1.258826	0.404405	-1.068411
O120	O	1.266962	0.411255	-0.934721
C121	C	1.312455	0.449458	-0.981063
H122	H	1.315270	0.421724	-1.031460
H123	H	1.282908	0.500865	-0.988563
C124	C	1.394803	0.493273	-0.891575
C125	C	1.398266	0.459207	-0.953472
H126	H	1.447734	0.499290	-0.874555
H127	H	1.364152	0.467538	-0.860353
H128	H	1.370177	0.536109	-0.897834
H129	H	1.422882	0.416369	-0.947211
H130	H	1.428923	0.484936	-0.984693
H131	H	1.258689	0.404509	-0.584406
O132	O	1.063455	0.240713	-0.578932
C133	C	0.983090	0.255494	-0.596209
H134	H	0.978996	0.309562	-0.615625
H135	H	0.962038	0.219197	-0.637248
C136	C	0.934299	0.181230	-0.509566
C137	C	0.929270	0.247639	-0.533409
H138	H	0.901099	0.176382	-0.470830
H139	H	0.988443	0.171269	-0.497928
H140	H	0.916757	0.150990	-0.543772
H141	H	0.946821	0.277877	-0.499206
H142	H	0.875128	0.257605	-0.545040
H143	H	1.071699	0.247413	-0.712693
