data_functionalizedCrystal
_audit_creation_method	'MofGen! by Chris Wilmer'
_symmetry_space_group_name_H-M	'P1'
_symmetry_Int_Tables_number	1
_symmetry_cell_setting	triclinic
loop_
_symmetry_equiv_pos_as_xyz
  x,y,z
_cell_length_a	14.519731
_cell_length_b	14.519709
_cell_length_c	13.596369
_cell_angle_alpha	89.998664
_cell_angle_beta	89.993976
_cell_angle_gamma	83.684499
loop_
_atom_site_label
_atom_site_type_symbol
_atom_site_fract_x
_atom_site_fract_y
_atom_site_fract_z
O1	O	1.223858	0.120979	-0.081796
O2	O	1.473858	0.370979	0.168204
O3	O	1.723858	0.620979	0.418204
O4	O	1.973858	0.870979	0.668204
O5	O	0.955384	0.135195	-0.081797
O6	O	1.205384	0.385195	0.168203
O7	O	1.455384	0.635195	0.418203
O8	O	1.705384	0.885195	0.668203
O9	O	1.096739	-0.006151	-0.081788
O10	O	1.346739	0.243849	0.168212
O11	O	1.596739	0.493849	0.418212
O12	O	1.846739	0.743849	0.668212
O13	O	1.082503	0.262325	-0.081805
O14	O	1.332503	0.512325	0.168195
O15	O	1.582503	0.762325	0.418195
O16	O	1.832503	1.012325	0.668195
O17	O	1.096722	-0.006143	0.081795
O18	O	1.346722	0.243857	0.331795
O19	O	1.596722	0.493857	0.581795
O20	O	1.846722	0.743857	0.831795
O21	O	0.955366	0.135203	0.081785
O22	O	1.205366	0.385203	0.331785
O23	O	1.455366	0.635203	0.581785
O24	O	1.705366	0.885203	0.831785
O25	O	1.223841	0.120986	0.081787
O26	O	1.473841	0.370986	0.331787
O27	O	1.723841	0.620986	0.581787
O28	O	1.973841	0.870986	0.831787
Zn29	Zn	1.089601	0.128096	0.107759
Zn30	Zn	1.339601	0.378096	0.357759
Zn31	Zn	1.589601	0.628096	0.607759
Zn32	Zn	1.839601	0.878096	0.857759
Zn33	Zn	1.089624	0.128085	-0.107769
Zn34	Zn	1.339624	0.378085	0.142231
Zn35	Zn	1.589624	0.628085	0.392231
Zn36	Zn	1.839624	0.878085	0.642231
O37	O	1.082485	0.262332	0.081777
O38	O	1.332485	0.512332	0.331777
O39	O	1.582485	0.762332	0.581777
O40	O	1.832485	1.012332	0.831777
C41	C	0.921016	0.134532	-0.000006
C42	C	1.171016	0.384532	0.249994
C43	C	1.421016	0.634532	0.499994
C44	C	1.671016	0.884532	0.749994
C45	C	0.818635	0.132536	-0.000007
C46	C	1.068635	0.382536	0.249993
C47	C	1.318635	0.632536	0.499993
C48	C	1.568635	0.882536	0.749993
C49	C	1.096067	-0.040507	0.000004
C50	C	1.346067	0.209493	0.250004
C51	C	1.596067	0.459493	0.500004
C52	C	1.846067	0.709493	0.750004
C53	C	1.094079	-0.142889	0.000005
C54	C	1.344079	0.107111	0.250005
C55	C	1.594079	0.357111	0.500005
C56	C	1.844079	0.607111	0.750005
C57	C	0.735491	0.130915	-0.000010
C58	C	0.985491	0.380915	0.249990
C59	C	1.235491	0.630915	0.499990
C60	C	1.485491	0.880915	0.749990
C61	C	0.631182	0.128888	-0.000011
C62	C	0.881182	0.378888	0.249989
C63	C	1.131182	0.628888	0.499989
C64	C	1.381182	0.878888	0.749989
C65	C	0.548043	0.127280	-0.000010
C66	C	0.798043	0.377280	0.249990
C67	C	1.048043	0.627280	0.499990
C68	C	1.298043	0.877280	0.749990
C69	C	0.443728	0.125253	-0.000012
C70	C	0.693728	0.375253	0.249988
C71	C	0.943728	0.625253	0.499988
C72	C	1.193728	0.875253	0.749988
C73	C	1.086759	-0.517785	-0.000021
C74	C	1.336759	-0.267785	0.249979
C75	C	1.586759	-0.017785	0.499979
C76	C	1.836759	0.232215	0.749979
C77	C	1.088792	-0.413477	-0.000014
C78	C	1.338792	-0.163477	0.249986
C79	C	1.588792	0.086523	0.499986
C80	C	1.838792	0.336523	0.749986
C81	C	1.090419	-0.330340	-0.000007
C82	C	1.340419	-0.080340	0.249993
C83	C	1.590419	0.169660	0.499993
C84	C	1.840419	0.419660	0.749993
C85	C	1.092452	-0.226025	-0.000002
C86	C	1.342452	0.023975	0.249998
C87	C	1.592452	0.273975	0.499998
C88	C	1.842452	0.523975	0.749998
C89	C	1.258209	0.121649	-0.000006
C90	C	1.508209	0.371649	0.249994
C91	C	1.758209	0.621649	0.499994
C92	C	2.008209	0.871649	0.749994
C93	C	1.360589	0.123645	-0.000012
C94	C	1.610589	0.373645	0.249988
C95	C	1.860589	0.623645	0.499988
C96	C	2.110589	0.873645	0.749988
C97	C	1.083157	0.296688	-0.000016
C98	C	1.333157	0.546688	0.249984
C99	C	1.583157	0.796688	0.499984
C100	C	1.833157	1.046688	0.749984
C101	C	1.085146	0.399070	-0.000023
C102	C	1.335146	0.649070	0.249977
C103	C	1.585146	0.899070	0.499977
C104	C	1.835146	1.149070	0.749977
N105	N	1.089592	0.128102	0.254851
N106	N	1.339592	0.378102	0.504851
N107	N	1.589592	0.628102	0.754851
N108	N	1.839592	0.878102	1.004851
N109	N	1.089640	0.128072	-0.254861
N110	N	1.339640	0.378072	-0.004861
N111	N	1.589640	0.628072	0.245139
N112	N	1.839640	0.878072	0.495139
C113	C	1.089596	0.128104	0.343848
C114	C	1.339596	0.378104	0.593848
C115	C	1.589596	0.628104	0.843848
C116	C	1.839596	0.878104	1.093848
C117	C	1.089605	0.128098	0.455500
C118	C	1.339605	0.378098	0.705500
C119	C	1.589605	0.628098	0.955500
C120	C	1.839605	0.878098	1.205500
C121	C	1.089617	0.128088	0.544490
C122	C	1.339617	0.378088	0.794490
C123	C	1.589617	0.628088	1.044490
C124	C	1.839617	0.878088	1.294490
C125	C	1.089628	0.128082	0.656149
C126	C	1.339628	0.378082	0.906149
C127	C	1.589628	0.628082	1.156149
C128	C	1.839628	0.878082	1.406149
