data_functionalizedCrystal
_audit_creation_method	'MofGen! by Chris Wilmer'
_symmetry_space_group_name_H-M	'P1'
_symmetry_Int_Tables_number	1
_symmetry_cell_setting	triclinic
loop_
_symmetry_equiv_pos_as_xyz
  x,y,z
_cell_length_a	13.897449
_cell_length_b	16.120484
_cell_length_c	16.120297
_cell_angle_alpha	95.614431
_cell_angle_beta	92.879352
_cell_angle_gamma	92.926780
loop_
_atom_site_label
_atom_site_type_symbol
_atom_site_fract_x
_atom_site_fract_y
_atom_site_fract_z
Zn1	Zn	1.424987	-0.356719	-0.489429
Zn2	Zn	1.424865	-0.489409	-0.356740
Zn3	Zn	1.272296	-0.349658	-0.349678
Zn4	Zn	1.255025	-0.496454	-0.496465
O5	O	1.344293	-0.423060	-0.423078
O6	O	1.559951	-0.374328	-0.471839
O7	O	1.411804	-0.464968	-0.238841
O8	O	1.299829	-0.233630	-0.362316
O9	O	1.559862	-0.471814	-0.374352
O10	O	1.412011	-0.238817	-0.464991
O11	O	1.299711	-0.362293	-0.233653
O12	O	1.135024	-0.369124	-0.369139
O13	O	1.270394	-0.483821	-0.612494
O14	O	1.122336	-0.476974	-0.476983
O15	O	1.395264	-0.381159	-0.607325
O16	O	1.395057	-0.607309	-0.381175
O17	O	1.270276	-0.612484	-0.483830
C18	C	1.093681	-0.423048	-0.423059
C19	C	0.986465	-0.423064	-0.423071
C20	C	1.330804	-0.640225	-0.434051
C21	C	1.325120	-0.733131	-0.438773
C22	C	0.790169	-0.423068	-0.423093
C23	C	0.899402	-0.423063	-0.423078
C24	C	1.314747	-0.903231	-0.447411
C25	C	1.374011	-0.942049	-0.398759
C26	C	1.368240	-1.036699	-0.403566
C27	C	1.320518	-0.808573	-0.442606
C28	C	1.595884	-0.423073	-0.423098
C29	C	1.703097	-0.423078	-0.423107
C30	C	1.330916	-0.434063	-0.641084
C31	C	1.325216	-0.438752	-0.733985
C32	C	1.357860	-0.205048	-0.412081
C33	C	1.363641	-0.112144	-0.407395
C34	C	1.314774	-0.447294	-0.904076
C35	C	1.374018	-0.398576	-0.942920
C36	C	1.368208	-0.403329	-1.037564
C37	C	1.320583	-0.442542	-0.809423
C38	C	1.357678	-0.412040	-0.205917
C39	C	1.363579	-0.407115	-0.113005
H40	H	1.429083	-0.904197	-0.353497
H41	H	1.429101	-0.353296	-0.905095
C42	C	1.241344	-0.953840	-0.507670
C43	C	1.250121	-1.039014	-0.500488
C44	C	1.182508	-1.085670	-0.555973
H45	H	1.252736	-0.942490	-0.563170
H46	H	1.178126	-0.939069	-0.494668
H47	H	1.313324	-1.053780	-0.513496
H48	H	1.238720	-1.050390	-0.445000
H49	H	1.119290	-1.070899	-0.542971
H50	H	1.193906	-1.074313	-0.611470
H51	H	1.188448	-1.143465	-0.551102
H52	H	1.259695	-0.492569	-0.941898
