data_functionalizedCrystal
_audit_creation_method	'MofGen! by Chris Wilmer'
_symmetry_space_group_name_H-M	'P1'
_symmetry_Int_Tables_number	1
_symmetry_cell_setting	triclinic
loop_
_symmetry_equiv_pos_as_xyz
  x,y,z
_cell_length_a	11.792254
_cell_length_b	11.792241
_cell_length_c	10.868271
_cell_angle_alpha	90.005281
_cell_angle_beta	90.004259
_cell_angle_gamma	84.196007
loop_
_atom_site_label
_atom_site_type_symbol
_atom_site_fract_x
_atom_site_fract_y
_atom_site_fract_z
O1	O	1.506900	0.155637	0.102322
O2	O	1.840233	0.488970	0.435655
O3	O	2.173566	0.822304	0.768988
O4	O	1.176561	0.171655	0.102324
O5	O	1.509894	0.504988	0.435658
O6	O	1.843227	0.838322	0.768991
O7	O	1.349747	-0.001524	0.102314
O8	O	1.683080	0.331809	0.435648
O9	O	2.016413	0.665142	0.768981
O10	O	1.333714	0.328816	0.102332
O11	O	1.667047	0.662149	0.435665
O12	O	2.000380	0.995483	0.768998
O13	O	1.349732	-0.001531	-0.102330
O14	O	1.683066	0.331802	0.231003
O15	O	2.016399	0.665136	0.564336
O16	O	1.176546	0.171648	-0.102320
O17	O	1.509880	0.504981	0.231013
O18	O	1.843213	0.838315	0.564347
O19	O	1.506885	0.155630	-0.102323
O20	O	1.840219	0.488963	0.231010
O21	O	2.173552	0.822297	0.564344
Zn22	Zn	1.341714	0.163638	-0.134813
Zn23	Zn	1.675047	0.496971	0.198520
Zn24	Zn	2.008380	0.830305	0.531853
Zn25	Zn	1.341733	0.163647	0.134815
Zn26	Zn	1.675066	0.496980	0.468148
Zn27	Zn	2.008399	0.830314	0.801482
O28	O	1.333699	0.328809	-0.102313
O29	O	1.667033	0.662143	0.231020
O30	O	2.000366	0.995476	0.564354
C31	C	1.134263	0.170642	0.000002
C32	C	1.467596	0.503976	0.333336
C33	C	1.800929	0.837309	0.666669
C34	C	1.008250	0.167622	0.000003
C35	C	1.341583	0.500956	0.333337
C36	C	1.674916	0.834289	0.666670
C37	C	0.905913	0.165168	0.000008
C38	C	1.239247	0.498502	0.333342
C39	C	1.572580	0.831835	0.666675
C40	C	0.777527	0.162100	0.000009
C41	C	1.110860	0.495433	0.333342
C42	C	1.444193	0.828767	0.666676
C43	C	1.348732	-0.043819	-0.000008
C44	C	1.682066	0.289515	0.333326
C45	C	2.015399	0.622848	0.666659
C46	C	1.345718	-0.169832	-0.000006
C47	C	1.679051	0.163501	0.333327
C48	C	2.012385	0.496834	0.666660
C49	C	1.340175	-0.400545	0.000014
C50	C	1.673508	-0.067212	0.333348
C51	C	2.006842	0.266122	0.666681
C52	C	1.343255	-0.272160	0.000003
C53	C	1.676588	0.061174	0.333336
C54	C	2.009921	0.394507	0.666670
C55	C	1.549183	0.156643	0.000002
C56	C	1.882517	0.489976	0.333335
C57	C	2.215850	0.823309	0.666669
C58	C	1.675196	0.159663	0.000009
C59	C	2.008530	0.492996	0.333342
C60	C	2.341863	0.826329	0.666676
C61	C	1.334714	0.371104	0.000012
C62	C	1.668047	0.704437	0.333345
C63	C	2.001380	1.037770	0.666678
C64	C	1.337728	0.497118	0.000019
C65	C	1.671061	0.830451	0.333352
C66	C	2.004395	1.163784	0.666685
N67	N	1.341709	0.163631	-0.318827
N68	N	1.675042	0.496965	0.014506
N69	N	2.008376	0.830298	0.347839
C70	C	1.341727	0.163645	-0.569833
C71	C	1.675060	0.496978	-0.236500
C72	C	2.008393	0.830311	0.096833
C73	C	1.341713	0.163640	-0.430156
C74	C	1.675046	0.496974	-0.096823
C75	C	2.008380	0.830307	0.236511
N76	N	1.341746	0.163645	0.318829
N77	N	1.675079	0.496978	0.652162
N78	N	2.008413	0.830312	0.985496
