data_functionalizedCrystal
_audit_creation_method	'MofGen! by Chris Wilmer'
_symmetry_space_group_name_H-M	'P1'
_symmetry_Int_Tables_number	1
_symmetry_cell_setting	triclinic
loop_
_symmetry_equiv_pos_as_xyz
  x,y,z
_cell_length_a	10.654550
_cell_length_b	15.944551
_cell_length_c	9.130313
_cell_angle_alpha	89.994529
_cell_angle_beta	89.999724
_cell_angle_gamma	83.991834
loop_
_atom_site_label
_atom_site_type_symbol
_atom_site_fract_x
_atom_site_fract_y
_atom_site_fract_z
O1	O	1.666313	0.117977	-0.121694
O2	O	1.300689	0.129217	-0.121721
O3	O	1.493485	0.001379	-0.121693
O4	O	1.473517	0.245814	-0.121721
O5	O	1.493472	0.001376	0.121906
O6	O	1.300676	0.129213	0.121878
O7	O	1.666300	0.117973	0.121905
Cu8	Cu	1.483487	0.123592	0.144134
Cu9	Cu	1.483502	0.123597	-0.143950
O10	O	1.473503	0.245810	0.121878
C11	C	1.253895	0.128389	0.000075
C12	C	1.114484	0.125920	0.000065
C13	C	1.492650	-0.029921	0.000106
C14	C	1.490165	-0.123182	0.000107
C15	C	1.034024	0.201189	0.000061
C16	C	0.903034	0.198863	0.000087
C17	C	0.932975	0.045995	0.000115
C18	C	1.063963	0.048321	0.000100
C19	C	1.364720	-0.338764	0.000077
C20	C	1.422966	-0.399446	0.120191
C21	C	1.485668	-0.293933	0.000095
C22	C	1.423007	-0.399426	-0.119979
C23	C	1.481317	-0.458871	0.000078
C24	C	1.543947	-0.353387	0.120308
C25	C	1.543972	-0.353360	-0.119969
C26	C	1.602306	-0.414024	0.000173
C27	C	1.488172	-0.198917	0.000107
C28	C	1.478822	-0.553887	0.000077
C29	C	1.713094	0.118800	0.000106
C30	C	1.852505	0.121269	0.000106
C31	C	1.474339	0.277110	0.000075
C32	C	1.476824	0.370371	0.000065
N33	N	1.483485	0.123589	0.346757
N34	N	1.483514	0.123594	-0.346572
C35	C	1.568884	0.067007	0.423421
C36	C	1.568896	0.067007	0.576758
C37	C	1.398106	0.180179	0.576753
C38	C	1.398089	0.180174	0.423419
H39	H	1.075154	0.264375	0.000044
H40	H	1.264327	-0.306038	0.000190
C41	C	0.814533	0.281659	0.000071
H42	H	0.863387	0.328204	0.000038
H43	H	0.762818	0.283935	0.085025
H44	H	0.762808	0.283925	-0.084882
C45	C	1.662803	0.004759	0.339097
H46	H	1.713656	-0.028945	0.406722
H47	H	1.715072	0.035295	0.279262
H48	H	1.617614	-0.030493	0.279303
H49	H	0.891824	-0.017184	0.000152
C50	C	1.662839	0.004770	0.661082
H51	H	1.713697	-0.028924	0.593459
H52	H	1.617680	-0.030480	0.720914
H53	H	1.715120	0.035320	0.720880
C54	C	1.737990	-0.458122	0.000352
H55	H	1.751040	-0.492007	-0.084978
H56	H	1.750416	-0.492696	0.084928
H57	H	1.796209	-0.416886	0.001219
C58	C	1.152474	-0.034478	0.000098
H59	H	1.103628	-0.081027	0.000099
H60	H	1.204204	-0.036748	0.085040
H61	H	1.204185	-0.036745	-0.084868
C62	C	1.353861	-0.427022	0.257358
H63	H	1.409838	-0.464372	0.313912
H64	H	1.283282	-0.454888	0.228485
H65	H	1.325845	-0.378809	0.314313
C66	C	1.612979	-0.325990	0.257646
H67	H	1.614091	-0.266491	0.256842
H68	H	1.697122	-0.352432	0.258007
H69	H	1.570285	-0.342133	0.342827
H70	H	1.595090	-0.332933	-0.221513
H71	H	1.371841	-0.419797	-0.221532
H72	H	1.328580	0.226250	0.639186
C73	C	1.304149	0.242419	0.339083
H74	H	1.253305	0.276128	0.406698
H75	H	1.251872	0.211875	0.279283
H76	H	1.349325	0.277667	0.279252
