data_functionalizedCrystal
_audit_creation_method	'MofGen! by Chris Wilmer'
_symmetry_space_group_name_H-M	'P1'
_symmetry_Int_Tables_number	1
_symmetry_cell_setting	triclinic
loop_
_symmetry_equiv_pos_as_xyz
  x,y,z
_cell_length_a	19.288862
_cell_length_b	14.586319
_cell_length_c	19.288865
_cell_angle_alpha	90.009016
_cell_angle_beta	96.864237
_cell_angle_gamma	89.979846
loop_
_atom_site_label
_atom_site_type_symbol
_atom_site_fract_x
_atom_site_fract_y
_atom_site_fract_z
O1	O	-0.921348	0.076604	0.086639
O2	O	-0.588015	0.409938	0.419972
O3	O	-0.254682	0.743271	0.753306
O4	O	-0.719088	0.076530	0.098329
O5	O	-0.385754	0.409863	0.431663
O6	O	-0.052421	0.743197	0.764996
O7	O	-0.826062	0.076551	-0.008646
O8	O	-0.492729	0.409885	0.324687
O9	O	-0.159396	0.743218	0.658021
O10	O	-0.814374	0.076583	0.193615
O11	O	-0.481040	0.409917	0.526948
O12	O	-0.147707	0.743250	0.860281
O13	O	-0.826055	-0.075930	-0.008648
O14	O	-0.492722	0.257404	0.324686
O15	O	-0.159388	0.590737	0.658019
O16	O	-0.719080	-0.075951	0.098328
O17	O	-0.385747	0.257383	0.431661
O18	O	-0.052414	0.590716	0.764995
O19	O	-0.921341	-0.075876	0.086637
O20	O	-0.588008	0.257457	0.419971
O21	O	-0.254674	0.590790	0.753304
Cu22	Cu	-0.820210	-0.089836	0.092483
Cu23	Cu	-0.486877	0.243497	0.425816
Cu24	Cu	-0.153543	0.576830	0.759149
Cu25	Cu	-0.820219	0.090490	0.092484
Cu26	Cu	-0.486885	0.423823	0.425818
Cu27	Cu	-0.153552	0.757157	0.759151
O28	O	-0.814366	-0.075898	0.193613
O29	O	-0.481033	0.257436	0.526946
O30	O	-0.147700	0.590769	0.860280
C31	C	-0.693207	0.000280	0.097953
C32	C	-0.359874	0.333613	0.431286
C33	C	-0.026541	0.666947	0.764619
C34	C	-0.616104	0.000251	0.096824
C35	C	-0.282770	0.333584	0.430158
C36	C	0.050563	0.666917	0.763491
N37	N	-0.820209	-0.216668	0.092481
N38	N	-0.486876	0.116665	0.425814
N39	N	-0.153542	0.449999	0.759147
C40	C	-0.571407	0.000272	0.159593
C41	C	-0.238074	0.333606	0.492926
C42	C	0.095259	0.666939	0.826259
C43	C	-0.498960	0.000278	0.158533
C44	C	-0.165627	0.333611	0.491866
C45	C	0.167706	0.666944	0.825199
C46	C	-0.471213	0.000280	0.094701
C47	C	-0.137879	0.333613	0.428034
C48	C	0.195454	0.666946	0.761367
C49	C	-0.515919	0.000253	0.031924
C50	C	-0.182585	0.333586	0.365258
C51	C	0.150748	0.666919	0.698591
C52	C	-0.588364	0.000238	0.032986
C53	C	-0.255031	0.333572	0.366319
C54	C	0.078302	0.666905	0.699653
C55	C	-0.362953	0.053716	0.044523
C56	C	-0.029620	0.387049	0.377856
C57	C	0.303714	0.720383	0.711190
C58	C	-0.290509	0.053736	0.043464
C59	C	0.042825	0.387070	0.376797
C60	C	0.376158	0.720403	0.710130
C61	C	-0.247767	0.000320	0.091423
C62	C	0.085567	0.333653	0.424756
C63	C	0.418900	0.666987	0.758090
C64	C	-0.277477	-0.053104	0.140453
C65	C	0.055856	0.280229	0.473787
C66	C	0.389190	0.613562	0.807120
C67	C	-0.349923	-0.053119	0.141515
C68	C	-0.016589	0.280215	0.474848
C69	C	0.316744	0.613548	0.808182
C70	C	-0.392659	0.000295	0.093542
C71	C	-0.059325	0.333628	0.426876
C72	C	0.274008	0.666961	0.760209
C73	C	-0.124514	0.000346	0.153046
C74	C	0.208819	0.333680	0.486379
C75	C	0.542152	0.667013	0.819713
C76	C	-0.052066	0.000346	0.151983
C77	C	0.281267	0.333679	0.485317
C78	C	0.614600	0.667013	0.818650
C79	C	-0.069026	0.000330	0.025373
C80	C	0.264307	0.333663	0.358707
C81	C	0.597640	0.666997	0.692040
C82	C	-0.141473	0.000321	0.026438
C83	C	0.191860	0.333655	0.359771
C84	C	0.525194	0.666988	0.693104
C85	C	-0.169212	0.000334	0.090276
C86	C	0.164121	0.333667	0.423609
C87	C	0.497454	0.667000	0.756943
C88	C	-0.867593	-0.451665	0.045128
C89	C	-0.534260	-0.118332	0.378461
C90	C	-0.200926	0.215002	0.711794
C91	C	-0.867595	-0.547646	0.045126
C92	C	-0.534262	-0.214313	0.378459
C93	C	-0.200928	0.119020	0.711793
C94	C	-0.772836	-0.547675	0.139836
C95	C	-0.439503	-0.214341	0.473169
C96	C	-0.106170	0.118992	0.806503
C97	C	-0.772831	-0.451695	0.139834
C98	C	-0.439498	-0.118362	0.473167
C99	C	-0.106165	0.214972	0.806500
C100	C	-0.820214	-0.403693	0.092480
C101	C	-0.486880	-0.070359	0.425814
C102	C	-0.153547	0.262974	0.759147
C103	C	-0.820220	-0.595654	0.092481
C104	C	-0.486887	-0.262320	0.425814
C105	C	-0.153554	0.071013	0.759148
C106	C	-0.820222	-0.699721	0.092479
C107	C	-0.486889	-0.366387	0.425813
C108	C	-0.153556	-0.033054	0.759146
C109	C	-0.820211	-0.299619	0.092481
C110	C	-0.486878	0.033714	0.425814
C111	C	-0.153545	0.367048	0.759148
C112	C	0.052779	0.000360	0.087016
C113	C	0.386112	0.333693	0.420350
C114	C	0.719446	0.667026	0.753683
C115	C	-0.024324	0.000346	0.088151
C116	C	0.309010	0.333680	0.421484
C117	C	0.642343	0.667013	0.754818
C118	C	-0.825683	0.000308	-0.034523
C119	C	-0.492349	0.333641	0.298810
C120	C	-0.159016	0.666975	0.632143
C121	C	-0.824554	0.000299	-0.111627
C122	C	-0.491220	0.333633	0.221706
C123	C	-0.157887	0.666966	0.555040
N124	N	-0.820225	0.217322	0.092481
N125	N	-0.486892	0.550655	0.425814
N126	N	-0.153559	0.883988	0.759147
C127	C	-0.887322	0.000318	-0.156324
C128	C	-0.553988	0.333651	0.177010
C129	C	-0.220655	0.666985	0.510343
C130	C	-0.886261	0.000332	-0.228771
C131	C	-0.552928	0.333666	0.104563
C132	C	-0.219594	0.666999	0.437896
C133	C	-0.822429	0.000309	-0.256518
C134	C	-0.489095	0.333643	0.076816
C135	C	-0.155762	0.666976	0.410149
C136	C	-0.759652	0.000296	-0.211811
C137	C	-0.426319	0.333629	0.121522
C138	C	-0.092986	0.666963	0.454856
C139	C	-0.760715	0.000291	-0.139366
C140	C	-0.427382	0.333624	0.193968
C141	C	-0.094048	0.666958	0.527301
C142	C	-0.772246	-0.053120	-0.364805
C143	C	-0.438913	0.280213	-0.031472
C144	C	-0.105580	0.613547	0.301861
C145	C	-0.771187	-0.053121	-0.437250
C146	C	-0.437853	0.280213	-0.103916
C147	C	-0.104520	0.613546	0.229417
C148	C	-0.819149	0.000329	-0.479963
C149	C	-0.485816	0.333662	-0.146630
C150	C	-0.152482	0.666995	0.186703
C151	C	-0.868183	0.053767	-0.450225
C152	C	-0.534850	0.387100	-0.116892
C153	C	-0.201516	0.720433	0.216442
C154	C	-0.869246	0.053762	-0.377780
C155	C	-0.535912	0.387095	-0.044446
C156	C	-0.202579	0.720429	0.288887
C157	C	-0.821269	0.000315	-0.335072
C158	C	-0.487936	0.333649	-0.001738
C159	C	-0.154603	0.666982	0.331595
C160	C	-0.880771	0.000364	-0.603216
C161	C	-0.547438	0.333697	-0.269883
C162	C	-0.214105	0.667031	0.063450
C163	C	-0.879708	0.000384	-0.675664
C164	C	-0.546375	0.333717	-0.342331
C165	C	-0.213041	0.667050	-0.008998
C166	C	-0.753098	0.000338	-0.658703
C167	C	-0.419764	0.333671	-0.325370
C168	C	-0.086431	0.667005	0.007964
C169	C	-0.754163	0.000328	-0.586257
C170	C	-0.420829	0.333661	-0.252923
C171	C	-0.087496	0.666994	0.080410
C172	C	-0.818001	0.000336	-0.558518
C173	C	-0.484668	0.333669	-0.225184
C174	C	-0.151335	0.667003	0.108149
C175	C	-0.814746	0.000348	0.219490
C176	C	-0.481413	0.333681	0.552824
C177	C	-0.148079	0.667014	0.886157
C178	C	-0.815875	0.000362	0.296594
C179	C	-0.482542	0.333696	0.629927
C180	C	-0.149208	0.667029	0.963261
H181	H	-0.593988	0.000284	0.211575
H182	H	-0.260654	0.333618	0.544908
H183	H	0.072679	0.666951	0.878242
O184	O	-0.956172	0.000335	-0.126402
O185	O	-0.622839	0.333668	0.206931
O186	O	-0.289505	0.667002	0.540265
H187	H	-0.959683	0.062481	-0.093789
H188	H	-0.626350	0.395814	0.239544
H189	H	-0.293017	0.729147	0.572878
H190	H	-0.937376	0.000351	-0.265170
H191	H	-0.604042	0.333684	0.068163
H192	H	-0.270709	0.667018	0.401497
H193	H	-0.397748	0.097219	0.005467
H194	H	-0.064415	0.430553	0.338801
H195	H	0.268918	0.763886	0.672134
H196	H	-0.734246	-0.412633	0.178394
H197	H	-0.400913	-0.079300	0.511728
H198	H	-0.067580	0.254033	0.845061
H199	H	-0.462561	0.000293	0.209648
H200	H	-0.129228	0.333626	0.542981
H201	H	0.204105	0.666959	0.876314
O202	O	-0.918680	-0.399880	-0.005953
O203	O	-0.585347	-0.066546	0.327380
O204	O	-0.252014	0.266787	0.660713
H205	H	-0.972803	-0.418265	0.002743
H206	H	-0.639469	-0.084931	0.336076
H207	H	-0.306136	0.248402	0.669410
O208	O	-0.720516	-0.110782	-0.318741
O209	O	-0.387183	0.222551	0.014592
O210	O	-0.053849	0.555885	0.347926
H211	H	-0.688252	-0.065748	-0.281343
H212	H	-0.354919	0.267585	0.051990
H213	H	-0.021585	0.600918	0.385324
H214	H	-0.703050	0.000307	-0.549863
H215	H	-0.369717	0.333641	-0.216530
H216	H	-0.036383	0.666974	0.116804
H217	H	-0.909169	0.097275	-0.353570
H218	H	-0.575836	0.430608	-0.020236
H219	H	-0.242503	0.763941	0.313097
O220	O	-0.684248	0.000306	-0.688620
O221	O	-0.350915	0.333639	-0.355287
O222	O	-0.017581	0.666973	-0.021953
H223	H	-0.680738	0.062452	-0.721215
H224	H	-0.347405	0.395785	-0.387882
H225	H	-0.014071	0.729119	-0.054548
H226	H	-0.907238	0.097291	-0.485001
H227	H	-0.573905	0.430624	-0.151668
H228	H	-0.240572	0.763957	0.181665
O229	O	-0.485992	0.000255	-0.036922
O230	O	-0.152658	0.333588	0.296411
O231	O	0.180675	0.666922	0.629744
H232	H	-0.503932	-0.061908	-0.067068
H233	H	-0.170599	0.271426	0.266265
H234	H	0.162735	0.604759	0.599598
O235	O	-0.039113	0.000326	-0.043478
O236	O	0.294220	0.333659	0.289855
O237	O	0.627553	0.666993	0.623188
H238	H	-0.006540	0.062482	-0.046997
H239	H	0.326794	0.395816	0.286336
H240	H	0.660127	0.729149	0.619670
O241	O	-0.690806	0.000264	-0.241739
O242	O	-0.357473	0.333597	0.091594
O243	O	-0.024140	0.666930	0.424928
H244	H	-0.660660	0.062405	-0.223768
H245	H	-0.327326	0.395739	0.109566
H246	H	0.006007	0.729072	0.442899
H247	H	-0.731257	-0.096628	-0.461456
H248	H	-0.397924	0.236706	-0.128123
H249	H	-0.064591	0.570039	0.205210
O250	O	-0.693013	0.000255	-0.091150
O251	O	-0.359680	0.333588	0.242184
O252	O	-0.026346	0.666922	0.575517
H253	H	-0.648446	0.000235	-0.122611
H254	H	-0.315113	0.333568	0.210722
H255	H	0.018221	0.666902	0.544055
O256	O	-0.949621	0.000391	-0.573289
O257	O	-0.616287	0.333725	-0.239955
O258	O	-0.282954	0.667058	0.093378
H259	H	-0.993091	0.000424	-0.616544
H260	H	-0.659758	0.333758	-0.283211
H261	H	-0.326424	0.667091	0.050123
H262	H	-0.734260	-0.586768	0.178391
H263	H	-0.400926	-0.253434	0.511724
H264	H	-0.067593	0.079899	0.845058
O265	O	-0.947411	0.000396	-0.723879
O266	O	-0.614077	0.333729	-0.390546
O267	O	-0.280744	0.667063	-0.057213
H268	H	-0.991976	0.000390	-0.692416
H269	H	-0.658643	0.333723	-0.359083
H270	H	-0.325310	0.667056	-0.025749
H271	H	-0.906174	-0.586703	0.006566
H272	H	-0.572841	-0.253369	0.339900
H273	H	-0.239508	0.079964	0.673233
H274	H	-0.374110	-0.096622	0.181435
H275	H	-0.040776	0.236712	0.514768
H276	H	0.292557	0.570045	0.848102
H277	H	-0.624757	0.000221	-0.018129
H278	H	-0.291424	0.333554	0.315204
H279	H	0.041910	0.666888	0.648538
H280	H	-0.177866	0.000309	-0.024675
H281	H	0.155467	0.333642	0.308658
H282	H	0.488801	0.666975	0.641992
O283	O	-0.258473	0.111347	-0.009425
O284	O	0.074860	0.444680	0.323908
O285	O	0.408194	0.778014	0.657242
H286	H	-0.271453	0.184575	-0.002066
H287	H	0.061880	0.517908	0.331267
H288	H	0.395214	0.851241	0.664600
O289	O	-0.231390	-0.110730	0.192184
O290	O	0.101943	0.222603	0.525517
O291	O	0.435277	0.555937	0.858850
H292	H	-0.176024	-0.101758	0.183204
H293	H	0.157310	0.231575	0.516538
H294	H	0.490643	0.564909	0.849871
H295	H	-0.147101	0.000343	0.205027
H296	H	0.186232	0.333676	0.538360
H297	H	0.519566	0.667010	0.871694
H298	H	-0.015674	0.000358	0.203099
H299	H	0.317659	0.333692	0.536432
H300	H	0.650992	0.667025	0.869766
