data_functionalizedCrystal
_audit_creation_method	'MofGen! by Chris Wilmer'
_symmetry_space_group_name_H-M	'P1'
_symmetry_Int_Tables_number	1
_symmetry_cell_setting	triclinic
loop_
_symmetry_equiv_pos_as_xyz
  x,y,z
_cell_length_a	10.685661
_cell_length_b	10.686685
_cell_length_c	12.759393
_cell_angle_alpha	94.346808
_cell_angle_beta	85.614554
_cell_angle_gamma	81.623743
loop_
_atom_site_label
_atom_site_type_symbol
_atom_site_fract_x
_atom_site_fract_y
_atom_site_fract_z
Zn1	Zn	1.979440	-0.654122	-0.761977
Zn2	Zn	1.995607	-0.866382	-0.600904
Zn3	Zn	1.767169	-0.637898	-0.571750
Zn4	Zn	1.783437	-0.850003	-0.761975
O5	O	1.881413	-0.752101	-0.674152
O6	O	2.159215	-0.695923	-0.752812
O7	O	1.965262	-0.836138	-0.450017
O8	O	1.781753	-0.462451	-0.584784
O9	O	2.171092	-0.851870	-0.634472
O10	O	1.937708	-0.474371	-0.724543
O11	O	1.797429	-0.668272	-0.428598
O12	O	1.591696	-0.652389	-0.584782
O13	O	1.809479	-0.823954	-0.908995
O14	O	1.603648	-0.808222	-0.724540
O15	O	1.953482	-0.680041	-0.908997
O16	O	1.981036	-1.041808	-0.634471
O17	O	1.825155	-1.029774	-0.752809
C18	C	1.551615	-0.726768	-0.651498
C19	C	1.410528	-0.715961	-0.641833
C20	C	1.906650	-1.081843	-0.696828
C21	C	1.917562	-1.222917	-0.706573
C22	C	2.212499	-0.777534	-0.696895
C23	C	2.353588	-0.788372	-0.706586
C24	C	1.881492	-0.751980	-0.948182
C25	C	1.881526	-0.751928	-1.064958
C26	C	1.856113	-0.421074	-0.651411
C27	C	1.845331	-0.280010	-0.641721
C28	C	1.956519	-0.676986	-1.119823
C29	C	1.956545	-0.676942	-1.229546
C30	C	1.806583	-0.826794	-1.229530
C31	C	1.806551	-0.826830	-1.119808
C32	C	2.043102	-0.590474	-1.119833
C33	C	2.043129	-0.590431	-1.229556
C34	C	1.881400	-0.752136	-0.401186
C35	C	1.881585	-0.751849	-0.284403
H36	H	1.351334	-0.645692	-0.579000
O37	O	1.761732	-1.209647	-0.566457
C38	C	1.697072	-1.164387	-0.380714
C39	C	1.791853	-1.244146	-0.465840
H40	H	1.721375	-1.192269	-0.299347
H41	H	1.702896	-1.059329	-0.385888
H42	H	1.596707	-1.182577	-0.393900
H43	H	1.892260	-1.226065	-0.452710
H44	H	1.785917	-1.349177	-0.460644
O45	O	2.001199	-1.293541	-0.781677
C46	C	2.088789	-1.503267	-0.860116
C47	C	1.994001	-1.423438	-0.775033
H48	H	2.083021	-1.608305	-0.854758
H49	H	2.064455	-1.475604	-0.941534
H50	H	2.189142	-1.484982	-0.846994
H51	H	1.893616	-1.441681	-0.788055
H52	H	2.018445	-1.451115	-0.693644
O53	O	1.733650	-0.899724	-1.066677
C54	C	1.584809	-1.048249	-1.078232
C55	C	1.667344	-0.965785	-1.138537
H56	H	1.531158	-1.101660	-1.136302
H57	H	1.648064	-1.119196	-1.035441
H58	H	1.514032	-0.984859	-1.018287
H59	H	1.738131	-1.029074	-1.198533
H60	H	1.604010	-0.894829	-1.181256
H61	H	1.745539	-0.887773	-1.274202
O62	O	2.002640	-0.470752	-1.074265
C63	C	1.929109	-0.252543	-1.101483
C64	C	1.974885	-0.388067	-1.153224
H65	H	1.906682	-0.185650	-1.165299
H66	H	1.840009	-0.252010	-1.046168
H67	H	2.006843	-0.219626	-1.054670
H68	H	1.897239	-0.421068	-1.200091
H69	H	2.064018	-0.388523	-1.208480
O70	O	2.157803	-0.641028	-1.089936
C71	C	2.373322	-0.736161	-1.146162
C72	C	2.243501	-0.678910	-1.180166
H73	H	2.442637	-0.766829	-1.219096
H74	H	2.411568	-0.662029	-1.093628
H75	H	2.361835	-0.822098	-1.100580
H76	H	2.254881	-0.592988	-1.225790
H77	H	2.205300	-0.753122	-1.232649
H78	H	2.000785	-0.494341	-1.254759
H79	H	2.143461	-0.624301	-1.267895
H80	H	1.412774	-0.858625	-0.769424
