data_functionalizedCrystal
_audit_creation_method	'MofGen! by Chris Wilmer'
_symmetry_space_group_name_H-M	'P1'
_symmetry_Int_Tables_number	1
_symmetry_cell_setting	triclinic
loop_
_symmetry_equiv_pos_as_xyz
  x,y,z
_cell_length_a	21.295418
_cell_length_b	18.215405
_cell_length_c	18.215399
_cell_angle_alpha	90.032960
_cell_angle_beta	89.964127
_cell_angle_gamma	89.959302
loop_
_atom_site_label
_atom_site_type_symbol
_atom_site_fract_x
_atom_site_fract_y
_atom_site_fract_z
Zn1	Zn	0.962332	0.292664	-0.416477
Zn2	Zn	1.462332	0.792664	0.083523
Zn3	Zn	0.962259	0.415740	-0.293405
Zn4	Zn	1.462259	0.915740	0.206595
Zn5	Zn	0.857069	0.292726	-0.293383
Zn6	Zn	1.357069	0.792726	0.206617
Zn7	Zn	0.857034	0.415727	-0.416389
Zn8	Zn	1.357034	0.915727	0.083611
O9	O	0.909673	0.354214	-0.354913
O10	O	1.409673	0.854214	0.145087
O11	O	1.050411	0.308969	-0.400197
O12	O	1.550411	0.808969	0.099803
O13	O	0.948289	0.399454	-0.190418
O14	O	1.448289	0.899454	0.309582
O15	O	0.871077	0.189733	-0.309740
O16	O	1.371077	0.689733	0.190260
O17	O	1.050358	0.399393	-0.309776
O18	O	1.550358	0.899393	0.190224
O19	O	0.948413	0.189688	-0.400176
O20	O	1.448413	0.689688	0.099824
O21	O	0.871007	0.309076	-0.190402
O22	O	1.371007	0.809076	0.309598
O23	O	0.768975	0.309063	-0.309654
O24	O	1.268975	0.809063	0.190346
O25	O	0.871018	0.399371	-0.519385
O26	O	1.371018	0.899371	-0.019385
O27	O	0.768950	0.399431	-0.400026
O28	O	1.268950	0.899431	0.099974
O29	O	0.948380	0.308957	-0.519449
O30	O	1.448380	0.808957	-0.019449
O31	O	0.948255	0.518723	-0.309691
O32	O	1.448255	1.018723	0.190309
O33	O	0.870948	0.518713	-0.400047
O34	O	1.370948	1.018713	0.099953
C35	C	0.746122	0.354253	-0.354829
C36	C	1.246122	0.854253	0.145171
C37	C	0.676154	0.354287	-0.354810
C38	C	1.176154	0.854287	0.145190
C39	C	0.909607	0.545420	-0.354878
C40	C	1.409607	1.045420	0.145122
C41	C	0.909636	0.627219	-0.354887
C42	C	1.409636	1.127219	0.145113
C43	C	0.909703	0.354155	-0.546866
C44	C	1.409703	0.854155	-0.046866
C45	C	0.909716	0.354130	-0.628665
C46	C	1.409716	0.854130	-0.128665
C47	C	0.643290	0.401404	-0.401796
C48	C	1.143290	0.901404	0.098204
C49	C	0.577548	0.401386	-0.401829
C50	C	1.077548	0.901386	0.098171
C51	C	0.544671	0.354259	-0.354863
C52	C	1.044671	0.854259	0.145137
C53	C	0.577543	0.307132	-0.307873
C54	C	1.077543	0.807132	0.192127
C55	C	0.643284	0.307147	-0.307847
C56	C	1.143284	0.807147	0.192153
N57	N	0.441402	0.348513	-0.290496
N58	N	0.941402	0.848513	0.209504
N59	N	0.378951	0.348504	-0.290523
N60	N	0.878951	0.848504	0.209477
C61	C	0.346597	0.354212	-0.354941
C62	C	0.846597	0.854212	0.145059
N63	N	0.379053	0.359944	-0.419332
N64	N	0.879053	0.859944	0.080668
N65	N	0.441510	0.359957	-0.419304
N66	N	0.941510	0.859957	0.080696
C67	C	0.473386	0.354238	-0.354887
C68	C	0.973386	0.854238	0.145113
C69	C	0.242448	0.401312	-0.401967
C70	C	0.742448	0.901312	0.098033
C71	C	0.176704	0.401288	-0.402001
C72	C	0.676704	0.901288	0.097999
C73	C	0.176700	0.307038	-0.308039
C74	C	0.676700	0.807038	0.191961
C75	C	0.242442	0.307058	-0.308011
C76	C	0.742442	0.807058	0.191989
C77	C	0.275312	0.354198	-0.354974
C78	C	0.775312	0.854198	0.145026
C79	C	1.073864	0.354176	-0.354999
C80	C	1.573864	0.854176	0.145001
C81	C	1.143832	0.354159	-0.355035
C82	C	1.643832	0.854159	0.144965
C83	C	0.909757	0.162261	-0.354965
C84	C	1.409757	0.662261	0.145035
C85	C	0.909793	0.080462	-0.354987
C86	C	1.409793	0.580462	0.145013
C87	C	0.949985	0.815394	-0.307926
C88	C	1.449985	1.315394	0.192074
C89	C	0.950013	0.892252	-0.307944
C90	C	1.450013	1.392252	0.192056
C91	C	0.869443	0.892282	-0.401954
C92	C	1.369443	1.392282	0.098046
C93	C	0.869418	0.815425	-0.401939
C94	C	1.369418	1.315425	0.098061
C95	C	0.909688	0.776983	-0.354921
C96	C	1.409688	1.276983	0.145079
C97	C	0.909741	0.930699	-0.354954
C98	C	1.409741	1.430699	0.145046
C99	C	0.909771	1.014032	-0.354973
C100	C	1.409771	1.514032	0.145027
C101	C	0.909659	0.693644	-0.354902
C102	C	1.409659	1.193644	0.145098
C103	C	0.869509	0.307039	-0.816852
C104	C	1.369509	0.807039	-0.316852
C105	C	0.869520	0.307024	-0.893711
C106	C	1.369520	0.807024	-0.393711
C107	C	0.949998	0.401134	-0.893717
C108	C	1.449998	0.901134	-0.393717
C109	C	0.949983	0.401152	-0.816859
C110	C	1.449983	0.901152	-0.316859
C111	C	0.909740	0.354100	-0.778429
C112	C	1.409740	0.854100	-0.278429
C113	C	0.909765	0.354067	-0.932145
C114	C	1.409765	0.854067	-0.432145
C115	C	0.909778	0.354052	-1.015479
C116	C	1.409778	0.854052	-0.515479
C117	C	0.909727	0.354117	-0.695090
C118	C	1.409727	0.854117	-0.195090
C119	C	0.909680	0.354220	-0.163707
C120	C	1.409680	0.854220	0.336293
C121	C	0.909789	0.354037	-0.081909
C122	C	1.409789	0.854037	0.418091
H123	H	0.670049	0.439789	-0.440038
H124	H	1.170049	0.939789	0.059962
H125	H	0.149933	0.268663	-0.269801
H126	H	0.649933	0.768663	0.230199
Br127	Br	0.814908	0.243164	-0.945854
Br128	Br	1.314908	0.743164	-0.445854
H129	H	0.269212	0.439692	-0.440211
H130	H	0.769212	0.939692	0.059789
H131	H	0.836655	0.923592	-0.440233
H132	H	1.336655	1.423592	0.059767
H133	H	0.982763	0.439442	-0.925016
H134	H	1.482763	0.939442	-0.425016
Br135	Br	0.532937	0.465334	-0.465602
Br136	Br	1.032937	0.965334	0.034398
H137	H	0.149948	0.439655	-0.440268
H138	H	0.649948	0.939655	0.059732
Br139	Br	0.287046	0.243110	-0.244240
Br140	Br	0.787046	0.743110	0.255760
Br141	Br	1.004582	0.465031	-0.764709
Br142	Br	1.504582	0.965031	-0.264709
H143	H	0.550770	0.268759	-0.269634
H144	H	1.050770	0.768759	0.230366
H145	H	0.982776	0.784096	-0.269642
H146	H	1.482776	1.284096	0.230358
Br147	Br	1.004707	0.944379	-0.244166
Br148	Br	1.504707	1.444379	0.255834
Br149	Br	0.814731	0.763291	-0.465730
Br150	Br	1.314731	1.263291	0.034270
H151	H	0.836740	0.268726	-0.785564
H152	H	1.336740	0.768726	-0.285564
H153	H	0.670041	0.268776	-0.269585
H154	H	1.170041	0.768776	0.230415
