data_functionalizedCrystal
_audit_creation_method	'MofGen! by Chris Wilmer'
_symmetry_space_group_name_H-M	'P1'
_symmetry_Int_Tables_number	1
_symmetry_cell_setting	triclinic
loop_
_symmetry_equiv_pos_as_xyz
  x,y,z
_cell_length_a	19.288856
_cell_length_b	9.730223
_cell_length_c	19.288865
_cell_angle_alpha	89.993453
_cell_angle_beta	83.134504
_cell_angle_gamma	89.997815
loop_
_atom_site_label
_atom_site_type_symbol
_atom_site_fract_x
_atom_site_fract_y
_atom_site_fract_z
O1	O	-0.921348	0.114368	-0.086616
O2	O	-0.421348	0.614368	0.413384
O3	O	-0.719087	0.114359	-0.098311
O4	O	-0.219087	0.614359	0.401689
O5	O	-0.826062	0.114337	0.008667
O6	O	-0.326062	0.614337	0.508667
O7	O	-0.814373	0.114391	-0.193594
O8	O	-0.314373	0.614391	0.306406
O9	O	-0.826060	-0.114243	0.008664
O10	O	-0.326060	0.385757	0.508664
O11	O	-0.719085	-0.114221	-0.098314
O12	O	-0.219085	0.385779	0.401686
O13	O	-0.921347	-0.114212	-0.086619
O14	O	-0.421347	0.385788	0.413381
Zn15	Zn	-0.820216	-0.150508	-0.092467
Zn16	Zn	-0.320216	0.349492	0.407533
Zn17	Zn	-0.820218	0.150656	-0.092464
Zn18	Zn	-0.320218	0.650656	0.407536
O19	O	-0.814372	-0.114189	-0.193597
O20	O	-0.314372	0.385811	0.306403
C21	C	-0.693209	0.000068	-0.097937
C22	C	-0.193209	0.500068	0.402063
C23	C	-0.616105	0.000063	-0.096811
C24	C	-0.116105	0.500063	0.403189
C25	C	-0.052064	0.000058	-0.151959
C26	C	0.447936	0.500058	0.348041
C27	C	-0.124511	0.000069	-0.153024
C28	C	0.375489	0.500069	0.346976
C29	C	-0.169218	0.000051	-0.090254
C30	C	0.330782	0.500051	0.409746
C31	C	-0.141472	0.000058	-0.026415
C32	C	0.358528	0.500058	0.473585
C33	C	-0.069027	0.000062	-0.025352
C34	C	0.430973	0.500062	0.474648
C35	C	-0.290488	-0.080044	-0.043441
C36	C	0.209512	0.419956	0.456559
C37	C	-0.362931	-0.080056	-0.044506
C38	C	0.137069	0.419944	0.455494
C39	C	-0.392664	0.000046	-0.093530
C40	C	0.107336	0.500046	0.406470
C41	C	-0.349942	0.080143	-0.141499
C42	C	0.150058	0.580143	0.358501
C43	C	-0.277496	0.080146	-0.140436
C44	C	0.222504	0.580146	0.359564
C45	C	-0.247773	0.000048	-0.091399
C46	C	0.252227	0.500048	0.408601
C47	C	-0.498955	0.000060	-0.158519
C48	C	0.001045	0.500060	0.341481
C49	C	-0.571404	0.000079	-0.159581
C50	C	-0.071404	0.500079	0.340419
C51	C	-0.588364	0.000054	-0.032971
C52	C	-0.088364	0.500054	0.467029
C53	C	-0.515917	0.000049	-0.031910
C54	C	-0.015917	0.500049	0.468090
C55	C	-0.471217	0.000046	-0.094687
C56	C	0.028783	0.500046	0.405313
N57	N	-0.820220	-0.356044	-0.092469
N58	N	-0.320220	0.143956	0.407531
C59	C	-0.867600	-0.427980	-0.045115
C60	C	-0.367600	0.072020	0.454885
C61	C	-0.867599	-0.571863	-0.045107
C62	C	-0.367599	-0.071863	0.454893
C63	C	-0.772833	-0.571862	-0.139812
C64	C	-0.272833	-0.071862	0.360188
C65	C	-0.772832	-0.427981	-0.139817
C66	C	-0.272832	0.072019	0.360183
C67	C	-0.914988	-0.356044	0.002233
C68	C	-0.414988	0.143956	0.502233
C69	C	-0.962373	-0.427980	0.049590
C70	C	-0.462373	0.072020	0.549590
C71	C	-0.962371	-0.571863	0.049599
C72	C	-0.462371	-0.071863	0.549599
C73	C	-0.914984	-0.643809	0.002250
C74	C	-0.414984	-0.143809	0.502250
C75	C	0.052776	0.000073	-0.086995
C76	C	0.552776	0.500073	0.413005
C77	C	-0.024327	0.000058	-0.088128
C78	C	0.475673	0.500058	0.411872
C79	C	-0.825685	0.000043	0.034542
C80	C	-0.325685	0.500043	0.534542
C81	C	-0.824556	0.000031	0.111645
C82	C	-0.324556	0.500031	0.611645
N83	N	-0.820219	0.356192	-0.092456
N84	N	-0.320219	0.856192	0.407544
C85	C	-0.814748	0.000108	-0.219472
C86	C	-0.314748	0.500108	0.280528
C87	C	-0.815877	0.000129	-0.296576
C88	C	-0.315877	0.500129	0.203424
C89	C	-0.887324	0.000027	0.156343
C90	C	-0.387324	0.500027	0.656343
C91	C	-0.886263	0.000048	0.228790
C92	C	-0.386263	0.500048	0.728790
C93	C	-0.822431	0.000046	0.256536
C94	C	-0.322431	0.500046	0.756536
C95	C	-0.759655	0.000058	0.211828
C96	C	-0.259655	0.500058	0.711828
C97	C	-0.760717	0.000050	0.139383
C98	C	-0.260717	0.500050	0.639383
C99	C	-0.772251	-0.080022	0.364821
C100	C	-0.272251	0.419978	0.864821
C101	C	-0.771191	-0.080023	0.437265
C102	C	-0.271191	0.419977	0.937265
C103	C	-0.819151	0.000077	0.479982
C104	C	-0.319151	0.500077	0.979982
C105	C	-0.868183	0.080160	0.450246
C106	C	-0.368183	0.580160	0.950246
C107	C	-0.869246	0.080152	0.377800
C108	C	-0.369246	0.580152	0.877800
C109	C	-0.821272	0.000056	0.335090
C110	C	-0.321272	0.500056	0.835090
C111	C	-0.880774	0.000099	0.603236
C112	C	-0.380774	0.500099	1.103236
C113	C	-0.879710	0.000129	0.675684
C114	C	-0.379710	0.500129	1.175684
C115	C	-0.753100	0.000125	0.658720
C116	C	-0.253100	0.500125	1.158720
C117	C	-0.754165	0.000108	0.586273
C118	C	-0.254165	0.500108	1.086273
C119	C	-0.818004	0.000089	0.558536
C120	C	-0.318004	0.500089	1.058536
H121	H	-0.015673	0.000062	-0.203076
H122	H	0.484327	0.500062	0.296924
Br123	Br	-0.708528	-0.669502	-0.204068
Br124	Br	-0.208528	-0.169502	0.295932
H125	H	-0.242715	0.145366	-0.179493
H126	H	0.257285	0.645366	0.320507
H127	H	-1.000950	-0.369393	0.088144
H128	H	-0.500950	0.130607	0.588144
Br129	Br	-0.704653	-0.188714	0.477614
Br130	Br	-0.204653	0.311286	0.977614
H131	H	-0.939307	0.000015	0.133765
H132	H	-0.439307	0.500015	0.633765
Br133	Br	-0.914996	-0.160775	0.002219
Br134	Br	-0.414996	0.339225	0.502219
H135	H	-0.734250	-0.369410	-0.178376
H136	H	-0.234250	0.130590	0.321624
Br137	Br	-0.967410	0.000058	0.565588
Br138	Br	-0.467410	0.500058	1.065588
Br139	Br	-0.707156	-0.188740	0.306856
Br140	Br	-0.207156	0.311260	0.806856
H141	H	-0.937378	0.000051	0.265191
H142	H	-0.437378	0.500051	0.765191
H143	H	-0.909168	0.145361	0.353593
H144	H	-0.409168	0.645361	0.853593
Br145	Br	-0.390281	0.188839	-0.208045
Br146	Br	0.109719	0.688839	0.291955
Br147	Br	-0.438287	0.000056	-0.243713
Br148	Br	0.061713	0.500056	0.256287
H149	H	-0.930826	0.000133	0.712077
H150	H	-0.430826	0.500133	1.212077
Br151	Br	-0.933278	0.188874	0.508209
Br152	Br	-0.433278	0.688874	1.008209
H153	H	-1.000949	-0.630432	0.088163
H154	H	-0.500949	-0.130432	0.588163
Br155	Br	-0.666468	0.000136	0.696366
Br156	Br	-0.166468	0.500136	1.196366
Br157	Br	-0.250150	-0.188670	0.023137
Br158	Br	0.249850	0.311330	0.523137
H159	H	-0.593985	0.000091	-0.211562
H160	H	-0.093985	0.500091	0.288438
H161	H	-0.624764	0.000051	0.018138
H162	H	-0.124764	0.500051	0.518138
Br163	Br	-0.668975	0.000112	0.525607
Br164	Br	-0.168975	0.500112	1.025607
Br165	Br	-0.673024	0.000073	0.249480
Br166	Br	-0.173024	0.500073	0.749480
H167	H	-0.709602	0.000053	0.102988
H168	H	-0.209602	0.500053	0.602988
H169	H	-0.147099	0.000056	-0.205004
H170	H	0.352901	0.500056	0.294996
H171	H	-0.046445	0.000061	0.026628
H172	H	0.453555	0.500061	0.526628
Br173	Br	-0.478270	0.000060	0.054722
Br174	Br	0.021730	0.500060	0.554722
H175	H	-0.397710	-0.145282	-0.005450
H176	H	0.102290	0.354718	0.494550
H177	H	-0.177877	0.000048	0.024693
H178	H	0.322123	0.500048	0.524693
Br179	Br	-0.914977	-0.839081	0.002272
Br180	Br	-0.414977	-0.339081	0.502272
