data_functionalizedCrystal
_audit_creation_method	'MofGen! by Chris Wilmer'
_symmetry_space_group_name_H-M	'P1'
_symmetry_Int_Tables_number	1
_symmetry_cell_setting	triclinic
loop_
_symmetry_equiv_pos_as_xyz
  x,y,z
_cell_length_a	19.188930
_cell_length_b	17.699077
_cell_length_c	16.176319
_cell_angle_alpha	89.993140
_cell_angle_beta	89.988074
_cell_angle_gamma	83.212679
loop_
_atom_site_label
_atom_site_type_symbol
_atom_site_fract_x
_atom_site_fract_y
_atom_site_fract_z
O1	O	0.088275	1.003965	-0.068745
O2	O	0.588275	1.503965	0.431255
O3	O	0.099766	0.783571	-0.068750
O4	O	0.599766	1.283571	0.431250
O5	O	-0.007628	0.900128	-0.068731
O6	O	0.492372	1.400128	0.431269
O7	O	0.195669	0.887408	-0.068764
O8	O	0.695669	1.387408	0.431236
O9	O	-0.007635	0.900112	0.068762
O10	O	0.492365	1.400112	0.568762
O11	O	0.099759	0.783555	0.068743
O12	O	0.599759	1.283555	0.568743
O13	O	0.088268	1.003949	0.068748
O14	O	0.588268	1.503949	0.568748
Cu15	Cu	0.094013	0.893751	0.081300
Cu16	Cu	0.594013	1.393751	0.581300
Cu17	Cu	0.094021	0.893770	-0.081302
Cu18	Cu	0.594021	1.393770	0.418698
O19	O	0.195662	0.887392	0.068729
O20	O	0.695662	1.387392	0.568729
C21	C	0.099352	0.755367	-0.000004
C22	C	0.599352	1.255367	0.499996
C23	C	0.098119	0.671350	-0.000005
C24	C	0.598119	1.171350	0.499995
C25	C	0.097534	0.631875	0.074943
C26	C	0.597534	1.131875	0.574943
C27	C	0.096364	0.552934	0.074944
C28	C	0.596364	1.052934	0.574944
C29	C	0.095784	0.513469	-0.000004
C30	C	0.595784	1.013469	0.499996
C31	C	0.096367	0.552950	-0.074958
C32	C	0.596367	1.052950	0.425042
C33	C	0.097532	0.631890	-0.074959
C34	C	0.597532	1.131890	0.425041
C35	C	0.091668	0.234593	-0.074959
C36	C	0.591668	0.734593	0.425041
C37	C	0.090505	0.155647	-0.074953
C38	C	0.590505	0.655647	0.425047
C39	C	0.090501	0.155636	0.074944
C40	C	0.590501	0.655636	0.574944
C41	C	0.091665	0.234577	0.074943
C42	C	0.591665	0.734577	0.574943
C43	C	0.092244	0.274051	-0.000010
C44	C	0.592244	0.774051	0.499990
C45	C	0.093512	0.359648	-0.000011
C46	C	0.593512	0.859648	0.499989
C47	C	0.094522	0.427872	-0.000005
C48	C	0.594522	0.927872	0.499995
C49	C	-0.033643	0.899708	0.000018
C50	C	0.466357	1.399708	0.500018
C51	C	-0.111149	0.898472	0.000025
C52	C	0.388851	1.398472	0.500025
C53	C	-0.155998	0.966864	0.000030
C54	C	0.344002	1.466864	0.500030
C55	C	-0.228823	0.965702	0.000017
C56	C	0.271177	1.465702	0.500017
C57	C	-0.256796	0.896145	0.000015
C58	C	0.243204	1.396145	0.500015
C59	C	-0.211937	0.827744	0.000005
C60	C	0.288063	1.327744	0.500005
C61	C	-0.139114	0.828907	0.000010
C62	C	0.360886	1.328907	0.500010
N63	N	-0.364862	0.842971	0.046805
N64	N	0.135138	1.342971	0.546805
N65	N	-0.434041	0.841870	0.046802
N66	N	0.065959	1.341870	0.546802
C67	C	-0.476208	0.892634	-0.000002
C68	C	0.023792	1.392634	0.499998
N69	N	-0.446583	0.944553	-0.046793
N70	N	0.053417	1.444553	0.453207
N71	N	-0.377397	0.945656	-0.046786
N72	N	0.122603	1.445656	0.453214
C73	C	-0.335760	0.894875	0.000009
C74	C	0.164240	1.394875	0.500009
C75	C	-0.600023	0.959771	-0.000012
C76	C	-0.100023	1.459771	0.499988
C77	C	-0.672849	0.958607	-0.000030
C78	C	-0.172849	1.458607	0.499970
C79	C	-0.655962	0.820646	-0.000035
C80	C	-0.155962	1.320646	0.499965
C81	C	-0.583137	0.821813	-0.000024
C82	C	-0.083137	1.321813	0.499976
C83	C	-0.555173	0.891378	-0.000009
C84	C	-0.055173	1.391378	0.499991
C85	C	0.221677	0.887812	-0.000021
C86	C	0.721677	1.387812	0.499979
C87	C	0.299183	0.889049	-0.000034
C88	C	0.799183	1.389049	0.499966
C89	C	0.088682	1.032154	0.000000
C90	C	0.588682	1.532154	0.500000
C91	C	0.089915	1.116171	-0.000004
C92	C	0.589915	1.616171	0.499996
N93	N	0.094007	0.893743	0.195665
N94	N	0.594007	1.393743	0.695665
N95	N	0.094022	0.893784	-0.195667
N96	N	0.594022	1.393784	0.304333
C97	C	0.046472	0.945370	0.238938
C98	C	0.546472	1.445370	0.738938
C99	C	0.046471	0.945374	0.325485
C100	C	0.546471	1.445374	0.825485
C101	C	0.094009	0.893754	0.368758
C102	C	0.594009	1.393754	0.868758
C103	C	0.141546	0.842121	0.325479
C104	C	0.641546	1.342121	0.825479
C105	C	0.141543	0.842115	0.238934
C106	C	0.641543	1.342115	0.738934
C107	C	0.141560	0.842147	0.674507
C108	C	0.641560	1.342147	1.174507
C109	C	0.141560	0.842160	0.761059
C110	C	0.641560	1.342160	1.261059
C111	C	0.046488	0.945407	0.761058
C112	C	0.546488	1.445407	1.261058
C113	C	0.046484	0.945400	0.674513
C114	C	0.546484	1.445400	1.174513
C115	C	0.094019	0.893765	0.631242
C116	C	0.594019	1.393765	1.131242
C117	C	0.094018	0.893761	0.537398
C118	C	0.594018	1.393761	1.037398
C119	C	0.094014	0.893761	0.462600
C120	C	0.594014	1.393761	0.962600
H121	H	0.092141	0.266705	0.135974
H122	H	0.592141	0.766705	0.635974
H123	H	-0.133234	1.023509	0.000040
H124	H	0.366766	1.523509	0.500040
C125	C	0.193838	0.785342	0.373077
C126	C	0.693838	1.285342	0.873077
H127	H	0.187038	0.792744	0.430818
H128	H	0.687038	1.292744	0.930818
H129	H	0.186316	0.734855	0.358910
H130	H	0.686316	1.234855	0.858910
H131	H	0.240428	0.793409	0.358874
H132	H	0.740428	1.293409	0.858874
H133	H	0.007780	0.987448	0.796299
H134	H	0.507780	1.487448	1.296299
H135	H	-0.546620	0.766121	-0.000024
H136	H	-0.046620	1.266121	0.499976
C137	C	0.098173	0.675283	0.157385
C138	C	0.598173	1.175283	0.657385
H139	H	0.098957	0.727950	0.146654
H140	H	0.598957	1.227950	0.646654
H141	H	0.057282	0.668252	0.188189
H142	H	0.557282	1.168252	0.688189
H143	H	0.138686	0.656430	0.188172
H144	H	0.638686	1.156430	0.688172
C145	C	0.193834	0.785328	0.191334
C146	C	0.693834	1.285328	0.691334
H147	H	0.222152	0.754590	0.229499
H148	H	0.722152	1.254590	0.729499
H149	H	0.168754	0.753906	0.157587
H150	H	0.668754	1.253906	0.657587
H151	H	0.222868	0.812457	0.157558
H152	H	0.722868	1.312457	0.657558
H153	H	-0.265345	1.021397	0.000018
H154	H	0.234655	1.521397	0.500018
H155	H	-0.709365	1.014302	-0.000030
H156	H	-0.209365	1.514302	0.499970
H157	H	0.090032	0.123517	-0.135989
H158	H	0.590032	0.623517	0.364011
C159	C	0.095726	0.509513	0.157388
C160	C	0.595726	1.009513	0.657388
H161	H	0.096248	0.544322	0.202023
H162	H	0.596248	1.044322	0.702023
H163	H	0.054573	0.484628	0.160517
H164	H	0.554573	0.984628	0.660517
H165	H	0.135977	0.472809	0.160492
H166	H	0.635977	0.972809	0.660492
C167	C	-0.242701	0.751231	-0.000001
C168	C	0.257299	1.251231	0.499999
H169	H	-0.205558	0.710664	-0.000011
H170	H	0.294442	1.210664	0.499989
H171	H	-0.270769	0.747899	0.047943
H172	H	0.229231	1.247899	0.547943
H173	H	-0.270748	0.747920	-0.047957
H174	H	0.229252	1.247920	0.452043
H175	H	-0.102597	0.773213	0.000005
H176	H	0.397403	1.273213	0.500005
C177	C	-0.686720	0.744132	-0.000040
C178	C	-0.186720	1.244132	0.499960
H179	H	-0.649576	0.703566	-0.000046
H180	H	-0.149576	1.203566	0.499954
H181	H	-0.714790	0.740803	0.047902
H182	H	-0.214790	1.240803	0.547902
H183	H	-0.714764	0.740819	-0.047998
H184	H	-0.214764	1.240819	0.452002
H185	H	0.007764	0.987408	0.203710
H186	H	0.507764	1.487408	0.703710
C187	C	0.089916	0.112205	0.157393
C188	C	0.589916	0.612205	0.657393
H189	H	0.089150	0.059537	0.146663
H190	H	0.589150	0.559537	0.646663
H191	H	0.130825	0.119250	0.188134
H192	H	0.630825	0.619250	0.688134
H193	H	0.049420	0.131025	0.188240
H194	H	0.549420	0.631025	0.688240
C195	C	0.092313	0.278004	-0.157405
C196	C	0.592313	0.778004	0.342595
H197	H	0.091809	0.243191	-0.202038
H198	H	0.591809	0.743191	0.297962
H199	H	0.052068	0.314709	-0.160519
H200	H	0.552068	0.814709	0.339481
H201	H	0.133472	0.302888	-0.160527
H202	H	0.633472	0.802888	0.339473
C203	C	0.098176	0.675316	-0.157400
C204	C	0.598176	1.175316	0.342600
H205	H	0.098946	0.727983	-0.146666
H206	H	0.598946	1.227983	0.353334
H207	H	0.138685	0.656475	-0.188205
H208	H	0.638685	1.156475	0.311795
H209	H	0.057281	0.668292	-0.188185
H210	H	0.557281	1.168292	0.311815
H211	H	0.007764	0.987412	0.360717
H212	H	0.507764	1.487412	0.860717
H213	H	0.095889	0.520812	-0.135983
H214	H	0.595889	1.020812	0.364017
H215	H	0.007777	0.987436	0.639283
H216	H	0.507777	1.487436	1.139283
H217	H	-0.577253	1.016415	-0.000003
H218	H	-0.077253	1.516415	0.499997
H219	H	0.180273	0.800121	0.796290
H220	H	0.680273	1.300121	1.296290
H221	H	0.180265	0.800106	0.639283
H222	H	0.680265	1.300106	1.139283
