data_functionalizedCrystal
_audit_creation_method	'MofGen! by Chris Wilmer'
_symmetry_space_group_name_H-M	'P1'
_symmetry_Int_Tables_number	1
_symmetry_cell_setting	triclinic
loop_
_symmetry_equiv_pos_as_xyz
  x,y,z
_cell_length_a	12.759401
_cell_length_b	15.297327
_cell_length_c	15.296720
_cell_angle_alpha	107.319222
_cell_angle_beta	99.664394
_cell_angle_gamma	99.706546
loop_
_atom_site_label
_atom_site_type_symbol
_atom_site_fract_x
_atom_site_fract_y
_atom_site_fract_z
Zn1	Zn	1.394248	-0.461209	-0.589765
Zn2	Zn	1.394128	-0.589831	-0.461159
Zn3	Zn	1.255329	-0.434339	-0.434289
Zn4	Zn	1.181755	-0.616676	-0.616614
O5	O	1.306365	-0.525514	-0.525457
O6	O	1.541249	-0.478282	-0.572714
O7	O	1.406457	-0.546725	-0.327469
O8	O	1.304598	-0.307766	-0.432432
O9	O	1.541161	-0.572780	-0.478228
O10	O	1.406661	-0.327508	-0.546659
O11	O	1.304482	-0.432485	-0.307728
O12	O	1.098552	-0.458515	-0.458466
O13	O	1.179201	-0.618533	-0.743178
O14	O	1.044497	-0.592477	-0.592419
O15	O	1.335319	-0.504312	-0.723452
O16	O	1.335115	-0.723529	-0.504262
O17	O	1.179085	-0.743252	-0.618474
C18	C	1.033405	-0.525494	-0.525441
C19	C	0.916620	-0.525512	-0.525461
C20	C	0.833640	-0.595345	-0.595128
C21	C	0.723911	-0.595358	-0.595140
C22	C	0.780154	-0.455703	-0.455809
C23	C	0.889881	-0.455687	-0.455802
C24	C	0.801168	-0.675976	-0.675568
C25	C	0.691439	-0.675989	-0.675580
C26	C	1.249127	-0.767137	-0.567218
C27	C	1.224730	-0.870510	-0.585114
C28	C	1.481097	-1.120729	-0.397866
C29	C	1.504021	-1.023605	-0.381046
C30	C	1.434200	-0.985326	-0.432062
C31	C	1.341452	-1.044182	-0.499899
C32	C	1.318521	-1.141315	-0.516715
C33	C	1.271624	-1.005912	-0.550912
C34	C	1.178876	-1.064768	-0.618749
C35	C	1.155950	-1.161892	-0.635562
C36	C	1.225771	-1.200170	-0.584547
C37	C	1.294555	-0.908779	-0.534096
C38	C	1.131979	-0.929365	-0.652945
C39	C	1.109055	-1.026490	-0.669765
C40	C	1.580391	-0.525534	-0.525473
C41	C	1.697164	-0.525542	-0.525480
C42	C	1.249066	-0.567414	-0.767998
C43	C	1.224649	-0.585270	-0.871355
C44	C	1.363850	-0.282950	-0.483554
C45	C	1.388347	-0.179584	-0.465697
C46	C	1.480957	-0.397735	-1.121621
C47	C	1.503904	-0.380960	-1.024513
C48	C	1.434092	-0.432036	-0.986218
C49	C	1.341329	-0.499889	-1.045043
C50	C	1.318384	-0.516671	-1.142161
C51	C	1.271520	-0.550972	-1.006759
C52	C	1.178756	-0.618826	-1.065583
C53	C	1.155815	-0.635604	-1.162692
C54	C	1.225627	-0.584528	-1.200986
C55	C	1.294465	-0.534191	-0.909640
C56	C	1.131892	-0.653127	-0.930180
C57	C	1.108945	-0.669901	-1.027288
C58	C	1.363517	-0.483709	-0.283847
C59	C	1.388200	-0.465592	-0.180446
H60	H	0.818471	-0.669243	-0.744303
C61	C	1.458777	-0.413857	-0.880792
C62	C	1.371967	-0.384602	-0.844537
C63	C	1.394664	-0.367873	-0.747423
H64	H	1.523972	-0.366124	-0.851105
H65	H	1.467847	-0.470099	-0.869195
H66	H	1.362910	-0.328367	-0.856126
H67	H	1.306763	-0.432323	-0.874197
H68	H	1.403733	-0.424115	-0.735826
H69	H	1.459860	-0.320141	-0.717745
H70	H	1.335763	-0.348030	-0.722814
H71	H	1.369993	-0.478943	-0.861754
H72	H	1.537930	-1.151905	-0.356330
C73	C	0.634897	-0.767475	-0.666339
C74	C	0.525195	-0.767260	-0.666402
C75	C	0.473073	-0.851520	-0.657901
H76	H	0.669965	-0.773176	-0.609069
H77	H	0.638871	-0.819081	-0.717815
H78	H	0.521227	-0.715668	-0.614930
H79	H	0.490097	-0.761574	-0.723665
H80	H	0.477047	-0.903127	-0.709377
H81	H	0.508150	-0.857215	-0.600632
H82	H	0.398633	-0.851389	-0.657951
C83	C	0.980084	-0.380002	-0.380138
C84	C	1.044751	-0.422235	-0.329537
C85	C	1.127864	-0.352541	-0.259834
H86	H	0.948585	-0.338387	-0.338564
H87	H	1.024114	-0.345702	-0.408762
H88	H	1.000728	-0.456520	-0.300914
H89	H	1.076277	-0.463844	-0.371085
H90	H	1.171894	-0.318240	-0.288458
H91	H	1.096355	-0.310930	-0.218267
H92	H	1.171757	-0.381186	-0.225499
C93	C	1.055146	-1.225818	-0.709064
C94	C	0.987111	-1.272527	-0.666025
C95	C	0.894236	-1.331414	-0.733703
H96	H	1.076648	-1.270747	-0.756190
H97	H	1.016781	-1.189143	-0.737031
H98	H	1.025469	-1.309200	-0.638073
H99	H	0.965580	-1.227622	-0.618905
H100	H	0.855870	-1.294738	-0.761671
H101	H	0.915748	-1.376336	-0.780826
H102	H	0.848058	-1.363106	-0.704510
H103	H	1.207113	-1.279257	-0.598240
H104	H	1.579535	-0.975687	-0.325813
C105	C	1.604633	-0.307219	-0.960800
C106	C	1.660844	-0.266062	-1.015115
C107	C	1.753636	-0.198115	-0.956452
H108	H	1.651045	-0.336149	-0.929043
H109	H	1.583029	-0.260104	-0.915925
H110	H	1.682449	-0.313170	-1.059973
H111	H	1.614463	-0.237114	-1.046871
H112	H	1.732033	-0.150999	-0.911577
H113	H	1.800040	-0.227052	-0.924698
H114	H	1.791781	-0.170175	-0.993295
C115	C	1.459308	-0.879859	-0.413705
C116	C	1.555492	-0.836511	-0.343396
C117	C	1.578670	-0.739354	-0.326471
H118	H	1.400606	-0.855030	-0.393731
H119	H	1.468507	-0.868187	-0.469895
H120	H	1.546286	-0.848176	-0.287218
H121	H	1.614213	-0.861312	-0.363351
H122	H	1.587869	-0.727682	-0.382661
H123	H	1.519962	-0.714534	-0.306500
H124	H	1.643937	-0.709931	-0.278772
H125	H	1.537792	-0.356162	-1.152811
H126	H	1.080288	-0.690862	-1.210586
H127	H	1.206948	-0.598182	-1.280059
H128	H	1.033416	-0.725148	-1.075196
C129	C	1.056191	-0.708455	-0.888429
C130	C	1.096121	-0.679217	-0.790788
C131	C	1.026415	-0.730153	-0.752288
H132	H	1.052948	-0.773709	-0.915030
H133	H	0.985059	-0.697570	-0.901934
H134	H	1.167233	-0.690109	-0.777291
H135	H	1.099360	-0.613971	-0.764162
H136	H	0.955283	-0.719268	-0.765793
H137	H	1.023176	-0.795404	-0.778896
H138	H	1.053492	-0.710316	-0.686035
C139	C	0.833236	-0.761203	-0.656934
C140	C	0.869095	-0.812832	-0.733645
C141	C	0.898658	-0.891341	-0.716507
H142	H	0.771806	-0.799755	-0.648492
H143	H	0.890416	-0.740880	-0.601718
H144	H	0.811920	-0.833156	-0.788845
H145	H	0.930532	-0.774307	-0.742100
H146	H	0.955838	-0.871018	-0.661291
H147	H	0.837224	-0.929885	-0.708063
H148	H	0.923001	-0.926376	-0.768548
H149	H	0.758369	-0.398853	-0.399096
H150	H	1.370071	-0.860866	-0.478862
C151	C	1.008332	-1.090245	-0.743484
C152	C	0.952101	-1.035947	-0.784584
C153	C	0.859320	-1.094647	-0.852507
H154	H	0.961926	-1.122054	-0.714551
H155	H	1.029949	-1.135082	-0.790626
H156	H	0.930482	-0.991128	-0.737450
H157	H	0.998475	-1.004140	-0.813535
H158	H	0.880937	-1.139484	-0.899649
H159	H	0.812923	-1.126453	-0.823566
H160	H	0.821162	-1.057816	-0.880407
H161	H	0.647324	-0.662134	-0.739601
H162	H	1.075123	-0.898200	-0.694485
