data_functionalizedCrystal
_audit_creation_method	'MofGen! by Chris Wilmer'
_symmetry_space_group_name_H-M	'P1'
_symmetry_Int_Tables_number	1
_symmetry_cell_setting	triclinic
loop_
_symmetry_equiv_pos_as_xyz
  x,y,z
_cell_length_a	13.101039
_cell_length_b	14.853567
_cell_length_c	14.044190
_cell_angle_alpha	91.586646
_cell_angle_beta	93.663707
_cell_angle_gamma	93.360019
loop_
_atom_site_label
_atom_site_type_symbol
_atom_site_fract_x
_atom_site_fract_y
_atom_site_fract_z
O1	O	0.085169	1.210710	-0.118545
O2	O	0.085185	0.949420	-0.133287
O3	O	0.085157	1.076139	0.012073
O4	O	0.085197	1.083992	-0.263905
O5	O	-0.085271	1.067048	0.001626
O6	O	-0.085243	0.940330	-0.143734
O7	O	-0.085259	1.201620	-0.128991
Zn8	Zn	-0.112310	1.069531	-0.138021
Zn9	Zn	0.112236	1.081509	-0.124257
O10	O	-0.085231	1.074901	-0.274352
C11	C	-0.000027	0.911233	-0.137843
C12	C	-0.000022	0.810991	-0.135840
N13	N	-0.265557	1.061364	-0.147414
C14	C	-0.000060	1.068159	0.042168
C15	C	-0.000068	1.057914	0.147407
C16	C	-0.474597	1.050252	-0.160203
C17	C	-0.525484	1.100792	-0.102072
C18	C	-0.641801	1.094609	-0.109187
C19	C	-0.358269	1.056434	-0.153088
N20	N	0.265483	1.089683	-0.114857
C21	C	-0.000044	1.239807	-0.124436
C22	C	-0.000043	1.340049	-0.126438
C23	C	-0.000011	1.760099	-0.221247
C24	C	-0.000036	1.767692	-0.048555
C25	C	-0.000042	1.673509	-0.046673
C26	C	-0.000031	1.622616	-0.132079
C27	C	-0.000014	1.665907	-0.219367
C28	C	-0.000049	1.630212	0.040614
C29	C	-0.000054	1.536023	0.042500
C30	C	-0.000050	1.485128	-0.042908
C31	C	-0.000034	1.528424	-0.130199
C32	C	-0.000023	1.477532	-0.215605
C33	C	-0.000014	1.520826	-0.302899
C34	C	-0.000010	1.615012	-0.304774
C35	C	-0.000054	1.390942	-0.041032
C36	C	-0.000025	1.383340	-0.213726
C37	C	-0.000012	1.082881	-0.304447
C38	C	0.000003	1.093126	-0.409685
C39	C	-0.000031	1.111842	0.397625
C40	C	-0.000034	1.039202	0.340091
C41	C	-0.000053	1.049616	0.232872
C42	C	-0.000012	1.101430	0.504854
H43	H	-0.481692	1.148704	-0.046962
H44	H	-0.000024	0.969191	0.371359
H45	H	-0.518383	1.002345	-0.215311
H46	H	-0.000023	1.341909	-0.283275
H47	H	-0.000046	1.181847	0.366358
H48	H	0.000001	1.479377	-0.372435
H49	H	-0.000062	1.500781	0.113579
C50	C	0.000003	1.807712	-0.317264
H51	H	0.000004	1.763910	-0.367856
H52	H	0.059434	1.847466	-0.317946
H53	H	-0.059437	1.841125	-0.325232
C54	C	0.000015	1.662633	-0.400787
H55	H	0.000013	1.618836	-0.451385
H56	H	0.059452	1.702381	-0.401460
H57	H	-0.059419	1.696054	-0.408755
H58	H	-0.000039	1.809134	0.020979
C59	C	-0.000044	1.686189	0.134555
H60	H	-0.000035	1.646918	0.186811
H61	H	-0.059472	1.719927	0.133778
H62	H	0.059399	1.726252	0.141040
C63	C	-0.000062	1.343322	0.054977
H64	H	-0.000070	1.387121	0.105572
H65	H	0.059366	1.309900	0.062939
H66	H	-0.059505	1.303574	0.055660
