data_functionalizedCrystal
_audit_creation_method	'MofGen! by Chris Wilmer'
_symmetry_space_group_name_H-M	'P1'
_symmetry_Int_Tables_number	1
_symmetry_cell_setting	triclinic
loop_
_symmetry_equiv_pos_as_xyz
  x,y,z
_cell_length_a	19.288864
_cell_length_b	11.295501
_cell_length_c	19.288865
_cell_angle_alpha	94.616591
_cell_angle_beta	83.136245
_cell_angle_gamma	94.625353
loop_
_atom_site_label
_atom_site_type_symbol
_atom_site_fract_x
_atom_site_fract_y
_atom_site_fract_z
O1	O	0.925526	0.099423	0.090825
O2	O	1.258859	0.432757	0.424158
O3	O	1.592192	0.766090	0.757491
O4	O	0.723262	0.099344	0.102510
O5	O	1.056595	0.432677	0.435843
O6	O	1.389928	0.766010	0.769177
O7	O	0.830237	0.099362	-0.004464
O8	O	1.163570	0.432696	0.328869
O9	O	1.496904	0.766029	0.662203
O10	O	0.818550	0.099405	0.197798
O11	O	1.151883	0.432738	0.531132
O12	O	1.485217	0.766072	0.864465
O13	O	0.821906	-0.098694	-0.012788
O14	O	1.155240	0.234640	0.320546
O15	O	1.488573	0.567973	0.653879
O16	O	0.714931	-0.098712	0.094186
O17	O	1.048264	0.234621	0.427520
O18	O	1.381598	0.567954	0.760853
O19	O	0.917195	-0.098633	0.082501
O20	O	1.250528	0.234701	0.415834
O21	O	1.583862	0.568034	0.749167
Cu22	Cu	0.815302	-0.116757	0.087583
Cu23	Cu	1.148636	0.216577	0.420917
Cu24	Cu	1.481969	0.549910	0.754250
Cu25	Cu	0.825154	0.117468	0.097427
Cu26	Cu	1.158488	0.450801	0.430761
Cu27	Cu	1.491821	0.784134	0.764094
O28	O	0.810220	-0.098651	0.189475
O29	O	1.143553	0.234682	0.522808
O30	O	1.476886	0.568016	0.856141
C31	C	0.693219	0.000305	0.097971
C32	C	1.026553	0.333639	0.431305
C33	C	1.359886	0.666972	0.764638
C34	C	0.616115	0.000274	0.096841
C35	C	0.949448	0.333607	0.430175
C36	C	1.282781	0.666940	0.763508
C37	C	0.571420	0.000306	0.159610
C38	C	0.904753	0.333639	0.492944
C39	C	1.238086	0.666972	0.826277
C40	C	0.498973	0.000319	0.158550
C41	C	0.832306	0.333652	0.491884
C42	C	1.165640	0.666985	0.825217
C43	C	0.471226	0.000324	0.094718
C44	C	0.804559	0.333657	0.428052
C45	C	1.137892	0.666990	0.761385
C46	C	0.515930	0.000285	0.031941
C47	C	0.849264	0.333618	0.365274
C48	C	1.182597	0.666952	0.698607
C49	C	0.588375	0.000260	0.033002
C50	C	0.921708	0.333593	0.366335
C51	C	1.255041	0.666927	0.699669
C52	C	0.365884	0.069741	0.047457
C53	C	0.699217	0.403074	0.380790
C54	C	1.032550	0.736408	0.714123
C55	C	0.293440	0.069773	0.046398
C56	C	0.626774	0.403106	0.379731
C57	C	0.960107	0.736440	0.713065
C58	C	0.247783	0.000395	0.091442
C59	C	0.581116	0.333728	0.424775
C60	C	0.914450	0.667062	0.758108
C61	C	0.274577	-0.069000	0.137556
C62	C	0.607910	0.264333	0.470890
C63	C	0.941244	0.597667	0.804223
C64	C	0.347021	-0.069025	0.138618
C65	C	0.680355	0.264308	0.471951
C66	C	1.013688	0.597642	0.805284
C67	C	0.392673	0.000350	0.093560
C68	C	0.726006	0.333683	0.426894
C69	C	1.059339	0.667016	0.760227
C70	C	0.124533	0.000439	0.153066
C71	C	0.457866	0.333773	0.486399
C72	C	0.791199	0.667106	0.819732
C73	C	0.052085	0.000445	0.152003
C74	C	0.385418	0.333778	0.485336
C75	C	0.718752	0.667111	0.818669
C76	C	0.069044	0.000423	0.025392
C77	C	0.402378	0.333756	0.358725
C78	C	0.735711	0.667090	0.692058
C79	C	0.141490	0.000405	0.026456
C80	C	0.474823	0.333739	0.359789
C81	C	0.808157	0.667072	0.693123
C82	C	0.169230	0.000419	0.090295
C83	C	0.502563	0.333753	0.423628
C84	C	0.835896	0.667086	0.756962
N85	N	0.808378	-0.281497	0.080659
N86	N	1.141711	0.051836	0.413993
N87	N	1.475045	0.385170	0.747326
C88	C	0.881921	-0.530741	0.154222
C89	C	1.215254	-0.197407	0.487556
C90	C	1.548588	0.135926	0.820889
C91	C	0.876694	-0.655408	0.148984
C92	C	1.210027	-0.322074	0.482318
C93	C	1.543360	0.011259	0.815651
C94	C	0.792700	-0.655500	0.064941
C95	C	1.126034	-0.322167	0.398274
C96	C	1.459367	0.011166	0.731608
C97	C	0.797928	-0.530833	0.070179
C98	C	1.131261	-0.197500	0.403513
C99	C	1.464594	0.135833	0.736846
C100	C	0.842539	-0.468458	0.114822
C101	C	1.175872	-0.135125	0.448156
C102	C	1.509205	0.198209	0.781489
C103	C	0.847762	-0.343789	0.120064
C104	C	1.181095	-0.010455	0.453397
C105	C	1.514429	0.322878	0.786731
C106	C	0.763772	-0.343884	0.036018
C107	C	1.097106	-0.010550	0.369351
C108	C	1.430439	0.322783	0.702684
C109	C	0.758545	-0.468551	0.030779
C110	C	1.091879	-0.135217	0.364113
C111	C	1.425212	0.198116	0.697446
C112	C	0.947237	0.000409	0.087039
C113	C	1.280571	0.333742	0.420373
C114	C	1.613904	0.667075	0.753706
C115	C	1.024343	0.000448	0.088170
C116	C	1.357676	0.333781	0.421503
C117	C	1.691009	0.667114	0.754837
C118	C	0.825696	0.000331	-0.034502
C119	C	1.159029	0.333664	0.298831
C120	C	1.492362	0.666997	0.632164
C121	C	0.824566	0.000320	-0.111607
C122	C	1.157899	0.333653	0.221727
C123	C	1.491233	0.666986	0.555060
N124	N	0.832084	0.282208	0.104346
N125	N	1.165417	0.615542	0.437679
N126	N	1.498751	0.948875	0.771012
C127	C	0.887335	0.000339	-0.156302
C128	C	1.220668	0.333672	0.177031
C129	C	1.554001	0.667005	0.510365
C130	C	0.886275	0.000357	-0.228748
C131	C	1.219608	0.333690	0.104585
C132	C	1.552942	0.667024	0.437918
C133	C	0.822442	0.000333	-0.256497
C134	C	1.155775	0.333666	0.076836
C135	C	1.489108	0.666999	0.410170
C136	C	0.759665	0.000320	-0.211791
C137	C	1.092998	0.333654	0.121542
C138	C	1.426332	0.666987	0.454875
C139	C	0.760727	0.000314	-0.139346
C140	C	1.094061	0.333647	0.193987
C141	C	1.427394	0.666981	0.527321
C142	C	0.769343	-0.069062	-0.367701
C143	C	1.102677	0.264271	-0.034367
C144	C	1.436010	0.597605	0.298966
C145	C	0.768283	-0.069063	-0.440145
C146	C	1.101617	0.264271	-0.106812
C147	C	1.434950	0.597604	0.226521
C148	C	0.819163	0.000358	-0.479941
C149	C	1.152496	0.333691	-0.146608
C150	C	1.485830	0.667025	0.186725
C151	C	0.871114	0.069764	-0.447286
C152	C	1.204447	0.403097	-0.113953
C153	C	1.537781	0.736431	0.219380
C154	C	0.872176	0.069758	-0.374841
C155	C	1.205509	0.403091	-0.041508
C156	C	1.538843	0.736424	0.291826
C157	C	0.821283	0.000340	-0.335051
C158	C	1.154616	0.333674	-0.001717
C159	C	1.487950	0.667007	0.331616
C160	C	0.880787	0.000399	-0.603192
C161	C	1.214120	0.333732	-0.269859
C162	C	1.547454	0.667065	0.063475
C163	C	0.879725	0.000424	-0.675639
C164	C	1.213058	0.333758	-0.342306
C165	C	1.546391	0.667091	-0.008972
C166	C	0.753113	0.000376	-0.658681
C167	C	1.086446	0.333709	-0.325347
C168	C	1.419779	0.667042	0.007986
C169	C	0.754177	0.000362	-0.586235
C170	C	1.087510	0.333695	-0.252902
C171	C	1.420844	0.667029	0.080432
C172	C	0.818016	0.000368	-0.558495
C173	C	1.151349	0.333701	-0.225162
C174	C	1.484683	0.667034	0.108171
C175	C	0.814761	0.000383	0.219513
C176	C	1.148095	0.333716	0.552847
C177	C	1.481428	0.667050	0.886180
C178	C	0.815891	0.000402	0.296618
C179	C	1.149224	0.333735	0.629951
C180	C	1.482558	0.667069	0.963284
H181	H	0.594000	0.000319	0.211593
H182	H	0.927334	0.333653	0.544927
H183	H	1.260667	0.666986	0.878260
Br184	Br	0.427841	0.163902	-0.013682
Br185	Br	0.761174	0.497235	0.319652
Br186	Br	1.094507	0.830569	0.652985
H187	H	0.237404	-0.125495	0.174235
H188	H	0.570737	0.207838	0.507568
H189	H	0.904070	0.541171	0.840901
Br190	Br	0.698005	-0.553213	-0.029805
Br191	Br	1.031339	-0.219880	0.303528
Br192	Br	1.364672	0.113453	0.636861
H193	H	0.462575	0.000341	0.209666
H194	H	0.795909	0.333675	0.542999
H195	H	1.129242	0.667008	0.876333
Br196	Br	0.710315	-0.259351	-0.017451
Br197	Br	1.043648	0.073982	0.315883
Br198	Br	1.376981	0.407316	0.649216
Br199	Br	0.383384	-0.163202	0.201196
Br200	Br	0.716717	0.170132	0.534529
Br201	Br	1.050050	0.503465	0.867863
Br202	Br	0.942461	-0.446082	0.214808
Br203	Br	1.275794	-0.112749	0.548142
Br204	Br	1.609128	0.220584	0.881475
Br205	Br	0.732165	-0.740173	0.004356
Br206	Br	1.065498	-0.406840	0.337690
Br207	Br	1.398831	-0.073506	0.671023
Br208	Br	0.973974	0.000379	-0.118657
Br209	Br	1.307307	0.333713	0.214676
Br210	Br	1.640641	0.667046	0.548010
H211	H	0.727909	-0.125599	-0.335304
H212	H	1.061242	0.207734	-0.001971
H213	H	1.394575	0.541068	0.331362
H214	H	0.147119	0.000433	0.205047
H215	H	0.480452	0.333766	0.538380
H216	H	0.813786	0.667100	0.871713
Br217	Br	0.930147	-0.739932	0.202454
Br218	Br	1.263481	-0.406599	0.535788
Br219	Br	1.596814	-0.073265	0.869121
Br220	Br	0.697784	-0.163263	-0.484457
Br221	Br	1.031117	0.170070	-0.151123
Br222	Br	1.364451	0.503403	0.182210
H223	H	0.930841	0.000446	-0.712030
H224	H	1.264174	0.333780	-0.378697
H225	H	1.597508	0.667113	-0.045363
Br226	Br	0.971467	0.000388	-0.289418
Br227	Br	1.304800	0.333721	0.043915
Br228	Br	1.638134	0.667054	0.377248
H229	H	0.914475	0.126273	-0.348256
H230	H	1.247808	0.459606	-0.014923
H231	H	1.581142	0.792939	0.318410
Br232	Br	0.908304	-0.259136	0.180650
Br233	Br	1.241637	0.074197	0.513983
Br234	Br	1.574971	0.407530	0.847317
Br235	Br	0.673034	0.000303	-0.249447
Br236	Br	1.006367	0.333636	0.083886
Br237	Br	1.339701	0.666969	0.417220
H238	H	0.932769	0.000409	-0.580605
H239	H	1.266102	0.333742	-0.247272
H240	H	1.599435	0.667075	0.086062
H241	H	0.709612	0.000298	-0.102954
H242	H	1.042945	0.333632	0.230379
H243	H	1.376278	0.666965	0.563713
Br244	Br	0.940171	0.163984	-0.501286
Br245	Br	1.273504	0.497317	-0.167953
Br246	Br	1.606838	0.830651	0.165381
Br247	Br	0.666480	0.000355	-0.696331
Br248	Br	0.999814	0.333688	-0.362997
Br249	Br	1.333147	0.667021	-0.029664
Br250	Br	0.668986	0.000335	-0.525572
Br251	Br	1.002319	0.333668	-0.192239
Br252	Br	1.335653	0.667002	0.141094
Br253	Br	0.478275	0.000279	-0.054690
Br254	Br	0.811608	0.333613	0.278643
Br255	Br	1.144942	0.666946	0.611977
H256	H	0.046456	0.000501	-0.026579
H257	H	0.379790	0.333834	0.306755
H258	H	0.713123	0.667168	0.640088
Br259	Br	0.202152	0.000365	-0.058736
Br260	Br	0.535485	0.333699	0.274598
Br261	Br	0.868818	0.667032	0.607931
Br262	Br	-0.008576	0.000478	0.237197
Br263	Br	0.324757	0.333811	0.570530
Br264	Br	0.658091	0.667144	0.903864
H265	H	0.271631	0.126283	0.008852
H266	H	0.604964	0.459617	0.342185
H267	H	0.938298	0.792950	0.675519
H268	H	0.624766	0.000235	-0.018114
H269	H	0.958099	0.333568	0.315219
H270	H	1.291433	0.666901	0.648553
