data_functionalizedCrystal
_audit_creation_method	'MofGen! by Chris Wilmer'
_symmetry_space_group_name_H-M	'P1'
_symmetry_Int_Tables_number	1
_symmetry_cell_setting	triclinic
loop_
_symmetry_equiv_pos_as_xyz
  x,y,z
_cell_length_a	16.109301
_cell_length_b	14.044190
_cell_length_c	15.186229
_cell_angle_alpha	89.991383
_cell_angle_beta	89.999006
_cell_angle_gamma	88.326680
loop_
_atom_site_label
_atom_site_type_symbol
_atom_site_fract_x
_atom_site_fract_y
_atom_site_fract_z
O1	O	1.112198	0.121836	-0.073190
O2	O	0.871264	0.136998	-0.073203
O3	O	0.988112	-0.008567	-0.073180
O4	O	0.995351	0.267400	-0.073214
O5	O	0.988103	-0.008569	0.073278
O6	O	0.871256	0.136996	0.073254
O7	O	1.112189	0.121834	0.073267
Zn8	Zn	0.991721	0.129414	0.096514
Zn9	Zn	0.991732	0.129417	-0.096450
O10	O	0.995342	0.267398	0.073243
C11	C	0.840239	0.136383	0.000024
C12	C	0.747807	0.134541	0.000019
C13	C	0.984940	-0.043881	0.000051
C14	C	0.975494	-0.149104	0.000059
C15	C	0.444789	0.214897	0.000025
C16	C	0.531639	0.216636	0.000019
C17	C	0.538659	0.043928	0.000029
C18	C	0.451811	0.042190	0.000028
C19	C	0.404878	0.127677	0.000030
C20	C	0.578576	0.131154	0.000026
C21	C	0.672742	0.133039	0.000020
C22	C	0.310706	0.125793	0.000034
C23	C	1.025219	-0.399406	0.000027
C24	C	0.958238	-0.341757	0.000029
C25	C	0.967842	-0.234555	0.000046
C26	C	1.015617	-0.506618	0.000011
C27	C	1.143214	0.122449	0.000038
C28	C	1.235646	0.124290	0.000037
C29	C	0.998513	0.302713	0.000010
C30	C	1.007959	0.407936	-0.000002
N31	N	0.991719	0.129412	0.228206
N32	N	0.991740	0.129412	-0.228143
C33	C	1.043480	0.064978	0.453940
C34	C	1.043483	0.064975	0.546130
C35	C	0.939974	0.193849	0.546117
C36	C	0.939967	0.193846	0.453930
C37	C	0.991725	0.129412	0.407843
C38	C	0.991734	0.129412	0.592221
C39	C	0.991736	0.129410	0.692177
C40	C	0.991722	0.129412	0.307881
H41	H	0.406579	0.284506	0.000026
F42	F	0.588615	-0.047048	0.000033
H43	H	0.419314	-0.028839	0.000030
H44	H	0.564130	0.287658	0.000014
H45	H	1.089771	-0.368253	0.000040
F46	F	0.873857	-0.382476	0.000022
H47	H	1.085623	0.012510	0.416419
F48	F	1.098565	-0.003606	0.595186
H49	H	0.897835	0.246312	0.583650
F50	F	0.884877	0.262425	0.404866
