data_functionalizedCrystal
_audit_creation_method	'MofGen! by Chris Wilmer'
_symmetry_space_group_name_H-M	'P1'
_symmetry_Int_Tables_number	1
_symmetry_cell_setting	triclinic
loop_
_symmetry_equiv_pos_as_xyz
  x,y,z
_cell_length_a	21.295417
_cell_length_b	18.101398
_cell_length_c	21.295420
_cell_angle_alpha	89.988291
_cell_angle_beta	90.018953
_cell_angle_gamma	89.974227
loop_
_atom_site_label
_atom_site_type_symbol
_atom_site_fract_x
_atom_site_fract_y
_atom_site_fract_z
Zn1	Zn	-0.250777	-1.132032	0.356000
Zn2	Zn	-0.356024	-1.131956	0.250726
Zn3	Zn	-0.250764	-1.008218	0.250736
Zn4	Zn	-0.356004	-1.008143	0.355948
O5	O	-0.303392	-1.070087	0.303352
O6	O	-0.264752	-1.235655	0.342053
O7	O	-0.342064	-1.115542	0.162638
O8	O	-0.162676	-1.024705	0.264725
O9	O	-0.342077	-1.235599	0.264709
O10	O	-0.162686	-1.115671	0.342063
O11	O	-0.264730	-1.024632	0.162645
O12	O	-0.264710	-0.904575	0.264674
O13	O	-0.342042	-1.024577	0.444044
O14	O	-0.342029	-0.904520	0.341973
O15	O	-0.264733	-1.115598	0.444083
O16	O	-0.444111	-1.115469	0.264657
O17	O	-0.444096	-1.024504	0.341964
C18	C	-0.303367	-0.877677	0.303319
C19	C	-0.303371	-0.795363	0.303320
C20	C	-0.466944	-1.069990	0.303317
C21	C	-0.536912	-1.070016	0.303324
C22	C	-0.303387	-1.070087	0.467543
C23	C	-0.303384	-1.070088	0.537511
C24	C	-0.569765	-1.117424	0.263112
C25	C	-0.635508	-1.117459	0.263126
C26	C	-0.668394	-1.070073	0.303345
C27	C	-0.635533	-1.022662	0.343565
C28	C	-0.569792	-1.022633	0.343554
N29	N	-0.771657	-1.005287	0.308133
N30	N	-0.834108	-1.005316	0.308140
C31	C	-0.866469	-1.070155	0.303381
N32	N	-0.834019	-1.134967	0.298604
N33	N	-0.771562	-1.134937	0.298594
C34	C	-0.739680	-1.070098	0.303362
C35	C	-0.970608	-1.117605	0.263183
C36	C	-1.036352	-1.117641	0.263201
C37	C	-1.036376	-1.022837	0.343637
C38	C	-0.970633	-1.022808	0.343622
C39	C	-0.937753	-1.070191	0.303391
C40	C	-0.139202	-1.070205	0.303401
C41	C	-0.069234	-1.070255	0.303422
C42	C	-0.303418	-1.263249	0.303386
C43	C	-0.303429	-1.345563	0.303400
C44	C	-0.303410	-0.496272	0.303373
C45	C	-0.254520	-0.527607	0.254976
C46	C	-0.254651	-0.613225	0.254770
C47	C	-0.303390	-0.644654	0.303347
C48	C	-0.369697	-0.613542	0.285216
C49	C	-0.369425	-0.527896	0.284880
C50	C	-0.286570	-0.527869	0.370015
C51	C	-0.285093	-0.613520	0.369651
C52	C	-0.303383	-0.728514	0.303333
C53	C	-0.303422	-0.412412	0.303385
C54	C	-0.263136	-1.117449	1.036990
C55	C	-0.263137	-1.117457	0.971247
C56	C	-0.303387	-1.070069	0.938350
C57	C	-0.343649	-1.022683	0.971201
C58	C	-0.343651	-1.022682	1.036942
N59	N	-0.308204	-1.005243	0.835116
N60	N	-0.308198	-1.005246	0.772665
C61	C	-0.303384	-1.070071	0.740275
N62	N	-0.298563	-1.134894	0.772697
N63	N	-0.298565	-1.134890	0.835154
C64	C	-0.303389	-1.070065	0.867065
C65	C	-0.263128	-1.117466	0.636147
C66	C	-0.263134	-1.117475	0.570403
C67	C	-0.343642	-1.022695	0.570358
C68	C	-0.343640	-1.022692	0.636101
C69	C	-0.303380	-1.070077	0.668991
C70	C	-0.303406	-1.070078	1.139801
C71	C	-0.303391	-1.070067	1.069833
H72	H	-0.662263	-1.156066	0.230380
H73	H	-0.542997	-1.156008	0.230355
N74	N	-0.419306	-0.500429	0.329534
H75	H	-0.441375	-0.543958	0.349347
H76	H	-0.450777	-0.469474	0.305702
N77	N	-0.534350	-0.971491	0.386919
H78	H	-0.507036	-1.001546	0.416111
H79	H	-0.565195	-0.941486	0.412361
N80	N	-0.935139	-1.168708	0.219795
H81	H	-0.965930	-1.198752	0.194326
H82	H	-0.907823	-1.202942	0.245443
H83	H	-0.662313	-0.984081	0.376313
H84	H	-0.230345	-1.156049	0.662928
H85	H	-0.943882	-0.984201	0.376364
H86	H	-0.376417	-0.984113	0.543574
H87	H	-0.230355	-1.156065	0.543664
N88	N	-0.419241	-0.640475	0.330459
H89	H	-0.399133	-0.673187	0.363219
H90	H	-0.452079	-0.669490	0.306748
N91	N	-1.071790	-1.168780	0.219831
H92	H	-1.040983	-1.198789	0.194344
H93	H	-1.099105	-1.138672	0.190682
H94	H	-1.063151	-0.984257	0.376388
H95	H	-0.205200	-0.507033	0.266217
H96	H	-0.376417	-0.984105	0.662842
H97	H	-0.205481	-0.634262	0.266135
H98	H	-0.265525	-0.506070	0.205883
N99	N	-0.269391	-0.640344	0.189360
H100	H	-0.275833	-0.596663	0.160550
H101	H	-0.308870	-0.671216	0.190396
H102	H	-0.318109	-0.634915	0.407644
H103	H	-0.383708	-0.507897	0.236161
N104	N	-0.219715	-1.168566	1.072453
H105	H	-0.245297	-1.202872	1.099726
H106	H	-0.190546	-1.138440	1.099698
H107	H	-0.384228	-0.634969	0.237024
H108	H	-0.239062	-0.506292	0.386499
N109	N	-0.220457	-0.640449	0.387763
H110	H	-0.203095	-0.672685	0.353168
H111	H	-0.223249	-0.669964	0.427917
N112	N	-0.333737	-0.501031	0.417784
H113	H	-0.365860	-0.468564	0.396397
H114	H	-0.311380	-0.471778	0.451411
H115	H	-0.230355	-1.156041	0.944501
N116	N	-0.387065	-0.971574	0.935724
H117	H	-0.380954	-0.978763	0.889093
H118	H	-0.377264	-0.918690	0.947210
H119	H	-0.376433	-0.984096	1.063682
