data_functionalizedCrystal
_audit_creation_method	'MofGen! by Chris Wilmer'
_symmetry_space_group_name_H-M	'P1'
_symmetry_Int_Tables_number	1
_symmetry_cell_setting	triclinic
loop_
_symmetry_equiv_pos_as_xyz
  x,y,z
_cell_length_a	12.759395
_cell_length_b	12.759394
_cell_length_c	17.077396
_cell_angle_alpha	90.024622
_cell_angle_beta	90.017728
_cell_angle_gamma	90.014617
loop_
_atom_site_label
_atom_site_type_symbol
_atom_site_fract_x
_atom_site_fract_y
_atom_site_fract_z
Zn1	Zn	1.606241	-0.418245	0.443827
Zn2	Zn	1.606144	-0.593946	0.312570
Zn3	Zn	1.430549	-0.418284	0.312579
Zn4	Zn	1.430534	-0.593885	0.443797
O5	O	1.518367	-0.506090	0.378193
O6	O	1.753249	-0.441562	0.426424
O7	O	1.582817	-0.570685	0.202724
O8	O	1.453902	-0.271257	0.330005
O9	O	1.753178	-0.570648	0.329990
O10	O	1.582982	-0.271229	0.426433
O11	O	1.453808	-0.441627	0.202730
O12	O	1.283526	-0.441568	0.329977
O13	O	1.453876	-0.570545	0.553648
O14	O	1.283515	-0.570582	0.426382
O15	O	1.582967	-0.441503	0.553670
O16	O	1.582802	-0.740959	0.329961
O17	O	1.453782	-0.740914	0.426373
C18	C	1.245399	-0.506073	0.378178
C19	C	1.128623	-0.506092	0.378190
C20	C	0.909262	-0.371914	0.478795
C21	C	0.964165	-0.304803	0.529075
C22	C	1.073887	-0.304785	0.529061
C23	C	1.128707	-0.371888	0.478764
C24	C	1.073804	-0.438999	0.428484
C25	C	0.964080	-0.439007	0.428501
C26	C	1.073719	-0.573203	0.327910
C27	C	0.963998	-0.573217	0.327918
C28	C	1.128540	-0.640305	0.277612
C29	C	1.073637	-0.707413	0.227327
C30	C	0.963909	-0.707427	0.227342
C31	C	0.909095	-0.640328	0.277638
C32	C	1.518308	-0.779057	0.378180
C33	C	1.518380	-0.895834	0.378201
C34	C	1.652690	-0.895646	0.478686
C35	C	1.719878	-0.950413	0.528934
C36	C	1.719941	-1.060135	0.528951
C37	C	1.652805	-1.115092	0.478716
C38	C	1.585617	-1.060325	0.428468
C39	C	1.585564	-0.950601	0.428454
C40	C	1.451303	-1.060513	0.327988
C41	C	1.451244	-0.950791	0.327965
C42	C	1.384168	-1.115470	0.277752
C43	C	1.316983	-1.060703	0.227499
C44	C	1.316924	-0.950975	0.227483
C45	C	1.384056	-0.896024	0.277717
C46	C	1.792400	-0.506107	0.378209
C47	C	1.909177	-0.506115	0.378216
C48	C	1.518430	-0.506013	0.582937
C49	C	1.518457	-0.505980	0.670187
C50	C	1.518454	-0.232056	0.378223
C51	C	1.518491	-0.115280	0.378236
C52	C	1.518364	-0.506091	0.174245
C53	C	1.518540	-0.505828	0.086996
C54	C	1.585678	-0.438782	0.711190
C55	C	1.585690	-0.438747	0.793170
C56	C	1.518487	-0.505916	0.834147
C57	C	1.451260	-0.573116	0.793138
C58	C	1.451243	-0.573145	0.711159
C59	C	1.451302	-0.573053	0.964008
C60	C	1.451320	-0.573026	1.045993
C61	C	1.585750	-0.438655	1.046020
C62	C	1.585733	-0.438684	0.964041
C63	C	1.518506	-0.505886	0.923038
H64	H	1.217881	-0.640292	0.277609
C65	C	1.249398	-0.371881	0.478754
H66	H	1.274183	-0.421458	0.441603
H67	H	1.274229	-0.304058	0.465270
H68	H	1.274240	-0.390147	0.529387
C69	C	1.652625	-0.774956	0.478669
H70	H	1.702224	-0.750070	0.515785
H71	H	1.670807	-0.750159	0.428021
H72	H	1.584801	-0.750181	0.492208
H73	H	0.819753	-0.640320	0.277645
H74	H	1.774537	-0.905658	0.569837
H75	H	1.640486	-0.383934	1.079408
C76	C	1.133935	-0.781224	0.172011
H77	H	1.085525	-0.821200	0.142070
H78	H	1.176731	-0.740977	0.137858
H79	H	1.176740	-0.827052	0.201986
H80	H	1.396543	-0.627760	0.930626
H81	H	1.774640	-1.104726	0.569876
C82	C	1.377388	-0.646895	1.091070
H83	H	1.387036	-0.637256	1.145765
H84	H	1.306802	-0.631507	1.077630
H85	H	1.392730	-0.717500	1.077631
C86	C	1.659654	-0.364801	0.918968
H87	H	1.699688	-0.324766	0.955127
H88	H	1.705408	-0.405005	0.886986
H89	H	1.619463	-0.319030	0.886991
C90	C	0.903518	-0.781252	0.172036
H91	H	0.830320	-0.771660	0.179249
H92	H	0.921470	-0.765790	0.119312
H93	H	0.921501	-0.851862	0.183442
C94	C	1.377336	-0.647002	0.838206
H95	H	1.337293	-0.687021	0.802043
H96	H	1.417517	-0.692771	0.870185
H97	H	1.331575	-0.606793	0.870186
H98	H	1.652853	-1.204433	0.478741
C99	C	1.243015	-0.890734	0.172212
H100	H	1.252585	-0.817516	0.179398
H101	H	1.258427	-0.908750	0.119482
H102	H	1.172424	-0.908764	0.183672
H103	H	1.384219	-1.204811	0.277773
H104	H	1.396494	-0.627854	0.677776
H105	H	1.640430	-0.384030	0.826551
C106	C	1.383989	-0.775334	0.277707
H107	H	1.433586	-0.750452	0.314826
H108	H	1.402171	-0.750529	0.227061
H109	H	1.316163	-0.750563	0.291247
H110	H	0.819921	-0.371899	0.478794
H111	H	0.919518	-0.250172	0.570028
H112	H	1.118589	-0.250139	0.570005
H113	H	1.262322	-1.105458	0.186605
H114	H	1.640406	-0.384088	0.677833
