data_functionalizedCrystal
_audit_creation_method	'MofGen! by Chris Wilmer'
_symmetry_space_group_name_H-M	'P1'
_symmetry_Int_Tables_number	1
_symmetry_cell_setting	triclinic
loop_
_symmetry_equiv_pos_as_xyz
  x,y,z
_cell_length_a	17.699104
_cell_length_b	14.519731
_cell_length_c	16.776229
_cell_angle_alpha	89.992369
_cell_angle_beta	89.991971
_cell_angle_gamma	83.490185
loop_
_atom_site_label
_atom_site_type_symbol
_atom_site_fract_x
_atom_site_fract_y
_atom_site_fract_z
O1	O	1.004410	0.116715	-0.066306
O2	O	1.504410	0.616715	0.433694
O3	O	0.784078	0.131867	-0.066304
O4	O	1.284078	0.631867	0.433696
O5	O	0.900077	-0.009970	-0.066298
O6	O	1.400077	0.490030	0.433702
O7	O	0.888411	0.258552	-0.066312
O8	O	1.388411	0.758552	0.433688
O9	O	0.900062	-0.009979	0.066278
O10	O	1.400062	0.490021	0.566278
O11	O	0.784063	0.131859	0.066272
O12	O	1.284063	0.631859	0.566272
O13	O	1.004395	0.116706	0.066270
O14	O	1.504395	0.616706	0.566270
Zn15	Zn	0.894226	0.124281	0.087321
Zn16	Zn	1.394226	0.624281	0.587321
Zn17	Zn	0.894247	0.124292	-0.087355
Zn18	Zn	1.394247	0.624292	0.412645
O19	O	0.888395	0.258544	0.066264
O20	O	1.388395	0.758544	0.566264
C21	C	0.755872	0.131317	-0.000016
C22	C	1.255872	0.631317	0.499984
C23	C	0.671850	0.129678	-0.000015
C24	C	1.171850	0.629678	0.499985
C25	C	0.899523	-0.044332	-0.000010
C26	C	1.399523	0.455668	0.499990
C27	C	0.897885	-0.146705	-0.000009
C28	C	1.397885	0.353295	0.499991
C29	C	0.147196	0.203693	-0.000027
C30	C	0.647196	0.703693	0.499973
C31	C	0.226144	0.205227	-0.000030
C32	C	0.726144	0.705227	0.499970
C33	C	0.274518	0.121963	-0.000025
C34	C	0.774518	0.621963	0.499975
C35	C	0.243940	0.037159	-0.000026
C36	C	0.743940	0.537159	0.499974
C37	C	0.164993	0.035625	-0.000029
C38	C	0.664993	0.535625	0.499971
C39	C	0.562324	0.043340	-0.000014
C40	C	1.062324	0.543340	0.499986
C41	C	0.641276	0.044880	-0.000008
C42	C	1.141276	0.544880	0.499992
C43	C	0.623475	0.212941	-0.000014
C44	C	1.123475	0.712941	0.499986
C45	C	0.544528	0.211408	-0.000017
C46	C	1.044528	0.711408	0.499983
C47	C	0.513957	0.126605	-0.000023
C48	C	1.013957	0.626605	0.499977
C49	C	0.428352	0.124942	-0.000021
C50	C	0.928352	0.624942	0.499979
C51	C	0.360121	0.123624	-0.000020
C52	C	0.860121	0.623624	0.499980
C53	C	0.896554	-0.229844	-0.000011
C54	C	1.396554	0.270156	0.499989
C55	C	0.894891	-0.334146	-0.000017
C56	C	1.394891	0.165854	0.499983
C57	C	0.893571	-0.417279	-0.000022
C58	C	1.393571	0.082721	0.499978
C59	C	0.891908	-0.521588	-0.000027
C60	C	1.391908	-0.021588	0.499973
C61	C	1.032601	0.117256	-0.000020
C62	C	1.532601	0.617256	0.499980
C63	C	1.116623	0.118895	-0.000026
C64	C	1.616623	0.618895	0.499974
C65	C	0.888950	0.292905	-0.000026
C66	C	1.388950	0.792905	0.499974
C67	C	0.890588	0.395279	-0.000032
C68	C	1.390588	0.895279	0.499968
N69	N	0.894218	0.124273	0.206532
N70	N	1.394218	0.624273	0.706532
N71	N	0.894261	0.124293	-0.206566
N72	N	1.394261	0.624293	0.293434
C73	C	0.945598	0.061492	0.248252
C74	C	1.445598	0.561492	0.748252
C75	C	0.945602	0.061492	0.331704
C76	C	1.445602	0.561492	0.831704
C77	C	0.894229	0.124276	0.373435
C78	C	1.394229	0.624276	0.873435
C79	C	0.842844	0.187059	0.331709
C80	C	1.342844	0.687059	0.831709
C81	C	0.842836	0.187055	0.248258
C82	C	1.342836	0.687055	0.748258
C83	C	0.842871	0.187077	0.668256
C84	C	1.342871	0.687077	1.168256
C85	C	0.842884	0.187079	0.751713
C86	C	1.342884	0.687079	1.251713
C87	C	0.945637	0.061514	0.751702
C88	C	1.445637	0.561514	1.251702
C89	C	0.945630	0.061510	0.668251
C90	C	1.445630	0.561510	1.168251
C91	C	0.894242	0.124289	0.626533
C92	C	1.394242	0.624289	1.126533
C93	C	0.894237	0.124288	0.536044
C94	C	1.394237	0.624288	1.036044
C95	C	0.894237	0.124282	0.463922
C96	C	1.394237	0.624282	0.963922
H97	H	0.107814	0.271496	-0.000025
H98	H	0.607814	0.771496	0.499975
H99	H	0.283332	-0.030636	-0.000027
H100	H	0.783332	0.469364	0.499973
H101	H	0.987478	0.010393	0.785678
H102	H	1.487478	0.510393	1.285678
H103	H	0.251032	0.274277	-0.000038
H104	H	0.751032	0.774277	0.499962
H105	H	0.801030	0.238196	0.634296
H106	H	1.301030	0.738196	1.134296
H107	H	0.801011	0.238176	0.365691
H108	H	1.301011	0.738176	0.865691
Br109	Br	0.123500	-0.079461	-0.000031
Br110	Br	0.623500	0.420539	0.499969
Br111	Br	0.664968	0.328034	-0.000010
Br112	Br	1.164968	0.828034	0.499990
H113	H	0.801047	0.238207	0.785689
H114	H	1.301047	0.738207	1.285689
H115	H	0.680661	-0.022928	-0.000006
H116	H	1.180661	0.477072	0.499994
H117	H	0.505145	0.279211	-0.000017
H118	H	1.005145	0.779211	0.499983
H119	H	0.987435	0.010370	0.214280
H120	H	1.487435	0.510370	0.714280
Br121	Br	1.015331	-0.023714	0.388327
Br122	Br	1.515331	0.476286	0.888327
H123	H	0.800996	0.238176	0.214291
H124	H	1.300996	0.738176	0.714291
Br125	Br	1.015356	-0.023695	0.611619
Br126	Br	1.515356	0.476305	1.111619
Br127	Br	0.520845	-0.071750	-0.000044
Br128	Br	1.020845	0.428250	0.499956
