data_functionalizedCrystal
_audit_creation_method	'MofGen! by Chris Wilmer'
_symmetry_space_group_name_H-M	'P1'
_symmetry_Int_Tables_number	1
_symmetry_cell_setting	triclinic
loop_
_symmetry_equiv_pos_as_xyz
  x,y,z
_cell_length_a	19.188905
_cell_length_b	19.188925
_cell_length_c	9.616153
_cell_angle_alpha	89.998086
_cell_angle_beta	89.986020
_cell_angle_gamma	83.138552
loop_
_atom_site_label
_atom_site_type_symbol
_atom_site_fract_x
_atom_site_fract_y
_atom_site_fract_z
O1	O	0.926157	0.087082	-0.115874
O2	O	0.722843	0.098834	-0.115826
O3	O	0.830369	-0.008698	-0.115843
O4	O	0.818631	0.194614	-0.115856
O5	O	0.830354	-0.008696	0.115448
O6	O	0.722828	0.098837	0.115465
O7	O	0.926142	0.087084	0.115418
Zn8	Zn	0.824483	0.092961	0.152164
Zn9	Zn	0.824502	0.092958	-0.152572
O10	O	0.818616	0.194617	0.115435
C11	C	0.696824	0.098458	-0.000174
C12	C	0.619319	0.097324	-0.000156
C13	C	0.582935	0.096778	-0.126236
C14	C	0.510112	0.095705	-0.126254
C15	C	0.473676	0.095164	-0.000183
C16	C	0.510068	0.095714	0.125914
C17	C	0.582890	0.096794	0.125928
N18	N	0.364651	0.053736	0.093642
N19	N	0.295474	0.052709	0.093620
C20	C	0.254270	0.091911	-0.000217
N21	N	0.284857	0.132172	-0.094052
N22	N	0.354041	0.133196	-0.094034
C23	C	0.394714	0.093993	-0.000184
C24	C	0.138922	0.090203	-0.126324
C25	C	0.066097	0.089134	-0.126336
C26	C	0.066056	0.089136	0.125835
C27	C	0.138879	0.090212	0.125843
C28	C	0.175308	0.090742	-0.000240
C29	C	0.829982	-0.034708	-0.000199
C30	C	0.828843	-0.112213	-0.000201
C31	C	0.884308	-0.673988	-0.000249
C32	C	0.885384	-0.601165	-0.000237
C33	C	0.822291	-0.556225	-0.000223
C34	C	0.758117	-0.584113	-0.000185
C35	C	0.757043	-0.656935	-0.000183
N36	N	0.776620	-0.435541	-0.078937
N37	N	0.777645	-0.366364	-0.078942
C38	C	0.825525	-0.336816	-0.000224
N39	N	0.872353	-0.379060	0.078481
N40	N	0.871330	-0.448244	0.078479
C41	C	0.823450	-0.477261	-0.000223
C42	C	0.890863	-0.229973	-0.000239
C43	C	0.891937	-0.157148	-0.000218
C44	C	0.764668	-0.140097	-0.000180
C45	C	0.763596	-0.212921	-0.000187
C46	C	0.826695	-0.257855	-0.000223
C47	C	0.952161	0.087461	-0.000237
C48	C	1.029666	0.088594	-0.000265
C49	C	0.819003	0.220627	-0.000213
C50	C	0.820142	0.298131	-0.000219
N51	N	0.824475	0.092962	0.360139
N52	N	0.824516	0.092950	-0.360547
C53	C	0.766784	0.150297	0.580518
C54	C	0.766907	0.150507	0.419350
C55	C	0.897280	0.108646	0.418569
C56	C	0.896965	0.109051	0.579787
C57	C	0.810089	0.019750	0.580059
C58	C	0.808408	0.020246	0.418833
H59	H	0.480398	0.095275	0.228562
C60	C	0.956689	0.053719	0.366751
H61	H	1.000236	0.064194	0.403316
H62	H	0.958349	0.054702	0.268048
H63	H	0.948137	0.008372	0.396947
C64	C	0.178904	0.090803	0.264534
H65	H	0.146778	0.090322	0.339617
H66	H	0.201855	0.131930	0.269780
H67	H	0.212767	0.050512	0.269779
C68	C	0.914175	0.181161	0.630564
H69	H	0.921290	0.209933	0.552663
H70	H	0.955579	0.175148	0.685544
H71	H	0.876261	0.202897	0.684790
H72	H	0.711345	-0.235621	-0.000172
H73	H	0.612591	0.097210	-0.228904
C74	C	0.026075	0.088530	-0.265032
H75	H	0.058204	0.088993	-0.340115
H76	H	-0.007789	0.128815	-0.270297
H77	H	0.003127	0.047397	-0.270262
H78	H	0.706747	-0.547518	-0.000169
C79	C	0.955969	-0.570488	-0.000278
H80	H	0.993394	-0.607679	-0.000306
H81	H	0.959034	-0.542433	0.080373
H82	H	0.959029	-0.542436	-0.080950
H83	H	0.704790	-0.679634	-0.000156
H84	H	0.944190	-0.134450	-0.000233
C85	C	0.779318	0.223896	0.367213
H86	H	0.784312	0.253695	0.444564
H87	H	0.740482	0.242987	0.312397
H88	H	0.820832	0.220282	0.312530
C89	C	0.736060	0.004157	0.367256
H90	H	0.715727	0.041592	0.310182
H91	H	0.706380	-0.000896	0.444773
H92	H	0.741441	-0.038149	0.314963
H93	H	0.942242	-0.266560	-0.000267
H94	H	0.712783	0.141196	0.379849
C95	C	0.866957	-0.037902	0.631551
H96	H	0.857961	-0.082011	0.595313
H97	H	0.866283	-0.039492	0.730271
H98	H	0.911713	-0.027772	0.600814
H99	H	0.935689	-0.710569	-0.000271
C100	C	0.695267	-0.090672	-0.000171
H101	H	0.705095	-0.043308	-0.000186
H102	H	0.668938	-0.099103	0.080489
H103	H	0.668953	-0.099104	-0.080834
H104	H	0.712488	0.141141	0.619343
H105	H	0.036390	0.088700	0.228484
H106	H	0.775845	0.204317	0.621010
C107	C	0.178996	0.090799	-0.265007
H108	H	0.146892	0.090332	-0.340102
H109	H	0.212861	0.050514	-0.270251
H110	H	0.201946	0.131932	-0.270236
H111	H	0.847738	-0.024409	0.378532
H112	H	0.480482	0.095262	-0.228927
H113	H	0.612513	0.097239	0.228601
H114	H	0.941254	0.068918	0.618768
C115	C	0.739937	-0.000694	0.635053
H116	H	0.732236	-0.045020	0.597966
H117	H	0.702783	0.033721	0.607465
H118	H	0.741518	-0.003402	0.733667
H119	H	0.910333	0.161416	0.378172
