data_functionalizedCrystal
_audit_creation_method	'MofGen! by Chris Wilmer'
_symmetry_space_group_name_H-M	'P1'
_symmetry_Int_Tables_number	1
_symmetry_cell_setting	triclinic
loop_
_symmetry_equiv_pos_as_xyz
  x,y,z
_cell_length_a	8.597213
_cell_length_b	14.750779
_cell_length_c	8.559649
_cell_angle_alpha	79.164307
_cell_angle_beta	102.375353
_cell_angle_gamma	84.606190
loop_
_atom_site_label
_atom_site_type_symbol
_atom_site_fract_x
_atom_site_fract_y
_atom_site_fract_z
O1	O	1.938919	0.240176	-0.340555
O2	O	1.497245	0.203650	-0.343225
O3	O	1.756994	0.225129	-0.111293
O4	O	1.679169	0.218696	-0.572487
O5	O	1.830421	0.071551	-0.045736
O6	O	1.570672	0.050071	-0.277668
O7	O	2.012346	0.086598	-0.274998
Zn8	Zn	1.803167	0.043951	-0.265925
Zn9	Zn	1.706423	0.246297	-0.352299
O10	O	1.752596	0.065118	-0.506930
C11	C	1.477938	0.122228	-0.306508
C12	C	1.311016	0.108423	-0.294753
N13	N	1.869203	-0.094144	-0.206976
C14	C	1.455980	-0.480133	-0.575799
C15	C	1.502264	-0.576805	-0.534503
C16	C	1.732305	-0.557745	-0.329209
C17	C	1.686036	-0.461070	-0.370482
C18	C	1.547873	-0.422272	-0.493780
C19	C	1.777929	-0.403209	-0.288463
C20	C	1.731669	-0.306542	-0.329740
C21	C	1.593514	-0.267736	-0.453036
C22	C	1.501612	-0.325605	-0.535057
C23	C	1.916098	-0.442008	-0.165174
C24	C	2.007991	-0.384146	-0.083155
C25	C	1.961725	-0.287478	-0.124423
C26	C	1.823570	-0.248673	-0.247719
C27	C	2.053626	-0.229609	-0.042402
C28	C	2.007365	-0.132942	-0.083678
C29	C	1.777309	-0.152006	-0.288995
C30	C	2.031652	0.168022	-0.311716
C31	C	2.198570	0.181832	-0.323473
N32	N	1.640401	0.384393	-0.411235
C33	C	1.709985	0.141420	-0.598935
C34	C	1.692429	0.139970	-0.775411
C35	C	1.799605	0.148829	-0.019289
C36	C	1.817158	0.150286	0.157184
H37	H	1.229998	0.255237	-0.357066
H38	H	1.664794	-0.120416	-0.389385
H39	H	1.279578	0.035013	-0.261176
Br40	Br	2.195499	-0.436806	0.084166
Br41	Br	2.017542	0.166844	-0.713975
H42	H	1.389097	-0.294016	-0.635446
Br43	Br	1.530737	-0.136543	-0.509068
Br44	Br	1.268451	-0.427476	-0.743114
H45	H	1.572207	0.130022	-0.852718
Br46	Br	1.377536	-0.655326	-0.645843
H47	H	1.844802	-0.589345	-0.228823
Br48	Br	1.978885	-0.573200	-0.109172
Br49	Br	2.241145	-0.282271	0.124903
H50	H	2.082197	-0.085830	-0.016890
