data_functionalizedCrystal
_audit_creation_method	'MofGen! by Chris Wilmer'
_symmetry_space_group_name_H-M	'P1'
_symmetry_Int_Tables_number	1
_symmetry_cell_setting	triclinic
loop_
_symmetry_equiv_pos_as_xyz
  x,y,z
_cell_length_a	10.654550
_cell_length_b	15.995350
_cell_length_c	9.130313
_cell_angle_alpha	90.000982
_cell_angle_beta	89.996220
_cell_angle_gamma	83.988639
loop_
_atom_site_label
_atom_site_type_symbol
_atom_site_fract_x
_atom_site_fract_y
_atom_site_fract_z
O1	O	1.666298	0.117599	-0.121912
O2	O	2.166298	0.617599	0.378088
O3	O	1.300673	0.128803	-0.121888
O4	O	1.800673	0.628803	0.378112
O5	O	1.493480	0.001371	-0.121899
O6	O	1.993480	0.501371	0.378101
O7	O	1.473491	0.245030	-0.121900
O8	O	1.973491	0.745030	0.378100
O9	O	1.493478	0.001375	0.121700
O10	O	1.993478	0.501375	0.621700
O11	O	1.300671	0.128807	0.121711
O12	O	1.800671	0.628807	0.621711
O13	O	1.666295	0.117602	0.121687
O14	O	2.166295	0.617602	0.621687
Cu15	Cu	1.483483	0.123205	0.143942
Cu16	Cu	1.983483	0.623205	0.643942
Cu17	Cu	1.483486	0.123201	-0.144142
Cu18	Cu	1.983486	0.623201	0.355858
O19	O	1.473488	0.245034	0.121698
O20	O	1.973488	0.745034	0.621698
C21	C	1.253885	0.127982	-0.000085
C22	C	1.753885	0.627982	0.499915
C23	C	1.114473	0.125521	-0.000076
C24	C	1.614473	0.625521	0.499924
C25	C	1.034008	0.200551	-0.000098
C26	C	1.534008	0.700551	0.499902
C27	C	0.903017	0.198233	-0.000123
C28	C	1.403017	0.698233	0.499877
C29	C	0.932971	0.045849	-0.000111
C30	C	1.432971	0.545849	0.499889
C31	C	1.063959	0.048168	-0.000075
C32	C	1.563959	0.548168	0.499925
C33	C	1.084522	0.277904	-0.000099
C34	C	1.584522	0.777904	0.499901
C35	C	1.004055	0.352940	-0.000122
C36	C	1.504055	0.852940	0.499878
C37	C	0.873064	0.350622	-0.000147
C38	C	1.373064	0.850622	0.499853
C39	C	0.822541	0.273268	-0.000149
C40	C	1.322541	0.773268	0.499851
C41	C	1.492652	-0.029827	-0.000102
C42	C	1.992652	0.470173	0.499898
C43	C	1.490175	-0.122791	-0.000110
C44	C	1.990175	0.377209	0.499890
C45	C	1.481278	-0.460591	-0.000105
C46	C	1.981278	0.039409	0.499895
C47	C	1.343964	-0.413954	-0.000642
C48	C	1.843964	0.086046	0.499358
C49	C	1.346442	-0.317249	-0.000093
C50	C	1.846442	0.182751	0.499907
C51	C	1.485691	-0.293004	-0.000108
C52	C	1.985691	0.206996	0.499892
C53	C	1.553417	-0.333687	0.138991
C54	C	2.053417	0.166313	0.638991
C55	C	1.549968	-0.430342	0.139108
C56	C	2.049968	0.069658	0.639108
C57	C	1.552807	-0.430688	-0.137910
C58	C	2.052807	0.069312	0.362090
C59	C	1.552775	-0.333743	-0.139748
C60	C	2.052775	0.166257	0.360252
C61	C	1.488192	-0.198292	-0.000106
C62	C	1.988192	0.301708	0.499894
C63	C	1.478780	-0.555303	-0.000098
C64	C	1.978780	-0.055303	0.499902
C65	C	1.713084	0.118423	-0.000119
C66	C	2.213084	0.618423	0.499881
C67	C	1.852495	0.120884	-0.000137
C68	C	2.352495	0.620884	0.499863
C69	C	1.474316	0.276232	-0.000101
C70	C	1.974316	0.776232	0.499899
C71	C	1.476793	0.369197	-0.000103
C72	C	1.976793	0.869197	0.499897
N73	N	1.483490	0.123207	0.346564
N74	N	1.983490	0.623207	0.846564
N75	N	1.483488	0.123192	-0.346765
N76	N	1.983488	0.623192	0.153235
C77	C	1.568887	0.066800	0.423211
C78	C	2.068887	0.566800	0.923211
C79	C	1.568883	0.066789	0.576548
C80	C	2.068883	0.566789	1.076548
C81	C	1.398083	0.179602	0.576578
C82	C	1.898083	0.679602	1.076578
C83	C	1.398081	0.179607	0.423244
C84	C	1.898081	0.679607	0.923244
C85	C	1.654296	0.010399	0.346532
C86	C	2.154296	0.510399	0.846532
C87	C	1.739700	-0.046012	0.423179
C88	C	2.239700	0.453988	0.923179
C89	C	1.739697	-0.046022	0.576516
C90	C	2.239697	0.453978	1.076516
C91	C	1.654289	0.010379	0.653206
C92	C	2.154289	0.510379	1.153206
H93	H	1.045200	0.415918	-0.000108
H94	H	1.545200	0.915918	0.499892
F95	F	1.485409	-0.454639	0.275026
F96	F	1.985409	0.045361	0.775026
F97	F	1.681735	-0.471730	0.147359
F98	F	2.181735	0.028270	0.647359
H99	H	1.328548	0.225522	0.639028
H100	H	1.828548	0.725522	1.139028
H101	H	1.328542	0.225538	0.360837
H102	H	1.828542	0.725538	0.860837
F103	F	0.879195	-0.036470	-0.000118
F104	F	1.379195	0.463530	0.499882
H105	H	1.654321	-0.317791	-0.148158
H106	H	2.154321	0.182209	0.351842
F107	F	1.494120	-0.457868	-0.275716
F108	F	1.994120	0.042132	0.224284
F109	F	1.223932	0.280377	-0.000079
F110	F	1.723932	0.780377	0.499921
F111	F	0.787429	0.430480	-0.000158
F112	F	1.287429	0.930480	0.499842
H113	H	1.129477	-0.012928	-0.000061
H114	H	1.629477	0.487072	0.499939
F115	F	0.683127	0.270805	-0.000157
F116	F	1.183127	0.770805	0.499843
H117	H	1.293204	-0.289138	-0.099805
H118	H	1.793204	0.210862	0.400195
F119	F	1.272225	-0.438592	-0.131025
F120	F	1.772225	0.061408	0.368975
H121	H	1.289324	-0.433864	0.098560
H122	H	1.789324	0.066136	0.598560
H123	H	1.292844	-0.289694	0.099796
H124	H	1.792844	0.210306	0.599796
F125	F	1.488550	-0.298113	-0.274269
F126	F	1.988550	0.201887	0.225731
F127	F	1.830580	-0.106065	0.658087
F128	F	2.330580	0.393935	1.158087
F129	F	1.687135	-0.314448	0.145744
F130	F	2.187135	0.185552	0.645744
H131	H	1.654048	-0.461861	-0.138855
H132	H	2.154048	0.038139	0.361145
H133	H	1.506376	-0.305577	0.242515
H134	H	2.006376	0.194423	0.742515
H135	H	1.654308	0.010404	0.221678
H136	H	2.154308	0.510404	0.721678
F137	F	1.830582	-0.106041	0.341560
F138	F	2.330582	0.393959	0.841560
H139	H	1.654285	0.010361	0.778063
H140	H	2.154285	0.510361	1.278063
