data_functionalizedCrystal
_audit_creation_method	'MofGen! by Chris Wilmer'
_symmetry_space_group_name_H-M	'P1'
_symmetry_Int_Tables_number	1
_symmetry_cell_setting	triclinic
loop_
_symmetry_equiv_pos_as_xyz
  x,y,z
_cell_length_a	13.897449
_cell_length_b	16.625548
_cell_length_c	13.897447
_cell_angle_alpha	90.009284
_cell_angle_beta	90.020810
_cell_angle_gamma	90.007099
loop_
_atom_site_label
_atom_site_type_symbol
_atom_site_fract_x
_atom_site_fract_y
_atom_site_fract_z
Zn1	Zn	1.474560	0.455896	-0.384142
Zn2	Zn	1.724560	0.705896	-0.134142
Zn3	Zn	1.974560	0.955896	0.115858
Zn4	Zn	2.224560	1.205896	0.365858
Zn5	Zn	1.474488	0.321068	-0.545407
Zn6	Zn	1.724488	0.571068	-0.295407
Zn7	Zn	1.974488	0.821068	-0.045407
Zn8	Zn	2.224488	1.071068	0.204593
Zn9	Zn	1.313288	0.321079	-0.384132
Zn10	Zn	1.563288	0.571079	-0.134132
Zn11	Zn	1.813288	0.821079	0.115868
Zn12	Zn	2.063288	1.071079	0.365868
Zn13	Zn	1.313226	0.455860	-0.545400
Zn14	Zn	1.563226	0.705860	-0.295400
Zn15	Zn	1.813226	0.955860	-0.045400
Zn16	Zn	2.063226	1.205860	0.204600
O17	O	1.393891	0.388476	-0.464770
O18	O	1.643891	0.638476	-0.214770
O19	O	1.893891	0.888476	0.035230
O20	O	2.143891	1.138476	0.285230
O21	O	1.609532	0.438021	-0.405542
O22	O	1.859532	0.688021	-0.155542
O23	O	2.109532	0.938021	0.094458
O24	O	2.359532	1.188021	0.344458
O25	O	1.453100	0.208237	-0.524012
O26	O	1.703100	0.458237	-0.274012
O27	O	1.953100	0.708237	-0.024012
O28	O	2.203100	0.958237	0.225988
O29	O	1.334737	0.338983	-0.249151
O30	O	1.584737	0.588983	0.000849
O31	O	1.834737	0.838983	0.250849
O32	O	2.084737	1.088983	0.500849
O33	O	1.609479	0.338963	-0.524022
O34	O	1.859479	0.588963	-0.274022
O35	O	2.109479	0.838963	-0.024022
O36	O	2.359479	1.088963	0.225978
O37	O	1.453224	0.438032	-0.249159
O38	O	1.703224	0.688032	0.000841
O39	O	1.953224	0.938032	0.250841
O40	O	2.203224	1.188032	0.500841
O41	O	1.334667	0.208245	-0.405524
O42	O	1.584667	0.458245	-0.155524
O43	O	1.834667	0.708245	0.094476
O44	O	2.084667	0.958245	0.344476
O45	O	1.178298	0.338948	-0.405517
O46	O	1.428298	0.588948	-0.155517
O47	O	1.678298	0.838948	0.094483
O48	O	1.928298	1.088948	0.344483
O49	O	1.334632	0.568698	-0.524011
O50	O	1.584632	0.818698	-0.274011
O51	O	1.834632	1.068698	-0.024011
O52	O	2.084632	1.318698	0.225989
O53	O	1.178253	0.437971	-0.524000
O54	O	1.428253	0.687971	-0.274000
O55	O	1.678253	0.937971	-0.024000
O56	O	1.928253	1.187971	0.226000
O57	O	1.453164	0.568724	-0.405535
O58	O	1.703164	0.818724	-0.155535
O59	O	1.953164	1.068724	0.094465
O60	O	2.203164	1.318724	0.344465
O61	O	1.453040	0.338929	-0.680388
O62	O	1.703040	0.588929	-0.430388
O63	O	1.953040	0.838929	-0.180388
O64	O	2.203040	1.088929	0.069612
O65	O	1.334561	0.437960	-0.680383
O66	O	1.584561	0.687960	-0.430383
O67	O	1.834561	0.937960	-0.180383
O68	O	2.084561	1.187960	0.069617
C69	C	1.143276	0.388458	-0.464757
C70	C	1.393276	0.638458	-0.214757
C71	C	1.643276	0.888458	0.035243
C72	C	1.893276	1.138458	0.285243
C73	C	1.036062	0.388469	-0.464775
C74	C	1.286062	0.638469	-0.214775
C75	C	1.536062	0.888469	0.035225
C76	C	1.786062	1.138469	0.285225
C77	C	0.839767	0.388490	-0.464779
C78	C	1.089767	0.638490	-0.214779
C79	C	1.339767	0.888490	0.035221
C80	C	1.589767	1.138490	0.285221
C81	C	0.949000	0.388476	-0.464774
C82	C	1.199000	0.638476	-0.214774
C83	C	1.449000	0.888476	0.035226
C84	C	1.699000	1.138476	0.285226
C85	C	1.393899	0.598785	-0.464773
C86	C	1.643899	0.848785	-0.214773
C87	C	1.893899	1.098785	0.035227
C88	C	2.143899	1.348785	0.285227
C89	C	1.393903	0.688406	-0.464774
C90	C	1.643903	0.938406	-0.214774
C91	C	1.893903	1.188406	0.035226
C92	C	2.143903	1.438406	0.285226
C93	C	1.393863	1.016582	-0.464783
C94	C	1.643863	1.266582	-0.214783
C95	C	1.893863	1.516582	0.035217
C96	C	2.143863	1.766582	0.285217
C97	C	1.393871	0.925273	-0.464783
C98	C	1.643871	1.175273	-0.214783
C99	C	1.893871	1.425273	0.035217
C100	C	2.143871	1.675273	0.285217
C101	C	1.393883	0.852497	-0.464779
C102	C	1.643883	1.102497	-0.214779
C103	C	1.893883	1.352497	0.035221
C104	C	2.143883	1.602497	0.285221
C105	C	1.393891	0.761182	-0.464778
C106	C	1.643891	1.011182	-0.214778
C107	C	1.893891	1.261182	0.035222
C108	C	2.143891	1.511182	0.285222
C109	C	1.645483	0.388495	-0.464784
C110	C	1.895483	0.638495	-0.214784
C111	C	2.145483	0.888495	0.035216
C112	C	2.395483	1.138495	0.285216
C113	C	1.752697	0.388503	-0.464790
C114	C	2.002697	0.638503	-0.214790
C115	C	2.252697	0.888503	0.035210
C116	C	2.502697	1.138503	0.285210
C117	C	1.393873	1.178985	-0.464787
C118	C	1.643873	1.428985	-0.214787
C119	C	1.893873	1.678985	0.035213
C120	C	2.143873	1.928985	0.285213
C121	C	1.393863	1.089364	-0.464780
C122	C	1.643863	1.339364	-0.214780
C123	C	1.893863	1.589364	0.035220
C124	C	2.143863	1.839364	0.285220
C125	C	1.393812	0.388457	-0.715385
C126	C	1.643812	0.638457	-0.465385
C127	C	1.893812	0.888457	-0.215385
C128	C	2.143812	1.138457	0.034615
C129	C	1.393867	0.388476	-0.822599
C130	C	1.643867	0.638476	-0.572599
C131	C	1.893867	0.888476	-0.322599
C132	C	2.143867	1.138476	-0.072599
C133	C	1.393913	0.388495	-0.909668
C134	C	1.643913	0.638495	-0.659668
C135	C	1.893913	0.888495	-0.409668
C136	C	2.143913	1.138495	-0.159668
C137	C	1.393981	0.388515	-1.018901
C138	C	1.643981	0.638515	-0.768901
C139	C	1.893981	0.888515	-0.518901
C140	C	2.143981	1.138515	-0.268901
C141	C	1.393996	0.388512	-0.213177
C142	C	1.643996	0.638512	0.036823
C143	C	1.893996	0.888512	0.286823
C144	C	2.143996	1.138512	0.536823
C145	C	1.394040	0.388528	-0.105963
C146	C	1.644040	0.638528	0.144037
C147	C	1.894040	0.888528	0.394037
C148	C	2.144040	1.138528	0.644037
