data_functionalizedCrystal
_audit_creation_method	'MofGen! by Chris Wilmer'
_symmetry_space_group_name_H-M	'P1'
_symmetry_Int_Tables_number	1
_symmetry_cell_setting	triclinic
loop_
_symmetry_equiv_pos_as_xyz
  x,y,z
_cell_length_a	19.288866
_cell_length_b	19.288859
_cell_length_c	18.366186
_cell_angle_alpha	89.994011
_cell_angle_beta	90.007516
_cell_angle_gamma	96.864815
loop_
_atom_site_label
_atom_site_type_symbol
_atom_site_fract_x
_atom_site_fract_y
_atom_site_fract_z
O1	O	-0.921350	0.086652	-0.060523
O2	O	-0.421350	0.586652	0.439477
O3	O	-0.719090	0.098340	-0.060530
O4	O	-0.219090	0.598340	0.439470
O5	O	-0.826067	-0.008634	-0.060522
O6	O	-0.326067	0.491366	0.439478
O7	O	-0.814373	0.193627	-0.060531
O8	O	-0.314373	0.693627	0.439469
O9	O	-0.826048	-0.008640	0.060577
O10	O	-0.326048	0.491360	0.560577
O11	O	-0.719071	0.098335	0.060569
O12	O	-0.219071	0.598335	0.560569
O13	O	-0.921332	0.086647	0.060576
O14	O	-0.421332	0.586647	0.560576
Zn15	Zn	-0.820199	0.092490	0.079800
Zn16	Zn	-0.320199	0.592490	0.579800
Zn17	Zn	-0.820223	0.092497	-0.079754
Zn18	Zn	-0.320223	0.592497	0.420246
O19	O	-0.814355	0.193622	0.060568
O20	O	-0.314355	0.693622	0.560568
C21	C	-0.693204	0.097961	0.000019
C22	C	-0.193204	0.597961	0.500019
C23	C	-0.616101	0.096832	0.000016
C24	C	-0.116101	0.596832	0.500016
C25	C	-0.060545	0.088701	-0.065987
C26	C	0.439455	0.588701	0.434013
C27	C	-0.132993	0.089758	-0.065990
C28	C	0.367007	0.589758	0.434010
C29	C	-0.169211	0.090287	0.000021
C30	C	0.330789	0.590287	0.500021
C31	C	-0.132979	0.089740	0.066040
C32	C	0.367021	0.589740	0.566040
C33	C	-0.060534	0.088677	0.066041
C34	C	0.439466	0.588677	0.566041
C35	C	-0.278530	0.132652	0.050593
C36	C	0.221470	0.632652	0.550593
C37	C	-0.350973	0.133720	0.050589
C38	C	0.149027	0.633720	0.550589
C39	C	-0.392657	0.093565	0.000022
C40	C	0.107343	0.593565	0.500022
C41	C	-0.361887	0.052350	-0.050555
C42	C	0.138113	0.552350	0.449445
C43	C	-0.289442	0.051287	-0.050554
C44	C	0.210558	0.551287	0.449446
C45	C	-0.247766	0.091440	0.000028
C46	C	0.252234	0.591440	0.500028
C47	C	-0.507437	0.095252	-0.065996
C48	C	-0.007437	0.595252	0.434004
C49	C	-0.579887	0.096304	-0.065996
C50	C	-0.079887	0.596304	0.434004
C51	C	-0.579871	0.096294	0.066036
C52	C	-0.079871	0.596294	0.566036
C53	C	-0.507423	0.095235	0.066034
C54	C	-0.007423	0.595235	0.566034
C55	C	-0.471211	0.094717	0.000016
C56	C	0.028789	0.594717	0.500016
C57	C	-0.825682	-0.034514	0.000027
C58	C	-0.325682	0.465486	0.500027
C59	C	-0.824555	-0.111617	0.000026
C60	C	-0.324555	0.388383	0.500026
C61	C	-0.879698	-0.675658	0.000009
C62	C	-0.379698	-0.175658	0.500009
C63	C	-0.880763	-0.603211	0.000015
C64	C	-0.380763	-0.103211	0.500015
C65	C	-0.817994	-0.558505	0.000013
C66	C	-0.317994	-0.058505	0.500013
C67	C	-0.754155	-0.586250	0.000022
C68	C	-0.254155	-0.086250	0.500022
C69	C	-0.753091	-0.658695	0.000023
C70	C	-0.253091	-0.158695	0.500023
C71	C	-0.771187	-0.437229	-0.042414
C72	C	-0.271187	0.062771	0.457586
C73	C	-0.772254	-0.364786	-0.042419
C74	C	-0.272254	0.135214	0.457581
C75	C	-0.821272	-0.335059	0.000013
C76	C	-0.321272	0.164941	0.500013
C77	C	-0.869235	-0.377786	0.042442
C78	C	-0.369235	0.122214	0.542442
C79	C	-0.868172	-0.450232	0.042443
C80	C	-0.368172	0.049768	0.542443
C81	C	-0.819140	-0.479949	0.000012
C82	C	-0.319140	0.020051	0.500012
C83	C	-0.886262	-0.228767	0.000016
C84	C	-0.386262	0.271233	0.500016
C85	C	-0.887325	-0.156319	0.000027
C86	C	-0.387325	0.343681	0.500027
C87	C	-0.760714	-0.139359	0.000027
C88	C	-0.260714	0.360641	0.500027
C89	C	-0.759653	-0.211806	0.000023
C90	C	-0.259653	0.288194	0.500023
C91	C	-0.822429	-0.256506	0.000014
C92	C	-0.322429	0.243494	0.500014
C93	C	0.052782	0.087027	0.000026
C94	C	0.552782	0.587027	0.500026
C95	C	-0.024321	0.088159	0.000023
C96	C	0.475679	0.588159	0.500023
C97	C	-0.814740	0.219501	0.000017
C98	C	-0.314740	0.719501	0.500017
C99	C	-0.815867	0.296604	0.000014
C100	C	-0.315867	0.796604	0.500014
N101	N	-0.820188	0.092485	0.188691
N102	N	-0.320188	0.592485	0.688691
N103	N	-0.820240	0.092497	-0.188645
N104	N	-0.320240	0.592497	0.311355
C105	C	-0.867573	0.045140	0.226795
C106	C	-0.367573	0.545140	0.726795
C107	C	-0.867577	0.045137	0.303023
C108	C	-0.367577	0.545137	0.803023
C109	C	-0.820203	0.092491	0.341144
C110	C	-0.320203	0.592491	0.841144
C111	C	-0.772809	0.139839	0.303031
C112	C	-0.272809	0.639839	0.803031
C113	C	-0.772802	0.139837	0.226804
C114	C	-0.272802	0.639837	0.726804
C115	C	-0.810904	0.155779	0.461901
C116	C	-0.310904	0.655779	0.961901
C117	C	-0.810916	0.155782	0.538126
C118	C	-0.310916	0.655782	1.038126
C119	C	-0.820223	0.092499	0.576251
C120	C	-0.320223	0.592499	1.076251
C121	C	-0.829532	0.029210	0.538142
C122	C	-0.329532	0.529210	1.038142
C123	C	-0.829524	0.029207	0.461916
C124	C	-0.329524	0.529207	0.961916
C125	C	-0.820206	0.092499	0.423799
C126	C	-0.320206	0.592499	0.923799
C127	C	-0.867615	0.045147	0.697010
C128	C	-0.367615	0.545147	1.197010
C129	C	-0.867615	0.045143	0.773239
C130	C	-0.367615	0.545143	1.273239
C131	C	-0.772850	0.139852	0.773246
C132	C	-0.272850	0.639852	1.273246
C133	C	-0.772848	0.139850	0.697018
C134	C	-0.272848	0.639850	1.197018
C135	C	-0.820234	0.092498	0.658905
C136	C	-0.320234	0.592498	1.158905
H137	H	-0.477929	0.094796	0.119787
H138	H	0.022071	0.594796	0.619787
F139	F	-0.721212	-0.319320	-0.087581
F140	F	-0.221212	0.180680	0.412419
F141	F	-0.685151	-0.688216	0.000028
F142	F	-0.185151	-0.188216	0.500028
H143	H	-0.376018	0.167296	0.091756
H144	H	0.123982	0.667296	0.591756
H145	H	-0.907224	-0.485017	0.076991
H146	H	-0.407224	0.014983	0.576991
F147	F	-0.801013	0.223140	0.578678
F148	F	-0.301013	0.723140	1.078678
H149	H	-0.244597	0.165347	0.091779
H150	H	0.255403	0.665347	0.591779
H151	H	-0.734236	0.178395	0.334073
H152	H	-0.234236	0.678395	0.834073
H153	H	-0.837110	-0.022321	0.569182
H154	H	-0.337110	0.477679	1.069182
F155	F	-0.801048	0.223139	0.421333
F156	F	-0.301048	0.723139	0.921333
H157	H	-0.734214	0.178391	0.195779
H158	H	-0.234214	0.678391	0.695779
H159	H	-0.731262	-0.461425	-0.076963
H160	H	-0.231262	0.038575	0.423037
H161	H	-0.707675	-0.234389	0.000022
H162	H	-0.207675	0.265611	0.500022
H163	H	-0.703048	-0.549845	0.000022
H164	H	-0.203048	-0.049845	0.500022
F165	F	-0.918002	-0.005258	0.186234
F166	F	-0.418002	0.494742	0.686234
H167	H	-0.031040	0.088238	0.119796
H168	H	0.468960	0.588238	0.619796
H169	H	-0.609360	0.096722	0.119783
H170	H	-0.109360	0.596722	0.619783
H171	H	-0.609380	0.096740	-0.119751
H172	H	-0.109380	0.596740	0.380249
H173	H	-0.906165	0.006581	0.334053
H174	H	-0.406165	0.506581	0.834053
F175	F	-0.406244	0.009613	-0.104379
F176	F	0.093756	0.509613	0.395621
H177	H	-0.930815	-0.712049	0.000005
H178	H	-0.430815	-0.212049	0.500005
H179	H	-0.906198	0.006588	0.665977
H180	H	-0.406198	0.506588	1.165977
F181	F	-0.918046	-0.005254	0.813794
F182	F	-0.418046	0.494746	1.313794
H183	H	-0.162473	0.090170	0.119787
H184	H	0.337527	0.590170	0.619787
H185	H	-0.031065	0.088276	-0.119744
H186	H	0.468935	0.588276	0.380256
F187	F	-0.722427	0.190245	0.813813
F188	F	-0.222427	0.690245	1.313813
H189	H	-0.909146	-0.353584	0.077001
H190	H	-0.409146	0.146416	0.577001
H191	H	-0.937378	-0.265164	0.000009
H192	H	-0.437378	0.234836	0.500009
H193	H	-0.932744	-0.580623	0.000011
H194	H	-0.432744	-0.080623	0.500011
H195	H	-0.939305	-0.133738	0.000027
H196	H	-0.439305	0.366262	0.500027
F197	F	-0.722417	0.190244	0.656462
F198	F	-0.222417	0.690244	1.156462
H199	H	-0.837102	-0.022326	0.430891
H200	H	-0.337102	0.477674	0.930891
H201	H	-0.709606	-0.102959	0.000031
H202	H	-0.209606	0.397041	0.500031
H203	H	-0.264392	0.017727	-0.091733
H204	H	0.235608	0.517727	0.408267
F205	F	-0.171553	0.090335	-0.136249
F206	F	0.328447	0.590335	0.363751
H207	H	-0.477951	0.094828	-0.119752
H208	H	0.022049	0.594828	0.380248
