data_functionalizedCrystal
_audit_creation_method	'MofGen! by Chris Wilmer'
_symmetry_space_group_name_H-M	'P1'
_symmetry_Int_Tables_number	1
_symmetry_cell_setting	triclinic
loop_
_symmetry_equiv_pos_as_xyz
  x,y,z
_cell_length_a	17.038272
_cell_length_b	17.038272
_cell_length_c	10.268362
_cell_angle_alpha	89.994496
_cell_angle_beta	90.001146
_cell_angle_gamma	91.111556
loop_
_atom_site_label
_atom_site_type_symbol
_atom_site_fract_x
_atom_site_fract_y
_atom_site_fract_z
O1	O	1.048755	0.170537	-0.108138
O2	O	0.820943	0.167829	-0.108177
O3	O	0.933495	0.055278	-0.108148
O4	O	0.936203	0.283089	-0.108168
O5	O	0.933484	0.055272	0.108453
O6	O	0.820932	0.167824	0.108424
O7	O	1.048744	0.170532	0.108462
Cu8	Cu	0.934837	0.169177	0.128220
Cu9	Cu	0.934850	0.169184	-0.127935
O10	O	0.936192	0.283084	0.108433
C11	C	0.791645	0.165364	0.000119
C12	C	0.704361	0.158016	0.000104
C13	C	0.931027	0.025982	0.000152
C14	C	0.923679	-0.061301	0.000151
C15	C	0.658752	0.225479	0.000099
C16	C	0.576740	0.218570	0.000118
C17	C	0.540339	0.144197	0.000132
C18	C	0.585954	0.076728	0.000141
C19	C	0.667965	0.083638	0.000132
C20	C	0.292951	0.119787	0.000169
C21	C	0.210935	0.112882	0.000175
C22	C	0.201726	0.254725	0.000154
C23	C	0.283739	0.261628	0.000137
C24	C	0.329347	0.194159	0.000153
C25	C	0.456510	0.137133	0.000147
C26	C	0.413174	0.201224	0.000147
C27	C	0.991142	-0.106911	0.000163
C28	C	0.984233	-0.188923	0.000150
C29	C	0.909860	-0.225324	0.000133
C30	C	0.842391	-0.179708	0.000116
C31	C	0.849301	-0.097698	0.000121
C32	C	0.885449	-0.472712	0.000111
C33	C	0.878545	-0.554728	0.000111
C34	C	1.020387	-0.563937	0.000142
C35	C	1.027291	-0.481924	0.000154
C36	C	0.959822	-0.436316	0.000130
C37	C	0.902796	-0.309153	0.000123
C38	C	0.966886	-0.352488	0.000131
C39	C	1.078042	0.172997	0.000164
C40	C	1.165326	0.180346	0.000170
C41	C	0.938660	0.312379	0.000130
C42	C	0.946008	0.399663	0.000123
N43	N	0.934834	0.169172	0.308386
N44	N	0.934859	0.169183	-0.308101
C45	C	0.934846	0.169182	0.574057
C46	C	0.934837	0.169179	0.426219
H47	H	0.539608	0.273507	0.000112
H48	H	0.794365	-0.060564	0.000110
H49	H	0.313370	0.322190	0.000110
C50	C	0.369615	0.047091	-0.111193
C51	C	0.416494	0.055383	0.000148
H52	H	0.344913	-0.003380	-0.111191
H53	H	0.330723	0.086282	-0.111176
H54	H	0.401421	0.052736	-0.186721
H55	H	0.384687	0.049744	0.075678
H56	H	0.455391	0.016181	0.000144
H57	H	0.181300	0.052315	0.000185
H58	H	0.830511	-0.435587	0.000092
H59	H	0.705099	0.028702	0.000135
H60	H	1.075316	-0.601079	0.000158
C61	C	0.104146	0.329243	-0.111187
C62	C	0.151590	0.328882	0.000151
H63	H	0.073192	0.375025	-0.111178
H64	H	0.136327	0.328997	-0.186710
H65	H	0.070734	0.283957	-0.111165
H66	H	0.185006	0.374165	0.000125
H67	H	0.119406	0.329135	0.075693
C68	C	0.395836	0.340738	0.000126
C69	C	0.453183	0.282974	0.000132
H70	H	0.420543	0.391206	0.000121
H71	H	0.364039	0.335095	-0.075399
H72	H	0.364041	0.335093	0.075668
H73	H	0.484974	0.288616	-0.075416
H74	H	0.484993	0.288620	0.075665
C75	C	0.499071	-0.013327	-0.111192
C76	C	0.545945	-0.005025	0.000154
H77	H	0.474377	-0.063802	-0.111188
H78	H	0.460174	0.025858	-0.111184
H79	H	0.530880	-0.007681	-0.186718
H80	H	0.514135	-0.010666	0.075680
H81	H	0.584848	-0.044222	0.000158
H82	H	1.039170	-0.226054	0.000163
C83	C	1.130651	-0.124259	0.000171
C84	C	1.072897	-0.066903	0.000173
H85	H	1.181124	-0.099560	0.000164
H86	H	1.125006	-0.156056	0.075700
H87	H	1.125000	-0.156051	-0.075368
H88	H	1.078545	-0.035114	0.075717
H89	H	1.078545	-0.035092	-0.075364
H90	H	1.087853	-0.452293	0.000168
H91	H	0.817978	-0.584363	0.000118
C92	C	1.056942	-0.265593	-0.111190
C93	C	1.048635	-0.312476	0.000151
H94	H	1.107409	-0.240883	-0.111167
H95	H	1.051315	-0.297392	-0.186711
H96	H	1.017742	-0.226700	-0.111188
H97	H	1.087832	-0.351373	0.000144
H98	H	1.054270	-0.280675	0.075691
H99	H	0.781835	-0.209353	0.000094
C100	C	0.812754	-0.396039	-0.111229
C101	C	0.821047	-0.349172	0.000118
H102	H	0.762287	-0.420751	-0.111227
H103	H	0.818388	-0.364229	-0.186745
H104	H	0.851955	-0.434931	-0.111216
H105	H	0.781849	-0.310277	0.000100
H106	H	0.815405	-0.380985	0.075654
H107	H	0.330076	0.064848	0.000183
C108	C	0.641404	0.364989	0.000094
C109	C	0.698760	0.307234	0.000087
H110	H	0.666103	0.415461	0.000098
H111	H	0.609607	0.359346	-0.075431
H112	H	0.609611	0.359334	0.075636
H113	H	0.730550	0.312885	-0.075460
H114	H	0.730570	0.312879	0.075620
