data_functionalizedCrystal
_audit_creation_method	'MofGen! by Chris Wilmer'
_symmetry_space_group_name_H-M	'P1'
_symmetry_Int_Tables_number	1
_symmetry_cell_setting	triclinic
loop_
_symmetry_equiv_pos_as_xyz
  x,y,z
_cell_length_a	29.839134
_cell_length_b	29.839132
_cell_length_c	19.076919
_cell_angle_alpha	92.265092
_cell_angle_beta	87.728549
_cell_angle_gamma	89.959876
loop_
_atom_site_label
_atom_site_type_symbol
_atom_site_fract_x
_atom_site_fract_y
_atom_site_fract_z
Zn1	Zn	0.676515	0.189133	0.398103
Zn2	Zn	1.009849	0.522466	0.731436
Zn3	Zn	1.343182	0.855799	1.064770
Zn4	Zn	0.679456	0.261242	0.280399
Zn5	Zn	1.012789	0.594576	0.613732
Zn6	Zn	1.346123	0.927909	0.947066
Zn7	Zn	0.604412	0.186121	0.280403
Zn8	Zn	0.937745	0.519454	0.613736
Zn9	Zn	1.271078	0.852787	0.947070
Zn10	Zn	0.601343	0.264228	0.398033
Zn11	Zn	0.934676	0.597561	0.731366
Zn12	Zn	1.268009	0.930895	1.064700
O13	O	0.640431	0.225181	0.339234
O14	O	0.973765	0.558514	0.672568
O15	O	1.307098	0.891848	1.005901
O16	O	0.739772	0.198709	0.382517
O17	O	1.073105	0.532043	0.715850
O18	O	1.406439	0.865376	1.049183
O19	O	0.672016	0.248767	0.181912
O20	O	1.005349	0.582101	0.515245
O21	O	1.338683	0.915434	0.848578
O22	O	0.614030	0.123654	0.296047
O23	O	0.947363	0.456987	0.629380
O24	O	1.280697	0.790320	0.962714
O25	O	0.741932	0.251688	0.296040
O26	O	1.075266	0.585021	0.629374
O27	O	1.408599	0.918355	0.962707
O28	O	0.667004	0.125867	0.382521
O29	O	1.000338	0.459200	0.715854
O30	O	1.333671	0.792533	1.049187
O31	O	0.616881	0.193576	0.181915
O32	O	0.950215	0.526909	0.515248
O33	O	1.283548	0.860242	0.848581
O34	O	0.541138	0.196470	0.295979
O35	O	0.874471	0.529804	0.629313
O36	O	1.207805	0.863137	0.962646
O37	O	0.608800	0.256776	0.496530
O38	O	0.942133	0.590110	0.829864
O39	O	1.275466	0.923443	1.163197
O40	O	0.538883	0.253856	0.382402
O41	O	0.872217	0.587189	0.715735
O42	O	1.205550	0.920522	1.049068
O43	O	0.664029	0.201604	0.496582
O44	O	0.997362	0.534938	0.829915
O45	O	1.330695	0.868271	1.163248
O46	O	0.669040	0.324505	0.295973
O47	O	1.002374	0.657838	0.629306
O48	O	1.335707	0.991171	0.962639
O49	O	0.611651	0.326698	0.382398
O50	O	0.944984	0.660032	0.715731
O51	O	1.278318	0.993365	1.049064
C52	C	0.523710	0.225161	0.339184
C53	C	0.857044	0.558494	0.672517
C54	C	1.190377	0.891827	1.005850
C55	C	0.473776	0.225163	0.339179
C56	C	0.807109	0.558496	0.672512
C57	C	1.140443	0.891830	1.005845
C58	C	0.640344	0.341902	0.339192
C59	C	0.973677	0.675236	0.672526
C60	C	1.307010	1.008569	1.005859
C61	C	0.640346	0.391837	0.339198
C62	C	0.973680	0.725170	0.672531
C63	C	1.307013	1.058504	1.005865
C64	C	0.670333	0.700327	0.294270
C65	C	1.003667	1.033661	0.627603
C66	C	1.337000	1.366994	0.960937
C67	C	0.670376	0.888001	0.294286
C68	C	1.003709	1.221334	0.627619
C69	C	1.337043	1.554668	0.960952
O70	O	0.695824	0.911285	0.256074
O71	O	1.029157	1.244618	0.589407
O72	O	1.362491	1.577952	0.922740
N73	N	0.640478	0.912623	0.339246
N74	N	0.973812	1.245957	0.672579
N75	N	1.307145	1.579290	1.005913
C76	C	0.610570	0.890324	0.384209
C77	C	0.943903	1.223658	0.717542
C78	C	1.277236	1.556991	1.050875
O79	O	0.585144	0.915574	0.422455
O80	O	0.918477	1.248907	0.755789
O81	O	1.251811	1.582240	1.089122
C82	C	0.610530	0.702652	0.384196
C83	C	0.943863	1.035985	0.717529
C84	C	1.277196	1.369319	1.050862
C85	C	0.640426	0.678032	0.339227
C86	C	0.973760	1.011365	0.672561
C87	C	1.307093	1.344699	1.005894
C88	C	0.700228	0.675707	0.249306
C89	C	1.033561	1.009041	0.582639
C90	C	1.366895	1.342374	0.915973
C91	C	0.700215	0.628792	0.249300
C92	C	1.033549	0.962125	0.582633
C93	C	1.366882	1.295458	0.915966
C94	C	0.670308	0.606496	0.294257
C95	C	1.003642	0.939830	0.627591
C96	C	1.336975	1.273163	0.960924
C97	C	0.640414	0.631116	0.339221
C98	C	0.973747	0.964450	0.672555
C99	C	1.307080	1.297783	1.005888
C100	C	0.580624	0.680354	0.429161
C101	C	0.913957	1.013688	0.762495
C102	C	1.247290	1.347021	1.095828
C103	C	0.580617	0.633433	0.429155
C104	C	0.913951	0.966766	0.762489
C105	C	1.247284	1.300100	1.095822
C106	C	0.610514	0.608813	0.384187
C107	C	0.943847	0.942146	0.717521
C108	C	1.277181	1.275480	1.050854
C109	C	0.610494	0.561905	0.384173
C110	C	0.943827	0.895238	0.717506
C111	C	1.277161	1.228572	1.050839
N112	N	0.640392	0.537283	0.339213
N113	N	0.973725	0.870616	0.672546
N114	N	1.307059	1.203949	1.005879
C115	C	0.670299	0.559578	0.294255
C116	C	1.003632	0.892912	0.627588
C117	C	1.336966	1.226245	0.960922
C118	C	0.610592	0.988855	0.384211
C119	C	0.943926	1.322188	0.717544
C120	C	1.277259	1.655522	1.050878
C121	C	0.610602	1.035773	0.384214
C122	C	0.943935	1.369106	0.717547
C123	C	1.277268	1.702440	1.050880
C124	C	0.670408	1.033446	0.294292
C125	C	1.003742	1.366780	0.627625
C126	C	1.337075	1.700113	0.960958
C127	C	0.670397	0.986527	0.294286
C128	C	1.003730	1.319861	0.627619
C129	C	1.337063	1.653194	0.960953
C130	C	0.640490	0.964233	0.339251
C131	C	0.973823	1.297566	0.672584
C132	C	1.307157	1.630899	1.005918
C133	C	0.670270	0.461052	0.294245
C134	C	1.003603	0.794386	0.627578
C135	C	1.336937	1.127719	0.960911
C136	C	0.670254	0.414133	0.294240
C137	C	1.003587	0.747466	0.627574
C138	C	1.336920	1.080799	0.960907
C139	C	0.610448	0.416464	0.384165
C140	C	0.943782	0.749797	0.717498
C141	C	1.277115	1.083130	1.050831
C142	C	0.610463	0.463379	0.384167
C143	C	0.943796	0.796712	0.717500
C144	C	1.277130	1.130046	1.050833
C145	C	0.640378	0.485672	0.339204
C146	C	0.973711	0.819006	0.672538
C147	C	1.307044	1.152339	1.005871
O148	O	0.585063	0.538592	0.422370
O149	O	0.918396	0.871925	0.755704
O150	O	1.251730	1.205258	1.089037
O151	O	0.695728	0.534321	0.256025
O152	O	1.029061	0.867655	0.589358
O153	O	1.362394	1.200988	0.922691
C154	C	0.670346	0.747243	0.294276
C155	C	1.003679	1.080576	0.627609
C156	C	1.337013	1.413910	0.960943
C157	C	0.640452	0.771863	0.339240
C158	C	0.973785	1.105196	0.672573
C159	C	1.307118	1.438530	1.005907
C160	C	0.610544	0.749568	0.384198
C161	C	0.943878	1.082901	0.717531
C162	C	1.277211	1.416234	1.050864
C163	C	0.640461	0.818781	0.339242
C164	C	0.973794	1.152114	0.672576
C165	C	1.307128	1.485448	1.005909
C166	C	0.670368	0.841077	0.294285
C167	C	1.003701	1.174410	0.627618
C168	C	1.337035	1.507743	0.960951
C169	C	0.700266	0.816454	0.249325
C170	C	1.033599	1.149788	0.582658
C171	C	1.366932	1.483121	0.915991
C172	C	0.700253	0.769539	0.249318
C173	C	1.033586	1.102872	0.582652
C174	C	1.366920	1.436205	0.915985
C175	C	0.580647	0.774190	0.429158
C176	C	0.913980	1.107523	0.762491
C177	C	1.247313	1.440857	1.095824
C178	C	0.580661	0.821105	0.429160
C179	C	0.913995	1.154439	0.762493
C180	C	1.247328	1.487772	1.095826
C181	C	0.610568	0.843401	0.384202
C182	C	0.943902	1.176734	0.717535
C183	C	1.277235	1.510068	1.050869
C184	C	0.162968	0.255102	0.384179
C185	C	0.496301	0.588436	0.717513
C186	C	0.829635	0.921769	1.050846
C187	C	-0.024706	0.255116	0.384211
C188	C	0.308627	0.588449	0.717544
C189	C	0.641961	0.921783	1.050877
O190	O	-0.049960	0.280549	0.422442
O191	O	0.283373	0.613883	0.755775
O192	O	0.616707	0.947216	1.089109
N193	N	-0.047012	0.225199	0.339287
N194	N	0.286321	0.558532	0.672621
N195	N	0.619655	0.891865	1.005954
C196	C	-0.022397	0.195274	0.294357
C197	C	0.310937	0.528607	0.627690
C198	C	0.644270	0.861941	0.961023
O199	O	-0.045676	0.169825	0.256152
O200	O	0.287658	0.503158	0.589486
O201	O	0.620991	0.836492	0.922819
C202	C	0.165276	0.195259	0.294329
C203	C	0.498610	0.528592	0.627663
C204	C	0.831943	0.861925	0.960996
C205	C	0.187580	0.225181	0.339250
C206	C	0.520913	0.558514	0.672584
C207	C	0.854247	0.891848	1.005917
C208	C	0.185272	0.285022	0.429097
C209	C	0.518605	0.618355	0.762431
C210	C	0.851938	0.951688	1.095764
C211	C	0.232188	0.285020	0.429086
C212	C	0.565521	0.618353	0.762420
C213	C	0.898854	0.951686	1.095753
C214	C	0.256799	0.255098	0.384157
C215	C	0.590133	0.588432	0.717491
C216	C	0.923466	0.921765	1.050824
C217	C	0.234496	0.225179	0.339239
C218	C	0.567829	0.558512	0.672573
C219	C	0.901162	0.891846	1.005906
C220	C	0.189890	0.165332	0.249402
C221	C	0.523224	0.498666	0.582736
C222	C	0.856557	0.831999	0.916069
C223	C	0.236812	0.165330	0.249401
C224	C	0.570145	0.498664	0.582734
C225	C	0.903478	0.831997	0.916068
C226	C	0.259115	0.195253	0.294322
C227	C	0.592449	0.528586	0.627655
C228	C	0.925782	0.861919	0.960989
C229	C	0.306023	0.195256	0.294299
C230	C	0.639357	0.528589	0.627633
C231	C	0.972690	0.861922	0.960966
N232	N	0.328329	0.225173	0.339223
N233	N	0.661663	0.558506	0.672556
N234	N	0.994996	0.891839	1.005889
C235	C	0.303717	0.255094	0.384152
C236	C	0.637051	0.588427	0.717485
C237	C	0.970384	0.921761	1.050818
C238	C	-0.120928	0.195285	0.294373
C239	C	0.212406	0.528618	0.627706
C240	C	0.545739	0.861951	0.961040
C241	C	-0.167846	0.195289	0.294379
C242	C	0.165488	0.528622	0.627712
C243	C	0.498821	0.861956	0.961045
C244	C	-0.170152	0.255130	0.384234
C245	C	0.163182	0.588464	0.717567
C246	C	0.496515	0.921797	1.050901
C247	C	-0.123233	0.255128	0.384224
C248	C	0.210101	0.588461	0.717558
C249	C	0.543434	0.921795	1.050891
C250	C	-0.098622	0.225202	0.339296
C251	C	0.234712	0.558535	0.672630
C252	C	0.568045	0.891869	1.005963
C253	C	0.402244	0.255088	0.384125
C254	C	0.735577	0.588421	0.717458
C255	C	1.068911	0.921755	1.050791
C256	C	0.449164	0.255084	0.384108
C257	C	0.782497	0.588418	0.717441
C258	C	1.115831	0.921751	1.050774
C259	C	0.451466	0.195242	0.294255
C260	C	0.784799	0.528575	0.627589
C261	C	1.118132	0.861908	0.960922
C262	C	0.404550	0.195247	0.294269
C263	C	0.737883	0.528580	0.627603
C264	C	1.071217	0.861913	0.960936
C265	C	0.379940	0.225171	0.339210
C266	C	0.713273	0.558505	0.672543
C267	C	1.046607	0.891838	1.005877
O268	O	0.331306	0.169832	0.256094
O269	O	0.664639	0.503165	0.589427
O270	O	0.997972	0.836499	0.922761
O271	O	0.327004	0.280533	0.422361
O272	O	0.660338	0.613866	0.755694
O273	O	0.993671	0.947199	1.089028
C274	C	0.116052	0.255104	0.384190
C275	C	0.449386	0.588438	0.717524
C276	C	0.782719	0.921771	1.050857
C277	C	0.093748	0.225185	0.339272
C278	C	0.427082	0.558518	0.672606
C279	C	0.760415	0.891852	1.005939
C280	C	0.118360	0.195264	0.294343
C281	C	0.451694	0.528597	0.627677
C282	C	0.785027	0.861930	0.961010
C283	C	0.046830	0.225189	0.339278
C284	C	0.380164	0.558523	0.672611
C285	C	0.713497	0.891856	1.005945
C286	C	0.022218	0.255111	0.384207
C287	C	0.355552	0.588444	0.717540
C288	C	0.688885	0.921777	1.050874
C289	C	0.044525	0.285028	0.429130
C290	C	0.377858	0.618361	0.762464
C291	C	0.711191	0.951694	1.095797
C292	C	0.091440	0.285026	0.429119
C293	C	0.424774	0.618359	0.762453
C294	C	0.758107	0.951692	1.095786
C295	C	0.096054	0.165346	0.249420
C296	C	0.429388	0.498680	0.582754
C297	C	0.762721	0.832013	0.916087
C298	C	0.049138	0.165351	0.249434
C299	C	0.382472	0.498685	0.582768
C300	C	0.715805	0.832018	0.916101
C301	C	0.024526	0.195273	0.294363
C302	C	0.357860	0.528606	0.627697
C303	C	0.691193	0.861939	0.961030
C304	C	0.757608	0.225202	0.339286
C305	C	1.090942	0.558535	0.672619
C306	C	1.424275	0.891868	1.005953
C307	C	0.807542	0.225210	0.339308
C308	C	1.140876	0.558544	0.672641
C309	C	1.474209	0.891877	1.005974
C310	C	0.635744	0.229859	0.522807
C311	C	0.969077	0.563193	0.856140
C312	C	1.302411	0.896526	1.189473
C313	C	0.633746	0.231853	0.601034
C314	C	0.967080	0.565186	0.934368
C315	C	1.300413	0.898520	1.267701
C316	C	0.640515	1.108004	0.339277
C317	C	0.973848	1.441337	0.672610
C318	C	1.307182	1.774670	1.005943
C319	C	0.640509	1.058069	0.339256
C320	C	0.973842	1.391402	0.672589
C321	C	1.307175	1.724735	1.005923
C322	C	0.645127	0.220488	0.156376
C323	C	0.978460	0.553821	0.489710
C324	C	1.311793	0.887155	0.823043
C325	C	0.647211	0.218368	0.078149
C326	C	0.980545	0.551701	0.411483
C327	C	1.313878	0.885035	0.744816
C328	C	0.661561	0.204066	0.637814
C329	C	0.994894	0.537399	0.971147
C330	C	1.328228	0.870733	1.304480
C331	C	0.659679	0.205937	0.711317
C332	C	0.993012	0.539271	1.044650
C333	C	1.326345	0.872604	1.377983
C334	C	0.629983	0.235599	0.748039
C335	C	0.963317	0.568932	1.081373
C336	C	1.296650	0.902266	1.414706
C337	C	0.602165	0.263387	0.711255
C338	C	0.935499	0.596721	1.044588
C339	C	1.268832	0.930054	1.377921
C340	C	0.604046	0.261513	0.637753
C341	C	0.937379	0.594846	0.971086
C342	C	1.270713	0.928180	1.304420
C343	C	0.621274	0.244282	0.967863
C344	C	0.954607	0.577615	1.301196
C345	C	1.287941	0.910949	1.634530
C346	C	0.619396	0.246155	1.041370
C347	C	0.952730	0.579488	1.374703
C348	C	1.286063	0.912822	1.708037
C349	C	0.676909	0.188705	1.041427
C350	C	1.010243	0.522038	1.374760
C351	C	1.343576	0.855371	1.708094
C352	C	0.678789	0.186835	0.967924
C353	C	1.012122	0.520168	1.301257
C354	C	1.345456	0.853502	1.634590
C355	C	0.650970	0.214622	0.931146
C356	C	0.984303	0.547955	1.264479
C357	C	1.317636	0.881288	1.597812
N358	N	0.628060	0.237514	0.823171
N359	N	0.961393	0.570847	1.156505
N360	N	1.294726	0.904180	1.489838
N361	N	0.652891	0.212704	0.856015
N362	N	0.986225	0.546038	1.189348
N363	N	1.319558	0.879371	1.522682
H364	H	0.694599	0.394088	0.257620
H365	H	1.027932	0.727421	0.590953
H366	H	1.361266	1.060755	0.924286
C367	C	0.577702	0.964338	0.433698
C368	C	0.911035	1.297671	0.767031
C369	C	1.244368	1.631004	1.100365
N370	N	0.552931	0.945873	0.470978
N371	N	0.886265	1.279207	0.804311
N372	N	1.219598	1.612540	1.137644
H373	H	0.116089	0.140980	0.212833
H374	H	0.449422	0.474314	0.546166
H375	H	0.782755	0.807647	0.879500
H376	H	0.250343	0.309385	0.465667
H377	H	0.583676	0.642718	0.799001
H378	H	0.917010	0.976051	1.132334
H379	H	0.595214	0.270310	1.071267
H380	H	0.928547	0.603643	1.404601
H381	H	1.261880	0.936977	1.737934
C382	C	0.547756	0.749672	0.478637
C383	C	0.881090	1.083005	0.811970
C384	C	1.214423	1.416339	1.145303
N385	N	0.522984	0.731207	0.515912
N386	N	0.856317	1.064540	0.849245
N387	N	1.189651	1.397874	1.182579
H388	H	0.724584	0.693855	0.212696
H389	H	1.057918	1.027189	0.546029
H390	H	1.391251	1.360522	0.879362
H391	H	0.724616	0.834615	0.212717
H392	H	1.057949	1.167949	0.546050
H393	H	1.391283	1.501282	0.879383
C394	C	0.158206	0.317945	0.478520
C395	C	0.491539	0.651279	0.811853
C396	C	0.824873	0.984612	1.145186
N397	N	0.137823	0.342749	0.515741
N398	N	0.471157	0.676083	0.849075
N399	N	0.804490	1.009416	1.182408
C400	C	0.165367	0.132410	0.199993
C401	C	0.498700	0.465743	0.533326
C402	C	0.832033	0.799077	0.866659
N403	N	0.146896	0.107609	0.162777
N404	N	0.480230	0.440942	0.496111
N405	N	0.813563	0.774276	0.829444
H406	H	0.471513	0.170882	0.257673
H407	H	0.804847	0.504215	0.591006
H408	H	1.138180	0.837549	0.924340
C409	C	-0.192374	0.162375	0.244958
C410	C	0.140959	0.495708	0.578291
C411	C	0.474292	0.829042	0.911625
N412	N	-0.210848	0.137580	0.207736
N413	N	0.122486	0.470914	0.541069
N414	N	0.455819	0.804247	0.874403
H415	H	0.256848	0.140958	0.212818
H416	H	0.590181	0.474291	0.546152
H417	H	0.923514	0.807625	0.879485
C418	C	0.590670	0.274847	0.927417
C419	C	0.924003	0.608180	1.260750
C420	C	1.257337	0.941514	1.594083
N421	N	0.567617	0.297869	0.896950
N422	N	0.900950	0.631203	1.230283
N423	N	1.234283	0.964536	1.563617
C424	C	0.573448	0.292082	0.597296
C425	C	0.906781	0.625415	0.930629
C426	C	1.240115	0.958749	1.263963
N427	N	0.550400	0.315107	0.566825
N428	N	0.883733	0.648440	0.900158
N429	N	1.217067	0.981773	1.233492
C430	C	0.703175	0.485568	0.244780
C431	C	1.036508	0.818901	0.578113
C432	C	1.369842	1.152234	0.911446
N433	N	0.727956	0.504032	0.207518
N434	N	1.061290	0.837366	0.540852
N435	N	1.394623	1.170699	0.874185
H436	H	0.682330	0.183311	0.741259
H437	H	1.015663	0.516645	1.074593
H438	H	1.348996	0.849978	1.407926
C439	C	0.577709	1.062850	0.433675
C440	C	0.911042	1.396183	0.767009
C441	C	1.244375	1.729516	1.100342
N442	N	0.552935	1.083243	0.470935
N443	N	0.886268	1.416576	0.804268
N444	N	1.219601	1.749909	1.137601
H445	H	0.699558	0.166082	1.071380
H446	H	1.032891	0.499415	1.404713
H447	H	1.366225	0.832748	1.738046
H448	H	-0.100893	0.170915	0.257784
H449	H	0.232440	0.504248	0.591117
H450	H	0.565773	0.837582	0.924450
C451	C	0.703286	0.959450	0.244820
C452	C	1.036620	1.292783	0.578154
C453	C	1.369953	1.626116	0.911487
N454	N	0.728061	0.939057	0.207562
N455	N	1.061394	1.272390	0.540895
N456	N	1.394727	1.605724	0.874228
H457	H	0.556277	0.700392	0.465776
H458	H	0.889610	1.033725	0.799109
H459	H	1.222943	1.367059	1.132443
C460	C	0.569496	0.296011	0.751652
C461	C	0.902829	0.629344	1.084985
C462	C	1.236162	0.962677	1.418319
N463	N	0.544888	0.320583	0.782079
N464	N	0.878222	0.653917	1.115412
N465	N	1.211555	0.987250	1.448745
C466	C	0.024610	0.132431	0.200016
C467	C	0.357943	0.465764	0.533349
C468	C	0.691276	0.799098	0.866682
N469	N	0.006136	0.107633	0.162800
N470	N	0.339470	0.440966	0.496133
N471	N	0.672803	0.774299	0.829467
C472	C	0.711452	0.154201	0.927534
C473	C	1.044785	0.487534	1.260868
C474	C	1.378118	0.820867	1.594201
N475	N	0.736053	0.129619	0.897113
N476	N	1.069387	0.462953	1.230447
N477	N	1.402720	0.796286	1.563780
H478	H	0.724598	0.749496	0.212701
H479	H	1.057931	1.082829	0.546035
H480	H	1.391265	1.416163	0.879368
C481	C	-0.197234	0.288042	0.433660
C482	C	0.136100	0.621375	0.766994
C483	C	0.469433	0.954709	1.100327
N484	N	-0.217634	0.312827	0.470890
N485	N	0.115699	0.646160	0.804224
N486	N	0.449033	0.979493	1.137557
H487	H	0.724561	0.608749	0.212685
H488	H	1.057894	0.942082	0.546018
H489	H	1.391228	1.275415	0.879352
C490	C	0.703309	1.057980	0.244842
C491	C	1.036642	1.391313	0.578175
C492	C	1.369976	1.724647	0.911508
N493	N	0.728091	1.076461	0.207602
N494	N	1.061424	1.409795	0.540935
N495	N	1.394757	1.743128	0.874269
C496	C	0.694228	0.171435	0.597426
C497	C	1.027562	0.504769	0.930759
C498	C	1.360895	0.838102	1.264092
N499	N	0.718832	0.146855	0.567008
N500	N	1.052166	0.480189	0.900341
N501	N	1.385499	0.813522	1.233674
H502	H	0.109596	0.309391	0.465699
H503	H	0.442929	0.642725	0.799032
H504	H	0.776262	0.976058	1.132366
H505	H	0.556264	0.615283	0.465773
H506	H	0.889597	0.948617	0.799107
H507	H	1.222931	1.281950	1.132440
H508	H	0.467321	0.279452	0.420688
H509	H	0.800655	0.612786	0.754022
H510	H	1.133988	0.946119	1.087355
H511	H	0.586120	0.483426	0.420786
H512	H	0.919454	0.816759	0.754119
H513	H	1.252787	1.150093	1.087452
C514	C	0.380015	0.162334	0.244849
C515	C	0.713349	0.495667	0.578182
C516	C	1.046682	0.829001	0.911516
N517	N	0.361539	0.137541	0.207629
N518	N	0.694872	0.470874	0.540962
N519	N	1.028206	0.804208	0.874296
H520	H	0.556312	0.841147	0.465778
H521	H	0.889645	1.174481	0.799111
H522	H	1.222979	1.507814	1.132444
C523	C	0.375180	0.288010	0.433556
C524	C	0.708513	0.621343	0.766890
C525	C	1.041847	0.954676	1.100223
N526	N	0.354796	0.312809	0.470784
N527	N	0.688129	0.646143	0.804117
N528	N	1.021462	0.979476	1.137450
C529	C	0.577554	0.391929	0.433619
C530	C	0.910887	0.725263	0.766952
C531	C	1.244221	1.058596	1.100285
N532	N	0.552780	0.373449	0.470872
N533	N	0.886114	0.706782	0.804205
N534	N	1.219447	1.040116	1.137539
H535	H	0.024477	0.309392	0.465711
H536	H	0.357811	0.642726	0.799044
H537	H	0.691144	0.976059	1.132378
H538	H	-0.105076	0.279493	0.420804
H539	H	0.228257	0.612826	0.754137
H540	H	0.561590	0.946159	1.087471
