data_functionalizedCrystal
_audit_creation_method	'MofGen! by Chris Wilmer'
_symmetry_space_group_name_H-M	'P1'
_symmetry_Int_Tables_number	1
_symmetry_cell_setting	triclinic
loop_
_symmetry_equiv_pos_as_xyz
  x,y,z
_cell_length_a	10.967926
_cell_length_b	11.792254
_cell_length_c	10.268362
_cell_angle_alpha	89.994755
_cell_angle_beta	102.123988
_cell_angle_gamma	84.460570
loop_
_atom_site_label
_atom_site_type_symbol
_atom_site_fract_x
_atom_site_fract_y
_atom_site_fract_z
O1	O	1.656737	0.159179	0.263524
O2	O	1.293554	0.174420	0.182011
O3	O	1.483950	0.001649	0.224753
O4	O	1.466340	0.331950	0.220782
O5	O	1.483931	0.001643	0.441349
O6	O	1.293534	0.174414	0.398608
O7	O	1.656718	0.159173	0.480120
Cu8	Cu	1.475124	0.166793	0.459141
Cu9	Cu	1.475147	0.166800	0.202991
O10	O	1.466321	0.331944	0.437379
C11	C	1.247048	0.173308	0.279874
C12	C	1.108506	0.169992	0.248780
C13	C	1.046729	0.168510	0.347120
C14	C	0.903539	0.165082	0.314986
C15	C	1.482832	-0.040647	0.332802
C16	C	1.479511	-0.166667	0.332055
C17	C	1.476813	-0.269010	0.331445
C18	C	1.473440	-0.397404	0.330676
C19	C	1.703223	0.160284	0.382255
C20	C	1.841765	0.163601	0.413340
C21	C	1.467440	0.374240	0.329327
C22	C	1.470760	0.500260	0.330065
N23	N	1.475117	0.166787	0.639305
C24	C	1.475132	0.166801	0.904979
C25	C	1.475120	0.166796	0.757139
N26	N	1.475152	0.166801	1.022826
H27	H	0.850425	0.163811	0.206995
O28	O	1.110062	0.169818	0.475974
C29	C	1.091771	0.070942	0.543762
H30	H	1.065311	0.001500	0.468791
H31	H	1.181959	0.040050	0.617444
H32	H	1.013255	0.091321	0.599866
O33	O	0.905087	0.164911	0.542204
C34	C	0.886791	0.066036	0.609990
H35	H	0.860339	-0.003408	0.535019
H36	H	0.976974	0.035146	0.683680
H37	H	0.808268	0.086415	0.666085
H38	H	1.055388	0.168720	0.140797
