data_functionalizedCrystal
_audit_creation_method	'MofGen! by Chris Wilmer'
_symmetry_space_group_name_H-M	'P1'
_symmetry_Int_Tables_number	1
_symmetry_cell_setting	triclinic
loop_
_symmetry_equiv_pos_as_xyz
  x,y,z
_cell_length_a	31.640172
_cell_length_b	23.096457
_cell_length_c	23.096457
_cell_angle_alpha	59.997717
_cell_angle_beta	90.009611
_cell_angle_gamma	60.002549
loop_
_atom_site_label
_atom_site_type_symbol
_atom_site_fract_x
_atom_site_fract_y
_atom_site_fract_z
Zr1	Zr	0.407218	0.633650	-0.075891
O2	O	0.339725	0.754459	-0.168356
O3	O	0.427902	0.512860	-0.047548
O4	O	0.427895	0.633662	-0.168344
O5	O	0.339745	0.633641	0.047729
O6	O	0.497452	0.633650	-0.168332
O7	O	0.339732	0.633657	-0.047560
O8	O	0.497465	0.417557	0.047750
O9	O	0.339732	0.849734	-0.168353
O10	O	0.488641	0.562527	-0.035448
O11	O	0.436741	0.562524	0.035656
O12	O	0.436732	0.704753	-0.106565
O13	O	0.384832	0.704750	-0.035461
Zr14	Zr	0.518174	0.633605	0.076105
Zr15	Zr	0.518154	0.633631	-0.075871
Zr16	Zr	0.407239	0.633624	0.076084
Zr17	Zr	0.407229	0.785602	-0.075886
Zr18	Zr	0.518163	0.481653	0.076099
O19	O	0.497490	0.754395	0.047762
O20	O	0.497461	0.754432	-0.168327
O21	O	0.339754	0.754423	0.047733
O22	O	0.585667	0.512796	0.168570
O23	O	0.585638	0.512833	-0.047520
O24	O	0.427931	0.512823	0.168541
O25	O	0.585647	0.633615	-0.047515
O26	O	0.497497	0.633593	0.168558
O27	O	0.427940	0.633605	0.168545
O28	O	0.585660	0.633598	0.047774
O29	O	0.427911	0.849719	-0.168337
O30	O	0.497481	0.417537	0.168550
O31	O	0.585660	0.417521	0.168566
O32	O	0.585644	0.417542	0.047766
O33	O	0.339748	0.849713	-0.047553
O34	O	0.427927	0.849698	-0.047536
O35	O	0.488660	0.562503	0.106779
O36	O	0.540560	0.562506	0.035675
O37	O	0.488651	0.704732	-0.035443
O38	O	0.436751	0.704729	0.035661
C39	C	0.462682	0.443559	0.000100
C40	C	0.462677	0.379051	0.000098
C41	C	0.501004	0.296250	0.052596
C42	C	0.501008	0.235628	0.052603
C43	C	0.462688	0.257813	0.000100
C44	C	0.424355	0.340628	-0.052402
C45	C	0.424349	0.401247	-0.052403
N46	N	0.451088	0.201715	-0.062153
N47	N	0.451097	0.144126	-0.062149
C48	C	0.462702	0.075174	0.000101
N49	N	0.474309	0.065977	0.062352
N50	N	0.474303	0.123570	0.062348
C51	C	0.462690	0.192087	0.000096
C52	C	0.501035	-0.073364	0.052611
C53	C	0.501035	-0.133985	0.052618
C54	C	0.424384	-0.028983	-0.052392
C55	C	0.424382	0.031635	-0.052394
C56	C	0.462710	0.009440	0.000107
C57	C	0.323933	0.633652	0.000082
C58	C	0.276838	0.633660	0.000073
C59	C	0.011928	0.559380	0.037244
C60	C	-0.165058	0.559365	0.037258
O61	O	-0.164899	0.496226	0.068855
N62	N	-0.214283	0.633605	0.000134
C63	C	-0.219261	0.707854	-0.036992
O64	O	-0.265192	0.770999	-0.068561
C65	C	-0.042277	0.707867	-0.037001
C66	C	0.006948	0.633623	0.000119
C67	C	0.061150	0.485141	0.074362
C68	C	0.105394	0.485145	0.074355
C69	C	0.100414	0.559388	0.037230
C70	C	0.051191	0.633627	0.000112
C71	C	-0.047256	0.782115	-0.074123
C72	C	-0.003005	0.782112	-0.074120
C73	C	0.046220	0.707867	-0.037000
C74	C	0.090455	0.707874	-0.037020
N75	N	0.139681	0.633634	0.000104
C76	C	0.144660	0.559391	0.037229
C77	C	-0.312179	0.707842	-0.036985
C78	C	-0.356425	0.707839	-0.036984
C79	C	-0.302218	0.559350	0.037267
C80	C	-0.257971	0.559354	0.037261
C81	C	-0.262954	0.633602	0.000138
C82	C	0.237572	0.559406	0.037211
C83	C	0.281817	0.559417	0.037198
C84	C	0.227606	0.707905	-0.037050
C85	C	0.183365	0.707895	-0.037040
C86	C	0.188352	0.633639	0.000095
O87	O	0.090337	0.770980	-0.068594
O88	O	0.190595	0.496255	0.068806
C89	C	-0.032316	0.559375	0.037251
C90	C	-0.081539	0.633614	0.000133
C91	C	-0.086518	0.707857	-0.036992
C92	C	-0.125785	0.633611	0.000134
C93	C	-0.120805	0.559368	0.037259
C94	C	-0.071580	0.485128	0.074383
C95	C	-0.027336	0.485132	0.074376
C96	C	-0.135744	0.782097	-0.074115
C97	C	-0.179985	0.782086	-0.074106
C98	C	-0.175005	0.707843	-0.036981
C99	C	0.601459	0.633604	0.000132
C100	C	0.648554	0.633596	0.000141
C101	C	0.462671	0.633660	-0.189991
C102	C	0.462662	0.633671	-0.254509
C103	C	0.462710	0.823697	0.000114
C104	C	0.462715	0.888204	0.000116
C105	C	0.500983	0.633666	-0.284795
C106	C	0.500995	0.633649	-0.345403
C107	C	0.462677	0.633654	-0.375730
C108	C	0.424353	0.633655	-0.345434
C109	C	0.424346	0.633663	-0.284823
N110	N	0.417247	0.680004	-0.494095
N111	N	0.417256	0.679998	-0.551674
C112	C	0.462699	0.633627	-0.558345
N113	N	0.508135	0.587273	-0.505269
N114	N	0.508125	0.587283	-0.447687
C115	C	0.462682	0.633644	-0.441452
C116	C	0.501035	0.633603	-0.654349
C117	C	0.501047	0.633581	-0.714956
C118	C	0.424402	0.633595	-0.714989
C119	C	0.424394	0.633608	-0.654380
C120	C	0.462710	0.633616	-0.624066
C121	C	0.462721	0.633595	0.190205
C122	C	0.462730	0.633585	0.254722
C123	C	0.601446	0.443535	0.000125
C124	C	0.648536	0.379019	0.000132
C125	C	0.462707	0.443526	0.190198
C126	C	0.462711	0.379008	0.254713
C127	C	0.601471	0.443503	0.190223
C128	C	0.648570	0.378976	0.254747
C129	C	0.323921	0.823753	-0.190010
C130	C	0.276823	0.888280	-0.254534
C131	C	0.323947	0.823721	0.000088
C132	C	0.276856	0.888236	0.000082
C133	C	0.462685	0.823729	-0.189984
C134	C	0.462681	0.888247	-0.254500
C135	C	0.643549	0.348733	-0.036997
C136	C	0.687791	0.288121	-0.037005
C137	C	0.737019	0.257794	0.000120
C138	C	0.742006	0.288086	0.037250
C139	C	0.697764	0.348700	0.037253
C140	C	0.489814	0.348698	0.322142
C141	C	0.489816	0.288085	0.382767
C142	C	0.462717	0.257778	0.375961
C143	C	0.435611	0.288093	0.308525
C144	C	0.435607	0.348710	0.247902
C145	C	0.697784	0.348675	0.247933
C146	C	0.742042	0.288054	0.308554
C147	C	0.737086	0.257730	0.375989
C148	C	0.687866	0.288037	0.382802
C149	C	0.643609	0.348661	0.322182
C150	C	0.227608	0.918588	-0.247719
C151	C	0.183350	0.979228	-0.308340
C152	C	0.188306	1.009555	-0.375775
C153	C	0.237526	0.979244	-0.382588
C154	C	0.281783	0.918609	-0.321968
C155	C	0.281844	0.918529	0.037204
C156	C	0.237602	0.979157	0.037196
C157	C	0.188373	1.009487	0.000069
C158	C	0.183387	0.979192	-0.037058
C159	C	0.227628	0.918569	-0.037054
C160	C	0.489785	0.918535	-0.247671
C161	C	0.489791	0.979149	-0.308284
C162	C	0.462691	1.009479	-0.375725
C163	C	0.435586	0.979185	-0.382552
C164	C	0.435583	0.918568	-0.321940
H165	H	0.321899	0.498955	0.067428
F166	F	0.682599	0.255756	0.454577
H167	H	0.393174	0.099058	-0.095147
H168	H	0.241555	1.003944	-0.437501
H169	H	0.321924	0.893839	0.067442
F170	F	-0.296926	0.480334	0.076778
F171	F	0.383554	0.489376	-0.108281
H172	H	0.393155	0.633657	-0.370128
H173	H	0.413509	0.893914	-0.327509
F174	F	0.541803	0.147494	0.108479
F175	F	0.383558	0.633669	-0.252589
H176	H	0.413548	0.263408	0.302995
H177	H	0.511891	0.263409	0.437670
H178	H	0.782115	0.263384	0.302994
H179	H	0.532242	-0.091437	0.095364
H180	H	0.143278	1.003897	-0.302779
H181	H	0.241671	1.003813	0.067432
H182	H	0.393183	-0.010919	-0.095140
H183	H	-0.007067	0.842575	-0.104341
H184	H	0.532184	0.633669	-0.260114
H185	H	0.152265	1.058927	-0.425131
F186	F	0.334160	0.886354	-0.329231
F187	F	0.518639	1.011383	-0.301004
F188	F	0.406761	0.380958	0.176141
F189	F	0.784101	0.193281	0.000110
H190	H	0.393205	0.633594	-0.739678
H191	H	0.532236	0.633605	-0.629665
H192	H	0.701832	0.373352	0.067492
F193	F	0.141291	1.074007	0.000071
H194	H	0.532201	0.633644	-0.370067
F195	F	0.591233	0.380900	0.329445
F196	F	0.130990	1.011477	-0.076567
H197	H	0.223560	0.893906	-0.067281
H198	H	0.393154	0.358687	-0.095149
F199	F	0.541827	-0.222114	0.108501
F200	F	0.462697	1.073995	-0.440229
F201	F	0.541838	0.633569	-0.747187
F202	F	0.383605	0.633619	-0.622147
H203	H	0.603468	0.373425	-0.067237
H204	H	0.241640	0.498939	0.067450
H205	H	-0.220065	0.842550	-0.104341
F206	F	0.518660	0.380940	0.329401
H207	H	0.701829	0.373355	0.193029
H208	H	0.511854	0.893851	-0.192763
H209	H	0.782094	0.263384	0.067475
H210	H	0.773127	0.208366	0.425344
H211	H	0.532214	0.278171	0.095347
F212	F	0.462727	0.193263	0.440489
H213	H	0.413521	1.003888	-0.437470
H214	H	0.223563	0.893899	-0.192816
F215	F	0.157779	0.406123	0.113868
H216	H	0.065214	0.424680	0.104597
F217	F	0.682473	0.255891	-0.076523
H218	H	-0.217893	0.498897	0.067494
H219	H	-0.396503	0.768296	-0.067220
H220	H	-0.316244	0.768307	-0.067220
F221	F	-0.099638	0.861138	-0.113627
H222	H	0.143283	0.768351	-0.067276
F223	F	0.025049	0.406110	0.113885
F224	F	-0.066288	0.406113	0.113891
F225	F	-0.141052	0.861121	-0.113631
F226	F	0.222316	0.786916	-0.076551
