data_functionalizedCrystal
_audit_creation_method	'MofGen! by Chris Wilmer'
_symmetry_space_group_name_H-M	'P1'
_symmetry_Int_Tables_number	1
_symmetry_cell_setting	triclinic
loop_
_symmetry_equiv_pos_as_xyz
  x,y,z
_cell_length_a	10.686220
_cell_length_b	14.908178
_cell_length_c	10.685880
_cell_angle_alpha	91.292343
_cell_angle_beta	89.641569
_cell_angle_gamma	97.932243
loop_
_atom_site_label
_atom_site_type_symbol
_atom_site_fract_x
_atom_site_fract_y
_atom_site_fract_z
Zn1	Zn	1.947885	-0.281830	-0.541457
Zn2	Zn	2.447885	0.218170	-0.041457
Zn3	Zn	1.919527	-0.422223	-0.321286
Zn4	Zn	2.419527	0.077777	0.178714
Zn5	Zn	1.721855	-0.283670	-0.347643
Zn6	Zn	2.221855	0.216330	0.152357
Zn7	Zn	1.723960	-0.445171	-0.545355
Zn8	Zn	2.223960	0.054829	-0.045355
O9	O	1.828306	-0.358223	-0.438935
O10	O	2.328306	0.141777	0.061065
O11	O	2.120563	-0.290079	-0.499589
O12	O	2.620563	0.209921	0.000411
O13	O	1.880556	-0.395009	-0.149897
O14	O	2.380556	0.104991	0.350103
O15	O	1.762825	-0.157082	-0.382753
O16	O	2.262825	0.342918	0.117247
O17	O	2.099728	-0.393225	-0.337830
O18	O	2.599728	0.106775	0.162170
O19	O	1.928888	-0.155730	-0.525147
O20	O	2.428888	0.344270	-0.025147
O21	O	1.735328	-0.293215	-0.169261
O22	O	2.235328	0.206785	0.330739
O23	O	1.545694	-0.315467	-0.386532
O24	O	2.045694	0.184533	0.113468
O25	O	1.766412	-0.432337	-0.719723
O26	O	2.266412	0.067663	-0.219723
O27	O	1.547241	-0.434122	-0.531789
O28	O	2.047241	0.065878	-0.031789
O29	O	1.930929	-0.312331	-0.716860
O30	O	2.430929	0.187669	-0.216860
O31	O	1.882597	-0.551611	-0.341609
O32	O	2.382597	-0.051611	0.158391
O33	O	1.738915	-0.568471	-0.506232
O34	O	2.238915	-0.068471	-0.006232
C35	C	1.500719	-0.377485	-0.462444
C36	C	2.000719	0.122515	0.037556
C37	C	1.360575	-0.385748	-0.472530
C38	C	1.860575	0.114252	0.027470
C39	C	1.807944	-0.592799	-0.421508
C40	C	2.307944	-0.092799	0.078492
C41	C	1.799351	-0.693147	-0.414086
C42	C	2.299351	-0.193147	0.085914
C43	C	1.956015	-0.880170	-0.548595
C44	C	2.456015	-0.380170	-0.048595
C45	C	1.947946	-0.974456	-0.541625
C46	C	2.447946	-0.474456	-0.041625
C47	C	1.775138	-0.976007	-0.393185
C48	C	2.275138	-0.476007	0.106815
C49	C	1.783207	-0.881721	-0.400154
C50	C	2.283207	-0.381721	0.099846
C51	C	1.873650	-0.833806	-0.477861
C52	C	2.373650	-0.333806	0.022139
C53	C	1.881724	-0.739518	-0.484823
C54	C	2.381724	-0.239518	0.015177
C55	C	1.708911	-0.741072	-0.336390
C56	C	2.208911	-0.241072	0.163610
C57	C	1.700842	-0.835357	-0.329420
C58	C	2.200842	-0.335357	0.170580
C59	C	2.157173	-0.338887	-0.415335
C60	C	2.657173	0.161113	0.084665
C61	C	2.297317	-0.330647	-0.405278
C62	C	2.797317	0.169353	0.094722
C63	C	1.852069	-0.374689	-0.764905
C64	C	2.352069	0.125311	-0.264905
C65	C	1.862195	-0.381706	-0.903814
C66	C	2.362195	0.118294	-0.403814
C67	C	1.848785	-0.122731	-0.456455
C68	C	2.348785	0.377269	0.043545
C69	C	1.857512	-0.022378	-0.463921
C70	C	2.357512	0.477622	0.036079
C71	C	1.804715	-0.341752	-0.114233
C72	C	2.304715	0.158248	0.385767
C73	C	1.794855	-0.334467	0.024674
C74	C	2.294855	0.165533	0.524674
H75	H	1.307513	-0.439253	-0.537820
H76	H	1.807513	0.060747	-0.037820
Cl77	Cl	1.693858	-0.263737	-0.905781
Cl78	Cl	2.193858	0.236263	-0.405781
Cl79	Cl	1.963172	-0.452443	-0.973355
Cl80	Cl	2.463172	0.047557	-0.473355
H81	H	1.955370	-0.700506	-0.548092
H82	H	2.455370	-0.200506	-0.048092
Cl83	Cl	1.379226	-0.248051	-0.304465
Cl84	Cl	1.879226	0.251949	0.195535
Cl85	Cl	1.587141	-0.895603	-0.231747
Cl86	Cl	2.087141	-0.395603	0.268253
Cl87	Cl	2.069724	-0.819929	-0.646264
Cl88	Cl	2.569724	-0.319929	-0.146264
Cl89	Cl	1.661421	-1.036262	-0.295538
Cl90	Cl	2.161421	-0.536262	0.204462
Cl91	Cl	2.051493	-1.032740	-0.630556
Cl92	Cl	2.551493	-0.532740	-0.130556
Cl93	Cl	1.605369	-0.682779	-0.247451
Cl94	Cl	2.105369	-0.182779	0.252549
