data_functionalizedCrystal
_audit_creation_method	'MofGen! by Chris Wilmer'
_symmetry_space_group_name_H-M	'P1'
_symmetry_Int_Tables_number	1
_symmetry_cell_setting	triclinic
loop_
_symmetry_equiv_pos_as_xyz
  x,y,z
_cell_length_a	15.297979
_cell_length_b	15.299816
_cell_length_c	17.077396
_cell_angle_alpha	99.655205
_cell_angle_beta	80.292640
_cell_angle_gamma	91.635460
loop_
_atom_site_label
_atom_site_type_symbol
_atom_site_fract_x
_atom_site_fract_y
_atom_site_fract_z
Zn1	Zn	1.399611	-0.117181	-0.672664
Zn2	Zn	1.899611	0.382819	-0.172664
Zn3	Zn	1.424858	-0.263652	-0.567289
Zn4	Zn	1.924858	0.236348	-0.067289
Zn5	Zn	1.253123	-0.142530	-0.523133
Zn6	Zn	1.753123	0.357470	-0.023133
Zn7	Zn	1.278410	-0.288901	-0.680225
Zn8	Zn	1.778410	0.211099	-0.180225
O9	O	1.339001	-0.203066	-0.610828
O10	O	1.839001	0.296934	-0.110828
O11	O	1.525555	-0.115435	-0.674000
O12	O	2.025555	0.384565	-0.174000
O13	O	1.402061	-0.247627	-0.451589
O14	O	1.902061	0.252373	0.048411
O15	O	1.251407	-0.016613	-0.521325
O16	O	1.751407	0.483387	-0.021325
O17	O	1.544104	-0.223046	-0.596582
O18	O	2.044104	0.276954	-0.096582
O19	O	1.359030	0.002012	-0.631184
O20	O	1.859030	0.502012	-0.131184
O21	O	1.275888	-0.158639	-0.419148
O22	O	1.775888	0.341361	0.080852
O23	O	1.133883	-0.183122	-0.528657
O24	O	1.633883	0.316878	-0.028657
O25	O	1.294505	-0.266080	-0.789065
O26	O	1.794505	0.233920	-0.289065
O27	O	1.152462	-0.290660	-0.644072
O28	O	1.652462	0.209340	-0.144072
O29	O	1.383550	-0.139918	-0.783510
O30	O	1.883550	0.360082	-0.283510
O31	O	1.426580	-0.389556	-0.603914
O32	O	1.926580	0.110444	-0.103914
O33	O	1.318986	-0.408106	-0.686888
O34	O	1.818986	0.091894	-0.186888
C35	C	1.111385	-0.242382	-0.582394
C36	C	1.611385	0.257618	-0.082394
C37	C	1.014014	-0.259223	-0.570252
C38	C	1.514014	0.240777	-0.070252
C39	C	0.977910	-0.323074	-0.524145
C40	C	1.477910	0.176926	-0.024145
C41	C	0.886425	-0.338899	-0.512741
C42	C	1.386425	0.161101	-0.012741
C43	C	0.831034	-0.290870	-0.547439
C44	C	1.331034	0.209130	-0.047439
C45	C	0.867137	-0.227013	-0.593543
C46	C	1.367137	0.272987	-0.093543
C47	C	0.958632	-0.211192	-0.604953
C48	C	1.458632	0.288808	-0.104953
C49	C	0.811757	-0.178987	-0.628247
C50	C	1.311757	0.321013	-0.128247
C51	C	0.847860	-0.115130	-0.674351
C52	C	1.347860	0.384870	-0.174351
C53	C	0.939346	-0.099311	-0.685758
C54	C	1.439346	0.400689	-0.185758
C55	C	0.994736	-0.147341	-0.651061
C56	C	1.494736	0.352659	-0.151061
C57	C	0.720262	-0.194809	-0.616837
C58	C	1.220262	0.305191	-0.116837
C59	C	0.700985	-0.082926	-0.697645
C60	C	1.200985	0.417074	-0.197645
C61	C	0.792469	-0.067101	-0.709049
C62	C	1.292469	0.432899	-0.209049
C63	C	1.378290	-0.430604	-0.651033
C64	C	1.878290	0.069396	-0.151033
C65	C	1.395179	-0.527932	-0.668269
C66	C	1.895179	-0.027932	-0.168269
C67	C	1.218871	-0.841331	-0.487977
C68	C	1.718871	-0.341331	0.012023
C69	C	1.202999	-0.749887	-0.471784
C70	C	1.702999	-0.249887	0.028216
C71	C	1.251043	-0.694394	-0.520903
C72	C	1.751043	-0.194394	-0.020903
C73	C	1.314961	-0.730353	-0.586219
C74	C	1.814961	-0.230353	-0.086219
C75	C	1.330830	-0.821807	-0.602418
C76	C	1.830830	-0.321807	-0.102418
C77	C	1.363001	-0.674870	-0.635344
C78	C	1.863001	-0.174870	-0.135344
C79	C	1.426920	-0.710830	-0.700660
C80	C	1.926920	-0.210830	-0.200660
C81	C	1.442786	-0.802274	-0.716855
C82	C	1.942786	-0.302274	-0.216855
C83	C	1.394742	-0.857767	-0.667736
C84	C	1.894742	-0.357767	-0.167736
C85	C	1.347133	-0.583416	-0.619146
C86	C	1.847133	-0.083416	-0.119146
C87	C	1.459091	-0.563893	-0.733587
C88	C	1.959091	-0.063893	-0.233587
C89	C	1.474963	-0.655337	-0.749780
C90	C	1.974963	-0.155337	-0.249780
C91	C	1.567505	-0.163596	-0.639373
C92	C	2.067505	0.336404	-0.139373
C93	C	1.664880	-0.146777	-0.651538
C94	C	2.164880	0.353223	-0.151538
C95	C	1.339032	-0.202987	-0.815565
C96	C	1.839032	0.297013	-0.315565
C97	C	1.339045	-0.202954	-0.902812
C98	C	1.839045	0.297046	-0.402812
C99	C	1.299582	0.025365	-0.570486
C100	C	1.799582	0.525365	-0.070486
C101	C	1.282784	0.122709	-0.553295
C102	C	1.782784	0.622709	-0.053295
C103	C	1.404805	-0.249174	-1.295513
C104	C	1.904805	0.250826	-0.795513
C105	C	1.404787	-0.249203	-1.213534
C106	C	1.904787	0.250797	-0.713534
C107	C	1.339091	-0.202882	-1.155657
C108	C	1.839091	0.297118	-0.655657
C109	C	1.273402	-0.156536	-1.179762
C110	C	1.773402	0.343464	-0.679762
C111	C	1.273417	-0.156513	-1.261740
C112	C	1.773417	0.343487	-0.761740
C113	C	1.273377	-0.156587	-1.008896
C114	C	1.773377	0.343413	-0.508896
C115	C	1.273363	-0.156609	-0.926913
C116	C	1.773363	0.343391	-0.426913
C117	C	1.404748	-0.249278	-0.960690
C118	C	1.904748	0.250722	-0.460690
C119	C	1.404762	-0.249254	-1.042668
C120	C	1.904762	0.250746	-0.542668
C121	C	1.339075	-0.202907	-1.066767
C122	C	1.839075	0.297093	-0.566767
C123	C	1.339009	-0.203072	-0.406882
C124	C	1.839009	0.296928	0.093118
C125	C	1.339123	-0.202829	-0.319613
C126	C	1.839123	0.297171	0.180387
H127	H	0.968739	-0.047323	-0.723308
H128	H	1.468739	0.452677	-0.223308
Cl129	Cl	1.414876	-0.972699	-0.687949
Cl130	Cl	1.914876	-0.472699	-0.187949
Cl131	Cl	1.487324	-0.307547	-0.930395
Cl132	Cl	1.987324	0.192453	-0.430395
Cl133	Cl	1.555313	-0.700554	-0.831889
Cl134	Cl	2.055313	-0.200554	-0.331889
Cl135	Cl	1.122640	-0.704688	-0.389684
Cl136	Cl	1.622640	-0.204688	0.110316
Cl137	Cl	0.841041	-0.419155	-0.454766
Cl138	Cl	1.341041	0.080845	0.045234
Cl139	Cl	1.190846	-0.098243	-1.292037
Cl140	Cl	1.690846	0.401757	-0.792037
Cl141	Cl	1.519491	-0.494137	-0.795342
Cl142	Cl	2.019491	0.005863	-0.295342
Cl143	Cl	1.487355	-0.307485	-1.115427
Cl144	Cl	1.987355	0.192515	-0.615427
Cl145	Cl	1.230782	-0.579489	-0.500781
Cl146	Cl	1.730782	-0.079489	-0.000781
Cl147	Cl	1.190821	-0.098290	-1.107002
Cl148	Cl	1.690821	0.401710	-0.607002
H149	H	1.069231	-0.134457	-0.660340
H150	H	1.569231	0.365543	-0.160340
H151	H	1.219869	-0.118888	-0.879790
H152	H	1.719869	0.381112	-0.379790
H153	H	0.821878	-0.015109	-0.746587
H154	H	1.321878	0.484891	-0.246587
Cl155	Cl	0.674886	-0.275083	-0.558880
Cl156	Cl	1.174886	0.224917	-0.058880
Cl157	Cl	0.631358	-0.022545	-0.741271
Cl158	Cl	1.131358	0.477455	-0.241271
H159	H	1.494828	-0.831550	-0.770043
H160	H	1.994828	-0.331550	-0.270043
Cl161	Cl	1.487405	-0.307403	-1.368265
Cl162	Cl	1.987405	0.192597	-0.868265
Cl163	Cl	1.190808	-0.098305	-1.039190
Cl164	Cl	1.690808	0.401695	-0.539190
H165	H	1.295090	-0.554147	-0.565966
H166	H	1.795090	-0.054147	-0.065966
H167	H	0.756544	-0.303758	-0.538151
H168	H	1.256544	0.196242	-0.038151
Cl169	Cl	1.158468	-0.911098	-0.426245
Cl170	Cl	1.658468	-0.411098	0.073755
H171	H	1.458263	-0.286954	-1.193917
H172	H	1.958263	0.213046	-0.693917
Cl173	Cl	1.047547	-0.383453	-0.480538
Cl174	Cl	1.547547	0.116547	0.019462
