data_functionalizedCrystal
_audit_creation_method	'MofGen! by Chris Wilmer'
_symmetry_space_group_name_H-M	'P1'
_symmetry_Int_Tables_number	1
_symmetry_cell_setting	triclinic
loop_
_symmetry_equiv_pos_as_xyz
  x,y,z
_cell_length_a	6.817900
_cell_length_b	16.418049
_cell_length_c	10.992410
_cell_angle_alpha	93.843616
_cell_angle_beta	108.764651
_cell_angle_gamma	103.389670
loop_
_atom_site_label
_atom_site_type_symbol
_atom_site_fract_x
_atom_site_fract_y
_atom_site_fract_z
V1	V	-4.086920	-0.115886	-0.401046
O2	O	-4.073689	0.005569	-0.392946
O3	O	-4.037641	-0.229782	-0.398750
O4	O	-4.064933	-0.114103	-0.575751
O5	O	-4.046208	-0.110911	-0.214720
V6	V	-4.567240	-0.101359	-0.378705
O7	O	-4.355206	-0.147753	-0.450051
O8	O	-4.749152	-0.069492	-0.329699
O9	O	-4.393313	0.012538	-0.381000
O10	O	-4.697868	-0.222813	-0.386805
O11	O	-4.725349	-0.106334	-0.565031
O12	O	-4.366021	-0.103141	-0.204000
C13	C	-3.881573	-0.257548	-0.392539
C14	C	-3.922744	-0.350660	-0.391827
C15	C	-4.200504	-0.569149	-0.396640
C16	C	-4.239178	-0.656639	-0.395982
C17	C	-3.873016	-0.648094	-0.383119
C18	C	-3.834349	-0.560608	-0.383786
C19	C	-3.998096	-0.521137	-0.390540
C20	C	-4.075438	-0.696113	-0.389215
C21	C	-4.117369	-0.790973	-0.388502
C22	C	-3.956164	-0.426271	-0.391256
C23	C	-3.916385	-0.109987	-0.618320
C24	C	-3.979686	-0.109283	-0.761145
C25	C	-3.848321	-0.102870	-0.956243
C26	C	-3.782517	-0.103949	-0.807764
C27	C	-4.158227	-0.191869	-0.838572
C28	C	-4.222713	-0.191138	-0.987135
C29	C	-4.138189	-0.031223	-0.948479
C30	C	-4.067573	-0.030831	-0.799465
C31	C	-4.212722	0.040299	-0.387208
C32	C	-4.150791	0.133410	-0.387928
C33	C	-4.177909	-0.107261	-0.161424
C34	C	-4.093847	-0.107960	-0.018597
H35	H	-4.403996	-0.695727	-0.400952
C36	C	-3.692904	-0.691514	-0.375673
H37	H	-3.744912	-0.750493	-0.376136
H38	H	-3.648429	-0.683073	-0.448438
H39	H	-3.574253	-0.667767	-0.297827
C40	C	-3.611687	-0.507790	-0.377070
H41	H	-3.519693	-0.543824	-0.372932
H42	H	-3.626085	-0.481133	-0.452363
H43	H	-3.551903	-0.465834	-0.301751
C44	C	-4.359175	-0.201180	-0.799695
H45	H	-4.335910	-0.154674	-0.735741
H46	H	-4.479497	-0.202103	-0.874044
H47	H	-4.386061	-0.252505	-0.765289
H48	H	-3.938726	0.030262	-0.746868
H49	H	-3.648065	-0.044567	-0.754192
C50	C	-4.183180	-0.269626	-1.049961
H51	H	-4.222174	-0.269875	-1.141130
H52	H	-4.035348	-0.267966	-1.014004
H53	H	-4.267668	-0.319465	-1.033521
H54	H	-4.098730	-0.250115	-0.813194
H55	H	-3.745217	-0.043079	-0.974839
C56	C	-3.797056	-0.177355	-1.021355
H57	H	-3.924634	-0.211543	-1.086371
H58	H	-3.693340	-0.156023	-1.060048
H59	H	-3.741603	-0.210462	-0.957809
C60	C	-3.687472	-0.179469	-0.774528
H61	H	-3.688994	-0.209613	-0.851825
H62	H	-3.543702	-0.159271	-0.715623
H63	H	-3.771124	-0.216130	-0.735649
C64	C	-4.259839	-0.029508	-0.755521
H65	H	-4.289172	-0.076999	-0.713050
H66	H	-4.226419	0.021181	-0.697182
H67	H	-4.382568	-0.031908	-0.829234
C68	C	-4.466290	-0.200851	-1.044774
H69	H	-4.525432	-0.205230	-0.977376
H70	H	-4.490880	-0.152809	-1.084618
H71	H	-4.532837	-0.250528	-1.107877
H72	H	-4.050064	0.031491	-0.968593
C73	C	-4.379011	-0.035265	-1.003667
H74	H	-4.404812	0.011259	-0.960912
H75	H	-4.419945	-0.032773	-1.094218
H76	H	-4.460849	-0.086781	-0.989898
H77	H	-4.333839	-0.537015	-0.402138
