data_functionalizedCrystal
_audit_creation_method	'MofGen! by Chris Wilmer'
_symmetry_space_group_name_H-M	'P1'
_symmetry_Int_Tables_number	1
_symmetry_cell_setting	triclinic
loop_
_symmetry_equiv_pos_as_xyz
  x,y,z
_cell_length_a	12.645330
_cell_length_b	12.645331
_cell_length_c	12.759393
_cell_angle_alpha	89.985060
_cell_angle_beta	89.969952
_cell_angle_gamma	90.016927
loop_
_atom_site_label
_atom_site_type_symbol
_atom_site_fract_x
_atom_site_fract_y
_atom_site_fract_z
Zn1	Zn	-0.421999	1.620723	-0.593893
Zn2	Zn	-0.599303	1.620607	-0.418218
Zn3	Zn	-0.422051	1.443440	-0.418243
Zn4	Zn	-0.599218	1.443419	-0.593870
O5	O	-0.510643	1.532047	-0.506056
O6	O	-0.445532	1.769055	-0.570588
O7	O	-0.575847	1.597066	-0.271200
O8	O	-0.273697	1.467014	-0.441564
O9	O	-0.575796	1.768970	-0.441520
O10	O	-0.273658	1.597263	-0.570613
O11	O	-0.445621	1.466902	-0.271219
O12	O	-0.445539	1.295090	-0.441541
O13	O	-0.575652	1.466979	-0.740894
O14	O	-0.575703	1.295075	-0.570574
O15	O	-0.445450	1.597243	-0.740911
O16	O	-0.747639	1.597045	-0.441498
O17	O	-0.747577	1.466866	-0.570549
C18	C	-0.510619	1.256618	-0.506058
C19	C	-0.510634	1.138787	-0.506085
C20	C	-0.592969	0.971249	-0.586835
C21	C	-0.592703	1.093809	-0.587173
C22	C	-0.398976	1.094309	-0.536333
C23	C	-0.399479	0.971711	-0.536902
C24	C	-0.539057	0.971543	-0.394829
C25	C	-0.541499	1.094149	-0.395429
C26	C	-0.786072	1.531970	-0.506041
C27	C	-0.903902	1.532034	-0.506070
C28	C	-1.071471	1.450476	-0.587506
C29	C	-0.948912	1.450059	-0.587244
C30	C	-0.948506	1.501790	-0.395350
C31	C	-1.071104	1.501292	-0.395845
C32	C	-1.070991	1.644334	-0.534455
C33	C	-0.948383	1.643646	-0.536876
C34	C	-0.234137	1.532154	-0.506094
C35	C	-0.116307	1.532199	-0.506110
C36	C	-0.510667	1.808552	-0.506054
C37	C	-0.510678	1.926382	-0.506053
C38	C	-0.510536	1.532121	-0.780089
C39	C	-0.510490	1.532153	-0.896866
C40	C	-0.442687	1.599991	-0.951738
C41	C	-0.442649	1.600016	-1.061463
C42	C	-0.578225	1.464363	-1.061432
C43	C	-0.578258	1.464333	-0.951710
C44	C	-0.364416	1.678313	-0.951757
C45	C	-0.364378	1.678338	-1.061481
C46	C	-0.510673	1.532034	-0.233088
C47	C	-0.510420	1.532208	-0.116312
H48	H	-0.335968	0.942031	-0.480761
H49	H	-0.633397	1.409144	-1.106099
H50	H	-0.917896	1.420673	-0.370902
C51	C	-0.909124	1.579642	-0.311172
C52	C	-0.989132	1.644930	-0.247202
C53	C	-0.949748	1.722782	-0.163025
C54	C	-0.830355	1.735345	-0.142818
C55	C	-0.750339	1.670056	-0.206790
C56	C	-0.789723	1.592204	-0.290967
H57	H	-1.077521	1.635631	-0.262159
H58	H	-1.008981	1.771113	-0.115670
H59	H	-0.801200	1.792976	-0.080506
H60	H	-0.661950	1.679354	-0.191833
H61	H	-0.730490	1.543872	-0.338323
C62	C	-1.112641	1.681609	-0.641672
C63	C	-1.188349	1.610693	-0.704859
C64	C	-1.230001	1.647954	-0.812079
C65	C	-1.195946	1.756132	-0.856112
C66	C	-1.120234	1.827055	-0.792924
C67	C	-1.078582	1.789794	-0.685704
H68	H	-1.213562	1.530607	-0.672264
H69	H	-1.286048	1.595451	-0.858855
H70	H	-1.226779	1.783715	-0.935483
H71	H	-1.095020	1.907141	-0.825520
H72	H	-1.022535	1.842297	-0.638929
C73	C	-0.313886	1.133667	-0.459340
C74	C	-0.344875	1.206827	-0.367885
C75	C	-0.259786	1.246187	-0.290891
C76	C	-0.143709	1.212388	-0.305352
C77	C	-0.112714	1.139224	-0.396811
C78	C	-0.197803	1.099864	-0.473805
H79	H	-0.430807	1.231850	-0.357177
H80	H	-0.282731	1.300348	-0.223187
H81	H	-0.080721	1.241525	-0.248356
H82	H	-0.026782	1.114200	-0.407519
H83	H	-0.174858	1.045703	-0.541509
H84	H	-0.479117	0.942527	-0.334638
C85	C	-0.908983	1.674466	-0.646950
C86	C	-0.936503	1.604653	-0.741977
C87	C	-0.897093	1.635467	-0.852051
C88	C	-0.830163	1.736093	-0.867098
C89	C	-0.802639	1.805912	-0.772068
C90	C	-0.842049	1.775099	-0.661994
H91	H	-0.986052	1.530158	-0.730841
H92	H	-0.917468	1.583781	-0.922398
H93	H	-0.800989	1.758903	-0.948581
H94	H	-0.753090	1.880408	-0.783205
H95	H	-0.821673	1.826784	-0.591647
H96	H	-0.393849	1.756280	-0.917717
H97	H	-0.574430	0.940457	-0.668769
H98	H	-0.386368	1.760442	-1.091255
H99	H	-0.282318	1.656352	-0.922000
H100	H	-1.102373	1.367863	-0.568968
H101	H	-0.675503	1.123882	-0.568216
H102	H	-0.917739	1.707741	-0.481908
C103	C	-0.365860	1.135806	-0.644988
C104	C	-0.439929	1.209991	-0.706358
C105	C	-0.406818	1.251488	-0.815014
C106	C	-0.299638	1.218800	-0.862299
C107	C	-0.225562	1.144611	-0.800928
C108	C	-0.258673	1.103114	-0.692272
H109	H	-0.519277	1.234193	-0.671356
H110	H	-0.461655	1.306408	-0.860445
H111	H	-0.275128	1.249518	-0.942733
H112	H	-0.146215	1.120409	-0.835931
H113	H	-0.203836	1.048194	-0.646841
H114	H	-0.676043	0.941758	-0.568087
H115	H	-0.573921	1.123157	-0.669586
H116	H	-0.633465	1.409089	-0.907037
H117	H	-0.375409	0.943135	-0.618211
C118	C	-0.909411	1.337755	-0.561869
C119	C	-0.939703	1.285132	-0.457217
C120	C	-0.900205	1.172823	-0.431838
C121	C	-0.830415	1.113137	-0.511110
C122	C	-0.800120	1.165760	-0.615768
C123	C	-0.839618	1.278069	-0.641148
H124	H	-0.991369	1.329315	-0.398529
H125	H	-0.922632	1.133869	-0.354362
H126	H	-0.801176	1.030000	-0.492322
H127	H	-0.748454	1.121577	-0.674456
H128	H	-0.817190	1.317024	-0.718624
H129	H	-0.619090	0.940622	-0.367335
H130	H	-0.918751	1.468981	-0.669343
C131	C	-1.110159	1.726593	-0.454372
C132	C	-1.182897	1.692252	-0.363702
C133	C	-1.222070	1.774500	-0.283616
C134	C	-1.188506	1.891088	-0.294199
C135	C	-1.115764	1.925434	-0.384873
C136	C	-1.076590	1.843187	-0.464960
H137	H	-1.207747	1.605942	-0.355864
H138	H	-1.275919	1.749074	-0.216493
H139	H	-1.217504	1.951973	-0.234914
H140	H	-1.090914	2.011745	-0.392711
H141	H	-1.022742	1.868613	-0.532083
H142	H	-0.485911	1.124767	-0.332011
C143	C	-0.652501	1.133432	-0.364614
C144	C	-0.674320	1.252851	-0.355149
C145	C	-0.785321	1.292146	-0.324341
C146	C	-0.874504	1.212023	-0.302996
C147	C	-0.852688	1.092596	-0.312460
C148	C	-0.741686	1.053301	-0.343269
H149	H	-0.608299	1.312170	-0.370950
H150	H	-0.801470	1.380554	-0.317335
H151	H	-0.956673	1.241111	-0.280189
H152	H	-0.918708	1.033277	-0.296659
H153	H	-0.725537	0.964893	-0.350274
C154	C	-1.111199	1.475799	-0.698781
C155	C	-1.176882	1.393600	-0.759516
C156	C	-1.216620	1.418928	-0.870793
C157	C	-1.190675	1.526454	-0.921335
C158	C	-1.124989	1.608660	-0.860601
C159	C	-1.085251	1.583332	-0.749324
H160	H	-1.196091	1.313996	-0.722101
H161	H	-1.265246	1.358073	-0.915752
H162	H	-1.220091	1.545203	-1.003709
H163	H	-1.105779	1.688264	-0.898015
H164	H	-1.036625	1.644187	-0.704364
H165	H	-1.099797	1.419320	-0.371831
H166	H	-1.100768	1.558233	-0.333130
H167	H	-0.286371	1.648966	-1.095529
