data_functionalizedCrystal
_audit_creation_method	'MofGen! by Chris Wilmer'
_symmetry_space_group_name_H-M	'P1'
_symmetry_Int_Tables_number	1
_symmetry_cell_setting	triclinic
loop_
_symmetry_equiv_pos_as_xyz
  x,y,z
_cell_length_a	18.050590
_cell_length_b	21.295416
_cell_length_c	18.050583
_cell_angle_alpha	90.037986
_cell_angle_beta	89.999666
_cell_angle_gamma	89.980502
loop_
_atom_site_label
_atom_site_type_symbol
_atom_site_fract_x
_atom_site_fract_y
_atom_site_fract_z
Zn1	Zn	1.135290	0.250746	-0.419593
Zn2	Zn	1.468623	0.584080	-0.086259
Zn3	Zn	1.801956	0.917413	0.247074
Zn4	Zn	1.135193	0.356033	-0.295399
Zn5	Zn	1.468527	0.689366	0.037934
Zn6	Zn	1.801860	1.022699	0.371268
Zn7	Zn	1.011106	0.250761	-0.295451
Zn8	Zn	1.344440	0.584095	0.037882
Zn9	Zn	1.677773	0.917428	0.371216
Zn10	Zn	1.011052	0.355962	-0.419582
Zn11	Zn	1.344386	0.689295	-0.086248
Zn12	Zn	1.677719	1.022628	0.247085
O13	O	1.073160	0.303375	-0.357506
O14	O	1.406494	0.636709	-0.024173
O15	O	1.739827	0.970042	0.309161
O16	O	1.239201	0.264736	-0.403101
O17	O	1.572535	0.598069	-0.069768
O18	O	1.905868	0.931403	0.263565
O19	O	1.118715	0.342104	-0.191481
O20	O	1.452049	0.675438	0.141852
O21	O	1.785382	1.008771	0.475185
O22	O	1.027643	0.162670	-0.311945
O23	O	1.360976	0.496003	0.021388
O24	O	1.694309	0.829337	0.354722
O25	O	1.239131	0.342090	-0.311857
O26	O	1.572464	0.675423	0.021477
O27	O	1.905797	1.008756	0.354810
O28	O	1.118879	0.162659	-0.403151
O29	O	1.452213	0.495992	-0.069818
O30	O	1.785546	0.829325	0.263515
O31	O	1.027549	0.264762	-0.191519
O32	O	1.360883	0.598095	0.141814
O33	O	1.694216	0.931428	0.475147
O34	O	0.907175	0.264693	-0.311934
O35	O	1.240508	0.598026	0.021399
O36	O	1.573841	0.931360	0.354733
O37	O	1.027550	0.341968	-0.523508
O38	O	1.360884	0.675302	-0.190174
O39	O	1.694217	1.008635	0.143159
O40	O	0.907135	0.341983	-0.403132
O41	O	1.240468	0.675316	-0.069799
O42	O	1.573802	1.008650	0.263534
O43	O	1.118827	0.264667	-0.523516
O44	O	1.452160	0.598001	-0.190183
O45	O	1.785494	0.931334	0.143151
O46	O	1.118663	0.444113	-0.311846
O47	O	1.451996	0.777446	0.021488
O48	O	1.785329	1.110779	0.354821
O49	O	1.027457	0.444060	-0.403082
O50	O	1.360790	0.777394	-0.069749
O51	O	1.694124	1.110727	0.263585
C52	C	0.880208	0.303332	-0.357538
C53	C	1.213542	0.636666	-0.024205
C54	C	1.546875	0.969999	0.309129
C55	C	0.797663	0.303329	-0.357569
C56	C	1.130996	0.636663	-0.024236
C57	C	1.464329	0.969996	0.309097
C58	C	0.598212	0.345480	-0.407045
C59	C	0.931545	0.678813	-0.073712
C60	C	1.264878	1.012147	0.259621
C61	C	0.548821	0.288079	-0.425322
C62	C	0.882155	0.621413	-0.091989
C63	C	1.215488	0.954746	0.241344
C64	C	0.646532	0.303364	-0.357533
C65	C	0.979865	0.636698	-0.024200
C66	C	1.313199	0.970031	0.309134
C67	C	0.548841	0.360798	-0.339255
C68	C	0.882174	0.694131	-0.005922
C69	C	1.215507	1.027465	0.327411
C70	C	0.500547	0.303403	-0.357499
C71	C	0.833880	0.636737	-0.024166
C72	C	1.167214	0.970070	0.309167
C73	C	0.598229	0.245933	-0.375846
C74	C	0.931562	0.579266	-0.042512
C75	C	1.264896	0.912600	0.290821
C76	C	0.598253	0.318691	-0.289747
C77	C	0.931586	0.652024	0.043586
C78	C	1.264919	0.985357	0.376920
C79	C	0.548885	0.261250	-0.307998
C80	C	0.882218	0.594583	0.025335
C81	C	1.215551	0.927917	0.358668
C82	C	0.730630	0.303343	-0.357554
C83	C	1.063964	0.636676	-0.024221
C84	C	1.397297	0.970009	0.309112
C85	C	0.416450	0.303419	-0.357478
C86	C	0.749784	0.636752	-0.024145
C87	C	1.083117	0.970085	0.309189
C88	C	1.073064	0.466927	-0.357473
C89	C	1.406397	0.800260	-0.024140
C90	C	1.739730	1.133594	0.309193
C91	C	1.073090	0.536895	-0.357484
C92	C	1.406424	0.870228	-0.024151
C93	C	1.739757	1.203562	0.309183
C94	C	1.120623	0.569768	-0.310028
C95	C	1.453957	0.903101	0.023306
C96	C	1.787290	1.236435	0.356639
C97	C	1.120658	0.635511	-0.310048
C98	C	1.453992	0.968844	0.023286
C99	C	1.787325	1.302177	0.356619
C100	C	1.073147	0.668378	-0.357516
C101	C	1.406480	1.001711	-0.024183
C102	C	1.739814	1.335044	0.309150
C103	C	1.025610	0.635497	-0.404982
C104	C	1.358944	0.968830	-0.071649
C105	C	1.692277	1.302163	0.261685
C106	C	1.025582	0.569756	-0.404966
C107	C	1.358915	0.903089	-0.071633
C108	C	1.692249	1.236422	0.261701
N109	N	1.008181	0.771632	-0.363194
N110	N	1.341514	1.104966	-0.029861
N111	N	1.674847	1.438299	0.303473
N112	N	1.008210	0.834084	-0.363205
N113	N	1.341543	1.167417	-0.029872
N114	N	1.674876	1.500750	0.303462
C115	C	1.073231	0.866452	-0.357569
C116	C	1.406564	1.199786	-0.024236
C117	C	1.739898	1.533119	0.309098
N118	N	1.138223	0.834010	-0.351907
N119	N	1.471557	1.167344	-0.018574
N120	N	1.804890	1.500677	0.314760
N121	N	1.138194	0.771553	-0.351892
N122	N	1.471527	1.104886	-0.018559
N123	N	1.804860	1.438220	0.314774
C124	C	1.073173	0.739663	-0.357540
C125	C	1.406506	1.072996	-0.024206
C126	C	1.739840	1.406330	0.309127
C127	C	1.120806	0.970611	-0.310132
C128	C	1.454140	1.303944	0.023202
C129	C	1.787473	1.637277	0.356535
C130	C	1.120842	1.036354	-0.310157
C131	C	1.454176	1.369688	0.023176
C132	C	1.787509	1.703021	0.356510
C133	C	1.025788	1.036339	-0.405088
C134	C	1.359121	1.369673	-0.071754
C135	C	1.692454	1.703006	0.261579
C136	C	1.025758	0.970597	-0.405066
C137	C	1.359091	1.303930	-0.071733
C138	C	1.692425	1.637264	0.261600
C139	C	1.073266	0.937737	-0.357584
C140	C	1.406600	1.271070	-0.024251
C141	C	1.739933	1.604403	0.309082
C142	C	1.266866	0.303419	-0.357474
C143	C	1.600199	0.636752	-0.024141
C144	C	1.933533	0.970086	0.309192
C145	C	1.349412	0.303438	-0.357461
C146	C	1.682745	0.636771	-0.024128
C147	C	2.016078	0.970104	0.309206
C148	C	1.073279	1.139185	-0.357568
C149	C	1.406612	1.472518	-0.024235
C150	C	1.739945	1.805852	0.309099
C151	C	1.073331	1.069217	-0.357627
C152	C	1.406665	1.402550	-0.024294
C153	C	1.739998	1.735884	0.309040
C154	C	1.073193	0.303308	-0.551212
C155	C	1.406527	0.636642	-0.217878
C156	C	1.739860	0.969975	0.115455
C157	C	1.073207	0.303280	-0.633758
C158	C	1.406541	0.636613	-0.300424
C159	C	1.739874	0.969946	0.032909
C160	C	1.122893	0.261223	-0.833213
C161	C	1.456226	0.594556	-0.499879
C162	C	1.789560	0.927890	-0.166546
C163	C	1.055160	0.245805	-0.882627
C164	C	1.388494	0.579139	-0.549293
C165	C	1.721827	0.912472	-0.215960
C166	C	1.073237	0.303269	-0.784888
C167	C	1.406570	0.636602	-0.451555
C168	C	1.739904	0.969935	-0.118221
C169	C	1.140997	0.318646	-0.882556
C170	C	1.474331	0.651980	-0.549223
C171	C	1.807664	0.985313	-0.215889
C172	C	1.073272	0.303257	-0.930873
C173	C	1.406605	0.636590	-0.597540
C174	C	1.739938	0.969924	-0.264207
C175	C	1.005468	0.287822	-0.833215
C176	C	1.338801	0.621155	-0.499881
C177	C	1.672135	0.954488	-0.166548
C178	C	1.091351	0.360689	-0.833140
C179	C	1.424684	0.694023	-0.499806
C180	C	1.758017	1.027356	-0.166473
C181	C	1.023571	0.345294	-0.882531
C182	C	1.356904	0.678627	-0.549198
C183	C	1.690238	1.011960	-0.215864
C184	C	1.073218	0.303274	-0.700790
C185	C	1.406551	0.636607	-0.367456
C186	C	1.739885	0.969941	-0.034123
C187	C	1.073283	0.303252	-1.014970
C188	C	1.406616	0.636585	-0.681636
C189	C	1.739950	0.969919	-0.348303
C190	C	1.073170	0.303397	-0.164554
C191	C	1.406504	0.636730	0.168779
C192	C	1.739837	0.970064	0.502113
C193	C	1.073300	0.303248	-0.082009
C194	C	1.406634	0.636582	0.251325
C195	C	1.739967	0.969915	0.584658
H196	H	0.619833	0.197364	-0.391356
H197	H	0.953166	0.530698	-0.058022
H198	H	1.286499	0.864031	0.275311
Cl199	Cl	0.916989	0.267654	-0.799896
Cl200	Cl	1.250322	0.600987	-0.466563
Cl201	Cl	1.583655	0.934321	-0.133230
Cl202	Cl	0.965820	0.528427	-0.464630
Cl203	Cl	1.299154	0.861761	-0.131297
Cl204	Cl	1.632487	1.195094	0.202037
Cl205	Cl	0.631777	0.338700	-0.201274
Cl206	Cl	0.965110	0.672034	0.132059
Cl207	Cl	1.298443	1.005367	0.465393
H208	H	1.159554	1.063118	-0.271514
H209	H	1.492888	1.396452	0.061820
H210	H	1.826221	1.729785	0.395153
H211	H	1.159493	0.943855	-0.271471
H212	H	1.492826	1.277188	0.061862
H213	H	1.826159	1.610521	0.395195
Cl214	Cl	1.187623	0.206295	-0.799775
Cl215	Cl	1.520956	0.539628	-0.466441
Cl216	Cl	1.854290	0.872961	-0.133108
Cl217	Cl	0.958687	0.400176	-0.915771
Cl218	Cl	1.292021	0.733510	-0.582438
Cl219	Cl	1.625354	1.066843	-0.249104
H220	H	0.986928	0.662261	-0.443633
H221	H	1.320261	0.995595	-0.110299
H222	H	1.653594	1.328928	0.223034
Cl223	Cl	0.966063	1.077652	-0.464768
Cl224	Cl	1.299397	1.410985	-0.131435
Cl225	Cl	1.632730	1.744319	0.201898
H226	H	0.527362	0.225610	-0.266114
H227	H	0.860696	0.558943	0.067220
H228	H	1.194029	0.892277	0.400553
Cl229	Cl	0.515297	0.268083	-0.513805
Cl230	Cl	0.848631	0.601417	-0.180471
Cl231	Cl	1.181964	0.934750	0.152862
Cl232	Cl	0.965995	0.929269	-0.464726
Cl233	Cl	1.299328	1.262602	-0.131393
Cl234	Cl	1.632662	1.595935	0.201941
H235	H	0.527143	0.409352	-0.323812
H236	H	0.860476	0.742686	0.009522
H237	H	1.193810	1.076019	0.342855
Cl238	Cl	1.031522	0.170828	-0.916191
Cl239	Cl	1.364856	0.504161	-0.582858
Cl240	Cl	1.698189	0.837494	-0.249524
H241	H	1.106681	0.409240	-0.811388
H242	H	1.440015	0.742573	-0.478055
H243	H	1.773348	1.075907	-0.144721
H244	H	1.198286	0.331657	-0.904233
H245	H	1.531620	0.664990	-0.570899
H246	H	1.864953	0.998323	-0.237566
H247	H	0.619873	0.381033	-0.448963
H248	H	0.953206	0.714367	-0.115630
H249	H	1.286540	1.047700	0.217704
H250	H	1.159309	0.543015	-0.271367
H251	H	1.492642	0.876348	0.061966
H252	H	1.825976	1.209682	0.395300
Cl253	Cl	1.180418	0.676845	-0.250382
Cl254	Cl	1.513751	1.010179	0.082951
Cl255	Cl	1.847084	1.343512	0.416284
