data_functionalizedCrystal
_audit_creation_method	'MofGen! by Chris Wilmer'
_symmetry_space_group_name_H-M	'P1'
_symmetry_Int_Tables_number	1
_symmetry_cell_setting	triclinic
loop_
_symmetry_equiv_pos_as_xyz
  x,y,z
_cell_length_a	10.654550
_cell_length_b	15.995350
_cell_length_c	9.130313
_cell_angle_alpha	89.997713
_cell_angle_beta	89.999724
_cell_angle_gamma	83.988653
loop_
_atom_site_label
_atom_site_type_symbol
_atom_site_fract_x
_atom_site_fract_y
_atom_site_fract_z
O1	O	1.666303	0.117603	-0.121682
O2	O	2.166303	0.617603	0.378318
O3	O	1.300678	0.128807	-0.121708
O4	O	1.800678	0.628807	0.378292
O5	O	1.493485	0.001375	-0.121693
O6	O	1.993485	0.501375	0.378307
O7	O	1.473496	0.245034	-0.121697
O8	O	1.973496	0.745034	0.378303
O9	O	1.493472	0.001371	0.121906
O10	O	1.993472	0.501371	0.621906
O11	O	1.300665	0.128803	0.121891
O12	O	1.800665	0.628803	0.621891
O13	O	1.666290	0.117599	0.121917
O14	O	2.166290	0.617599	0.621917
Cu15	Cu	1.483476	0.123201	0.144146
Cu16	Cu	1.983476	0.623201	0.644146
Cu17	Cu	1.483492	0.123205	-0.143938
Cu18	Cu	1.983492	0.623205	0.356062
O19	O	1.473483	0.245031	0.121902
O20	O	1.973483	0.745031	0.621902
C21	C	1.253884	0.127982	0.000088
C22	C	1.753884	0.627982	0.500088
C23	C	1.114473	0.125521	0.000078
C24	C	1.614473	0.625521	0.500078
C25	C	1.034008	0.200551	0.000080
C26	C	1.534008	0.700551	0.500080
C27	C	0.903017	0.198233	0.000106
C28	C	1.403017	0.698233	0.500106
C29	C	0.932971	0.045849	0.000120
C30	C	1.432971	0.545849	0.500120
C31	C	1.063959	0.048168	0.000105
C32	C	1.563959	0.548168	0.500105
C33	C	1.492652	-0.029826	0.000103
C34	C	1.992652	0.470174	0.500103
C35	C	1.490175	-0.122791	0.000095
C36	C	1.990175	0.377209	0.500095
C37	C	1.481277	-0.460590	0.000099
C38	C	1.981277	0.039410	0.500099
C39	C	1.343964	-0.413954	-0.000457
C40	C	1.843964	0.086046	0.499543
C41	C	1.346442	-0.317249	0.000092
C42	C	1.846442	0.182751	0.500092
C43	C	1.485691	-0.293004	0.000096
C44	C	1.985691	0.206996	0.500096
C45	C	1.553411	-0.333690	0.139205
C46	C	2.053411	0.166310	0.639205
C47	C	1.549962	-0.430346	0.139322
C48	C	2.049962	0.069654	0.639322
C49	C	1.552813	-0.430684	-0.137696
C50	C	2.052813	0.069316	0.362304
C51	C	1.552781	-0.333738	-0.139534
C52	C	2.052781	0.166262	0.360466
C53	C	1.488192	-0.198292	0.000100
C54	C	1.988192	0.301708	0.500100
C55	C	1.478780	-0.555303	0.000106
C56	C	1.978780	-0.055303	0.500106
C57	C	1.713084	0.118423	0.000118
C58	C	2.213084	0.618423	0.500118
C59	C	1.852495	0.120885	0.000118
C60	C	2.352495	0.620885	0.500118
C61	C	1.474316	0.276232	0.000102
C62	C	1.974316	0.776232	0.500102
C63	C	1.476793	0.369197	0.000101
C64	C	1.976793	0.869197	0.500101
N65	N	1.483475	0.123197	0.346769
N66	N	1.983475	0.623197	0.846769
N67	N	1.483504	0.123202	-0.346560
N68	N	1.983504	0.623202	0.153440
C69	C	1.568878	0.066794	0.423427
C70	C	2.068878	0.566794	0.923427
C71	C	1.568890	0.066794	0.576764
C72	C	2.068890	0.566794	1.076764
C73	C	1.398091	0.179608	0.576770
C74	C	1.898091	0.679608	1.076770
C75	C	1.398074	0.179603	0.423436
C76	C	1.898074	0.679603	0.923436
H77	H	1.129478	-0.012934	0.000106
H78	H	1.629478	0.487066	0.500106
H79	H	1.328522	0.225533	0.361017
H80	H	1.828522	0.725533	0.861017
H81	H	1.638415	0.020864	0.361008
H82	H	2.138415	0.520864	0.861008
H83	H	1.292840	-0.289697	0.099974
H84	H	1.792840	0.210303	0.599974
F85	F	1.659785	0.006761	0.658345
F86	F	2.159785	0.506761	1.158345
F87	F	1.307209	0.239638	0.658375
F88	F	1.807209	0.739638	1.158375
H89	H	1.075132	0.263537	0.000069
H90	H	1.575132	0.763537	0.500069
F91	F	1.494132	-0.457860	-0.275510
F92	F	1.994132	0.042140	0.224490
F93	F	0.817384	0.278090	0.000111
F94	F	1.317384	0.778090	0.500111
H95	H	0.891826	-0.017129	0.000150
H96	H	1.391826	0.482871	0.500150
H97	H	1.289086	-0.432803	-0.100215
H98	H	1.789086	0.067197	0.399785
F99	F	1.272354	-0.440263	0.128842
F100	F	1.772354	0.059737	0.628842
F101	F	1.485397	-0.454647	0.275231
F102	F	1.985397	0.045353	0.775231
F103	F	1.276862	-0.280499	-0.130247
F104	F	1.776862	0.219501	0.369753
F105	F	1.681728	-0.471734	0.147591
F106	F	2.181728	0.028266	0.647591
H107	H	1.655713	-0.318971	0.144382
H108	H	2.155713	0.181029	0.644382
F109	F	1.491920	-0.296956	0.274513
F110	F	1.991920	0.203044	0.774513
H111	H	1.503268	-0.306776	-0.242443
H112	H	2.003268	0.193224	0.257557
H113	H	1.654327	-0.317787	-0.147930
H114	H	2.154327	0.182213	0.352070
H115	H	1.654054	-0.461856	-0.138627
H116	H	2.154054	0.038144	0.361373
