data_functionalizedCrystal
_audit_creation_method	'MofGen! by Chris Wilmer'
_symmetry_space_group_name_H-M	'P1'
_symmetry_Int_Tables_number	1
_symmetry_cell_setting	triclinic
loop_
_symmetry_equiv_pos_as_xyz
  x,y,z
_cell_length_a	15.944551
_cell_length_b	16.992695
_cell_length_c	16.053802
_cell_angle_alpha	92.744111
_cell_angle_beta	87.417146
_cell_angle_gamma	87.083480
loop_
_atom_site_label
_atom_site_type_symbol
_atom_site_fract_x
_atom_site_fract_y
_atom_site_fract_z
O1	O	1.117982	0.104424	0.069331
O2	O	1.617982	0.604424	0.569331
O3	O	0.874268	0.116892	0.069350
O4	O	1.374268	0.616892	0.569350
O5	O	0.995147	-0.003484	0.069348
O6	O	1.495147	0.496516	0.569348
O7	O	0.997102	0.224800	0.069333
O8	O	1.497102	0.724800	0.569333
O9	O	1.001794	-0.010090	-0.069512
O10	O	1.501794	0.489910	0.430488
O11	O	0.880915	0.110287	-0.069509
O12	O	1.380915	0.610287	0.430491
O13	O	1.124629	0.097818	-0.069529
O14	O	1.624629	0.597818	0.430471
Zn15	Zn	1.003827	0.103003	-0.091566
Zn16	Zn	1.503827	0.603003	0.408434
Zn17	Zn	0.995069	0.111707	0.091387
Zn18	Zn	1.495069	0.611707	0.591387
O19	O	1.003749	0.218195	-0.069526
O20	O	1.503749	0.718195	0.430474
C21	C	0.846262	0.113072	-0.000077
C22	C	1.346262	0.613072	0.499923
C23	C	0.752912	0.111521	-0.000069
C24	C	1.252912	0.611521	0.499931
N25	N	0.989093	0.117641	0.216247
N26	N	1.489093	0.617641	0.716247
C27	C	0.995957	-0.036000	-0.000078
C28	C	1.495957	0.464000	0.499922
C29	C	0.988456	-0.123044	-0.000067
C30	C	1.488456	0.376956	0.499933
C31	C	0.532803	0.033196	-0.000080
C32	C	1.032803	0.533196	0.499920
C33	C	0.470945	0.072824	0.068382
C34	C	0.970945	0.572824	0.568382
C35	C	0.581998	0.108713	-0.000079
C36	C	1.081998	0.608713	0.499921
C37	C	0.477522	0.066329	-0.068522
C38	C	0.977522	0.566329	0.431478
C39	C	0.416904	0.105995	-0.000092
C40	C	0.916904	0.605995	0.499908
C41	C	0.521367	0.148364	0.068440
C42	C	1.021367	0.648364	0.568440
C43	C	0.527952	0.141856	-0.068525
C44	C	1.027952	0.641856	0.431475
C45	C	0.466115	0.181540	-0.000046
C46	C	0.966115	0.681540	0.499954
C47	C	0.677105	0.110277	-0.000071
C48	C	1.177105	0.610277	0.499929
C49	C	0.321798	0.104438	-0.000094
C50	C	0.821798	0.604438	0.499906
C51	C	1.152634	0.101638	-0.000100
C52	C	1.652634	0.601638	0.499900
C53	C	1.245984	0.103190	-0.000102
C54	C	1.745984	0.603190	0.499898
C55	C	1.002939	0.250710	-0.000099
C56	C	1.502939	0.750710	0.499901
C57	C	1.010440	0.337754	-0.000105
C58	C	1.510440	0.837754	0.499895
C59	C	0.938074	0.387991	-0.000099
C60	C	1.438074	0.887991	0.499901
C61	C	0.945126	0.469779	-0.000089
C62	C	1.445126	0.969779	0.499911
C63	C	1.024544	0.501327	-0.000091
C64	C	1.524544	1.001327	0.499909
C65	C	1.096914	0.451084	-0.000095
C66	C	1.596914	0.951084	0.499905
C67	C	1.089862	0.369298	-0.000098
C68	C	1.589862	0.869298	0.499902
C69	C	1.053774	0.744927	-0.000074
C70	C	1.553774	1.244927	0.499926
C71	C	1.060822	0.826719	-0.000073
C72	C	1.560822	1.326719	0.499927
C73	C	0.909032	0.845408	-0.000065
C74	C	1.409032	1.345408	0.499935
C75	C	0.901987	0.763620	-0.000074
C76	C	1.401987	1.263620	0.499926
C77	C	0.974357	0.713384	-0.000074
C78	C	1.474357	1.213384	0.499926
N79	N	1.031754	0.584927	-0.000083
N80	N	1.531754	1.084927	0.499917
N81	N	0.967146	0.629787	-0.000075
N82	N	1.467146	1.129787	0.499925
N83	N	1.009810	0.097063	-0.216426
N84	N	1.509810	0.597063	0.283574
C85	C	1.040639	0.066518	0.259940
C86	C	1.540639	0.566518	0.759940
C87	C	1.036456	0.070668	0.347347
C88	C	1.536456	0.570668	0.847347
C89	C	0.980722	0.125937	0.391060
C90	C	1.480722	0.625937	0.891060
C91	C	0.929174	0.177065	0.347360
C92	C	1.429174	0.677065	0.847360
C93	C	0.933361	0.172918	0.259955
C94	C	1.433361	0.672918	0.759955
C95	C	0.962450	0.144045	0.652470
C96	C	1.462450	0.644045	1.152470
C97	C	0.958264	0.148185	0.739881
C98	C	1.458264	0.648185	1.239881
C99	C	1.065548	0.041789	0.739862
C100	C	1.565548	0.541789	1.239862
C101	C	1.069727	0.037645	0.652455
C102	C	1.569727	0.537645	1.152455
C103	C	1.018182	0.088775	0.608763
C104	C	1.518182	0.588775	1.108763
N105	N	0.976443	0.130178	0.480403
N106	N	1.476443	0.630178	0.980403
N107	N	1.022466	0.084538	0.519421
N108	N	1.522466	0.584538	1.019421
H109	H	0.445921	0.043637	0.126267
H110	H	0.945921	0.543637	0.626267
H111	H	1.107515	0.000162	0.775443
H112	H	1.607515	0.500162	1.275443
H113	H	0.920478	0.185676	0.616903
H114	H	1.420478	0.685676	1.116903
H115	H	0.561928	-0.029473	0.000009
H116	H	1.061928	0.470527	0.500009
O117	O	0.544595	0.189673	0.137544
O118	O	1.044595	0.689673	0.637544
C119	C	0.632998	0.190623	0.136723
C120	C	1.132998	0.690623	0.636723
H121	H	0.661763	0.138359	0.096151
H122	H	1.161763	0.638359	0.596151
H123	H	0.654770	0.186369	0.203106
H124	H	1.154770	0.686369	0.703106
H125	H	0.653946	0.247910	0.110250
H126	H	1.153946	0.747910	0.610250
H127	H	0.891388	0.214549	0.224381
H128	H	1.391388	0.714549	0.724381
H129	H	0.850113	0.886319	-0.000065
H130	H	1.350113	1.386319	0.499935
H131	H	0.912875	0.193194	0.775467
H132	H	1.412875	0.693194	1.275467
O133	O	1.086558	0.020923	0.389661
O134	O	1.586558	0.520923	0.889661
C135	C	1.136658	-0.028738	0.332337
C136	C	1.636658	0.471262	0.832337
H137	H	1.105149	-0.032658	0.270034
H138	H	1.605149	0.467342	0.770034
H139	H	1.144184	-0.090143	0.357585
H140	H	1.644184	0.409857	0.857585
H141	H	1.201153	-0.003570	0.323038
H142	H	1.701153	0.496430	0.823038
H143	H	1.125496	0.852402	-0.000075
H144	H	1.625496	1.352402	0.499925
O145	O	0.431669	0.256414	-0.000120
O146	O	0.931669	0.756414	0.499880
C147	C	0.461936	0.292991	-0.071680
C148	C	0.961936	0.792991	0.428320
H149	H	0.524403	0.262461	-0.095308
H150	H	1.024403	0.762461	0.404692
H151	H	0.471456	0.357821	-0.055165
H152	H	0.971456	0.857821	0.444835
H153	H	0.414426	0.288269	-0.122433
H154	H	0.914426	0.788269	0.377567
O155	O	1.174113	0.481628	-0.000204
O156	O	1.674113	0.981628	0.499796
C157	C	1.221999	0.452556	-0.072132
C158	C	1.721999	0.952556	0.427868
H159	H	1.196446	0.394695	-0.096111
H160	H	1.696446	0.894695	0.403889
H161	H	1.290410	0.441972	-0.055959
H162	H	1.790410	0.941972	0.444041
H163	H	1.217864	0.497491	-0.122489
H164	H	1.717864	0.997491	0.377511
H165	H	1.112704	0.704034	-0.000079
H166	H	1.612704	1.204034	0.499921
O167	O	0.875053	0.230683	0.389949
O168	O	1.375053	0.730683	0.889949
C169	C	0.882421	0.223393	0.476465
C170	C	1.382421	0.723393	0.976465
H171	H	0.909185	0.161680	0.488396
H172	H	1.409185	0.661680	0.988396
H173	H	0.817793	0.233542	0.509685
H174	H	1.317793	0.733542	1.009685
H175	H	0.926242	0.269061	0.501274
H176	H	1.426242	0.769061	1.001274
H177	H	0.873404	0.362311	-0.000107
H178	H	1.373404	0.862311	0.499893
H179	H	0.552995	0.171016	-0.126412
H180	H	1.052995	0.671016	0.373588
H181	H	1.115110	-0.007359	0.616866
H182	H	1.615110	0.492641	1.116866
H183	H	1.148789	0.328396	-0.000100
H184	H	1.648789	0.828396	0.499900
O185	O	0.454268	0.024821	-0.137485
O186	O	0.954268	0.524821	0.362515
C187	C	0.407951	-0.039372	-0.112904
C188	C	0.907951	0.460628	0.387096
H189	H	0.424351	-0.054836	-0.047052
H190	H	0.924351	0.445164	0.452948
H191	H	0.424200	-0.092485	-0.157863
H192	H	0.924200	0.407515	0.342137
H193	H	0.337849	-0.022706	-0.113919
H194	H	0.837849	0.477294	0.386081
O195	O	0.874747	0.518465	-0.000127
O196	O	1.374747	1.018465	0.499873
C197	C	0.803139	0.473082	-0.000112
C198	C	1.303139	0.973082	0.499888
H199	H	0.821624	0.410794	-0.026404
H200	H	1.321624	0.910794	0.473596
H201	H	0.754032	0.501334	-0.040428
H202	H	1.254032	1.001334	0.459572
H203	H	0.775856	0.470420	0.066504
H204	H	1.275856	0.970420	0.566504
H205	H	0.837316	0.737940	-0.000063
H206	H	1.337316	1.237940	0.499937
H207	H	1.086020	0.021510	0.224356
H208	H	1.586020	0.521510	0.724356
