data_functionalizedCrystal
_audit_creation_method	'MofGen! by Chris Wilmer'
_symmetry_space_group_name_H-M	'P1'
_symmetry_Int_Tables_number	1
_symmetry_cell_setting	triclinic
loop_
_symmetry_equiv_pos_as_xyz
  x,y,z
_cell_length_a	16.109302
_cell_length_b	16.109304
_cell_length_c	15.186229
_cell_angle_alpha	89.999066
_cell_angle_beta	90.005299
_cell_angle_gamma	96.537791
loop_
_atom_site_label
_atom_site_type_symbol
_atom_site_fract_x
_atom_site_fract_y
_atom_site_fract_z
O1	O	-1.103131	0.106869	-0.073263
O2	O	-0.769798	0.440202	0.260071
O3	O	-0.436465	0.773535	0.593404
O4	O	-0.861070	0.120167	-0.073255
O5	O	-0.527736	0.453501	0.260078
O6	O	-0.194403	0.786834	0.593412
O7	O	-0.988749	-0.007513	-0.073259
O8	O	-0.655416	0.325821	0.260074
O9	O	-0.322082	0.659154	0.593407
O10	O	-0.975452	0.234549	-0.073258
O11	O	-0.642119	0.567882	0.260075
O12	O	-0.308785	0.901216	0.593409
O13	O	-0.988740	-0.007514	0.073198
O14	O	-0.655407	0.325819	0.406531
O15	O	-0.322074	0.659152	0.739864
O16	O	-0.861061	0.120166	0.073202
O17	O	-0.527728	0.453499	0.406536
O18	O	-0.194394	0.786832	0.739869
O19	O	-1.103123	0.106867	0.073195
O20	O	-0.769789	0.440200	0.406528
O21	O	-0.436456	0.773534	0.739861
Zn22	Zn	-0.982091	0.113516	0.096452
Zn23	Zn	-0.648757	0.446849	0.429785
Zn24	Zn	-0.315424	0.780183	0.763118
Zn25	Zn	-0.982102	0.113518	-0.096512
Zn26	Zn	-0.648768	0.446852	0.236821
Zn27	Zn	-0.315435	0.780185	0.570155
O28	O	-0.975444	0.234547	0.073199
O29	O	-0.642110	0.567880	0.406533
O30	O	-0.308777	0.901214	0.739866
C31	C	-0.830090	0.119628	-0.000025
C32	C	-0.496757	0.452961	0.333308
C33	C	-0.163424	0.786294	0.666641
C34	C	-0.737795	0.118012	-0.000023
C35	C	-0.404462	0.451346	0.333311
C36	C	-0.071128	0.784679	0.666644
C37	C	-0.988206	-0.038488	-0.000033
C38	C	-0.654872	0.294845	0.333301
C39	C	-0.321539	0.628178	0.666634
C40	C	-0.986590	-0.130784	-0.000039
C41	C	-0.653256	0.202550	0.333295
C42	C	-0.319923	0.535883	0.666628
C43	C	-0.982861	-0.343120	-0.079869
C44	C	-0.649527	-0.009787	0.253464
C45	C	-0.316194	0.323547	0.586797
C46	C	-0.981334	-0.429840	-0.079868
C47	C	-0.648001	-0.096507	0.253465
C48	C	-0.314668	0.236827	0.586798
C49	C	-0.981329	-0.429839	0.079807
C50	C	-0.647996	-0.096506	0.413141
C51	C	-0.314663	0.236828	0.746474
C52	C	-0.982849	-0.343120	0.079806
C53	C	-0.649516	-0.009786	0.413139
C54	C	-0.316183	0.323547	0.746472
C55	C	-0.983619	-0.299763	-0.000035
C56	C	-0.650286	0.033570	0.333298
C57	C	-0.316953	0.366904	0.666631
C58	C	-0.980573	-0.473202	-0.000033
C59	C	-0.647240	-0.139869	0.333301
C60	C	-0.313906	0.193464	0.666634
C61	C	-0.978918	-0.567228	-0.000031
C62	C	-0.645585	-0.233895	0.333302
C63	C	-0.312252	0.099438	0.666636
C64	C	-0.985272	-0.205731	-0.000037
C65	C	-0.651939	0.127602	0.333296
C66	C	-0.318606	0.460936	0.666629
C67	C	-1.134102	0.107407	-0.000037
C68	C	-0.800769	0.440740	0.333297
C69	C	-0.467435	0.774073	0.666630
C70	C	-1.226397	0.109022	-0.000045
C71	C	-0.893064	0.442355	0.333288
C72	C	-0.559731	0.775689	0.666621
C73	C	-0.525450	0.114276	0.079802
C74	C	-0.192116	0.447610	0.413136
C75	C	0.141217	0.780943	0.746469
C76	C	-0.438729	0.112750	0.079799
C77	C	-0.105396	0.446083	0.413133
C78	C	0.227937	0.779416	0.746466
C79	C	-0.438749	0.112756	-0.079876
C80	C	-0.105416	0.446089	0.253457
C81	C	0.227917	0.779422	0.586790
C82	C	-0.525468	0.114277	-0.079872
C83	C	-0.192135	0.447610	0.253461
C84	C	0.141198	0.780943	0.586794
C85	C	-0.568816	0.115041	-0.000030
C86	C	-0.235483	0.448374	0.333303
C87	C	0.097851	0.781708	0.666636
C88	C	-0.395377	0.111994	-0.000038
C89	C	-0.062043	0.445327	0.333296
C90	C	0.271290	0.778660	0.666629
C91	C	-0.301351	0.110338	-0.000041
C92	C	0.031983	0.443672	0.333292
C93	C	0.365316	0.777005	0.666625
C94	C	-0.662848	0.116695	-0.000026
C95	C	-0.329514	0.450028	0.333307
C96	C	0.003819	0.783362	0.666640
C97	C	-0.975987	0.265523	-0.000029
C98	C	-0.642653	0.598856	0.333304
C99	C	-0.309320	0.932190	0.666637
C100	C	-0.977603	0.357818	-0.000029
C101	C	-0.644270	0.691151	0.333304
C102	C	-0.310936	1.024485	0.666637
N103	N	-0.982089	0.113514	0.228144
N104	N	-0.648756	0.446847	0.561478
N105	N	-0.315422	0.780181	0.894811
N106	N	-0.982110	0.113514	-0.228205
N107	N	-0.648777	0.446847	0.105129
N108	N	-0.315443	0.780181	0.438462
C109	C	-1.038645	0.056996	0.453865
C110	C	-0.705311	0.390330	0.787199
C111	C	-0.371978	0.723663	1.120532
C112	C	-1.038647	0.056994	0.546055
C113	C	-0.705314	0.390328	0.879388
C114	C	-0.371981	0.723661	1.212722
C115	C	-0.925548	0.170034	0.546068
C116	C	-0.592215	0.503368	0.879401
C117	C	-0.258882	0.836701	1.212735
C118	C	-0.925542	0.170032	0.453880
C119	C	-0.592209	0.503365	0.787213
C120	C	-0.258876	0.836698	1.120547
C121	C	-0.982095	0.113514	0.407781
C122	C	-0.648762	0.446847	0.741114
C123	C	-0.315429	0.780180	1.074448
C124	C	-0.982104	0.113514	0.592159
C125	C	-0.648770	0.446848	0.925492
C126	C	-0.315437	0.780181	1.258825
C127	C	-0.982106	0.113513	0.692115
C128	C	-0.648773	0.446846	1.025448
C129	C	-0.315440	0.780179	1.358781
C130	C	-0.982092	0.113514	0.307819
C131	C	-0.648759	0.446847	0.641152
C132	C	-0.315425	0.780181	0.974485
H133	H	-0.983485	-0.307821	-0.144881
H134	H	-0.650152	0.025512	0.188452
H135	H	-0.316818	0.358846	0.521786
H136	H	-1.084692	0.010975	0.416334
H137	H	-0.751359	0.344308	0.749667
H138	H	-0.418026	0.677641	1.083000
H139	H	-1.084694	0.010972	0.583574
H140	H	-0.751360	0.344305	0.916908
H141	H	-0.418027	0.677638	1.250241
H142	H	-0.560779	0.114897	-0.144886
H143	H	-0.227445	0.448230	0.188447
H144	H	0.105888	0.781564	0.521781
C145	C	-0.980486	-0.477540	0.167628
C146	C	-0.647152	-0.144207	0.500961
C147	C	-0.313819	0.189127	0.834294
N148	N	-0.979852	-0.513468	0.233776
N149	N	-0.646519	-0.180135	0.567109
N150	N	-0.313185	0.153199	0.900443
H151	H	-0.983463	-0.307817	0.144820
H152	H	-0.650129	0.025516	0.478153
H153	H	-0.316796	0.358850	0.811487
H154	H	-0.403445	0.112134	-0.144881
H155	H	-0.070112	0.445468	0.188452
H156	H	0.263222	0.778801	0.521786
C157	C	-0.863368	0.232246	0.403184
C158	C	-0.530035	0.565580	0.736518
C159	C	-0.196701	0.898913	1.069851
N160	N	-0.816553	0.279117	0.365000
N161	N	-0.483219	0.612450	0.698334
N162	N	-0.149886	0.945783	1.031667
H163	H	-0.879505	0.216051	0.583611
H164	H	-0.546172	0.549385	0.916944
H165	H	-0.212839	0.882718	1.250278
C166	C	-0.573130	0.115107	0.167631
C167	C	-0.239797	0.448441	0.500964
C168	C	0.093537	0.781774	0.834297
N169	N	-0.609041	0.115729	0.233786
N170	N	-0.275708	0.449063	0.567119
N171	N	0.057626	0.782396	0.900453
C172	C	-0.980532	-0.477533	-0.167692
C173	C	-0.647199	-0.144200	0.165641
C174	C	-0.313866	0.189134	0.498975
N175	N	-0.979939	-0.513456	-0.233845
N176	N	-0.646606	-0.180123	0.099488
N177	N	-0.313273	0.153210	0.432822
H178	H	-0.403424	0.112127	0.144807
H179	H	-0.070091	0.445460	0.478141
H180	H	0.263242	0.778794	0.811474
