data_functionalizedCrystal
_audit_creation_method	'MofGen! by Chris Wilmer'
_symmetry_space_group_name_H-M	'P1'
_symmetry_Int_Tables_number	1
_symmetry_cell_setting	triclinic
loop_
_symmetry_equiv_pos_as_xyz
  x,y,z
_cell_length_a	10.654550
_cell_length_b	15.995350
_cell_length_c	9.730223
_cell_angle_alpha	90.000899
_cell_angle_beta	89.996251
_cell_angle_gamma	83.988639
loop_
_atom_site_label
_atom_site_type_symbol
_atom_site_fract_x
_atom_site_fract_y
_atom_site_fract_z
O1	O	1.666298	0.117599	-0.114395
O2	O	1.300673	0.128803	-0.114373
O3	O	1.493480	0.001371	-0.114383
O4	O	1.473491	0.245031	-0.114385
O5	O	1.493478	0.001375	0.114197
O6	O	1.300671	0.128806	0.114207
O7	O	1.666295	0.117602	0.114185
Zn8	Zn	1.483483	0.123205	0.150488
Zn9	Zn	1.483486	0.123200	-0.150676
O10	O	1.473488	0.245034	0.114195
C11	C	1.253885	0.127982	-0.000080
C12	C	1.114473	0.125521	-0.000071
C13	C	1.034008	0.200551	-0.000092
C14	C	0.903017	0.198233	-0.000116
C15	C	0.932971	0.045849	-0.000104
C16	C	1.063959	0.048168	-0.000071
C17	C	1.084522	0.277904	-0.000093
C18	C	1.004055	0.352940	-0.000115
C19	C	0.873064	0.350622	-0.000138
C20	C	0.822541	0.273268	-0.000140
C21	C	1.492652	-0.029827	-0.000096
C22	C	1.490175	-0.122791	-0.000104
C23	C	1.481278	-0.460591	-0.000098
C24	C	1.343964	-0.413954	-0.000603
C25	C	1.346442	-0.317249	-0.000087
C26	C	1.485691	-0.293004	-0.000102
C27	C	1.553417	-0.333687	0.130422
C28	C	1.549968	-0.430342	0.130531
C29	C	1.552807	-0.430688	-0.129407
C30	C	1.552775	-0.333743	-0.131132
C31	C	1.488192	-0.198292	-0.000099
C32	C	1.478780	-0.555303	-0.000092
C33	C	1.713084	0.118423	-0.000111
C34	C	1.852495	0.120884	-0.000129
C35	C	1.474316	0.276232	-0.000095
C36	C	1.476793	0.369197	-0.000097
N37	N	1.483490	0.123207	0.356024
N38	N	1.483488	0.123191	-0.356212
C39	C	1.568886	0.066800	0.427946
C40	C	1.568883	0.066789	0.571829
C41	C	1.398083	0.179602	0.571856
C42	C	1.398081	0.179607	0.427976
C43	C	1.654295	0.010400	0.355994
C44	C	1.739700	-0.046012	0.427915
C45	C	1.739697	-0.046022	0.571798
C46	C	1.654289	0.010379	0.643760
H47	H	1.191179	0.279800	-0.000080
H48	H	1.292844	-0.289694	0.093643
H49	H	0.807551	0.411720	-0.000142
H50	H	0.715878	0.271387	-0.000138
C51	C	1.059626	0.438025	-0.000110
C52	C	1.145536	0.460577	0.118597
C53	C	1.201105	0.545664	0.118602
C54	C	1.170763	0.608198	-0.000100
C55	C	1.084848	0.585647	-0.118816
C56	C	1.029280	0.500560	-0.118821
H57	H	1.168001	0.414285	0.206475
H58	H	1.264705	0.562357	0.206484
H59	H	1.211898	0.671184	-0.000096
H60	H	1.062383	0.631940	-0.206694
H61	H	0.965680	0.483867	-0.206703
H62	H	1.654321	-0.317791	-0.139024
H63	H	1.503258	-0.306783	-0.227690
H64	H	0.891824	-0.017129	-0.000128
H65	H	1.654285	0.010360	0.760919
H66	H	1.129477	-0.012928	-0.000058
C67	C	1.274497	-0.279263	-0.126466
C68	C	1.214384	-0.336917	-0.228567
C69	C	1.142422	-0.298934	-0.354941
C70	C	1.130573	-0.203298	-0.379215
C71	C	1.190688	-0.145638	-0.277111
C72	C	1.262650	-0.183621	-0.150737
H73	H	1.223153	-0.407718	-0.210600
H74	H	1.097921	-0.341618	-0.430525
H75	H	1.077302	-0.175181	-0.472765
H76	H	1.181918	-0.074837	-0.295078
H77	H	1.307151	-0.140937	-0.075153
H78	H	1.289082	-0.432806	-0.094203
H79	H	1.506376	-0.305577	0.227563
C80	C	1.492159	-0.458783	-0.263059
C81	C	1.437951	-0.392713	-0.368303
C82	C	1.377286	-0.420808	-0.501945
C83	C	1.370829	-0.514972	-0.530342
C84	C	1.425038	-0.581048	-0.425094
C85	C	1.485704	-0.552953	-0.291452
H86	H	1.442729	-0.323002	-0.347285
H87	H	1.337156	-0.371893	-0.579856
H88	H	1.325921	-0.535769	-0.629272
H89	H	1.420260	-0.650759	-0.446113
H90	H	1.525833	-0.601868	-0.213541
H91	H	1.289324	-0.433864	0.092484
C92	C	1.686153	-0.473124	0.138554
C93	C	1.797695	-0.419307	0.144846
C94	C	1.933875	-0.462084	0.152883
C95	C	1.958514	-0.558676	0.154629
C96	C	1.846969	-0.612498	0.148337
C97	C	1.710788	-0.569722	0.140299
H98	H	1.779458	-0.347798	0.143554
H99	H	2.016448	-0.422240	0.157541
H100	H	2.059323	-0.590342	0.160579
H101	H	1.865205	-0.684007	0.149629
H102	H	1.628215	-0.609565	0.135641
C103	C	1.691621	-0.313801	0.136983
C104	C	1.744715	-0.260263	0.023625
C105	C	1.882917	-0.240376	0.030183
C106	C	1.968026	-0.274026	0.150100
C107	C	1.914933	-0.327568	0.263467
C108	C	1.776731	-0.347455	0.256909
H109	H	1.681711	-0.235350	-0.065153
H110	H	1.922220	-0.200741	-0.053740
H111	H	2.070332	-0.259305	0.154955
H112	H	1.977937	-0.352481	0.352245
H113	H	1.737428	-0.387090	0.340831
H114	H	1.500580	-0.448929	0.228110
H115	H	1.654048	-0.461861	-0.130294
H116	H	1.654308	0.010404	0.238837
H117	H	1.809230	-0.091937	0.369317
H118	H	1.809228	-0.091960	0.630355
H119	H	1.328548	0.225522	0.630457
H120	H	1.328542	0.225539	0.369417
