data_functionalizedCrystal
_audit_creation_method	'MofGen! by Chris Wilmer'
_symmetry_space_group_name_H-M	'P1'
_symmetry_Int_Tables_number	1
_symmetry_cell_setting	triclinic
loop_
_symmetry_equiv_pos_as_xyz
  x,y,z
_cell_length_a	16.992694
_cell_length_b	12.811415
_cell_length_c	16.053802
_cell_angle_alpha	87.154093
_cell_angle_beta	87.249047
_cell_angle_gamma	87.341347
loop_
_atom_site_label
_atom_site_type_symbol
_atom_site_fract_x
_atom_site_fract_y
_atom_site_fract_z
O1	O	1.045189	0.217501	-0.085790
O2	O	0.816888	0.215068	-0.085630
O3	O	0.936237	0.064659	-0.074225
O4	O	0.925840	0.367910	-0.097194
O5	O	0.929667	0.072902	0.064009
O6	O	0.810318	0.223311	0.052604
O7	O	1.038619	0.225744	0.052444
Zn8	Zn	0.923426	0.225836	0.074472
Zn9	Zn	0.932081	0.214976	-0.107657
O10	O	0.919271	0.376153	0.041040
C11	C	0.784369	0.216062	-0.016279
C12	C	0.697261	0.206729	-0.015582
C13	C	0.932168	0.029798	-0.002158
C14	C	0.929823	-0.086357	0.006634
C15	C	0.647640	0.296772	-0.022401
C16	C	0.565792	0.287998	-0.021725
C17	C	0.533568	0.189179	-0.014236
C18	C	0.583196	0.099129	-0.007413
C19	C	0.665042	0.107905	-0.008084
C20	C	0.289720	0.152808	-0.011459
C21	C	0.207868	0.144039	-0.010791
C22	C	0.190469	0.332909	-0.025102
C23	C	0.272318	0.341676	-0.025777
C24	C	0.321938	0.251626	-0.018950
N25	N	0.449907	0.180208	-0.013547
N26	N	0.405597	0.260598	-0.019633
C27	C	0.932565	-0.313602	-0.127565
C28	C	0.930362	-0.422741	-0.119308
C29	C	0.923208	-0.413775	0.031403
C30	C	0.925411	-0.304636	0.023147
C31	C	0.930091	-0.254554	-0.056340
C32	C	0.932300	-0.145414	-0.064596
C33	C	0.925140	-0.136449	0.086115
C34	C	0.922937	-0.245588	0.094371
C35	C	1.071138	0.224750	-0.016908
C36	C	1.158246	0.234083	-0.017611
C37	C	0.923339	0.411014	-0.031030
C38	C	0.925685	0.527169	-0.039827
N39	N	0.917524	0.233247	0.198770
N40	N	0.937989	0.207557	-0.231955
C41	C	0.968326	0.169274	0.247315
C42	C	0.964205	0.174469	0.334328
C43	C	0.909286	0.243643	0.372794
C44	C	0.858479	0.307619	0.324243
C45	C	0.862596	0.302418	0.237232
C46	C	0.891299	0.266332	0.632483
C47	C	0.887187	0.271530	0.719500
C48	C	0.992913	0.138378	0.729579
C49	C	0.997029	0.133187	0.642566
C50	C	0.946219	0.197159	0.594023
N51	N	0.905074	0.248957	0.461735
N52	N	0.950428	0.191839	0.505084
H53	H	0.673870	0.377241	-0.028501
F54	F	0.932993	-0.485581	-0.195116
F55	F	0.937556	-0.260300	-0.212159
H56	H	1.005572	0.122376	0.373853
F57	F	1.026783	0.095653	0.206384
H58	H	0.813758	0.363939	0.355567
H59	H	0.919391	-0.454570	0.096118
H60	H	0.150060	0.406222	-0.030658
H61	H	0.330111	0.079483	-0.005899
H62	H	0.821227	0.354511	0.197707
H63	H	0.298548	0.422144	-0.031885
H64	H	0.556953	0.018669	-0.001303
H65	H	0.525393	0.361321	-0.027279
F66	F	1.055481	0.059566	0.601628
F67	F	0.917950	-0.298899	0.178962
H68	H	0.705444	0.034582	-0.002531
F69	F	0.937283	-0.092115	-0.149192
H70	H	0.181635	0.063565	-0.004693
H71	H	1.034280	0.086293	0.769111
F72	F	0.922513	-0.073598	0.161923
H73	H	0.842463	0.327865	0.750814
F74	F	0.837226	0.334418	0.580827
