data_functionalizedCrystal
_audit_creation_method	'MofGen! by Chris Wilmer'
_symmetry_space_group_name_H-M	'P1'
_symmetry_Int_Tables_number	1
_symmetry_cell_setting	triclinic
loop_
_symmetry_equiv_pos_as_xyz
  x,y,z
_cell_length_a	17.640112
_cell_length_b	16.994726
_cell_length_c	17.640280
_cell_angle_alpha	78.707711
_cell_angle_beta	87.815931
_cell_angle_gamma	78.840998
loop_
_atom_site_label
_atom_site_type_symbol
_atom_site_fract_x
_atom_site_fract_y
_atom_site_fract_z
Zn1	Zn	1.222019	0.186321	0.067161
Zn2	Zn	1.247575	0.023641	0.194346
Zn3	Zn	1.095018	0.074804	0.093011
Zn4	Zn	1.120696	0.175929	0.219810
O5	O	1.171327	0.115174	0.143582
O6	O	1.331660	0.147679	0.062558
O7	O	1.227287	-0.079976	0.181065
O8	O	1.090423	0.115358	-0.016712
O9	O	1.350436	0.028158	0.156000
O10	O	1.183731	0.197289	-0.035703
O11	O	1.115204	-0.042387	0.106614
O12	O	0.992174	0.105280	0.131306
O13	O	1.134188	0.287711	0.199400
O14	O	1.011039	0.179577	0.224465
O15	O	1.208630	0.295347	0.087249
O16	O	1.252186	0.018081	0.304017
O17	O	1.158968	0.129966	0.322726
C18	C	0.974057	0.146853	0.183454
C19	C	0.889668	0.160420	0.200530
C20	C	1.171262	-0.089800	0.143812
C21	C	1.171327	-0.179111	0.143694
Zn22	Zn	1.120537	-0.455325	0.219440
Zn23	Zn	1.222354	-0.444528	0.067120
Zn24	Zn	1.247500	-0.343764	0.194399
Zn25	Zn	1.095271	-0.292396	0.092569
O26	O	1.171416	-0.384003	0.143382
O27	O	1.134094	-0.564250	0.199064
O28	O	1.332009	-0.448140	0.062874
O29	O	1.251755	-0.384579	0.304083
O30	O	1.208898	-0.556317	0.087156
O31	O	1.158476	-0.466543	0.322481
O32	O	1.350483	-0.374109	0.156384
O33	O	1.227256	-0.226593	0.181061
O34	O	0.992304	-0.297030	0.130529
O35	O	1.115414	-0.188853	0.106247
O36	O	1.010866	-0.416734	0.223741
O37	O	1.184399	-0.398331	-0.035866
O38	O	1.091032	-0.286560	-0.017169
C39	C	0.562835	0.012118	0.013846
C40	C	0.483541	0.024873	0.029907
C41	C	0.503267	0.102031	0.127047
C42	C	0.582564	0.089286	0.110992
C43	C	0.612341	0.044328	0.054392
C44	C	0.632070	0.121496	0.151538
C45	C	0.711359	0.108748	0.135486
C46	C	0.741143	0.063790	0.078890
C47	C	0.691630	0.031580	0.038340
C48	C	0.602292	0.166449	0.208142
C49	C	0.651798	0.198659	0.248687
C50	C	0.731088	0.185916	0.232633
C51	C	0.760872	0.140958	0.176036
C52	C	0.780601	0.218126	0.273182
C53	C	0.859891	0.205378	0.257131
C54	C	0.840162	0.128210	0.159985
C55	C	1.369367	0.083371	0.103555
C56	C	1.453760	0.069819	0.086498
C57	C	1.211158	0.067358	0.340928
C58	C	1.228267	0.046918	0.425340
C59	C	1.171426	0.320956	0.143277
C60	C	1.171474	0.410294	0.143152
C61	C	1.131362	0.163190	-0.054539
C62	C	1.114331	0.183652	-0.138966
C63	C	1.041662	0.270695	0.751840
C64	C	1.057740	0.251462	0.831157
C65	C	1.154868	0.135049	0.811598
C66	C	1.138801	0.154273	0.732277
C67	C	1.082197	0.222097	0.702405
C68	C	1.179335	0.105676	0.682842
C69	C	1.163266	0.124897	0.603529
C70	C	1.106663	0.192716	0.573651
C71	C	1.066127	0.241318	0.623092
C72	C	1.235936	0.037849	0.712717
C73	C	1.276470	-0.010749	0.663282
C74	C	1.260405	0.008475	0.583966
C75	C	1.203802	0.076294	0.554088
C76	C	1.300940	-0.040127	0.534525
C77	C	1.284871	-0.020906	0.455212
C78	C	1.187732	0.095515	0.474775
C79	C	1.132281	-0.335672	-0.054103
C80	C	1.115649	-0.314945	-0.138610
C81	C	0.973247	-0.352356	0.182767
C82	C	0.888799	-0.338870	0.199551
C83	C	1.210781	-0.432545	0.341623
C84	C	1.227662	-0.453358	0.426080
C85	C	1.368824	-0.415585	0.104204
C86	C	1.453314	-0.429273	0.087633
C87	C	1.156415	-0.363451	-0.188000
C88	C	1.140787	-0.343992	-0.267403
C89	C	1.084397	-0.276024	-0.297415
C90	C	1.043627	-0.227516	-0.248019
C91	C	1.059251	-0.246979	-0.168617
C92	C	0.858803	-0.394861	0.255970
C93	C	0.779459	-0.382193	0.271755
C94	C	0.730111	-0.313537	0.231117
C95	C	0.760112	-0.257541	0.174695
C96	C	0.839456	-0.270206	0.158914
C97	C	1.284156	-0.420452	0.456168
C98	C	1.300017	-0.439992	0.535524
C99	C	1.259387	-0.492442	0.584791
C100	C	1.202887	-0.525347	0.554700
C101	C	1.187023	-0.505803	0.475345
C102	C	1.502507	-0.396702	0.128195
C103	C	1.581897	-0.409567	0.112640
C104	C	1.612091	-0.454999	0.056517
C105	C	1.562891	-0.487575	0.015954
C106	C	1.483504	-0.474714	0.031514
H107	H	0.864405	0.091615	0.113883
H108	H	0.805707	0.053409	0.065824
H109	H	1.322555	-0.065973	0.687616
F110	F	0.871369	-0.210609	0.098861
H111	H	1.202335	-0.418796	-0.163576
F112	F	1.015863	-0.195341	-0.116061
H113	H	1.020040	0.296552	0.598768
H114	H	0.627543	0.235261	0.294774
H115	H	0.995575	0.325928	0.727516
F116	F	1.184189	-0.395625	-0.319962
H117	H	1.621945	-0.383034	0.145674
H118	H	1.141022	-0.532606	0.450855
H119	H	0.900200	0.231608	0.290146
F120	F	0.748902	0.265956	0.333430
H121	H	1.071681	-0.260186	-0.362071
F122	F	1.089697	0.213293	0.489210
H123	H	0.997713	-0.172174	-0.272465
H124	H	1.676735	-0.465464	0.043855
H125	H	1.317247	-0.377745	0.416063
F126	F	1.328007	-0.072634	0.402598
F127	F	0.911311	-0.467934	0.299234
H128	H	0.715874	-0.005015	-0.007761
F129	F	0.747544	-0.441801	0.331802
H130	H	0.665505	-0.303234	0.243974
H131	H	1.587488	-0.524566	-0.029742
H132	H	1.024737	0.291050	0.871404
F133	F	1.276444	-0.513432	0.669213
H134	H	0.587078	-0.024477	-0.032255
F135	F	0.707582	-0.184473	0.131451
F136	F	0.471569	0.149867	0.187292
F137	F	1.127494	0.167707	0.442977
H138	H	1.200954	0.079825	0.835932
H139	H	1.443454	-0.501236	-0.001524
F140	F	1.361176	-0.112311	0.566329
F141	F	1.470388	-0.348346	0.187929
F142	F	1.360152	-0.404964	0.567535
H143	H	0.443233	-0.001353	-0.003120
H144	H	1.169810	-0.568054	0.594825
H145	H	0.537728	0.176826	0.221209
H146	H	1.249019	0.022203	0.777299
