data_functionalizedCrystal
_audit_creation_method	'MofGen! by Chris Wilmer'
_symmetry_space_group_name_H-M	'P1'
_symmetry_Int_Tables_number	1
_symmetry_cell_setting	triclinic
loop_
_symmetry_equiv_pos_as_xyz
  x,y,z
_cell_length_a	21.295418
_cell_length_b	18.215405
_cell_length_c	18.215399
_cell_angle_alpha	90.032960
_cell_angle_beta	89.964127
_cell_angle_gamma	89.959302
loop_
_atom_site_label
_atom_site_type_symbol
_atom_site_fract_x
_atom_site_fract_y
_atom_site_fract_z
Zn1	Zn	0.962332	0.292664	-0.416477
Zn2	Zn	1.295665	0.625997	-0.083143
Zn3	Zn	1.628998	0.959330	0.250190
Zn4	Zn	0.962259	0.415740	-0.293405
Zn5	Zn	1.295592	0.749073	0.039928
Zn6	Zn	1.628925	1.082407	0.373262
Zn7	Zn	0.857069	0.292726	-0.293383
Zn8	Zn	1.190402	0.626059	0.039950
Zn9	Zn	1.523736	0.959393	0.373283
Zn10	Zn	0.857034	0.415727	-0.416389
Zn11	Zn	1.190368	0.749060	-0.083056
Zn12	Zn	1.523701	1.082394	0.250278
O13	O	0.909673	0.354214	-0.354913
O14	O	1.243007	0.687547	-0.021580
O15	O	1.576340	1.020881	0.311753
O16	O	1.050411	0.308969	-0.400197
O17	O	1.383745	0.642303	-0.066864
O18	O	1.717078	0.975636	0.266470
O19	O	0.948289	0.399454	-0.190418
O20	O	1.281622	0.732787	0.142916
O21	O	1.614956	1.066120	0.476249
O22	O	0.871077	0.189733	-0.309740
O23	O	1.204411	0.523067	0.023594
O24	O	1.537744	0.856400	0.356927
O25	O	1.050358	0.399393	-0.309776
O26	O	1.383691	0.732726	0.023557
O27	O	1.717024	1.066060	0.356890
O28	O	0.948413	0.189688	-0.400176
O29	O	1.281747	0.523021	-0.066843
O30	O	1.615080	0.856354	0.266491
O31	O	0.871007	0.309076	-0.190402
O32	O	1.204340	0.642409	0.142932
O33	O	1.537673	0.975742	0.476265
O34	O	0.768975	0.309063	-0.309654
O35	O	1.102308	0.642396	0.023679
O36	O	1.435642	0.975729	0.357012
O37	O	0.871018	0.399371	-0.519385
O38	O	1.204352	0.732704	-0.186052
O39	O	1.537685	1.066037	0.147282
O40	O	0.768950	0.399431	-0.400026
O41	O	1.102283	0.732765	-0.066693
O42	O	1.435616	1.066098	0.266641
O43	O	0.948380	0.308957	-0.519449
O44	O	1.281713	0.642290	-0.186116
O45	O	1.615046	0.975623	0.147217
O46	O	0.948255	0.518723	-0.309691
O47	O	1.281589	0.852056	0.023642
O48	O	1.614922	1.185389	0.356975
O49	O	0.870948	0.518713	-0.400047
O50	O	1.204281	0.852046	-0.066714
O51	O	1.537614	1.185380	0.266620
C52	C	0.746122	0.354253	-0.354829
C53	C	1.079455	0.687586	-0.021495
C54	C	1.412788	1.020920	0.311838
C55	C	0.676154	0.354287	-0.354810
C56	C	1.009487	0.687620	-0.021477
C57	C	1.342820	1.020954	0.311857
C58	C	0.909607	0.545420	-0.354878
C59	C	1.242940	0.878754	-0.021545
C60	C	1.576274	1.212087	0.311789
C61	C	0.909636	0.627219	-0.354887
C62	C	1.242969	0.960553	-0.021554
C63	C	1.576303	1.293886	0.311779
C64	C	0.909703	0.354155	-0.546866
C65	C	1.243037	0.687489	-0.213533
C66	C	1.576370	1.020822	0.119800
C67	C	0.909716	0.354130	-0.628665
C68	C	1.243049	0.687464	-0.295332
C69	C	1.576383	1.020797	0.038001
C70	C	0.643290	0.401404	-0.401796
C71	C	0.976624	0.734738	-0.068463
C72	C	1.309957	1.068071	0.264871
C73	C	0.577548	0.401386	-0.401829
C74	C	0.910881	0.734719	-0.068496
C75	C	1.244214	1.068053	0.264837
C76	C	0.544671	0.354259	-0.354863
C77	C	0.878005	0.687592	-0.021530
C78	C	1.211338	1.020925	0.311804
C79	C	0.577543	0.307132	-0.307873
C80	C	0.910876	0.640466	0.025460
C81	C	1.244209	0.973799	0.358793
C82	C	0.643284	0.307147	-0.307847
C83	C	0.976617	0.640480	0.025486
C84	C	1.309950	0.973813	0.358820
N85	N	0.441402	0.348513	-0.290496
N86	N	0.774736	0.681846	0.042838
N87	N	1.108069	1.015180	0.376171
N88	N	0.378951	0.348504	-0.290523
N89	N	0.712284	0.681837	0.042811
N90	N	1.045617	1.015170	0.376144
C91	C	0.346597	0.354212	-0.354941
C92	C	0.679930	0.687545	-0.021608
C93	C	1.013263	1.020878	0.311726
N94	N	0.379053	0.359944	-0.419332
N95	N	0.712386	0.693277	-0.085999
N96	N	1.045720	1.026610	0.247334
N97	N	0.441510	0.359957	-0.419304
N98	N	0.774843	0.693290	-0.085971
N99	N	1.108177	1.026623	0.247362
C100	C	0.473386	0.354238	-0.354887
C101	C	0.806719	0.687571	-0.021553
C102	C	1.140052	1.020904	0.311780
C103	C	0.242448	0.401312	-0.401967
C104	C	0.575781	0.734645	-0.068634
C105	C	0.909114	1.067978	0.264700
C106	C	0.176704	0.401288	-0.402001
C107	C	0.510037	0.734622	-0.068668
C108	C	0.843371	1.067955	0.264665
C109	C	0.176700	0.307038	-0.308039
C110	C	0.510033	0.640372	0.025294
C111	C	0.843367	0.973705	0.358628
C112	C	0.242442	0.307058	-0.308011
C113	C	0.575776	0.640391	0.025322
C114	C	0.909109	0.973724	0.358656
C115	C	0.275312	0.354198	-0.354974
C116	C	0.608646	0.687532	-0.021641
C117	C	0.941979	1.020865	0.311692
C118	C	1.073864	0.354176	-0.354999
C119	C	1.407197	0.687509	-0.021666
C120	C	1.740530	1.020842	0.311668
C121	C	1.143832	0.354159	-0.355035
C122	C	1.477165	0.687493	-0.021702
C123	C	1.810499	1.020826	0.311631
C124	C	0.909757	0.162261	-0.354965
C125	C	1.243091	0.495594	-0.021632
C126	C	1.576424	0.828928	0.311702
C127	C	0.909793	0.080462	-0.354987
C128	C	1.243126	0.413796	-0.021654
C129	C	1.576460	0.747129	0.311680
C130	C	0.949985	0.815394	-0.307926
C131	C	1.283318	1.148727	0.025407
C132	C	1.616651	1.482060	0.358741
C133	C	0.950013	0.892252	-0.307944
C134	C	1.283346	1.225586	0.025390
C135	C	1.616680	1.558919	0.358723
C136	C	0.869443	0.892282	-0.401954
C137	C	1.202776	1.225616	-0.068621
C138	C	1.536109	1.558949	0.264713
C139	C	0.869418	0.815425	-0.401939
C140	C	1.202751	1.148758	-0.068606
C141	C	1.536085	1.482092	0.264727
C142	C	0.909688	0.776983	-0.354921
C143	C	1.243022	1.110316	-0.021588
C144	C	1.576355	1.443649	0.311746
C145	C	0.909741	0.930699	-0.354954
C146	C	1.243074	1.264032	-0.021620
C147	C	1.576408	1.597365	0.311713
C148	C	0.909771	1.014032	-0.354973
C149	C	1.243104	1.347366	-0.021640
C150	C	1.576438	1.680699	0.311693
C151	C	0.909659	0.693644	-0.354902
C152	C	1.242992	1.026977	-0.021569
C153	C	1.576326	1.360311	0.311764
C154	C	0.869509	0.307039	-0.816852
C155	C	1.202842	0.640372	-0.483519
C156	C	1.536176	0.973705	-0.150185
C157	C	0.869520	0.307024	-0.893711
C158	C	1.202853	0.640357	-0.560378
C159	C	1.536187	0.973691	-0.227044
C160	C	0.949998	0.401134	-0.893717
C161	C	1.283331	0.734467	-0.560383
C162	C	1.616665	1.067801	-0.227050
C163	C	0.949983	0.401152	-0.816859
C164	C	1.283317	0.734485	-0.483526
C165	C	1.616650	1.067819	-0.150193
C166	C	0.909740	0.354100	-0.778429
C167	C	1.243073	0.687434	-0.445096
C168	C	1.576407	1.020767	-0.111762
C169	C	0.909765	0.354067	-0.932145
C170	C	1.243099	0.687401	-0.598812
C171	C	1.576432	1.020734	-0.265479
C172	C	0.909778	0.354052	-1.015479
C173	C	1.243111	0.687385	-0.682146
C174	C	1.576444	1.020718	-0.348812
C175	C	0.909727	0.354117	-0.695090
C176	C	1.243060	0.687450	-0.361757
C177	C	1.576393	1.020783	-0.028423
C178	C	0.909680	0.354220	-0.163707
C179	C	1.243013	0.687553	0.169626
C180	C	1.576347	1.020886	0.502959
C181	C	0.909789	0.354037	-0.081909
C182	C	1.243123	0.687371	0.251425
C183	C	1.576456	1.020704	0.584758
H184	H	0.670049	0.439789	-0.440038
H185	H	1.003382	0.773122	-0.106705
H186	H	1.336715	1.106455	0.226628
H187	H	0.149933	0.268663	-0.269801
H188	H	0.483266	0.601996	0.063532
H189	H	0.816599	0.935329	0.396865
Br190	Br	0.814908	0.243164	-0.945854
Br191	Br	1.148241	0.576498	-0.612521
Br192	Br	1.481574	0.909831	-0.279187
H193	H	0.269212	0.439692	-0.440211
H194	H	0.602545	0.773026	-0.106877
H195	H	0.935878	1.106359	0.226456
H196	H	0.836655	0.923592	-0.440233
H197	H	1.169988	1.256925	-0.106900
H198	H	1.503322	1.590258	0.226433
H199	H	0.982763	0.439442	-0.925016
H200	H	1.316097	0.772775	-0.591683
H201	H	1.649430	1.106108	-0.258349
Br202	Br	0.532937	0.465334	-0.465602
Br203	Br	0.866271	0.798667	-0.132269
Br204	Br	1.199604	1.132001	0.201064
H205	H	0.149948	0.439655	-0.440268
H206	H	0.483281	0.772989	-0.106934
H207	H	0.816614	1.106322	0.226399
Br208	Br	0.287046	0.243110	-0.244240
Br209	Br	0.620379	0.576443	0.089093
Br210	Br	0.953713	0.909776	0.422426
Br211	Br	1.004582	0.465031	-0.764709
Br212	Br	1.337915	0.798365	-0.431375
Br213	Br	1.671249	1.131698	-0.098042
H214	H	0.550770	0.268759	-0.269634
H215	H	0.884104	0.602093	0.063699
H216	H	1.217437	0.935426	0.397032
H217	H	0.982776	0.784096	-0.269642
H218	H	1.316109	1.117429	0.063691
H219	H	1.649443	1.450762	0.397025
Br220	Br	1.004707	0.944379	-0.244166
Br221	Br	1.338040	1.277713	0.089168
Br222	Br	1.671374	1.611046	0.422501
Br223	Br	0.814731	0.763291	-0.465730
Br224	Br	1.148065	1.096624	-0.132396
Br225	Br	1.481398	1.429958	0.200937
H226	H	0.836740	0.268726	-0.785564
H227	H	1.170073	0.602059	-0.452231
H228	H	1.503407	0.935393	-0.118898
H229	H	0.670041	0.268776	-0.269585
H230	H	1.003374	0.602109	0.063748
H231	H	1.336708	0.935443	0.397082
