data_functionalizedCrystal
_audit_creation_method	'MofGen! by Chris Wilmer'
_symmetry_space_group_name_H-M	'P1'
_symmetry_Int_Tables_number	1
_symmetry_cell_setting	triclinic
loop_
_symmetry_equiv_pos_as_xyz
  x,y,z
_cell_length_a	17.038272
_cell_length_b	14.044220
_cell_length_c	15.500346
_cell_angle_alpha	87.073237
_cell_angle_beta	92.974377
_cell_angle_gamma	87.849783
loop_
_atom_site_label
_atom_site_type_symbol
_atom_site_fract_x
_atom_site_fract_y
_atom_site_fract_z
O1	O	0.193077	-1.277203	0.071852
O2	O	0.526411	-0.943869	0.405185
O3	O	0.859744	-0.610536	0.738519
O4	O	0.186238	-1.000683	0.071874
O5	O	0.519571	-0.667350	0.405207
O6	O	0.852905	-0.334016	0.738540
O7	O	0.075727	-1.137299	0.071856
O8	O	0.409060	-0.803966	0.405189
O9	O	0.742394	-0.470632	0.738523
O10	O	0.303588	-1.140587	0.071869
O11	O	0.636922	-0.807253	0.405203
O12	O	0.970255	-0.473920	0.738536
O13	O	0.068681	-1.128856	-0.072030
O14	O	0.402014	-0.795522	0.261303
O15	O	0.735347	-0.462189	0.594637
O16	O	0.179192	-0.992240	-0.072012
O17	O	0.512525	-0.658906	0.261321
O18	O	0.845858	-0.325573	0.594654
O19	O	0.186031	-1.268759	-0.072034
O20	O	0.519364	-0.935426	0.261299
O21	O	0.852698	-0.602093	0.594633
Cu22	Cu	0.181968	-1.129729	-0.085161
Cu23	Cu	0.515301	-0.796395	0.248172
Cu24	Cu	0.848635	-0.463062	0.581506
Cu25	Cu	0.190301	-1.139714	0.085001
Cu26	Cu	0.523634	-0.806380	0.418334
Cu27	Cu	0.856968	-0.473047	0.751667
O28	O	0.296542	-1.132143	-0.072016
O29	O	0.629875	-0.798810	0.261317
O30	O	0.963209	-0.465477	0.594650
C31	C	0.179721	-0.960906	-0.000067
C32	C	0.513054	-0.627572	0.333267
C33	C	0.846387	-0.294239	0.666600
C34	C	0.170790	-0.854960	-0.000058
C35	C	0.504123	-0.521627	0.333275
C36	C	0.837457	-0.188293	0.666608
C37	C	0.042867	-1.130088	-0.000087
C38	C	0.376200	-0.796755	0.333247
C39	C	0.709533	-0.463421	0.666580
C40	C	-0.044550	-1.121169	-0.000086
C41	C	0.288783	-0.787835	0.333248
C42	C	0.622116	-0.454502	0.666581
N43	N	0.176107	-1.122713	-0.204844
N44	N	0.509440	-0.789379	0.128490
N45	N	0.842774	-0.456046	0.461823
C46	C	-0.088936	-1.203057	-0.000093
C47	C	0.244397	-0.869723	0.333240
C48	C	0.577731	-0.536390	0.666574
C49	C	-0.171073	-1.194671	-0.000084
C50	C	0.162260	-0.861338	0.333249
C51	C	0.495594	-0.528004	0.666583
C52	C	-0.208823	-1.104396	-0.000074
C53	C	0.124511	-0.771063	0.333259
C54	C	0.457844	-0.437730	0.666593
C55	C	-0.164431	-1.022502	-0.000064
C56	C	0.168903	-0.689169	0.333269
C57	C	0.502236	-0.355836	0.666603
C58	C	-0.082295	-1.030889	-0.000067
C59	C	0.251038	-0.697556	0.333267
C60	C	0.584372	-0.364223	0.666600
C61	C	-0.456653	-1.074767	-0.000060
C62	C	-0.123319	-0.741434	0.333273
C63	C	0.210014	-0.408100	0.666607
C64	C	-0.538794	-1.066386	-0.000060
C65	C	-0.205461	-0.733053	0.333274
C66	C	0.127872	-0.399720	0.666607
C67	C	-0.545431	-1.238556	-0.000078
C68	C	-0.212097	-0.905222	0.333255
C69	C	0.121236	-0.571889	0.666588
C70	C	-0.463294	-1.246934	-0.000086
C71	C	-0.129960	-0.913601	0.333247
C72	C	0.203373	-0.580268	0.666581
C73	C	-0.418909	-1.165041	-0.000072
C74	C	-0.085575	-0.831708	0.333262
C75	C	0.247758	-0.498374	0.666595
C76	C	-0.292780	-1.095822	-0.000068
C77	C	0.040554	-0.762489	0.333266
C78	C	0.373887	-0.429156	0.666599
C79	C	-0.334953	-1.173616	-0.000072
C80	C	-0.001620	-0.840283	0.333262
C81	C	0.331714	-0.506949	0.666595
C82	C	0.329403	-1.139355	-0.000072
C83	C	0.662736	-0.806021	0.333261
C84	C	0.996069	-0.472688	0.666595
C85	C	0.416820	-1.148274	-0.000067
C86	C	0.750153	-0.814941	0.333266
C87	C	1.083486	-0.481607	0.666599
C88	C	0.192548	-1.308537	-0.000092
C89	C	0.525882	-0.975203	0.333241
C90	C	0.859215	-0.641870	0.666575
C91	C	0.201480	-1.414483	-0.000094
C92	C	0.534813	-1.081149	0.333239
C93	C	0.868146	-0.747816	0.666572
C94	C	0.154461	-0.660981	-0.000076
C95	C	0.487794	-0.327648	0.333257
C96	C	0.821127	0.005686	0.666590
C97	C	0.217806	-0.608456	-0.000076
C98	C	0.551139	-0.275123	0.333257
C99	C	0.884472	0.058211	0.666590
C100	C	0.208720	-0.500519	-0.000086
C101	C	0.542053	-0.167186	0.333247
C102	C	0.875386	0.166147	0.666580
C103	C	0.163545	-0.768928	-0.000066
C104	C	0.496879	-0.435594	0.333267
C105	C	0.830212	-0.102261	0.666600
C106	C	0.146640	-1.087734	-0.750021
C107	C	0.479973	-0.754401	-0.416688
C108	C	0.813307	-0.421067	-0.083354
C109	C	0.151103	-1.093036	-0.659450
C110	C	0.484436	-0.759703	-0.326116
C111	C	0.817769	-0.426370	0.007217
C112	C	0.205086	-1.157338	-0.614176
C113	C	0.538419	-0.824004	-0.280843
C114	C	0.871753	-0.490671	0.052491
C115	C	0.254604	-1.216347	-0.659478
C116	C	0.587938	-0.883013	-0.326145
C117	C	0.921271	-0.549680	0.007188
C118	C	0.250137	-1.211049	-0.750048
C119	C	0.583471	-0.877715	-0.416714
C120	C	0.916804	-0.544382	-0.083381
C121	C	0.221159	-1.176424	-0.340715
C122	C	0.554492	-0.843090	-0.007382
C123	C	0.887825	-0.509757	0.325951
C124	C	0.225623	-1.181715	-0.250140
C125	C	0.558957	-0.848382	0.083194
C126	C	0.892290	-0.515049	0.416527
C127	C	0.122120	-1.058406	-0.250117
C128	C	0.455454	-0.725072	0.083216
C129	C	0.788787	-0.391739	0.416549
C130	C	0.117661	-1.053109	-0.340689
C131	C	0.450995	-0.719776	-0.007355
C132	C	0.784328	-0.386442	0.325978
C133	C	0.167177	-1.112122	-0.385983
C134	C	0.500510	-0.778788	-0.052649
C135	C	0.833844	-0.445455	0.280684
C136	C	0.209650	-1.162757	-0.521598
C137	C	0.542984	-0.829424	-0.188265
C138	C	0.876317	-0.496090	0.145069
C139	C	0.162608	-1.106707	-0.478559
C140	C	0.495941	-0.773373	-0.145226
C141	C	0.829275	-0.440040	0.188107
N142	N	0.196156	-1.146737	0.204683
N143	N	0.529490	-0.813404	0.538017
N144	N	0.862823	-0.480070	0.871350
H145	H	-0.058207	-1.276568	-0.000107
H146	H	0.275127	-0.943234	0.333227
H147	H	0.608460	-0.609901	0.666560
F148	F	0.074662	-0.613806	-0.000084
F149	F	0.407996	-0.280472	0.333250
F150	F	0.741329	0.052861	0.666583
F151	F	-0.578969	-0.970299	-0.000053
F152	F	-0.245635	-0.636966	0.333280
F153	F	0.087698	-0.303632	0.666613
F154	F	0.312054	-1.284786	-0.611292
F155	F	0.645387	-0.951453	-0.277959
F156	F	0.978721	-0.618119	0.055374
H157	H	0.290459	-1.259096	-0.786926
H158	H	0.623792	-0.925762	-0.453593
H159	H	0.957125	-0.592429	-0.120260
H160	H	0.102685	-1.035368	-0.786876
H161	H	0.436018	-0.702035	-0.453543
H162	H	0.769352	-0.368702	-0.120210
H163	H	0.118653	-1.054356	-0.515425
H164	H	0.451986	-0.721022	-0.182092
H165	H	0.785319	-0.387689	0.151242
H166	H	0.278861	-0.644551	-0.000069
H167	H	0.612194	-0.311218	0.333265
H168	H	0.945527	0.022116	0.666598
H169	H	0.073701	-1.000750	-0.377544
H170	H	0.407035	-0.667416	-0.044211
H171	H	0.740368	-0.334083	0.289122
F172	F	-0.409425	-0.987608	-0.000042
F173	F	-0.076092	-0.654274	0.333291
F174	F	0.257242	-0.320941	0.666624
F175	F	0.098418	-1.030215	-0.611247
F176	F	0.431751	-0.696882	-0.277913
F177	F	0.765084	-0.363548	0.055420
H178	H	-0.207209	-1.261353	-0.000092
H179	H	0.126125	-0.928020	0.333241
H180	H	0.459458	-0.594686	0.666575
F181	F	-0.423123	-1.343018	-0.000075
F182	F	-0.089789	-1.009685	0.333258
F183	F	0.243544	-0.676352	0.666592
H184	H	0.253605	-1.215110	-0.484726
H185	H	0.586938	-0.881777	-0.151393
H186	H	0.920271	-0.548444	0.181941
H187	H	-0.581578	-1.305229	-0.000088
H188	H	-0.248244	-0.971895	0.333245
H189	H	0.085089	-0.638562	0.666578
H190	H	0.269589	-1.234076	-0.213280
H191	H	0.602922	-0.900742	0.120053
H192	H	0.936255	-0.567409	0.453386
F193	F	-0.204608	-0.926425	-0.000044
F194	F	0.128725	-0.593092	0.333290
F195	F	0.462058	-0.259759	0.666623
F196	F	0.273862	-1.239226	-0.388909
F197	F	0.607196	-0.905893	-0.055576
F198	F	0.940529	-0.572559	0.277757
H199	H	-0.046157	-0.964207	-0.000061
H200	H	0.287176	-0.630874	0.333273
H201	H	0.620510	-0.297541	0.666606
F202	F	-0.332963	-0.999748	-0.000053
F203	F	0.000371	-0.666414	0.333280
F204	F	0.333704	-0.333081	0.666613
F205	F	-0.294775	-1.269690	-0.000077
F206	F	0.038558	-0.936357	0.333256
F207	F	0.371892	-0.603023	0.666589
F208	F	0.069425	-0.995607	-0.201906
F209	F	0.402758	-0.662273	0.131428
F210	F	0.736091	-0.328940	0.464761
