data_functionalizedCrystal
_audit_creation_method	'MofGen! by Chris Wilmer'
_symmetry_space_group_name_H-M	'P1'
_symmetry_Int_Tables_number	1
_symmetry_cell_setting	triclinic
loop_
_symmetry_equiv_pos_as_xyz
  x,y,z
_cell_length_a	13.897449
_cell_length_b	19.121063
_cell_length_c	13.897441
_cell_angle_alpha	92.405670
_cell_angle_beta	89.979267
_cell_angle_gamma	92.470221
loop_
_atom_site_label
_atom_site_type_symbol
_atom_site_fract_x
_atom_site_fract_y
_atom_site_fract_z
Zn1	Zn	1.458257	-0.279567	-0.561726
Zn2	Zn	1.958257	0.220433	-0.061726
Zn3	Zn	1.451242	-0.397031	-0.407294
Zn4	Zn	1.951242	0.102969	0.092706
Zn5	Zn	1.296944	-0.279601	-0.400446
Zn6	Zn	1.796944	0.220399	0.099554
Zn7	Zn	1.290021	-0.396984	-0.568544
Zn8	Zn	1.790021	0.103016	-0.068544
O9	O	1.374116	-0.338296	-0.484503
O10	O	1.874116	0.161704	0.015497
O11	O	1.592308	-0.295154	-0.541253
O12	O	2.092308	0.204846	-0.041253
O13	O	1.430735	-0.381487	-0.271406
O14	O	1.930735	0.118513	0.228594
O15	O	1.324176	-0.181312	-0.416120
O16	O	1.824176	0.318688	0.083880
O17	O	1.587154	-0.381454	-0.427793
O18	O	2.087154	0.118546	0.072207
O19	O	1.442692	-0.181287	-0.534612
O20	O	1.942692	0.318713	-0.034612
O21	O	1.317374	-0.295211	-0.266375
O22	O	1.817374	0.204789	0.233625
O23	O	1.161045	-0.295166	-0.422732
O24	O	1.661045	0.204834	0.077268
O25	O	1.312377	-0.381375	-0.702620
O26	O	1.812377	0.118625	-0.202620
O27	O	1.155958	-0.381408	-0.546233
O28	O	1.655958	0.118592	-0.046233
O29	O	1.435979	-0.295109	-0.697610
O30	O	1.935979	0.204891	-0.197610
O31	O	1.424022	-0.495309	-0.434404
O32	O	1.924022	0.004691	0.065596
O33	O	1.305574	-0.495275	-0.552874
O34	O	1.805574	0.004725	-0.052874
C35	C	1.123502	-0.338286	-0.484480
C36	C	1.623502	0.161714	0.015520
C37	C	1.016288	-0.338299	-0.484494
C38	C	1.516288	0.161701	0.015506
C39	C	0.819992	-0.338302	-0.484520
C40	C	1.319992	0.161698	0.015480
C41	C	0.929225	-0.338298	-0.484503
C42	C	1.429225	0.161702	0.015497
C43	C	1.363311	-0.520776	-0.495143
C44	C	1.863311	-0.020776	0.004857
C45	C	1.358777	-0.598842	-0.499727
C46	C	1.858777	-0.098842	0.000273
C47	C	1.418365	-0.635512	-0.440252
C48	C	1.918365	-0.135512	0.059748
C49	C	1.414106	-0.708863	-0.444569
C50	C	1.914106	-0.208863	0.055431
C51	C	1.350255	-0.745543	-0.508358
C52	C	1.850255	-0.245543	-0.008358
C53	C	1.290665	-0.708868	-0.567840
C54	C	1.790665	-0.208868	-0.067840
C55	C	1.294929	-0.635518	-0.563527
C56	C	1.794929	-0.135518	-0.063527
C57	C	1.334297	-0.967012	-0.524468
C58	C	1.834297	-0.467012	-0.024468
C59	C	1.330035	-1.040367	-0.528775
C60	C	1.830035	-0.540367	-0.028775
C61	C	1.453478	-1.040357	-0.405504
C62	C	1.953478	-0.540357	0.094496
C63	C	1.457733	-0.967006	-0.401192
C64	C	1.957733	-0.467006	0.098808
C65	C	1.398147	-0.930337	-0.460678
C66	C	1.898147	-0.430337	0.039322
C67	C	1.345898	-0.820519	-0.512770
C68	C	1.845898	-0.320519	-0.012770
C69	C	1.402509	-0.855362	-0.456270
C70	C	1.902509	-0.355362	0.043730
C71	C	1.625708	-0.338306	-0.484526
C72	C	2.125708	0.161694	0.015474
C73	C	1.732922	-0.338310	-0.484536
C74	C	2.232922	0.161690	0.015464
C75	C	1.374188	-0.338234	-0.736092
C76	C	1.874188	0.161766	-0.236092
C77	C	1.374219	-0.338207	-0.843305
C78	C	1.874219	0.161793	-0.343305
C79	C	1.384989	-0.155103	-0.473842
C80	C	1.884989	0.344897	0.026158
C81	C	1.389623	-0.077037	-0.469299
C82	C	1.889623	0.422963	0.030701
C83	C	1.374248	-0.338160	-1.039597
C84	C	1.874248	0.161840	-0.539597
C85	C	1.374229	-0.338188	-0.930366
C86	C	1.874229	0.161812	-0.430366
C87	C	1.374103	-0.338307	-0.233889
C88	C	1.874103	0.161693	0.266111
C89	C	1.374271	-0.338135	-0.126665
C90	C	1.874271	0.161865	0.373335
H91	H	1.462628	-0.738716	-0.396136
H92	H	1.962628	-0.238716	0.103864
H93	H	1.293908	-0.850392	-0.564705
H94	H	1.793908	-0.350392	-0.064705
O95	O	1.480473	-0.599992	-0.378259
O96	O	1.980473	-0.099992	0.121741
C97	C	1.532135	-0.648091	-0.326674
C98	C	2.032135	-0.148091	0.173326
H99	H	1.532417	-0.700352	-0.369261
H100	H	2.032417	-0.200352	0.130739
H101	H	1.609374	-0.626858	-0.315201
H102	H	2.109374	-0.126858	0.184799
H103	H	1.496393	-0.655957	-0.253847
H104	H	1.996393	-0.155957	0.246153
O105	O	1.519852	-0.931486	-0.339211
O106	O	2.019852	-0.431486	0.160789
C107	C	1.571519	-0.979581	-0.287626
C108	C	2.071519	-0.479581	0.212374
H109	H	1.571795	-1.031845	-0.330207
H110	H	2.071795	-0.531845	0.169793
H111	H	1.648760	-0.958348	-0.276165
H112	H	2.148760	-0.458348	0.223835
H113	H	1.535785	-0.987442	-0.214794
H114	H	2.035785	-0.487442	0.285206
O115	O	1.511332	-1.076086	-0.347832
O116	O	2.011332	-0.576086	0.152168
C117	C	1.493867	-1.148692	-0.365300
C118	C	1.993867	-0.648692	0.134700
H119	H	1.461644	-1.158687	-0.440295
H120	H	1.961644	-0.658687	0.059705
H121	H	1.564509	-1.176524	-0.360472
H122	H	2.064509	-0.676524	0.139528
H123	H	1.441329	-1.169575	-0.309259
H124	H	1.941329	-0.669575	0.190741
O125	O	1.268117	-1.075970	-0.590883
O126	O	1.768117	-0.575970	-0.090883
C127	C	1.290185	-1.057974	-0.685981
C128	C	1.790185	-0.557974	-0.185981
H129	H	1.368415	-1.037756	-0.689727
H130	H	1.868415	-0.537756	-0.189727
H131	H	1.279057	-1.106194	-0.736456
H132	H	1.779057	-0.606194	-0.236456
H133	H	1.240928	-1.015420	-0.708659
H134	H	1.740928	-0.515420	-0.208659
O135	O	1.276369	-0.931318	-0.582102
O136	O	1.776369	-0.431318	-0.082102
C137	C	1.216548	-0.888971	-0.524635
C138	C	1.716548	-0.388971	-0.024635
H139	H	1.251249	-0.878003	-0.450923
H140	H	1.751249	-0.378003	0.049077
H141	H	1.206598	-0.837377	-0.560879
H142	H	1.706598	-0.337377	-0.060879
H143	H	1.143425	-0.917288	-0.515633
H144	H	1.643425	-0.417288	-0.015633
H145	H	1.246408	-0.605662	-0.611960
H146	H	1.746408	-0.105662	-0.111960
O147	O	1.228769	-0.744575	-0.629857
O148	O	1.728769	-0.244575	-0.129857
C149	C	1.281191	-0.786923	-0.694711
C150	C	1.781191	-0.286923	-0.194711
H151	H	1.353672	-0.797886	-0.661402
H152	H	1.853672	-0.297886	-0.161402
H153	H	1.238894	-0.838520	-0.710634
H154	H	1.738894	-0.338520	-0.210634
H155	H	1.293397	-0.758610	-0.764540
H156	H	1.793397	-0.258610	-0.264540
H157	H	1.454500	-0.825495	-0.404337
H158	H	1.954500	-0.325495	0.095663
