data_functionalizedCrystal
_audit_creation_method	'MofGen! by Chris Wilmer'
_symmetry_space_group_name_H-M	'P1'
_symmetry_Int_Tables_number	1
_symmetry_cell_setting	triclinic
loop_
_symmetry_equiv_pos_as_xyz
  x,y,z
_cell_length_a	19.288840
_cell_length_b	19.288857
_cell_length_c	18.366186
_cell_angle_alpha	89.991598
_cell_angle_beta	89.983729
_cell_angle_gamma	83.129562
loop_
_atom_site_label
_atom_site_type_symbol
_atom_site_fract_x
_atom_site_fract_y
_atom_site_fract_z
O1	O	0.921361	0.086566	-0.060675
O2	O	0.719098	0.098273	-0.060650
O3	O	0.826077	-0.008712	-0.060654
O4	O	0.814383	0.193551	-0.060670
O5	O	0.826059	-0.008717	0.060445
O6	O	0.719080	0.098268	0.060449
O7	O	0.921343	0.086561	0.060425
Zn8	Zn	0.820209	0.092414	0.079664
Zn9	Zn	0.820233	0.092420	-0.079889
O10	O	0.814364	0.193546	0.060429
C11	C	0.693212	0.097897	-0.000097
C12	C	0.616108	0.096775	-0.000087
C13	C	0.579914	0.096238	-0.066100
C14	C	0.507467	0.095176	-0.066109
C15	C	0.471219	0.094637	-0.000101
C16	C	0.507420	0.095177	0.065921
C17	C	0.579865	0.096246	0.065928
C18	C	0.361885	0.052256	0.050464
C19	C	0.289442	0.051183	0.050454
C20	C	0.247775	0.091342	-0.000120
C21	C	0.278561	0.132566	-0.050696
C22	C	0.351006	0.133635	-0.050689
C23	C	0.392665	0.093478	-0.000101
C24	C	0.133026	0.089656	-0.066147
C25	C	0.060577	0.088598	-0.066153
C26	C	0.060533	0.088591	0.065879
C27	C	0.132979	0.089656	0.065883
C28	C	0.169222	0.090185	-0.000132
C29	C	0.825693	-0.034591	-0.000104
C30	C	0.824566	-0.111695	-0.000102
C31	C	0.824050	-0.147902	-0.066113
C32	C	0.822981	-0.220348	-0.066118
C33	C	0.822442	-0.256585	-0.000108
C34	C	0.822954	-0.220368	0.065912
C35	C	0.824016	-0.147923	0.065915
C36	C	0.861437	-0.376823	0.050454
C37	C	0.860379	-0.449267	0.050448
C38	C	0.819164	-0.480031	-0.000116
C39	C	0.779016	-0.438342	-0.050687
C40	C	0.780078	-0.365897	-0.050683
C41	C	0.821291	-0.335140	-0.000105
C42	C	0.817489	-0.594793	-0.066138
C43	C	0.816415	-0.667239	-0.066140
C44	C	0.816396	-0.667259	0.065891
C45	C	0.817462	-0.594813	0.065892
C46	C	0.818012	-0.558585	-0.000125
C47	C	0.947229	0.086937	-0.000130
C48	C	1.024334	0.088059	-0.000144
C49	C	0.814749	0.219425	-0.000123
C50	C	0.815876	0.296528	-0.000130
N51	N	0.820198	0.092408	0.188555
N52	N	0.820249	0.092420	-0.188781
C53	C	0.867583	0.045059	0.226654
C54	C	0.867588	0.045056	0.302882
C55	C	0.820213	0.092414	0.341008
C56	C	0.772818	0.139767	0.302900
C57	C	0.772811	0.139765	0.226674
C58	C	0.810913	0.155703	0.461764
C59	C	0.810925	0.155707	0.537989
C60	C	0.820233	0.092423	0.576116
C61	C	0.829542	0.029132	0.538008
C62	C	0.829534	0.029129	0.461781
C63	C	0.820216	0.092422	0.423663
C64	C	0.867626	0.045066	0.696869
C65	C	0.867625	0.045062	0.773098
C66	C	0.772859	0.139780	0.773116
C67	C	0.772856	0.139778	0.696888
C68	C	0.820243	0.092422	0.658769
H69	H	0.477902	0.094739	0.119665
O70	O	0.822336	-0.255629	0.129988
C71	C	0.761570	-0.289459	0.133949
H72	H	0.741371	-0.297617	0.076634
H73	H	0.774345	-0.342220	0.161886
H74	H	0.719856	-0.255899	0.166528
O75	O	0.801973	0.217138	0.424648
C76	C	0.860918	0.222585	0.380545
H77	H	0.888830	0.168189	0.369131
H78	H	0.843596	0.248991	0.326941
H79	H	0.897992	0.254980	0.409898
H80	H	0.734273	0.178337	0.665866
O81	O	0.818154	-0.559590	-0.130249
C82	C	0.878915	-0.525748	-0.134189
H83	H	0.920612	-0.553221	-0.096717
H84	H	0.899139	-0.527641	-0.192571
H85	H	0.866128	-0.469018	-0.116465
H86	H	0.803350	0.207242	0.569011
O87	O	0.824427	-0.112758	-0.130280
C88	C	0.764025	-0.122461	-0.170394
H89	H	0.721713	-0.136728	-0.131724
H90	H	0.744510	-0.072138	-0.200373
H91	H	0.777007	-0.166362	-0.211522
H92	H	0.734244	0.178326	0.333947
H93	H	0.734223	0.178323	0.195654
H94	H	0.477992	0.094741	-0.119867
H95	H	0.264382	0.017613	0.091633
H96	H	0.815992	-0.696718	-0.119897
H97	H	0.609418	0.096669	-0.119855
O98	O	0.913652	-0.000847	0.339978
C99	C	0.956395	0.036247	0.384029
H100	H	0.928554	0.090671	0.395449
H101	H	0.967485	0.007228	0.437633
H102	H	1.007708	0.040835	0.354628
H103	H	0.031020	0.088156	0.119624
H104	H	0.376068	0.167203	-0.091868
H105	H	0.244637	0.165271	-0.091876
O106	O	0.913581	-0.001014	0.659844
C107	C	0.902548	-0.069759	0.678464
H108	H	0.846951	-0.069979	0.699455
H109	H	0.910639	-0.104612	0.628316
H110	H	0.941133	-0.090277	0.722677
H111	H	0.162536	0.090094	-0.119900
O112	O	0.025352	0.087984	-0.130235
C113	C	-0.008474	0.027216	-0.134187
H114	H	-0.016658	0.007008	-0.076869
H115	H	-0.061222	0.039994	-0.162132
H116	H	0.025103	-0.014490	-0.166755
H117	H	0.893073	-0.483205	0.091623
O118	O	0.913563	-0.001006	0.810141
C119	C	0.876514	-0.043754	0.854268
H120	H	0.821741	-0.044789	0.831318
H121	H	0.905035	-0.099037	0.855130
H122	H	0.872806	-0.022007	0.912037
H123	H	0.162449	0.090088	0.119638
O124	O	0.824549	-0.112859	0.130107
C125	C	0.823821	-0.160370	0.188371
H126	H	0.845052	-0.214957	0.169016
H127	H	0.857834	-0.143965	0.234538
H128	H	0.767991	-0.160608	0.208671
H129	H	0.894998	-0.351781	0.091635
H130	H	0.906167	0.006497	0.195620
O131	O	0.817880	-0.559703	0.130063
C132	C	0.757464	-0.569335	0.170225
H133	H	0.736641	-0.619242	0.151455
H134	H	0.770949	-0.573639	0.230613
H135	H	0.715949	-0.522913	0.161084
H136	H	0.837113	-0.022404	0.430757
O137	O	0.815765	-0.702507	0.129972
C138	C	0.754990	-0.736324	0.133927
H139	H	0.734800	-0.744488	0.076610
H140	H	0.767750	-0.789082	0.161875
H141	H	0.713276	-0.702751	0.166494
O142	O	0.838460	-0.032336	0.575061
C143	C	0.779531	-0.037784	0.619189
H144	H	0.732662	-0.003032	0.596233
H145	H	0.767795	-0.094316	0.620062
H146	H	0.790486	-0.020411	0.676955
H147	H	0.395805	0.019552	0.091650
O148	O	0.614925	0.096730	0.130121
C149	C	0.567397	0.096047	0.188383
H150	H	0.518709	0.073304	0.169028
H151	H	0.592834	0.062637	0.234556
H152	H	0.552216	0.151645	0.208676
H153	H	0.747386	-0.331956	-0.091858
O154	O	0.822569	-0.255608	-0.130205
C155	C	0.882107	-0.305564	-0.134181
H156	H	0.901990	-0.319126	-0.076871
H157	H	0.867837	-0.354684	-0.162131
H158	H	0.924637	-0.283279	-0.166755
O159	O	0.739053	-0.468192	-0.099903
C160	C	0.760629	-0.453325	-0.170986
H161	H	0.816935	-0.440927	-0.169585
H162	H	0.756933	-0.500559	-0.207457
H163	H	0.725465	-0.406467	-0.193394
O164	O	0.726904	0.185756	0.810255
C165	C	0.737056	0.175592	0.885705
H166	H	0.792362	0.149489	0.896101
H167	H	0.729160	0.228216	0.914669
H168	H	0.697858	0.140856	0.907357
