data_functionalizedCrystal
_audit_creation_method	'MofGen! by Chris Wilmer'
_symmetry_space_group_name_H-M	'P1'
_symmetry_Int_Tables_number	1
_symmetry_cell_setting	triclinic
loop_
_symmetry_equiv_pos_as_xyz
  x,y,z
_cell_length_a	14.044220
_cell_length_b	10.654550
_cell_length_c	9.130313
_cell_angle_alpha	90.003780
_cell_angle_beta	89.997493
_cell_angle_gamma	91.163110
loop_
_atom_site_label
_atom_site_type_symbol
_atom_site_fract_x
_atom_site_fract_y
_atom_site_fract_z
O1	O	0.133227	-1.681222	-0.121925
O2	O	0.145921	-1.317019	-0.121902
O3	O	0.001554	-1.493654	-0.121899
O4	O	0.277595	-1.504587	-0.121929
O5	O	0.001557	-1.493652	0.121700
O6	O	0.145925	-1.317017	0.121696
O7	O	0.133231	-1.681220	0.121673
Cu8	Cu	0.139578	-1.499119	0.143927
Cu9	Cu	0.139574	-1.499121	-0.144156
O10	O	0.277598	-1.504585	0.121670
C11	C	0.144991	-1.270127	-0.000100
C12	C	0.142202	-1.130403	-0.000091
C13	C	-0.033790	-1.488867	-0.000099
C14	C	-0.139110	-1.474592	-0.000096
C15	C	0.134161	-1.728113	-0.000132
C16	C	0.136950	-1.867836	-0.000151
C17	C	-0.331943	-1.448493	-0.000116
C18	C	-0.388911	-1.549741	-0.000126
C19	C	-0.496210	-1.535219	-0.000137
C20	C	-0.224634	-1.463013	-0.000105
C21	C	0.312942	-1.509372	-0.000133
C22	C	0.418262	-1.523648	-0.000146
N23	N	0.139581	-1.499126	0.346550
C24	C	0.227203	-1.059459	-0.000121
C25	C	0.224578	-0.928175	-0.000146
C26	C	0.051942	-0.938790	-0.000116
C27	C	0.054569	-1.070072	-0.000081
C28	C	0.314837	-1.119790	-0.000131
C29	C	0.399845	-1.048846	-0.000163
C30	C	0.397219	-0.917561	-0.000188
C31	C	0.309585	-0.857221	-0.000181
N32	N	0.139564	-1.499122	-0.346779
C33	C	0.075677	-1.577364	0.423203
C34	C	0.075666	-1.577359	0.576540
C35	C	0.203470	-1.420876	0.576557
C36	C	0.203477	-1.420875	0.423223
C37	C	0.011782	-1.655615	0.346531
C38	C	-0.052127	-1.733861	0.423184
C39	C	-0.052138	-1.733856	0.576521
C40	C	0.011759	-1.655606	0.653204
H41	H	-0.357098	-1.647328	-0.000231
O42	O	-0.369730	-1.331985	-0.000171
C43	C	-0.295635	-1.240690	-0.000114
H44	H	-0.228130	-1.283292	-0.046233
H45	H	-0.281915	-1.207281	0.116759
C46	C	-0.407331	-1.076221	-0.038986
C47	C	-0.324422	-1.128543	-0.095642
H48	H	-0.425089	-1.007040	-0.097906
H49	H	-0.457251	-1.137727	-0.039018
H50	H	-0.395887	-1.048390	0.058407
H51	H	-0.335871	-1.156386	-0.193026
H52	H	-0.274504	-1.067039	-0.095628
O53	O	-0.114313	-1.809671	0.651050
C54	C	-0.173302	-1.735823	0.739771
H55	H	-0.175602	-1.636533	0.693569
H56	H	-0.143669	-1.732557	0.855983
C57	C	-0.271838	-1.915642	0.798858
C58	C	-0.274669	-1.793695	0.742105
H59	H	-0.334365	-1.951342	0.800304
H60	H	-0.232094	-1.965397	0.739090
H61	H	-0.247139	-1.912904	0.895697
H62	H	-0.299356	-1.796437	0.645262
H63	H	-0.314420	-1.743943	0.801857
H64	H	0.316985	-1.226688	-0.000117
H65	H	-0.019405	-0.889650	-0.000135
H66	H	0.471193	-1.097984	-0.000156
H67	H	-0.104155	-1.797562	0.360741
O68	O	-0.027910	-1.139184	0.000009
C69	C	-0.006797	-1.267993	0.000007
H70	H	0.067745	-1.281343	0.046118
H71	H	-0.010146	-1.305532	-0.116849
C72	C	-0.171461	-1.323556	0.038935
C73	C	-0.079909	-1.339954	0.095581
H74	H	-0.216562	-1.367948	0.097883
H75	H	-0.185687	-1.236776	0.038931
H76	H	-0.174238	-1.354838	-0.058444
H77	H	-0.077130	-1.308658	0.192950
H78	H	-0.065685	-1.426732	0.095604
O79	O	0.265410	-1.344810	0.651206
C80	C	0.214059	-1.261575	0.739882
H81	H	0.140181	-1.303320	0.762842
H82	H	0.206966	-1.167968	0.680801
C83	C	0.358083	-1.189438	0.857340
C84	C	0.267348	-1.240715	0.885550
H85	H	0.390955	-1.176564	0.947193
H86	H	0.392681	-1.245511	0.797594
H87	H	0.352160	-1.111437	0.808103
H88	H	0.273273	-1.318720	0.934770
H89	H	0.232752	-1.184653	0.945308
O90	O	0.011636	-1.655733	0.197581
C91	C	-0.058443	-1.741598	0.146341
H92	H	-0.114804	-1.757198	0.234696
H93	H	-0.023948	-1.834693	0.119136
C94	C	-0.036234	-1.669403	-0.100754
C95	C	-0.105461	-1.688555	0.007761
H96	H	-0.065235	-1.636688	-0.186240
H97	H	0.010983	-1.611557	-0.066234
H98	H	-0.007493	-1.746988	-0.123407
H99	H	-0.134192	-1.610969	0.030425
H100	H	-0.152684	-1.746387	-0.026759
O101	O	0.265646	-1.344844	0.348979
C102	C	0.322031	-1.275764	0.449528
H103	H	0.323464	-1.327406	0.558829
H104	H	0.290574	-1.178957	0.465840
C105	C	0.422422	-1.197888	0.255437
C106	C	0.424189	-1.261321	0.389678
H107	H	0.485437	-1.188973	0.218517
H108	H	0.384433	-1.244424	0.187693
H109	H	0.396203	-1.117223	0.269049
H110	H	0.450396	-1.341990	0.376061
H111	H	0.462185	-1.214798	0.457418
H112	H	0.011738	-1.655600	0.778062
H113	H	0.307454	-0.750320	-0.000179
H114	H	0.466437	-0.859801	-0.000200
