data_functionalizedCrystal
_audit_creation_method	'MofGen! by Chris Wilmer'
_symmetry_space_group_name_H-M	'P1'
_symmetry_Int_Tables_number	1
_symmetry_cell_setting	triclinic
loop_
_symmetry_equiv_pos_as_xyz
  x,y,z
_cell_length_a	25.639233
_cell_length_b	18.101398
_cell_length_c	18.101395
_cell_angle_alpha	90.026371
_cell_angle_beta	90.015138
_cell_angle_gamma	90.018723
loop_
_atom_site_label
_atom_site_type_symbol
_atom_site_fract_x
_atom_site_fract_y
_atom_site_fract_z
Zn1	Zn	-0.295707	-1.132080	0.295013
Zn2	Zn	0.204293	-0.632080	0.795013
Zn3	Zn	-0.208277	-1.131988	0.418835
Zn4	Zn	0.291723	-0.631988	0.918835
Zn5	Zn	-0.208277	-1.008251	0.295002
Zn6	Zn	0.291723	-0.508251	0.795002
Zn7	Zn	-0.295672	-1.008190	0.418807
Zn8	Zn	0.204328	-0.508190	0.918807
O9	O	-0.251983	-1.070127	0.356914
O10	O	0.248017	-0.570127	0.856914
O11	O	-0.284124	-1.235701	0.311455
O12	O	0.215876	-0.735701	0.811455
O13	O	-0.135112	-1.115561	0.402415
O14	O	0.364888	-0.615561	0.902415
O15	O	-0.219889	-1.024741	0.191370
O16	O	0.280111	-0.524741	0.691370
O17	O	-0.219890	-1.235633	0.402426
O18	O	0.280110	-0.735633	0.902426
O19	O	-0.284124	-1.115718	0.191379
O20	O	0.215876	-0.615718	0.691379
O21	O	-0.135112	-1.024652	0.311436
O22	O	0.364888	-0.524652	0.811436
O23	O	-0.219855	-0.904610	0.311408
O24	O	0.280145	-0.404610	0.811408
O25	O	-0.368842	-1.024637	0.402379
O26	O	0.131158	-0.524637	0.902379
O27	O	-0.284064	-0.904565	0.402368
O28	O	0.215936	-0.404565	0.902368
O29	O	-0.368868	-1.115659	0.311428
O30	O	0.131132	-0.615659	0.811428
O31	O	-0.219856	-1.115502	0.522464
O32	O	0.280144	-0.615502	1.022464
O33	O	-0.284065	-1.024548	0.522444
O34	O	0.215935	-0.524548	1.022444
C35	C	-0.251956	-0.877717	0.356884
C36	C	0.248044	-0.377717	0.856884
C37	C	-0.251957	-0.795403	0.356889
C38	C	0.248043	-0.295403	0.856889
C39	C	-0.251968	-1.070028	0.549325
C40	C	0.248032	-0.570028	1.049325
C41	C	-0.251979	-1.070053	0.631639
C42	C	0.248021	-0.570053	1.131639
C43	C	-0.388356	-1.070151	0.356901
C44	C	0.111644	-0.570151	0.856901
C45	C	-0.446470	-1.070161	0.356896
C46	C	0.053530	-0.570161	0.856896
C47	C	-0.806853	-1.117616	0.309397
C48	C	-0.306853	-0.617616	0.809397
C49	C	-0.861457	-1.117625	0.309377
C50	C	-0.361457	-0.617625	0.809377
O51	O	-0.889710	-1.157914	0.269079
O52	O	-0.389710	-0.657914	0.769079
N53	N	-0.888753	-1.070243	0.356722
N54	N	-0.388753	-0.570243	0.856722
C55	C	-0.861442	-1.022843	0.404086
C56	C	-0.361442	-0.522843	0.904086
O57	O	-0.889674	-0.982541	0.444355
O58	O	-0.389674	-0.482541	0.944355
C59	C	-0.806839	-1.022830	0.404102
C60	C	-0.306839	-0.522830	0.904102
C61	C	-0.779545	-1.070221	0.356759
C62	C	-0.279545	-0.570221	0.856759
C63	C	-0.779559	-1.165003	0.262057
C64	C	-0.279559	-0.665003	0.762057
C65	C	-0.724959	-1.164995	0.262078
C66	C	-0.224959	-0.664995	0.762078
C67	C	-0.697652	-1.117600	0.309440
C68	C	-0.197652	-0.617600	0.809440
C69	C	-0.724945	-1.070213	0.356781
C70	C	-0.224945	-0.570213	0.856781
C71	C	-0.779529	-0.975427	0.451462
C72	C	-0.279529	-0.475427	0.951462
C73	C	-0.724922	-0.975418	0.451474
C74	C	-0.224922	-0.475418	0.951474
C75	C	-0.697628	-1.022809	0.404130
C76	C	-0.197628	-0.522809	0.904130
C77	C	-0.643037	-1.022810	0.404164
C78	C	-0.143037	-0.522810	0.904164
N79	N	-0.615741	-1.070192	0.356818
N80	N	-0.115741	-0.570192	0.856818
C81	C	-0.643048	-1.117587	0.309456
C82	C	-0.143048	-0.617587	0.809456
C83	C	-0.976113	-1.022871	0.404048
C84	C	-0.476113	-0.522871	0.904048
C85	C	-1.030715	-1.022887	0.404036
C86	C	-0.530715	-0.522887	0.904036
C87	C	-1.030726	-1.117669	0.309325
C88	C	-0.530726	-0.617669	0.809325
C89	C	-0.976123	-1.117656	0.309341
C90	C	-0.476123	-0.617656	0.809341
C91	C	-0.948817	-1.070254	0.356702
C92	C	-0.448817	-0.570254	0.856702
C93	C	-0.528383	-1.117567	0.309506
C94	C	-0.028383	-0.617567	0.809506
C95	C	-0.473778	-1.117556	0.309534
C96	C	0.026222	-0.617556	0.809534
C97	C	-0.473771	-1.022772	0.404242
C98	C	0.026229	-0.522772	0.904242
C99	C	-0.528372	-1.022785	0.404217
C100	C	-0.028372	-0.522785	0.904217
C101	C	-0.555677	-1.070185	0.356843
C102	C	-0.055677	-0.570185	0.856843
O103	O	-0.614750	-0.982540	0.444439
O104	O	-0.114750	-0.482540	0.944439
O105	O	-0.614810	-1.157876	0.269188
O106	O	-0.114810	-0.657876	0.769188
C107	C	-0.116141	-1.070146	0.356874
C108	C	0.383859	-0.570146	0.856874
C109	C	-0.058027	-1.070279	0.356671
C110	C	0.441973	-0.570279	0.856671
C111	C	-0.252011	-1.263289	0.356945
C112	C	0.247989	-0.763289	0.856945
C113	C	-0.252023	-1.345603	0.356958
C114	C	0.247977	-0.845603	0.856958
C115	C	-0.252001	-0.496312	0.356936
C116	C	0.247999	0.003688	0.856936
C117	C	-0.211799	-0.527640	0.299420
C118	C	0.288201	-0.027640	0.799420
C119	C	-0.211628	-0.613259	0.299575
C120	C	0.288372	-0.113259	0.799575
C121	C	-0.251979	-0.644694	0.356912
C122	C	0.248021	-0.144694	0.856912
C123	C	-0.236925	-0.613578	0.434919
C124	C	0.263075	-0.113578	0.934919
C125	C	-0.236646	-0.527933	0.434600
C126	C	0.263354	-0.027933	0.934600
C127	C	-0.307351	-0.527919	0.337121
C128	C	0.192649	-0.027919	0.837121
C129	C	-0.307049	-0.613569	0.335384
C130	C	0.192951	-0.113569	0.835384
C131	C	-0.251968	-0.728554	0.356903
C132	C	0.248032	-0.228554	0.856903
C133	C	-0.252011	-0.412452	0.356949
C134	C	0.247989	0.087548	0.856949
C135	C	-0.252010	-1.070247	0.163752
C136	C	0.247990	-0.570247	0.663752
C137	C	-0.252022	-1.070298	0.081438
C138	C	0.247978	-0.570298	0.581438
C139	C	-0.252007	-1.070216	0.930730
C140	C	0.247993	-0.570216	1.430730
C141	C	-0.292506	-1.013123	0.899423
C142	C	0.207494	-0.513123	1.399423
C143	C	-0.292379	-1.012852	0.813805
C144	C	0.207621	-0.512852	1.313805
C145	C	-0.251994	-1.070135	0.782347
C146	C	0.248006	-0.570135	1.282347
C147	C	-0.196889	-1.049014	0.813480
C148	C	0.303111	-0.549014	1.313480
C149	C	-0.197131	-1.048646	0.899126
C150	C	0.302869	-0.548646	1.399126
C151	C	-0.266128	-1.148556	0.899084
C152	C	0.233872	-0.648556	1.399084
C153	C	-0.267336	-1.148095	0.813434
C154	C	0.232664	-0.648095	1.313434
C155	C	-0.251983	-1.070091	0.698488
C156	C	0.248017	-0.570091	1.198488
C157	C	-0.252014	-1.070258	1.014589
C158	C	0.247986	-0.570258	1.514589
H159	H	-0.451558	-1.156150	0.270981
H160	H	0.048442	-0.656150	0.770981
H161	H	-0.196182	-0.507927	0.451405
H162	H	0.303818	-0.007927	0.951405
H163	H	-0.283025	-0.954784	0.793374
H164	H	0.216975	-0.454784	1.293374
H165	H	-0.264650	-0.507207	0.478903
H166	H	0.235350	-0.007207	0.978903
H167	H	-0.265290	-0.633939	0.478920
H168	H	0.234710	-0.133939	0.978920
H169	H	-0.333238	-1.026065	0.792754
H170	H	0.166762	-0.526065	1.292754
H171	H	-1.052933	-0.984304	0.442596
H172	H	-0.552933	-0.484304	0.942596
H173	H	-0.702741	-1.203584	0.223525
H174	H	-0.202741	-0.703584	0.723525
H175	H	-0.196899	-0.634998	0.452016
H176	H	0.303101	-0.134998	0.952016
H177	H	-0.550608	-1.156162	0.270927
H178	H	-0.050608	-0.656162	0.770927
H179	H	-0.185170	-0.991380	0.919160
H180	H	0.314830	-0.491380	1.419160
H181	H	-0.321038	-0.506345	0.281230
H182	H	0.178962	-0.006345	0.781230
H183	H	-0.165927	-1.088426	0.919837
H184	H	0.334073	-0.588426	1.419837
H185	H	-0.953883	-0.984270	0.442619
H186	H	-0.453883	-0.484270	0.942619
H187	H	-0.550595	-0.984202	0.442775
H188	H	-0.050595	-0.484202	0.942775
H189	H	-0.184714	-0.992355	0.792087
H190	H	0.315286	-0.492355	1.292087
H191	H	-0.305626	-1.167814	0.920646
H192	H	0.194374	-0.667814	1.420646
H193	H	-0.307890	-1.164023	0.793084
H194	H	0.192110	-0.664023	1.293084
H195	H	-0.170614	-0.633718	0.312672
H196	H	0.329386	-0.133718	0.812672
H197	H	-0.318400	-0.633912	0.277980
H198	H	0.181600	-0.133912	0.777980
H199	H	-0.165891	-1.089290	0.793104
H200	H	0.334109	-0.589290	1.293104
H201	H	-0.337305	-0.507658	0.379013
H202	H	0.162695	-0.007658	0.879013
H203	H	-0.338607	-0.634970	0.374224
H204	H	0.161393	-0.134970	0.874224
H205	H	-0.239990	-1.192882	0.792017
H206	H	0.260010	-0.692882	1.292017
H207	H	-0.801742	-0.936836	0.490014
H208	H	-0.301742	-0.436836	0.990014
H209	H	-0.702692	-0.936809	0.490034
H210	H	-0.202692	-0.436809	0.990034
H211	H	-0.333497	-1.026205	0.919984
H212	H	0.166503	-0.526205	1.419984
H213	H	-0.283270	-0.955408	0.921002
H214	H	0.216730	-0.455408	1.421002
H215	H	-0.236631	-1.191092	0.919329
H216	H	0.263369	-0.691092	1.419329
H217	H	-0.801787	-1.203598	0.223485
H218	H	-0.301787	-0.703598	0.723485
H219	H	-0.953904	-1.156245	0.270789
H220	H	-0.453904	-0.656245	0.770789
H221	H	-0.451528	-0.984186	0.442805
H222	H	0.048472	-0.484186	0.942805
H223	H	-1.052970	-1.156259	0.270758
H224	H	-0.552970	-0.656259	0.770758
H225	H	-0.221063	-0.634298	0.241728
H226	H	0.278937	-0.134298	0.741728
H227	H	-0.221131	-0.507069	0.241398
H228	H	0.278869	-0.007069	0.741398
H229	H	-0.171024	-0.506097	0.312370
H230	H	0.328976	-0.006097	0.812370
