data_functionalizedCrystal
_audit_creation_method	'MofGen! by Chris Wilmer'
_symmetry_space_group_name_H-M	'P1'
_symmetry_Int_Tables_number	1
_symmetry_cell_setting	triclinic
loop_
_symmetry_equiv_pos_as_xyz
  x,y,z
_cell_length_a	27.731994
_cell_length_b	27.731996
_cell_length_c	26.210047
_cell_angle_alpha	89.998501
_cell_angle_beta	89.997128
_cell_angle_gamma	82.620961
loop_
_atom_site_label
_atom_site_type_symbol
_atom_site_fract_x
_atom_site_fract_y
_atom_site_fract_z
O1	O	0.640938	0.057387	-0.042363
O2	O	0.500139	0.066160	-0.042381
O3	O	0.574924	-0.008626	-0.042360
O4	O	0.566152	0.132173	-0.042383
O5	O	0.574910	-0.008614	0.042498
O6	O	0.500124	0.066172	0.042477
O7	O	0.640923	0.057398	0.042495
Cu8	Cu	0.570522	0.061786	0.050235
Cu9	Cu	0.570540	0.061772	-0.050120
O10	O	0.566138	0.132184	0.042475
C11	C	0.482124	0.065986	0.000046
C12	C	0.428468	0.065443	0.000040
C13	C	0.095742	0.062034	0.046316
C14	C	-0.105915	0.059972	0.046322
O15	O	-0.131995	0.059690	0.085661
N16	N	-0.131122	0.059710	0.000066
C17	C	-0.105911	0.059960	-0.046195
O18	O	-0.131978	0.059684	-0.085538
C19	C	0.095746	0.062018	-0.046200
C20	C	0.120950	0.062285	0.000059
C21	C	0.120946	0.062301	0.092572
C22	C	0.171357	0.062819	0.092570
C23	C	0.196564	0.063070	0.046312
C24	C	0.171361	0.062803	0.000057
C25	C	0.120957	0.062264	-0.092460
C26	C	0.171374	0.062777	-0.092458
C27	C	0.196578	0.063045	-0.046199
C28	C	0.246979	0.063572	-0.046202
N29	N	0.272186	0.063835	0.000054
C30	C	0.246979	0.063584	0.046311
C31	C	-0.211784	0.058880	-0.046188
C32	C	-0.262199	0.058366	-0.046187
C33	C	-0.262199	0.058378	0.046330
C34	C	-0.211785	0.058895	0.046328
C35	C	-0.186578	0.059142	0.000068
C36	C	0.352845	0.064672	0.046303
C37	C	0.403261	0.065192	0.046297
C38	C	0.403257	0.065178	-0.046220
C39	C	0.352846	0.064660	-0.046214
C40	C	0.327642	0.064406	0.000052
O41	O	0.273090	0.063849	-0.085521
O42	O	0.273055	0.063848	0.085649
C43	C	0.045331	0.061516	0.046318
C44	C	0.020127	0.061249	0.000063
C45	C	0.045335	0.061500	-0.046194
C46	C	-0.030287	0.060735	0.000064
C47	C	-0.055494	0.060484	0.046322
C48	C	-0.030287	0.060746	0.092578
C49	C	0.020124	0.061264	0.092576
C50	C	0.020128	0.061238	-0.092450
C51	C	-0.030283	0.060720	-0.092445
C52	C	-0.055491	0.060469	-0.046187
C53	C	0.574737	-0.026628	0.000071
C54	C	0.574194	-0.080284	0.000076
C55	C	0.570787	-0.413006	-0.046206
C56	C	0.568726	-0.614664	-0.046215
O57	O	0.568445	-0.640740	-0.085554
N58	N	0.568462	-0.639874	0.000041
C59	C	0.568710	-0.614667	0.046302
O60	O	0.568434	-0.640737	0.085645
C61	C	0.570768	-0.413010	0.046311
C62	C	0.571037	-0.387802	0.000052
C63	C	0.571055	-0.387798	-0.092461
C64	C	0.571573	-0.337387	-0.092458
C65	C	0.571823	-0.312184	-0.046200
C66	C	0.571555	-0.337391	0.000055
C67	C	0.571013	-0.387803	0.092571
C68	C	0.571526	-0.337385	0.092569
C69	C	0.571795	-0.312178	0.046311
C70	C	0.572322	-0.261777	0.046315
N71	N	0.572586	-0.236566	0.000060
C72	C	0.572336	-0.261769	-0.046198
C73	C	0.567631	-0.720540	0.046294
C74	C	0.567118	-0.770954	0.046292
C75	C	0.567132	-0.770947	-0.046225
C76	C	0.567649	-0.720533	-0.046222
C77	C	0.567895	-0.695329	0.000038
C78	C	0.573424	-0.155903	-0.046189
C79	C	0.573944	-0.105487	-0.046182
C80	C	0.573927	-0.105498	0.046335
C81	C	0.573410	-0.155910	0.046328
C82	C	0.573157	-0.181110	0.000062
O83	O	0.572598	-0.235669	0.085634
O84	O	0.572602	-0.235689	-0.085535
C85	C	0.570269	-0.463417	-0.046209
C86	C	0.570001	-0.488624	0.000046
C87	C	0.570251	-0.463421	0.046304
C88	C	0.569487	-0.539039	0.000044
C89	C	0.569238	-0.564242	-0.046213
C90	C	0.569502	-0.539031	-0.092469
C91	C	0.570020	-0.488620	-0.092466
C92	C	0.569987	-0.488632	0.092560
C93	C	0.569469	-0.539043	0.092553
C94	C	0.569220	-0.564246	0.046296
C95	C	0.658938	0.057573	0.000067
C96	C	0.712594	0.058115	0.000070
C97	C	0.566325	0.150186	0.000043
C98	C	0.566868	0.203842	0.000034
N99	N	0.570514	0.061795	0.120818
N100	N	0.570552	0.061759	-0.120704
C101	C	0.603651	0.028664	0.473342
C102	C	0.603662	0.028658	0.687000
O103	O	0.631818	0.000491	0.714630
N104	N	0.570542	0.061762	0.713712
C105	C	0.537415	0.094867	0.687007
O106	O	0.509242	0.123021	0.714630
C107	C	0.537403	0.094872	0.473349
C108	C	0.570528	0.061769	0.446640
C109	C	0.636773	-0.004436	0.446632
C110	C	0.636772	-0.004432	0.393221
C111	C	0.603649	0.028672	0.366519
C112	C	0.570527	0.061773	0.393228
C113	C	0.504274	0.127975	0.446644
C114	C	0.504273	0.127972	0.393226
C115	C	0.537398	0.094869	0.366517
C116	C	0.537402	0.094881	0.313115
N117	N	0.570522	0.061777	0.286403
C118	C	0.603645	0.028672	0.313105
C119	C	0.537425	0.094864	0.799180
C120	C	0.537429	0.094863	0.852594
C121	C	0.603675	0.028653	0.852584
C122	C	0.603673	0.028656	0.799169
C123	C	0.570545	0.061760	0.772468
C124	C	0.603640	0.028683	0.200937
C125	C	0.603637	0.028691	0.147520
C126	C	0.537390	0.094900	0.147535
C127	C	0.537394	0.094894	0.200947
C128	C	0.570521	0.061781	0.227646
O129	O	0.509257	0.123029	0.285452
O130	O	0.631807	0.000516	0.285472
C131	C	0.603652	0.028661	0.526753
C132	C	0.570530	0.061761	0.553463
C133	C	0.537407	0.094865	0.526761
C134	C	0.570534	0.061761	0.606877
C135	C	0.603657	0.028657	0.633579
C136	C	0.636777	-0.004447	0.606867
C137	C	0.636776	-0.004444	0.553455
C138	C	0.504287	0.127969	0.553473
C139	C	0.504292	0.127963	0.606884
C140	C	0.537415	0.094859	0.633586
H141	H	0.332329	0.064469	0.083977
O142	O	0.570837	-0.412205	-0.137445
C143	C	0.571171	-0.379134	-0.178263
H144	H	0.586841	-0.345318	-0.164689
H145	H	0.532433	-0.368400	-0.192494
C146	C	0.583449	-0.444720	-0.238637
C147	C	0.602700	-0.403189	-0.221966
H148	H	0.602896	-0.459559	-0.265596
H149	H	0.583222	-0.467001	-0.211138
H150	H	0.551168	-0.435769	-0.250493
H151	H	0.634978	-0.412141	-0.210105
H152	H	0.602932	-0.380910	-0.249465
O153	O	0.635830	-0.003573	0.878471
C154	C	0.628326	-0.051370	0.865433
H155	H	0.609696	-0.051178	0.826650
H156	H	0.604375	-0.066143	0.895496
C157	C	0.700532	-0.084121	0.910602
C158	C	0.677653	-0.083886	0.862967
H159	H	0.730958	-0.104179	0.909083
H160	H	0.705586	-0.051920	0.919388
H161	H	0.680568	-0.096430	0.935650
H162	H	0.697614	-0.071571	0.837921
H163	H	0.672603	-0.116086	0.854177
H164	H	0.332323	0.064450	-0.083882
H165	H	0.191895	0.062979	-0.130130
O166	O	0.668874	-0.036586	0.367185
C167	C	0.698506	-0.011028	0.336172
H168	H	0.699227	0.027064	0.352261
H169	H	0.683235	-0.008317	0.295743
C170	C	0.749643	-0.085010	0.315412
C171	C	0.750532	-0.038227	0.335176
H172	H	0.781734	-0.101788	0.314795
H173	H	0.729679	-0.102230	0.336305
H174	H	0.736915	-0.082745	0.281723
H175	H	0.763253	-0.040492	0.368866
H176	H	0.770499	-0.021007	0.314288
H177	H	0.570795	-0.408318	0.130240
O178	O	0.571696	-0.312945	0.137540
C179	C	0.529674	-0.319456	0.165662
H180	H	0.515342	-0.354127	0.152503
H181	H	0.500638	-0.287022	0.159241
C182	C	0.559956	-0.280964	0.238991
C183	C	0.542356	-0.323550	0.222832
H184	H	0.567777	-0.283488	0.274257
H185	H	0.588266	-0.276576	0.220045
H186	H	0.535756	-0.253940	0.233636
H187	H	0.566557	-0.350572	0.228181
H188	H	0.514049	-0.327943	0.241781
H189	H	0.630646	0.001700	0.777425
O190	O	0.573109	-0.180319	-0.091161
C191	C	0.531351	-0.162201	-0.119295
H192	H	0.517766	-0.123664	-0.106140
H193	H	0.501730	-0.186510	-0.112885
C194	C	0.560784	-0.208962	-0.192617
C195	C	0.544102	-0.161628	-0.176462
H196	H	0.568649	-0.208610	-0.227880
H197	H	0.588917	-0.221170	-0.173662
H198	H	0.536097	-0.229214	-0.187271
H199	H	0.568791	-0.141378	-0.181802
H200	H	0.515973	-0.149416	-0.195419
H201	H	0.040647	0.061441	-0.130119
H202	H	0.100445	0.062046	-0.130130
H203	H	0.100428	0.062095	0.130242
H204	H	-0.191265	0.059081	-0.083861
H205	H	-0.282732	0.058174	0.083995
H206	H	0.477295	0.154929	0.371489
H207	H	0.510460	0.121824	0.874337
H208	H	0.630615	0.001719	0.222669
O209	O	0.573132	-0.180322	0.091308
C210	C	0.573479	-0.147266	0.132136
H211	H	0.558544	-0.109207	0.118574
H212	H	0.612328	-0.147282	0.146366
C213	C	0.559897	-0.209289	0.192493
C214	C	0.541550	-0.162546	0.175836
H215	H	0.540204	-0.218715	0.219450
H216	H	0.559665	-0.231561	0.164987
H217	H	0.592271	-0.209297	0.204347
H218	H	0.509180	-0.162540	0.163976
H219	H	0.541776	-0.140274	0.203341
H220	H	0.663746	-0.031396	0.468368
O221	O	0.472092	0.160056	0.632883
C222	C	0.442462	0.134374	0.663767
H223	H	0.462010	0.096412	0.671771
H224	H	0.406766	0.131338	0.643179
C225	C	0.407904	0.208326	0.704675
C226	C	0.431914	0.161702	0.714508
H227	H	0.401394	0.225183	0.735973
H228	H	0.427864	0.225629	0.683866
H229	H	0.378160	0.205789	0.687516
H230	H	0.461660	0.164239	0.731660
H231	H	0.411958	0.144399	0.735321
H232	H	0.423790	0.065384	-0.083881
O233	O	-0.187375	0.059128	0.091309
C234	C	-0.220442	0.058810	0.132134
H235	H	-0.254259	0.043135	0.118572
H236	H	-0.231175	0.097553	0.146351
C237	C	-0.154851	0.046555	0.192501
C238	C	-0.196383	0.027298	0.175845
H239	H	-0.140010	0.027119	0.219466
H240	H	-0.132572	0.046771	0.164998
H241	H	-0.163800	0.078840	0.204345
H242	H	-0.187432	-0.004985	0.163996
H243	H	-0.218660	0.027076	0.203348
O244	O	0.574080	-0.080973	0.091252
C245	C	0.532500	-0.046005	0.093993
H246	H	0.503082	-0.057153	0.067737
H247	H	0.542361	-0.009111	0.081559
C248	C	0.549630	-0.028896	0.181499
C249	C	0.513496	-0.042590	0.149254
H250	H	0.537908	-0.026788	0.215587
H251	H	0.577644	-0.052453	0.179652
H252	H	0.557844	0.001848	0.171131
H253	H	0.505287	-0.073336	0.159619
H254	H	0.485480	-0.019038	0.151104
H255	H	0.477314	0.154926	0.531736
H256	H	0.571790	-0.316867	-0.130126
O257	O	0.566774	-0.795402	0.091243
C258	C	0.525018	-0.777269	0.119378
H259	H	0.495894	-0.759361	0.092302
H260	H	0.534780	-0.749312	0.148217
C261	C	0.541333	-0.841412	0.180982
C262	C	0.505560	-0.819421	0.147727
H263	H	0.529331	-0.867413	0.198471
H264	H	0.569466	-0.853628	0.162028
H265	H	0.549464	-0.818110	0.205010
H266	H	0.497434	-0.842722	0.123696
H267	H	0.477426	-0.807210	0.166677
O268	O	0.569170	-0.563532	-0.137389
C269	C	0.526994	-0.586900	-0.140145
H270	H	0.497876	-0.567646	-0.113899
H271	H	0.536068	-0.626417	-0.127707
C272	C	0.543762	-0.608704	-0.227645
C273	C	0.507997	-0.585053	-0.195413
H274	H	0.532044	-0.607566	-0.261737
H275	H	0.572177	-0.592961	-0.225788
H276	H	0.551320	-0.641632	-0.217274
H277	H	0.500443	-0.552124	-0.205780
H278	H	0.479580	-0.600790	-0.197273
O279	O	0.668998	-0.036626	0.632731
C280	C	0.698225	-0.065857	0.597708
H281	H	0.698626	-0.046043	0.559632
H282	H	0.682802	-0.101655	0.592027
C283	C	0.749951	-0.100533	0.665326
C284	C	0.750447	-0.076195	0.618561
H285	H	0.782164	-0.106912	0.678189
H286	H	0.730259	-0.080841	0.688922
H287	H	0.737097	-0.130362	0.660585
H288	H	0.763296	-0.046365	0.623303
H289	H	0.770143	-0.095883	0.594966
O290	O	0.195826	0.062986	0.137520
C291	C	0.189288	0.020987	0.165667
H292	H	0.179488	-0.008429	0.138601
H293	H	0.158707	0.030159	0.194503
C294	C	0.248731	0.038582	0.227267
C295	C	0.236699	0.002452	0.194023
H296	H	0.277975	0.027150	0.244760
H297	H	0.253135	0.066879	0.208305
H298	H	0.223243	0.046222	0.251292
H299	H	0.262183	-0.005183	0.169994
H300	H	0.232300	-0.025847	0.212981
O301	O	0.668854	-0.036684	0.527495
C302	C	0.643139	-0.066327	0.496665
H303	H	0.605198	-0.046749	0.488623
H304	H	0.640052	-0.101980	0.517320
C305	C	0.717073	-0.101041	0.455825
C306	C	0.670474	-0.076992	0.445945
H307	H	0.733935	-0.107622	0.424539
H308	H	0.734397	-0.081071	0.476597
H309	H	0.714493	-0.130748	0.473039
H310	H	0.673054	-0.047283	0.428737
H311	H	0.653151	-0.096957	0.425169
H312	H	0.423779	0.065411	0.083969
O313	O	0.044532	0.061499	0.137558
C314	C	0.011463	0.061178	0.178380
H315	H	-0.022352	0.045499	0.164816
H316	H	0.000726	0.099920	0.192597
C317	C	0.077052	0.048927	0.238751
C318	C	0.035522	0.029667	0.222092
H319	H	0.091892	0.029491	0.265716
H320	H	0.099331	0.049145	0.211249
H321	H	0.068099	0.081212	0.250595
H322	H	0.044476	-0.002615	0.210243
H323	H	0.013244	0.029442	0.249594
O324	O	0.472048	0.160149	0.472502
C325	C	0.442823	0.189369	0.437470
H326	H	0.442436	0.169549	0.399397
H327	H	0.458238	0.225170	0.431786
C328	C	0.391073	0.224042	0.505074
C329	C	0.390595	0.199697	0.458313
H330	H	0.358856	0.230415	0.517931
H331	H	0.410763	0.204357	0.528676
H332	H	0.403921	0.253874	0.500330
H333	H	0.377752	0.169863	0.463058
H334	H	0.370901	0.219377	0.434711
O335	O	0.569188	-0.563449	0.137538
C336	C	0.569531	-0.530388	0.178363
H337	H	0.554596	-0.492331	0.164795
H338	H	0.608378	-0.530402	0.192596
C339	C	0.555946	-0.592407	0.238725
C340	C	0.537599	-0.545665	0.222061
H341	H	0.536250	-0.601831	0.265681
H342	H	0.555717	-0.614681	0.211220
H343	H	0.588318	-0.592412	0.250581
H344	H	0.505229	-0.545662	0.210199
H345	H	0.537822	-0.523391	0.249565
H346	H	0.566929	-0.791477	-0.083890
H347	H	0.570238	-0.468101	-0.130135
O348	O	0.635834	-0.003514	0.121655
C349	C	0.665075	-0.032726	0.156681
H350	H	0.645261	-0.033132	0.194757
H351	H	0.700863	-0.017284	0.162361
C352	C	0.699778	-0.084446	0.089069
C353	C	0.675439	-0.084949	0.135834
H354	H	0.706172	-0.116660	0.076209
H355	H	0.680079	-0.064765	0.065471
H356	H	0.729598	-0.071576	0.093809
H357	H	0.645617	-0.097813	0.131092
H358	H	0.695133	-0.104633	0.159431
O359	O	0.505153	0.127001	0.226875
C360	C	0.457365	0.119487	0.213811
H361	H	0.457432	0.080787	0.199120
H362	H	0.442960	0.146386	0.182811
C363	C	0.424452	0.174750	0.279304
C364	C	0.424534	0.127217	0.261265
H365	H	0.404199	0.179520	0.308575
H366	H	0.456647	0.179814	0.288105
H367	H	0.412448	0.197160	0.253466
H368	H	0.436543	0.104807	0.287100
H369	H	0.392340	0.122149	0.252470
H370	H	-0.282716	0.058156	-0.083856
H371	H	-0.050820	0.060544	0.130242
H372	H	0.574164	-0.084966	-0.083853
H373	H	0.510447	0.121822	0.777444
O374	O	-0.054686	0.060441	-0.137430
C375	C	-0.021622	0.060785	-0.178255
H376	H	0.016434	0.045850	-0.164686
H377	H	-0.021634	0.099633	-0.192488
C378	C	-0.083635	0.047202	-0.238616
C379	C	-0.036895	0.028854	-0.221952
H380	H	-0.093057	0.027507	-0.265572
H381	H	-0.105912	0.046972	-0.211113
H382	H	-0.083640	0.079574	-0.250474
H383	H	-0.036893	-0.003516	-0.210088
H384	H	-0.014619	0.029078	-0.249455
H385	H	0.567867	-0.700012	-0.083890
H386	H	0.570191	-0.468116	0.130229
H387	H	0.567833	-0.700025	0.083967
H388	H	0.510423	0.121854	0.125786
