data_functionalizedCrystal
_audit_creation_method	'MofGen! by Chris Wilmer'
_symmetry_space_group_name_H-M	'P1'
_symmetry_Int_Tables_number	1
_symmetry_cell_setting	triclinic
loop_
_symmetry_equiv_pos_as_xyz
  x,y,z
_cell_length_a	14.044191
_cell_length_b	12.503552
_cell_length_c	16.109301
_cell_angle_alpha	86.482779
_cell_angle_beta	88.326629
_cell_angle_gamma	93.842477
loop_
_atom_site_label
_atom_site_type_symbol
_atom_site_fract_x
_atom_site_fract_y
_atom_site_fract_z
O1	O	1.263117	0.089275	0.196067
O2	O	1.763117	0.589275	0.696067
O3	O	0.987151	0.089288	0.188827
O4	O	1.487151	0.589288	0.688827
O5	O	1.132714	0.089270	0.071981
O6	O	1.632714	0.589270	0.571981
O7	O	1.117554	0.089293	0.312913
O8	O	1.617554	0.589293	0.812913
O9	O	1.121755	-0.089371	0.080776
O10	O	1.621755	0.410629	0.580776
O11	O	0.976191	-0.089353	0.197622
O12	O	1.476191	0.410647	0.697622
O13	O	1.252157	-0.089366	0.204862
O14	O	1.752157	0.410634	0.704862
Cu15	Cu	1.113173	-0.105671	0.202045
Cu16	Cu	1.613173	0.394329	0.702045
Cu17	Cu	1.126135	0.105593	0.191644
Cu18	Cu	1.626135	0.605593	0.691644
O19	O	1.106594	-0.089348	0.321708
O20	O	1.606594	0.410652	0.821708
C21	C	0.946357	-0.000031	0.190058
C22	C	1.446357	0.499969	0.690058
C23	C	0.841135	-0.000026	0.180612
C24	C	1.341135	0.499974	0.680612
N25	N	1.104064	-0.254263	0.209361
N26	N	1.604064	0.245737	0.709361
C27	C	0.590832	-0.000032	0.230337
C28	C	1.090832	0.499968	0.730337
C29	C	0.648482	-0.000037	0.163356
C30	C	1.148482	0.499963	0.663356
C31	C	0.755684	-0.000031	0.172959
C32	C	1.255684	0.499969	0.672959
C33	C	0.483621	-0.000038	0.220734
C34	C	0.983621	0.499962	0.720734
C35	C	1.148647	-0.526701	0.173558
C36	C	1.648647	-0.026701	0.673558
C37	C	1.090672	-0.473370	0.220123
C38	C	1.590672	0.026630	0.720123
C39	C	1.098125	-0.351447	0.214133
C40	C	1.598125	0.148553	0.714133
C41	C	1.141195	-0.648635	0.179546
C42	C	1.641195	-0.148635	0.679546
C43	C	1.292951	-0.000045	0.203631
C44	C	1.792951	0.499955	0.703631
C45	C	1.398174	-0.000043	0.213077
C46	C	1.898174	0.499957	0.713077
C47	C	1.126620	-0.000051	0.045358
C48	C	1.626620	0.499949	0.545358
C49	C	1.124779	-0.000052	-0.047074
C50	C	1.624779	0.499948	0.452926
N51	N	1.135252	0.254185	0.184322
N52	N	1.635252	0.754185	0.684322
C53	C	1.206873	-0.000039	-0.263238
C54	C	1.706873	0.499961	0.236762
C55	C	1.205136	-0.000030	-0.350088
C56	C	1.705136	0.499970	0.149912
C57	C	1.032429	-0.000026	-0.343067
C58	C	1.532429	0.499974	0.156933
C59	C	1.034167	-0.000027	-0.256219
C60	C	1.534167	0.499973	0.243781
C61	C	1.121392	-0.000039	-0.216306
C62	C	1.621392	0.499961	0.283694
C63	C	1.117917	-0.000029	-0.390005
C64	C	1.617917	0.499971	0.109995
C65	C	1.116033	-0.000020	-0.484172
C66	C	1.616033	0.499980	0.015828
C67	C	1.123277	-0.000047	-0.122134
C68	C	1.623277	0.499953	0.377866
C69	C	1.112688	-0.000025	0.348331
C70	C	1.612688	0.499975	0.848331
C71	C	1.114530	-0.000016	0.440763
C72	C	1.614530	0.499984	0.940763
H73	H	0.617331	0.000033	0.098796
H74	H	1.117331	0.500033	0.598796
H75	H	0.621987	-0.000023	0.294888
H76	H	1.121987	0.499977	0.794888
H77	H	1.035441	-0.519279	0.264487
H78	H	1.535441	-0.019279	0.764487
H79	H	0.961414	-0.000019	-0.375575
H80	H	1.461414	0.499981	0.124425
C81	C	1.223266	-0.464693	0.113633
C82	C	1.723266	0.035307	0.613633
C83	C	1.230707	-0.341007	0.107648
C84	C	1.730707	0.158993	0.607648
C85	C	1.305328	-0.278984	0.047728
C86	C	1.805328	0.221016	0.547728
C87	C	1.372508	-0.340648	-0.006208
C88	C	1.872508	0.159352	0.493792
C89	C	1.365069	-0.464342	-0.000225
C90	C	1.865069	0.035658	0.499775
C91	C	1.290448	-0.526364	0.059696
C92	C	1.790448	-0.026364	0.559696
H93	H	1.180974	-0.295353	0.147577
H94	H	1.680974	0.204647	0.647577
H95	H	1.310834	-0.187418	0.043299
H96	H	1.810834	0.312582	0.543299
H97	H	1.427747	-0.294736	-0.050565
H98	H	1.927747	0.205264	0.449435
H99	H	1.414801	-0.509995	-0.040153
H100	H	1.914801	-0.009995	0.459847
H101	H	1.284941	-0.617930	0.064124
H102	H	1.784941	-0.117930	0.564124
H103	H	1.277897	-0.000047	-0.230744
H104	H	1.777897	0.499953	0.269256
C105	C	1.299168	-0.000034	-0.401712
C106	C	1.799168	0.499966	0.098288
C107	C	1.364954	-0.092804	-0.388107
C108	C	1.864954	0.407196	0.111893
C109	C	1.458990	-0.092805	-0.439730
C110	C	1.958990	0.407195	0.060270
C111	C	1.487241	-0.000038	-0.504958
C112	C	1.987241	0.499962	-0.004958
C113	C	1.421454	0.092739	-0.518565
C114	C	1.921454	0.592739	-0.018565
C115	C	1.327417	0.092741	-0.466942
C116	C	1.827417	0.592741	0.033058
H117	H	1.344042	-0.161482	-0.339819
H118	H	1.844042	0.338518	0.160181
H119	H	1.507690	-0.161485	-0.429657
H120	H	2.007690	0.338515	0.070343
H121	H	1.556852	-0.000039	-0.543172
H122	H	2.056852	0.499961	-0.043172
H123	H	1.442365	0.161417	-0.566853
H124	H	1.942365	0.661417	-0.066853
H125	H	1.278717	0.161420	-0.477015
H126	H	1.778717	0.661420	0.022985
C127	C	0.940132	-0.000031	-0.204587
C128	C	1.440132	0.499969	0.295413
C129	C	0.844187	-0.000033	-0.248485
C130	C	1.344187	0.499967	0.251515
C131	C	0.750156	-0.000033	-0.196853
C132	C	1.250156	0.499967	0.303147
C133	C	0.752070	-0.000031	-0.101324
C134	C	1.252070	0.499969	0.398676
C135	C	0.848019	-0.000029	-0.057421
C136	C	1.348019	0.499971	0.442579
C137	C	0.942049	-0.000029	-0.109053
C138	C	1.442049	0.499971	0.390947
H139	H	0.842766	-0.000035	-0.319206
H140	H	1.342766	0.499965	0.180794
H141	H	0.679129	-0.000034	-0.229353
H142	H	1.179129	0.499966	0.270647
H143	H	0.682463	-0.000031	-0.063103
H144	H	1.182463	0.499969	0.436897
H145	H	0.849439	-0.000027	0.013300
H146	H	1.349439	0.499973	0.513300
H147	H	1.013077	-0.000027	-0.076553
H148	H	1.513077	0.499973	0.423447
