data_functionalizedCrystal
_audit_creation_method	'MofGen! by Chris Wilmer'
_symmetry_space_group_name_H-M	'P1'
_symmetry_Int_Tables_number	1
_symmetry_cell_setting	triclinic
loop_
_symmetry_equiv_pos_as_xyz
  x,y,z
_cell_length_a	16.992694
_cell_length_b	16.053942
_cell_length_c	10.654548
_cell_angle_alpha	87.405145
_cell_angle_beta	92.423702
_cell_angle_gamma	87.253706
loop_
_atom_site_label
_atom_site_type_symbol
_atom_site_fract_x
_atom_site_fract_y
_atom_site_fract_z
O1	O	1.038572	0.069311	-0.271379
O2	O	0.810270	0.069336	-0.268458
O3	O	0.929670	0.069326	-0.087633
O4	O	0.919171	0.069320	-0.452204
O5	O	0.936206	-0.069531	-0.077714
O6	O	0.816805	-0.069521	-0.258539
O7	O	1.045107	-0.069546	-0.261460
Zn8	Zn	0.931994	-0.091580	-0.258425
Zn9	Zn	0.923383	0.091370	-0.271493
O10	O	0.925707	-0.069536	-0.442285
C11	C	0.784304	-0.000089	-0.259739
C12	C	0.697199	-0.000080	-0.248520
N13	N	0.937876	-0.216438	-0.249506
C14	C	0.932167	-0.000100	-0.035809
C15	C	0.929861	-0.000092	0.103833
C16	C	0.647547	-0.000082	-0.356771
C17	C	0.565703	-0.000093	-0.346221
C18	C	0.533513	-0.000096	-0.227419
C19	C	0.583172	-0.000097	-0.119160
C20	C	0.665014	-0.000091	-0.129711
C21	C	0.289679	-0.000118	-0.183691
C22	C	0.207830	-0.000121	-0.173148
C23	C	0.190367	-0.000119	-0.400210
C24	C	0.272212	-0.000109	-0.410750
C25	C	0.321863	-0.000113	-0.302491
N26	N	0.449856	-0.000105	-0.216633
N27	N	0.405519	-0.000110	-0.313278
C28	C	1.071073	-0.000119	-0.270180
C29	C	1.158178	-0.000123	-0.281399
C30	C	0.968322	-0.740060	-0.203494
C31	C	0.964189	-0.652655	-0.209747
C32	C	0.909237	-0.608963	-0.292904
C33	C	0.858420	-0.652681	-0.369821
C34	C	0.862557	-0.740085	-0.363574
C35	C	0.891196	-0.347560	-0.320176
C36	C	0.887061	-0.260150	-0.326415
C37	C	0.992832	-0.260130	-0.166342
C38	C	0.996961	-0.347536	-0.160096
C39	C	0.946147	-0.391246	-0.237019
N40	N	0.905009	-0.519621	-0.299294
N41	N	0.950379	-0.480586	-0.230633
N42	N	0.917507	0.216228	-0.280403
C43	C	0.923041	0.075596	0.295248
C44	C	0.925215	0.075599	0.164040
C45	C	0.932341	-0.075790	0.174842
C46	C	0.930172	-0.075792	0.306048
C47	C	0.923210	-0.000105	0.505891
C48	C	0.925518	-0.000097	0.366248
H49	H	0.673749	-0.000079	-0.453511
N50	N	0.932841	-0.157435	0.382641
H51	H	0.980648	-0.160811	0.442626
H52	H	0.936081	-0.205340	0.324514
N53	N	0.827787	-0.213025	-0.416111
H54	H	0.838023	-0.228229	-0.505122
H55	H	0.832905	-0.151038	-0.408279
N56	N	0.836380	-0.394695	-0.403123
H57	H	0.847336	-0.456695	-0.386556
H58	H	0.845194	-0.379415	-0.494273
N59	N	0.136825	-0.000124	-0.516978
H60	H	0.100046	0.051346	-0.521351
H61	H	0.104965	-0.051637	-0.513920
N62	N	0.937350	-0.157424	0.109897
H63	H	0.889983	-0.190511	0.129784
H64	H	0.987106	-0.190458	0.140422
N65	N	0.918046	0.157237	0.360176
H66	H	0.868326	0.190348	0.329673
H67	H	0.965457	0.190240	0.340256
N68	N	0.512153	-0.000190	-0.462969
H69	H	0.544966	-0.000213	-0.539828
H70	H	0.475342	0.051251	-0.467300
N71	N	0.807750	-0.787239	-0.446519
H72	H	0.816542	-0.772028	-0.537703
H73	H	0.751299	-0.772022	-0.427383
N74	N	0.799145	-0.605557	-0.459503
H75	H	0.767582	-0.646514	-0.507278
H76	H	0.827756	-0.569286	-0.520691
H77	H	1.013067	-0.775629	-0.135773
H78	H	0.923199	0.137236	0.106238
N79	N	0.548449	-0.000110	0.008972
H80	H	0.512452	0.051362	0.014738
H81	H	0.592366	-0.000143	0.075878
H82	H	1.005568	-0.617065	-0.147122
H83	H	0.298414	-0.000097	-0.507491
N84	N	0.173108	-0.000119	-0.045007
H85	H	0.216980	-0.000122	0.021975
H86	H	0.141957	-0.051594	-0.032014
H87	H	0.330096	-0.000123	-0.095538
N88	N	0.718571	-0.000095	-0.012956
H89	H	0.685762	-0.000097	0.063906
H90	H	0.750481	0.051381	-0.016059
H91	H	1.034204	-0.224533	-0.103716
N92	N	1.056264	-0.394659	-0.070461
H93	H	1.087841	-0.353704	-0.022706
H94	H	1.092902	-0.430897	-0.119551
