data_functionalizedCrystal
_audit_creation_method	'MofGen! by Chris Wilmer'
_symmetry_space_group_name_H-M	'P1'
_symmetry_Int_Tables_number	1
_symmetry_cell_setting	triclinic
loop_
_symmetry_equiv_pos_as_xyz
  x,y,z
_cell_length_a	16.109301
_cell_length_b	10.540539
_cell_length_c	14.586319
_cell_angle_alpha	89.998343
_cell_angle_beta	89.999213
_cell_angle_gamma	83.993486
loop_
_atom_site_label
_atom_site_type_symbol
_atom_site_fract_x
_atom_site_fract_y
_atom_site_fract_z
O1	O	1.104129	0.163159	-0.076178
O2	O	1.604129	0.663159	0.423822
O3	O	0.862191	0.183464	-0.076192
O4	O	1.362191	0.683464	0.423808
O5	O	0.988679	-0.011474	-0.076184
O6	O	1.488679	0.488526	0.423816
O7	O	0.977640	0.358096	-0.076186
O8	O	1.477640	0.858096	0.423814
O9	O	0.988670	-0.011477	0.076297
O10	O	1.488670	0.488523	0.576297
O11	O	0.862182	0.183461	0.076289
O12	O	1.362182	0.683461	0.576289
O13	O	1.104120	0.163156	0.076303
O14	O	1.604120	0.663156	0.576303
Cu15	Cu	0.983150	0.173308	0.090219
Cu16	Cu	1.483150	0.673308	0.590219
Cu17	Cu	0.983160	0.173312	-0.090108
Cu18	Cu	1.483160	0.673312	0.409892
O19	O	0.977631	0.358094	0.076294
O20	O	1.477631	0.858094	0.576294
C21	C	0.831206	0.182640	0.000047
C22	C	1.331206	0.682640	0.500047
C23	C	0.738896	0.180174	0.000041
C24	C	1.238896	0.680174	0.500041
C25	C	0.517296	0.290112	0.000051
C26	C	1.017296	0.790112	0.500051
C27	C	0.430561	0.287785	0.000057
C28	C	0.930561	0.787785	0.500057
C29	C	0.449021	0.056499	0.000055
C30	C	0.949021	0.556499	0.500055
C31	C	0.535754	0.058827	0.000055
C32	C	1.035754	0.558827	0.500055
C33	C	0.569889	0.175637	0.000049
C34	C	1.069889	0.675637	0.500049
C35	C	0.396421	0.170982	0.000054
C36	C	0.896421	0.670982	0.500054
C37	C	0.302380	0.168459	0.000060
C38	C	0.802380	0.668459	0.500060
C39	C	0.663936	0.178162	0.000044
C40	C	1.163936	0.678162	0.500044
C41	C	0.987847	-0.058767	0.000055
C42	C	1.487847	0.441233	0.500055
C43	C	0.985370	-0.199679	0.000050
C44	C	1.485370	0.300321	0.500050
C45	C	0.890460	-0.381753	-0.000298
C46	C	1.390460	0.118247	0.499702
C47	C	0.892971	-0.235171	0.000046
C48	C	1.392971	0.264829	0.500046
C49	C	1.029832	-0.261973	0.087127
C50	C	1.529832	0.238027	0.587127
C51	C	1.026678	-0.408472	0.087200
C52	C	1.526678	0.091528	0.587200
C53	C	1.028567	-0.409014	-0.086199
C54	C	1.528567	0.090986	0.413801
C55	C	1.029419	-0.262044	-0.087350
C56	C	1.529419	0.237956	0.412650
C57	C	1.135104	0.163980	0.000062
C58	C	1.635104	0.663980	0.500062
C59	C	1.227414	0.166446	0.000062
C60	C	1.727414	0.666446	0.500062
C61	C	0.978463	0.405386	0.000054
C62	C	1.478463	0.905386	0.500054
C63	C	0.980940	0.546299	0.000053
C64	C	1.480940	1.046299	0.500053
N65	N	0.983149	0.173305	0.217050
N66	N	1.483149	0.673305	0.717050
N67	N	0.983168	0.173305	-0.216939
N68	N	1.483168	0.673305	0.283061
C69	C	1.039177	0.087015	0.452060
C70	C	1.539177	0.587015	0.952060
C71	C	1.039179	0.087012	0.548042
C72	C	1.539179	0.587012	1.048042
C73	C	0.927134	0.259598	0.548044
C74	C	1.427134	0.759598	1.048044
C75	C	0.927129	0.259594	0.452064
C76	C	1.427129	0.759594	0.952064
C77	C	0.983154	0.173304	0.404075
C78	C	1.483154	0.673304	0.904075
C79	C	0.983163	0.173305	0.596036
C80	C	1.483163	0.673305	1.096036
C81	C	0.983165	0.173303	0.700103
C82	C	1.483165	0.673303	1.200103
C83	C	0.983151	0.173305	0.300001
C84	C	1.483151	0.673305	0.800001
H85	H	0.578578	-0.034398	0.000056
H86	H	1.078578	0.465602	0.500056
O87	O	0.846615	-0.178056	-0.082622
O88	O	1.346615	0.321944	0.417378
H89	H	0.822195	-0.255124	-0.123205
H90	H	1.322195	0.244876	0.376795
O91	O	0.373832	0.411253	0.000061
O92	O	0.873832	0.911253	0.500061
H93	H	0.386045	0.467152	-0.062091
H94	H	0.886045	0.967152	0.437909
H95	H	0.545085	0.385227	0.000052
H96	H	1.045085	0.885227	0.500052
O97	O	1.099581	-0.006089	0.400304
O98	O	1.599581	0.493911	0.900304
H99	H	1.090166	0.008399	0.325501
H100	H	1.590166	0.508399	0.825501
O101	O	0.412206	-0.069488	0.000055
O102	O	0.912206	0.430512	0.500055
H103	H	0.343059	-0.051877	0.000047
H104	H	0.843059	0.448123	0.500047
H105	H	0.853964	-0.409832	-0.062742
H106	H	1.353964	0.090168	0.437258
O107	O	0.866694	0.352654	0.400296
O108	O	1.366694	0.852654	0.900296
H109	H	0.902049	0.414352	0.356549
H110	H	1.402049	0.914352	0.856549
O111	O	0.842299	-0.421052	0.081953
O112	O	1.342299	0.078948	0.581953
H113	H	0.882525	-0.491603	0.123083
H114	H	1.382525	0.008397	0.623083
H115	H	0.857734	-0.192914	0.062566
H116	H	1.357734	0.307086	0.562566
O117	O	0.983135	-0.445222	0.173407
O118	O	1.483135	0.054778	0.673407
H119	H	0.964521	-0.358396	0.214649
H120	H	1.464521	0.141604	0.714649
O121	O	1.114695	-0.473283	0.092460
O122	O	1.614695	0.026717	0.592460
H123	H	1.159320	-0.399945	0.094947
H124	H	1.659320	0.100055	0.594947
H125	H	1.097687	-0.240586	0.090368
H126	H	1.597687	0.259414	0.590368
H127	H	0.998939	-0.218934	0.151923
H128	H	1.498939	0.281066	0.651923
O129	O	0.988962	-0.450225	-0.173627
O130	O	1.488962	0.049775	0.326373
H131	H	0.934883	-0.503024	-0.156576
H132	H	1.434883	-0.003024	0.343424
H133	H	0.996887	-0.220721	-0.151767
H134	H	1.496887	0.279279	0.348233
H135	H	1.096785	-0.238783	-0.092605
H136	H	1.596785	0.261217	0.407395
H137	H	1.095307	-0.457191	-0.086781
H138	H	1.595307	0.042809	0.413219
O139	O	1.099613	-0.006040	0.599801
O140	O	1.599613	0.493960	1.099801
H141	H	1.138574	-0.066028	0.550303
H142	H	1.638574	0.433972	1.050303
O143	O	0.866717	0.352681	0.599802
O144	O	1.366717	0.852681	1.099802
H145	H	0.876139	0.338200	0.674605
H146	H	1.376139	0.838200	1.174605
