data_functionalizedCrystal
_audit_creation_method	'MofGen! by Chris Wilmer'
_symmetry_space_group_name_H-M	'P1'
_symmetry_Int_Tables_number	1
_symmetry_cell_setting	triclinic
loop_
_symmetry_equiv_pos_as_xyz
  x,y,z
_cell_length_a	12.811457
_cell_length_b	15.995292
_cell_length_c	11.295483
_cell_angle_alpha	94.097347
_cell_angle_beta	91.289320
_cell_angle_gamma	83.757111
loop_
_atom_site_label
_atom_site_type_symbol
_atom_site_fract_x
_atom_site_fract_y
_atom_site_fract_z
O1	O	1.388988	0.115662	0.050985
O2	O	1.085743	0.126071	0.018235
O3	O	1.245687	-0.000944	0.035507
O4	O	1.229044	0.242678	0.033713
O5	O	1.231638	0.010194	0.232040
O6	O	1.071695	0.137210	0.214769
O7	O	1.374940	0.126801	0.247518
Cu8	Cu	1.222035	0.133022	0.249089
Cu9	Cu	1.238648	0.119850	0.016665
O10	O	1.214996	0.253816	0.230247
C11	C	1.039915	0.130716	0.112311
C12	C	0.924290	0.127951	0.099823
C13	C	0.691704	0.134884	0.290643
C14	C	0.583064	0.132286	0.278916
C15	C	0.598370	0.120151	0.064643
C16	C	0.707010	0.122749	0.076370
C17	C	0.753672	0.130117	0.189374
C18	C	0.862313	0.132721	0.201100
C19	C	0.877618	0.120580	-0.013172
C20	C	0.768978	0.117982	-0.024899
C21	C	1.237985	-0.026577	0.133697
C22	C	1.235955	-0.119550	0.133469
C23	C	1.228489	-0.457360	0.132674
C24	C	1.343901	-0.432911	0.145580
C25	C	1.346127	-0.336240	0.145370
C26	C	1.232194	-0.289769	0.133069
C27	C	1.182500	-0.325786	0.014609
C28	C	1.181117	-0.422595	0.014369
C29	C	1.162784	-0.409808	0.237611
C30	C	1.166956	-0.313190	0.239551
C31	C	1.234282	-0.195053	0.133288
C32	C	1.226399	-0.552076	0.132447
C33	C	1.420768	0.122156	0.153440
C34	C	1.536393	0.124921	0.165920
C35	C	1.222698	0.279449	0.132053
C36	C	1.224728	0.372422	0.132274
N37	N	1.210357	0.142287	0.412564
N38	N	1.250334	0.110579	-0.146810
C39	C	1.334395	0.043841	0.675248
C40	C	1.325578	0.050848	0.798959
C41	C	1.183900	0.163304	0.783700
C42	C	1.192718	0.156297	0.659989
C43	C	1.267969	0.096564	0.605767
C44	C	1.276791	0.089561	0.482054
C45	C	1.135109	0.202013	0.466797
C46	C	1.126291	0.209021	0.590508
H47	H	0.730971	0.111979	-0.116903
N48	N	1.413984	-0.317321	0.045129
H49	H	1.442559	-0.371819	0.000901
H50	H	1.370558	-0.280754	-0.011005
N51	N	0.548035	0.112186	-0.057230
H52	H	0.469811	0.111258	-0.049287
H53	H	0.561898	0.161781	-0.102886
H54	H	1.395674	-0.004791	0.631101
N55	N	0.944453	0.115446	-0.122408
H56	H	1.020357	0.118213	-0.097836
H57	H	0.937268	0.060550	-0.170339
H58	H	1.338066	0.040926	0.437909
H59	H	1.379668	0.007914	0.855528
N60	N	1.045132	0.273439	0.649003
H61	H	1.081266	0.313818	0.704621
H62	H	1.004411	0.305717	0.586142
N63	N	1.410093	-0.476774	0.045890
H64	H	1.484103	-0.460725	0.054843
H65	H	1.411144	-0.539818	0.048845
H66	H	0.729695	0.140894	0.382655
N67	N	1.102731	0.227716	0.842191
H68	H	1.107224	0.224148	0.931104
H69	H	1.116280	0.286017	0.821876
N70	N	1.063463	0.258890	0.391858
H71	H	1.080468	0.245392	0.305259
H72	H	0.988036	0.249704	0.405516
N73	N	1.242022	-0.463911	-0.091024
H74	H	1.241738	-0.527084	-0.092232
H75	H	1.208294	-0.442906	-0.166542
N76	N	0.912651	0.140662	0.322974
H77	H	0.948926	0.193803	0.331711
H78	H	0.856852	0.143247	0.385275
N79	N	0.516227	0.137423	0.388142
H80	H	0.562370	0.141910	0.461510
H81	H	0.462822	0.188721	0.387442
H82	H	1.096836	-0.438248	0.000146
H83	H	1.098958	-0.294961	0.001385
H84	H	1.385578	-0.312220	0.230699
N85	N	1.395230	-0.463377	0.258557
H86	H	1.344174	-0.493327	0.302471
H87	H	1.459756	-0.503555	0.238453
N88	N	1.202638	-0.440379	0.355463
H89	H	1.159393	-0.409041	0.421544
H90	H	1.196648	-0.502772	0.356303
H91	H	1.228549	-0.310073	-0.064583
N92	N	1.214750	-0.281827	0.355545
H93	H	1.278394	-0.252566	0.339199
H94	H	1.161362	-0.240849	0.399954
H95	H	1.083312	-0.280637	0.237351
N96	N	1.050153	-0.429361	0.226468
H97	H	1.041681	-0.468821	0.153839
H98	H	1.030934	-0.456943	0.299472
