data_functionalizedCrystal
_audit_creation_method	'MofGen! by Chris Wilmer'
_symmetry_space_group_name_H-M	'P1'
_symmetry_Int_Tables_number	1
_symmetry_cell_setting	triclinic
loop_
_symmetry_equiv_pos_as_xyz
  x,y,z
_cell_length_a	10.723024
_cell_length_b	27.732048
_cell_length_c	9.198806
_cell_angle_alpha	89.991879
_cell_angle_beta	89.996352
_cell_angle_gamma	83.555262
loop_
_atom_site_label
_atom_site_type_symbol
_atom_site_fract_x
_atom_site_fract_y
_atom_site_fract_z
O1	O	1.654382	0.067789	-0.120901
O2	O	1.290961	0.074278	-0.120907
O3	O	1.483959	0.000707	-0.120876
O4	O	1.461385	0.141360	-0.120932
O5	O	1.483944	0.000707	0.120909
O6	O	1.290946	0.074278	0.120878
O7	O	1.654367	0.067789	0.120884
Cu8	Cu	1.472655	0.071033	0.142958
Cu9	Cu	1.472673	0.071033	-0.142981
O10	O	1.461370	0.141360	0.120853
C11	C	1.244474	0.073806	-0.000015
C12	C	1.105978	0.072393	-0.000017
C13	C	1.483478	-0.017303	0.000020
C14	C	1.482051	-0.070967	0.000032
C15	C	1.029292	0.113559	-0.000034
C16	C	0.886149	0.112100	-0.000035
C17	C	1.587117	-0.409130	-0.000040
C18	C	1.581823	-0.610822	-0.000061
O19	O	1.677898	-0.641481	-0.000123
N20	N	1.467383	-0.630656	-0.000061
C21	C	1.354259	-0.600064	-0.000067
O22	O	1.256800	-0.621562	-0.000083
C23	C	1.359554	-0.398373	-0.000057
C24	C	1.474001	-0.378541	-0.000041
C25	C	1.701554	-0.389298	-0.000026
C26	C	1.702877	-0.338877	-0.000013
C27	C	1.589761	-0.308289	-0.000014
C28	C	1.475324	-0.328121	-0.000028
C29	C	1.246432	-0.367781	-0.000072
C30	C	1.247766	-0.317356	-0.000073
C31	C	1.362213	-0.297524	-0.000058
C32	C	1.363531	-0.247113	-0.000016
N33	N	1.477970	-0.227278	-0.000015
C34	C	1.591085	-0.257867	-0.000014
C35	C	1.351487	-0.705956	-0.000069
C36	C	1.350163	-0.756378	-0.000069
C37	C	1.577727	-0.767133	-0.000066
C38	C	1.579050	-0.716709	-0.000055
C39	C	1.465926	-0.686121	-0.000068
C40	C	1.593854	-0.151980	0.000014
C41	C	1.595166	-0.101555	0.000033
C42	C	1.367603	-0.090805	0.000022
C43	C	1.366290	-0.141226	0.000011
C44	C	1.479425	-0.171813	0.000002
O45	O	1.267507	-0.216425	0.000030
O46	O	1.688531	-0.236359	-0.000031
C47	C	1.585794	-0.459550	-0.000053
C48	C	1.471357	-0.479382	-0.000067
C49	C	1.358241	-0.448793	-0.000068
C50	C	1.470033	-0.529804	-0.000067
C51	C	1.583148	-0.560392	-0.000066
C52	C	1.697587	-0.540558	-0.000066
C53	C	1.698910	-0.490138	-0.000053
C54	C	1.243802	-0.468628	-0.000069
C55	C	1.242489	-0.519048	-0.000080
C56	C	1.355604	-0.549637	-0.000079
C57	C	1.700855	0.068261	-0.000011
C58	C	1.839351	0.069674	-0.000019
C59	C	1.461851	0.159370	-0.000047
C60	C	1.463278	0.213034	-0.000068
N61	N	1.472652	0.071033	0.344072
N62	N	1.472687	0.071030	-0.344095
C63	C	1.553692	0.040006	0.416282
C64	C	1.553711	0.040005	0.583694
H65	H	1.069611	0.149884	-0.000040
C66	C	1.647405	0.004121	0.332387
H67	H	1.698245	-0.015348	0.399400
H68	H	1.699090	0.021649	0.272986
H69	H	1.602687	-0.016086	0.273033
C70	C	1.051530	0.023319	0.000003
H71	H	1.118204	-0.002320	0.000024
H72	H	1.001407	0.020998	-0.084309
H73	H	1.001404	0.020999	0.084333
C74	C	1.721062	-0.079743	0.000042
H75	H	1.788237	-0.105185	0.000024
H76	H	1.726311	-0.060303	0.084360
H77	H	1.726313	-0.060293	-0.084282
C78	C	1.120538	-0.389585	-0.000102
H79	H	1.053372	-0.364140	-0.000121
H80	H	1.115263	-0.409037	0.084206
H81	H	1.115299	-0.409024	-0.084436
C82	C	0.797150	0.159712	-0.000062
H83	H	0.845080	0.186518	-0.000083
H84	H	0.745725	0.160999	0.084248
H85	H	0.745749	0.160996	-0.084394
H86	H	1.669830	-0.792046	-0.000064
C87	C	1.822014	-0.574209	-0.000067
H88	H	1.890370	-0.555181	-0.000052
H89	H	1.826222	-0.594097	-0.084386
H90	H	1.826216	-0.594108	0.084256
H91	H	1.623097	0.013443	0.645792
C92	C	1.828766	-0.317067	-0.000005
H93	H	1.813371	-0.282656	0.000010
H94	H	1.875302	-0.327539	-0.084319
H95	H	1.875287	-0.327548	0.084323
C96	C	1.718300	-0.185618	0.000017
H97	H	1.786635	-0.166580	0.000040
H98	H	1.722537	-0.205508	-0.084299
H99	H	1.722509	-0.205515	0.084343
H100	H	1.403280	0.097593	0.406189
C101	C	1.825993	-0.422938	-0.000014
H102	H	1.894326	-0.403898	0.000006
H103	H	1.830234	-0.442831	-0.084323
H104	H	1.830202	-0.442831	0.084319
C105	C	1.704939	-0.694899	-0.000052
H106	H	1.772111	-0.720342	-0.000059
H107	H	1.710188	-0.675455	0.084260
H108	H	1.710196	-0.675451	-0.084382
H109	H	1.792104	-0.473996	-0.000040
H110	H	1.403306	0.097596	0.593817
H111	H	1.256969	-0.772520	-0.000056
C112	C	1.123327	-0.283712	-0.000082
H113	H	1.054985	-0.302748	-0.000081
H114	H	1.119116	-0.263812	-0.084392
H115	H	1.119101	-0.263825	0.084250
C116	C	1.227043	-0.672315	-0.000063
H117	H	1.158707	-0.691353	-0.000048
H118	H	1.222816	-0.652415	-0.084375
H119	H	1.222824	-0.652428	0.084268
H120	H	1.149285	-0.535190	-0.000080
H121	H	0.905234	0.034430	-0.000013
H122	H	1.273098	-0.157373	0.000039
C123	C	1.243182	-0.057154	0.000012
H124	H	1.174828	-0.076184	0.000010
H125	H	1.238990	-0.037257	-0.084303
H126	H	1.238961	-0.037265	0.084339
H127	H	1.151687	-0.443727	-0.000073
