data_functionalizedCrystal
_audit_creation_method	'MofGen! by Chris Wilmer'
_symmetry_space_group_name_H-M	'P1'
_symmetry_Int_Tables_number	1
_symmetry_cell_setting	triclinic
loop_
_symmetry_equiv_pos_as_xyz
  x,y,z
_cell_length_a	14.586319
_cell_length_b	19.288864
_cell_length_c	16.109296
_cell_angle_alpha	83.297911
_cell_angle_beta	90.002940
_cell_angle_gamma	89.982652
loop_
_atom_site_label
_atom_site_type_symbol
_atom_site_fract_x
_atom_site_fract_y
_atom_site_fract_z
O1	O	0.076521	-0.921594	-0.103714
O2	O	0.576521	-0.421594	0.396286
O3	O	0.076456	-0.719366	-0.117705
O4	O	0.576456	-0.219366	0.382295
O5	O	0.076500	-0.826037	0.010341
O6	O	0.576500	-0.326037	0.510341
O7	O	0.076477	-0.814923	-0.231760
O8	O	0.576477	-0.314923	0.268240
O9	O	-0.075981	-0.826029	0.010343
O10	O	0.424019	-0.326029	0.510343
O11	O	-0.076024	-0.719359	-0.117703
O12	O	0.423976	-0.219359	0.382297
O13	O	-0.075960	-0.921586	-0.103712
O14	O	0.424040	-0.421586	0.396288
Cu15	Cu	-0.089915	-0.820472	-0.110707
Cu16	Cu	0.410085	-0.320472	0.389293
Cu17	Cu	0.090411	-0.820481	-0.110710
Cu18	Cu	0.590411	-0.320481	0.389290
O19	O	-0.076003	-0.814915	-0.231758
O20	O	0.423997	-0.314915	0.268242
C21	C	0.000208	-0.693485	-0.117254
C22	C	0.500208	-0.193485	0.382746
C23	C	0.000184	-0.616378	-0.115902
C24	C	0.500184	-0.116378	0.384098
N25	N	-0.216747	-0.820471	-0.110705
N26	N	0.283253	-0.320471	0.389295
C27	C	0.000264	-0.825584	0.041315
C28	C	0.500264	-0.325584	0.541315
C29	C	0.000277	-0.824236	0.133606
C30	C	0.500277	-0.324236	0.633606
C31	C	-0.451734	-0.867720	-0.054026
C32	C	0.048266	-0.367720	0.445974
C33	C	-0.547715	-0.867722	-0.054024
C34	C	-0.047715	-0.367722	0.445976
C35	C	-0.547763	-0.773233	-0.167388
C36	C	-0.047763	-0.273233	0.332612
C37	C	-0.451783	-0.773228	-0.167385
C38	C	0.048217	-0.273228	0.332615
C39	C	-0.403771	-0.820475	-0.110705
C40	C	0.096229	-0.320475	0.389295
C41	C	-0.595732	-0.820482	-0.110705
C42	C	-0.095732	-0.320482	0.389295
C43	C	-0.699799	-0.820484	-0.110704
C44	C	-0.199799	-0.320484	0.389296
C45	C	-0.299698	-0.820473	-0.110705
C46	C	0.200302	-0.320473	0.389295
N47	N	0.217243	-0.820487	-0.110705
N48	N	0.717243	-0.320487	0.389295
C49	C	0.000291	-0.947467	-0.104163
C50	C	0.500291	-0.447467	0.395837
C51	C	0.000320	-1.024574	-0.105515
C52	C	0.500320	-0.524574	0.394485
C53	C	0.000192	-0.571860	-0.191034
C54	C	0.500192	-0.071860	0.308966
C55	C	0.000202	-0.499410	-0.189764
C56	C	0.500202	0.000590	0.310236
C57	C	0.000223	-0.471481	-0.113359
C58	C	0.500223	0.028519	0.386641
C59	C	0.000211	-0.516009	-0.038218
C60	C	0.500211	-0.016009	0.461782
C61	C	0.000191	-0.588457	-0.039489
C62	C	0.500191	-0.088457	0.460511
C63	C	0.053680	-0.363079	-0.053297
C64	C	0.553680	0.136921	0.446703
C65	C	0.053705	-0.290632	-0.052028
C66	C	0.553705	0.209368	0.447972
C67	C	0.000279	-0.248026	-0.109433
C68	C	0.500279	0.251974	0.390567
C69	C	-0.053161	-0.277876	-0.168122
C70	C	0.446839	0.222124	0.331878
C71	C	-0.053180	-0.350324	-0.169393
C72	C	0.446820	0.149676	0.330607
C73	C	0.000244	-0.392924	-0.111972
C74	C	0.500244	0.107076	0.388028
C75	C	0.000296	-0.124949	-0.183193
C76	C	0.500296	0.375051	0.316807
C77	C	0.000301	-0.052498	-0.181921
C78	C	0.500301	0.447502	0.318079
C79	C	0.000319	-0.069099	-0.030372
C80	C	0.500319	0.430901	0.469628
C81	C	0.000305	-0.141548	-0.031647
C82	C	0.500305	0.358452	0.468353
C83	C	0.000298	-0.169469	-0.108060
C84	C	0.500298	0.330531	0.391940
C85	C	0.083381	-0.819840	0.432659
C86	C	0.583381	-0.319840	0.932659
C87	C	0.083386	-0.821116	0.345943
C88	C	0.583386	-0.321116	0.845943
C89	C	-0.082857	-0.821118	0.345931
C90	C	0.417143	-0.321118	0.845931
C91	C	-0.082861	-0.819847	0.432646
C92	C	0.417139	-0.319847	0.932646
C93	C	0.000261	-0.819205	0.476007
C94	C	0.500261	-0.319205	0.976007
C95	C	0.000269	-0.821752	0.302577
C96	C	0.500269	-0.321752	0.802577
C97	C	0.000274	-0.823136	0.208556
C98	C	0.500274	-0.323136	0.708556
C99	C	0.000257	-0.817822	0.570034
C100	C	0.500257	-0.317822	1.070034
C101	C	0.000241	-0.815370	0.737268
C102	C	0.500241	-0.315370	1.237268
C103	C	0.000254	-0.816721	0.644978
C104	C	0.500254	-0.316721	1.144978
H105	H	-0.412644	-0.906191	-0.007872
H106	H	0.087356	-0.406191	0.492128
F107	F	-0.171316	-0.821799	0.299775
F108	F	0.328684	-0.321799	0.799775
F109	F	-0.171333	-0.819174	0.478783
F110	F	0.328667	-0.319174	0.978783
H111	H	-0.586864	-0.734766	-0.213536
H112	H	-0.086864	-0.234766	0.286464
H113	H	-0.586763	-0.906192	-0.007869
H114	H	-0.086763	-0.406192	0.492131
F115	F	0.000229	-0.486284	0.043098
F116	F	0.500229	0.013716	0.543098
F117	F	0.171854	-0.821795	0.299813
F118	F	0.671854	-0.321795	0.799813
F119	F	-0.400734	-0.722939	-0.227711
F120	F	0.099266	-0.222939	0.272289
F121	F	0.000181	-0.601571	-0.272360
F122	F	0.500181	-0.101571	0.227640
F123	F	0.000207	-0.452022	-0.269733
F124	F	0.500207	0.047978	0.230267
H125	H	-0.096696	-0.374625	-0.217177
H126	H	0.403304	0.125375	0.282823
F127	F	0.110547	-0.408417	0.007807
F128	F	0.610547	0.091583	0.507807
F129	F	-0.110025	-0.232537	-0.229222
F130	F	0.389975	0.267463	0.270778
F131	F	0.000282	-0.154667	-0.264518
F132	F	0.500282	0.345333	0.235482
F133	F	0.000302	-0.188929	0.048320
F134	F	0.500302	0.311071	0.548320
F135	F	0.110588	-0.258870	0.010426
F136	F	0.610588	0.241130	0.510426
H137	H	0.000301	-0.016251	-0.243104
H138	H	0.500301	0.483749	0.256896
H139	H	0.000393	-0.046360	0.031839
H140	H	0.500393	0.453640	0.531839
H141	H	0.151064	-0.819316	0.467961
H142	H	0.651064	-0.319316	0.967961
F143	F	0.000183	-0.635839	0.040479
F144	F	0.500183	-0.135839	0.540479
