data_functionalizedCrystal
_audit_creation_method	'MofGen! by Chris Wilmer'
_symmetry_space_group_name_H-M	'P1'
_symmetry_Int_Tables_number	1
_symmetry_cell_setting	triclinic
loop_
_symmetry_equiv_pos_as_xyz
  x,y,z
_cell_length_a	18.050590
_cell_length_b	18.050590
_cell_length_c	11.169417
_cell_angle_alpha	89.988529
_cell_angle_beta	90.013256
_cell_angle_gamma	90.007719
loop_
_atom_site_label
_atom_site_type_symbol
_atom_site_fract_x
_atom_site_fract_y
_atom_site_fract_z
Zn1	Zn	-0.295995	1.135264	0.678100
Zn2	Zn	-0.420157	1.135219	0.477397
Zn3	Zn	-0.295962	1.011106	0.477478
Zn4	Zn	-0.420124	1.011052	0.678085
O5	O	-0.358059	1.073160	0.577765
O6	O	-0.312493	1.239183	0.651449
O7	O	-0.403681	1.118759	0.309458
O8	O	-0.192041	1.027618	0.504131
O9	O	-0.403714	1.239149	0.503993
O10	O	-0.192066	1.118836	0.651527
O11	O	-0.312436	1.027574	0.309517
O12	O	-0.312404	0.907175	0.504116
O13	O	-0.403659	1.027525	0.846037
O14	O	-0.403626	0.907135	0.651502
O15	O	-0.312462	1.118783	0.846048
O16	O	-0.524077	1.118706	0.503979
O17	O	-0.524053	1.027481	0.651424
C18	C	-0.358009	0.880208	0.577817
C19	C	-0.358005	0.797662	0.577867
C20	C	-0.407753	0.598212	0.657825
C21	C	-0.340042	0.548804	0.687361
C22	C	-0.358046	0.646532	0.577809
C23	C	-0.425797	0.548858	0.548272
C24	C	-0.358092	0.500547	0.577754
C25	C	-0.290299	0.598211	0.607401
C26	C	-0.376100	0.598270	0.468262
C27	C	-0.308341	0.548885	0.497756
C28	C	-0.358021	0.730630	0.577843
C29	C	-0.358110	0.416450	0.577720
C30	C	-0.551012	1.073103	0.577717
C31	C	-0.633557	1.073147	0.577737
C32	C	-0.832994	1.122858	0.497668
C33	C	-0.882348	1.140981	0.607198
C34	C	-0.784688	1.073189	0.577785
C35	C	-0.882415	1.055142	0.468304
C36	C	-0.930673	1.073231	0.577821
C37	C	-0.832954	1.091346	0.687372
C38	C	-0.833018	1.005476	0.548404
C39	C	-0.882349	1.023573	0.658010
C40	C	-0.700589	1.073167	0.577762
C41	C	-1.014769	1.073253	0.577856
C42	C	-0.164354	1.073238	0.577839
C43	C	-0.081808	1.073271	0.577871
C44	C	-0.358061	1.073153	0.890807
C45	C	-0.358061	1.073150	1.024207
C46	C	-0.358111	1.266866	0.577714
C47	C	-0.358133	1.349412	0.577692
C48	C	-0.358072	1.073159	1.265940
C49	C	-0.358062	1.073152	1.132540
H50	H	-0.324787	0.527076	0.779979
C51	C	-0.464443	0.627480	0.749332
C52	C	-0.456178	0.607929	0.882876
C53	C	-0.512862	0.637199	0.974385
C54	C	-0.577812	0.686021	0.932350
C55	C	-0.586080	0.705575	0.798800
C56	C	-0.529395	0.676305	0.707291
H57	H	-0.408095	0.571786	0.913999
H58	H	-0.506741	0.622724	1.073248
H59	H	-0.619773	0.707689	1.000090
H60	H	-0.634162	0.741718	0.767677
H61	H	-0.535516	0.690780	0.608428
H62	H	-0.483073	0.527175	0.523316
H63	H	-0.811320	1.106571	0.780053
C64	C	-0.911764	1.034490	0.343210
C65	C	-0.960590	0.965250	0.326981
C66	C	-0.989936	0.944605	0.201884
C67	C	-0.970457	0.993201	0.093017
C68	C	-0.921629	1.062445	0.109242
C69	C	-0.892283	1.083090	0.234339
H70	H	-0.975012	0.929272	0.407574
H71	H	-1.026082	0.893345	0.189873
H72	H	-0.992181	0.977918	0.000413
H73	H	-0.907207	1.098423	0.028649
H74	H	-0.856137	1.134350	0.246349
H75	H	-0.266277	0.527362	0.430066
C76	C	-0.212897	0.627368	0.641261
C77	C	-0.198577	0.711380	0.647591
C78	C	-0.121177	0.740538	0.681448
C79	C	-0.058097	0.685685	0.708975
C80	C	-0.072415	0.601668	0.702646
C81	C	-0.149815	0.572510	0.668789
H82	H	-0.245274	0.751990	0.627213
H83	H	-0.110578	0.802733	0.686133
H84	H	-0.000801	0.707270	0.734038
H85	H	-0.025718	0.561058	0.723024
H86	H	-0.160414	0.510315	0.664104
C87	C	-0.396734	0.627653	0.343179
C88	C	-0.414295	0.572987	0.241216
C89	C	-0.434939	0.602371	0.116133
C90	C	-0.438022	0.686421	0.093013
C91	C	-0.420460	0.741092	0.194979
C92	C	-0.399816	0.711708	0.320062
H93	H	-0.412014	0.510763	0.258328
H94	H	-0.447940	0.561899	0.040651
H95	H	-0.453304	0.708173	0.000419
H96	H	-0.422742	0.803315	0.177867
H97	H	-0.386815	0.752180	0.395544
C98	C	-0.803708	1.179616	0.406236
C99	C	-0.719676	1.189544	0.388680
C100	C	-0.690388	1.246303	0.297256
C101	C	-0.745133	1.293135	0.223388
C102	C	-0.829171	1.283209	0.240942
C103	C	-0.858458	1.226449	0.332366
H104	H	-0.679146	1.154875	0.443363
H105	H	-0.628178	1.253651	0.284262
H106	H	-0.723453	1.335152	0.155711
H107	H	-0.869701	1.317878	0.186259
H108	H	-0.920668	1.219102	0.345360
C109	C	-0.911625	1.218361	0.640809
C110	C	-0.892139	1.285804	0.562448
C111	C	-0.921411	1.363186	0.596052
C112	C	-0.970169	1.373126	0.708017
C113	C	-0.989658	1.305681	0.786385
C114	C	-0.960386	1.228299	0.752781
H115	H	-0.856043	1.278448	0.479558
H116	H	-0.906984	1.413113	0.538038
H117	H	-0.991838	1.430409	0.732892
H118	H	-1.025754	1.313037	0.869274
H119	H	-0.974813	1.178372	0.810795
C120	C	-0.911449	0.966853	0.749656
C121	C	-0.891732	0.975144	0.883128
C122	C	-0.920834	0.918429	0.974778
C123	C	-0.969653	0.853422	0.932956
C124	C	-0.989373	0.845128	0.799477
C125	C	-0.960271	0.901844	0.707828
H126	H	-0.855591	1.023268	0.914093
H127	H	-0.906236	0.924569	1.073587
H128	H	-0.991196	0.811438	1.000800
H129	H	-1.025514	0.797004	0.768512
H130	H	-0.974869	0.895704	0.609018
H131	H	-0.811332	0.948211	0.523498
