data_functionalizedCrystal
_audit_creation_method	'MofGen! by Chris Wilmer'
_symmetry_space_group_name_H-M	'P1'
_symmetry_Int_Tables_number	1
_symmetry_cell_setting	triclinic
loop_
_symmetry_equiv_pos_as_xyz
  x,y,z
_cell_length_a	15.297475
_cell_length_b	19.120786
_cell_length_c	15.296720
_cell_angle_alpha	96.814151
_cell_angle_beta	91.617114
_cell_angle_gamma	82.327649
loop_
_atom_site_label
_atom_site_type_symbol
_atom_site_fract_x
_atom_site_fract_y
_atom_site_fract_z
Zn1	Zn	1.229665	-0.538911	-0.692920
Zn2	Zn	1.729665	-0.038911	-0.192920
Zn3	Zn	1.250536	-0.638619	-0.540205
Zn4	Zn	1.750536	-0.138619	-0.040205
Zn5	Zn	1.110256	-0.500011	-0.523592
Zn6	Zn	1.610256	-0.000011	-0.023592
Zn7	Zn	1.079062	-0.631812	-0.661759
Zn8	Zn	1.579062	-0.131812	-0.161759
O9	O	1.167379	-0.577338	-0.604619
O10	O	1.667379	-0.077338	-0.104619
O11	O	1.354169	-0.571266	-0.692656
O12	O	1.854169	-0.071266	-0.192656
O13	O	1.253717	-0.606801	-0.416266
O14	O	1.753717	-0.106801	0.083734
O15	O	1.130416	-0.408284	-0.552142
O16	O	1.630416	0.091716	-0.052142
O17	O	1.369502	-0.644521	-0.580457
O18	O	1.869502	-0.144521	-0.080457
O19	O	1.218145	-0.436864	-0.676547
O20	O	1.718145	0.063136	-0.176547
O21	O	1.150654	-0.504966	-0.404060
O22	O	1.650654	-0.004966	0.095940
O23	O	0.984382	-0.498366	-0.521926
O24	O	1.484382	0.001634	-0.021926
O25	O	1.077250	-0.632920	-0.787627
O26	O	1.577250	-0.132920	-0.287627
O27	O	0.961464	-0.595200	-0.623437
O28	O	1.461464	-0.095200	-0.123437
O29	O	1.187897	-0.564666	-0.810522
O30	O	1.687897	-0.064666	-0.310522
O31	O	1.223469	-0.734603	-0.550240
O32	O	1.723469	-0.234603	-0.050240
O33	O	1.097488	-0.729602	-0.639546
O34	O	1.597488	-0.229602	-0.139546
C35	C	0.941358	-0.541824	-0.567498
C36	C	1.441358	-0.041824	-0.067498
C37	C	0.844661	-0.526650	-0.551637
C38	C	1.344661	-0.026650	-0.051637
C39	C	0.524506	-0.685796	-0.717981
C40	C	1.024506	-0.185796	-0.217981
C41	C	0.615358	-0.700057	-0.732881
C42	C	1.115358	-0.200057	-0.232881
C43	C	0.672688	-0.656707	-0.687571
C44	C	1.172688	-0.156707	-0.187571
C45	C	0.639157	-0.599092	-0.627359
C46	C	1.139157	-0.099092	-0.127359
C47	C	0.548297	-0.584832	-0.612453
C48	C	1.048297	-0.084832	-0.112453
C49	C	0.696479	-0.555743	-0.582043
C50	C	1.196479	-0.055743	-0.082043
C51	C	0.662949	-0.498128	-0.521832
C52	C	1.162949	0.001872	-0.021832
C53	C	0.572097	-0.483871	-0.506929
C54	C	1.072097	0.016129	-0.006929
C55	C	0.514767	-0.527222	-0.552238
C56	C	1.014767	-0.027222	-0.052238
C57	C	0.787340	-0.570003	-0.596949
C58	C	1.287340	-0.070003	-0.096949
C59	C	0.811131	-0.469039	-0.491422
C60	C	1.311131	0.030961	0.008578
C61	C	0.720279	-0.454778	-0.476522
C62	C	1.220279	0.045222	0.023478
C63	C	1.159378	-0.757230	-0.593337
C64	C	1.659378	-0.257230	-0.093337
C65	C	1.156030	-0.834204	-0.588553
C66	C	1.656030	-0.334204	-0.088553
C67	C	1.200083	-0.885185	-0.651115
C68	C	1.700083	-0.385185	-0.151115
C69	C	1.196933	-0.957510	-0.646620
C70	C	1.696933	-0.457510	-0.146620
C71	C	1.149734	-0.978853	-0.579560
C72	C	1.649734	-0.478853	-0.079560
C73	C	1.105676	-0.927866	-0.516995
C74	C	1.605676	-0.427866	-0.016995
C75	C	1.108821	-0.855543	-0.521494
C76	C	1.608821	-0.355543	-0.021494
C77	C	1.137950	-1.196483	-0.562738
C78	C	1.637950	-0.696483	-0.062738
C79	C	1.134810	-1.268813	-0.558242
C80	C	1.634810	-0.768813	-0.058242
C81	C	1.226067	-1.298452	-0.687869
C82	C	1.726067	-0.798452	-0.187869
C83	C	1.229212	-1.226125	-0.692358
C84	C	1.729212	-0.726125	-0.192358
C85	C	1.185150	-1.175145	-0.629796
C86	C	1.685150	-0.675145	-0.129796
C87	C	1.146516	-1.052781	-0.574963
C88	C	1.646516	-0.552781	-0.074963
C89	C	1.188364	-1.101218	-0.634398
C90	C	1.688364	-0.601218	-0.134398
C91	C	1.394283	-0.612992	-0.641885
C92	C	1.894283	-0.112992	-0.141885
C93	C	1.490975	-0.628185	-0.657766
C94	C	1.990975	-0.128185	-0.157766
C95	C	1.126766	-0.602373	-0.831522
C96	C	1.626766	-0.102373	-0.331522
C97	C	1.109459	-0.613041	-0.928214
C98	C	1.609459	-0.113041	-0.428214
C99	C	1.175432	-0.396750	-0.615968
C100	C	1.675432	0.103250	-0.115968
C101	C	1.178863	-0.319794	-0.620804
C102	C	1.678863	0.180206	-0.120804
C103	C	1.291113	-0.500975	-1.248455
C104	C	1.791113	-0.000975	-0.748455
C105	C	1.307379	-0.490953	-1.157608
C106	C	1.807379	0.009047	-0.657608
C107	C	1.257900	-0.521474	-1.100255
C108	C	1.757900	-0.021474	-0.600255
C109	C	1.192153	-0.562018	-1.133758
C110	C	1.692153	-0.062018	-0.633758
C111	C	1.175890	-0.572045	-1.224614
C112	C	1.675890	-0.072045	-0.724614
C113	C	1.142677	-0.592545	-1.076414
C114	C	1.642677	-0.092545	-0.576414
C115	C	1.076930	-0.633089	-1.109917
C116	C	1.576930	-0.133089	-0.609917
C117	C	1.060669	-0.643114	-1.200764
C118	C	1.560669	-0.143114	-0.700764
C119	C	1.110148	-0.612593	-1.258117
C120	C	1.610148	-0.112593	-0.758117
C121	C	1.158940	-0.582518	-0.985558
C122	C	1.658940	-0.082518	-0.485558
C123	C	1.043717	-0.653589	-0.961717
C124	C	1.543717	-0.153589	-0.461717
C125	C	1.027451	-0.663610	-1.052564
C126	C	1.527451	-0.163610	-0.552564
C127	C	1.207887	-0.552359	-0.378610
C128	C	1.707887	-0.052359	0.121390
C129	C	1.225371	-0.541522	-0.281958
C130	C	1.725371	-0.041522	0.218042
H131	H	0.814631	-0.616913	-0.645975
H132	H	1.314631	-0.116913	-0.145975
C133	C	1.252007	-0.861716	-0.724886
C134	C	1.752007	-0.361716	-0.224886
N135	N	1.291116	-0.844041	-0.780454
N136	N	1.791116	-0.344041	-0.280454
H137	H	0.440787	-0.515612	-0.540112
H138	H	0.940787	-0.015612	-0.040112
C139	C	1.275789	-0.510442	-1.000321
C140	C	1.775789	-0.010442	-0.500321
N141	N	1.289262	-0.502127	-0.925046
N142	N	1.789262	-0.002127	-0.425046
C143	C	0.535217	-0.420494	-0.440692
C144	C	1.035217	0.079506	0.059308
N145	N	0.507440	-0.372756	-0.390805
N146	N	1.007440	0.127244	0.109195
C147	C	0.988348	-0.687718	-1.237614
C148	C	1.488348	-0.187718	-0.737614
N149	N	0.933874	-0.721312	-1.265368
N150	N	1.433874	-0.221312	-0.765368
H151	H	1.072947	-0.814033	-0.470550
H152	H	1.572947	-0.314033	0.029450
C153	C	1.281153	-1.202655	-0.766117
C154	C	1.781153	-0.702655	-0.266117
N155	N	1.320285	-1.184978	-0.821666
N156	N	1.820285	-0.684978	-0.321666
H157	H	1.003429	-0.678443	-0.915020
H158	H	1.503429	-0.178443	-0.415020
H159	H	0.642652	-0.746969	-0.781903
H160	H	1.142652	-0.246969	-0.281903
H161	H	0.692966	-0.407867	-0.427497
H162	H	1.192966	0.092133	0.072503
C163	C	1.345528	-0.467403	-1.311547
C164	C	1.845528	0.032597	-0.811547
N165	N	1.386514	-0.442112	-1.359069
N166	N	1.886514	0.057888	-0.859069
C167	C	1.245409	-1.013587	-0.715434
C168	C	1.745409	-0.513587	-0.215434
N169	N	1.281927	-1.055825	-0.767265
N170	N	1.781927	-0.555825	-0.267265
C171	C	0.874191	-0.421349	-0.441580
C172	C	1.374191	0.078651	0.058420
N173	N	0.921692	-0.385432	-0.404042
N174	N	1.421692	0.114568	0.095958
C175	C	1.274525	-1.354535	-0.756687
C176	C	1.774525	-0.854535	-0.256687
N177	N	1.311022	-1.396778	-0.808527
N178	N	1.811022	-0.896778	-0.308527
H179	H	0.477821	-0.721089	-0.754860
H180	H	0.977821	-0.221089	-0.254860
C181	C	1.379692	-0.446349	-1.120761
C182	C	1.879692	0.053651	-0.620761
N183	N	1.434159	-0.412747	-1.093008
N184	N	1.934159	0.087253	-0.593008
C185	C	1.092270	-0.623626	-1.358057
C186	C	1.592270	-0.123626	-0.858057
N187	N	1.078811	-0.631940	-1.433334
N188	N	1.578811	-0.131940	-0.933334
C189	C	0.955128	-0.708207	-1.089429
C190	C	1.455128	-0.208207	-0.589429
N191	N	0.900654	-0.741795	-1.117197
N192	N	1.400654	-0.241795	-0.617197
H193	H	0.746663	-0.668322	-0.699706
H194	H	1.246663	-0.168322	-0.199706
H195	H	1.102075	-1.154980	-0.511796
H196	H	1.602075	-0.654980	-0.011796
C197	C	1.053819	-0.951349	-0.443184
C198	C	1.553819	-0.451349	0.056816
N199	N	1.014785	-0.969036	-0.387569
N200	N	1.514785	-0.469036	0.112431
C201	C	1.082882	-1.292287	-0.484470
C202	C	1.582882	-0.792287	0.015530
N203	N	1.043771	-1.309968	-0.428908
N204	N	1.543771	-0.809968	0.071092
H205	H	1.226789	-1.083839	-0.689001
H206	H	1.726789	-0.583839	-0.189001
H207	H	1.108089	-1.070167	-0.520360
H208	H	1.608089	-0.570167	-0.020360
H209	H	1.212472	-0.549506	-0.958290
H210	H	1.712472	-0.049506	-0.458290
