data_functionalizedCrystal
_audit_creation_method	'MofGen! by Chris Wilmer'
_symmetry_space_group_name_H-M	'P1'
_symmetry_Int_Tables_number	1
_symmetry_cell_setting	triclinic
loop_
_symmetry_equiv_pos_as_xyz
  x,y,z
_cell_length_a	11.792241
_cell_length_b	10.654554
_cell_length_c	10.268362
_cell_angle_alpha	89.995935
_cell_angle_beta	90.000374
_cell_angle_gamma	95.659871
loop_
_atom_site_label
_atom_site_type_symbol
_atom_site_fract_x
_atom_site_fract_y
_atom_site_fract_z
O1	O	-1.507309	0.172136	-0.108170
O2	O	-1.007309	0.672136	0.391830
O3	O	-1.177009	0.189876	-0.108200
O4	O	-0.677009	0.689876	0.391800
O5	O	-1.349751	-0.001754	-0.108180
O6	O	-0.849751	0.498246	0.391820
O7	O	-1.334568	0.363766	-0.108190
O8	O	-0.834568	0.863766	0.391810
O9	O	-1.349735	-0.001762	0.108421
O10	O	-0.849735	0.498238	0.608421
O11	O	-1.176994	0.189868	0.108401
O12	O	-0.676994	0.689868	0.608401
O13	O	-1.507294	0.172128	0.108431
O14	O	-1.007294	0.672128	0.608431
Cu15	Cu	-1.342143	0.180997	0.128193
Cu16	Cu	-0.842143	0.680997	0.628193
Cu17	Cu	-1.342161	0.181007	-0.127962
Cu18	Cu	-0.842161	0.681007	0.372038
O19	O	-1.334553	0.363758	0.108410
O20	O	-0.834553	0.863758	0.608410
C21	C	-1.134708	0.188758	0.000096
C22	C	-0.634708	0.688758	0.500096
C23	C	-1.008687	0.185422	0.000085
C24	C	-0.508687	0.685422	0.500085
C25	C	-1.348627	-0.048553	0.000119
C26	C	-0.848627	0.451447	0.500119
C27	C	-1.345288	-0.187986	0.000114
C28	C	-0.845288	0.312014	0.500114
C29	C	-1.549595	0.173246	0.000131
C30	C	-1.049595	0.673246	0.500131
C31	C	-1.675616	0.176582	0.000134
C32	C	-1.175616	0.676582	0.500134
C33	C	-0.777960	0.179289	0.000123
C34	C	-0.277960	0.679289	0.500123
C35	C	-0.906353	0.182697	0.000102
C36	C	-0.406353	0.682697	0.500102
C37	C	-1.335676	0.410557	0.000109
C38	C	-0.835676	0.910557	0.500109
C39	C	-1.339015	0.549991	0.000105
C40	C	-0.839015	1.049991	0.500105
N41	N	-1.342138	0.180990	0.308359
N42	N	-0.842138	0.680990	0.808359
C43	C	-1.447000	0.732247	0.000125
C44	C	-0.947000	1.232247	0.500125
C45	C	-1.443864	0.601234	0.000116
C46	C	-0.943864	1.101234	0.500116
C47	C	-1.237295	0.629767	0.000090
C48	C	-0.737295	1.129767	0.500090
C49	C	-1.240433	0.760778	0.000090
C50	C	-0.740433	1.260778	0.500090
C51	C	-1.551856	0.783483	0.000150
C52	C	-1.051856	1.283483	0.500150
C53	C	-1.653576	0.703715	0.000162
C54	C	-1.153576	1.203715	0.500162
C55	C	-1.650440	0.572703	0.000153
C56	C	-1.150440	1.072703	0.500153
C57	C	-1.545584	0.521458	0.000131
C58	C	-1.045584	1.021458	0.500131
N59	N	-1.342174	0.181004	-0.308128
N60	N	-0.842174	0.681004	0.191872
C61	C	-1.342155	0.181004	0.574029
C62	C	-0.842155	0.681004	1.074029
C63	C	-1.342142	0.181000	0.426191
C64	C	-0.842142	0.681000	0.926191
H65	H	-1.554421	0.890159	0.000161
H66	H	-1.054421	1.390159	0.500161
H67	H	-1.738947	0.745448	0.000148
H68	H	-1.238947	1.245448	0.500148
H69	H	-1.157610	0.825726	0.000082
H70	H	-0.657610	1.325726	0.500082
F71	F	-1.125708	0.575224	0.000068
F72	F	-0.625708	1.075224	0.500068
H73	H	-1.733266	0.507759	0.000150
H74	H	-1.233266	1.007759	0.500150
F75	F	-1.542251	0.382020	0.000165
F76	F	-1.042251	0.882020	0.500165
