data_functionalizedCrystal
_audit_creation_method	'MofGen! by Chris Wilmer'
_symmetry_space_group_name_H-M	'P1'
_symmetry_Int_Tables_number	1
_symmetry_cell_setting	triclinic
loop_
_symmetry_equiv_pos_as_xyz
  x,y,z
_cell_length_a	17.699083
_cell_length_b	17.699083
_cell_length_c	16.176319
_cell_angle_alpha	90.007566
_cell_angle_beta	90.001819
_cell_angle_gamma	83.283015
loop_
_atom_site_label
_atom_site_type_symbol
_atom_site_fract_x
_atom_site_fract_y
_atom_site_fract_z
O1	O	-1.004079	-0.095713	-0.068632
O2	O	-0.783701	-0.108165	-0.068660
O3	O	-0.900116	0.008250	-0.068638
O4	O	-0.887664	-0.212128	-0.068654
O5	O	-0.900099	0.008257	0.068855
O6	O	-0.783684	-0.108158	0.068834
O7	O	-1.004062	-0.095706	0.068861
Cu8	Cu	-0.893872	-0.101932	0.081401
Cu9	Cu	-0.893892	-0.101940	-0.081200
O10	O	-0.887647	-0.212121	0.068839
C11	C	-0.755495	-0.107716	0.000084
C12	C	-0.671477	-0.106377	0.000073
C13	C	-0.899662	0.036451	0.000109
C14	C	-0.898323	0.120469	0.000109
N15	N	-0.893863	-0.101925	0.195767
C16	C	-1.032268	-0.096156	0.000116
C17	C	-1.116286	-0.097494	0.000121
C18	C	-0.622856	-0.174710	0.000069
C19	C	-0.543913	-0.173448	0.000079
C20	C	-0.513592	-0.103852	0.000089
C21	C	-0.562219	-0.035513	0.000096
C22	C	-0.641161	-0.036776	0.000091
C23	C	-0.243856	-0.030418	0.000117
C24	C	-0.164908	-0.029160	0.000120
C25	C	-0.146608	-0.167090	0.000105
C26	C	-0.225550	-0.168353	0.000100
C27	C	-0.274170	-0.100015	0.000112
C28	C	-0.359769	-0.101384	0.000102
C29	C	-0.427995	-0.102481	0.000093
C30	C	-0.888102	-0.240322	0.000091
C31	C	-0.889440	-0.324340	0.000085
C32	C	-0.966656	0.169090	0.000119
C33	C	-0.965394	0.248033	0.000111
C34	C	-0.895798	0.278354	0.000100
C35	C	-0.827459	0.229727	0.000088
C36	C	-0.828722	0.150785	0.000089
C37	C	-0.822364	0.548090	0.000080
C38	C	-0.821106	0.627038	0.000081
C39	C	-0.959036	0.645338	0.000102
C40	C	-0.960299	0.566396	0.000104
C41	C	-0.891961	0.517776	0.000087
C42	C	-0.893330	0.432177	0.000094
C43	C	-0.894427	0.363951	0.000099
C44	C	-0.945427	-0.050398	0.239040
C45	C	-0.945430	-0.050397	0.325588
C46	C	-0.893872	-0.101928	0.368859
C47	C	-0.842303	-0.153458	0.325579
C48	C	-0.842297	-0.153455	0.239034
C49	C	-0.842326	-0.153474	0.674608
C50	C	-0.842338	-0.153475	0.761159
C51	C	-0.945460	-0.050416	0.761161
C52	C	-0.945453	-0.050412	0.674616
C53	C	-0.893882	-0.101939	0.631344
C54	C	-0.893878	-0.101938	0.537499
C55	C	-0.893879	-0.101934	0.462702
N56	N	-0.893899	-0.101943	0.804435
H57	H	-0.647537	-0.231384	0.000060
H58	H	-0.800351	-0.195439	0.796390
Br59	Br	-0.266696	-0.262808	0.000079
H60	H	-1.023330	0.144409	0.000133
Br61	Br	-0.772340	-0.223402	0.615886
H62	H	-0.140225	0.027517	0.000128
H63	H	-0.987417	-0.008439	0.360821
Br64	Br	-0.733005	0.270875	0.000059
H65	H	-0.107012	-0.222734	0.000100
H66	H	-0.283434	0.025228	0.000127
H67	H	-0.504328	-0.229092	0.000075
H68	H	-0.537526	0.021154	0.000116
H69	H	-0.680748	0.018868	0.000095
H70	H	-1.021038	0.287618	0.000121
H71	H	-1.016971	0.541714	0.000117
H72	H	-0.987439	-0.008453	0.639387
H73	H	-1.014680	0.684934	0.000111
H74	H	-0.764429	0.651721	0.000074
H75	H	-0.800307	-0.195413	0.203801
H76	H	-0.773078	0.111198	0.000081
H77	H	-0.766718	0.508512	0.000067
H78	H	-0.987450	-0.008457	0.796403
Br79	Br	-0.772324	-0.223390	0.384302
Br80	Br	-1.015408	0.019537	0.180324
