data_functionalizedCrystal
_audit_creation_method	'MofGen! by Chris Wilmer'
_symmetry_space_group_name_H-M	'P1'
_symmetry_Int_Tables_number	1
_symmetry_cell_setting	triclinic
loop_
_symmetry_equiv_pos_as_xyz
  x,y,z
_cell_length_a	18.050590
_cell_length_b	18.050589
_cell_length_c	18.050582
_cell_angle_alpha	90.018005
_cell_angle_beta	90.000767
_cell_angle_gamma	89.976137
loop_
_atom_site_label
_atom_site_type_symbol
_atom_site_fract_x
_atom_site_fract_y
_atom_site_fract_z
Zn1	Zn	1.135259	0.295921	-0.419625
Zn2	Zn	1.135156	0.420105	-0.295445
Zn3	Zn	1.011078	0.295910	-0.295483
Zn4	Zn	1.011012	0.420051	-0.419628
O5	O	1.073126	0.357997	-0.357545
O6	O	1.239170	0.312422	-0.403135
O7	O	1.118681	0.403648	-0.191526
O8	O	1.027622	0.191987	-0.311966
O9	O	1.239094	0.403659	-0.311901
O10	O	1.118857	0.191995	-0.403172
O11	O	1.027522	0.312402	-0.191554
O12	O	0.907145	0.312350	-0.311968
O13	O	1.027509	0.403567	-0.523552
O14	O	0.907096	0.403555	-0.403177
O15	O	1.118793	0.312370	-0.523550
O16	O	1.118617	0.524022	-0.311903
O17	O	1.027409	0.523982	-0.403140
C18	C	0.880174	0.357946	-0.357577
C19	C	0.797628	0.357942	-0.357609
C20	C	0.598173	0.407682	-0.407090
C21	C	0.548787	0.339967	-0.425360
C22	C	0.646498	0.357984	-0.357572
C23	C	0.548802	0.425737	-0.339302
C24	C	0.500513	0.358030	-0.357539
C25	C	0.598200	0.290233	-0.375877
C26	C	0.598218	0.376049	-0.289788
C27	C	0.548855	0.308287	-0.308032
C28	C	0.730596	0.357958	-0.357594
C29	C	0.416416	0.358047	-0.357517
C30	C	1.073015	0.550949	-0.357534
C31	C	1.073035	0.633495	-0.357554
C32	C	1.023463	0.832951	-0.407151
C33	C	1.005359	0.882381	-0.339389
C34	C	1.073091	0.784625	-0.357564
C35	C	1.091214	0.882276	-0.425334
C36	C	1.073143	0.930610	-0.357580
C37	C	1.054952	0.832968	-0.289766
C38	C	1.140839	0.832859	-0.375757
C39	C	1.122761	0.882267	-0.307948
C40	C	1.073059	0.700527	-0.357556
C41	C	1.073176	1.014706	-0.357580
C42	C	1.266832	0.358048	-0.357514
C43	C	1.349378	0.358070	-0.357500
C44	C	1.073155	0.357964	-0.551251
C45	C	1.073168	0.357950	-0.633797
C46	C	1.073230	1.164291	-0.357574
C47	C	1.073202	1.081745	-0.357589
C48	C	1.023566	0.407475	-0.833249
C49	C	1.091319	0.425641	-0.882623
C50	C	1.073204	0.357893	-0.784927
C51	C	1.005488	0.339706	-0.882635
C52	C	1.073234	0.357840	-0.930912
C53	C	1.140993	0.376095	-0.833214
C54	C	1.055117	0.290128	-0.833222
C55	C	1.122917	0.308269	-0.882574
C56	C	1.073186	0.357926	-0.700829
C57	C	1.073259	0.357807	-1.015009
C58	C	1.073140	0.357976	-0.164593
C59	C	1.073272	0.357781	-0.082048
H60	H	0.527100	0.483016	-0.323865
N61	N	1.110543	0.497503	-0.909839
N62	N	1.123711	0.548974	-0.865414
H63	H	1.137284	0.599728	-0.884632
H64	H	1.164956	0.266316	-0.904095
N65	N	0.970741	0.805790	-0.459681
N66	N	0.903687	0.821693	-0.452813
H67	H	0.866450	0.802511	-0.489909
H68	H	1.039781	0.232860	-0.811506
N69	N	0.970957	0.460148	-0.806083
N70	N	0.977740	0.527208	-0.821934
H71	H	0.940589	0.564410	-0.802749
H72	H	0.527075	0.324702	-0.482669
N73	N	0.625482	0.395206	-0.217912
N74	N	0.608795	0.356388	-0.163065
H75	H	0.628050	0.369923	-0.112300
N76	N	0.933512	0.909662	-0.320092
N77	N	0.878772	0.893873	-0.359453
H78	H	0.828027	0.913137	-0.345829
N79	N	1.212876	0.395434	-0.806106
N80	N	1.247882	0.351089	-0.766060
H81	H	1.298648	0.364746	-0.746915
H82	H	0.948210	0.324346	-0.904343
N83	N	0.625286	0.218353	-0.395343
N84	N	0.580770	0.167157	-0.409170
H85	H	0.599900	0.116393	-0.422920
H86	H	0.619830	0.449636	-0.449012
H87	H	1.039578	0.811399	-0.232444
N88	N	1.175436	0.909257	-0.255285
N89	N	1.168675	0.893307	-0.188245
H90	H	1.205874	0.912369	-0.151049
H91	H	1.198092	0.811092	-0.391162
N92	N	1.110408	0.909449	-0.497225
N93	N	1.070954	0.893638	-0.551895
H94	H	1.084503	0.912827	-0.602670
N95	N	0.521867	0.255524	-0.255483
N96	N	0.537858	0.188494	-0.262399
H97	H	0.518798	0.151227	-0.225288
