data_functionalizedCrystal
_audit_creation_method	'MofGen! by Chris Wilmer'
_symmetry_space_group_name_H-M	'P1'
_symmetry_Int_Tables_number	1
_symmetry_cell_setting	triclinic
loop_
_symmetry_equiv_pos_as_xyz
  x,y,z
_cell_length_a	15.698487
_cell_length_b	23.196402
_cell_length_c	23.196402
_cell_angle_alpha	90.003744
_cell_angle_beta	59.999178
_cell_angle_gamma	60.004720
loop_
_atom_site_label
_atom_site_type_symbol
_atom_site_fract_x
_atom_site_fract_y
_atom_site_fract_z
Zr1	Zr	0.932409	-0.075658	0.555355
O2	O	1.110115	-0.167703	0.463296
O3	O	0.754699	-0.047444	0.583575
O4	O	0.932407	-0.167709	0.583565
O5	O	0.932410	0.047433	0.463315
O6	O	0.932410	-0.167713	0.678435
O7	O	0.932407	-0.047437	0.463307
O8	O	0.614522	0.047421	0.678454
O9	O	1.250297	-0.167700	0.463296
O10	O	0.827797	-0.035411	0.666412
O11	O	0.827797	0.035392	0.595617
O12	O	1.037025	-0.106205	0.595605
O13	O	1.037025	-0.035402	0.524811
Zr14	Zr	0.932416	0.075643	0.706674
Zr15	Zr	0.932412	-0.075664	0.706661
Zr16	Zr	0.932412	0.075648	0.555367
Zr17	Zr	1.155982	-0.075655	0.555354
Zr18	Zr	0.708843	0.075640	0.706674
O19	O	1.110125	0.047428	0.678453
O20	O	1.110120	-0.167710	0.678435
O21	O	1.110120	0.047436	0.463315
O22	O	0.754709	0.167687	0.798732
O23	O	0.754704	-0.047451	0.798714
O24	O	0.754704	0.167695	0.583594
O25	O	0.932415	-0.047448	0.798714
O26	O	0.932417	0.167694	0.678463
O27	O	0.932415	0.167698	0.583594
O28	O	0.932417	0.047422	0.798722
O29	O	1.250299	-0.167705	0.583565
O30	O	0.614525	0.167689	0.678464
O31	O	0.614528	0.167685	0.798732
O32	O	0.614525	0.047417	0.798722
O33	O	1.250299	-0.047432	0.463307
O34	O	1.250302	-0.047436	0.583575
O35	O	0.827800	0.106190	0.666424
O36	O	0.827800	0.035387	0.737218
O37	O	1.037028	-0.035407	0.666411
O38	O	1.037028	0.035395	0.595617
C39	C	0.652757	-0.000012	0.631015
C40	C	0.557844	-0.000013	0.631015
C41	C	0.932408	-0.000001	0.441753
C42	C	0.932407	0.000001	0.377519
C43	C	0.932417	0.189254	0.631030
C44	C	0.932418	0.253487	0.631036
C45	C	0.384061	-0.000001	0.631013
C46	C	0.480766	-0.000006	0.631012
C47	C	1.212068	-0.000003	0.631014
C48	C	1.306981	-0.000002	0.631014
C49	C	0.932408	-0.189269	0.630998
C50	C	0.932407	-0.253503	0.630993
C51	C	1.041630	0.246709	0.594079
C52	C	1.041631	0.307063	0.594068
C53	C	0.932415	0.374196	0.631029
C54	C	0.823189	0.380972	0.667988
C55	C	0.823191	0.320618	0.667991
C56	C	0.848741	0.498130	0.692931
C57	C	0.848744	0.558481	0.692929
C58	C	0.932406	0.560350	0.631017
C59	C	1.016085	0.501853	0.569107
C60	C	1.016086	0.441498	0.569110
C61	C	0.932401	0.439644	0.631029
C62	C	1.041627	0.619011	0.594045
C63	C	1.041624	0.679368	0.594033
C64	C	0.823178	0.753278	0.667959
C65	C	0.823184	0.692921	0.667965
C66	C	0.932412	0.625790	0.631009
C67	C	0.823195	0.036949	0.384304
C68	C	0.823193	0.036951	0.323950
C69	C	0.932410	-0.000007	0.256811
C70	C	1.041636	-0.036956	0.250028
C71	C	1.041634	-0.036952	0.310382
C72	C	1.016083	-0.061915	0.132877
C73	C	1.016080	-0.061921	0.072525
C74	C	0.932419	-0.000018	0.070657
C75	C	0.848740	0.061891	0.129155
C76	C	0.848738	0.061895	0.189509
C77	C	0.932423	-0.000015	0.191363
C78	C	0.823198	0.036936	0.012002
C79	C	0.823201	0.036941	-0.048355
C80	C	1.041646	-0.036973	-0.122277
C81	C	1.041640	-0.036971	-0.061920
C82	C	0.932413	-0.000018	0.005217
C83	C	0.932417	-0.000014	0.820276
C84	C	0.932418	-0.000016	0.884509
C85	C	0.652761	-0.000018	0.820276
C86	C	0.557850	-0.000022	0.884510
C87	C	0.652761	0.189250	0.631031
C88	C	0.557850	0.253482	0.631036
C89	C	0.652765	0.189243	0.820292
C90	C	0.557856	0.253473	0.884531
C91	C	1.212059	-0.189258	0.441737
C92	C	1.306969	-0.253488	0.377497
C93	C	1.212064	0.000003	0.441753
C94	C	1.306975	0.000007	0.377519
C95	C	1.212064	-0.189265	0.630998
C96	C	1.306975	-0.253497	0.630993
C97	C	0.513277	-0.036986	0.877714
C98	C	0.424110	-0.037004	0.938063
C99	C	0.379512	-0.000053	1.005206
C100	C	0.424094	0.036912	1.012000
C101	C	0.513265	0.036925	0.951652
C102	C	0.513280	0.320608	0.667999
C103	C	0.424114	0.380967	0.668001
C104	C	0.379512	0.374198	0.631045
C105	C	0.424091	0.307064	0.594078
C106	C	0.513262	0.246707	0.594071
C107	C	0.513285	0.246678	0.951659
C108	C	0.424120	0.307023	1.012024
C109	C	0.379521	0.374162	1.005260
C110	C	0.424100	0.380956	0.938125
C111	C	0.513270	0.320612	0.877762
C112	C	1.351550	-0.246693	0.310370
C113	C	1.440743	-0.307038	0.250005
C114	C	1.485347	-0.374177	0.256768
C115	C	1.440762	-0.380971	0.323903
C116	C	1.351577	-0.320627	0.384267
C117	C	1.351557	0.036965	0.384314
C118	C	1.440748	0.036965	0.323966
C119	C	1.485350	0.000013	0.256822
C120	C	1.440764	-0.036950	0.250028
C121	C	1.351580	-0.036954	0.310376
C122	C	1.351548	-0.246705	0.667956
C123	C	1.440715	-0.307052	0.667965
C124	C	1.485314	-0.374190	0.631005
C125	C	1.440732	-0.380981	0.594040
C126	C	1.351560	-0.320634	0.594036
H127	H	1.130571	0.192052	0.563985
Br128	Br	0.735189	0.495603	0.776962
H129	H	0.387828	0.435623	0.698107
Br130	Br	0.573799	0.155567	0.960858
Br131	Br	0.363551	0.087059	1.103129
Br132	Br	0.735185	0.145911	0.268894
H133	H	1.315239	-0.192030	0.304849
Br134	Br	1.501230	-0.297801	0.158903
H135	H	0.387774	0.435629	0.932629
H136	H	1.130570	-0.067037	0.304852
Br137	Br	0.363546	0.297890	0.543926
H138	H	1.130572	-0.067062	-0.067448
Br139	Br	0.573786	-0.087142	0.786599
H140	H	1.315284	-0.067047	0.304834
Br141	Br	0.735178	0.637865	0.776947
H142	H	0.387832	0.301478	1.066683
H143	H	0.734252	0.807937	0.698049
H144	H	1.315250	-0.192043	0.698053
Br145	Br	0.258493	0.456119	0.631060
Br146	Br	0.573742	0.329847	0.786662
H147	H	1.084213	-0.112332	0.024900
Br148	Br	1.501304	-0.087095	0.158900
H149	H	0.549538	0.192052	0.563974
Br150	Br	1.501281	-0.472103	0.543877
H151	H	0.306913	0.423293	1.054418
H152	H	1.477005	-0.301510	0.698065
H153	H	0.734264	0.435636	0.698080
H154	H	0.734254	0.326143	0.698087
H155	H	1.557967	-0.423308	0.207611
Br156	Br	1.501306	-0.472095	0.333071
Br157	Br	0.674959	0.087102	0.475416
H158	H	1.477035	0.067067	0.329511
H159	H	1.315279	-0.326168	0.438924
Br160	Br	1.291050	0.087119	0.475430
Br161	Br	1.606386	0.000026	0.174928
H162	H	1.557923	-0.423323	0.631014
H163	H	0.387822	-0.067105	0.932517
Br164	Br	1.189859	-0.087107	0.158912
H165	H	1.315278	-0.326174	0.563933
H166	H	0.306902	-0.000069	1.054340
H167	H	1.084218	0.393872	0.518701
Br168	Br	1.189858	0.297869	0.543920
Br169	Br	0.674965	0.087088	0.103118
Br170	Br	0.573785	0.329814	0.718164
H171	H	0.734264	0.067033	-0.042824
H172	H	1.130566	0.564350	0.563950
Br173	Br	1.129641	0.504375	0.485078
Br174	Br	1.129642	-0.145934	0.135400
H175	H	0.734252	0.698444	0.698063
Br176	Br	1.189853	0.670165	0.543851
Br177	Br	0.674967	0.087095	0.333153
Br178	Br	1.189872	-0.087123	-0.213389
Br179	Br	0.735177	0.145907	0.126635
H180	H	0.549545	0.067030	0.957195
