data_functionalizedCrystal
_audit_creation_method	'MofGen! by Chris Wilmer'
_symmetry_space_group_name_H-M	'P1'
_symmetry_Int_Tables_number	1
_symmetry_cell_setting	triclinic
loop_
_symmetry_equiv_pos_as_xyz
  x,y,z
_cell_length_a	21.606444
_cell_length_b	21.606444
_cell_length_c	21.606444
_cell_angle_alpha	90.002006
_cell_angle_beta	59.999398
_cell_angle_gamma	60.003871
loop_
_atom_site_label
_atom_site_type_symbol
_atom_site_fract_x
_atom_site_fract_y
_atom_site_fract_z
Zr1	Zr	0.677443	-0.081188	0.596227
O2	O	0.806558	-0.180008	0.497401
O3	O	0.548326	-0.050897	0.626524
O4	O	0.677439	-0.180010	0.626522
O5	O	0.677449	0.050955	0.497402
O6	O	0.677439	-0.180009	0.728374
O7	O	0.677445	-0.050895	0.497402
O8	O	0.446480	0.050951	0.728377
O9	O	0.908408	-0.180005	0.497400
O10	O	0.601435	-0.037974	0.715455
O11	O	0.601438	0.038034	0.639443
O12	O	0.753452	-0.113980	0.639442
O13	O	0.753455	-0.037972	0.563431
Zr14	Zr	0.677450	0.081253	0.758669
Zr15	Zr	0.677443	-0.081186	0.758669
Zr16	Zr	0.677450	0.081250	0.596227
Zr17	Zr	0.839884	-0.081183	0.596226
Zr18	Zr	0.515010	0.081248	0.758671
O19	O	0.806567	0.050962	0.728373
O20	O	0.806557	-0.180004	0.728373
O21	O	0.806568	0.050959	0.497401
O22	O	0.548336	0.180073	0.857495
O23	O	0.548326	-0.050894	0.857495
O24	O	0.548336	0.180069	0.626523
O25	O	0.677444	-0.050890	0.857494
O26	O	0.677455	0.180075	0.728374
O27	O	0.677455	0.180074	0.626522
O28	O	0.677449	0.050960	0.857494
O29	O	0.908408	-0.180003	0.626520
O30	O	0.446485	0.180068	0.728376
O31	O	0.446485	0.180070	0.857496
O32	O	0.446480	0.050953	0.857496
O33	O	0.908414	-0.050888	0.497400
O34	O	0.908414	-0.050886	0.626520
O35	O	0.601442	0.114045	0.715454
O36	O	0.601438	0.038036	0.791465
O37	O	0.753455	-0.037969	0.715453
O38	O	0.753459	0.038039	0.639442
C39	C	0.474259	0.000026	0.677450
C40	C	0.405299	0.000024	0.677451
C41	C	0.677447	0.000029	0.474258
C42	C	0.677447	0.000028	0.405297
C43	C	0.677456	0.203218	0.677448
C44	C	0.677459	0.272178	0.677448
C45	C	0.372899	-0.039653	0.717126
C46	C	0.308099	-0.039648	0.717129
C47	C	0.275704	0.000030	0.677452
C48	C	0.308106	0.039711	0.637775
C49	C	0.372901	0.039710	0.637777
C50	C	0.046797	0.039718	0.637766
C51	C	-0.018000	0.039714	0.637765
C52	C	-0.018004	-0.039640	0.717118
C53	C	0.046790	-0.039642	0.717120
C54	C	0.079183	0.000043	0.677447
C55	C	0.149445	0.000038	0.677446
C56	C	0.205448	0.000031	0.677448
C57	C	0.880635	0.000039	0.677446
C58	C	0.949595	0.000041	0.677445
C59	C	0.677438	-0.203153	0.677448
C60	C	0.677435	-0.272113	0.677449
C61	C	0.756809	0.264903	0.637771
C62	C	0.756807	0.329700	0.637768
C63	C	0.677453	0.401772	0.677446
C64	C	0.598096	0.409045	0.717124
C65	C	0.598099	0.344248	0.717122
C66	C	0.598081	0.670363	0.717130
C67	C	0.598083	0.735161	0.717130
C68	C	0.756788	0.655815	0.637776
C69	C	0.756792	0.591018	0.637774
C70	C	0.677435	0.598297	0.677448
C71	C	0.677439	0.528036	0.677450
C72	C	0.677448	0.472032	0.677449
C73	C	0.677447	-0.056084	0.372899
C74	C	0.677443	-0.056081	0.308105
C75	C	0.677445	0.000031	0.275707
C76	C	0.677442	0.056149	0.308111
C77	C	0.677440	0.056148	0.372907
C78	C	0.677448	0.056151	0.046798
C79	C	0.677453	0.056146	-0.018004
C80	C	0.677451	-0.056078	-0.018005
C81	C	0.677449	-0.056078	0.046791
C82	C	0.677442	0.000041	0.079192
C83	C	0.677445	0.000038	0.149449
C84	C	0.677448	0.000032	0.205447
C85	C	0.677447	0.000036	0.880639
C86	C	0.677447	0.000037	0.949599
C87	C	0.474259	0.000029	0.880641
C88	C	0.405298	0.000028	0.949602
C89	C	0.474268	0.203212	0.677450
C90	C	0.405310	0.272169	0.677451
C91	C	0.474267	0.203215	0.880640
C92	C	0.405310	0.272173	0.949602
C93	C	0.880626	-0.203150	0.474256
C94	C	0.949584	-0.272108	0.405294
C95	C	0.880635	0.000036	0.474256
C96	C	0.949595	0.000037	0.405294
C97	C	0.880626	-0.203147	0.677446
C98	C	0.949583	-0.272104	0.677446
C99	C	0.372912	-0.039656	0.942311
C100	C	0.308126	-0.039672	1.007101
C101	C	0.275722	0.000000	1.079183
C102	C	0.308115	0.039685	1.086473
C103	C	0.372904	0.039697	1.021683
C104	C	0.372929	0.344235	0.717128
C105	C	0.308146	0.409034	0.717126
C106	C	0.275740	0.401765	0.677450
C107	C	0.308128	0.329691	0.637768
C108	C	0.372915	0.264894	0.637766
C109	C	0.372925	0.264881	1.021671
C110	C	0.308142	0.329669	1.086474
C111	C	0.275740	0.401747	1.079206
C112	C	0.308131	0.409038	1.007130
C113	C	0.372918	0.344251	0.942328
C114	C	0.981976	-0.264816	0.333226
C115	C	1.046780	-0.329604	0.268423
C116	C	1.079186	-0.401682	0.275690
C117	C	1.046790	-0.408973	0.347767
C118	C	0.981992	-0.344186	0.412568
C119	C	0.981988	0.039714	0.412586
C120	C	1.046793	0.039713	0.347795
C121	C	1.079198	0.000038	0.275714
C122	C	1.046803	-0.039644	0.268423
C123	C	0.982004	-0.039647	0.333213
C124	C	0.981968	-0.264810	0.717129
C125	C	1.046752	-0.329597	0.717143
C126	C	1.079155	-0.401676	0.677469
C127	C	1.046763	-0.408968	0.637785
C128	C	0.981976	-0.344183	0.637776
H129	H	0.281719	-0.071955	0.749436
H130	H	0.073161	0.072034	0.605465
H131	H	0.955615	-0.350132	0.605457
H132	H	0.222987	0.454533	0.677458
O133	O	1.081698	-0.321733	0.190688
H134	H	1.048259	-0.260726	0.196528
O135	O	0.677448	0.116674	0.081736
H136	H	0.618108	0.149029	0.140921
O137	O	0.947045	0.082507	0.490327
H138	H	0.959471	0.042447	0.521744
H139	H	0.677438	0.101841	0.399286
O140	O	0.677455	-0.116607	0.273152
H141	H	0.677469	-0.155632	0.306559
O142	O	1.149087	0.000049	0.205839
H143	H	1.166188	-0.034208	0.154486
H144	H	0.222986	0.454494	1.131978
H145	H	1.073155	-0.467664	0.605483
O146	O	1.081712	0.082528	0.355668
H147	H	1.111209	0.059616	0.387149
H148	H	0.281739	0.467733	1.001224
O149	O	0.273149	0.321854	0.595001
H150	H	0.222645	0.379023	0.601688
H151	H	0.677438	0.101840	0.281732
O152	O	0.273196	-0.082477	0.999227
H153	H	0.201720	-0.042430	1.026858
H154	H	0.955596	-0.206126	0.749436
O155	O	0.407827	0.352119	0.864596
H156	H	0.374397	0.413126	0.870438
H157	H	0.073167	-0.071954	0.749426
H158	H	0.399306	0.350169	0.749437
H159	H	0.222965	-0.000015	1.131933
O160	O	1.081758	-0.082436	0.190676
H161	H	1.132252	-0.075757	0.146856
H162	H	0.281783	0.467714	0.749442
H163	H	0.281722	0.071985	1.145171
H164	H	0.399295	-0.071972	0.883624
O165	O	0.273201	0.321815	1.164215
H166	H	0.243663	0.290366	1.170816
H167	H	0.281721	0.072022	0.605473
H168	H	0.399271	0.206216	0.605459
H169	H	0.821429	0.206222	0.605464
H170	H	1.073183	-0.467667	0.353675
O171	O	0.947044	-0.352055	0.490300
H172	H	0.980461	-0.413061	0.484459
H173	H	1.131909	-0.454423	0.677483
H174	H	1.131948	-0.454430	0.222919
O175	O	0.947067	-0.082442	0.325342
H176	H	0.875594	-0.042389	0.352961
O177	O	0.512509	0.352100	0.759933
H178	H	0.474446	0.383568	0.737015
O179	O	0.407821	0.082514	1.029552
H180	H	0.374390	0.110104	1.090561
H181	H	0.821404	0.649894	0.605468
H182	H	0.955595	-0.206132	0.327294
O183	O	0.407855	0.082499	0.594980
H184	H	0.374451	0.110083	0.567383
H185	H	1.073118	-0.323644	0.749458
O186	O	0.842394	0.321853	0.594968
H187	H	0.880443	0.290402	0.617902
O188	O	0.407839	-0.082448	0.759922
H189	H	0.374414	-0.110030	0.787517
H190	H	-0.044375	0.072027	0.605454
O191	O	-0.052943	-0.082445	0.759911
H192	H	-0.124416	-0.042393	0.803773
O193	O	0.842378	0.513282	0.594982
H194	H	0.880427	0.506689	0.533998
O195	O	0.512491	0.812901	0.759919
H196	H	0.457309	0.807078	0.787499
O197	O	0.512479	0.678240	0.759965
H198	H	0.474397	0.709717	0.737066
O199	O	0.512520	0.486789	0.759952
H200	H	0.508704	0.518239	0.719921
O201	O	0.677444	-0.116604	0.407842
H202	H	0.677435	-0.155617	0.374429
H203	H	0.399298	0.206197	1.027603
O204	O	0.677452	-0.116600	0.081734
H205	H	0.618114	-0.113839	0.098972
O206	O	0.677458	-0.116610	-0.052949
H207	H	0.677453	-0.107184	-0.103446
O208	O	0.677435	0.116679	-0.052942
H209	H	0.677416	0.155710	-0.019519
