data_functionalizedCrystal
_audit_creation_method	'MofGen! by Chris Wilmer'
_symmetry_space_group_name_H-M	'P1'
_symmetry_Int_Tables_number	1
_symmetry_cell_setting	triclinic
loop_
_symmetry_equiv_pos_as_xyz
  x,y,z
_cell_length_a	18.426585
_cell_length_b	20.875641
_cell_length_c	20.875625
_cell_angle_alpha	59.251205
_cell_angle_beta	92.971131
_cell_angle_gamma	62.441129
loop_
_atom_site_label
_atom_site_type_symbol
_atom_site_fract_x
_atom_site_fract_y
_atom_site_fract_z
Zr1	Zr	0.721808	0.702139	-0.109955
O2	O	0.605184	0.835955	-0.217285
O3	O	0.753906	0.568320	-0.073648
O4	O	0.751314	0.702141	-0.212379
O5	O	0.613976	0.702132	0.027006
O6	O	0.870740	0.702146	-0.212382
O7	O	0.607776	0.702134	-0.078554
O8	O	0.875376	0.462764	0.035782
O9	O	0.609340	0.941514	-0.221158
O10	O	0.861135	0.623366	-0.062279
O11	O	0.776636	0.623361	0.016502
O12	O	0.773585	0.780918	-0.146836
O13	O	0.689086	0.780914	-0.068055
Zr14	Zr	0.922167	0.702143	0.058397
Zr15	Zr	0.912278	0.702146	-0.109960
Zr16	Zr	0.731696	0.702136	0.058402
Zr17	Zr	0.728436	0.870493	-0.116132
Zr18	Zr	0.915539	0.533789	0.064574
O19	O	0.890068	0.835961	0.022090
O20	O	0.876008	0.835965	-0.217291
O21	O	0.619244	0.835951	0.022096
O22	O	1.038791	0.568327	0.165727
O23	O	1.024731	0.568330	-0.073654
O24	O	0.767966	0.568316	0.165733
O25	O	1.029999	0.702149	-0.078564
O26	O	0.892660	0.702140	0.160821
O27	O	0.773234	0.702136	0.160824
O28	O	1.036199	0.702148	0.026996
O29	O	0.760738	0.941519	-0.221161
O30	O	0.883236	0.462762	0.169603
O31	O	1.034635	0.462768	0.169600
O32	O	1.026775	0.462770	0.035779
O33	O	0.617200	0.941512	-0.087337
O34	O	0.768598	0.941517	-0.087340
O35	O	0.870390	0.623363	0.095278
O36	O	0.954889	0.623368	0.016497
O37	O	0.867338	0.780920	-0.068060
O38	O	0.782839	0.780916	0.010721
C39	C	0.813697	0.491555	-0.018053
C40	C	0.810883	0.420085	-0.015431
C41	C	0.853666	0.386510	-0.055321
C42	C	0.851025	0.319351	-0.052850
C43	C	0.805595	0.285772	-0.010492
C44	C	0.762811	0.319350	0.029404
C45	C	0.765457	0.386503	0.026937
C46	C	0.792954	0.084928	0.001301
C47	C	0.790308	0.017772	0.003763
C48	C	0.878524	0.017776	-0.078490
C49	C	0.881163	0.084935	-0.080957
C50	C	0.838382	0.118503	-0.041058
N51	N	0.802892	0.217127	-0.007967
N52	N	0.841091	0.187142	-0.043579
C53	C	0.583738	0.702132	-0.025773
C54	C	0.502878	0.702129	-0.025771
C55	C	0.206763	0.702156	-0.025786
C56	C	0.289149	0.702152	-0.025784
C57	C	0.354818	0.702143	-0.025779
C58	C	0.437209	0.702139	-0.025776
C59	C	1.060237	0.702150	-0.025785
C60	C	1.141097	0.702153	-0.025787
C61	C	0.809618	0.702144	-0.236367
C62	C	0.805420	0.702145	-0.307839
C63	C	0.830278	0.912726	-0.033505
C64	C	0.833091	0.984197	-0.036127
C65	C	0.869241	0.702149	-0.341418
C66	C	0.865298	0.702142	-0.408569
C67	C	0.797532	0.702138	-0.442144
C68	C	0.733708	0.702131	-0.408558
C69	C	0.737655	0.702132	-0.341405
C70	C	0.778677	0.702130	-0.642980
C71	C	0.774734	0.702132	-0.710140
C72	C	0.906325	0.702142	-0.710145
C73	C	0.910263	0.702148	-0.642994
C74	C	0.846442	0.702136	-0.609412
N75	N	0.793499	0.702134	-0.510784
N76	N	0.850479	0.702134	-0.540769
C77	C	0.834356	0.702137	0.184809
C78	C	0.838554	0.702136	0.256281
C79	C	1.051946	0.491564	-0.018058
C80	C	1.129992	0.420097	-0.015438
C81	C	0.826066	0.491552	0.192536
C82	C	0.827450	0.420080	0.266630
C83	C	1.064315	0.491561	0.192530
C84	C	1.146559	0.420092	0.266622
C85	C	0.579659	0.912721	-0.244088
C86	C	0.497415	0.984189	-0.318180
C87	C	0.592028	0.912717	-0.033500
C88	C	0.513982	0.984185	-0.036120
C89	C	0.817909	0.912729	-0.244094
C90	C	0.816525	0.984201	-0.318188
C91	C	1.117705	0.386533	-0.055335
C92	C	1.191030	0.319391	-0.052889
C93	C	1.276641	0.285809	-0.010541
C94	C	1.288927	0.319379	0.029357
C95	C	1.215603	0.386524	0.026906
C96	C	0.877038	0.386517	0.342553
C97	C	0.878336	0.319371	0.412178
C98	C	0.830050	0.285785	0.405879
C99	C	0.780456	0.319354	0.329948
C100	C	0.779153	0.386504	0.260324
C101	C	1.229297	0.386532	0.260294
C102	C	1.306582	0.319389	0.329904
C103	C	1.301125	0.285802	0.405843
C104	C	1.218378	0.319369	0.412169
C105	C	1.141096	0.386516	0.342559
C106	C	0.414677	1.017758	-0.311852
C107	C	0.337394	1.084922	-0.381464
C108	C	0.342850	1.118512	-0.457402
C109	C	0.425597	1.084941	-0.463728
C110	C	0.502879	1.017782	-0.394118
C111	C	0.526269	1.017755	0.003770
C112	C	0.452944	1.084916	0.001305
C113	C	0.367333	1.118501	-0.041046
C114	C	0.355047	1.084928	-0.080941
C115	C	0.428371	1.017773	-0.078480
C116	C	0.864821	1.017767	-0.311863
C117	C	0.863537	1.084913	-0.381475
C118	C	0.813953	1.118498	-0.457412
C119	C	0.765655	1.084926	-0.463735
C120	C	0.766944	1.017776	-0.394124
H121	H	0.918156	0.112273	-0.115448
O122	O	0.918318	0.981542	-0.229965
H123	H	0.894071	1.037910	-0.225200
O124	O	0.668819	0.702117	-0.305188
H125	H	0.701649	0.640613	-0.241594
O126	O	0.741320	-0.018462	0.049464
H127	H	0.712026	0.016153	0.076803
H128	H	0.430029	1.112298	-0.525566
O129	O	0.713799	0.283145	0.075081
H130	H	0.743191	0.252544	0.139408
H131	H	0.270026	1.112244	-0.376297
O132	O	0.618603	0.981540	0.049448
H133	H	0.653510	0.994423	0.007454
O134	O	0.288259	1.190910	-0.043666
H135	H	0.289215	1.252095	-0.071626
H136	H	0.812911	1.173176	-0.514088
H137	H	0.285332	1.112283	-0.115422
O138	O	0.831474	0.213343	0.480976
H139	H	0.874083	0.195643	0.534826
H140	H	0.902866	1.112240	-0.376311
O141	O	0.712166	1.121161	-0.545641
H142	H	0.719380	1.173502	-0.592977
O143	O	0.714846	0.981577	-0.400945
H144	H	0.643648	1.037957	-0.435620
O145	O	0.902667	0.422726	-0.101007
H146	H	0.931980	0.388088	-0.128324
H147	H	0.719546	0.702130	-0.737473
O148	O	0.592118	0.981566	-0.400946
H149	H	0.582919	1.016203	-0.465447
H150	H	1.181009	0.292067	-0.085379
H151	H	1.373950	0.292065	0.324739
H152	H	0.885864	0.292014	-0.085331
O153	O	0.415115	0.981562	-0.121501
H154	H	0.378414	0.950970	-0.096603
O155	O	0.924666	-0.018429	-0.121521
H156	H	0.915200	-0.070769	-0.112689
H157	H	0.738775	0.413822	0.198507
H158	H	1.048002	0.413876	-0.089830
O159	O	1.355718	0.213383	-0.007902
H160	H	1.395337	0.239158	-0.034589
H161	H	1.233757	0.413868	0.198468
O162	O	0.709834	0.702134	-0.606775
H163	H	0.742648	0.640637	-0.543179
H164	H	1.073730	0.413832	0.347723
O165	O	0.746803	0.121140	0.044323
H166	H	0.714759	0.086516	0.074180
H167	H	0.279916	1.173196	-0.514077
H168	H	0.730616	0.413841	0.059418
O169	O	0.466205	1.121108	0.044347
H170	H	0.538056	1.086454	0.074222
O171	O	0.408782	0.981540	-0.229951
H172	H	0.338259	1.016183	-0.237260
O173	O	1.384482	0.213370	0.480921
H174	H	1.442929	0.195673	0.463755
H175	H	1.358642	0.292026	0.063836
O176	O	1.228864	0.422705	0.069957
H177	H	1.265574	0.453291	0.045081
O178	O	0.942335	0.702149	-0.305204
H179	H	0.986056	0.702140	-0.339832
O180	O	0.929118	0.422740	0.349356
H181	H	0.963805	0.388120	0.413852
H182	H	1.213949	0.292013	0.474007
H183	H	0.918725	0.292047	0.473997
H184	H	0.741142	0.291998	0.324831
H185	H	0.917266	0.702144	-0.435909
H186	H	0.965444	0.702151	-0.615659
O187	O	0.975162	0.702149	-0.746360
H188	H	1.010692	0.640652	-0.743945
O189	O	0.660611	0.702132	-0.444769
H190	H	0.668581	0.702144	-0.497113
