data_functionalizedCrystal
_audit_creation_method	'MofGen! by Chris Wilmer'
_symmetry_space_group_name_H-M	'P1'
_symmetry_Int_Tables_number	1
_symmetry_cell_setting	triclinic
loop_
_symmetry_equiv_pos_as_xyz
  x,y,z
_cell_length_a	29.839131
_cell_length_b	19.805407
_cell_length_c	19.805399
_cell_angle_alpha	90.019197
_cell_angle_beta	89.970435
_cell_angle_gamma	89.962430
loop_
_atom_site_label
_atom_site_type_symbol
_atom_site_fract_x
_atom_site_fract_y
_atom_site_fract_z
Zn1	Zn	-0.178910	-1.034665	-0.382703
Zn2	Zn	0.321090	-0.534665	0.117297
Zn3	Zn	-0.254037	-1.034550	-0.269511
Zn4	Zn	0.245963	-0.534550	0.230489
Zn5	Zn	-0.178917	-0.921480	-0.269529
Zn6	Zn	0.321083	-0.421480	0.230471
Zn7	Zn	-0.254009	-0.921414	-0.382659
Zn8	Zn	0.245991	-0.421414	0.117341
O9	O	-0.216468	-0.978027	-0.326101
O10	O	0.283532	-0.478027	0.173899
O11	O	-0.188885	-1.129366	-0.367700
O12	O	0.311115	-0.629366	0.132300
O13	O	-0.244088	-1.019531	-0.174797
O14	O	0.255912	-0.519531	0.325203
O15	O	-0.116049	-0.936570	-0.284568
O16	O	0.383951	-0.436570	0.215432
O17	O	-0.244081	-1.129282	-0.284538
O18	O	0.255919	-0.629282	0.215462
O19	O	-0.116044	-1.019726	-0.367717
O20	O	0.383956	-0.519726	0.132283
O21	O	-0.188897	-0.936458	-0.174810
O22	O	0.311103	-0.436458	0.325190
O23	O	-0.188869	-0.826754	-0.284524
O24	O	0.311131	-0.326754	0.215476
O25	O	-0.244031	-0.936457	-0.477381
O26	O	0.255969	-0.436457	0.022619
O27	O	-0.244038	-0.826706	-0.367640
O28	O	0.255962	-0.326706	0.132360
O29	O	-0.188857	-1.019662	-0.477414
O30	O	0.311143	-0.519662	0.022586
O31	O	-0.316901	-1.019467	-0.284495
O32	O	0.183099	-0.519467	0.215505
O33	O	-0.316880	-0.936346	-0.367623
O34	O	0.183120	-0.436346	0.132377
C35	C	-0.216452	-0.802171	-0.326080
C36	C	0.283548	-0.302171	0.173920
C37	C	-0.216456	-0.726939	-0.326087
C38	C	0.283544	-0.226939	0.173913
C39	C	-0.187765	-0.691640	-0.369454
C40	C	0.312235	-0.191640	0.130546
C41	C	-0.187767	-0.620951	-0.369455
C42	C	0.312233	-0.120951	0.130545
C43	C	-0.216461	-0.585564	-0.326092
C44	C	0.283539	-0.085564	0.173908
C45	C	-0.245152	-0.620868	-0.282720
C46	C	0.254848	-0.120868	0.217280
C47	C	-0.245148	-0.691555	-0.282716
C48	C	0.254852	-0.191555	0.217284
C49	C	-0.245169	-0.335795	-0.282733
C50	C	0.254831	0.164205	0.217267
C51	C	-0.245172	-0.265103	-0.282742
C52	C	0.254828	0.234897	0.217258
C53	C	-0.187787	-0.265191	-0.369473
C54	C	0.312213	0.234809	0.130527
C55	C	-0.187783	-0.335878	-0.369469
C56	C	0.312217	0.164122	0.130531
C57	C	-0.216473	-0.371176	-0.326095
C58	C	0.283527	0.128824	0.173905
C59	C	-0.216470	-0.447825	-0.326093
C60	C	0.283530	0.052175	0.173907
C61	C	-0.216466	-0.508916	-0.326096
C62	C	0.283534	-0.008916	0.173904
C63	C	-0.333191	-0.977905	-0.326067
C64	C	0.166809	-0.477905	0.173933
C65	C	-0.383125	-0.977915	-0.326075
C66	C	0.116875	-0.477915	0.173925
C67	C	-0.692767	-1.021387	-0.282879
C68	C	-0.192767	-0.521387	0.217121
C69	C	-0.880440	-1.021470	-0.282905
C70	C	-0.380440	-0.521470	0.217095
O71	O	-0.904704	-1.058335	-0.246152
O72	O	-0.404704	-0.558335	0.253848
N73	N	-0.903910	-0.978167	-0.326152
N74	N	-0.403910	-0.478167	0.173848
C75	C	-0.880459	-0.934844	-0.369398
C76	C	-0.380459	-0.434844	0.130602
O77	O	-0.904729	-0.898019	-0.406188
O78	O	-0.404729	-0.398019	0.093812
C79	C	-0.692787	-0.934764	-0.369375
C80	C	-0.192787	-0.434764	0.130625
C81	C	-0.669319	-0.978065	-0.326120
C82	C	-0.169319	-0.478065	0.173880
C83	C	-0.669299	-1.064685	-0.239628
C84	C	-0.169299	-0.564685	0.260372
C85	C	-0.622384	-1.064661	-0.239619
C86	C	-0.122384	-0.564661	0.260381
C87	C	-0.598936	-1.021339	-0.282861
C88	C	-0.098936	-0.521339	0.217139
C89	C	-0.622404	-0.978041	-0.326112
C90	C	-0.122404	-0.478041	0.173888
C91	C	-0.669337	-0.891444	-0.412624
C92	C	-0.169337	-0.391444	0.087376
C93	C	-0.622416	-0.891429	-0.412616
C94	C	-0.122416	-0.391429	0.087384
C95	C	-0.598948	-0.934730	-0.369361
C96	C	-0.098948	-0.434730	0.130639
C97	C	-0.552041	-0.934695	-0.369344
C98	C	-0.052041	-0.434695	0.130656
N99	N	-0.528571	-0.977998	-0.326098
N100	N	-0.028571	-0.477998	0.173902
C101	C	-0.552018	-1.021320	-0.282856
C102	C	-0.052018	-0.521320	0.217144
C103	C	-0.978990	-0.934888	-0.369406
C104	C	-0.478990	-0.434888	0.130594
C105	C	-1.025908	-0.934906	-0.369411
C106	C	-0.525908	-0.434906	0.130589
C107	C	-1.025885	-1.021534	-0.282919
C108	C	-0.525885	-0.521534	0.217081
C109	C	-0.978967	-1.021512	-0.282911
C110	C	-0.478967	-0.521512	0.217089
C111	C	-0.955520	-0.978191	-0.326160
C112	C	-0.455520	-0.478191	0.173840
C113	C	-0.453493	-1.021266	-0.282840
C114	C	0.046507	-0.521266	0.217160
C115	C	-0.406573	-1.021236	-0.282834
C116	C	0.093427	-0.521236	0.217166
C117	C	-0.406600	-0.934611	-0.369328
C118	C	0.093400	-0.434611	0.130672
C119	C	-0.453515	-0.934638	-0.369333
C120	C	0.046485	-0.434638	0.130667
C121	C	-0.476960	-0.977971	-0.326087
C122	C	0.023040	-0.477971	0.173913
O123	O	-0.527749	-0.897855	-0.406084
O124	O	-0.027749	-0.397855	0.093916
O125	O	-0.527741	-1.058150	-0.246083
O126	O	-0.027741	-0.558150	0.253917
C127	C	-0.739683	-1.021411	-0.282887
C128	C	-0.239683	-0.521411	0.217113
C129	C	-0.763150	-0.978113	-0.326138
C130	C	-0.263150	-0.478113	0.173862
C131	C	-0.739703	-0.934791	-0.369379
C132	C	-0.239703	-0.434791	0.130621
C133	C	-0.810068	-0.978132	-0.326143
C134	C	-0.310068	-0.478132	0.173857
C135	C	-0.833516	-1.021454	-0.282901
C136	C	-0.333516	-0.521454	0.217099
C137	C	-0.810046	-1.064757	-0.239654
C138	C	-0.310046	-0.564757	0.260346
C139	C	-0.763130	-1.064733	-0.239646
C140	C	-0.263130	-0.564733	0.260354
C141	C	-0.763173	-0.891488	-0.412626
C142	C	-0.263173	-0.391488	0.087374
C143	C	-0.810088	-0.891515	-0.412631
C144	C	-0.310088	-0.391515	0.087369
C145	C	-0.833536	-0.934837	-0.369389
C146	C	-0.333536	-0.434837	0.130611
C147	C	-0.099290	-0.978168	-0.326149
C148	C	0.400710	-0.478168	0.173851
C149	C	-0.049355	-0.978228	-0.326170
C150	C	0.450645	-0.478228	0.173830
C151	C	-0.216440	-0.978065	-0.502643
C152	C	0.283560	-0.478065	-0.002643
C153	C	-0.216428	-0.978081	-0.577875
C154	C	0.283572	-0.478081	-0.077875
C155	C	-0.216482	-0.154570	-0.326116
C156	C	0.283518	0.345430	0.173884
C157	C	-0.216479	-0.229802	-0.326106
C158	C	0.283521	0.270198	0.173894
C159	C	-0.187697	-1.021407	-0.613238
C160	C	0.312303	-0.521407	-0.113238
C161	C	-0.187684	-1.021414	-0.683926
C162	C	0.312316	-0.521414	-0.183926
C163	C	-0.216404	-0.978098	-0.719251
C164	C	0.283596	-0.478098	-0.219251
C165	C	-0.245137	-0.934767	-0.683884
C166	C	0.254863	-0.434767	-0.183884
C167	C	-0.245147	-0.934757	-0.613197
C168	C	0.254853	-0.434757	-0.113197
C169	C	-0.245095	-0.934806	-0.968957
C170	C	0.254905	-0.434806	-0.468957
C171	C	-0.245083	-0.934820	-1.039649
C172	C	0.254917	-0.434820	-0.539649
C173	C	-0.187632	-1.021462	-1.039687
C174	C	0.312368	-0.521462	-0.539687
C175	C	-0.187642	-1.021452	-0.969000
C176	C	0.312358	-0.521452	-0.469000
C177	C	-0.216372	-0.978119	-0.933639
C178	C	0.283628	-0.478119	-0.433639
C179	C	-0.216386	-0.978112	-0.856990
C180	C	0.283614	-0.478112	-0.356990
C181	C	-0.216394	-0.978109	-0.795898
C182	C	0.283606	-0.478109	-0.295898
C183	C	-0.216464	-0.978028	-0.150245
C184	C	0.283536	-0.478028	0.349755
C185	C	-0.216350	-0.978143	-0.075013
C186	C	0.283650	-0.478143	0.424987
H187	H	-0.164400	-0.720447	-0.404768
H188	H	0.335600	-0.220447	0.095232
Br189	Br	-0.148666	-1.080244	-0.921062
Br190	Br	0.351334	-0.580244	-0.421062
Br191	Br	-0.284138	-0.875951	-0.565204
Br192	Br	0.215862	-0.375951	-0.065204
Br193	Br	-0.841932	-0.832741	-0.471337
Br194	Br	-0.341932	-0.332741	0.028663
H195	H	-0.164311	-1.056682	-0.584481
H196	H	0.335689	-0.556682	-0.084481
Br197	Br	-0.701112	-1.123489	-0.180936
Br198	Br	-0.201112	-0.623489	0.319064
Br199	Br	-0.374727	-1.080005	-0.224126
Br200	Br	0.125273	-0.580005	0.275874
Br201	Br	-0.284112	-0.875976	-0.731824
Br202	Br	0.215888	-0.375976	-0.231824
Br203	Br	-0.731358	-0.832689	-0.471319
Br204	Br	-0.231358	-0.332689	0.028681
Br205	Br	-0.148829	-0.573047	-0.428314
Br206	Br	0.351171	-0.073047	0.071686
H207	H	-0.164419	-0.364687	-0.404782
H208	H	0.335581	0.135313	0.095218
H209	H	-0.268511	-0.720295	-0.247401
H210	H	0.231489	-0.220295	0.252599
H211	H	-0.164425	-0.236442	-0.404788
H212	H	0.335575	0.263558	0.095212
H213	H	-0.268539	-0.236292	-0.247428
H214	H	0.231461	0.263708	0.252572
Br215	Br	-0.284085	-0.875995	-0.920976
Br216	Br	0.215915	-0.375995	-0.420976
H217	H	-0.164290	-1.056696	-0.712715
H218	H	0.335710	-0.556696	-0.212715
Br219	Br	-0.284093	-0.383691	-0.223851
Br220	Br	0.215907	0.116309	0.276149
Br221	Br	-0.590598	-0.832636	-0.471316
Br222	Br	-0.090598	-0.332636	0.028684
Br223	Br	-0.284092	-0.572843	-0.223863
Br224	Br	0.215908	-0.072843	0.276137
Br225	Br	-0.148639	-1.080272	-1.087681
Br226	Br	0.351361	-0.580272	-0.587681
Br227	Br	-0.485304	-1.080076	-0.224149
Br228	Br	0.014696	-0.580076	0.275851
Br229	Br	-0.841877	-1.123547	-0.180967
Br230	Br	-0.341877	-0.623547	0.319033
Br231	Br	-0.590542	-1.123440	-0.180924
Br232	Br	-0.090542	-0.623440	0.319076
H233	H	-0.959862	-1.056771	-0.247690
H234	H	-0.459862	-0.556771	0.252310
H235	H	-1.044984	-1.056809	-0.247710
H236	H	-0.544984	-0.556809	0.252290
Br237	Br	-0.284064	-0.876031	-1.087590
Br238	Br	0.215936	-0.376031	-0.587590
H239	H	-1.045011	-0.899640	-0.404627
H240	H	-0.545011	-0.399640	0.095373
Br241	Br	-0.947176	-0.876088	-0.428107
Br242	Br	-0.447176	-0.376088	0.071893
Br243	Br	-0.485365	-0.875856	-0.428019
Br244	Br	0.014635	-0.375856	0.071981
Br245	Br	-0.374769	-0.875823	-0.428013
Br246	Br	0.125231	-0.375823	0.071987
H247	H	-0.688437	-0.856180	-0.447843
H248	H	-0.188437	-0.356180	0.052157
H249	H	-0.744026	-1.099993	-0.204424
H250	H	-0.244026	-0.599993	0.295576
