data_functionalizedCrystal
_audit_creation_method	'MofGen! by Chris Wilmer'
_symmetry_space_group_name_H-M	'P1'
_symmetry_Int_Tables_number	1
_symmetry_cell_setting	triclinic
loop_
_symmetry_equiv_pos_as_xyz
  x,y,z
_cell_length_a	25.639242
_cell_length_b	25.639240
_cell_length_c	19.120904
_cell_angle_alpha	87.596818
_cell_angle_beta	87.585184
_cell_angle_gamma	90.027658
loop_
_atom_site_label
_atom_site_type_symbol
_atom_site_fract_x
_atom_site_fract_y
_atom_site_fract_z
Zn1	Zn	0.786648	-0.220847	0.397218
Zn2	Zn	0.790306	-0.304551	0.279753
Zn3	Zn	0.702949	-0.217124	0.279768
Zn4	Zn	0.699181	-0.308243	0.397143
O5	O	0.744771	-0.262691	0.338470
O6	O	0.860297	-0.231963	0.381661
O7	O	0.781826	-0.289851	0.181474
O8	O	0.714098	-0.144454	0.295386
O9	O	0.862985	-0.293460	0.295360
O10	O	0.775591	-0.147189	0.381676
O11	O	0.717646	-0.225618	0.181485
O12	O	0.629285	-0.229198	0.295313
O13	O	0.707675	-0.299753	0.495434
O14	O	0.626516	-0.296143	0.381548
O15	O	0.771937	-0.235543	0.495489
O16	O	0.778172	-0.378205	0.295287
O17	O	0.711222	-0.380917	0.381533
C18	C	0.608930	-0.262668	0.338425
C19	C	0.550816	-0.262671	0.338422
C20	C	0.301051	-0.227780	0.293646
C21	C	0.355656	-0.227775	0.293637
O22	O	0.385109	-0.198077	0.255527
N23	N	0.381541	-0.262678	0.338457
C24	C	0.352818	-0.297586	0.383294
O25	O	0.379849	-0.327273	0.421417
C26	C	0.298214	-0.297588	0.383306
C27	C	0.272333	-0.262686	0.338478
C28	C	0.275169	-0.192880	0.248822
C29	C	0.220569	-0.192886	0.248830
C30	C	0.191850	-0.227792	0.293662
C31	C	0.217732	-0.262691	0.338486
C32	C	0.269492	-0.332492	0.428146
C33	C	0.214885	-0.332491	0.428155
C34	C	0.189003	-0.297589	0.383327
C35	C	0.134412	-0.297603	0.383326
N36	N	0.108527	-0.262700	0.338506
C37	C	0.137246	-0.227794	0.293674
C38	C	0.467490	-0.297578	0.383267
C39	C	0.522092	-0.297579	0.383252
C40	C	0.524926	-0.227767	0.293595
C41	C	0.470323	-0.227769	0.293607
C42	C	0.441605	-0.262674	0.338446
C43	C	0.022580	-0.227809	0.293694
C44	C	-0.032025	-0.227820	0.293704
C45	C	-0.034855	-0.297629	0.383363
C46	C	0.019746	-0.297621	0.383351
C47	C	0.048462	-0.262707	0.338514
O48	O	0.104925	-0.327284	0.421419
O49	O	0.110208	-0.198107	0.255564
C50	C	0.744699	-0.398532	0.338415
C51	C	0.744715	-0.456646	0.338415
C52	C	0.776804	-0.818399	0.383482
C53	C	0.776819	-0.873004	0.383497
O54	O	0.804017	-0.902421	0.421758
N55	N	0.744841	-0.898932	0.338538
C56	C	0.712842	-0.870253	0.293568
O57	O	0.685644	-0.897322	0.255329
C58	C	0.712825	-0.815650	0.293557
C59	C	0.744809	-0.789724	0.338514
C60	C	0.808785	-0.792473	0.428436
C61	C	0.808771	-0.737872	0.428420
C62	C	0.776775	-0.709197	0.383452
C63	C	0.744795	-0.735123	0.338498
C64	C	0.680824	-0.786972	0.248591
C65	C	0.680809	-0.732365	0.248585
C66	C	0.712793	-0.706439	0.293541
C67	C	0.712785	-0.651847	0.293514
N68	N	0.744763	-0.625918	0.338473
C69	C	0.776758	-0.654593	0.383441
C70	C	0.712881	-0.984925	0.293593
C71	C	0.712900	-1.039527	0.293600
C72	C	0.776877	-1.042274	0.383530
C73	C	0.776859	-0.987670	0.383519
C74	C	0.744858	-0.958996	0.338552
C75	C	0.776726	-0.539927	0.383405
C76	C	0.776710	-0.485321	0.383384
C77	C	0.712732	-0.482579	0.293457
C78	C	0.712750	-0.537180	0.293475
C79	C	0.744748	-0.565853	0.338455
O80	O	0.685600	-0.622396	0.255275
O81	O	0.803947	-0.627518	0.421680
C82	C	0.881142	-0.262715	0.338517
C83	C	0.939256	-0.262725	0.338536
C84	C	0.738977	-0.268475	0.521657
C85	C	0.736509	-0.270940	0.599720
C86	C	0.744857	-0.126320	0.338541
C87	C	0.744894	-0.068207	0.338571
C88	C	0.750572	-0.256892	0.155996
C89	C	0.753142	-0.254280	0.077933
C90	C	0.768805	-0.238669	0.636424
C91	C	0.766479	-0.240982	0.709773
C92	C	0.731859	-0.275570	0.746417
C93	C	0.699559	-0.307843	0.709707
C94	C	0.701883	-0.305526	0.636360
C95	C	0.723166	-0.284236	0.967877
C96	C	0.720846	-0.286551	1.041229
C97	C	0.787765	-0.219690	1.041290
C98	C	0.790088	-0.217378	0.967941
C99	C	0.757786	-0.249649	0.931239
C100	C	0.729481	-0.277937	0.821391
C101	C	0.760161	-0.247279	0.856266
H102	H	0.191505	-0.360914	0.464672
C103	C	0.691397	-0.315980	0.861706
N104	N	0.662709	-0.344631	0.892073
C105	C	0.441858	-0.189370	0.244298
N106	N	0.420421	-0.160445	0.207159
C107	C	0.677537	-0.451026	0.243996
N108	N	0.651024	-0.427259	0.206747
C109	C	0.666356	-0.341027	0.595986
N110	N	0.639594	-0.367768	0.565577
C111	C	0.843958	-0.709361	0.477874
N112	N	0.870463	-0.687890	0.515124
C113	C	-0.060492	-0.189420	0.244391
N114	N	-0.081931	-0.160497	0.207252
C115	C	0.556527	-0.189366	0.244283
N116	N	0.580331	-0.160444	0.207144
C117	C	0.812041	-0.959157	0.432977
N118	N	0.838541	-0.937684	0.470232
C119	C	0.806889	-0.200618	0.596124
N120	N	0.835574	-0.171956	0.565771
H121	H	0.654779	-0.808071	0.211982
C122	C	0.811929	-0.571459	0.432881
N123	N	0.838448	-0.595209	0.470142
H124	H	0.802928	-1.065631	0.420147
H125	H	0.543161	-0.326005	0.419748
C126	C	0.843990	-0.824007	0.477903
N127	N	0.870513	-0.847755	0.515160
H128	H	0.686710	-0.558290	0.256863
H129	H	0.444110	-0.326006	0.419779
H130	H	0.686862	-1.060631	0.256984
H131	H	0.654748	-0.709021	0.211968
H132	H	0.290556	-0.360914	0.464650
C133	C	0.828167	-0.179324	0.927639
N134	N	0.856849	-0.150660	0.897284
H135	H	0.788347	-0.219115	0.826428
C136	C	0.048217	-0.336016	0.432662
N137	N	0.069657	-0.364932	0.469810
H138	H	0.671369	-0.336003	0.739548
H139	H	0.686823	-0.961581	0.256970
C140	C	0.802008	-0.205482	0.750144
N141	N	0.828770	-0.178742	0.780552
C142	C	0.823288	-0.184189	1.081669
N143	N	0.850042	-0.157445	1.112083
H144	H	-0.058247	-0.326050	0.419862
C145	C	0.811898	-0.456806	0.432839
N146	N	0.838401	-0.435330	0.470089
H147	H	0.045955	-0.199376	0.257187
C148	C	0.682758	-0.324601	1.081536
N149	N	0.654072	-0.353258	1.111894
H150	H	0.199501	-0.164465	0.212326
H151	H	0.298547	-0.164452	0.212314
H152	H	0.696872	-0.310520	0.938002
