data_functionalizedCrystal
_audit_creation_method	'MofGen! by Chris Wilmer'
_symmetry_space_group_name_H-M	'P1'
_symmetry_Int_Tables_number	1
_symmetry_cell_setting	triclinic
loop_
_symmetry_equiv_pos_as_xyz
  x,y,z
_cell_length_a	15.944551
_cell_length_b	15.500215
_cell_length_c	15.944551
_cell_angle_alpha	86.816342
_cell_angle_beta	96.501262
_cell_angle_gamma	93.178401
loop_
_atom_site_label
_atom_site_type_symbol
_atom_site_fract_x
_atom_site_fract_y
_atom_site_fract_z
O1	O	1.118003	0.071856	-0.111811
O2	O	0.873455	0.071878	-0.125168
O3	O	1.002407	0.071859	0.003786
O4	O	0.989051	0.071875	-0.240764
O5	O	0.995429	-0.072030	0.010756
O6	O	0.866477	-0.072011	-0.118198
O7	O	1.111025	-0.072033	-0.104841
Cu8	Cu	0.988114	-0.085160	-0.110883
Cu9	Cu	0.996366	0.085005	-0.119126
O10	O	0.982073	-0.072014	-0.233795
C11	C	0.838672	-0.000064	-0.121129
C12	C	0.745426	-0.000056	-0.119467
N13	N	0.982316	-0.204846	-0.105085
C14	C	0.530568	-0.000078	-0.035561
C15	C	0.472989	0.070869	-0.077960
C16	C	0.574700	-0.000066	-0.116459
C17	C	0.466131	-0.070994	-0.071108
C18	C	0.409786	-0.000080	-0.113548
C19	C	0.518351	0.070940	-0.158883
C20	C	0.511497	-0.070987	-0.152016
C21	C	0.453936	-0.000022	-0.194475
C22	C	0.669703	-0.000058	-0.118134
C23	C	0.314785	-0.000083	-0.111879
C24	C	1.031067	-0.250120	-0.153872
C25	C	1.026693	-0.340693	-0.149481
C26	C	0.973563	-0.385990	-0.096309
C27	C	0.924810	-0.340710	-0.047517
C28	C	0.929189	-0.250138	-0.051903
C29	C	0.957797	-0.659458	-0.080511
C30	C	0.953420	-0.750035	-0.076131
C31	C	1.055304	-0.750012	-0.178094
C32	C	1.059675	-0.659439	-0.182479
C33	C	1.010925	-0.614167	-0.133684
C34	C	0.969089	-0.478570	-0.091822
C35	C	1.015404	-0.521588	-0.138167
C36	C	1.145808	-0.000089	-0.108880
C37	C	1.239054	-0.000092	-0.110542
C38	C	0.998363	-0.000086	0.038565
C39	C	0.996701	-0.000086	0.131811
N40	N	1.002171	0.204690	-0.124917
C41	C	0.986117	-0.000067	-0.268574
C42	C	0.987779	-0.000061	-0.361820
C43	C	0.912798	-0.000067	0.346667
C44	C	0.948319	-0.071016	0.411121
C45	C	0.993694	-0.000079	0.302536
C46	C	0.955218	0.070847	0.404232
C47	C	0.990784	-0.000069	0.467449
C48	C	1.029235	-0.071087	0.365765
C49	C	1.036126	0.070840	0.358867
C50	C	1.071705	-0.000127	0.423304
C51	C	0.995368	-0.000086	0.207534
C52	C	0.989116	-0.000068	0.562450
H53	H	0.563905	0.000005	0.031573
H54	H	0.455787	0.130846	-0.046649
C55	C	1.108928	-0.799813	-0.231764
C56	C	1.104116	-0.899438	-0.226946
C57	C	1.157743	-0.949238	-0.280619
C58	C	1.216182	-0.899413	-0.339109
C59	C	1.220996	-0.799783	-0.343929
C60	C	1.167369	-0.749983	-0.290257
H61	H	1.060853	-0.936326	-0.183647
H62	H	1.154178	-1.022992	-0.277050
H63	H	1.255880	-0.936278	-0.378840
H64	H	1.264259	-0.762894	-0.387229
H65	H	1.170934	-0.676229	-0.293825
C66	C	0.910635	-0.528392	-0.033340
C67	C	0.814804	-0.515942	-0.046272
C68	C	0.756349	-0.565764	0.012211
C69	C	0.793723	-0.628035	0.083625
C70	C	0.889559	-0.640488	0.096560
C71	C	0.948014	-0.590666	0.038077
H72	H	0.787133	-0.469843	-0.099140
H73	H	0.685405	-0.556545	0.002635
H74	H	0.750451	-0.664915	0.126917
H75	H	0.917230	-0.686587	0.149428
H76	H	1.018958	-0.599885	0.047653
C77	C	0.912911	0.151879	0.427442
C78	C	0.950325	0.242593	0.404034
C79	C	0.908011	0.323621	0.427238
C80	C	0.828282	0.313935	0.473852
C81	C	0.790863	0.223217	0.497263
C82	C	0.833177	0.142189	0.474058
H83	H	1.009349	0.249767	0.369525
H84	H	0.935711	0.390777	0.409907
H85	H	0.796958	0.373916	0.491029
H86	H	0.731839	0.216043	0.531771
H87	H	0.805477	0.075034	0.491389
C88	C	0.822084	-0.000149	0.301667
C89	C	0.807040	0.000603	0.204515
C90	C	0.716330	0.000516	0.159514
C91	C	0.640664	-0.000322	0.211665
C92	C	0.655706	-0.001073	0.308823
C93	C	0.746416	-0.000987	0.353824
H94	H	0.863054	0.001223	0.165904
H95	H	0.705195	0.001073	0.087591
H96	H	0.573515	-0.000386	0.178353
H97	H	0.599692	-0.001694	0.347434
H98	H	0.757551	-0.001544	0.425747
H99	H	1.060510	-0.131136	0.348683
H100	H	1.073221	0.130819	0.335832
C101	C	1.118124	-0.609620	-0.240968
C102	C	1.189553	-0.547353	-0.203632
C103	C	1.248001	-0.497536	-0.262125
C104	C	1.235021	-0.509986	-0.357953
C105	C	1.163589	-0.572256	-0.395294
C106	C	1.105141	-0.622073	-0.336802
H107	H	1.199164	-0.538134	-0.132690
H108	H	1.300880	-0.451439	-0.234483
H109	H	1.278288	-0.473109	-0.401253
H110	H	1.153978	-0.581475	-0.466236
H111	H	1.052263	-0.668170	-0.364444
C112	C	0.409125	0.000039	-0.285262
C113	C	0.427174	0.075155	-0.349080
C114	C	0.382357	0.075224	-0.439864
C115	C	0.319492	0.000178	-0.466831
C116	C	0.301440	-0.074944	-0.403012
C117	C	0.346257	-0.075013	-0.312228
H118	H	0.473713	0.130714	-0.329119
H119	H	0.395721	0.130835	-0.487107
H120	H	0.286316	0.000229	-0.534034
H121	H	0.254901	-0.130503	-0.422973
H122	H	0.332894	-0.130623	-0.264985
H123	H	0.541251	0.130986	-0.195982
H124	H	1.058665	-0.484703	-0.181457
H125	H	1.066393	-0.377551	-0.189207
H126	H	0.910151	-0.786914	-0.032831
H127	H	0.528720	-0.130967	-0.183299
C128	C	0.875560	-0.200333	0.001760
C129	C	0.880377	-0.100708	-0.003059
C130	C	0.826750	-0.050904	0.050610
C131	C	0.768305	-0.100725	0.109097
C132	C	0.763486	-0.200355	0.113918
C133	C	0.817113	-0.250160	0.060250
H134	H	0.923644	-0.063823	-0.046357
H135	H	0.830318	0.022849	0.047040
H136	H	0.728607	-0.063857	0.148826
H137	H	0.720220	-0.237241	0.157216
H138	H	0.813545	-0.323913	0.063819
H139	H	1.074325	-0.213245	-0.197175
C140	C	0.435066	-0.152026	-0.020947
C141	C	0.498669	-0.217800	0.019109
C142	C	0.467608	-0.298826	0.069275
C143	C	0.372944	-0.314079	0.079386
C144	C	0.309335	-0.248303	0.039329
C145	C	0.340397	-0.167277	-0.010838
H146	H	0.568750	-0.206510	0.011625
H147	H	0.514696	-0.347517	0.098928
H148	H	0.349951	-0.374060	0.116522
H149	H	0.239254	-0.259593	0.046812
H150	H	0.293309	-0.118586	-0.040491
C151	C	0.866361	-0.390539	0.010965
C152	C	0.903735	-0.452819	0.082372
C153	C	0.845280	-0.502648	0.140849
C154	C	0.749449	-0.490197	0.127920
C155	C	0.712070	-0.427914	0.056510
C156	C	0.770526	-0.378085	-0.001967
H157	H	0.974679	-0.462038	0.091946
H158	H	0.872951	-0.548754	0.193711
H159	H	0.706177	-0.527083	0.171208
H160	H	0.641126	-0.418694	0.046936
H161	H	0.742854	-0.331979	-0.054829
H162	H	0.918102	-0.622608	-0.040778
H163	H	0.911194	-0.130993	0.434134
H164	H	1.138910	-0.000173	0.456465
