data_functionalizedCrystal
_audit_creation_method	'MofGen! by Chris Wilmer'
_symmetry_space_group_name_H-M	'P1'
_symmetry_Int_Tables_number	1
_symmetry_cell_setting	triclinic
loop_
_symmetry_equiv_pos_as_xyz
  x,y,z
_cell_length_a	23.532407
_cell_length_b	23.532407
_cell_length_c	12.996460
_cell_angle_alpha	89.989202
_cell_angle_beta	89.999749
_cell_angle_gamma	82.848678
loop_
_atom_site_label
_atom_site_type_symbol
_atom_site_fract_x
_atom_site_fract_y
_atom_site_fract_z
O1	O	0.755260	0.069136	-0.085449
O2	O	1.088594	0.402469	0.247885
O3	O	1.421927	0.735803	0.581218
O4	O	0.589397	0.079139	-0.085480
O5	O	0.922730	0.412472	0.247853
O6	O	1.256064	0.745806	0.581186
O7	O	0.677330	-0.008794	-0.085445
O8	O	1.010664	0.324539	0.247889
O9	O	1.343997	0.657872	0.581222
O10	O	0.667327	0.157069	-0.085484
O11	O	1.000660	0.490402	0.247849
O12	O	1.333994	0.823736	0.581182
O13	O	0.677321	-0.008799	0.085689
O14	O	1.010654	0.324534	0.419022
O15	O	1.343988	0.657868	0.752356
O16	O	0.589388	0.079134	0.085653
O17	O	0.922721	0.412468	0.418987
O18	O	1.256054	0.745801	0.752320
O19	O	0.755251	0.069131	0.085685
O20	O	1.088585	0.402464	0.419018
O21	O	1.421918	0.735798	0.752352
Cu22	Cu	0.672319	0.074132	0.101295
Cu23	Cu	1.005652	0.407466	0.434628
Cu24	Cu	1.338985	0.740799	0.767962
Cu25	Cu	0.672329	0.074138	-0.101091
Cu26	Cu	1.005663	0.407471	0.232243
Cu27	Cu	1.338996	0.740805	0.565576
O28	O	0.667318	0.157064	0.085649
O29	O	1.000651	0.490398	0.418983
O30	O	1.333985	0.823731	0.752316
C31	C	0.568176	0.078882	0.000083
C32	C	0.901510	0.412215	0.333416
C33	C	1.234843	0.745549	0.666749
C34	C	0.504959	0.078116	0.000071
C35	C	0.838293	0.411449	0.333405
C36	C	1.171626	0.744783	0.666738
C37	C	0.105856	0.125350	0.000107
C38	C	0.439190	0.458683	0.333440
C39	C	0.772523	0.792016	0.666773
C40	C	0.046456	0.124638	0.000113
C41	C	0.379789	0.457971	0.333447
C42	C	0.713123	0.791305	0.666780
O43	O	0.009711	0.168424	0.000140
O44	O	0.343045	0.501757	0.333473
O45	O	0.676378	0.835091	0.666807
N46	N	0.023830	0.072362	0.000124
N47	N	0.357163	0.405695	0.333457
N48	N	0.690496	0.739028	0.666791
C49	C	0.060607	0.020794	0.000139
C50	C	0.393941	0.354127	0.333472
C51	C	0.727274	0.687460	0.666805
O52	O	0.035908	-0.023737	0.000149
O53	O	0.369241	0.309596	0.333483
O54	O	0.702574	0.642930	0.666816
C55	C	0.120006	0.021506	0.000140
C56	C	0.453340	0.354839	0.333473
C57	C	0.786673	0.688172	0.666806
C58	C	0.142629	0.073785	0.000118
C59	C	0.475962	0.407119	0.333452
C60	C	0.809296	0.740452	0.666785
C61	C	0.128479	0.177625	0.000087
C62	C	0.461813	0.510958	0.333420
C63	C	0.795146	0.844292	0.666753
C64	C	0.187876	0.178336	0.000078
C65	C	0.521209	0.511670	0.333412
C66	C	0.854542	0.845003	0.666745
C67	C	0.224649	0.126772	0.000090
C68	C	0.557982	0.460105	0.333423
C69	C	0.891315	0.793439	0.666757
C70	C	0.202025	0.074496	0.000110
C71	C	0.535359	0.407830	0.333443
C72	C	0.868692	0.741163	0.666777
C73	C	0.156783	-0.030062	0.000162
C74	C	0.490116	0.303271	0.333495
C75	C	0.823450	0.636605	0.666828
C76	C	0.216185	-0.029345	0.000163
C77	C	0.549519	0.303988	0.333497
C78	C	0.882852	0.637321	0.666830
C79	C	0.238808	0.022934	0.000142
C80	C	0.572141	0.356268	0.333476
C81	C	0.905475	0.689601	0.666809
C82	C	0.298194	0.023643	0.000113
C83	C	0.631528	0.356977	0.333447
C84	C	0.964861	0.690310	0.666780
N85	N	0.320820	0.075920	0.000103
N86	N	0.654154	0.409253	0.333436
N87	N	0.987487	0.742586	0.666769
C88	C	0.284048	0.127484	0.000091
C89	C	0.617381	0.460817	0.333424
C90	C	0.950714	0.794151	0.666758
C91	C	-0.064135	0.019302	0.000139
C92	C	0.269198	0.352635	0.333472
C93	C	0.602532	0.685969	0.666805
C94	C	-0.123533	0.018589	0.000130
C95	C	0.209800	0.351923	0.333464
C96	C	0.543134	0.685256	0.666797
C97	C	-0.137680	0.122434	0.000107
C98	C	0.195653	0.455768	0.333440
C99	C	0.528986	0.789101	0.666773
C100	C	-0.078281	0.123146	0.000108
C101	C	0.255052	0.456480	0.333441
C102	C	0.588385	0.789813	0.666774
C103	C	-0.041509	0.071578	0.000128
C104	C	0.291824	0.404912	0.333461
C105	C	0.625158	0.738245	0.666795
C106	C	0.408784	0.128974	0.000072
C107	C	0.742118	0.462307	0.333406
C108	C	1.075451	0.795640	0.666739
C109	C	0.468186	0.129680	0.000060
C110	C	0.801520	0.463014	0.333393
C111	C	1.134853	0.796347	0.666726
C112	C	0.482329	0.025836	0.000089
C113	C	0.815662	0.359169	0.333422
C114	C	1.148995	0.692503	0.666755
C115	C	0.422932	0.025129	0.000096
C116	C	0.756265	0.358462	0.333429
C117	C	1.089598	0.691796	0.666763
C118	C	0.386160	0.076702	0.000091
C119	C	0.719494	0.410036	0.333425
C120	C	1.052827	0.743369	0.666758
O121	O	0.334974	-0.020119	0.000091
O122	O	0.668307	0.313214	0.333424
O123	O	1.001640	0.646547	0.666757
O124	O	0.308755	0.172007	0.000094
O125	O	0.642089	0.505340	0.333427
O126	O	0.975422	0.838674	0.666760
C127	C	0.677071	-0.030013	0.000125
C128	C	1.010404	0.303321	0.333458
C129	C	1.343738	0.636654	0.666791
C130	C	0.676305	-0.093230	0.000132
C131	C	1.009638	0.240104	0.333466
C132	C	1.342972	0.573437	0.666799
C133	C	0.723539	-0.492333	0.000085
C134	C	1.056872	-0.158999	0.333418
C135	C	1.390205	0.174334	0.666752
C136	C	0.722827	-0.551733	0.000077
C137	C	1.056160	-0.218400	0.333410
C138	C	1.389494	0.114934	0.666744
O139	O	0.766613	-0.588478	0.000047
O140	O	1.099946	-0.255144	0.333381
O141	O	1.433280	0.078189	0.666714
N142	N	0.670551	-0.574359	0.000068
N143	N	1.003884	-0.241026	0.333401
N144	N	1.337217	0.092307	0.666735
C145	C	0.618983	-0.537582	0.000056
C146	C	0.952316	-0.204248	0.333389
C147	C	1.285649	0.129085	0.666723
O148	O	0.574452	-0.562281	0.000047
O149	O	0.907785	-0.228948	0.333380
O150	O	1.241119	0.104385	0.666713
C151	C	0.619695	-0.478182	0.000057
C152	C	0.953028	-0.144849	0.333390
C153	C	1.286361	0.188484	0.666723
C154	C	0.671974	-0.455560	0.000076
C155	C	1.005308	-0.122227	0.333410
C156	C	1.338641	0.211107	0.666743
C157	C	0.775814	-0.469710	0.000104
C158	C	1.109147	-0.136376	0.333437
C159	C	1.442481	0.196957	0.666770
C160	C	0.776525	-0.410313	0.000113
C161	C	1.109859	-0.076980	0.333447
C162	C	1.443192	0.256353	0.666780
C163	C	0.724961	-0.373540	0.000105
C164	C	1.058294	-0.040207	0.333438
C165	C	1.391628	0.293126	0.666771
C166	C	0.672685	-0.396164	0.000086
C167	C	1.006019	-0.062830	0.333420
C168	C	1.339352	0.270503	0.666753
C169	C	0.568127	-0.441406	0.000038
C170	C	0.901460	-0.108073	0.333371
C171	C	1.234794	0.225261	0.666704
C172	C	0.568844	-0.382004	0.000037
C173	C	0.902177	-0.048670	0.333371
C174	C	1.235510	0.284663	0.666704
C175	C	0.621123	-0.359381	0.000057
C176	C	0.954457	-0.026048	0.333390
C177	C	1.287790	0.307286	0.666724
C178	C	0.621832	-0.299995	0.000087
C179	C	0.955166	0.033339	0.333421
C180	C	1.288499	0.366672	0.666754
N181	N	0.674109	-0.277368	0.000097
N182	N	1.007442	0.055965	0.333430
N183	N	1.340775	0.389298	0.666763
C184	C	0.725673	-0.314141	0.000105
C185	C	1.059006	0.019192	0.333439
C186	C	1.392340	0.352525	0.666772
C187	C	0.617491	-0.662324	0.000053
C188	C	0.950824	-0.328991	0.333386
C189	C	1.284158	0.004343	0.666720
C190	C	0.616778	-0.721722	0.000060
C191	C	0.950112	-0.388389	0.333393
C192	C	1.283445	-0.055055	0.666727
C193	C	0.720623	-0.735869	0.000079
C194	C	1.053957	-0.402536	0.333412
C195	C	1.387290	-0.069203	0.666746
C196	C	0.721335	-0.676470	0.000080
C197	C	1.054669	-0.343137	0.333413
C198	C	1.388002	-0.009804	0.666746
C199	C	0.669767	-0.639698	0.000062
C200	C	1.003101	-0.306365	0.333396
C201	C	1.336434	0.026969	0.666729
C202	C	0.727163	-0.189405	0.000127
C203	C	1.060496	0.143929	0.333460
C204	C	1.393829	0.477262	0.666794
C205	C	0.727869	-0.130003	0.000141
C206	C	1.061203	0.203331	0.333474
C207	C	1.394536	0.536664	0.666808
C208	C	0.624025	-0.115860	0.000117
C209	C	0.957358	0.217473	0.333450
C210	C	1.290692	0.550806	0.666783
C211	C	0.623318	-0.175257	0.000108
C212	C	0.956651	0.158076	0.333441
C213	C	1.289985	0.491409	0.666775
C214	C	0.674891	-0.212029	0.000110
C215	C	1.008225	0.121305	0.333443
C216	C	1.341558	0.454638	0.666776
O217	O	0.578070	-0.263215	0.000113
O218	O	0.911403	0.070118	0.333446
O219	O	1.244736	0.403451	0.666780
O220	O	0.770196	-0.289433	0.000101
O221	O	1.103529	0.043900	0.333435
O222	O	1.436863	0.377233	0.666768
C223	C	0.776472	0.069388	0.000120
C224	C	1.109805	0.402722	0.333453
C225	C	1.443138	0.736055	0.666786
C226	C	0.839689	0.070154	0.000124
C227	C	1.173022	0.403487	0.333457
C228	C	1.506355	0.736821	0.666791
C229	C	0.667577	0.178283	0.000078
C230	C	1.000910	0.511616	0.333411
C231	C	1.334244	0.844949	0.666744
C232	C	0.668343	0.241500	0.000063
C233	C	1.001676	0.574833	0.333396
C234	C	1.335010	0.908167	0.666730
N235	N	0.672315	0.074128	0.243642
N236	N	1.005649	0.407461	0.576975
N237	N	1.338982	0.740795	0.910309
N238	N	0.672337	0.074138	-0.243438
N239	N	1.005671	0.407471	0.089896
N240	N	1.339004	0.740804	0.423229
C241	C	0.672329	0.074138	0.663456
C242	C	1.005662	0.407472	0.996790
C243	C	1.338995	0.740805	1.330123
C244	C	0.672323	0.074137	0.546651
C245	C	1.005657	0.407471	0.879985
C246	C	1.338990	0.740804	1.213318
C247	C	0.672322	0.074134	0.453553
C248	C	1.005656	0.407467	0.786886
C249	C	1.338989	0.740800	1.120220
C250	C	0.672316	0.074132	0.336740
C251	C	1.005650	0.407465	0.670074
C252	C	1.338983	0.740798	1.003407
H253	H	-0.059867	0.165717	0.000096
H254	H	0.273467	0.499050	0.333430
H255	H	0.606800	0.832384	0.666763
F256	F	0.211944	0.233980	0.000061
F257	F	0.545278	0.567313	0.333394
F258	F	0.878611	0.900647	0.666727
H259	H	0.486602	0.172255	0.000042
H260	H	0.819935	0.505588	0.333375
H261	H	1.153269	0.838921	0.666708
F262	F	-0.176827	0.177314	0.000098
F263	F	0.156506	0.510647	0.333432
F264	F	0.489839	0.843981	0.666765
F265	F	0.369658	0.183864	0.000068
F266	F	0.702991	0.517198	0.333401
F267	F	1.036324	0.850531	0.666735
H268	H	0.512280	-0.016146	0.000094
H269	H	0.845613	0.317187	0.333428
H270	H	1.178946	0.650520	0.666761
H271	H	-0.141947	-0.023982	0.000132
H272	H	0.191387	0.309351	0.333465
H273	H	0.524720	0.642685	0.666798
F274	F	-0.025003	-0.035587	0.000150
F275	F	0.308330	0.297746	0.333484
F276	F	0.641663	0.631079	0.666817
F277	F	0.089351	0.232512	0.000074
F278	F	0.422684	0.565845	0.333408
F279	F	0.756017	0.899179	0.666741
H280	H	0.526850	-0.352066	0.000022
H281	H	0.860183	-0.018732	0.333355
H282	H	1.193516	0.314601	0.666689
H283	H	0.575496	-0.632386	0.000048
H284	H	0.908829	-0.299053	0.333381
H285	H	1.242162	0.034280	0.666715
H286	H	0.819097	-0.391900	0.000125
H287	H	1.152430	-0.058567	0.333459
H288	H	1.485763	0.274767	0.666792
F289	F	0.561135	-0.745792	0.000057
F290	F	0.894469	-0.412459	0.333391
F291	F	1.227802	-0.079125	0.666724
H292	H	0.817806	-0.499645	0.000107
H293	H	1.151140	-0.166312	0.333440
H294	H	1.484473	0.167022	0.666774
F295	F	0.776978	-0.652399	0.000100
F296	F	1.110311	-0.319066	0.333434
F297	F	1.443644	0.014267	0.666767
F298	F	0.512483	-0.465469	0.000012
F299	F	0.845816	-0.132136	0.333346
F300	F	1.179150	0.201197	0.666679
H301	H	0.138375	-0.072634	0.000180
H302	H	0.471708	0.260700	0.333513
H303	H	0.805041	0.594033	0.666847
H304	H	0.246123	-0.071339	0.000181
H305	H	0.579457	0.261994	0.333514
H306	H	0.912790	0.595327	0.666847
H307	H	0.762610	-0.765821	0.000082
H308	H	1.095943	-0.432488	0.333415
H309	H	1.429276	-0.099154	0.666749
F310	F	0.398854	-0.030513	0.000119
F311	F	0.732188	0.302821	0.333452
F312	F	1.065521	0.636154	0.666786
H313	H	0.770443	-0.111587	0.000160
H314	H	1.103777	0.221746	0.333493
H315	H	1.437110	0.555080	0.666826
H316	H	0.769159	-0.219337	0.000124
H317	H	1.102492	0.113996	0.333458
H318	H	1.435826	0.447329	0.666791
F319	F	0.567676	-0.199335	0.000105
F320	F	0.901010	0.133999	0.333439
F321	F	1.234343	0.467332	0.666772
H322	H	0.582043	-0.085909	0.000113
H323	H	0.915376	0.247424	0.333447
H324	H	1.248709	0.580757	0.666780
