data_functionalizedCrystal
_audit_creation_method	'MofGen! by Chris Wilmer'
_symmetry_space_group_name_H-M	'P1'
_symmetry_Int_Tables_number	1
_symmetry_cell_setting	triclinic
loop_
_symmetry_equiv_pos_as_xyz
  x,y,z
_cell_length_a	16.992694
_cell_length_b	13.101039
_cell_length_c	16.992695
_cell_angle_alpha	86.408978
_cell_angle_beta	90.668223
_cell_angle_gamma	93.581737
loop_
_atom_site_label
_atom_site_type_symbol
_atom_site_fract_x
_atom_site_fract_y
_atom_site_fract_z
O1	O	1.054903	0.085087	0.162849
O2	O	0.826504	0.085117	0.161017
O3	O	0.939787	0.085094	0.047733
O4	O	0.941619	0.085110	0.276133
O5	O	0.931660	-0.085335	0.055876
O6	O	0.818377	-0.085311	0.169159
O7	O	1.046776	-0.085342	0.170992
Zn8	Zn	0.931286	-0.112386	0.171368
Zn9	Zn	0.941994	0.112161	0.160640
O10	O	0.933492	-0.085319	0.284275
C11	C	0.793081	-0.000094	0.162732
C12	C	0.705597	-0.000082	0.155703
N13	N	0.923984	-0.265633	0.178689
C14	C	0.659606	-0.000078	0.223520
C15	C	0.577404	-0.000093	0.216912
C16	C	0.541196	-0.000104	0.142485
C17	C	0.587192	-0.000111	0.074662
C18	C	0.669392	-0.000104	0.081272
C19	C	0.295880	-0.000133	0.115092
C20	C	0.213674	-0.000138	0.108488
C21	C	0.203892	-0.000121	0.250738
C22	C	0.286094	-0.000108	0.257341
C23	C	0.332083	-0.000120	0.189518
N24	N	0.457173	-0.000116	0.135728
N25	N	0.416104	-0.000116	0.196276
C26	C	0.914050	-0.474673	0.188658
C27	C	0.959233	-0.525558	0.143347
C28	C	0.953706	-0.641876	0.148894
C29	C	0.919576	-0.358345	0.183112
C30	C	1.080199	-0.000129	0.169276
C31	C	1.167684	-0.000134	0.176305
C32	C	0.933368	-0.000120	0.022444
C33	C	0.926339	-0.000119	-0.065040
N34	N	0.949302	0.265408	0.153313
C35	C	0.994157	-0.000129	-0.111031
C36	C	0.987549	-0.000118	-0.193232
C37	C	0.913122	-0.000105	-0.229441
C38	C	0.845299	-0.000092	-0.183445
C39	C	0.851909	-0.000095	-0.101245
C40	C	0.885728	-0.000087	-0.474756
C41	C	0.879123	-0.000087	-0.556961
C42	C	1.021373	-0.000112	-0.566743
C43	C	1.027976	-0.000121	-0.484542
C44	C	0.960154	-0.000102	-0.438553
N45	N	0.906365	-0.000097	-0.313464
N46	N	0.966912	-0.000103	-0.354532
C47	C	0.939912	-0.000103	0.309564
C48	C	0.946941	-0.000097	0.397048
H49	H	0.689081	-0.000068	0.284127
Cl50	Cl	0.353684	-0.000148	0.029828
Cl51	Cl	1.025686	-0.457950	0.077345
Cl52	Cl	0.541672	-0.000132	-0.018904
Cl53	Cl	1.087727	-0.000156	-0.065519
Cl54	Cl	0.800465	-0.000061	-0.416952
Cl55	Cl	0.519591	-0.000082	0.302173
H56	H	0.315570	-0.000087	0.317946
H57	H	0.706837	-0.000106	0.026047
H58	H	1.042773	-0.000129	-0.230674
H59	H	0.796684	-0.000087	-0.063800
H60	H	0.871219	-0.518462	0.231612
H61	H	1.088582	-0.000132	-0.455066
H62	H	0.166439	-0.000113	0.305955
H63	H	1.076590	-0.000125	-0.604196
H64	H	0.818512	-0.000093	-0.586439
H65	H	0.184196	-0.000146	0.047877
Cl66	Cl	0.751734	-0.000063	-0.228965
