data_functionalizedCrystal
_audit_creation_method	'MofGen! by Chris Wilmer'
_symmetry_space_group_name_H-M	'P1'
_symmetry_Int_Tables_number	1
_symmetry_cell_setting	triclinic
loop_
_symmetry_equiv_pos_as_xyz
  x,y,z
_cell_length_a	19.188925
_cell_length_b	19.188930
_cell_length_c	9.565339
_cell_angle_alpha	89.995116
_cell_angle_beta	89.995513
_cell_angle_gamma	83.143665
loop_
_atom_site_label
_atom_site_type_symbol
_atom_site_fract_x
_atom_site_fract_y
_atom_site_fract_z
O1	O	0.926147	0.087144	-0.116306
O2	O	1.426147	0.587144	0.383694
O3	O	0.722835	0.098883	-0.116304
O4	O	1.222835	0.598883	0.383696
O5	O	0.830358	-0.008642	-0.116278
O6	O	1.330358	0.491358	0.383722
O7	O	0.818624	0.194669	-0.116332
O8	O	1.318624	0.694669	0.383668
O9	O	0.830350	-0.008635	0.116243
O10	O	1.330350	0.491365	0.616243
O11	O	0.722827	0.098889	0.116216
O12	O	1.222827	0.598889	0.616216
O13	O	0.926138	0.087151	0.116214
O14	O	1.426138	0.587151	0.616214
Zn15	Zn	0.824481	0.093021	0.153133
Zn16	Zn	1.324481	0.593021	0.653133
Zn17	Zn	0.824492	0.093012	-0.153222
Zn18	Zn	1.324492	0.593012	0.346778
O19	O	0.818615	0.194676	0.116188
O20	O	1.318615	0.694676	0.616188
C21	C	0.696820	0.098507	-0.000043
C22	C	1.196820	0.598507	0.499957
C23	C	0.619315	0.097367	-0.000041
C24	C	1.119315	0.597367	0.499959
C25	C	0.057545	0.152831	-0.000060
C26	C	0.557545	0.652831	0.499940
C27	C	0.130368	0.153908	-0.000067
C28	C	0.630368	0.653908	0.499933
C29	C	0.175302	0.090816	-0.000048
C30	C	0.675302	0.590816	0.499952
C31	C	0.147408	0.026642	-0.000057
C32	C	0.647408	0.526642	0.499943
C33	C	0.074586	0.025568	-0.000063
C34	C	0.574586	0.525568	0.499937
N35	N	0.295977	0.045142	0.079116
N36	N	0.795977	0.545142	0.579116
N37	N	0.365154	0.046167	0.079125
N38	N	0.865154	0.546167	0.579125
C39	C	0.394712	0.094050	-0.000032
C40	C	0.894712	0.594050	0.499968
N41	N	0.352477	0.140879	-0.079181
N42	N	0.852477	0.640879	0.420819
N43	N	0.283293	0.139856	-0.079184
N44	N	0.783293	0.639856	0.420816
C45	C	0.254267	0.091974	-0.000042
C46	C	0.754267	0.591974	0.499958
C47	C	0.501561	0.159386	-0.000042
C48	C	1.001561	0.659386	0.499958
C49	C	0.574385	0.160460	-0.000059
C50	C	1.074385	0.660460	0.499941
C51	C	0.591425	0.033193	-0.000034
C52	C	1.091425	0.533193	0.499966
C53	C	0.518601	0.032121	-0.000031
C54	C	1.018601	0.532121	0.499969
C55	C	0.473673	0.095220	-0.000029
C56	C	0.973673	0.595220	0.499971
C57	C	0.829974	-0.034650	-0.000013
C58	C	1.329974	0.465350	0.499987
C59	C	0.828833	-0.112154	-0.000001
C60	C	1.328833	0.387846	0.499999
C61	C	0.891924	-0.157079	0.000005
C62	C	1.391924	0.342921	0.500005
C63	C	0.890852	-0.229903	-0.000018
C64	C	1.390852	0.270097	0.499982
C65	C	0.826686	-0.257799	-0.000018
C66	C	1.326686	0.242201	0.499982
C67	C	0.763587	-0.212864	-0.000032
C68	C	1.263587	0.287136	0.499968
C69	C	0.764660	-0.140041	-0.000024
C70	C	1.264660	0.359959	0.499976
N71	N	0.777636	-0.365800	0.079113
N72	N	1.277636	0.134200	0.579113
N73	N	0.776620	-0.434979	0.079108
N74	N	1.276620	0.065021	0.579108
C75	C	0.823448	-0.477207	-0.000046
C76	C	1.323448	0.022793	0.499954
N77	N	0.871340	-0.447645	-0.079178
N78	N	1.371340	0.052355	0.420822
N79	N	0.872358	-0.378460	-0.079167
N80	N	1.372358	0.121540	0.420833
C81	C	0.825515	-0.336761	-0.000028
C82	C	1.325515	0.163239	0.499972
C83	C	0.885381	-0.601097	-0.000067
C84	C	1.385381	-0.101097	0.499933
C85	C	0.884307	-0.673922	-0.000098
C86	C	1.384307	-0.173922	0.499902
C87	C	0.757040	-0.656880	-0.000098
C88	C	1.257040	-0.156880	0.499902
C89	C	0.758116	-0.584057	-0.000081
C90	C	1.258116	-0.084057	0.499919
C91	C	0.822289	-0.556170	-0.000059
C92	C	1.322289	-0.056170	0.499941
C93	C	0.952154	0.087527	-0.000049
C94	C	1.452154	0.587527	0.499951
C95	C	1.029658	0.088666	-0.000060
C96	C	1.529658	0.588666	0.499940
C97	C	0.819000	0.220684	-0.000079
C98	C	1.319000	0.720684	0.499921
C99	C	0.820140	0.298188	-0.000100
C100	C	1.320140	0.798188	0.499900
N101	N	0.824479	0.093027	0.362212
N102	N	1.324479	0.593027	0.862212
N103	N	0.824500	0.093001	-0.362302
N104	N	1.324500	0.593001	0.137698
C105	C	0.774738	0.142737	0.453403
C106	C	1.274738	0.642737	0.953403
C107	C	0.837790	0.156091	0.546577
C108	C	1.337790	0.656091	1.046577
C109	C	0.761454	0.079678	0.546594
C110	C	1.261454	0.579678	1.046594
C111	C	0.887562	0.106412	0.453334
C112	C	1.387562	0.606412	0.953334
C113	C	0.811185	0.029972	0.453343
C114	C	1.311185	0.529972	0.953343
C115	C	0.874282	0.043299	0.546475
C116	C	1.374282	0.543299	1.046475
H117	H	0.628010	-0.018178	-0.000029
H118	H	1.128010	0.481822	0.499971
F119	F	0.695297	-0.242553	-0.000042
F120	F	1.195297	0.257447	0.499958
H121	H	0.464978	0.210765	-0.000043
H122	H	0.964978	0.710765	0.499957
F123	F	0.796443	-0.039690	0.399769
F124	F	1.296443	0.460310	0.899769
H125	H	0.495896	-0.020129	-0.000024
H126	H	0.995896	0.479871	0.499976
F127	F	0.852507	0.225774	0.600107
F128	F	1.352507	0.725774	1.100107
F129	F	0.691777	0.064934	0.600141
F130	F	1.191777	0.564934	1.100141
H131	H	0.937635	-0.578390	-0.000055
H132	H	1.437635	-0.078390	0.499945
H133	H	0.020968	0.204211	-0.000064
H134	H	0.520968	0.704211	0.499936
F135	F	0.957256	0.121237	0.400022
F136	F	1.457256	0.621237	0.900022
H137	H	0.153078	0.206160	-0.000054
H138	H	0.653078	0.706160	0.499946
F139	F	0.195232	-0.040505	-0.000041
F140	F	0.695232	0.459495	0.499959
H141	H	0.051883	-0.026685	-0.000064
H142	H	0.551883	0.473315	0.499936
F143	F	0.960223	-0.127404	-0.000002
F144	F	1.460223	0.372596	0.499998
H145	H	0.916402	0.001247	0.587084
H146	H	1.416402	0.501247	1.087084
F147	F	0.958005	-0.277725	-0.000013
F148	F	1.458005	0.222275	0.499987
F149	F	0.697507	-0.092227	-0.000031
F150	F	1.197507	0.407773	0.499969
H151	H	0.935686	-0.710500	-0.000100
H152	H	1.435686	-0.210500	0.499900
F153	F	0.688749	-0.686564	-0.000106
F154	F	1.188749	-0.186564	0.499894
H155	H	0.597088	0.212713	-0.000070
H156	H	1.097088	0.712713	0.499930
H157	H	0.706740	-0.547478	-0.000078
H158	H	1.206740	-0.047478	0.499922
F159	F	0.719807	0.197732	0.399982
F160	F	1.219807	0.697732	0.899982
