data_functionalizedCrystal
_audit_creation_method	'MofGen! by Chris Wilmer'
_symmetry_space_group_name_H-M	'P1'
_symmetry_Int_Tables_number	1
_symmetry_cell_setting	triclinic
loop_
_symmetry_equiv_pos_as_xyz
  x,y,z
_cell_length_a	13.897449
_cell_length_b	21.295417
_cell_length_c	13.897441
_cell_angle_alpha	89.964549
_cell_angle_beta	89.978743
_cell_angle_gamma	90.031333
loop_
_atom_site_label
_atom_site_type_symbol
_atom_site_fract_x
_atom_site_fract_y
_atom_site_fract_z
Zn1	Zn	1.474596	-0.250581	-0.545411
Zn2	Zn	1.974596	0.249419	-0.045411
Zn3	Zn	1.474460	-0.355858	-0.384096
Zn4	Zn	1.974460	0.144142	0.115904
Zn5	Zn	1.313292	-0.250609	-0.384121
Zn6	Zn	1.813292	0.249391	0.115879
Zn7	Zn	1.313231	-0.355818	-0.545341
Zn8	Zn	1.813231	0.144182	-0.045341
O9	O	1.393895	-0.303217	-0.464742
O10	O	1.893895	0.196783	0.035258
O11	O	1.609560	-0.264552	-0.524030
O12	O	2.109560	0.235448	-0.024030
O13	O	1.453049	-0.341925	-0.249117
O14	O	1.953049	0.158075	0.250883
O15	O	1.334771	-0.162516	-0.405557
O16	O	1.834771	0.337484	0.094443
O17	O	1.609460	-0.341899	-0.405513
O18	O	2.109460	0.158101	0.094487
O19	O	1.453281	-0.162496	-0.524055
O20	O	1.953281	0.337504	-0.024055
O21	O	1.334639	-0.264599	-0.249136
O22	O	1.834639	0.235401	0.250864
O23	O	1.178302	-0.264559	-0.405489
O24	O	1.678302	0.235441	0.094511
O25	O	1.334668	-0.341830	-0.680332
O26	O	1.834668	0.158170	-0.180332
O27	O	1.178258	-0.341856	-0.523936
O28	O	1.678258	0.158144	-0.023936
O29	O	1.453223	-0.264513	-0.680383
O30	O	1.953223	0.235487	-0.180383
O31	O	1.452991	-0.443943	-0.405445
O32	O	1.952991	0.056057	0.094555
O33	O	1.334536	-0.443913	-0.523911
O34	O	1.834536	0.056087	-0.023911
C35	C	1.143281	-0.303207	-0.464708
C36	C	1.643281	0.196793	0.035292
C37	C	1.036067	-0.303218	-0.464717
C38	C	1.536067	0.196782	0.035283
C39	C	0.948997	-0.303220	-0.464733
C40	C	1.448997	0.196780	0.035267
C41	C	0.839764	-0.303224	-0.464762
C42	C	1.339764	0.196776	0.035238
C43	C	1.393768	-0.466768	-0.464689
C44	C	1.893768	0.033232	0.035311
C45	C	1.393803	-0.536736	-0.464698
C46	C	1.893803	-0.036736	0.035302
C47	C	1.455537	-0.569598	-0.403076
C48	C	1.955537	-0.069598	0.096924
C49	C	1.455582	-0.635340	-0.403098
C50	C	1.955582	-0.135340	0.096902
C51	C	1.393876	-0.668219	-0.464731
C52	C	1.893876	-0.168219	0.035269
C53	C	1.332137	-0.635350	-0.526365
C54	C	1.832137	-0.135350	-0.026365
C55	C	1.332101	-0.569608	-0.526349
C56	C	1.832101	-0.069608	-0.026349
N57	N	1.309495	-0.771485	-0.472074
N58	N	1.809495	-0.271485	0.027926
N59	N	1.309532	-0.833937	-0.472084
N60	N	1.809532	-0.333937	0.027916
C61	C	1.393984	-0.866294	-0.464787
C62	C	1.893984	-0.366294	0.035213
N63	N	1.478399	-0.833840	-0.457460
N64	N	1.978399	-0.333840	0.042540
N65	N	1.478360	-0.771383	-0.457445
N66	N	1.978360	-0.271383	0.042555
C67	C	1.393909	-0.739504	-0.464757
C68	C	1.893909	-0.239504	0.035243
C69	C	1.455772	-0.970440	-0.403185
C70	C	1.955772	-0.470440	0.096815
C71	C	1.455819	-1.036184	-0.403213
C72	C	1.955819	-0.536184	0.096787
C73	C	1.332366	-1.036192	-0.526476
C74	C	1.832366	-0.536192	-0.026476
C75	C	1.332328	-0.970450	-0.526453
C76	C	1.832328	-0.470450	-0.026453
C77	C	1.394029	-0.937578	-0.464802
C78	C	1.894029	-0.437578	0.035198
C79	C	1.645488	-0.303227	-0.464776
C80	C	2.145488	0.196773	0.035224
C81	C	1.752702	-0.303231	-0.464791
C82	C	2.252702	0.196769	0.035209
C83	C	1.393954	-0.303164	-0.716335
C84	C	1.893954	0.196836	-0.216335
C85	C	1.393979	-0.303141	-0.823549
C86	C	1.893979	0.196859	-0.323549
C87	C	1.394048	-0.139026	-0.464817
C88	C	1.894048	0.360974	0.035183
C89	C	1.394113	-0.069058	-0.464849
C90	C	1.894113	0.430942	0.035151
C91	C	1.393999	-0.303123	-0.910619
C92	C	1.893999	0.196877	-0.410619
C93	C	1.394027	-0.303095	-1.019852
C94	C	1.894027	0.196905	-0.519852
C95	C	1.393892	-0.303224	-0.214128
C96	C	1.893892	0.196776	0.285872
C97	C	1.394053	-0.303069	-0.106914
C98	C	1.894053	0.196931	0.393086
H99	H	1.505856	-0.662101	-0.352918
H100	H	2.005856	-0.162101	0.147082
H101	H	1.281898	-0.662124	-0.576550
H102	H	1.781898	-0.162124	-0.076550
H103	H	1.281829	-0.542852	-0.576530
H104	H	1.781829	-0.042852	-0.076530
N105	N	1.518802	-0.936867	-0.340208
N106	N	2.018802	-0.436867	0.159792
N107	N	1.573925	-0.966219	-0.285196
N108	N	2.073925	-0.466219	0.214804
H109	H	1.618441	-0.942510	-0.240717
H110	H	2.118441	-0.442510	0.259283
H111	H	1.506096	-1.062938	-0.353035
H112	H	2.006096	-0.562938	0.146965
H113	H	1.505780	-0.542835	-0.352879
H114	H	2.005780	-0.042835	0.147121
H115	H	1.282128	-1.062962	-0.576664
H116	H	1.782128	-0.562962	-0.076664
H117	H	1.282054	-0.943693	-0.576627
H118	H	1.782054	-0.443693	-0.076627
