data_functionalizedCrystal
_audit_creation_method	'MofGen! by Chris Wilmer'
_symmetry_space_group_name_H-M	'P1'
_symmetry_Int_Tables_number	1
_symmetry_cell_setting	triclinic
loop_
_symmetry_equiv_pos_as_xyz
  x,y,z
_cell_length_a	18.215407
_cell_length_b	29.839131
_cell_length_c	18.215399
_cell_angle_alpha	90.038527
_cell_angle_beta	90.019833
_cell_angle_gamma	90.035676
loop_
_atom_site_label
_atom_site_type_symbol
_atom_site_fract_x
_atom_site_fract_y
_atom_site_fract_z
Zn1	Zn	1.125019	-0.178853	0.416062
Zn2	Zn	1.625019	0.321147	0.916062
Zn3	Zn	1.124905	-0.253982	0.292973
Zn4	Zn	1.624905	0.246018	0.792973
Zn5	Zn	1.001952	-0.178867	0.293009
Zn6	Zn	1.501952	0.321133	0.793009
Zn7	Zn	1.001895	-0.253957	0.415998
Zn8	Zn	1.501895	0.246043	0.915998
O9	O	1.063443	-0.216415	0.354510
O10	O	1.563443	0.283585	0.854510
O11	O	1.227988	-0.188823	0.399745
O12	O	1.727988	0.311177	0.899745
O13	O	1.108571	-0.244034	0.189993
O14	O	1.608571	0.255966	0.689993
O15	O	1.018348	-0.115998	0.309374
O16	O	1.518348	0.384002	0.809374
O17	O	1.227905	-0.244020	0.309312
O18	O	1.727905	0.255980	0.809312
O19	O	1.108765	-0.115987	0.399781
O20	O	1.608765	0.384013	0.899781
O21	O	1.018238	-0.188848	0.190020
O22	O	1.518238	0.311152	0.690020
O23	O	0.898960	-0.188824	0.309312
O24	O	1.398960	0.311176	0.809312
O25	O	1.018252	-0.243978	0.518990
O26	O	1.518252	0.256022	1.018990
O27	O	0.898918	-0.243992	0.399671
O28	O	1.398918	0.256008	0.899671
O29	O	1.108710	-0.188799	0.519038
O30	O	1.608710	0.311201	1.019038
O31	O	1.108516	-0.316846	0.309250
O32	O	1.608516	0.183154	0.809250
O33	O	1.018142	-0.316827	0.399636
O34	O	1.518142	0.183173	0.899636
C35	C	0.872237	-0.216407	0.354489
C36	C	1.372237	0.283593	0.854489
C37	C	0.790438	-0.216414	0.354498
C38	C	1.290438	0.283586	0.854498
C39	C	0.602241	-0.245186	0.401489
C40	C	1.102241	0.254814	0.901489
C41	C	0.525383	-0.245187	0.401498
C42	C	1.025383	0.254813	0.901498
C43	C	0.525396	-0.187652	0.307548
C44	C	1.025396	0.312348	0.807548
C45	C	0.602254	-0.187648	0.307543
C46	C	1.102254	0.312352	0.807543
C47	C	0.640674	-0.216418	0.354512
C48	C	1.140674	0.283582	0.854512
C49	C	0.486958	-0.216423	0.354526
C50	C	0.986958	0.283577	0.854526
C51	C	0.403624	-0.216424	0.354536
C52	C	0.903624	0.283576	0.854536
C53	C	0.724013	-0.216416	0.354504
C54	C	1.224013	0.283584	0.854504
C55	C	1.063331	-0.333137	0.354448
C56	C	1.563331	0.166863	0.854448
C57	C	1.063350	-0.383072	0.354446
C58	C	1.563350	0.116928	0.854446
C59	C	1.110513	-0.692675	0.401652
C60	C	1.610513	-0.192675	0.901652
C61	C	1.110593	-0.880348	0.401696
C62	C	1.610593	-0.380348	0.901696
O63	O	1.150582	-0.904578	0.441786
O64	O	1.650582	-0.404578	0.941786
N65	N	1.063568	-0.903857	0.354592
N66	N	1.563568	-0.403857	0.854592
C67	C	1.016516	-0.880445	0.307477
C68	C	1.516516	-0.380445	0.807477
O69	O	0.976515	-0.904747	0.267418
O70	O	1.476515	-0.404747	0.767418
C71	C	1.016433	-0.692773	0.307437
C72	C	1.516433	-0.192773	0.807437
C73	C	1.063466	-0.669266	0.354539
C74	C	1.563466	-0.169266	0.854539
C75	C	1.157541	-0.669168	0.448751
C76	C	1.657541	-0.169168	0.948751
C77	C	1.157524	-0.622252	0.448736
C78	C	1.657524	-0.122252	0.948736
C79	C	1.110477	-0.598844	0.401623
C80	C	1.610477	-0.098844	0.901623
C81	C	1.063449	-0.622350	0.354524
C82	C	1.563449	-0.122350	0.854524
C83	C	0.969378	-0.669361	0.260326
C84	C	1.469378	-0.169361	0.760326
C85	C	0.969361	-0.622440	0.260321
C86	C	1.469361	-0.122440	0.760321
C87	C	1.016394	-0.598934	0.307423
C88	C	1.516394	-0.098934	0.807423
C89	C	1.016385	-0.552026	0.307397
C90	C	1.516385	-0.052026	0.807397
N91	N	1.063410	-0.528517	0.354501
N92	N	1.563410	-0.028517	0.854501
C93	C	1.110456	-0.551926	0.401614
C94	C	1.610456	-0.051926	0.901614
C95	C	1.016564	-0.978975	0.307500
C96	C	1.516564	-0.478975	0.807500
C97	C	1.016586	-1.025893	0.307509
C98	C	1.516586	-0.525893	0.807509
C99	C	1.110661	-1.025793	0.401730
C100	C	1.610661	-0.525793	0.901730
C101	C	1.110643	-0.978874	0.401716
C102	C	1.610643	-0.478874	0.901716
C103	C	1.063589	-0.955466	0.354604
C104	C	1.563589	-0.455466	0.854604
C105	C	1.110416	-0.453400	0.401580
C106	C	1.610416	0.046600	0.901580
C107	C	1.110396	-0.406480	0.401559
C108	C	1.610396	0.093520	0.901559
C109	C	1.016318	-0.406585	0.307342
C110	C	1.516318	0.093415	0.807342
C111	C	1.016340	-0.453500	0.307360
C112	C	1.516340	0.046500	0.807360
C113	C	1.063392	-0.476907	0.354485
C114	C	1.563392	0.023093	0.854485
O115	O	0.976410	-0.527767	0.267334
O116	O	1.476410	-0.027767	0.767334
O117	O	1.150439	-0.527615	0.441678
O118	O	1.650439	-0.027615	0.941678
C119	C	1.110530	-0.739590	0.401666
C120	C	1.610530	-0.239590	0.901666
C121	C	1.063502	-0.763097	0.354568
C122	C	1.563502	-0.263097	0.854568
C123	C	1.016455	-0.739688	0.307454
C124	C	1.516455	-0.239688	0.807454
C125	C	1.063523	-0.810015	0.354576
C126	C	1.563523	-0.310015	0.854576
C127	C	1.110569	-0.833423	0.401690
C128	C	1.610569	-0.333423	0.901690
C129	C	1.157594	-0.809914	0.448794
C130	C	1.657594	-0.309914	0.948794
C131	C	1.157577	-0.762999	0.448779
C132	C	1.657577	-0.262999	0.948779
C133	C	0.969430	-0.763197	0.260350
C134	C	1.469430	-0.263197	0.760350
C135	C	0.969452	-0.810113	0.260368
C136	C	1.469452	-0.310113	0.760368
C137	C	1.016499	-0.833521	0.307481
C138	C	1.516499	-0.333521	0.807481
C139	C	1.255396	-0.216423	0.354532
C140	C	1.755396	0.283577	0.854532
C141	C	1.337195	-0.216426	0.354541
C142	C	1.837195	0.283574	0.854541
C143	C	1.063488	-0.216384	0.546463
C144	C	1.563488	0.283616	1.046463
C145	C	1.063507	-0.216370	0.628262
C146	C	1.563507	0.283630	1.128262
C147	C	1.063576	-0.099236	0.354589
C148	C	1.563576	0.400764	0.854589
C149	C	1.063632	-0.049302	0.354622
C150	C	1.563632	0.450698	0.854622
C151	C	1.063440	-0.216413	0.163304
C152	C	1.563440	0.283587	0.663304
C153	C	1.063564	-0.216300	0.081506
C154	C	1.563564	0.283700	0.581506
C155	C	1.110625	-0.187612	0.816482
C156	C	1.610625	0.312388	1.316482
C157	C	1.110634	-0.187599	0.893341
C158	C	1.610634	0.312401	1.393341
C159	C	1.016440	-0.245059	0.893281
C160	C	1.516440	0.254941	1.393281
C161	C	1.016428	-0.245070	0.816423
C162	C	1.516428	0.254930	1.316423
C163	C	1.063525	-0.216347	0.778026
C164	C	1.563525	0.283653	1.278026
C165	C	1.063546	-0.216323	0.931742
C166	C	1.563546	0.283677	1.431742
C167	C	1.063555	-0.216309	1.015076
C168	C	1.563555	0.283691	1.515076
C169	C	1.063515	-0.216360	0.694687
C170	C	1.563515	0.283640	1.194687
H171	H	0.633521	-0.268610	0.439736
H172	H	1.133521	0.231390	0.939736
Cl173	Cl	0.910203	-0.593016	0.201091
Cl174	Cl	1.410203	-0.093016	0.701091
Cl175	Cl	1.169830	-0.151501	0.768214
Cl176	Cl	1.669830	0.348499	1.268214
Cl177	Cl	1.169855	-0.151477	0.941683
Cl178	Cl	1.669855	0.348523	1.441683
Cl179	Cl	0.477070	-0.281353	0.460558
Cl180	Cl	0.977070	0.218647	0.960558
Cl181	Cl	0.957222	-0.483052	0.248136
Cl182	Cl	1.457222	0.016948	0.748136
H183	H	0.494105	-0.164229	0.269306
H184	H	0.994105	0.335771	0.769306
H185	H	0.978246	-0.959920	0.269134
H186	H	1.478246	-0.459920	0.769134
H187	H	0.633546	-0.164220	0.269289
H188	H	1.133546	0.335780	0.769289
Cl189	Cl	0.957207	-0.281194	0.768074
Cl190	Cl	1.457207	0.218806	1.268074
H191	H	0.931079	-0.688493	0.221970
H192	H	1.431079	-0.188493	0.721970
Cl193	Cl	1.169529	-0.376932	0.460777
Cl194	Cl	1.669529	0.123068	0.960777
H195	H	1.148724	-0.472452	0.439959
H196	H	1.648724	0.027548	0.939959
H197	H	0.978097	-0.268446	0.924553
H198	H	1.478097	0.231554	1.424553
H199	H	1.195875	-0.743863	0.487134
H200	H	1.695875	-0.243863	0.987134
Cl201	Cl	1.216649	-0.592708	0.507960
Cl202	Cl	1.716649	-0.092708	1.007960
H203	H	1.148941	-0.959738	0.440071
H204	H	1.648941	-0.459738	0.940071
Cl205	Cl	1.216692	-0.698587	0.507989
Cl206	Cl	1.716692	-0.198587	1.007989
H207	H	1.148969	-1.044860	0.440090
H208	H	1.648969	-0.544860	0.940090
H209	H	0.978016	-0.387518	0.268981
H210	H	1.478016	0.112482	0.768981
H211	H	0.978294	-1.045028	0.269146
H212	H	1.478294	-0.545028	0.769146
H213	H	1.195904	-0.828982	0.487152
H214	H	1.695904	-0.328982	0.987152
H215	H	0.931153	-0.829248	0.222005
H216	H	1.431153	-0.329248	0.722005
Cl217	Cl	0.910277	-0.733776	0.201119
Cl218	Cl	1.410277	-0.233776	0.701119
