data_functionalizedCrystal
_audit_creation_method	'MofGen! by Chris Wilmer'
_symmetry_space_group_name_H-M	'P1'
_symmetry_Int_Tables_number	1
_symmetry_cell_setting	triclinic
loop_
_symmetry_equiv_pos_as_xyz
  x,y,z
_cell_length_a	14.044220
_cell_length_b	10.654550
_cell_length_c	9.130313
_cell_angle_alpha	90.000110
_cell_angle_beta	89.999962
_cell_angle_gamma	91.163110
loop_
_atom_site_label
_atom_site_type_symbol
_atom_site_fract_x
_atom_site_fract_y
_atom_site_fract_z
O1	O	1.259693	-0.302980	-0.121789
O2	O	0.983652	-0.292047	-0.121793
O3	O	1.128019	-0.115412	-0.121785
O4	O	1.115326	-0.479615	-0.121796
O5	O	1.128017	-0.115417	0.121813
O6	O	0.983650	-0.292052	0.121806
O7	O	1.259691	-0.302985	0.121810
Cu8	Cu	1.121671	-0.297519	0.144050
Cu9	Cu	1.121673	-0.297513	-0.144033
O10	O	1.115324	-0.479620	0.121802
C11	C	0.948305	-0.287263	0.000006
C12	C	0.842986	-0.272988	0.000004
C13	C	1.295038	-0.307769	0.000008
C14	C	1.400358	-0.322044	-0.000000
C15	C	1.127086	-0.068523	0.000012
C16	C	1.124298	0.071201	0.000007
C17	C	1.593191	-0.348143	0.000000
C18	C	1.650158	-0.246895	0.000004
C19	C	1.757457	-0.261416	0.000004
C20	C	1.485882	-0.333623	-0.000000
C21	C	1.116257	-0.526509	0.000001
C22	C	1.119045	-0.666233	-0.000003
N23	N	1.121676	-0.297523	0.346673
C24	C	1.209299	0.142144	0.000013
C25	C	1.206673	0.273429	0.000002
C26	C	1.034038	0.262814	-0.000013
C27	C	1.036664	0.131532	-0.000013
C28	C	1.308969	0.148274	0.000028
C29	C	1.306343	0.279559	0.000018
N30	N	1.121675	-0.297500	-0.346656
C31	C	1.185618	-0.219340	0.423328
C32	C	1.185616	-0.219324	0.576665
C33	C	1.057725	-0.375686	0.576678
C34	C	1.057724	-0.375694	0.423344
C35	C	1.259458	-0.129069	0.423322
C36	C	1.259455	-0.129054	0.576659
H37	H	1.618346	-0.149307	-0.000100
C38	C	1.636166	-0.479971	-0.000014
N39	N	1.668547	-0.579263	-0.000032
H40	H	0.967448	0.073774	-0.000038
H41	H	1.005657	-0.439330	0.639120
H42	H	0.962689	0.311952	-0.000031
H43	H	1.336465	0.322177	-0.105161
C44	C	1.361630	0.103317	-0.137688
N45	N	1.401291	0.069455	-0.241415
H46	H	1.343896	0.317543	0.101962
C47	C	1.351845	0.095826	0.142122
N48	N	1.384138	0.056321	0.249149
C49	C	1.352499	-0.179734	0.359066
N50	N	1.422579	-0.217895	0.310667
H51	H	1.005649	-0.439345	0.360932
C52	C	1.237572	0.003536	0.367092
N53	N	1.221085	0.103411	0.324739
C54	C	1.228310	-0.002696	0.640904
N55	N	1.204845	0.092472	0.689295
H56	H	1.332349	-0.157898	0.618276
