data_functionalizedCrystal
_audit_creation_method	'MofGen! by Chris Wilmer'
_symmetry_space_group_name_H-M	'P1'
_symmetry_Int_Tables_number	1
_symmetry_cell_setting	triclinic
loop_
_symmetry_equiv_pos_as_xyz
  x,y,z
_cell_length_a	21.395362
_cell_length_b	13.897448
_cell_length_c	21.395355
_cell_angle_alpha	89.984371
_cell_angle_beta	89.956060
_cell_angle_gamma	90.033571
loop_
_atom_site_label
_atom_site_type_symbol
_atom_site_fract_x
_atom_site_fract_y
_atom_site_fract_z
Zn1	Zn	0.957916	-0.383718	-0.354598
Zn2	Zn	0.957842	-0.544997	-0.249826
Zn3	Zn	0.853131	-0.383763	-0.249799
Zn4	Zn	0.853124	-0.545017	-0.354531
O5	O	0.905503	-0.464374	-0.302189
O6	O	1.045584	-0.405085	-0.340739
O7	O	0.943924	-0.523620	-0.162145
O8	O	0.867065	-0.248775	-0.263718
O9	O	1.045530	-0.523576	-0.263764
O10	O	0.944050	-0.248742	-0.340714
O11	O	0.866993	-0.405161	-0.162125
O12	O	0.765452	-0.405181	-0.263653
O13	O	0.867053	-0.523610	-0.442218
O14	O	0.765447	-0.523654	-0.340599
O15	O	0.944043	-0.405104	-0.442267
O16	O	0.943918	-0.679982	-0.263698
O17	O	0.866981	-0.679996	-0.340624
C18	C	0.742716	-0.464425	-0.302116
C19	C	0.673074	-0.464470	-0.302100
C20	C	0.905458	-0.714988	-0.302170
C21	C	0.905495	-0.822202	-0.302184
C22	C	0.640375	-0.526240	-0.342105
C23	C	0.574940	-0.526217	-0.342133
C24	C	0.542206	-0.464433	-0.302144
C25	C	0.574913	-0.402650	-0.262136
C26	C	0.640348	-0.402669	-0.262114
C27	C	0.438480	-0.456662	-0.245739
C28	C	0.373047	-0.456650	-0.245760
C29	C	0.340385	-0.464370	-0.302214
C30	C	0.373165	-0.472121	-0.358647
C31	C	0.438599	-0.472140	-0.358625
C32	C	0.471254	-0.464405	-0.302164
C33	C	0.236734	-0.526118	-0.342253
C34	C	0.171297	-0.526088	-0.342282
C35	C	0.171272	-0.402526	-0.262279
C36	C	0.236707	-0.402551	-0.262255
C37	C	0.269434	-0.464352	-0.302242
C38	C	0.905561	-1.018497	-0.302223
C39	C	0.905523	-0.909265	-0.302203
C40	C	1.068927	-0.464323	-0.302262
C41	C	1.138568	-0.464302	-0.302293
C42	C	0.905555	-0.464354	-0.465612
C43	C	0.905578	-0.464346	-0.535253
C44	C	0.905566	-0.212781	-0.302221
C45	C	0.905593	-0.105567	-0.302234
C46	C	0.945665	-0.402637	-0.567993
C47	C	0.945664	-0.402596	-0.633429
C48	C	0.905582	-0.464280	-0.666122
C49	C	0.865488	-0.525993	-0.633374
C50	C	0.865485	-0.526026	-0.567940
C51	C	0.900619	-0.551135	-0.769788
C52	C	0.900626	-0.551103	-0.835221
C53	C	0.905586	-0.464178	-0.867942
C54	C	0.910553	-0.377282	-0.835223
C55	C	0.910550	-0.377315	-0.769788
C56	C	0.905580	-0.464251	-0.737074
C57	C	0.945675	-0.402419	-0.971635
C58	C	0.945669	-0.402376	-1.037072
C59	C	0.865496	-0.525782	-1.037016
C60	C	0.865498	-0.525817	-0.971580
C61	C	0.905591	-0.464137	-0.938894
C62	C	0.905488	-0.464324	-0.139401
C63	C	0.905587	-0.464060	-0.069760
H64	H	0.667017	-0.576562	-0.374666
H65	H	0.832855	-0.575997	-1.063634
H66	H	0.346364	-0.450344	-0.199808
Cl67	Cl	0.916791	-0.267997	-0.876350
Cl68	Cl	0.996079	-0.324807	-1.078231
H69	H	0.465285	-0.478449	-0.404575
H70	H	0.548258	-0.352343	-0.229578
H71	H	0.832859	-0.576073	-0.944923
H72	H	0.144621	-0.352216	-0.229722
Cl73	Cl	0.479534	-0.446960	-0.174761
H74	H	0.666971	-0.352365	-0.229536
H75	H	0.978310	-0.352411	-0.541384
H76	H	0.548311	-0.576517	-0.374713
Cl77	Cl	0.277818	-0.324895	-0.211958
Cl78	Cl	0.996072	-0.324875	-0.930541
H79	H	0.978306	-0.352340	-0.660091
H80	H	0.914593	-0.306560	-0.743151
Cl81	Cl	0.894389	-0.660344	-0.876348
Cl82	Cl	0.332112	-0.481821	-0.429623
H83	H	0.896413	-0.621902	-0.743152
Cl84	Cl	0.815097	-0.603536	-0.674473
Cl85	Cl	0.815086	-0.603610	-0.526779
H86	H	0.263381	-0.576435	-0.374815
Cl87	Cl	0.130188	-0.603744	-0.392583
