data_functionalizedCrystal
_audit_creation_method	'MofGen! by Chris Wilmer'
_symmetry_space_group_name_H-M	'P1'
_symmetry_Int_Tables_number	1
_symmetry_cell_setting	triclinic
loop_
_symmetry_equiv_pos_as_xyz
  x,y,z
_cell_length_a	14.044220
_cell_length_b	10.654541
_cell_length_c	9.130307
_cell_angle_alpha	89.998127
_cell_angle_beta	90.000596
_cell_angle_gamma	91.163597
loop_
_atom_site_label
_atom_site_type_symbol
_atom_site_fract_x
_atom_site_fract_y
_atom_site_fract_z
O1	O	0.133214	-1.681229	0.121759
O2	O	0.145910	-1.317026	0.121772
O3	O	0.001541	-1.493661	0.121751
O4	O	0.277582	-1.504594	0.121780
O5	O	0.001550	-1.493648	-0.121848
O6	O	0.145919	-1.317013	-0.121827
O7	O	0.133223	-1.681216	-0.121840
Cu8	Cu	0.139572	-1.499113	-0.144076
Cu9	Cu	0.139561	-1.499129	0.144008
O10	O	0.277591	-1.504581	-0.121819
C11	C	0.144983	-1.270128	-0.000026
C12	C	0.142195	-1.130404	-0.000021
C13	C	-0.033800	-1.488869	-0.000049
C14	C	-0.139120	-1.474593	-0.000050
N15	N	0.139579	-1.499112	-0.346699
C16	C	-0.331952	-1.448494	-0.000028
C17	C	-0.388921	-1.549742	-0.000027
C18	C	-0.496219	-1.535221	-0.000015
C19	C	-0.224644	-1.463014	-0.000040
C20	C	0.312933	-1.509374	-0.000016
C21	C	0.418252	-1.523649	-0.000005
C22	C	0.134150	-1.728114	-0.000039
C23	C	0.136938	-1.867838	-0.000034
C24	C	0.314827	-1.119781	0.000015
C25	C	0.399829	-1.048829	0.000039
C26	C	0.397204	-0.917547	0.000040
C27	C	0.309567	-0.857215	0.000013
C28	C	0.224565	-0.928167	-0.000011
C29	C	0.227199	-1.059452	-0.000008
C30	C	0.051935	-0.938790	-0.000058
C31	C	0.054558	-1.070072	-0.000049
C32	C	-0.035701	-0.878458	-0.000085
C33	C	-0.120706	-0.949411	-0.000098
C34	C	-0.118077	-1.080701	-0.000098
C35	C	-0.030444	-1.141025	-0.000072
C36	C	0.023402	-1.333824	-0.653366
C37	C	-0.034658	-1.251153	-0.576697
C38	C	-0.034640	-1.251131	-0.423364
C39	C	0.023442	-1.333792	-0.346695
C40	C	0.081502	-1.416463	-0.423364
C41	C	0.081480	-1.416473	-0.576701
C42	C	0.197639	-1.581783	-0.423367
C43	C	0.197628	-1.581800	-0.576701
C44	C	0.255721	-1.664444	-0.346699
C45	C	0.313787	-1.747110	-0.423368
C46	C	0.313768	-1.747127	-0.576710
C47	C	0.255688	-1.664471	-0.653369
N48	N	0.139546	-1.499139	0.346631
H49	H	-0.357109	-1.647330	0.000067
Br50	Br	-0.039266	-0.700289	-0.000096
H51	H	-0.363762	-1.350915	-0.000021
H52	H	0.023442	-1.333777	-0.221843
Br53	Br	0.518759	-1.130712	0.000071
Br54	Br	-0.233444	-1.176983	-0.000148
H55	H	-0.028295	-1.247921	-0.000055
H56	H	0.255669	-1.664474	-0.778222
Br57	Br	0.318395	-1.297950	0.000048
H58	H	0.255726	-1.664426	-0.221847
H59	H	0.361068	-1.814411	-0.360932
H60	H	-0.081920	-1.183816	-0.360940
Br61	Br	0.512564	-0.821249	0.000052
H62	H	0.307437	-0.750318	-0.000004
Br63	Br	-0.239628	-0.867527	-0.000153
Br64	Br	0.392559	-1.859341	-0.680748
Br65	Br	0.023389	-1.333829	-0.861463
H66	H	-0.081949	-1.183855	-0.639137
