data_functionalizedCrystal
_audit_creation_method	'MofGen! by Chris Wilmer'
_symmetry_space_group_name_H-M	'P1'
_symmetry_Int_Tables_number	1
_symmetry_cell_setting	triclinic
loop_
_symmetry_equiv_pos_as_xyz
  x,y,z
_cell_length_a	19.902436
_cell_length_b	17.917603
_cell_length_c	17.917603
_cell_angle_alpha	60.138055
_cell_angle_beta	90.004008
_cell_angle_gamma	63.031398
loop_
_atom_site_label
_atom_site_type_symbol
_atom_site_fract_x
_atom_site_fract_y
_atom_site_fract_z
Zr1	Zr	0.685655	0.806773	-0.128997
O2	O	0.589239	0.951818	-0.249542
O3	O	0.710603	0.654542	-0.087343
O4	O	0.722777	0.796393	-0.242751
O5	O	0.572705	0.820661	0.023107
O6	O	0.833355	0.796379	-0.242741
O7	O	0.577066	0.809967	-0.094134
O8	O	0.811579	0.542634	0.035255
O9	O	0.594481	1.074406	-0.254888
O10	O	0.809334	0.719808	-0.075250
O11	O	0.723556	0.727799	0.012239
O12	O	0.737888	0.894810	-0.170734
O13	O	0.652111	0.902801	-0.083245
Zr14	Zr	0.855058	0.823807	0.058006
Zr15	Zr	0.862013	0.806751	-0.128981
Zr16	Zr	0.678699	0.823829	0.057989
Zr17	Zr	0.694014	1.002287	-0.137524
Zr18	Zr	0.846699	0.628293	0.066533
O19	O	0.830109	0.976038	0.016352
O20	O	0.839999	0.951787	-0.249519
O21	O	0.579349	0.976069	0.016329
O22	O	0.951473	0.678762	0.178550
O23	O	0.961363	0.654511	-0.087320
O24	O	0.700713	0.678793	0.178527
O25	O	0.968008	0.809919	-0.094098
O26	O	0.817936	0.834187	0.171759
O27	O	0.707358	0.834201	0.171749
O28	O	0.963646	0.820613	0.023143
O29	O	0.734663	1.074389	-0.254876
O30	O	0.806050	0.556191	0.183884
O31	O	0.946232	0.556174	0.183897
O32	O	0.951760	0.542617	0.035268
O33	O	0.588952	1.087963	-0.106259
O34	O	0.729134	1.087946	-0.106246
O35	O	0.802824	0.735770	0.099742
O36	O	0.888602	0.727779	0.012254
O37	O	0.817157	0.902781	-0.083230
O38	O	0.731379	0.910772	0.004258
C39	C	0.759900	0.570732	-0.024829
C40	C	0.756351	0.487731	-0.021209
C41	C	0.749868	0.335765	-0.014598
C42	C	0.790843	0.294811	-0.056391
C43	C	0.787235	0.210252	-0.052713
C44	C	0.753474	0.420332	-0.018276
C45	C	0.549758	0.815317	-0.035516
C46	C	0.474889	0.815326	-0.035523
C47	C	0.202884	0.815278	-0.035487
C48	C	0.186295	0.925696	-0.095455
C49	C	0.264148	0.925741	-0.095763
C50	C	0.337829	0.815303	-0.035505
C51	C	0.334464	0.754307	-0.073254
C52	C	0.256283	0.755008	-0.073692
C53	C	0.252114	0.765031	0.062292
C54	C	0.329133	0.767187	0.062051
C55	C	0.414096	0.815310	-0.035514
C56	C	0.126618	0.815266	-0.035481
C57	C	0.990954	0.815263	-0.035475
C58	C	1.065823	0.815254	-0.035469
C59	C	0.779057	0.793956	-0.269387
C60	C	0.782009	0.786715	-0.348768
C61	C	0.780812	1.059849	-0.046162
C62	C	0.784361	1.142849	-0.049782
C63	C	0.787420	0.773489	-0.494122
C64	C	0.753294	0.857087	-0.576872
C65	C	0.756305	0.849728	-0.657752
C66	C	0.784410	0.780846	-0.413233
C67	C	0.761656	0.836624	0.198396
C68	C	0.758703	0.843865	0.277776
C69	C	0.980498	0.570705	-0.024809
C70	C	1.051818	0.487694	-0.021182
C71	C	0.751200	0.592066	0.209062
C72	C	0.744698	0.516306	0.292063
C73	C	0.971798	0.592039	0.209083
C74	C	1.040165	0.516269	0.292090
C75	C	0.568915	1.038541	-0.280074
C76	C	0.500547	1.114311	-0.363082
C77	C	0.560214	1.059876	-0.046183
C78	C	0.488894	1.142886	-0.049810
C79	C	0.789513	1.038514	-0.280054
C80	C	0.796014	1.114275	-0.363054
C81	C	1.043934	0.444551	-0.065162
C82	C	1.110941	0.366563	-0.061772
C83	C	1.185832	0.331716	-0.014396
C84	C	1.193715	0.374867	0.029585
C85	C	1.126708	0.452858	0.026190
C86	C	0.783022	0.484889	0.376725
C87	C	0.776910	0.413716	0.454719
C88	C	0.732479	0.373955	0.448051
C89	C	0.694150	0.405378	0.363380
C90	C	0.700258	0.476556	0.285387
C91	C	1.117054	0.476516	0.285403
C92	C	1.181299	0.405333	0.363390
C93	C	1.168655	0.373899	0.448063
C94	C	1.091759	0.413660	0.454748
C95	C	1.027515	0.484847	0.376762
C96	C	0.423659	1.154074	-0.356395
C97	C	0.359414	1.225281	-0.434383
C98	C	0.372059	1.256719	-0.519056
C99	C	0.448955	1.216953	-0.525741
C100	C	0.513199	1.145752	-0.447754
C101	C	0.496779	1.186037	-0.005837
C102	C	0.429773	1.264044	-0.009249
C103	C	0.354883	1.298894	-0.056628
C104	C	0.347000	1.255739	-0.100606
C105	C	0.414005	1.177738	-0.097199
C106	C	0.840452	1.154013	-0.356357
C107	C	0.846576	1.225188	-0.434337
C108	C	0.808258	1.256629	-0.519015
C109	C	0.763819	1.216883	-0.525710
C110	C	0.757699	1.145703	-0.447731
H111	H	0.263806	0.973389	-0.070947
O112	O	1.258102	0.247594	-0.010732
H113	H	1.253948	0.179144	0.020948
H114	H	0.575803	1.113377	-0.453209
O115	O	0.814851	1.333416	-0.603117
H116	H	0.877717	1.303482	-0.601747
H117	H	0.871657	1.128426	-0.287415
O118	O	0.699798	0.298114	0.036439
H119	H	0.737756	0.216673	0.090636
H120	H	0.296808	1.257647	-0.428923
H121	H	0.319741	1.314696	-0.582551
H122	H	0.721510	1.113356	-0.453197
H123	H	0.436207	1.299169	0.026567
O124	O	0.711583	0.959214	-0.590261
H125	H	0.754101	0.966616	-0.558606
H126	H	0.818894	0.696399	-0.484023
O127	O	0.282624	1.383014	-0.060275
H128	H	0.251039	1.447897	-0.131381
H129	H	0.828631	0.323255	-0.094934
O130	O	1.264239	0.362444	0.356191
H131	H	1.271232	0.323590	0.321542
O132	O	0.405497	1.131193	-0.144623
H133	H	0.368837	1.098080	-0.116672
O134	O	0.894506	1.268053	-0.427106
H135	H	0.920108	1.234241	-0.355123
O136	O	0.410004	1.120177	-0.265078
H137	H	0.467588	1.063978	-0.211961
O138	O	0.963164	0.482137	-0.116274
H139	H	0.968953	0.439034	-0.146293
H140	H	0.286016	1.284126	-0.139181
H141	H	0.148067	0.973452	-0.070572
H142	H	0.150908	0.964411	-0.167230
H143	H	0.732622	1.242493	-0.594665
O144	O	1.102431	0.320021	-0.109203
H145	H	1.039095	0.357347	-0.142700
H146	H	0.459242	1.242559	-0.594691
H147	H	1.133139	0.487977	0.062009
O148	O	0.267822	0.977206	-0.191405
H149	H	0.265830	0.935837	-0.220430
O150	O	0.213623	0.800515	-0.168847
H151	H	0.248916	0.821819	-0.214118
H152	H	1.254699	0.346483	0.068158
H153	H	0.270617	0.673732	-0.032574
H154	H	0.819202	0.517255	0.382172
H155	H	0.557752	1.157669	0.032750
O156	O	0.818266	0.379814	0.546037
H157	H	0.850201	0.419406	0.537564
H158	H	0.386230	0.672875	-0.031464
O159	O	1.237953	0.297108	0.532172
H160	H	1.233405	0.229637	0.574655
H161	H	0.340298	0.787789	-0.144384
H162	H	0.727512	0.315999	0.511565
O163	O	0.204462	0.818025	0.104698
H164	H	0.145152	0.880775	0.056548
H165	H	0.657974	0.372995	0.357963
O166	O	1.078124	0.379738	0.546076
H167	H	1.135718	0.323547	0.599174
O168	O	0.944583	0.527700	0.383979
H169	H	0.946592	0.493865	0.455962
O170	O	0.329544	0.826157	0.099488
H171	H	0.335917	0.889471	0.048834
O172	O	0.398277	0.660946	0.125705
H173	H	0.440103	0.640686	0.088636
H174	H	0.266866	0.683751	0.107125
H175	H	1.127364	0.502098	0.216466
O176	O	0.659047	0.510292	0.194079
H177	H	0.627178	0.470622	0.202557
