data_functionalizedCrystal
_audit_creation_method	'MofGen! by Chris Wilmer'
_symmetry_space_group_name_H-M	'P1'
_symmetry_Int_Tables_number	1
_symmetry_cell_setting	triclinic
loop_
_symmetry_equiv_pos_as_xyz
  x,y,z
_cell_length_a	35.277628
_cell_length_b	35.288095
_cell_length_c	35.277682
_cell_angle_alpha	59.997929
_cell_angle_beta	89.998958
_cell_angle_gamma	60.000166
loop_
_atom_site_label
_atom_site_type_symbol
_atom_site_fract_x
_atom_site_fract_y
_atom_site_fract_z
O1	O	-0.323087	-0.271234	0.011271
O2	O	-0.267964	-0.193634	-0.011228
O3	O	-0.267962	-0.271233	0.066395
O4	O	-0.323089	-0.193635	-0.066351
O5	O	-0.204915	-0.334261	0.066394
O6	O	-0.204918	-0.256661	-0.011228
O7	O	-0.260040	-0.334261	0.011271
Cu8	Cu	-0.226722	-0.301216	0.000022
Cu9	Cu	-0.301282	-0.226679	0.000022
O10	O	-0.260043	-0.256662	-0.066351
C11	C	-0.163481	-0.071298	-0.023519
C12	C	-0.186872	-0.024531	-0.020298
C13	C	-0.117860	-0.093995	-0.023838
C14	C	-0.163483	-0.139918	-0.023524
C15	C	-0.186875	-0.166518	-0.020308
C16	C	-0.117862	-0.162510	-0.023843
C17	C	-0.094838	-0.139921	-0.023519
C18	C	-0.044836	-0.166525	-0.020298
C19	C	-0.186401	-0.093991	-0.023843
C20	C	-0.004439	-0.188019	-0.017694
C21	C	-0.205769	0.013252	-0.017695
C22	C	-0.205774	-0.188010	-0.017709
C23	C	0.046241	-0.214983	-0.014429
C24	C	-0.229477	0.060653	-0.014430
C25	C	-0.229483	-0.214971	-0.014450
C26	C	-0.500364	-0.466062	0.034181
C27	C	-0.477341	-0.511990	0.034503
C28	C	-0.431722	-0.466060	0.034178
C29	C	-0.408804	-0.511988	0.034500
C30	C	-0.431721	-0.534685	0.034181
C31	C	-0.477342	-0.443470	0.034500
C32	C	-0.665895	-0.342485	0.021756
C33	C	-0.712772	-0.317221	0.018243
C34	C	-0.736287	-0.338907	0.016481
C35	C	-0.787116	-0.311512	0.012664
C36	C	-0.712921	-0.385861	0.018236
C37	C	-0.666047	-0.411125	0.021755
C38	C	-0.642533	-0.389434	0.023515
C39	C	-0.389805	-0.687746	0.021758
C40	C	-0.368199	-0.731097	0.018245
C41	C	-0.322995	-0.752841	0.016478
C42	C	-0.299567	-0.799839	0.012662
C43	C	-0.299393	-0.731235	0.018230
C44	C	-0.320995	-0.687892	0.021751
C45	C	-0.366205	-0.666148	0.023512
C46	C	-0.389808	-0.342477	0.021744
C47	C	-0.368205	-0.317208	0.018222
C48	C	-0.322998	-0.338892	0.016457
C49	C	-0.299573	-0.311495	0.012637
C50	C	-0.299398	-0.385842	0.018210
C51	C	-0.321003	-0.411107	0.021730
C52	C	-0.366208	-0.389423	0.023501
C53	C	-0.591706	-0.416830	0.027326
C54	C	-0.551191	-0.438667	0.030366
C55	C	-0.408299	-0.438663	0.030360
C56	C	-0.389629	-0.416824	0.027317
C57	C	-0.408298	-0.581682	0.030365
C58	C	-0.389627	-0.619146	0.027325
C59	C	-0.432024	-0.061845	-0.438511
C60	C	-0.477645	-0.015917	-0.461431
C61	C	-0.432025	-0.061844	-0.369869
C62	C	-0.477645	-0.015916	-0.392892
C63	C	-0.500668	0.006779	-0.438513
C64	C	-0.409106	-0.084435	-0.392891
C65	C	-0.320834	-0.185425	-0.480424
C66	C	-0.299076	-0.210690	-0.502029
C67	C	-0.322531	-0.189005	-0.547237
C68	C	-0.298945	-0.216401	-0.570661
C69	C	-0.367745	-0.142051	-0.570839
C70	C	-0.389497	-0.116787	-0.549237
C71	C	-0.366040	-0.138476	-0.504027
C72	C	-0.666200	0.159838	-0.549704
C73	C	-0.713077	0.203188	-0.571462
C74	C	-0.736595	0.224934	-0.548009
C75	C	-0.787423	0.271931	-0.571594
C76	C	-0.713230	0.203329	-0.502796
C77	C	-0.666353	0.159987	-0.481041
C78	C	-0.642841	0.138241	-0.504500
C79	C	-0.320836	-0.185423	-0.204335
C80	C	-0.299080	-0.210691	-0.157455
C81	C	-0.322536	-0.189006	-0.133940
C82	C	-0.298950	-0.216402	-0.083110
C83	C	-0.367748	-0.142056	-0.157305
C84	C	-0.389502	-0.116792	-0.204182
C85	C	-0.366040	-0.138478	-0.227695
C86	C	-0.389632	-0.111079	-0.480604
C87	C	-0.408436	-0.089241	-0.461934
C88	C	-0.408437	-0.089240	-0.319041
C89	C	-0.389634	-0.111078	-0.278525
C90	C	-0.551496	0.053776	-0.462102
C91	C	-0.592011	0.091239	-0.480906
O92	O	0.196122	-0.334274	0.011291
O93	O	0.063378	-0.256674	-0.011208
O94	O	0.140994	-0.334276	0.066414
O95	O	0.118506	-0.256671	-0.066331
O96	O	0.140996	-0.271251	0.066419
O97	O	0.063380	-0.193649	-0.011203
O98	O	0.196124	-0.271249	0.011296
Cu99	Cu	0.129752	-0.226694	0.000047
Cu100	Cu	0.129750	-0.301228	0.000041
O101	O	0.118508	-0.193647	-0.066327
O102	O	-0.260036	0.184774	0.011294
O103	O	-0.204910	0.074561	-0.011204
O104	O	-0.204913	0.074554	0.066418
O105	O	-0.260033	0.184781	-0.066328
O106	O	-0.267961	0.074557	0.066413
O107	O	-0.267958	0.074564	-0.011209
O108	O	-0.323083	0.184777	0.011289
Cu109	Cu	-0.301278	0.129670	0.000040
Cu110	Cu	-0.226716	0.129668	0.000045
O111	O	-0.323081	0.184784	-0.066333
O112	O	-0.936929	0.397535	-0.602582
O113	O	-0.804185	0.287317	-0.547454
O114	O	-0.881802	0.287315	-0.547452
O115	O	-0.859312	0.397537	-0.602584
O116	O	-0.881801	0.287314	-0.610498
O117	O	-0.804183	0.287316	-0.610500
O118	O	-0.936927	0.397533	-0.665628
Cu119	Cu	-0.870555	0.342425	-0.643820
Cu120	Cu	-0.870557	0.342426	-0.569261
O121	O	-0.859310	0.397536	-0.665629
O122	O	-0.267961	-0.271234	-0.665316
O123	O	-0.323086	-0.193638	-0.610192
O124	O	-0.323085	-0.271236	-0.610189
O125	O	-0.267962	-0.193636	-0.665319
O126	O	-0.260038	-0.334264	-0.547142
O127	O	-0.260039	-0.256666	-0.547145
O128	O	-0.204914	-0.334262	-0.602269
Cu129	Cu	-0.226720	-0.301219	-0.568950
Cu130	Cu	-0.301280	-0.226681	-0.643511
O131	O	-0.204915	-0.256664	-0.602272
C132	C	-0.094840	-0.456607	0.293255
C133	C	-0.044837	-0.503376	0.316647
C134	C	-0.117862	-0.433912	0.316174
C135	C	-0.163483	-0.387984	0.224612
C136	C	-0.186875	-0.361381	0.174609
C137	C	-0.186401	-0.365393	0.247634
C138	C	-0.163483	-0.387984	0.293255
C139	C	-0.186874	-0.361382	0.316646
C140	C	-0.117862	-0.433912	0.247635
C141	C	-0.205772	-0.339889	0.335543
C142	C	-0.004440	-0.541160	0.335545
C143	C	-0.205773	-0.339888	0.134212
C144	C	-0.229480	-0.312925	0.359250
C145	C	0.046239	-0.588562	0.359254
C146	C	-0.229481	-0.312924	0.083532
C147	C	0.153295	-0.388013	0.293279
C148	C	0.150076	-0.361413	0.316673
C149	C	0.153614	-0.433940	0.316196
C150	C	0.153297	-0.388008	0.224634
C151	C	0.150079	-0.361403	0.174632
C152	C	0.153616	-0.433935	0.247655
C153	C	0.153293	-0.456633	0.293275
C154	C	0.150072	-0.503401	0.316665
C155	C	0.153617	-0.365420	0.247659
C156	C	0.147469	-0.541185	0.335561
C157	C	0.147474	-0.339922	0.335572
C158	C	0.147479	-0.339908	0.134234
C159	C	0.144204	-0.588587	0.359267
C160	C	0.144211	-0.312962	0.359282
C161	C	0.144218	-0.312942	0.083555
C162	C	-0.163482	-0.139963	0.293267
C163	C	-0.186875	-0.166567	0.316654
C164	C	-0.117861	-0.162559	0.316187
C165	C	-0.163482	-0.071333	0.224628
C166	C	-0.186873	-0.024557	0.174627
C167	C	-0.117860	-0.094033	0.247653
C168	C	-0.094838	-0.139967	0.293272
C169	C	-0.044835	-0.166574	0.316665
C170	C	-0.186401	-0.094030	0.247648
C171	C	-0.004438	-0.188070	0.335563
C172	C	-0.205773	-0.188061	0.335549
C173	C	-0.205771	0.013233	0.134231
C174	C	0.046242	-0.215038	0.359273
C175	C	-0.229482	-0.215026	0.359253
C176	C	-0.229479	0.060643	0.083553
C177	C	0.095627	0.006487	-0.438489
C178	C	0.095306	-0.016206	-0.461409
C179	C	0.095623	-0.062137	-0.369847
C180	C	0.095303	-0.084726	-0.392871
C181	C	0.095625	-0.062133	-0.438492
C182	C	0.095305	-0.016210	-0.392868
C183	C	0.108059	0.159543	-0.480399
C184	C	0.111575	0.202893	-0.502003
C185	C	0.113340	0.224640	-0.547210
C186	C	0.117161	0.271637	-0.570634
C187	C	0.111587	0.203038	-0.570814
C188	C	0.108065	0.159695	-0.549212
C189	C	0.106302	0.137948	-0.504002
C190	C	0.108054	-0.116452	-0.549685
C191	C	0.111568	-0.141562	-0.571444
C192	C	0.113332	-0.188519	-0.547992
C193	C	0.117148	-0.215753	-0.571578
C194	C	0.111577	-0.210363	-0.502779
C195	C	0.108055	-0.185249	-0.481023
C196	C	0.106297	-0.138292	-0.504481
C197	C	0.108046	-0.116473	-0.204312
C198	C	0.111564	-0.141591	-0.157432
C199	C	0.113326	-0.188548	-0.133918
C200	C	0.117142	-0.215786	-0.083088
C201	C	0.111574	-0.210388	-0.157283
C202	C	0.108058	-0.185270	-0.204161
C203	C	0.106290	-0.138308	-0.227673
C204	C	0.102487	0.090947	-0.480580
C205	C	0.099445	0.053484	-0.461911
C206	C	0.099438	-0.089371	-0.319019
C207	C	0.102477	-0.111078	-0.278503
C208	C	0.099442	-0.089362	-0.462081
C209	C	0.102482	-0.111066	-0.480886
O210	O	0.118477	-0.256700	0.452885
O211	O	0.140984	-0.334299	0.397762
O212	O	0.063360	-0.256699	0.397752
O213	O	0.196101	-0.334300	0.452895
O214	O	0.063367	-0.193672	0.334708
O215	O	0.140992	-0.271271	0.334718
O216	O	0.118484	-0.193673	0.389842
Cu217	Cu	0.129739	-0.226717	0.356523
Cu218	Cu	0.129730	-0.301254	0.431080
O219	O	0.196108	-0.271272	0.389852
C220	C	-0.500364	0.533998	-0.438484
C221	C	-0.477341	0.556591	-0.461399
C222	C	-0.431721	0.465364	-0.369840
C223	C	-0.408802	0.488061	-0.392859
C224	C	-0.431720	0.533995	-0.438478
C225	C	-0.477342	0.488064	-0.392865
C226	C	-0.665898	0.588334	-0.480407
C227	C	-0.712776	0.613450	-0.502014
C228	C	-0.736291	0.660414	-0.547220
C229	C	-0.787122	0.687654	-0.570647
C230	C	-0.712926	0.682257	-0.570819
C231	C	-0.666050	0.657138	-0.549214
C232	C	-0.642536	0.610174	-0.504006
C233	C	-0.389802	0.657585	-0.549654
C234	C	-0.368196	0.682850	-0.571408
C235	C	-0.322990	0.661164	-0.547952
C236	C	-0.299561	0.688558	-0.571532
C237	C	-0.299388	0.614205	-0.502740
C238	C	-0.320990	0.588935	-0.480990
C239	C	-0.366202	0.610633	-0.504452
C240	C	-0.389804	0.312282	-0.204314
C241	C	-0.368201	0.268929	-0.157436
C242	C	-0.322993	0.247179	-0.133918
C243	C	-0.299567	0.200174	-0.083089
C244	C	-0.299392	0.268786	-0.157278
C245	C	-0.320998	0.312139	-0.204154
C246	C	-0.366204	0.333881	-0.227670
C247	C	-0.591708	0.582942	-0.480581
C248	C	-0.551193	0.561234	-0.461909
C249	C	-0.408297	0.418359	-0.319013
C250	C	-0.389626	0.380890	-0.278499
C251	C	-0.408296	0.561393	-0.462062
C252	C	-0.389624	0.583232	-0.480862
H253	H	-0.371321	-0.530978	0.035012
H254	H	-0.099376	-0.075038	0.229168
H255	H	0.106630	-0.203055	-0.223182
H256	H	-0.496124	0.003081	-0.498917
O257	O	-0.095859	-0.456618	0.360921
C258	C	-0.120711	-0.471964	0.389128
H259	H	-0.142677	-0.477570	0.371561
H260	H	-0.144276	-0.439487	0.394404
C261	C	-0.059377	-0.518139	0.458121
C262	C	-0.086352	-0.525029	0.436546
H263	H	-0.038183	-0.550871	0.487372
H264	H	-0.042634	-0.507799	0.439118
H265	H	-0.079019	-0.491074	0.462513
H266	H	-0.066710	-0.552089	0.432150
H267	H	-0.103091	-0.535375	0.455550
H268	H	0.154138	-0.452930	0.229170
H269	H	-0.386847	-0.124399	-0.138156
O270	O	0.113198	-0.255947	-0.134450
C271	C	0.075349	-0.247311	-0.117894
H272	H	0.046414	-0.202592	-0.139448
H273	H	0.087028	-0.262814	-0.079995
C274	C	0.092850	-0.332266	-0.095416
C275	C	0.057311	-0.277343	-0.121891
H276	H	0.081725	-0.350793	-0.097880
H277	H	0.118351	-0.338086	-0.106569
H278	H	0.102580	-0.345178	-0.063837
H279	H	0.047586	-0.264431	-0.153471
H280	H	0.031808	-0.271521	-0.110744
O281	O	-0.095887	-0.071247	-0.024488
C282	C	-0.126017	-0.025736	-0.024737
H283	H	-0.153566	-0.029396	-0.009700
H284	H	-0.143542	0.011779	-0.061906
C285	C	-0.064206	-0.017259	-0.013581
C286	C	-0.098040	-0.021757	0.004891
H287	H	-0.046949	-0.014802	0.004693
H288	H	-0.043907	-0.047919	-0.013414
H289	H	-0.078815	0.014003	-0.044554
H290	H	-0.083430	-0.053022	0.035862
H291	H	-0.118336	0.008899	0.004731
O292	O	-0.095741	-0.456628	0.225646
C293	C	-0.050440	-0.502090	0.255751
H294	H	-0.049019	-0.517788	0.293261
H295	H	-0.024921	-0.490672	0.248096
C296	C	-0.039095	-0.526687	0.202235
C297	C	-0.037350	-0.545971	0.248306
H298	H	-0.031019	-0.553755	0.197642
H299	H	-0.069614	-0.496058	0.181952
H300	H	-0.017829	-0.517172	0.195862
H301	H	-0.058621	-0.555480	0.254677
H302	H	-0.006834	-0.576604	0.268590
H303	H	0.154133	-0.328462	0.229178
H304	H	-0.099381	-0.199518	0.353671
O305	O	-0.364110	0.465474	-0.370803
C306	C	-0.361566	0.502937	-0.368508
H307	H	-0.397064	0.534227	-0.371490
H308	H	-0.350500	0.523486	-0.398217
C309	C	-0.282183	0.435401	-0.318176
C310	C	-0.325782	0.473829	-0.321836
H311	H	-0.260108	0.417447	-0.289388
H312	H	-0.283896	0.410162	-0.319724
H313	H	-0.272968	0.452532	-0.342936
H314	H	-0.334999	0.456698	-0.297079
H315	H	-0.324069	0.499065	-0.320283
O316	O	0.113199	-0.120316	-0.615388
C317	C	0.075357	-0.107571	-0.644693
H318	H	0.046416	-0.101891	-0.628910
H319	H	0.087043	-0.141548	-0.648643
C320	C	0.092877	-0.062403	-0.712077
C321	C	0.057329	-0.055422	-0.692693
H322	H	0.081757	-0.030237	-0.741687
H323	H	0.118373	-0.070991	-0.692334
H324	H	0.102612	-0.090719	-0.715364
H325	H	0.047599	-0.027111	-0.689401
H326	H	0.031831	-0.046828	-0.712438
O327	O	-0.231125	-0.071417	0.225668
C328	C	-0.246503	-0.101328	0.255776
H329	H	-0.224668	-0.124587	0.293284
H330	H	-0.242782	-0.130575	0.248101
C331	C	-0.324640	-0.034510	0.202299
C332	C	-0.297824	-0.063073	0.248367
H333	H	-0.356298	-0.010913	0.197727
H334	H	-0.314280	-0.014359	0.182013
H335	H	-0.321534	-0.058887	0.195908
H336	H	-0.300926	-0.038696	0.254756
H337	H	-0.308186	-0.083219	0.268653
O338	O	-0.231126	-0.071248	-0.024486
C339	C	-0.246503	-0.025773	-0.024681
H340	H	-0.224665	-0.010110	-0.038923
H341	H	-0.242788	-0.037162	0.012249
C342	C	-0.324643	-0.001111	-0.038050
C343	C	-0.297823	0.018130	-0.055546
H344	H	-0.356300	0.025970	-0.057087
H345	H	-0.314284	-0.031749	-0.037917
H346	H	-0.321541	-0.010601	-0.007275
H347	H	-0.300921	0.027613	-0.086317
H348	H	-0.308185	0.048771	-0.055684
O349	O	0.094651	-0.128791	-0.370768
C350	C	0.094449	-0.143967	-0.325475
H351	H	0.080213	-0.107898	-0.324049
H352	H	0.131375	-0.177179	-0.299930
C353	C	0.081061	-0.208702	-0.314186
C354	C	0.063573	-0.164401	-0.312435
H355	H	0.062017	-0.221310	-0.306141
H356	H	0.081199	-0.198480	-0.344699
H357	H	0.111832	-0.236373	-0.292898
H358	H	0.032805	-0.136729	-0.333727
H359	H	0.063429	-0.174620	-0.281925
H360	H	0.094791	0.002793	-0.498893
O361	O	0.154201	-0.456519	0.360905
C362	C	0.154417	-0.426627	0.376291
H363	H	0.139440	-0.384077	0.345071
H364	H	0.191568	-0.446292	0.396359
C365	C	0.143096	-0.477151	0.446504
C366	C	0.124696	-0.424888	0.408160
H367	H	0.124764	-0.476080	0.466164
H368	H	0.142952	-0.497291	0.436139
H369	H	0.174054	-0.493532	0.463223
H370	H	0.093741	-0.408510	0.391439
H371	H	0.124834	-0.404745	0.418523
O372	O	-0.499459	-0.534581	0.035114
C373	C	-0.544742	-0.504695	0.035342
H374	H	-0.556096	-0.462137	0.020342
H375	H	-0.545126	-0.524350	0.072499
C376	C	-0.564406	-0.555257	0.024080
C377	C	-0.578352	-0.502985	0.005654
H378	H	-0.585138	-0.554204	0.005769
H379	H	-0.533897	-0.575393	0.023928
H380	H	-0.564726	-0.571630	0.055044
H381	H	-0.578026	-0.486615	-0.025308
H382	H	-0.608861	-0.482846	0.005799
O383	O	-0.499471	0.600712	-0.506102
C384	C	-0.544761	0.615884	-0.521486
H385	H	-0.556096	0.599629	-0.490264
H386	H	-0.545170	0.598829	-0.541572
C387	C	-0.564448	0.697419	-0.591679
C388	C	-0.578371	0.677457	-0.553332
H389	H	-0.585180	0.735400	-0.611325
H390	H	-0.533935	0.687196	-0.581316
H391	H	-0.564789	0.683201	-0.608412
H392	H	-0.578024	0.691670	-0.536597
H393	H	-0.608884	0.687684	-0.563694
O394	O	-0.499453	0.465458	-0.370889
C395	C	-0.544749	0.495373	-0.401000
H396	H	-0.546173	0.518626	-0.438507
H397	H	-0.570282	0.524625	-0.393328
C398	C	-0.556063	0.428567	-0.347523
C399	C	-0.557811	0.457123	-0.393590
H400	H	-0.564121	0.404973	-0.342951
H401	H	-0.525547	0.408413	-0.327235
H402	H	-0.577341	0.452948	-0.341136
H403	H	-0.536529	0.432742	-0.399975
H404	H	-0.588323	0.477272	-0.413879
H405	H	-0.495829	-0.406511	0.035012
O406	O	-0.391185	0.247992	-0.134819
C407	C	-0.435721	0.276489	-0.165624
H408	H	-0.435678	0.296659	-0.202880
H409	H	-0.462177	0.308269	-0.160842
C410	C	-0.448744	0.212673	-0.109649
C411	C	-0.448690	0.237441	-0.155408
H412	H	-0.456746	0.188587	-0.103346
H413	H	-0.418740	0.193474	-0.088894
H414	H	-0.470791	0.239160	-0.105669
H415	H	-0.426641	0.210955	-0.159385
H416	H	-0.478691	0.256635	-0.176163
O417	O	0.094664	0.006530	-0.370890
C418	C	0.094469	0.052006	-0.401001
H419	H	0.080226	0.067673	-0.438508
H420	H	0.131399	0.040618	-0.393327
C421	C	0.081106	0.076660	-0.347525
C422	C	0.063608	0.095905	-0.393592
H423	H	0.062072	0.103739	-0.342954
H424	H	0.081239	0.046021	-0.327238
H425	H	0.111880	0.067170	-0.341136
H426	H	0.032837	0.105388	-0.399979
H427	H	0.063470	0.126547	-0.413881
O428	O	0.113238	-0.120292	-0.134812
C429	C	0.110936	-0.073466	-0.165615
H430	H	0.093853	-0.056428	-0.202872
H431	H	0.147506	-0.083576	-0.160833
C432	C	0.103077	-0.052600	-0.109635
C433	C	0.082092	-0.031671	-0.155394
H434	H	0.085287	-0.026819	-0.103329
H435	H	0.104630	-0.084148	-0.088881
H436	H	0.133551	-0.061024	-0.105655
H437	H	0.051620	-0.023254	-0.159371
H438	H	0.080533	-0.000120	-0.176148
H439	H	0.106608	-0.078237	-0.223453
H440	H	0.106623	0.141841	-0.443588
O441	O	0.113298	0.223793	-0.479001
C442	C	0.110976	0.195312	-0.434472
H443	H	0.123046	0.153721	-0.423800
H444	H	0.073654	0.217834	-0.435174
C445	C	0.127725	0.241043	-0.412406
C446	C	0.142554	0.189959	-0.399297
H447	H	0.147202	0.237743	-0.390708
H448	H	0.129288	0.260233	-0.442406
H449	H	0.096623	0.259806	-0.412991
H450	H	0.173653	0.171200	-0.398718
H451	H	0.140997	0.170766	-0.369295
O452	O	-0.255443	0.593061	-0.479964
C453	C	-0.225136	0.540790	-0.468418
H454	H	-0.240959	0.536304	-0.492778
H455	H	-0.219540	0.510423	-0.431070
C456	C	-0.158782	0.536280	-0.443430
C457	C	-0.178214	0.530772	-0.473352
H458	H	-0.129837	0.530100	-0.446472
H459	H	-0.179200	0.571496	-0.451208
H460	H	-0.154122	0.510974	-0.412310
H461	H	-0.182879	0.556082	-0.504472
H462	H	-0.157796	0.495561	-0.465581
O463	O	0.113387	0.224117	-0.614694
C464	C	0.155305	0.219891	-0.614587
H465	H	0.182117	0.186300	-0.578305
H466	H	0.148955	0.259349	-0.625033
C467	C	0.140524	0.248604	-0.693934
C468	C	0.173456	0.207344	-0.649372
H469	H	0.151720	0.240867	-0.715392
H470	H	0.112282	0.251454	-0.694006
H471	H	0.135235	0.281482	-0.702632
H472	H	0.178740	0.174469	-0.640672
H473	H	0.201700	0.204489	-0.649299
O474	O	-0.433710	0.678713	-0.572519
C475	C	-0.449910	0.725580	-0.617081
H476	H	-0.419064	0.724312	-0.627880
H477	H	-0.471770	0.762177	-0.616369
C478	C	-0.517629	0.730609	-0.638870
C479	C	-0.479743	0.729049	-0.652135
H480	H	-0.536033	0.732750	-0.660492
H481	H	-0.506715	0.699035	-0.608847
H482	H	-0.535841	0.761107	-0.638276
H483	H	-0.461529	0.698548	-0.652722
H484	H	-0.490654	0.760617	-0.682159
O485	O	0.106388	0.138761	-0.572196
C486	C	0.108689	0.167257	-0.616733
H487	H	0.125774	0.187421	-0.616690
H488	H	0.072118	0.199039	-0.643190
C489	C	0.116541	0.103445	-0.629755
C490	C	0.137529	0.128207	-0.629701
H491	H	0.134328	0.079358	-0.637756
H492	H	0.114988	0.084248	-0.599750
H493	H	0.086065	0.129935	-0.651802
H494	H	0.168001	0.101717	-0.607650
H495	H	0.139086	0.147399	-0.659703
H496	H	-0.099380	-0.199466	-0.024359
H497	H	-0.301727	-0.203079	-0.223479
O498	O	-0.231094	-0.321252	0.225518
C499	C	-0.233619	-0.278945	0.185523
H500	H	-0.202819	-0.296055	0.174005
H501	H	-0.232774	-0.251909	0.193732
C502	C	-0.316956	-0.225127	0.160453
C503	C	-0.279129	-0.246141	0.146304
H504	H	-0.345030	-0.204890	0.136261
H505	H	-0.315255	-0.253629	0.187399
H506	H	-0.316246	-0.202600	0.167294
H507	H	-0.279837	-0.268673	0.139470
H508	H	-0.280831	-0.217642	0.119356
O509	O	-0.255470	-0.752310	0.016547
C510	C	-0.239276	-0.723941	0.018838
H511	H	-0.259405	-0.703734	0.035925
H512	H	-0.244572	-0.692202	-0.017737
C513	C	-0.162518	-0.787940	0.026679
C514	C	-0.187239	-0.763125	0.047670
H515	H	-0.130419	-0.812109	0.044462
H516	H	-0.173428	-0.807052	0.025134
H517	H	-0.166936	-0.761486	-0.003799
H518	H	-0.182825	-0.789578	0.078145
H519	H	-0.176327	-0.744018	0.049221
H520	H	0.106619	-0.078217	-0.568789
O521	O	-0.642991	-0.321475	0.023455
C522	C	-0.596605	-0.353847	0.026945
H523	H	-0.594132	-0.377569	0.012839
H524	H	-0.573509	-0.382753	0.064892
C525	C	-0.583512	-0.288978	0.015879
C526	C	-0.580475	-0.318111	-0.001450
H527	H	-0.573561	-0.266936	-0.001635
H528	H	-0.614763	-0.267170	0.013529
H529	H	-0.564266	-0.313072	0.047500
H530	H	-0.599726	-0.294018	-0.033069
H531	H	-0.549227	-0.339915	0.000894
O532	O	-0.643615	0.139042	-0.437156
C533	C	-0.605930	0.143271	-0.437179
H534	H	-0.612630	0.176783	-0.473464
H535	H	-0.572773	0.103774	-0.426603
C536	C	-0.592276	0.114815	-0.357905
C537	C	-0.600506	0.155978	-0.402471
H538	H	-0.588928	0.122651	-0.336495
H539	H	-0.617663	0.111964	-0.357889
H540	H	-0.564646	0.081905	-0.349099
H541	H	-0.628139	0.188886	-0.411279
H542	H	-0.575123	0.158835	-0.402488
H543	H	-0.647059	0.142138	-0.568809
H544	H	-0.426314	-0.078564	-0.223203
H545	H	-0.426614	0.329984	-0.223458
O546	O	-0.391189	-0.271617	0.016543
C547	C	-0.435724	-0.257890	0.018847
H548	H	-0.435679	-0.295179	0.035936
H549	H	-0.462181	-0.226664	-0.017724
C550	C	-0.448747	-0.188905	0.026693
C551	C	-0.448691	-0.234706	0.047685
H552	H	-0.456747	-0.174601	0.044480
H553	H	-0.418743	-0.198152	0.025139
H554	H	-0.470794	-0.162889	-0.003782
H555	H	-0.426640	-0.260723	0.078157
H556	H	-0.478691	-0.225463	0.049245
H557	H	0.113006	-0.248593	-0.483685
H558	H	0.106623	-0.203035	-0.444212
O559	O	-0.364382	-0.128510	-0.370912
C560	C	-0.349005	-0.143688	-0.401023
H561	H	-0.370839	-0.107616	-0.438530
H562	H	-0.352727	-0.176887	-0.393351
C563	C	-0.270868	-0.208454	-0.347544
C564	C	-0.297682	-0.164149	-0.393611
H565	H	-0.239209	-0.221078	-0.342971
H566	H	-0.281228	-0.198230	-0.327257
H567	H	-0.273975	-0.236114	-0.341156
H568	H	-0.294579	-0.136488	-0.399996
H569	H	-0.287321	-0.174369	-0.413899
O570	O	-0.735408	0.592178	-0.479017
C571	C	-0.704600	0.545336	-0.434488
H572	H	-0.675067	0.546731	-0.423812
H573	H	-0.689808	0.508730	-0.435194
C574	C	-0.767098	0.540024	-0.412428
C575	C	-0.730826	0.541738	-0.399314
H576	H	-0.783275	0.537802	-0.390731
H577	H	-0.787854	0.571581	-0.442429
H578	H	-0.754766	0.509518	-0.413016
H579	H	-0.743159	0.572247	-0.398732
H580	H	-0.710073	0.510186	-0.369313
O581	O	-0.735710	0.224088	-0.615370
C582	C	-0.704902	0.195607	-0.631410
H583	H	-0.675368	0.154017	-0.600478
H584	H	-0.690111	0.218130	-0.653242
C585	C	-0.767400	0.241333	-0.699216
C586	C	-0.731128	0.190250	-0.661224
H587	H	-0.783578	0.238030	-0.717608
H588	H	-0.788156	0.260523	-0.688410
H589	H	-0.755069	0.260097	-0.717404
H590	H	-0.743460	0.171490	-0.643034
H591	H	-0.710375	0.171056	-0.672027
H592	H	-0.646757	0.550094	-0.443598
H593	H	-0.732075	0.720493	-0.607626
O594	O	-0.433711	-0.321495	0.023485
C595	C	-0.447722	-0.353856	0.026958
H596	H	-0.415747	-0.396018	0.042017
H597	H	-0.469062	-0.336041	-0.008990
C598	C	-0.516667	-0.304533	0.040476
C599	C	-0.477394	-0.356318	0.058975
H600	H	-0.534972	-0.306050	0.060223
H601	H	-0.507229	-0.282729	0.038134
H602	H	-0.534445	-0.289692	0.010519
H603	H	-0.459614	-0.371155	0.088928
H604	H	-0.486830	-0.378125	0.061323
H605	H	-0.731792	-0.278991	0.016812
O606	O	-0.391097	0.728508	-0.615296
C607	C	-0.395319	0.770384	-0.615253
H608	H	-0.367097	0.752765	-0.583810
H609	H	-0.430886	0.795238	-0.613541
C610	C	-0.424674	0.827991	-0.698612
C611	C	-0.390009	0.806352	-0.659995
H612	H	-0.421401	0.850180	-0.726211
H613	H	-0.421831	0.799780	-0.698641
H614	H	-0.454310	0.848700	-0.697179
H615	H	-0.360374	0.785639	-0.661425
H616	H	-0.392847	0.834561	-0.659967
O617	O	-0.297998	0.333046	-0.226782
C618	C	-0.253469	0.304562	-0.195972
H619	H	-0.242795	0.262967	-0.166445
H620	H	-0.254170	0.327075	-0.181170
C621	C	-0.231409	0.350311	-0.258465
C622	C	-0.218297	0.299222	-0.222201
H623	H	-0.209713	0.347019	-0.274644
H624	H	-0.261409	0.369503	-0.279222
H625	H	-0.231992	0.369067	-0.246124
H626	H	-0.217720	0.280469	-0.234542
H627	H	-0.188296	0.280027	-0.201446
H628	H	-0.647028	0.674924	-0.568431
H629	H	-0.301770	0.550701	-0.444180
H630	H	-0.262581	0.251075	-0.138127
H631	H	-0.732070	-0.403516	0.016804
H632	H	-0.647026	-0.449354	0.023185
H633	H	-0.426615	-0.670047	0.023195
O634	O	-0.391198	-0.752003	0.016527
C635	C	-0.435726	-0.723525	0.018850
H636	H	-0.446401	-0.681932	0.006774
H637	H	-0.435022	-0.746046	0.056174
C638	C	-0.457785	-0.769269	0.002113
C639	C	-0.470898	-0.718181	-0.012722
H640	H	-0.479481	-0.765974	-0.017360
H641	H	-0.427785	-0.788457	0.000550
H642	H	-0.457198	-0.788031	0.033217
H643	H	-0.471479	-0.699423	-0.043823
H644	H	-0.500899	-0.698991	-0.011165
H645	H	-0.301775	-0.670305	0.023178
O646	O	-0.298028	-0.456767	0.023518
C647	C	-0.257155	-0.496684	0.062537
H648	H	-0.261100	-0.487283	0.089448
H649	H	-0.226476	-0.497717	0.051474
C650	C	-0.243774	-0.563138	0.050696
C651	C	-0.248621	-0.551593	0.083751
H652	H	-0.238508	-0.597009	0.063781
H653	H	-0.271310	-0.536245	0.024407
H654	H	-0.218209	-0.563995	0.041479
H655	H	-0.274189	-0.550729	0.092962
H656	H	-0.221089	-0.578487	0.110042
O657	O	-0.255452	-0.406946	0.016581
C658	C	-0.226240	-0.419595	0.054428
H659	H	-0.242032	-0.425354	0.083366
H660	H	-0.222418	-0.385530	0.042746
C661	C	-0.158766	-0.464573	0.036918
C662	C	-0.178160	-0.471651	0.072462
H663	H	-0.129107	-0.496682	0.048041
H664	H	-0.178446	-0.456049	0.011419
H665	H	-0.155584	-0.436183	0.027186
H666	H	-0.181346	-0.500035	0.082189
H667	H	-0.158479	-0.480181	0.097964
H668	H	-0.496128	0.003076	-0.374407
H669	H	-0.301729	-0.203089	-0.443614
O670	O	-0.255154	-0.256280	-0.134835
C671	C	-0.239119	-0.270008	-0.165639
H672	H	-0.259333	-0.232719	-0.202895
H673	H	-0.244451	-0.301237	-0.160858
C674	C	-0.162265	-0.338987	-0.109658
C675	C	-0.187090	-0.293188	-0.155417
H676	H	-0.130171	-0.353288	-0.103352
H677	H	-0.173069	-0.329740	-0.088904
H678	H	-0.166714	-0.365005	-0.105680
H679	H	-0.182646	-0.267168	-0.159393
H680	H	-0.176285	-0.302431	-0.176171
O681	O	-0.255163	-0.256301	-0.479032
C682	C	-0.239119	-0.270014	-0.434505
H683	H	-0.270049	-0.251172	-0.423826
H684	H	-0.217306	-0.254506	-0.435216
C685	C	-0.171292	-0.354534	-0.412450
C686	C	-0.209280	-0.331397	-0.399331
H687	H	-0.152884	-0.392398	-0.390753
H688	H	-0.182100	-0.345295	-0.442449
H689	H	-0.153119	-0.341605	-0.413042
H690	H	-0.227455	-0.344320	-0.398745
H691	H	-0.198475	-0.340639	-0.369331
H692	H	-0.386837	-0.124397	-0.607648
O693	O	-0.433405	-0.071164	-0.572103
C694	C	-0.447580	-0.053525	-0.543335
H695	H	-0.415685	-0.070348	-0.516178
H696	H	-0.468957	-0.068094	-0.525253
C697	C	-0.516442	0.028809	-0.606378
C698	C	-0.477269	0.008151	-0.573025
H699	H	-0.534758	0.066854	-0.624691
H700	H	-0.506893	0.016925	-0.625759
H701	H	-0.534251	0.016664	-0.591304
H702	H	-0.459458	0.020291	-0.588099
H703	H	-0.486816	0.020039	-0.553646
O704	O	-0.736102	0.224543	-0.480081
C705	C	-0.752646	0.278929	-0.505267
H706	H	-0.756081	0.295133	-0.543223
H707	H	-0.727219	0.282784	-0.490209
C708	C	-0.796208	0.291338	-0.455231
C709	C	-0.800430	0.311241	-0.501850
H710	H	-0.825682	0.311270	-0.453121
H711	H	-0.785060	0.254697	-0.438261
H712	H	-0.775016	0.294552	-0.442687
H713	H	-0.821617	0.308021	-0.514390
H714	H	-0.811582	0.347883	-0.518821
