data_functionalizedCrystal
_audit_creation_method	'MofGen! by Chris Wilmer'
_symmetry_space_group_name_H-M	'P1'
_symmetry_Int_Tables_number	1
_symmetry_cell_setting	triclinic
loop_
_symmetry_equiv_pos_as_xyz
  x,y,z
_cell_length_a	19.188905
_cell_length_b	19.188940
_cell_length_c	10.868271
_cell_angle_alpha	89.994428
_cell_angle_beta	89.988558
_cell_angle_gamma	83.141635
loop_
_atom_site_label
_atom_site_type_symbol
_atom_site_fract_x
_atom_site_fract_y
_atom_site_fract_z
O1	O	0.926159	0.087084	-0.102526
O2	O	1.426159	0.587084	0.397474
O3	O	0.722845	0.098837	-0.102484
O4	O	1.222845	0.598837	0.397516
O5	O	0.830366	-0.008695	-0.102497
O6	O	1.330366	0.491305	0.397503
O7	O	0.818638	0.194616	-0.102513
O8	O	1.318638	0.694616	0.397487
O9	O	0.830357	-0.008699	0.102148
O10	O	1.330357	0.491301	0.602148
O11	O	0.722837	0.098833	0.102160
O12	O	1.222837	0.598833	0.602160
O13	O	0.926150	0.087080	0.102119
O14	O	1.426150	0.587080	0.602119
Zn15	Zn	0.824492	0.092956	0.134631
Zn16	Zn	1.324492	0.592956	0.634631
Zn17	Zn	0.824503	0.092961	-0.134997
Zn18	Zn	1.324503	0.592961	0.365003
O19	O	0.818630	0.194612	0.102131
O20	O	1.318630	0.694612	0.602131
C21	C	0.696830	0.098457	-0.000157
C22	C	1.196830	0.598457	0.499843
C23	C	0.619324	0.097323	-0.000140
C24	C	1.119324	0.597323	0.499860
C25	C	0.582937	0.096781	-0.111695
C26	C	1.082937	0.596781	0.388305
C27	C	0.510113	0.095708	-0.111710
C28	C	1.010113	0.595708	0.388290
C29	C	0.473682	0.095163	-0.000164
C30	C	0.973682	0.595163	0.499836
C31	C	0.510077	0.095710	0.111405
C32	C	1.010077	0.595710	0.611405
C33	C	0.582898	0.096790	0.111417
C34	C	1.082898	0.596790	0.611417
N35	N	0.364656	0.053733	0.082852
N36	N	0.864656	0.553733	0.582852
N37	N	0.295479	0.052706	0.082833
N38	N	0.795479	0.552706	0.582833
C39	C	0.254275	0.091911	-0.000194
C40	C	0.754275	0.591911	0.499806
N41	N	0.284862	0.132173	-0.083220
N42	N	0.784862	0.632173	0.416780
N43	N	0.354046	0.133198	-0.083204
N44	N	0.854046	0.633198	0.416796
C45	C	0.394719	0.093993	-0.000165
C46	C	0.894719	0.593993	0.499835
C47	C	0.138924	0.090206	-0.111773
C48	C	0.638924	0.590206	0.388227
C49	C	0.066098	0.089137	-0.111784
C50	C	0.566098	0.589137	0.388216
C51	C	0.066064	0.089132	0.111336
C52	C	0.566064	0.589132	0.611336
C53	C	0.138887	0.090208	0.111343
C54	C	0.638887	0.590208	0.611343
C55	C	0.175313	0.090741	-0.000215
C56	C	0.675313	0.590741	0.499785
C57	C	0.829980	-0.034708	-0.000175
C58	C	1.329980	0.465292	0.499825
C59	C	0.828837	-0.112212	-0.000175
C60	C	1.328837	0.387788	0.499825
C61	C	0.820698	-0.665473	0.111349
C62	C	1.320698	-0.165473	0.611349
C63	C	0.821764	-0.592648	0.111356
C64	C	1.321764	-0.092648	0.611356
C65	C	0.822306	-0.556227	-0.000195
C66	C	1.322306	-0.056227	0.499805
C67	C	0.821762	-0.592633	-0.111760
C68	C	1.321762	-0.092633	0.388240
C69	C	0.820689	-0.665455	-0.111763
C70	C	1.320689	-0.165455	0.388237
N71	N	0.863726	-0.447205	-0.083233
N72	N	1.363726	0.052795	0.416767
N73	N	0.864748	-0.378027	-0.083222
N74	N	1.364748	0.121973	0.416778
C75	C	0.825539	-0.336818	-0.000191
C76	C	1.325539	0.163182	0.499809
N77	N	0.785280	-0.367401	0.082847
N78	N	1.285280	0.132599	0.582847
N79	N	0.784262	-0.436585	0.082840
N80	N	1.284262	0.063415	0.582840
C81	C	0.823470	-0.477263	-0.000203
C82	C	1.323470	0.022737	0.499797
C83	C	0.827234	-0.221455	0.111374
C84	C	1.327234	0.278545	0.611374
C85	C	0.828297	-0.148629	0.111376
C86	C	1.328297	0.351371	0.611376
C87	C	0.828302	-0.148616	-0.111743
C88	C	1.328302	0.351384	0.388257
C89	C	0.827233	-0.221440	-0.111741
C90	C	1.327233	0.278560	0.388259
C91	C	0.826702	-0.257856	-0.000179
C92	C	1.326702	0.242144	0.499821
C93	C	0.952166	0.087460	-0.000212
C94	C	1.452166	0.587460	0.499788
C95	C	1.029671	0.088594	-0.000236
C96	C	1.529671	0.588594	0.499764
C97	C	0.819015	0.220625	-0.000194
C98	C	1.319015	0.720625	0.499806
C99	C	0.820158	0.298129	-0.000201
C100	C	1.320158	0.798129	0.499799
N101	N	0.824489	0.092952	0.318645
N102	N	1.324489	0.592952	0.818645
N103	N	0.824512	0.092960	-0.319011
N104	N	1.324512	0.592960	0.180989
C105	C	0.824500	0.092960	0.569651
C106	C	1.324500	0.592960	1.069651
C107	C	0.824492	0.092957	0.429974
C108	C	1.324492	0.592957	0.929974
H109	H	0.168514	0.090645	0.202183
H110	H	0.668514	0.590645	0.702183
H111	H	0.036401	0.088693	0.202159
H112	H	0.536401	0.588693	0.702159
C113	C	0.820103	-0.705524	0.234071
C114	C	1.320103	-0.205524	0.734071
N115	N	0.819651	-0.735692	0.326507
N116	N	1.319651	-0.235692	0.826507
C117	C	0.622926	0.097381	0.234142
C118	C	1.122926	0.597381	0.734142
N119	N	0.653076	0.097823	0.326580
N120	N	1.153076	0.597823	0.826580
C121	C	0.470000	0.095109	0.234107
C122	C	0.970000	0.595109	0.734107
N123	N	0.439815	0.094659	0.326529
N124	N	0.939815	0.594659	0.826529
H125	H	0.168583	0.090648	-0.202610
H126	H	0.668583	0.590648	0.297390
C127	C	0.822364	-0.552604	0.234075
C128	C	1.322364	-0.052604	0.734075
N129	N	0.822818	-0.522444	0.326508
N130	N	1.322818	-0.022444	0.826508
C131	C	0.822362	-0.552568	-0.234466
C132	C	1.322362	-0.052568	0.265534
N133	N	0.822813	-0.522391	-0.326892
N134	N	1.322813	-0.022391	0.173108
H135	H	0.820249	-0.695090	-0.202604
H136	H	1.320249	-0.195090	0.297396
C137	C	0.623002	0.097367	-0.234413
C138	C	1.123002	0.597367	0.265587
N139	N	0.653180	0.097807	-0.326844
N140	N	1.153180	0.597807	0.173156
C141	C	0.828887	-0.108591	0.234098
C142	C	1.328887	0.391409	0.734098
N143	N	0.829332	-0.078434	0.326534
N144	N	1.329332	0.421566	0.826534
H145	H	0.826797	-0.251106	0.202215
H146	H	1.326797	0.248894	0.702215
H147	H	0.828735	-0.118961	-0.202569
H148	H	1.328735	0.381039	0.297431
C149	C	0.026073	0.088538	-0.234510
C150	C	0.526073	0.588538	0.265490
N151	N	-0.004074	0.088083	-0.326950
N152	N	0.495926	0.588083	0.173050
C153	C	0.826682	-0.261485	-0.234458
C154	C	1.326682	0.238515	0.265542
N155	N	0.826279	-0.291648	-0.326894
N156	N	1.326279	0.208352	0.173106
H157	H	0.480481	0.095268	-0.202555
H158	H	0.980481	0.595268	0.297445
