data_functionalizedCrystal
_audit_creation_method	'MofGen! by Chris Wilmer'
_symmetry_space_group_name_H-M	'P1'
_symmetry_Int_Tables_number	1
_symmetry_cell_setting	triclinic
loop_
_symmetry_equiv_pos_as_xyz
  x,y,z
_cell_length_a	12.759401
_cell_length_b	19.805405
_cell_length_c	12.759393
_cell_angle_alpha	90.037628
_cell_angle_beta	90.018496
_cell_angle_gamma	90.026572
loop_
_atom_site_label
_atom_site_type_symbol
_atom_site_fract_x
_atom_site_fract_y
_atom_site_fract_z
Zn1	Zn	1.606170	-0.269420	0.593937
Zn2	Zn	1.606028	-0.382625	0.418239
Zn3	Zn	1.430472	-0.269456	0.418276
Zn4	Zn	1.430425	-0.382573	0.593880
O5	O	1.518274	-0.326019	0.506083
O6	O	1.753172	-0.284444	0.570638
O7	O	1.582701	-0.367650	0.271222
O8	O	1.453858	-0.174735	0.441618
O9	O	1.753068	-0.367615	0.441553
O10	O	1.582942	-0.174708	0.570675
O11	O	1.453720	-0.284505	0.271250
O12	O	1.283445	-0.284454	0.441563
O13	O	1.453777	-0.367527	0.740909
O14	O	1.283410	-0.367561	0.570578
O15	O	1.582896	-0.284394	0.740951
O16	O	1.582655	-0.477335	0.441498
O17	O	1.453640	-0.477297	0.570541
C18	C	1.245306	-0.326006	0.506069
C19	C	1.128530	-0.326017	0.506088
C20	C	1.518155	-0.501875	0.506032
C21	C	1.518201	-0.577107	0.506046
C22	C	1.073677	-0.369360	0.573155
C23	C	0.963953	-0.369369	0.573166
C24	C	0.963944	-0.282689	0.439034
C25	C	1.073666	-0.282678	0.439029
C26	C	1.073681	-0.419406	0.650592
C27	C	0.963957	-0.419414	0.650603
C28	C	1.585444	-0.612448	0.438923
C29	C	1.585489	-0.683137	0.438946
C30	C	1.518284	-0.718482	0.506088
C31	C	1.451038	-0.683136	0.573217
C32	C	1.450999	-0.612449	0.573199
C33	C	1.451193	-0.968209	0.573295
C34	C	1.451234	-1.038901	0.573306
C35	C	1.585683	-1.038897	0.439043
C36	C	1.585644	-0.968210	0.439024
C37	C	1.518402	-0.932870	0.506157
C38	C	1.518356	-0.856221	0.506133
C39	C	1.518324	-0.795129	0.506108
C40	C	1.792307	-0.326032	0.506098
C41	C	1.909084	-0.326037	0.506104
C42	C	1.518347	-0.325950	0.780117
C43	C	1.518379	-0.325921	0.896893
C44	C	1.518421	-0.149476	0.506157
C45	C	1.518484	-0.074244	0.506189
C46	C	1.518261	-0.326038	0.233116
C47	C	1.518433	-0.325876	0.116340
C48	C	1.585620	-0.282630	0.951779
C49	C	1.585645	-0.282605	1.061503
C50	C	1.451184	-0.369170	1.061446
C51	C	1.451154	-0.369190	0.951724
C52	C	1.663254	-0.232655	0.951812
C53	C	1.663279	-0.232630	1.061537
H54	H	1.118323	-0.247379	0.384423
O55	O	1.114078	-0.478831	0.615669
C56	C	1.077587	-0.590476	0.549903
C57	C	1.031698	-0.523219	0.589459
H58	H	1.011006	-0.626376	0.528680
H59	H	1.127851	-0.614083	0.614023
H60	H	1.127891	-0.580738	0.477646
H61	H	0.981348	-0.532899	0.661696
H62	H	0.981494	-0.499633	0.525275
O63	O	1.650577	-0.578086	0.373589
C64	C	1.664750	-0.498317	0.231774
C65	C	1.590863	-0.537199	0.305682
H66	H	1.616502	-0.465240	0.176868
H67	H	1.712802	-0.535690	0.183729
H68	H	1.719661	-0.465198	0.280071
H69	H	1.535888	-0.570319	0.257467
H70	H	1.542885	-0.499789	0.353731
O71	O	0.910603	-0.240693	0.373776
C72	C	0.786632	-0.231492	0.232000
C73	C	0.846988	-0.279129	0.305828
H74	H	0.735168	-0.262547	0.177061
H75	H	0.844643	-0.200526	0.183986
H76	H	0.735345	-0.196126	0.280357
H77	H	0.898276	-0.314535	0.257552
H78	H	0.788920	-0.310047	0.353846
O79	O	1.385733	-0.578188	0.638548
C80	C	1.334686	-0.556459	0.817218
C81	C	1.408643	-0.595312	0.743321
H82	H	1.353196	-0.570278	0.901944
H83	H	1.249966	-0.570420	0.798793
H84	H	1.346190	-0.499870	0.805619
H85	H	1.397232	-0.651910	0.754878
H86	H	1.493335	-0.581295	0.761764
O87	O	1.650901	-1.073204	0.373693
C88	C	1.702059	-1.094884	0.195040
C89	C	1.628123	-1.056001	0.268922
H90	H	1.683684	-1.080980	0.110319
H91	H	1.690539	-1.151484	0.206505
H92	H	1.786750	-1.080938	0.213615
H93	H	1.543404	-1.069891	0.250394
H94	H	1.639734	-0.999411	0.257444
H95	H	1.744645	-0.246670	1.091313
H96	H	1.103494	-0.405426	0.732001
O97	O	1.385609	-0.717393	0.638390
C98	C	1.206878	-0.739115	0.689203
C99	C	1.280862	-0.700268	0.615347
H100	H	1.122174	-0.725295	0.670585
H101	H	1.225191	-0.725149	0.773948
H102	H	1.218506	-0.795705	0.677706
H103	H	1.269275	-0.643669	0.626751
H104	H	1.262531	-0.714291	0.530629
H105	H	1.396396	-0.404440	0.907040
O106	O	0.923569	-0.397103	0.742964
C107	C	0.960071	-0.355071	0.916453
C108	C	1.005953	-0.380345	0.811925
H109	H	1.026657	-0.341502	0.972228
H110	H	0.909811	-0.396457	0.952910
H111	H	0.909767	-0.308496	0.901569
H112	H	1.056305	-0.426908	0.826719
H113	H	1.056154	-0.338918	0.775499
H114	H	1.740520	-0.251446	0.917773
H115	H	0.934145	-0.471823	0.628662
O116	O	1.650840	-0.717363	0.373641
C117	C	1.784231	-0.709899	0.240500
C118	C	1.710254	-0.671055	0.314389
H119	H	1.832303	-0.672476	0.192591
H120	H	1.736093	-0.743031	0.185465
H121	H	1.839119	-0.742955	0.288805
H122	H	1.655351	-0.637962	0.266169
H123	H	1.758458	-0.637966	0.369427
H124	H	1.641502	-0.180237	0.922065
H125	H	1.634181	-0.182825	1.095593
O126	O	1.650777	-0.933847	0.373691
C127	C	1.664951	-0.854074	0.231881
C128	C	1.591064	-0.892958	0.305786
H129	H	1.616704	-0.820996	0.176976
H130	H	1.713004	-0.891447	0.183835
H131	H	1.719862	-0.820956	0.280181
H132	H	1.536090	-0.926077	0.257568
H133	H	1.543085	-0.855549	0.353837
O134	O	1.385920	-1.073132	0.638636
C135	C	1.252525	-1.065681	0.771780
C136	C	1.326451	-1.026830	0.697872
H137	H	1.204410	-1.028263	0.819676
H138	H	1.300706	-1.098703	0.826827
H139	H	1.197675	-1.098847	0.723491
H140	H	1.381315	-0.993628	0.746077
H141	H	1.278204	-0.993850	0.642823
H142	H	1.396440	-0.939440	0.627955
H143	H	1.396450	-0.404396	1.106103
