data_functionalizedCrystal
_audit_creation_method	'MofGen! by Chris Wilmer'
_symmetry_space_group_name_H-M	'P1'
_symmetry_Int_Tables_number	1
_symmetry_cell_setting	triclinic
loop_
_symmetry_equiv_pos_as_xyz
  x,y,z
_cell_length_a	10.654562
_cell_length_b	11.026607
_cell_length_c	9.730223
_cell_angle_alpha	89.999947
_cell_angle_beta	89.996961
_cell_angle_gamma	96.538060
loop_
_atom_site_label
_atom_site_type_symbol
_atom_site_fract_x
_atom_site_fract_y
_atom_site_fract_z
O1	O	1.704908	0.170837	-0.114378
O2	O	1.342960	0.187091	-0.114361
O3	O	1.493936	0.002057	-0.114363
O4	O	1.553932	0.355871	-0.114376
O5	O	1.493935	0.002062	0.114217
O6	O	1.342959	0.187096	0.114219
O7	O	1.704907	0.170842	0.114202
Zn8	Zn	1.523933	0.178970	0.150502
Zn9	Zn	1.523934	0.178963	-0.150662
O10	O	1.553931	0.355876	0.114204
C11	C	1.295902	0.185897	-0.000069
C12	C	1.155682	0.182316	-0.000062
C13	C	1.089788	0.180649	0.124526
C14	C	0.958038	0.177295	0.124503
C15	C	0.958087	0.177280	-0.124707
C16	C	1.089834	0.180626	-0.124683
C17	C	1.089759	0.180662	0.268406
C18	C	0.958009	0.177308	0.268383
C19	C	1.482867	-0.043245	-0.000074
C20	C	1.449873	-0.178238	-0.000078
C21	C	1.540976	-0.251273	-0.000084
C22	C	1.506877	-0.390796	-0.000087
C23	C	1.751965	0.172036	-0.000094
C24	C	1.892185	0.175617	-0.000109
C25	C	1.564999	0.401178	-0.000088
C26	C	1.597994	0.536171	-0.000094
N27	N	1.523941	0.178973	0.356039
N28	N	1.523934	0.178950	-0.356198
C29	C	1.590821	0.097068	0.427964
C30	C	1.590814	0.097053	0.571847
C31	C	1.457045	0.260859	0.571867
C32	C	1.457045	0.260867	0.427987
C33	C	1.668056	0.002500	0.427953
C34	C	1.668049	0.002485	0.571836
H35	H	0.904458	0.175904	-0.226169
Cl36	Cl	0.882610	0.040533	0.337612
H37	H	0.929962	0.261336	0.323616
Cl38	Cl	1.824032	0.034643	0.632130
Cl39	Cl	1.133031	0.050943	0.353715
Cl40	Cl	1.591335	-0.133853	0.640739
Cl41	Cl	1.700379	-0.188346	-0.000100
H42	H	1.143479	0.181965	-0.226135
H43	H	1.403628	-0.431555	-0.000091
Cl44	Cl	1.290470	-0.241165	-0.000084
H45	H	1.701243	-0.423071	-0.000202
Cl46	Cl	1.165147	0.317564	0.337327
H47	H	1.402573	0.327550	0.369426
Cl48	Cl	1.372953	0.363806	0.662324
Cl49	Cl	1.603631	-0.141779	0.367653
H50	H	1.765668	0.032116	0.383322
