data_functionalizedCrystal
_audit_creation_method	'MofGen! by Chris Wilmer'
_symmetry_space_group_name_H-M	'P1'
_symmetry_Int_Tables_number	1
_symmetry_cell_setting	triclinic
loop_
_symmetry_equiv_pos_as_xyz
  x,y,z
_cell_length_a	14.044220
_cell_length_b	14.853567
_cell_length_c	13.330367
_cell_angle_alpha	90.000844
_cell_angle_beta	90.002608
_cell_angle_gamma	88.411904
loop_
_atom_site_label
_atom_site_type_symbol
_atom_site_fract_x
_atom_site_fract_y
_atom_site_fract_z
O1	O	-1.257997	-0.217372	-0.083301
O2	O	-0.757997	0.282628	0.416699
O3	O	-0.982018	-0.209528	-0.083327
O4	O	-0.482018	0.290472	0.416673
O5	O	-1.127379	-0.082805	-0.083316
O6	O	-0.627379	0.417195	0.416684
O7	O	-1.112636	-0.344096	-0.083312
O8	O	-0.612636	0.155904	0.416688
O9	O	-1.127358	-0.082800	0.083531
O10	O	-0.627358	0.417200	0.583531
O11	O	-0.981996	-0.209524	0.083520
O12	O	-0.481996	0.290476	0.583520
O13	O	-1.257976	-0.217368	0.083546
O14	O	-0.757976	0.282632	0.583546
Cu15	Cu	-1.119984	-0.213445	0.098768
Cu16	Cu	-0.619984	0.286555	0.598768
Cu17	Cu	-1.120009	-0.213451	-0.098548
Cu18	Cu	-0.620009	0.286549	0.401452
O19	O	-1.112614	-0.344091	0.083535
O20	O	-0.612614	0.155909	0.583535
C21	C	-1.126701	-0.049161	0.000104
C22	C	-0.626701	0.450839	0.500104
C23	C	-1.124699	0.051082	0.000095
C24	C	-0.624699	0.551082	0.500095
C25	C	-0.946688	-0.206092	0.000093
C26	C	-0.446688	0.293908	0.500093
C27	C	-0.841449	-0.195851	0.000083
C28	C	-0.341449	0.304149	0.500083
C29	C	-1.293306	-0.220803	0.000124
C30	C	-0.793306	0.279197	0.500124
C31	C	-1.398545	-0.231045	0.000127
C32	C	-0.898545	0.268955	0.500127
C33	C	-0.648763	-0.177127	0.000102
C34	C	-0.148763	0.322873	0.500102
C35	C	-0.591225	-0.249765	0.000108
C36	C	-0.091225	0.250235	0.500108
C37	C	-0.484008	-0.239347	0.000119
C38	C	0.015992	0.260653	0.500119
C39	C	-0.755990	-0.187544	0.000092
C40	C	-0.255990	0.312456	0.500092
C41	C	-1.113293	-0.377735	0.000113
C42	C	-0.613293	0.122265	0.500113
C43	C	-1.115295	-0.477978	0.000115
C44	C	-0.615295	0.022022	0.500115
N45	N	-1.119974	-0.213441	0.237549
N46	N	-0.619974	0.286559	0.737549
C47	C	-1.029888	0.471127	0.000106
C48	C	-0.529888	0.971127	0.500106
C49	C	-1.202581	0.478726	0.000122
C50	C	-0.702581	0.978726	0.500122
C51	C	-1.204464	0.384543	0.000116
C52	C	-0.704464	0.884543	0.500116
C53	C	-1.119057	0.333648	0.000107
C54	C	-0.619057	0.833648	0.500107
C55	C	-1.031768	0.376935	0.000103
C56	C	-0.531768	0.876935	0.500103
C57	C	-1.291751	0.341248	0.000130
C58	C	-0.791751	0.841248	0.500130
C59	C	-1.293637	0.247060	0.000125
C60	C	-0.793637	0.747060	0.500125
C61	C	-1.208229	0.196163	0.000109
C62	C	-0.708229	0.696163	0.500109
C63	C	-1.120937	0.239456	0.000104
C64	C	-0.620937	0.739456	0.500104
C65	C	-1.035530	0.188561	0.000094
C66	C	-0.535530	0.688561	0.500094
C67	C	-0.948237	0.231852	0.000082
C68	C	-0.448237	0.731852	0.500082
C69	C	-0.946360	0.326038	0.000086
C70	C	-0.446360	0.826038	0.500086
C71	C	-1.210105	0.101977	0.000105
C72	C	-0.710105	0.601977	0.500105
C73	C	-1.037410	0.094369	0.000092
C74	C	-0.537410	0.594369	0.500092
N75	N	-1.120027	-0.213448	-0.237330
N76	N	-0.620027	0.286552	0.262670
C77	C	-1.055640	-0.269540	0.710167
C78	C	-0.555640	0.230460	1.210167
C79	C	-1.184404	-0.157357	0.710145
C80	C	-0.684404	0.342643	1.210145
C81	C	-1.184393	-0.157353	0.605126
C82	C	-0.684393	0.342647	1.105126
C83	C	-1.120006	-0.213445	0.552624
C84	C	-0.620006	0.286555	1.052624
C85	C	-1.055630	-0.269540	0.605139
C86	C	-0.555630	0.230460	1.105139
C87	C	-1.248775	-0.101266	0.552603
C88	C	-0.748775	0.398734	1.052603
C89	C	-1.248767	-0.101261	0.447578
C90	C	-0.748767	0.398739	0.947578
C91	C	-1.184375	-0.157348	0.395073
C92	C	-0.684375	0.342652	0.895073
C93	C	-1.119995	-0.213445	0.447596
C94	C	-0.619995	0.286555	0.947596
C95	C	-1.055608	-0.269536	0.395093
C96	C	-0.555608	0.230464	0.895093
C97	C	-0.991223	-0.325629	0.447613
C98	C	-0.491223	0.174371	0.947613
C99	C	-0.991237	-0.325627	0.552635
C100	C	-0.491237	0.174373	1.052635
C101	C	-1.184361	-0.157350	0.290052
C102	C	-0.684361	0.342650	0.790052
C103	C	-1.055597	-0.269536	0.290065
C104	C	-0.555597	0.230464	0.790065
H105	H	-0.622488	-0.319778	0.000104
H106	H	-0.122488	0.180222	0.500104
Cl107	Cl	-0.836631	0.380467	0.000068
Cl108	Cl	-0.336631	0.880467	0.500068
Cl109	Cl	-0.600497	-0.069039	0.000102
Cl110	Cl	-0.100497	0.430961	0.500102
Cl111	Cl	-0.920154	0.525548	0.000081
Cl112	Cl	-0.420154	1.025548	0.500081
Cl113	Cl	-0.930035	0.030394	0.000072
Cl114	Cl	-0.430035	0.530394	0.500072
Cl115	Cl	-1.265301	-0.086844	0.224033
Cl116	Cl	-0.765301	0.413156	0.724033
Cl117	Cl	-1.309943	0.542709	0.000150
Cl118	Cl	-0.809943	1.042709	0.500150
Cl119	Cl	-1.399111	0.405234	0.000163
Cl120	Cl	-0.899111	0.905234	0.500163
Cl121	Cl	-0.974699	-0.340050	0.776187
Cl122	Cl	-0.474699	0.159950	1.276187
Cl123	Cl	-1.329721	-0.030760	0.618603
Cl124	Cl	-0.829721	0.469240	1.118603
Cl125	Cl	-1.265350	-0.086851	0.776145
Cl126	Cl	-0.765350	0.413149	1.276145
Cl127	Cl	-1.319836	0.047557	0.000139
Cl128	Cl	-0.819836	0.547557	0.500139
H129	H	-0.938818	-0.371297	0.595403
H130	H	-0.438818	0.128703	1.095403
Cl131	Cl	-0.840873	0.167859	0.000079
Cl132	Cl	-0.340873	0.667859	0.500079
H133	H	-1.364716	0.211820	0.000134
H134	H	-0.864716	0.711820	0.500134
H135	H	-1.003162	-0.315210	0.247323
H136	H	-0.503162	0.184790	0.747323
H137	H	-0.938803	-0.371303	0.404853
H138	H	-0.438803	0.128697	0.904853
Cl139	Cl	-1.329702	-0.030743	0.381560
Cl140	Cl	-0.829702	0.469257	0.881560
