data_functionalizedCrystal
_audit_creation_method	'MofGen! by Chris Wilmer'
_symmetry_space_group_name_H-M	'P1'
_symmetry_Int_Tables_number	1
_symmetry_cell_setting	triclinic
loop_
_symmetry_equiv_pos_as_xyz
  x,y,z
_cell_length_a	9.065218
_cell_length_b	7.088929
_cell_length_c	9.065218
_cell_angle_alpha	96.314275
_cell_angle_beta	85.015885
_cell_angle_gamma	83.703834
loop_
_atom_site_label
_atom_site_type_symbol
_atom_site_fract_x
_atom_site_fract_y
_atom_site_fract_z
O1	O	1.945457	0.158984	0.231322
O2	O	2.445457	0.658984	0.731322
O3	O	1.516172	0.158986	0.249069
O4	O	2.016172	0.658986	0.749069
O5	O	1.739688	0.158981	0.025553
O6	O	2.239688	0.658981	0.525553
O7	O	1.721941	0.158989	0.454839
O8	O	2.221941	0.658989	0.954839
O9	O	1.769558	-0.158995	-0.004386
O10	O	2.269558	0.341005	0.495614
O11	O	1.546042	-0.158990	0.219130
O12	O	2.046042	0.341010	0.719130
O13	O	1.975327	-0.158992	0.201383
O14	O	2.475327	0.341008	0.701383
Cu15	Cu	1.763412	-0.188024	0.207523
Cu16	Cu	2.263412	0.311976	0.707523
Cu17	Cu	1.728087	0.188019	0.242929
Cu18	Cu	2.228087	0.688019	0.742929
O19	O	1.751811	-0.158987	0.424899
O20	O	2.251811	0.341013	0.924899
C21	C	1.476120	-0.000001	0.232394
C22	C	1.976120	0.499999	0.732394
C23	C	1.312277	-0.000000	0.227294
C24	C	1.812277	0.500000	0.727294
N25	N	1.788268	-0.452513	0.182619
N26	N	2.288268	0.047487	0.682619
C27	C	2.015378	0.000000	0.218059
C28	C	2.515378	0.500000	0.718059
C29	C	2.179220	0.000012	0.223160
C30	C	2.679220	0.500012	0.723160
C31	C	1.752917	-0.000004	-0.044403
C32	C	2.252917	0.499996	0.455597
C33	C	1.747817	0.000006	-0.208245
C34	C	2.247817	0.500006	0.291755
N35	N	1.703243	0.452507	0.267822
N36	N	2.203243	0.952507	0.767822
C37	C	1.738581	0.000002	0.494856
C38	C	2.238581	0.500002	0.994856
C39	C	1.743681	0.000006	0.658699
C40	C	2.243681	0.500006	1.158699
H41	H	1.615124	-0.465844	0.356116
H42	H	2.115124	0.034156	0.856116
H43	H	1.876403	-0.534171	0.094330
H44	H	2.376403	-0.034171	0.594330
