data_functionalizedCrystal
_audit_creation_method	'MofGen! by Chris Wilmer'
_symmetry_space_group_name_H-M	'P1'
_symmetry_Int_Tables_number	1
_symmetry_cell_setting	triclinic
loop_
_symmetry_equiv_pos_as_xyz
  x,y,z
_cell_length_a	16.109317
_cell_length_b	11.892095
_cell_length_c	16.109298
_cell_angle_alpha	93.893369
_cell_angle_beta	83.464201
_cell_angle_gamma	86.106418
loop_
_atom_site_label
_atom_site_type_symbol
_atom_site_fract_x
_atom_site_fract_y
_atom_site_fract_z
O1	O	-1.108432	0.093869	-0.101624
O2	O	-0.775099	0.427203	0.231710
O3	O	-0.441765	0.760536	0.565043
O4	O	-0.866373	0.093896	-0.114907
O5	O	-0.533040	0.427230	0.218426
O6	O	-0.199706	0.760563	0.551759
O7	O	-0.994054	0.093890	0.012766
O8	O	-0.660721	0.427223	0.346099
O9	O	-0.327387	0.760557	0.679432
O10	O	-0.980751	0.093875	-0.229297
O11	O	-0.647418	0.427209	0.104037
O12	O	-0.314084	0.760542	0.437370
O13	O	-0.983408	-0.094117	0.002137
O14	O	-0.650075	0.239216	0.335470
O15	O	-0.316741	0.572550	0.668804
O16	O	-0.855727	-0.094111	-0.125536
O17	O	-0.522394	0.239223	0.207797
O18	O	-0.189061	0.572556	0.541131
O19	O	-1.097786	-0.094138	-0.112253
O20	O	-0.764453	0.239196	0.221081
O21	O	-0.431119	0.572529	0.554414
Zn22	Zn	-0.975067	-0.123974	-0.120582
Zn23	Zn	-0.641733	0.209359	0.212752
Zn24	Zn	-0.308400	0.542692	0.546085
Zn25	Zn	-0.989093	0.123733	-0.106578
Zn26	Zn	-0.655759	0.457066	0.226755
Zn27	Zn	-0.322426	0.790400	0.560089
O28	O	-0.970105	-0.094132	-0.239925
O29	O	-0.636772	0.239202	0.093408
O30	O	-0.303439	0.572535	0.426741
C31	C	-0.830076	-0.000104	-0.119681
C32	C	-0.496743	0.333230	0.213652
C33	C	-0.163409	0.666563	0.546986
C34	C	-0.737782	-0.000093	-0.118060
C35	C	-0.404449	0.333241	0.215274
C36	C	-0.071115	0.666574	0.548607
N37	N	-0.965500	-0.293028	-0.130139
N38	N	-0.632167	0.040305	0.203195
N39	N	-0.298833	0.373639	0.536528
C40	C	-0.444510	0.102378	-0.107033
C41	C	-0.111177	0.435711	0.226301
C42	C	0.222156	0.769044	0.559634
C43	C	-0.531232	0.102382	-0.108549
C44	C	-0.197899	0.435716	0.224784
C45	C	0.135435	0.769049	0.558117
C46	C	-0.519644	-0.102593	-0.120126
C47	C	-0.186311	0.230740	0.213207
C48	C	0.147022	0.564073	0.546540
C49	C	-0.432925	-0.102597	-0.118603
C50	C	-0.099592	0.230737	0.214730
C51	C	0.233742	0.564070	0.548063
C52	C	-0.395360	-0.000108	-0.112061
C53	C	-0.062027	0.333225	0.221273
C54	C	0.271307	0.666559	0.554606
C55	C	-0.568801	-0.000100	-0.115100
C56	C	-0.235467	0.333234	0.218233
C57	C	0.097866	0.666567	0.551566
C58	C	-0.662828	-0.000095	-0.116745
C59	C	-0.329495	0.333238	0.216588
C60	C	0.003839	0.666571	0.549922
C61	C	-0.301327	-0.000112	-0.110414
C62	C	0.032006	0.333221	0.222919
C63	C	0.365340	0.666555	0.556253
C64	C	-1.065234	-0.529681	-0.030467
C65	C	-0.731900	-0.196347	0.302866
C66	C	-0.398567	0.136986	0.636200
C67	C	-1.058553	-0.648022	-0.037153
C68	C	-0.725220	-0.314689	0.296180
C69	C	-0.391886	0.018644	0.629514
C70	C	-0.945454	-0.648055	-0.150192
C71	C	-0.612121	-0.314722	0.183141
C72	C	-0.278787	0.018612	0.516474
C73	C	-0.952135	-0.529713	-0.143506
C74	C	-0.618802	-0.196380	0.189827
C75	C	-0.285468	0.136953	0.523160
C76	C	-1.012028	-0.470530	-0.083642
C77	C	-0.678694	-0.137197	0.249691
C78	C	-0.345361	0.196136	0.583024
C79	C	-1.018712	-0.352187	-0.076961
C80	C	-0.685379	-0.018853	0.256373
C81	C	-0.352045	0.314480	0.589706
C82	C	-0.905609	-0.352221	-0.189996
C83	C	-0.572276	-0.018888	0.143338
C84	C	-0.238943	0.314445	0.476671
C85	C	-0.898929	-0.470563	-0.196682
C86	C	-0.565595	-0.137230	0.136652
C87	C	-0.232262	0.196104	0.469985
C88	C	-0.134084	-0.000129	-0.107479
C89	C	0.199250	0.333204	0.225854
C90	C	0.532583	0.666537	0.559187
C91	C	-0.226379	-0.000115	-0.109101
C92	C	0.106954	0.333218	0.224232
C93	C	0.440288	0.666552	0.557565
C94	C	-0.988193	-0.000109	0.038426
C95	C	-0.654860	0.333224	0.371760
C96	C	-0.321526	0.666558	0.705093
C97	C	-0.986580	-0.000095	0.130723
C98	C	-0.653246	0.333238	0.464056
C99	C	-0.319913	0.666571	0.797389
N100	N	-0.998666	0.292786	-0.097015
N101	N	-0.665332	0.626120	0.236319
N102	N	-0.331999	0.959453	0.569652
C103	C	-0.975966	-0.000130	-0.265586
C104	C	-0.642633	0.333203	0.067747
C105	C	-0.309300	0.666537	0.401081
C106	C	-0.977580	-0.000136	-0.357882
C107	C	-0.644247	0.333197	-0.024549
C108	C	-0.310914	0.666530	0.308785
C109	C	-0.987114	0.102364	0.435584
C110	C	-0.653781	0.435697	0.768918
C111	C	-0.320447	0.769031	1.102251
C112	C	-0.988642	0.102372	0.348865
C113	C	-0.655309	0.435705	0.682198
C114	C	-0.321976	0.769039	1.015531
C115	C	-0.977048	-0.102604	0.337262
C116	C	-0.643714	0.230730	0.670596
C117	C	-0.310381	0.564063	1.003929
C118	C	-0.975525	-0.102610	0.423981
C119	C	-0.642192	0.230723	0.757315
C120	C	-0.308859	0.564056	1.090648
C121	C	-0.980555	-0.000123	0.473140
C122	C	-0.647221	0.333210	0.806473
C123	C	-0.313888	0.666544	1.139806
C124	C	-0.983605	-0.000109	0.299701
C125	C	-0.650272	0.333225	0.633035
C126	C	-0.316939	0.666558	0.966368
C127	C	-0.985262	-0.000101	0.205676
C128	C	-0.651929	0.333233	0.539009
C129	C	-0.318596	0.666566	0.872343
C130	C	-0.978899	-0.000130	0.567171
C131	C	-0.645566	0.333203	0.900504
C132	C	-0.312232	0.666536	1.233838
H133	H	-0.413928	0.185831	-0.101704
H134	H	-0.080595	0.519164	0.231629
H135	H	0.252739	0.852497	0.564963
H136	H	-0.850163	-0.518763	-0.245420
H137	H	-0.516829	-0.185430	0.087914
H138	H	-0.183496	0.147903	0.421247
H139	H	-0.972952	-0.186045	0.297227
H140	H	-0.639618	0.147288	0.630560
H141	H	-0.306285	0.480622	0.963894
F142	F	-0.992469	0.211440	0.487900
F143	F	-0.659136	0.544773	0.821233
F144	F	-0.325803	0.878106	1.154567
H145	H	-0.862288	-0.304048	-0.233297
H146	H	-0.528954	0.029286	0.100036
H147	H	-0.195621	0.362619	0.433370
H148	H	-0.571247	0.185836	-0.104454
H149	H	-0.237914	0.519170	0.228879
H150	H	0.095420	0.852503	0.562213
H151	H	-1.067481	-0.304001	-0.028219
H152	H	-0.734148	0.029332	0.305114
H153	H	-0.400815	0.362666	0.638448
F154	F	-0.881708	-0.711054	-0.213893
F155	F	-0.548375	-0.377721	0.119441
F156	F	-0.215041	-0.044388	0.452774
F157	F	-0.968548	-0.211697	0.463953
F158	F	-0.635215	0.121636	0.797286
F159	F	-0.301881	0.454970	1.130619
F160	F	-0.559630	-0.211663	-0.127096
F161	F	-0.226297	0.121671	0.206238
F162	F	0.107036	0.455004	0.539571
F163	F	-0.380612	-0.211682	-0.123953
F164	F	-0.047279	0.121651	0.209380
F165	F	0.286054	0.454985	0.542714
H166	H	-0.993985	0.185827	0.318292
H167	H	-0.660652	0.519161	0.651625
H168	H	-0.327318	0.852494	0.984959
H169	H	-1.114006	-0.481493	0.018271
H170	H	-0.780673	-0.148160	0.351604
H171	H	-0.447340	0.185173	0.684938
H172	H	-1.101878	-0.696179	0.006149
H173	H	-0.768544	-0.362846	0.339482
H174	H	-0.435211	-0.029513	0.672815
