data_functionalizedCrystal
_audit_creation_method	'MofGen! by Chris Wilmer'
_symmetry_space_group_name_H-M	'P1'
_symmetry_Int_Tables_number	1
_symmetry_cell_setting	triclinic
loop_
_symmetry_equiv_pos_as_xyz
  x,y,z
_cell_length_a	10.654545
_cell_length_b	8.559649
_cell_length_c	9.130313
_cell_angle_alpha	89.997262
_cell_angle_beta	89.996934
_cell_angle_gamma	77.130872
loop_
_atom_site_label
_atom_site_type_symbol
_atom_site_fract_x
_atom_site_fract_y
_atom_site_fract_z
O1	O	1.644688	0.224151	-0.121777
O2	O	1.277002	0.245517	-0.121783
O3	O	1.493239	0.002591	-0.121778
O4	O	1.428452	0.467078	-0.121782
O5	O	1.493226	0.002583	0.121821
O6	O	1.276990	0.245510	0.121816
O7	O	1.644676	0.224144	0.121822
Cu8	Cu	1.460832	0.234826	0.144061
Cu9	Cu	1.460846	0.234835	-0.144022
O10	O	1.428439	0.467071	0.121817
C11	C	1.230360	0.243947	0.000016
C12	C	1.091400	0.239257	0.000014
C13	C	1.026117	0.237046	0.132800
C14	C	0.895556	0.232614	0.132800
C15	C	0.895571	0.232611	-0.132784
C16	C	1.026132	0.237032	-0.132783
C17	C	1.498142	-0.056889	0.000019
C18	C	1.512757	-0.234107	0.000011
C19	C	1.691318	0.225715	0.000020
C20	C	1.830277	0.230404	0.000012
C21	C	1.423536	0.526550	0.000017
C22	C	1.408921	0.703768	0.000015
N23	N	1.460830	0.234820	0.346684
N24	N	1.460859	0.234829	-0.346645
C25	C	1.556604	0.127297	0.423338
C26	C	1.556616	0.127297	0.576675
C27	C	1.365075	0.342357	0.576690
C28	C	1.365059	0.342347	0.423356
H29	H	0.842408	0.230813	0.240929
H30	H	0.842413	0.230800	-0.240903
H31	H	1.079288	0.238828	-0.240920
O32	O	1.289496	-0.198019	0.000264
C33	C	1.222137	-0.227806	0.126406
H34	H	1.293808	-0.284068	0.214594
H35	H	1.157599	-0.313257	0.097886
C36	C	1.050896	0.000189	0.075284
C37	C	1.138923	-0.068901	0.183602
H38	H	0.999560	0.098206	0.110563
H39	H	1.096273	0.020255	-0.009703
H40	H	0.997127	-0.071036	0.051527
H41	H	1.192700	0.002315	0.207345
H42	H	1.093552	-0.088951	0.268596
O43	O	1.632067	-0.332623	-0.000048
C44	C	1.620596	-0.493573	0.000003
H45	H	1.522644	-0.500897	-0.046111
H46	H	1.629946	-0.541662	0.116874
C47	C	1.848057	-0.585536	-0.038883
C48	C	1.727755	-0.594533	-0.095534
H49	H	1.914160	-0.647816	-0.097809
H50	H	1.855787	-0.477102	-0.038912
H51	H	1.855831	-0.625607	0.058508
H52	H	1.719976	-0.554443	-0.192916
H53	H	1.720026	-0.702963	-0.095523
O54	O	1.649687	0.022686	0.349084
C55	C	1.734238	-0.072189	0.449630
H56	H	1.682995	-0.074591	0.558942
H57	H	1.822419	-0.019261	0.465913
C58	C	1.839638	-0.241132	0.255542
C59	C	1.776696	-0.244092	0.389798
H60	H	1.865833	-0.347167	0.218635
H61	H	1.782678	-0.177209	0.187801
H62	H	1.913114	-0.197017	0.269130
H63	H	1.703213	-0.288186	0.376206
H64	H	1.833645	-0.308026	0.457536
O65	O	1.649684	0.023073	0.651297
C66	C	1.718844	0.109476	0.739944
H67	H	1.656832	0.233785	0.762919
H68	H	1.810494	0.121422	0.680831
C69	C	1.830518	-0.132878	0.857378
C70	C	1.754350	0.019796	0.885606
H71	H	1.852426	-0.188199	0.947226
H72	H	1.783928	-0.191092	0.797651
H73	H	1.906884	-0.122902	0.808113
H74	H	1.677979	0.009817	0.934852
H75	H	1.800928	0.078005	0.945344
H76	H	1.079255	0.238858	0.240932
O77	O	1.272025	0.446592	0.651338
C78	C	1.202883	0.360198	0.740034
H79	H	1.264897	0.235888	0.763004
H80	H	1.111217	0.348254	0.680967
C81	C	1.091245	0.602561	0.857474
C82	C	1.167416	0.449886	0.885695
H83	H	1.069362	0.657887	0.947322
H84	H	1.137823	0.660768	0.797714
H85	H	1.014866	0.592587	0.808248
H86	H	1.243800	0.459863	0.934904
H87	H	1.120850	0.391682	0.945467
H88	H	1.287063	0.429905	0.360940
