data_functionalizedCrystal
_audit_creation_method	'MofGen! by Chris Wilmer'
_symmetry_space_group_name_H-M	'P1'
_symmetry_Int_Tables_number	1
_symmetry_cell_setting	triclinic
loop_
_symmetry_equiv_pos_as_xyz
  x,y,z
_cell_length_a	15.297621
_cell_length_b	15.297327
_cell_length_c	15.296720
_cell_angle_alpha	72.680778
_cell_angle_beta	88.384271
_cell_angle_gamma	91.624289
loop_
_atom_site_label
_atom_site_type_symbol
_atom_site_fract_x
_atom_site_fract_y
_atom_site_fract_z
Zn1	Zn	-1.116329	0.695117	-0.823160
Zn2	Zn	-1.116234	0.823718	-0.694534
Zn3	Zn	-1.005101	0.644940	-0.644430
Zn4	Zn	-0.946193	0.814934	-0.814438
O5	O	-1.045964	0.744677	-0.744141
O6	O	-1.234028	0.736851	-0.830717
O7	O	-1.126105	0.782680	-0.562908
O8	O	-1.044550	0.526633	-0.650820
O9	O	-1.233958	0.831334	-0.736216
O10	O	-1.126268	0.563497	-0.782133
O11	O	-1.044457	0.651333	-0.526097
O12	O	-0.879575	0.642815	-0.642363
O13	O	-0.944148	0.816362	-0.940574
O14	O	-0.836295	0.767709	-0.767267
O15	O	-1.069147	0.728333	-0.946983
O16	O	-1.068984	0.947516	-0.727758
O17	O	-0.944056	0.941062	-0.815851
C18	C	-0.827414	0.698864	-0.698432
C19	C	-0.733908	0.679290	-0.678902
C20	C	-0.380291	0.884543	-0.883684
C21	C	-0.468144	0.902940	-0.902032
C22	C	-0.534589	0.847029	-0.846251
C23	C	-0.513174	0.772718	-0.772119
C24	C	-0.425313	0.754323	-0.753765
C25	C	-0.579611	0.716809	-0.716332
C26	C	-0.558196	0.642498	-0.642199
C27	C	-0.470343	0.624106	-0.623849
C28	C	-0.403898	0.680017	-0.679630
C29	C	-0.667471	0.735204	-0.734686
C30	C	-0.712493	0.604984	-0.604767
C31	C	-0.624641	0.586587	-0.586419
C32	C	-1.000136	0.976698	-0.776320
C33	C	-0.980601	1.075978	-0.790132
C34	C	-1.000087	0.776965	-0.977090
C35	C	-0.980537	0.790724	-1.076360
C36	C	-0.265371	0.790662	-0.790020
C37	C	-0.358876	0.810237	-0.809549
C38	C	-1.091991	0.511758	-0.711860
C39	C	-1.111604	0.412501	-0.698104
C40	C	-1.185867	1.369207	-0.645799
C41	C	-1.204221	1.275928	-0.632817
C42	C	-1.148318	1.225936	-0.672145
C43	C	-1.074057	1.269232	-0.724456
C44	C	-1.055697	1.362518	-0.737434
C45	C	-1.018149	1.219247	-0.763780
C46	C	-0.943888	1.262543	-0.816091
C47	C	-0.925532	1.355821	-0.829067
C48	C	-0.981435	1.405813	-0.789739
C49	C	-1.036508	1.125961	-0.750802
C50	C	-0.906339	1.119272	-0.842437
C51	C	-0.887985	1.212551	-0.855419
C52	C	-1.185754	0.646189	-1.369531
C53	C	-1.204127	0.633264	-1.276264
C54	C	-1.148231	0.672627	-1.226284
C55	C	-1.073959	0.724919	-1.269579
C56	C	-1.055587	0.737851	-1.362857
C57	C	-1.018065	0.764290	-1.219609
C58	C	-0.943792	0.816581	-1.262905
C59	C	-0.925424	0.829510	-1.356173
C60	C	-0.981320	0.790146	-1.406154
C61	C	-1.036436	0.751358	-1.126331
C62	C	-0.906269	0.843020	-1.119657
C63	C	-0.887896	0.855944	-1.212924
C64	C	-1.091724	0.712461	-0.512098
C65	C	-1.111487	0.698484	-0.412829
H66	H	-0.607192	0.526082	-0.526059
Br67	Br	-0.787207	1.271321	-0.926413
Br68	Br	-0.802662	0.529106	-0.529053
H69	H	-1.163266	1.149984	-0.661571
H70	H	-1.096972	1.090718	-0.708210
H71	H	-1.096909	0.708781	-1.091089
H72	H	-1.264683	1.240679	-0.590225
H73	H	-1.231261	0.614151	-1.410236
H74	H	-0.864952	0.872098	-1.391424
Br75	Br	-1.173167	0.655085	-1.099704
Br76	Br	-1.304923	0.562303	-1.217513
Br77	Br	-1.261723	1.437054	-0.592427
H78	H	-0.966497	1.481769	-0.800309
Br79	Br	-0.824745	1.414576	-0.900054
Br80	Br	-0.290116	0.960433	-0.959357
Br81	Br	-0.830459	1.051431	-0.895803
Br82	Br	-0.441281	0.523263	-0.523232
H83	H	-0.966364	0.800667	-1.482100
Br84	Br	-0.653818	0.871997	-0.871154
H85	H	-0.860755	0.875075	-1.078963
Br86	Br	-0.497202	1.003790	-1.002633
Br87	Br	-0.284663	0.655044	-0.654738
H88	H	-0.827422	0.898520	-1.248188
H89	H	-0.684898	0.795709	-0.795046
