data_functionalizedCrystal
_audit_creation_method	'MofGen! by Chris Wilmer'
_symmetry_space_group_name_H-M	'P1'
_symmetry_Int_Tables_number	1
_symmetry_cell_setting	triclinic
loop_
_symmetry_equiv_pos_as_xyz
  x,y,z
_cell_length_a	6.817900
_cell_length_b	11.168138
_cell_length_c	10.943881
_cell_angle_alpha	91.896964
_cell_angle_beta	108.843448
_cell_angle_gamma	108.508793
loop_
_atom_site_label
_atom_site_type_symbol
_atom_site_fract_x
_atom_site_fract_y
_atom_site_fract_z
V1	V	-4.113832	-0.174669	-0.402563
O2	O	-4.073340	0.008430	-0.394889
O3	O	-4.090094	-0.346374	-0.399821
O4	O	-4.091845	-0.171966	-0.578130
O5	O	-4.071577	-0.167185	-0.215345
V6	V	-4.590842	-0.152770	-0.380169
O7	O	-4.389378	-0.222706	-0.451686
O8	O	-4.765493	-0.104733	-0.331046
O9	O	-4.391373	0.018936	-0.382912
O10	O	-4.748731	-0.335869	-0.387843
O11	O	-4.750493	-0.160253	-0.567387
O12	O	-4.389623	-0.155473	-0.204602
C13	C	-3.940240	-0.388233	-0.393473
C14	C	-4.002294	-0.528604	-0.392401
C15	C	-4.268988	-0.742370	-0.396938
C16	C	-4.204856	-0.597289	-0.398046
C17	C	-3.942471	-0.165756	-0.620922
C18	C	-4.005941	-0.164682	-0.764449
C19	C	-4.235325	-0.170629	-0.855333
C20	C	-4.122937	-0.062088	-0.921063
C21	C	-4.231360	-0.271232	-0.954446
C22	C	-3.892671	-0.056070	-0.828275
C23	C	-4.001167	-0.265309	-0.861666
C24	C	-3.888608	-0.156738	-0.927348
C25	C	-4.204570	0.060788	-0.389256
C26	C	-4.121755	0.201158	-0.390336
C27	C	-4.202338	-0.161687	-0.161803
C28	C	-4.118105	-0.162754	-0.018275
H29	H	-4.175011	0.023844	-0.947590
O30	O	-3.939498	-0.367971	-0.830069
C31	C	-4.117778	-0.481188	-0.894996
H32	H	-4.279492	-0.461559	-0.920996
H33	H	-4.119641	-0.557593	-0.828408
H34	H	-4.098364	-0.515961	-0.988083
H35	H	-3.748958	0.034942	-0.773669
O36	O	-4.409890	-0.177665	-0.817822
C37	C	-4.588562	-0.290044	-0.884785
H38	H	-4.568893	-0.322742	-0.978553
H39	H	-4.749964	-0.270169	-0.909815
H40	H	-4.591312	-0.368092	-0.820137
O41	O	-4.355221	-0.539450	-0.404617
C42	C	-4.423508	-0.558353	-0.295936
H43	H	-4.394421	-0.646627	-0.255927
H44	H	-4.606842	-0.572464	-0.327058
H45	H	-4.324484	-0.471257	-0.216941
O46	O	-3.914581	-0.728416	-0.384338
C47	C	-3.758853	-0.739548	-0.267848
H48	H	-3.842061	-0.767685	-0.192821
H49	H	-3.617741	-0.644087	-0.227885
H50	H	-3.690832	-0.815869	-0.288641
H51	H	-4.442517	-0.801430	-0.401764
O52	O	-3.714072	-0.149453	-0.964976
C53	C	-3.536760	-0.035938	-0.899729
H54	H	-3.603027	0.036605	-0.867670
H55	H	-3.446067	0.004818	-0.968455
H56	H	-3.417809	-0.057443	-0.810305
H57	H	-4.375183	-0.362148	-1.009198
H58	H	-3.876341	-0.577185	-0.386754
