data_functionalizedCrystal
_audit_creation_method	'MofGen! by Chris Wilmer'
_symmetry_space_group_name_H-M	'P1'
_symmetry_Int_Tables_number	1
_symmetry_cell_setting	triclinic
loop_
_symmetry_equiv_pos_as_xyz
  x,y,z
_cell_length_a	18.215407
_cell_length_b	17.640280
_cell_length_c	18.215399
_cell_angle_alpha	78.775397
_cell_angle_beta	89.980167
_cell_angle_gamma	78.800709
loop_
_atom_site_label
_atom_site_type_symbol
_atom_site_fract_x
_atom_site_fract_y
_atom_site_fract_z
Zn1	Zn	1.184366	-0.314661	-0.356963
Zn2	Zn	1.209181	-0.446838	-0.209048
Zn3	Zn	1.061303	-0.314687	-0.233905
Zn4	Zn	1.086163	-0.446794	-0.332082
O5	O	1.135253	-0.380745	-0.282999
O6	O	1.290643	-0.332202	-0.337352
O7	O	1.189546	-0.429337	-0.109356
O8	O	1.056838	-0.204079	-0.271045
O9	O	1.308875	-0.429312	-0.228680
O10	O	1.147252	-0.204060	-0.361454
O11	O	1.080901	-0.332246	-0.127618
O12	O	0.961615	-0.332203	-0.246918
O13	O	1.099208	-0.429237	-0.438372
O14	O	0.979879	-0.429262	-0.319048
O15	O	1.171357	-0.332159	-0.456652
O16	O	1.213652	-0.557436	-0.204553
O17	O	1.123271	-0.557404	-0.294945
C18	C	0.944044	-0.380731	-0.282981
C19	C	0.862248	-0.380745	-0.282987
C20	C	0.683598	-0.431363	-0.320471
C21	C	0.606740	-0.431365	-0.320479
C22	C	0.587662	-0.330142	-0.245542
C23	C	0.664519	-0.330136	-0.245538
C24	C	0.712485	-0.380751	-0.283000
C25	C	0.558771	-0.380759	-0.283013
C26	C	0.475438	-0.380761	-0.283022
C27	C	0.795824	-0.380748	-0.282993
C28	C	1.173871	-0.586099	-0.244368
C29	C	1.190460	-0.673950	-0.227866
C30	C	1.009534	-0.962935	-0.408631
C31	C	1.025123	-1.045484	-0.393101
C32	C	1.119295	-1.045452	-0.299071
C33	C	1.103717	-0.962901	-0.314596
C34	C	1.048835	-0.921649	-0.369375
C35	C	1.143018	-0.921615	-0.275340
C36	C	1.127438	-0.839071	-0.290861
C37	C	1.072557	-0.797813	-0.345636
C38	C	1.033255	-0.839105	-0.384896
C39	C	1.197896	-0.962869	-0.220557
C40	C	1.237196	-0.921583	-0.181301
C41	C	1.221620	-0.839038	-0.196825
C42	C	1.166739	-0.797780	-0.251601
C43	C	1.260922	-0.797746	-0.157566
C44	C	1.245342	-0.715202	-0.173086
C45	C	1.151159	-0.715236	-0.267122
C46	C	1.327209	-0.380759	-0.283018
C47	C	1.409009	-0.380765	-0.283027
C48	C	1.135288	-0.380690	-0.474963
C49	C	1.135302	-0.380667	-0.556766
C50	C	1.096504	-0.174589	-0.321798
C51	C	1.079991	-0.086738	-0.338331
C52	C	1.172878	-0.330072	-0.754489
C53	C	1.172883	-0.330049	-0.831352
C54	C	1.097755	-0.431141	-0.812304
C55	C	1.097747	-0.431159	-0.735444
C56	C	1.135313	-0.380626	-0.706537
C57	C	1.135326	-0.380584	-0.860261
C58	C	1.135330	-0.380560	-0.943600
C59	C	1.135307	-0.380649	-0.623194
C60	C	1.135250	-0.380742	-0.091794
C61	C	1.135336	-0.380543	-0.010033
H62	H	1.106474	-0.681646	-0.311735
H63	H	0.688037	-0.288916	-0.215026
C64	C	1.055500	-0.707013	-0.362745
C65	C	1.065902	-0.661639	-0.442039
C66	C	1.048885	-0.570840	-0.459163
C67	C	1.021467	-0.525415	-0.396994
C68	C	1.011063	-0.570789	-0.317695
C69	C	1.028080	-0.661588	-0.300570
H70	H	1.086200	-0.695266	-0.488065
H71	H	1.056587	-0.537252	-0.517865
H72	H	1.008870	-0.458200	-0.409670
H73	H	0.990765	-0.537162	-0.271669
H74	H	1.020378	-0.695176	-0.241868
H75	H	0.988570	-0.805515	-0.429509
C76	C	1.056416	-0.486770	-0.682694
C77	C	0.992191	-0.452522	-0.636299
C78	C	0.950856	-0.508125	-0.583552
C79	C	0.973746	-0.597976	-0.577201
C80	C	1.037975	-0.632229	-0.623598
C81	C	1.079310	-0.576625	-0.676345
H82	H	0.975243	-0.386005	-0.640999
H83	H	0.903309	-0.482769	-0.549206
H84	H	0.943148	-0.639137	-0.538155
H85	H	1.054923	-0.698746	-0.618898
H86	H	1.126856	-0.601982	-0.710691
C87	C	0.949164	-0.917545	-0.468889
C88	C	0.867660	-0.928961	-0.460659
C89	C	0.807291	-0.883569	-0.520912
C90	C	0.828427	-0.826763	-0.589395
C91	C	0.909935	-0.815344	-0.597628
C92	C	0.970304	-0.860736	-0.537375
H93	H	0.852010	-0.971015	-0.409961
H94	H	0.746953	-0.892022	-0.514817
H95	H	0.783738	-0.793161	-0.633997
H96	H	0.925584	-0.773290	-0.648325
H97	H	1.030641	-0.852283	-0.543470
H98	H	1.203471	-0.288881	-0.870391
H99	H	1.067172	-0.472285	-0.835849
H100	H	1.277344	-0.681587	-0.141120
H101	H	0.993124	-1.079096	-0.425081
H102	H	0.722651	-0.472575	-0.350978
H103	H	0.548599	-0.288934	-0.215039
C104	C	0.574966	-0.487042	-0.361696
C105	C	0.602427	-0.576885	-0.338650
C106	C	0.570654	-0.632563	-0.379869
C107	C	0.511419	-0.598399	-0.444134
C108	C	0.483954	-0.508551	-0.467183
C109	C	0.515728	-0.452873	-0.425964
H110	H	0.646279	-0.602179	-0.291074
H111	H	0.590986	-0.699074	-0.362806
H112	H	0.487898	-0.639615	-0.474647
H113	H	0.440102	-0.483256	-0.514759
H114	H	0.495396	-0.386362	-0.443027
C115	C	1.179664	-1.090836	-0.238817
C116	C	1.158534	-1.147638	-0.170328
C117	C	1.218905	-1.193020	-0.110075
C118	C	1.300408	-1.181600	-0.118311
C119	C	1.321543	-1.124795	-0.186803
C120	C	1.261171	-1.079413	-0.247056
H121	H	1.098197	-1.156093	-0.164228
H122	H	1.203259	-1.235070	-0.059372
H123	H	1.345099	-1.215195	-0.073708
H124	H	1.381879	-1.116340	-0.192903
H125	H	1.276817	-1.037363	-0.297759
C126	C	1.297565	-0.966967	-0.121047
C127	C	1.276434	-1.023769	-0.052558
C128	C	1.336806	-1.069151	0.007695
C129	C	1.418309	-1.057731	-0.000541
C130	C	1.439444	-1.000926	-0.069033
C131	C	1.379072	-0.955544	-0.129286
H132	H	1.216098	-1.032224	-0.046459
H133	H	1.321160	-1.111201	0.058398
H134	H	1.463000	-1.091326	0.044062
H135	H	1.499780	-0.992471	-0.075133
H136	H	1.394718	-0.913494	-0.179989
C137	C	1.321286	-0.843131	-0.097307
C138	C	1.300144	-0.899928	-0.028820
C139	C	1.360508	-0.945313	0.031440
C140	C	1.442013	-0.933900	0.023214
C141	C	1.463159	-0.877100	-0.045276
C142	C	1.402795	-0.831716	-0.105537
H143	H	1.239805	-0.908379	-0.022728
H144	H	1.344854	-0.987360	0.082141
H145	H	1.486698	-0.967497	0.067822
H146	H	1.523497	-0.868650	-0.051369
H147	H	1.418449	-0.789669	-0.156237
C148	C	1.214192	-0.274480	-0.722691
C149	C	1.191291	-0.184626	-0.750171
C150	C	1.232604	-0.129031	-0.718377
C151	C	1.296818	-0.163291	-0.659103
C152	C	1.319722	-0.253150	-0.631620
C153	C	1.278410	-0.308744	-0.663414
H154	H	1.143754	-0.159261	-0.794052
H155	H	1.215649	-0.062511	-0.738721
H156	H	1.327400	-0.122136	-0.635567
H157	H	1.367260	-0.278515	-0.587739
H158	H	1.295365	-0.375264	-0.643069
H159	H	1.210581	-1.030082	-0.207924
