data_functionalizedCrystal
_audit_creation_method	'MofGen! by Chris Wilmer'
_symmetry_space_group_name_H-M	'P1'
_symmetry_Int_Tables_number	1
_symmetry_cell_setting	triclinic
loop_
_symmetry_equiv_pos_as_xyz
  x,y,z
_cell_length_a	14.908783
_cell_length_b	14.908694
_cell_length_c	12.759399
_cell_angle_alpha	86.729978
_cell_angle_beta	86.693869
_cell_angle_gamma	83.203601
loop_
_atom_site_label
_atom_site_type_symbol
_atom_site_fract_x
_atom_site_fract_y
_atom_site_fract_z
Zn1	Zn	1.413420	-0.591784	0.363158
Zn2	Zn	1.913420	-0.091784	0.863158
Zn3	Zn	1.404601	-0.440421	0.529284
Zn4	Zn	1.904601	0.059579	1.029284
Zn5	Zn	1.253317	-0.431689	0.363186
Zn6	Zn	1.753317	0.068311	0.863186
Zn7	Zn	1.262030	-0.582993	0.548365
Zn8	Zn	1.762030	-0.082993	1.048365
O9	O	1.333342	-0.511722	0.450998
O10	O	1.833342	-0.011722	0.950998
O11	O	1.538921	-0.579038	0.377198
O12	O	2.038921	-0.079038	0.877198
O13	O	1.377196	-0.312596	0.499278
O14	O	1.877196	0.187404	0.999278
O15	O	1.274599	-0.452950	0.216160
O16	O	1.774599	0.047050	0.716160
O17	O	1.532442	-0.467833	0.499250
O18	O	2.032442	0.032167	0.999250
O19	O	1.392227	-0.570571	0.216139
O20	O	1.892227	-0.070571	0.716139
O21	O	1.266048	-0.306180	0.377246
O22	O	1.766048	0.193820	0.877246
O23	O	1.127802	-0.444426	0.395747
O24	O	1.627802	0.055574	0.895747
O25	O	1.289449	-0.710826	0.531770
O26	O	1.789449	-0.210826	1.031770
O27	O	1.134203	-0.555589	0.531797
O28	O	1.634203	-0.055589	1.031797
O29	O	1.400675	-0.717285	0.395699
O30	O	1.900675	-0.217285	0.895699
O31	O	1.385645	-0.459309	0.678838
O32	O	1.885645	0.040691	1.178838
O33	O	1.280898	-0.564056	0.692856
O34	O	1.780898	-0.064056	1.192856
C35	C	1.098158	-0.498106	0.465847
C36	C	1.598158	0.001894	0.965847
C37	C	0.997547	-0.492303	0.472226
C38	C	1.497547	0.007697	0.972226
C39	C	0.815242	-0.597373	0.357314
C40	C	1.315242	-0.097373	0.857314
C41	C	0.720709	-0.591924	0.363304
C42	C	1.220709	-0.091924	0.863304
C43	C	0.713945	-0.475950	0.490189
C44	C	1.213945	0.024050	0.990189
C45	C	0.808478	-0.481400	0.484199
C46	C	1.308478	0.018600	0.984199
C47	C	0.859124	-0.542115	0.417761
C48	C	1.359124	-0.042115	0.917761
C49	C	0.953659	-0.547568	0.411777
C50	C	1.453659	-0.047568	0.911777
C51	C	0.946893	-0.431591	0.538656
C52	C	1.446893	0.068409	1.038656
C53	C	0.852360	-0.426141	0.544646
C54	C	1.352360	0.073859	1.044646
C55	C	1.347018	-0.747817	0.465859
C56	C	1.847018	-0.247817	0.965859
C57	C	1.352846	-0.848427	0.472192
C58	C	1.852846	-0.348427	0.972192
C59	C	1.248037	-1.030803	0.357025
C60	C	1.748037	-0.530803	0.857025
C61	C	1.253509	-1.125335	0.362972
C62	C	1.753509	-0.625335	0.862972
C63	C	1.369258	-1.132024	0.490039
C64	C	1.869258	-0.632024	0.990039
C65	C	1.363786	-1.037492	0.484092
C66	C	1.863786	-0.537492	0.984092
C67	C	1.303174	-0.986885	0.417581
C68	C	1.803174	-0.486885	0.917581
C69	C	1.297706	-0.892352	0.411629
C70	C	1.797706	-0.392352	0.911629
C71	C	1.413450	-0.899042	0.538701
C72	C	1.913450	-0.399042	1.038701
C73	C	1.418923	-0.993574	0.544648
C74	C	1.918923	-0.493574	1.044648
C75	C	1.569444	-0.525390	0.436093
C76	C	2.069444	-0.025390	0.936093
C77	C	1.670057	-0.531215	0.429741
C78	C	2.170057	-0.031215	0.929741
C79	C	1.333285	-0.511698	0.723968
C80	C	1.833285	-0.011698	1.223968
C81	C	1.333346	-0.511723	0.840742
C82	C	1.833346	-0.011723	1.340742
C83	C	1.319771	-0.276548	0.436116
C84	C	1.819771	0.223452	0.936116
C85	C	1.314119	-0.175948	0.429476
C86	C	1.814119	0.324052	0.929476
C87	C	1.333425	-0.511767	0.176962
C88	C	1.833425	-0.011767	0.676962
C89	C	1.333460	-0.511786	0.060185
C90	C	1.833460	-0.011786	0.560185
C91	C	1.387957	-0.457251	0.888270
C92	C	1.887957	0.042749	1.388270
C93	C	1.388017	-0.457284	0.997992
C94	C	1.888017	0.042716	1.497992
C95	C	1.278846	-0.566264	1.012650
C96	C	1.778846	-0.066264	1.512650
C97	C	1.278792	-0.566235	0.902929
C98	C	1.778792	-0.066235	1.402929
H99	H	0.811111	-0.376706	0.598735
H100	H	1.311111	0.123294	1.098735
H101	H	1.234429	-0.610645	1.063296
H102	H	1.734429	-0.110645	1.563296
C103	C	0.870954	-0.664163	0.284237
C104	C	1.370954	-0.164163	0.784237
N105	N	0.912916	-0.714470	0.229193
N106	N	1.412916	-0.214470	0.729193
H107	H	1.418593	-1.173243	0.544203
H108	H	1.918593	-0.673243	1.044203
H109	H	0.672693	-0.426510	0.544268
H110	H	1.172693	0.073490	1.044268
C111	C	1.447973	-0.397291	0.819867
C112	C	1.947973	0.102709	1.319867
N113	N	1.493181	-0.352130	0.768349
N114	N	1.993181	0.147870	1.268349
C115	C	1.009367	-0.614352	0.338690
C116	C	1.509367	-0.114352	0.838690
N117	N	1.051324	-0.664652	0.283635
N118	N	1.551324	-0.164652	0.783635
C119	C	1.231030	-0.836685	0.338470
C120	C	1.731030	-0.336685	0.838470
N121	N	1.180805	-0.794760	0.283368
N122	N	1.680805	-0.294760	0.783368
H123	H	0.982631	-0.386602	0.587885
H124	H	1.482631	0.113398	1.087885
C125	C	1.181368	-0.975134	0.283860
C126	C	1.681368	-0.475134	0.783860
N127	N	1.131151	-0.933205	0.228751
N128	N	1.631151	-0.433205	0.728751
H129	H	1.432489	-0.412929	1.036684
H130	H	1.932489	0.087071	1.536684
H131	H	1.234321	-0.610597	0.864230
H132	H	1.734321	-0.110597	1.364230
C133	C	1.485390	-1.049240	0.618051
C134	C	1.985390	-0.549240	1.118051
N135	N	1.535384	-1.091163	0.673427
N136	N	2.035384	-0.591163	1.173427
C137	C	1.474105	-0.850724	0.605317
C138	C	1.974105	-0.350724	1.105317
N139	N	1.519790	-0.814331	0.655490
N140	N	2.019790	-0.314331	1.155490
H141	H	0.684984	-0.636919	0.314079
H142	H	1.184984	-0.136919	0.814079
C143	C	1.192859	-1.173642	0.296350
C144	C	1.692859	-0.673642	0.796350
N145	N	1.147174	-1.210026	0.246167
N146	N	1.647174	-0.710026	0.746167
