data_functionalizedCrystal
_audit_creation_method	'MofGen! by Chris Wilmer'
_symmetry_space_group_name_H-M	'P1'
_symmetry_Int_Tables_number	1
_symmetry_cell_setting	triclinic
loop_
_symmetry_equiv_pos_as_xyz
  x,y,z
_cell_length_a	13.635800
_cell_length_b	23.752963
_cell_length_c	10.992410
_cell_angle_alpha	84.919500
_cell_angle_beta	71.235349
_cell_angle_gamma	100.066732
loop_
_atom_site_label
_atom_site_type_symbol
_atom_site_fract_x
_atom_site_fract_y
_atom_site_fract_z
V1	V	-2.035330	-0.079162	0.401347
O2	O	-2.037235	0.003804	0.392931
O3	O	-2.002700	-0.156965	0.399348
O4	O	-2.024462	-0.077945	0.576048
O5	O	-2.015323	-0.075764	0.215008
V6	V	-2.276509	-0.069239	0.378969
O7	O	-2.167238	-0.100931	0.450436
O8	O	-2.369701	-0.047470	0.329880
O9	O	-2.197536	0.008565	0.380968
O10	O	-2.333303	-0.152205	0.387385
O11	O	-2.355215	-0.072637	0.565307
O12	O	-2.175775	-0.070456	0.204268
V13	V	-1.535330	-0.079162	0.401347
O14	O	-1.537235	0.003804	0.392931
O15	O	-1.502700	-0.156965	0.399348
O16	O	-1.524462	-0.077945	0.576048
O17	O	-1.515323	-0.075764	0.215008
V18	V	-1.776509	-0.069239	0.378969
O19	O	-1.667238	-0.100931	0.450436
O20	O	-1.869701	-0.047470	0.329880
O21	O	-1.697536	0.008565	0.380968
O22	O	-1.833303	-0.152205	0.387385
O23	O	-1.855215	-0.072637	0.565307
O24	O	-1.675775	-0.070456	0.204268
C25	C	-1.922719	-0.175932	0.393209
C26	C	-1.936772	-0.239537	0.392740
C27	C	-1.995831	-0.625779	0.271951
C28	C	-2.009046	-0.685542	0.271492
O29	O	-1.991970	-0.709504	0.171129
N30	N	-2.043806	-0.723602	0.389001
C31	C	-2.065363	-0.701897	0.506978
O32	O	-2.096143	-0.739757	0.606887
C33	C	-2.052155	-0.642135	0.507437
C34	C	-2.017383	-0.604077	0.389919
C35	C	-1.961063	-0.587722	0.154443
C36	C	-1.947847	-0.527963	0.154902
C37	C	-1.969399	-0.506261	0.272870
C38	C	-2.004167	-0.544318	0.390378
C39	C	-2.073718	-0.620431	0.625413
C40	C	-2.060508	-0.560665	0.625861
C41	C	-2.025737	-0.522607	0.508343
C42	C	-2.012504	-0.462858	0.508805
N43	N	-1.977744	-0.424798	0.391296
C44	C	-1.956191	-0.446500	0.273328
C45	C	-2.093100	-0.827400	0.506007
C46	C	-2.106301	-0.887160	0.505549
C47	C	-2.049985	-0.870801	0.270062
C48	C	-2.036777	-0.811039	0.270521
C49	C	-2.058340	-0.789340	0.388497
C50	C	-1.928438	-0.321002	0.274302
C51	C	-1.915220	-0.261239	0.274772
C52	C	-1.971542	-0.277603	0.510258
C53	C	-1.984754	-0.337361	0.509789
C54	C	-1.963203	-0.359059	0.391801
O55	O	-2.029563	-0.438855	0.609117
O56	O	-1.925426	-0.408633	0.173437
C57	C	-1.950477	-0.075132	0.618606
C58	C	-1.982176	-0.074652	0.761429
C59	C	-2.109188	0.027528	0.387103
C60	C	-2.084755	0.091133	0.387581
C61	C	-2.081430	-0.073270	0.161703
C62	C	-2.039350	-0.073748	0.018878
C63	C	-1.422719	-0.175932	0.393209
C64	C	-1.436772	-0.239537	0.392740
C65	C	-1.450477	-0.075132	0.618606
C66	C	-1.482176	-0.074652	0.761429
C67	C	-1.916944	-0.070271	0.956511
C68	C	-1.883966	-0.071008	0.808035
C69	C	-2.065653	-0.131066	0.839071
C70	C	-2.097948	-0.130567	0.987633
C71	C	-2.066904	-0.021328	0.948560
C72	C	-2.031623	-0.021061	0.799545
C73	C	-1.609188	0.027528	0.387103
C74	C	-1.584755	0.091133	0.387581
C75	C	-1.581430	-0.073270	0.161703
C76	C	-1.539350	-0.073748	0.018878
C77	C	-1.534616	-0.272324	0.398966
C78	C	-1.547840	-0.332090	0.398545
C79	C	-1.463215	-0.359066	0.391887
C80	C	-1.365364	-0.326275	0.385664
C81	C	-1.352144	-0.266512	0.386095
C82	C	-1.659404	0.123920	0.381358
C83	C	-1.636453	0.183685	0.381786
C84	C	-1.538855	0.210661	0.388446
C85	C	-1.464199	0.177870	0.394666
C86	C	-1.487147	0.118107	0.394229
C87	C	-1.416944	-0.070271	0.956511
C88	C	-1.383966	-0.071008	0.808035
C89	C	-1.565653	-0.131066	0.839071
C90	C	-1.597948	-0.130567	0.987633
C91	C	-1.566904	-0.021328	0.948560
C92	C	-1.531623	-0.021061	0.799545
H93	H	-1.886901	-0.230253	0.179070
H94	H	-2.079239	-0.170258	1.034281
O95	O	-2.022256	-0.378410	0.636542
H96	H	-2.097843	-0.408198	0.646770
H97	H	-1.820906	-0.030444	0.754308
H98	H	-2.155832	-0.023379	0.989420
H99	H	-2.102862	-0.020398	0.767027
O100	O	-1.300420	-0.017284	0.736852
H101	H	-1.283259	0.009459	0.808412
O102	O	-1.994999	-0.254199	0.637508
H103	H	-1.980053	-0.206252	0.618079
O104	O	-1.937808	-0.611121	0.027193
H105	H	-1.874262	-0.635782	0.016539
H106	H	-1.531819	-0.170855	0.813844
O107	O	-1.514116	0.275119	0.388945
H108	H	-1.582435	0.293380	0.383518
O109	O	-1.951965	0.034222	0.729684
H110	H	-1.929725	0.034946	0.623057
O111	O	-1.854199	-0.016177	0.980952
H112	H	-1.909583	0.008809	1.037817
H113	H	-1.603531	-0.250368	0.404379
O114	O	-1.477488	-0.423524	0.391371
H115	H	-1.541424	-0.446653	0.482052
O116	O	-1.514368	0.035416	0.974996
H117	H	-1.576009	0.058820	1.024172
H118	H	-2.187598	-0.135473	1.030311
O119	O	-1.406629	0.082747	0.400959
H120	H	-1.441298	0.049272	0.489104
O121	O	-1.999272	-0.769995	0.143767
H122	H	-2.060116	-0.744548	0.143146
H123	H	-1.627521	-0.358780	0.403609
H124	H	-1.384733	0.199844	0.400087
H125	H	-1.369587	-0.029428	0.974951
O126	O	-2.014368	0.035416	0.974996
H127	H	-2.076009	0.058820	1.024172
O128	O	-1.274094	-0.355374	0.378486
H129	H	-1.299735	-0.402439	0.379222
O130	O	-2.026741	-0.894212	0.142817
H131	H	-2.099635	-0.923219	0.141795
H132	H	-2.102032	-0.651409	0.721109
H133	H	-2.139546	-0.135770	0.810312
H134	H	-1.272466	-0.239820	0.381018
O135	O	-1.716696	-0.137062	1.044187
H136	H	-1.756547	-0.178610	1.025468
H137	H	-1.738880	0.101963	0.375936
H138	H	-1.697255	0.210375	0.376723
O139	O	-1.386678	-0.120160	1.020543
H140	H	-1.458438	-0.147422	1.096591
O141	O	-1.332171	-0.121591	0.775628
H142	H	-1.330617	-0.145625	0.866069
O143	O	-1.573143	-0.183132	1.049435
H144	H	-1.538238	-0.208667	0.973141
O145	O	-2.020844	-0.183775	0.805680
H146	H	-1.939175	-0.169931	0.733854
H147	H	-1.844863	-0.109195	0.783584
H148	H	-2.134597	-0.918142	0.601243
H149	H	-1.639546	-0.135770	0.810312
O150	O	-1.451970	0.034224	0.729684
H151	H	-1.377473	0.023584	0.668061
H152	H	-1.602862	-0.020398	0.767027
H153	H	-1.894106	-0.107935	1.004862
O154	O	-2.083920	-0.537269	0.753126
H155	H	-2.068957	-0.489321	0.733719
H156	H	-2.110657	-0.809737	0.602083
H157	H	-1.655832	-0.023379	0.989420
H158	H	-1.919541	-0.496981	0.059207
O159	O	-1.905180	-0.344401	0.147047
H160	H	-1.878772	-0.307890	0.065423
