data_functionalizedCrystal
_audit_creation_method	'MofGen! by Chris Wilmer'
_symmetry_space_group_name_H-M	'P1'
_symmetry_Int_Tables_number	1
_symmetry_cell_setting	triclinic
loop_
_symmetry_equiv_pos_as_xyz
  x,y,z
_cell_length_a	15.995292
_cell_length_b	15.995292
_cell_length_c	10.268362
_cell_angle_alpha	89.997908
_cell_angle_beta	89.994242
_cell_angle_gamma	83.468616
loop_
_atom_site_label
_atom_site_type_symbol
_atom_site_fract_x
_atom_site_fract_y
_atom_site_fract_z
O1	O	1.110993	0.107698	-0.108326
O2	O	0.867209	0.121077	-0.108320
O3	O	0.995790	-0.007505	-0.108325
O4	O	0.982412	0.236280	-0.108321
O5	O	0.995779	-0.007510	0.108275
O6	O	0.867198	0.121072	0.108281
O7	O	1.110982	0.107693	0.108275
Cu8	Cu	0.989089	0.114382	0.128055
Cu9	Cu	0.989102	0.114388	-0.128100
O10	O	0.982401	0.236275	0.108280
C11	C	0.836008	0.120530	-0.000019
C12	C	0.743055	0.118898	-0.000017
C13	C	0.405318	0.112896	-0.000032
C14	C	0.428611	0.205703	-0.000514
C15	C	0.525286	0.207467	-0.000020
C16	C	0.572873	0.115874	-0.000025
C17	C	0.543775	0.069472	0.123659
C18	C	0.446984	0.068355	0.123757
C19	C	0.447142	0.066466	-0.122558
C20	C	0.543634	0.069905	-0.124187
C21	C	0.667569	0.117552	-0.000017
C22	C	0.310622	0.111215	-0.000031
C23	C	0.995240	-0.038703	-0.000028
C24	C	0.993608	-0.131655	-0.000038
C25	C	0.987607	-0.469393	-0.000026
C26	C	1.080413	-0.446100	0.000456
C27	C	1.082177	-0.349424	-0.000037
C28	C	0.990584	-0.301837	-0.000031
C29	C	0.944192	-0.330926	-0.123715
C30	C	0.943075	-0.427716	-0.123814
C31	C	0.941167	-0.427579	0.122501
C32	C	0.944606	-0.331087	0.124131
C33	C	0.992263	-0.207141	-0.000038
C34	C	0.985926	-0.564088	-0.000027
C35	C	1.142183	0.108240	-0.000029
C36	C	1.235136	0.109873	-0.000040
C37	C	0.982951	0.267473	-0.000020
C38	C	0.984583	0.360426	-0.000019
N39	N	0.989086	0.114377	0.308221
N40	N	0.989112	0.114386	-0.308266
C41	C	0.989098	0.114387	0.573891
C42	C	0.989088	0.114384	0.426054
H43	H	0.432448	0.000308	0.129372
F44	F	0.979114	-0.464574	0.245036
F45	F	0.567932	0.114043	-0.243790
F46	F	0.392015	0.252466	-0.116451
F47	F	0.550153	0.254964	-0.115907
H48	H	0.576618	0.003052	-0.131662
H49	H	0.877752	-0.298104	0.131605
F50	F	0.851878	-0.445847	0.123599
H51	H	0.876792	-0.299044	-0.128309
F52	F	0.390665	0.252201	0.114771
F53	F	1.126919	-0.484033	-0.114832
F54	F	0.988754	-0.306827	0.243733
H55	H	0.563822	0.101691	0.215709
F56	F	0.549329	0.255242	0.116072
H57	H	0.875028	-0.442252	-0.129414
H58	H	0.575657	0.002072	0.128255
H59	H	0.420156	0.100487	0.216218
H60	H	0.418814	0.095476	-0.216304
F61	F	0.428876	-0.022824	-0.123654
H62	H	1.118511	-0.330409	0.088622
F63	F	1.127167	-0.482705	0.116393
H64	H	1.118735	-0.331025	-0.088856
H65	H	0.975213	-0.454537	-0.216275
H66	H	0.976417	-0.310870	-0.215765
