data_functionalizedCrystal
_audit_creation_method	'MofGen! by Chris Wilmer'
_symmetry_space_group_name_H-M	'P1'
_symmetry_Int_Tables_number	1
_symmetry_cell_setting	triclinic
loop_
_symmetry_equiv_pos_as_xyz
  x,y,z
_cell_length_a	14.519709
_cell_length_b	22.010155
_cell_length_c	14.519731
_cell_angle_alpha	89.990057
_cell_angle_beta	83.684499
_cell_angle_gamma	89.996249
loop_
_atom_site_label
_atom_site_type_symbol
_atom_site_fract_x
_atom_site_fract_y
_atom_site_fract_z
O1	O	1.223876	0.050447	0.120869
O2	O	1.557209	0.383781	0.454203
O3	O	1.890542	0.717114	0.787536
O4	O	0.955400	0.050466	0.135106
O5	O	1.288733	0.383799	0.468439
O6	O	1.622066	0.717133	0.801772
O7	O	1.096746	0.050451	-0.006250
O8	O	1.430079	0.383784	0.327084
O9	O	1.763412	0.717117	0.660417
O10	O	1.082530	0.050463	0.262225
O11	O	1.415863	0.383796	0.595558
O12	O	1.749196	0.717129	0.928891
O13	O	1.096736	-0.050600	-0.006212
O14	O	1.430069	0.282734	0.327121
O15	O	1.763403	0.616067	0.660454
O16	O	0.955390	-0.050584	0.135143
O17	O	1.288723	0.282749	0.468476
O18	O	1.622057	0.616082	0.801810
O19	O	1.223866	-0.050603	0.120906
O20	O	1.557199	0.282730	0.454240
O21	O	1.890532	0.616064	0.787573
Cu22	Cu	1.089627	-0.059820	0.128028
Cu23	Cu	1.422960	0.273513	0.461361
Cu24	Cu	1.756294	0.606846	0.794695
Cu25	Cu	1.089638	0.059683	0.127984
Cu26	Cu	1.422972	0.393017	0.461317
Cu27	Cu	1.756305	0.726350	0.794651
O28	O	1.082520	-0.050588	0.262262
O29	O	1.415853	0.282746	0.595595
O30	O	1.749186	0.616079	0.928928
C31	C	0.921035	-0.000057	0.134461
C32	C	1.254368	0.333277	0.467794
C33	C	1.587702	0.666610	0.801127
C34	C	0.818654	-0.000050	0.132473
C35	C	1.151987	0.333284	0.465806
C36	C	1.485320	0.666617	0.799139
N37	N	1.089626	-0.143873	0.128058
N38	N	1.422959	0.189461	0.461392
N39	N	1.756292	0.522794	0.794725
C40	C	0.443757	-0.000078	0.125153
C41	C	0.777091	0.333256	0.458487
C42	C	1.110424	0.666589	0.791820
C43	C	0.548065	-0.000070	0.127186
C44	C	0.881399	0.333264	0.460519
C45	C	1.214732	0.666597	0.793852
C46	C	0.631202	-0.000063	0.128813
C47	C	0.964535	0.333270	0.462146
C48	C	1.297869	0.666604	0.795479
C49	C	0.735517	-0.000056	0.130846
C50	C	1.068850	0.333277	0.464179
C51	C	1.402183	0.666610	0.797512
C52	C	1.027016	-0.436478	0.190577
C53	C	1.360349	-0.103145	0.523910
C54	C	1.693682	0.230189	0.857244
C55	C	1.027014	-0.372870	0.190585
C56	C	1.360347	-0.039537	0.523919
C57	C	1.693680	0.293796	0.857252
O58	O	0.973753	-0.339973	0.243779
O59	O	1.307087	-0.006640	0.577112
O60	O	1.640420	0.326694	0.910445
N61	N	1.089618	-0.341057	0.128023
N62	N	1.422952	-0.007724	0.461357
N63	N	1.756285	0.325610	0.794690
C64	C	1.152223	-0.372854	0.065443
C65	C	1.485556	-0.039521	0.398776
C66	C	1.818890	0.293812	0.732109
O67	O	1.205472	-0.339954	0.012229
O68	O	1.538806	-0.006621	0.345562
O69	O	1.872139	0.326713	0.678896
C70	C	1.152220	-0.436461	0.065431
C71	C	1.485554	-0.103128	0.398764
C72	C	1.818887	0.230206	0.732097
C73	C	1.089618	-0.468271	0.128003
C74	C	1.422951	-0.134938	0.461336
C75	C	1.756284	0.198396	0.794670
C76	C	0.964418	-0.468288	0.253144
C77	C	1.297751	-0.134955	0.586477
C78	C	1.631084	0.198379	0.919810
C79	C	0.964421	-0.531891	0.253136
C80	C	1.297755	-0.198558	0.586470
C81	C	1.631088	0.134775	0.919803
C82	C	1.027023	-0.563684	0.190562
C83	C	1.360357	-0.230351	0.523896
C84	C	1.693690	0.102982	0.857229
C85	C	1.089621	-0.531874	0.127996
C86	C	1.422955	-0.198541	0.461329
C87	C	1.756288	0.134792	0.794662
C88	C	1.214820	-0.468257	0.002846
C89	C	1.548153	-0.134924	0.336180
C90	C	1.881487	0.198409	0.669513
C91	C	1.214811	-0.531868	0.002839
C92	C	1.548145	-0.198535	0.336173
C93	C	1.881478	0.134799	0.669506
C94	C	1.152209	-0.563678	0.065412
C95	C	1.485542	-0.230345	0.398745
C96	C	1.818875	0.102989	0.732078
C97	C	1.152227	-0.627271	0.065414
C98	C	1.485560	-0.293937	0.398748
C99	C	1.818894	0.039396	0.732081
N100	N	1.089622	-0.659084	0.127976
N101	N	1.422956	-0.325751	0.461310
N102	N	1.756289	0.007583	0.794643
C103	C	1.027020	-0.627291	0.190550
C104	C	1.360354	-0.293957	0.523884
C105	C	1.693687	0.039376	0.857217
C106	C	1.152223	-0.239277	0.065472
C107	C	1.485556	0.094057	0.398805
C108	C	1.818890	0.427390	0.732138
C109	C	1.152231	-0.175671	0.065487
C110	C	1.485564	0.157662	0.398821
C111	C	1.818898	0.490995	0.732154
C112	C	1.027020	-0.175692	0.190629
C113	C	1.360353	0.157642	0.523962
C114	C	1.693687	0.490975	0.857296
C115	C	1.027017	-0.239298	0.190617
C116	C	1.360351	0.094035	0.523950
C117	C	1.693684	0.427369	0.857284
C118	C	1.089618	-0.271090	0.128034
C119	C	1.422952	0.062243	0.461367
C120	C	1.756285	0.395577	0.794700
C121	C	1.027033	-0.760862	0.190531
C122	C	1.360367	-0.427529	0.523864
C123	C	1.693700	-0.094195	0.857197
C124	C	1.027045	-0.824471	0.190520
C125	C	1.360379	-0.491138	0.523854
C126	C	1.693712	-0.157804	0.857187
C127	C	1.152253	-0.824445	0.065376
C128	C	1.485586	-0.491112	0.398709
C129	C	1.818919	-0.157779	0.732042
C130	C	1.152244	-0.760842	0.065389
C131	C	1.485578	-0.427509	0.398722
C132	C	1.818911	-0.094175	0.732056
C133	C	1.089627	-0.729052	0.127970
C134	C	1.422961	-0.395719	0.461303
C135	C	1.756294	-0.062385	0.794637
O136	O	1.205457	-0.660208	0.012246
O137	O	1.538791	-0.326875	0.345579
O138	O	1.872124	0.006459	0.678912
O139	O	0.973772	-0.660199	0.243747
O140	O	1.307105	-0.326866	0.577080
O141	O	1.640439	0.006468	0.910414
C142	C	1.258230	-0.000079	0.121551
C143	C	1.591564	0.333255	0.454885
C144	C	1.924897	0.666588	0.788218
C145	C	1.360612	-0.000082	0.123540
C146	C	1.693945	0.333252	0.456873
C147	C	2.027279	0.666585	0.790206
C148	C	1.096075	-0.000075	-0.040591
C149	C	1.429408	0.333259	0.292743
C150	C	1.762741	0.666592	0.626076
C151	C	1.094079	-0.000075	-0.142971
C152	C	1.427412	0.333259	0.190363
C153	C	1.760745	0.666592	0.523696
N154	N	1.089647	0.143736	0.127946
N155	N	1.422981	0.477069	0.461280
N156	N	1.756314	0.810403	0.794613
C157	C	1.092457	-0.000073	-0.226115
C158	C	1.425790	0.333260	0.107218
C159	C	1.759123	0.666593	0.440552
C160	C	1.090430	-0.000068	-0.330424
C161	C	1.423763	0.333265	0.002910
C162	C	1.757097	0.666598	0.336243
C163	C	1.088822	-0.000064	-0.413563
C164	C	1.422155	0.333269	-0.080229
C165	C	1.755488	0.666602	0.253104
C166	C	1.086795	-0.000061	-0.517878
C167	C	1.420129	0.333273	-0.184545
C168	C	1.753462	0.666606	0.148789
C169	C	1.083191	-0.000061	0.296603
C170	C	1.416524	0.333272	0.629936
C171	C	1.749858	0.666606	0.963269
C172	C	1.085187	-0.000057	0.398983
C173	C	1.418520	0.333277	0.732316
C174	C	1.751854	0.666610	1.065649
H175	H	0.976067	-0.850369	0.241477
H176	H	1.309400	-0.517035	0.574811
H177	H	1.642733	-0.183702	0.908144
H178	H	1.203230	-0.734942	0.014446
H179	H	1.536563	-0.401608	0.347779
H180	H	1.869897	-0.068275	0.681112
H181	H	0.976045	-0.149794	0.241579
H182	H	1.309378	0.183539	0.574912
H183	H	1.642712	0.516873	0.908246
F184	F	1.218877	-0.858291	-0.001216
F185	F	1.552211	-0.524958	0.332118
F186	F	1.885544	-0.191625	0.665451
F187	F	1.218862	-0.273107	-0.001137
F188	F	1.552196	0.060226	0.332197
F189	F	1.885529	0.393560	0.665530
F190	F	0.960389	-0.727038	0.257137
F191	F	1.293722	-0.393705	0.590470
F192	F	1.627056	-0.060371	0.923803
F193	F	0.897788	-0.565740	0.319730
F194	F	1.231121	-0.232407	0.653063
F195	F	1.564454	0.100927	0.986396
H196	H	0.913435	-0.442408	0.304099
H197	H	1.246769	-0.109074	0.637432
H198	H	1.580102	0.224259	0.970766
H199	H	1.203217	-0.149776	0.014545
H200	H	1.536551	0.183557	0.347878
H201	H	1.869884	0.516891	0.681212
F202	F	1.281449	-0.434414	-0.063753
F203	F	1.614782	-0.101081	0.269581
F204	F	1.948115	0.232253	0.602914
H205	H	0.976041	-0.265194	0.241568
H206	H	1.309374	0.068139	0.574902
H207	H	1.642707	0.401473	0.908235
H208	H	1.265788	-0.557750	-0.048127
H209	H	1.599121	-0.224417	0.285207
H210	H	1.932454	0.108917	0.618540
