data_functionalizedCrystal
_audit_creation_method	'MofGen! by Chris Wilmer'
_symmetry_space_group_name_H-M	'P1'
_symmetry_Int_Tables_number	1
_symmetry_cell_setting	triclinic
loop_
_symmetry_equiv_pos_as_xyz
  x,y,z
_cell_length_a	15.298068
_cell_length_b	25.639240
_cell_length_c	15.296720
_cell_angle_alpha	99.632790
_cell_angle_beta	88.354818
_cell_angle_gamma	99.690536
loop_
_atom_site_label
_atom_site_type_symbol
_atom_site_fract_x
_atom_site_fract_y
_atom_site_fract_z
Zn1	Zn	1.253340	-0.155536	-0.727307
Zn2	Zn	1.278584	-0.225754	-0.580812
Zn3	Zn	1.132221	-0.150455	-0.555475
Zn4	Zn	1.106806	-0.255065	-0.701824
O5	O	1.192738	-0.196703	-0.641355
O6	O	1.379267	-0.154710	-0.729142
O7	O	1.280370	-0.201373	-0.454895
O8	O	1.148359	-0.077963	-0.578330
O9	O	1.397814	-0.206299	-0.621512
O10	O	1.237344	-0.081695	-0.704574
O11	O	1.172837	-0.146051	-0.436280
O12	O	1.006271	-0.174472	-0.553621
O13	O	1.105043	-0.256255	-0.827761
O14	O	0.987599	-0.251329	-0.661143
O15	O	1.212700	-0.183131	-0.846483
O16	O	1.255726	-0.302809	-0.596803
O17	O	1.129521	-0.324343	-0.685711
C18	C	0.965152	-0.215530	-0.601868
C19	C	0.867786	-0.223600	-0.584996
C20	C	0.554643	-0.139159	-0.761941
C21	C	0.646122	-0.131579	-0.777798
C22	C	0.701542	-0.154583	-0.729599
C23	C	0.665475	-0.185169	-0.665540
C24	C	0.573986	-0.192753	-0.649687
C25	C	0.720885	-0.208178	-0.617344
C26	C	0.684818	-0.238764	-0.553286
C27	C	0.593337	-0.246346	-0.537435
C28	C	0.537917	-0.223342	-0.585634
C29	C	0.812374	-0.200594	-0.633198
C30	C	0.831717	-0.254188	-0.520944
C31	C	0.740238	-0.261768	-0.505087
C32	C	1.192626	-0.332547	-0.641264
C33	C	1.192653	-0.390659	-0.641269
C34	C	1.239083	-0.752937	-0.707196
C35	C	1.239105	-0.807541	-0.707218
O36	O	1.278447	-0.837410	-0.763175
N37	N	1.192844	-0.832941	-0.641460
C38	C	1.146550	-0.803736	-0.575681
O39	O	1.107203	-0.830355	-0.519752
C40	C	1.146523	-0.749134	-0.575663
C41	C	1.192794	-0.723735	-0.641420
C42	C	1.285349	-0.727538	-0.772948
C43	C	1.285328	-0.672937	-0.772924
C44	C	1.239039	-0.643735	-0.707149
C45	C	1.192773	-0.669134	-0.641397
C46	C	1.100224	-0.719930	-0.509889
C47	C	1.100200	-0.665324	-0.509877
C48	C	1.146472	-0.639925	-0.575634
C49	C	1.146463	-0.585331	-0.575598
N50	N	1.192724	-0.559931	-0.641355
C51	C	1.239012	-0.589133	-0.707131
C52	C	1.146610	-0.918405	-0.575725
C53	C	1.146642	-0.973005	-0.575738
C54	C	1.239196	-0.976807	-0.707276
C55	C	1.239169	-0.922205	-0.707258
C56	C	1.192871	-0.893004	-0.641482
C57	C	1.238964	-0.474467	-0.707076
C58	C	1.238941	-0.419861	-0.707045
C59	C	1.146384	-0.416065	-0.575510
C60	C	1.146410	-0.470666	-0.575538
C61	C	1.192702	-0.499866	-0.641329
O62	O	1.107139	-0.555430	-0.519671
O63	O	1.278343	-0.562509	-0.763057
C64	C	1.421212	-0.177802	-0.680996
C65	C	1.518574	-0.169747	-0.697888
C66	C	1.153221	-0.223529	-0.869788
C67	C	1.136381	-0.234961	-0.967133
C68	C	1.192870	-0.060328	-0.641468
C69	C	1.192927	-0.002213	-0.641517
C70	C	1.313126	-0.114903	-1.280522
C71	C	1.328954	-0.104162	-1.189063
C72	C	1.280812	-0.136861	-1.133576
C73	C	1.216840	-0.180302	-1.169557
C74	C	1.201016	-0.191046	-1.261026
C75	C	1.168701	-0.213004	-1.114080
C76	C	1.104730	-0.256445	-1.150061
C77	C	1.088908	-0.267187	-1.241521
C78	C	1.137050	-0.234489	-1.297008
C79	C	1.184525	-0.202260	-1.022611
C80	C	1.072415	-0.278404	-1.003115
C81	C	1.056588	-0.289144	-1.094574
C82	C	1.232151	-0.169938	-0.413819
C83	C	1.249160	-0.158345	-0.316504
H84	H	0.841731	-0.175690	-0.685354
C85	C	1.095748	-1.000936	-0.503395
N86	N	1.057408	-1.021973	-0.448907
H87	H	1.276652	-0.498237	-0.760654
C88	C	1.018541	-0.314976	-1.281098
N89	N	0.965539	-0.350970	-1.310905
H90	H	1.323042	-0.751309	-0.826515
C91	C	1.298217	-0.125041	-1.032967
N92	N	1.311326	-0.116134	-0.957184
H93	H	1.276624	-0.399183	-0.760592
H94	H	1.276885	-1.000593	-0.760835
H95	H	1.323003	-0.652261	-0.826471
H96	H	1.276846	-0.901528	-0.760803
H97	H	1.381041	-0.068793	-1.159774
H98	H	0.509511	-0.120436	-0.801183
C99	C	0.986219	-0.336928	-1.134165
N100	N	0.933216	-0.372918	-1.163986
H101	H	1.108913	-0.894631	-0.522155
C102	C	1.366070	-0.078937	-1.341562
N103	N	1.405949	-0.051845	-1.387538
C104	C	1.049314	-0.747857	-0.437555
N105	N	1.010962	-0.768892	-0.383071
H106	H	1.108699	-0.392280	-0.521954
C107	C	1.019454	-0.314374	-0.942082
N108	N	0.979567	-0.341464	-0.896107
H109	H	0.675481	-0.106678	-0.829957
H110	H	1.062496	-0.641552	-0.456315
C111	C	1.095515	-0.498604	-0.503199
N112	N	1.057173	-0.519645	-0.448717
C113	C	0.802173	-0.146239	-0.747036
N114	N	0.877973	-0.139949	-0.760168
C115	C	1.119656	-0.246307	-1.397622
N116	N	1.106561	-0.255210	-1.473407
H117	H	0.463425	-0.229516	-0.572733
H118	H	0.563973	-0.271256	-0.485281
C119	C	0.700550	-0.295415	-0.434628
N120	N	0.670657	-0.320758	-0.381559
C121	C	0.892676	-0.279493	-0.467919
N122	N	0.938596	-0.298552	-0.427985
H123	H	1.236611	-0.166890	-0.993324
