data_functionalizedCrystal
_audit_creation_method	'MofGen! by Chris Wilmer'
_symmetry_space_group_name_H-M	'P1'
_symmetry_Int_Tables_number	1
_symmetry_cell_setting	triclinic
loop_
_symmetry_equiv_pos_as_xyz
  x,y,z
_cell_length_a	14.519731
_cell_length_b	14.519709
_cell_length_c	12.996460
_cell_angle_alpha	89.999966
_cell_angle_beta	89.992872
_cell_angle_gamma	96.315501
loop_
_atom_site_label
_atom_site_type_symbol
_atom_site_fract_x
_atom_site_fract_y
_atom_site_fract_z
O1	O	0.120892	-1.223878	-0.085435
O2	O	0.135128	-0.955402	-0.085467
O3	O	-0.006227	-1.096748	-0.085441
O4	O	0.262247	-1.082532	-0.085461
O5	O	-0.006235	-1.096733	0.085693
O6	O	0.135120	-0.955387	0.085667
O7	O	0.120884	-1.223863	0.085699
Cu8	Cu	0.128001	-1.089624	0.101309
Cu9	Cu	0.128011	-1.089641	-0.101077
O10	O	0.262239	-1.082517	0.085673
C11	C	-0.040591	-1.096075	0.000126
C12	C	-0.142971	-1.094079	0.000127
C13	C	0.134461	-0.921035	0.000096
C14	C	0.132473	-0.818654	0.000084
N15	N	0.127994	-1.089618	0.243656
C16	C	-0.226115	-1.092457	0.000124
C17	C	-0.330424	-1.090430	0.000116
C18	C	-0.413563	-1.088822	0.000109
C19	C	-0.517878	-1.086795	0.000103
C20	C	0.296603	-1.083191	0.000103
C21	C	0.398983	-1.085187	0.000096
C22	C	0.121551	-1.258230	0.000133
C23	C	0.123539	-1.360612	0.000138
C24	C	0.125153	-0.443757	0.000132
C25	C	0.127186	-0.548065	0.000118
C26	C	0.128813	-0.631202	0.000107
C27	C	0.130846	-0.735517	0.000095
N28	N	0.128010	-1.089654	-0.243424
C29	C	0.128012	-1.089640	0.663470
C30	C	0.128010	-1.089631	0.546665
C31	C	0.128004	-1.089630	0.453567
C32	C	0.128001	-1.089620	0.336754
