data_functionalizedCrystal
_audit_creation_method	'MofGen! by Chris Wilmer'
_symmetry_space_group_name_H-M	'P1'
_symmetry_Int_Tables_number	1
_symmetry_cell_setting	triclinic
loop_
_symmetry_equiv_pos_as_xyz
  x,y,z
_cell_length_a	21.395364
_cell_length_b	12.759399
_cell_length_c	21.395355
_cell_angle_alpha	89.986271
_cell_angle_beta	89.975273
_cell_angle_gamma	90.013987
loop_
_atom_site_label
_atom_site_type_symbol
_atom_site_fract_x
_atom_site_fract_y
_atom_site_fract_z
Zn1	Zn	0.957925	-0.418435	-0.354285
Zn2	Zn	1.457925	0.081565	0.145715
Zn3	Zn	0.957855	-0.594099	-0.249516
Zn4	Zn	1.457855	-0.094099	0.250484
Zn5	Zn	0.853140	-0.418430	-0.249522
Zn6	Zn	1.353140	0.081570	0.250478
Zn7	Zn	0.853136	-0.594067	-0.354256
Zn8	Zn	1.353136	-0.094067	0.145744
O9	O	0.905514	-0.506258	-0.301895
O10	O	1.405514	-0.006258	0.198105
O11	O	1.045593	-0.441753	-0.340397
O12	O	1.545593	0.058247	0.159603
O13	O	0.943936	-0.570808	-0.161839
O14	O	1.443936	-0.070808	0.338161
O15	O	0.867070	-0.271409	-0.263433
O16	O	1.367070	0.228591	0.236567
O17	O	1.045542	-0.570813	-0.263424
O18	O	1.545542	-0.070813	0.236576
O19	O	0.944055	-0.271413	-0.340402
O20	O	1.444055	0.228587	0.159598
O21	O	0.867002	-0.441744	-0.161843
O22	O	1.367002	0.058256	0.338157
O23	O	0.765461	-0.441713	-0.263405
O24	O	1.265461	0.058287	0.236595
O25	O	0.867065	-0.570758	-0.441938
O26	O	1.367065	-0.070758	0.058062
O27	O	0.765459	-0.570753	-0.340353
O28	O	1.265459	-0.070753	0.159647
O29	O	0.944052	-0.441721	-0.441959
O30	O	1.444052	0.058279	0.058041
O31	O	0.943933	-0.741116	-0.263396
O32	O	1.443933	-0.241116	0.236604
O33	O	0.866997	-0.741092	-0.340348
O34	O	1.366997	-0.241092	0.159652
C35	C	0.742726	-0.506230	-0.301877
C36	C	1.242726	-0.006230	0.198123
C37	C	0.673085	-0.506243	-0.301884
C38	C	1.173085	-0.006243	0.198116
C39	C	0.171304	-0.573572	-0.341923
C40	C	0.671304	-0.073572	0.158077
C41	C	0.236739	-0.573572	-0.341916
C42	C	0.736739	-0.073572	0.158084
C43	C	0.269447	-0.506281	-0.301915
C44	C	0.769447	-0.006281	0.198085
C45	C	0.236713	-0.439003	-0.261905
C46	C	0.736713	0.060997	0.238095
C47	C	0.171279	-0.439012	-0.261908
C48	C	0.671279	0.060988	0.238092
C49	C	0.373121	-0.411598	-0.297059
C50	C	0.873121	0.088402	0.202941
C51	C	0.438554	-0.411587	-0.297060
C52	C	0.938554	0.088413	0.202940
C53	C	0.471267	-0.506253	-0.301901
C54	C	0.971267	-0.006253	0.198099
C55	C	0.438540	-0.600933	-0.306754
C56	C	0.938540	-0.100933	0.193246
C57	C	0.373106	-0.600942	-0.306757
C58	C	0.873106	-0.100942	0.193243
C59	C	0.340399	-0.506264	-0.301906
C60	C	0.840399	-0.006264	0.198094
C61	C	0.574946	-0.573532	-0.341898
C62	C	1.074946	-0.073532	0.158102
C63	C	0.640382	-0.573534	-0.341887
C64	C	1.140382	-0.073534	0.158113
C65	C	0.640355	-0.438955	-0.261879
C66	C	1.140355	0.061045	0.238121
C67	C	0.574919	-0.438963	-0.261887
C68	C	1.074919	0.061037	0.238113
C69	C	0.542219	-0.506250	-0.301899
C70	C	1.042219	-0.006250	0.198101
C71	C	0.905474	-0.779225	-0.301882
C72	C	1.405474	-0.279225	0.198118
C73	C	0.905514	-0.896002	-0.301898
C74	C	1.405514	-0.396002	0.198102
C75	C	0.945665	-1.060566	-0.261894
C76	C	1.445665	-0.560566	0.238106
C77	C	0.945623	-0.950842	-0.261874
C78	C	1.445623	-0.450842	0.238126
C79	C	0.865440	-0.950891	-0.341938
C80	C	1.365440	-0.450891	0.158062
C81	C	0.865479	-1.060613	-0.341954
C82	C	1.365479	-0.560613	0.158046
C83	C	0.991960	-1.060537	-0.215671
C84	C	1.491960	-0.560537	0.284329
C85	C	0.991918	-0.950813	-0.215652
C86	C	1.491918	-0.450813	0.284348
C87	C	1.068937	-0.506287	-0.301913
C88	C	1.568937	-0.006287	0.198087
C89	C	1.138578	-0.506299	-0.301921
C90	C	1.638578	-0.006299	0.198079
C91	C	0.905566	-0.506236	-0.465318
C92	C	1.405566	-0.006236	0.034682
C93	C	0.905588	-0.506227	-0.534960
C94	C	1.405588	-0.006227	-0.034960
C95	C	0.905571	-0.232224	-0.301921
C96	C	1.405571	0.267776	0.198079
C97	C	0.905595	-0.115448	-0.301933
C98	C	1.405595	0.384552	0.198067
C99	C	0.945674	-0.439035	-0.567685
C100	C	1.445674	0.060965	-0.067685
C101	C	0.945673	-0.438990	-0.633120
C102	C	1.445673	0.061010	-0.133120
C103	C	0.905593	-0.506156	-0.665828
C104	C	1.405593	-0.006156	-0.165828
C105	C	0.865499	-0.573353	-0.633095
C106	C	1.365499	-0.073353	-0.133095
C107	C	0.865497	-0.573388	-0.567661
C108	C	1.365497	-0.073388	-0.067661
C109	C	0.900632	-0.600755	-0.769498
C110	C	1.400632	-0.100755	-0.269498
C111	C	0.900639	-0.600721	-0.834931
C112	C	1.400639	-0.100721	-0.334931
C113	C	0.905597	-0.506045	-0.867649
C114	C	1.405597	-0.006045	-0.367649
C115	C	0.910561	-0.411400	-0.834925
C116	C	1.410561	0.088600	-0.334925
C117	C	0.910559	-0.411436	-0.769491
C118	C	1.410559	0.088564	-0.269491
C119	C	0.905591	-0.506124	-0.736780
C120	C	1.405591	-0.006124	-0.236780
C121	C	0.945684	-0.438798	-0.971327
C122	C	1.445684	0.061202	-0.471327
C123	C	0.945678	-0.438751	-1.036763
C124	C	1.445678	0.061249	-0.536763
C125	C	0.865508	-0.573123	-1.036737
C126	C	1.365508	-0.073123	-0.536737
C127	C	0.865510	-0.573160	-0.971301
C128	C	1.365510	-0.073160	-0.471301
C129	C	0.905601	-0.506000	-0.938600
C130	C	1.405601	-0.006000	-0.438600
C131	C	0.905498	-0.506203	-0.139107
C132	C	1.405498	-0.006203	0.360893
C133	C	0.905597	-0.505916	-0.069466
C134	C	1.405597	-0.005916	0.430534
H135	H	0.667026	-0.628323	-0.374459
H136	H	1.167026	-0.128323	0.125541
H137	H	0.832778	-0.906233	-0.374522
H138	H	1.332778	-0.406233	0.125478
H139	H	0.914600	-0.334306	-0.861563
H140	H	1.414600	0.165694	-0.361563
Cl141	Cl	0.815100	-1.129604	-0.392287
Cl142	Cl	1.315100	-0.629604	0.107713
Cl143	Cl	0.277830	-0.354412	-0.211615
Cl144	Cl	0.777830	0.145588	0.288385
Cl145	Cl	0.815100	-0.657866	-0.526518
Cl146	Cl	1.315100	-0.157866	-0.026518
Cl147	Cl	0.681466	-0.354369	-0.211584
Cl148	Cl	1.181466	0.145631	0.288416
H149	H	0.832864	-0.628036	-0.659730
H150	H	1.332864	-0.128036	-0.159730
Cl151	Cl	0.971951	-1.106605	-0.140741
Cl152	Cl	1.471951	-0.606605	0.359259
Cl153	Cl	0.996079	-0.354364	-0.930214
Cl154	Cl	1.496079	0.145636	-0.430214
Cl155	Cl	0.533776	-0.354377	-0.211601
Cl156	Cl	1.033776	0.145623	0.288399
Cl157	Cl	1.063128	-1.112967	-0.242587
Cl158	Cl	1.563128	-0.612967	0.257413
H159	H	0.144634	-0.384228	-0.229334
H160	H	0.644634	0.115772	0.270666
H161	H	0.974550	-0.916845	-0.169532
H162	H	1.474550	-0.416845	0.330468
Cl163	Cl	1.066809	-0.904705	-0.235781
Cl164	Cl	1.566809	-0.404705	0.264219
H165	H	0.978318	-0.384346	-0.541063
H166	H	1.478318	0.115654	-0.041063
H167	H	0.144683	-0.628366	-0.374502
H168	H	0.644683	-0.128366	0.125498
H169	H	0.465174	-0.678018	-0.310701
H170	H	0.965174	-0.178018	0.189299
H171	H	0.978314	-0.384269	-0.659770
H172	H	1.478314	0.115731	-0.159770
H173	H	0.832868	-0.627800	-1.063367
H174	H	1.332868	-0.127800	-0.563367
Cl175	Cl	0.916795	-0.292460	-0.728355
Cl176	Cl	1.416795	0.207540	-0.228355
H177	H	0.978320	-0.384029	-1.063407
H178	H	1.478320	0.115971	-0.563407
H179	H	0.832872	-0.627882	-0.944656
H180	H	1.332872	-0.127882	-0.444656
H181	H	0.346490	-0.334506	-0.293106
H182	H	0.846490	0.165494	0.206894
H183	H	0.896600	-0.677786	-0.861570
H184	H	1.396600	-0.177786	-0.361570
H185	H	0.896427	-0.677831	-0.742865
H186	H	1.396427	-0.177831	-0.242865
Cl187	Cl	0.533833	-0.658124	-0.392195
Cl188	Cl	1.033833	-0.158124	0.107805
H189	H	0.263390	-0.628354	-0.374493
H190	H	0.763390	-0.128354	0.125507
H191	H	0.465195	-0.334493	-0.293115
H192	H	0.965195	0.165507	0.206885
Cl193	Cl	0.331965	-0.719962	-0.312854
Cl194	Cl	0.831965	-0.219962	0.187146
