data_functionalizedCrystal
_audit_creation_method	'MofGen! by Chris Wilmer'
_symmetry_space_group_name_H-M	'P1'
_symmetry_Int_Tables_number	1
_symmetry_cell_setting	triclinic
loop_
_symmetry_equiv_pos_as_xyz
  x,y,z
_cell_length_a	16.625548
_cell_length_b	12.827893
_cell_length_c	12.827885
_cell_angle_alpha	89.974949
_cell_angle_beta	89.978573
_cell_angle_gamma	90.004578
loop_
_atom_site_label
_atom_site_type_symbol
_atom_site_fract_x
_atom_site_fract_y
_atom_site_fract_z
Zn1	Zn	1.232794	-0.415953	-0.590938
Zn2	Zn	1.566127	-0.082619	-0.257605
Zn3	Zn	1.899460	0.250714	0.075729
Zn4	Zn	1.232739	-0.590730	-0.416213
Zn5	Zn	1.566073	-0.257397	-0.082879
Zn6	Zn	1.899406	0.075937	0.250454
Zn7	Zn	1.097953	-0.416007	-0.416206
Zn8	Zn	1.431287	-0.082673	-0.082872
Zn9	Zn	1.764620	0.250660	0.250461
Zn10	Zn	1.097970	-0.590656	-0.590907
Zn11	Zn	1.431304	-0.257322	-0.257573
Zn12	Zn	1.764637	0.076011	0.075760
O13	O	1.165364	-0.503336	-0.503566
O14	O	1.498697	-0.170003	-0.170232
O15	O	1.832031	0.163330	0.163101
O16	O	1.345619	-0.439146	-0.567776
O17	O	1.678952	-0.105812	-0.234443
O18	O	2.012285	0.227521	0.098890
O19	O	1.214830	-0.567606	-0.269976
O20	O	1.548163	-0.234273	0.063358
O21	O	1.881497	0.099060	0.396691
O22	O	1.115856	-0.269764	-0.439394
O23	O	1.449189	0.063570	-0.106061
O24	O	1.782522	0.396903	0.227272
O25	O	1.345579	-0.567554	-0.439406
O26	O	1.678912	-0.234220	-0.106073
O27	O	2.012246	0.099113	0.227260
O28	O	1.214922	-0.269724	-0.567769
O29	O	1.548256	0.063610	-0.234436
O30	O	1.881589	0.396943	0.098897
O31	O	1.115803	-0.439238	-0.269970
O32	O	1.449137	-0.105905	0.063363
O33	O	1.782470	0.227429	0.396696
O34	O	0.985123	-0.439166	-0.439364
O35	O	1.318457	-0.105833	-0.106031
O36	O	1.651790	0.227501	0.227303
O37	O	1.115885	-0.567427	-0.737147
O38	O	1.449218	-0.234094	-0.403814
O39	O	1.782551	0.099240	-0.070480
O40	O	0.985136	-0.567480	-0.567716
O41	O	1.318469	-0.234146	-0.234383
O42	O	1.651802	0.099187	0.098951
O43	O	1.214939	-0.439073	-0.737170
O44	O	1.548272	-0.105740	-0.403837
O45	O	1.881605	0.227593	-0.070503
O46	O	1.214846	-0.736956	-0.439376
O47	O	1.548180	-0.403623	-0.106043
O48	O	1.881513	-0.070289	0.227291
O49	O	1.115832	-0.736901	-0.567723
O50	O	1.449166	-0.403568	-0.234390
O51	O	1.782499	-0.070235	0.098944
C52	C	0.955873	-0.503321	-0.503536
C53	C	1.289207	-0.169988	-0.170203
C54	C	1.622540	0.163345	0.163130
C55	C	0.866252	-0.503340	-0.503549
C56	C	1.199586	-0.170007	-0.170215
C57	C	1.532919	0.163327	0.163118
C58	C	1.165393	-0.230766	-0.503584
C59	C	1.498726	0.102567	-0.170251
C60	C	1.832060	0.435901	0.163082
C61	C	1.165405	-0.114613	-0.503593
C62	C	1.498739	0.218720	-0.170259
C63	C	1.832072	0.552054	0.163074
C64	C	1.165357	-0.774846	-0.503570
C65	C	1.498690	-0.441513	-0.170236
C66	C	1.832024	-0.108179	0.163097
C67	C	1.165428	-0.890999	-0.503606
C68	C	1.498761	-0.557666	-0.170273
C69	C	1.832095	-0.224332	0.163060
C70	C	0.538077	-0.503347	-0.503593
C71	C	0.871410	-0.170014	-0.170260
C72	C	1.204743	0.163320	0.163073
C73	C	0.629385	-0.503342	-0.503578
C74	C	0.962718	-0.170009	-0.170244
C75	C	1.296052	0.163325	0.163089
C76	C	0.702161	-0.503344	-0.503570
C77	C	1.035495	-0.170011	-0.170237
C78	C	1.368828	0.163323	0.163096
C79	C	0.793476	-0.503338	-0.503556
C80	C	1.126809	-0.170005	-0.170223
C81	C	1.460142	0.163329	0.163111
C82	C	1.375673	-0.503352	-0.503596
C83	C	1.709006	-0.170019	-0.170262
C84	C	2.042340	0.163315	0.163071
C85	C	1.465294	-0.503359	-0.503608
C86	C	1.798627	-0.170025	-0.170275
C87	C	2.131961	0.163308	0.163058
C88	C	1.165420	-0.503236	-0.776136
C89	C	1.498753	-0.169903	-0.442803
C90	C	1.832086	0.163431	-0.109469
C91	C	1.165443	-0.503193	-0.892289
C92	C	1.498777	-0.169860	-0.558956
C93	C	1.832110	0.163474	-0.225623
C94	C	1.116395	-0.062848	-0.440079
C95	C	1.449728	0.270485	-0.106745
C96	C	1.783061	0.603819	0.226588
C97	C	1.116406	0.057202	-0.440085
C98	C	1.449740	0.390536	-0.106752
C99	C	1.783073	0.723869	0.226581
C100	C	1.116457	-0.439660	-0.944071
C101	C	1.449791	-0.106327	-0.610738
C102	C	1.783124	0.227007	-0.277405
C103	C	1.116481	-0.439614	-1.064122
C104	C	1.449814	-0.106281	-0.730788
C105	C	1.783147	0.227052	-0.397455
C106	C	1.165355	-0.503361	-0.232056
C107	C	1.498689	-0.170027	0.101278
C108	C	1.832022	0.163306	0.434611
C109	C	1.165488	-0.503109	-0.115903
C110	C	1.498821	-0.169776	0.217430
C111	C	1.832154	0.163558	0.550764
H112	H	1.074424	-0.107407	-0.385701
H113	H	1.407757	0.225927	-0.052367
H114	H	1.741090	0.559260	0.280966
C115	C	1.059782	-0.366211	-0.883899
C116	C	1.393115	-0.032878	-0.550566
C117	C	1.726448	0.300456	-0.217233
N118	N	1.017095	-0.310883	-0.838579
N119	N	1.350428	0.022450	-0.505245
N120	N	1.683762	0.355784	-0.171912
C121	C	1.059822	-0.366128	-1.124279
C122	C	1.393155	-0.032795	-0.790945
C123	C	1.726489	0.300539	-0.457612
N124	N	1.017144	-0.310777	-1.169591
N125	N	1.350477	0.022557	-0.836258
N126	N	1.683811	0.355890	-0.502925
C127	C	1.059718	0.117339	-0.366623
C128	C	1.393051	0.450673	-0.033289
C129	C	1.726385	0.784006	0.300044
N130	N	1.017017	0.162637	-0.311290
N131	N	1.350351	0.495971	0.022044
N132	N	1.683684	0.829304	0.355377
H133	H	1.207393	0.064491	-0.557982
H134	H	1.540726	0.397824	-0.224649
H135	H	1.874059	0.731157	0.108685
C136	C	1.222056	-0.576723	-0.952461
C137	C	1.555390	-0.243390	-0.619128
C138	C	1.888723	0.089943	-0.285795
N139	N	1.264674	-0.632140	-0.997782
N140	N	1.598008	-0.298807	-0.664448
N141	N	1.931341	0.034527	-0.331115
C142	C	1.222106	-0.054421	-0.577062
C143	C	1.555439	0.278912	-0.243729
C144	C	1.888772	0.612246	0.089605
N145	N	1.264815	-0.009086	-0.632400
N146	N	1.598148	0.324248	-0.299066
N147	N	1.931482	0.657581	0.034267
H148	H	1.207432	-0.557501	-1.071378
H149	H	1.540765	-0.224168	-0.738045
H150	H	1.874098	0.109166	-0.404712
