data_functionalizedCrystal
_audit_creation_method	'MofGen! by Chris Wilmer'
_symmetry_space_group_name_H-M	'P1'
_symmetry_Int_Tables_number	1
_symmetry_cell_setting	triclinic
loop_
_symmetry_equiv_pos_as_xyz
  x,y,z
_cell_length_a	19.902436
_cell_length_b	21.606444
_cell_length_c	21.606444
_cell_angle_alpha	89.999821
_cell_angle_beta	60.001312
_cell_angle_gamma	59.995360
loop_
_atom_site_label
_atom_site_type_symbol
_atom_site_fract_x
_atom_site_fract_y
_atom_site_fract_z
Zr1	Zr	0.735485	0.596170	-0.081197
O2	O	0.875668	0.497334	-0.180022
O3	O	0.595305	0.626477	-0.050904
O4	O	0.735488	0.626466	-0.180023
O5	O	0.735482	0.497345	0.050950
O6	O	0.735488	0.728318	-0.180021
O7	O	0.735485	0.497345	-0.050904
O8	O	0.484726	0.728339	0.050948
O9	O	0.986244	0.497324	-0.180020
O10	O	0.652962	0.715404	-0.037981
O11	O	0.652960	0.639392	0.038029
O12	O	0.818008	0.639379	-0.113991
O13	O	0.818006	0.563367	-0.037980
Zr14	Zr	0.735481	0.758611	0.081249
Zr15	Zr	0.735485	0.758612	-0.081195
Zr16	Zr	0.735481	0.596169	0.081247
Zr17	Zr	0.911842	0.596155	-0.081194
Zr18	Zr	0.559125	0.758627	0.081245
O19	O	0.875662	0.728304	0.050956
O20	O	0.875668	0.728306	-0.180018
O21	O	0.875662	0.497332	0.050953
O22	O	0.595299	0.857448	0.180074
O23	O	0.595305	0.857449	-0.050901
O24	O	0.595299	0.626476	0.180070
O25	O	0.735484	0.857437	-0.050898
O26	O	0.735479	0.728316	0.180074
O27	O	0.735479	0.626464	0.180073
O28	O	0.735482	0.857436	0.050955
O29	O	0.986244	0.626444	-0.180018
O30	O	0.484722	0.728338	0.180069
O31	O	0.484722	0.857458	0.180071
O32	O	0.484726	0.857458	0.050950
O33	O	0.986241	0.497323	-0.050898
O34	O	0.986241	0.626443	-0.050896
O35	O	0.652958	0.715403	0.114042
O36	O	0.652960	0.791414	0.038032
O37	O	0.818006	0.715389	-0.037978
O38	O	0.818004	0.639378	0.038033
C39	C	0.514888	0.677410	0.000021
C40	C	0.440020	0.677417	0.000020
C41	C	0.168009	0.677382	0.000028
C42	C	0.196750	0.725103	-0.048150
C43	C	0.274364	0.725369	-0.047944
C44	C	0.302957	0.677399	0.000023
C45	C	0.210874	0.712372	0.082616
C46	C	0.132930	0.712724	0.082355
C47	C	0.259943	0.594668	-0.033721
C48	C	0.338682	0.594797	-0.035395
C49	C	0.379222	0.677408	0.000025
C50	C	0.091740	0.677376	0.000032
C51	C	0.735483	0.474201	0.000023
C52	C	0.735484	0.405240	0.000022
C53	C	0.735488	0.372842	-0.056092
C54	C	0.735483	0.308048	-0.056089
C55	C	0.735481	0.275650	0.000025
C56	C	0.735474	0.308054	0.056144
C57	C	0.735472	0.372850	0.056144
C58	C	0.735481	0.046740	0.056147
C59	C	0.735486	-0.018062	0.056141
C60	C	0.735492	-0.018062	-0.056086
C61	C	0.735490	0.046734	-0.056087
C62	C	0.735478	0.079134	0.000035
C63	C	0.735481	0.149392	0.000032
C64	C	0.735484	0.205390	0.000025
C65	C	0.956078	0.677372	0.000030
C66	C	1.030946	0.677365	0.000032
C67	C	0.735489	0.677392	-0.203167
C68	C	0.735490	0.677393	-0.272129
C69	C	0.735483	0.880581	0.000029
C70	C	0.735483	0.949542	0.000030
C71	C	0.735492	0.733503	-0.304526
C72	C	0.735485	0.733506	-0.369319
C73	C	0.735484	0.677393	-0.401717
C74	C	0.735479	0.621279	-0.369313
C75	C	0.735479	0.621281	-0.304518
C76	C	0.735478	0.621273	-0.630623
C77	C	0.735481	0.621275	-0.695424
C78	C	0.735485	0.733498	-0.695424
C79	C	0.735485	0.733499	-0.630629
C80	C	0.735475	0.677388	-0.598229
C81	C	0.735480	0.677387	-0.527973
C82	C	0.735485	0.677391	-0.471975
C83	C	0.735478	0.677390	0.203218
C84	C	0.735476	0.677389	0.272180
C85	C	0.514888	0.880601	0.000024
C86	C	0.440020	0.949568	0.000024
C87	C	0.514883	0.677409	0.203214
C88	C	0.440013	0.677415	0.272174
C89	C	0.514883	0.880599	0.203217
C90	C	0.440013	0.949566	0.272178
C91	C	0.956084	0.474182	-0.203165
C92	C	1.030954	0.405215	-0.272127
C93	C	0.956079	0.474181	0.000027
C94	C	1.030947	0.405214	0.000028
C95	C	0.956084	0.677373	-0.203162
C96	C	1.030953	0.677367	-0.272122
C97	C	0.404862	0.942279	-0.039661
C98	C	0.334526	1.007075	-0.039677
C99	C	0.299343	1.079160	-0.000003
C100	C	0.334508	1.086447	0.039684
C101	C	0.404848	1.021652	0.039694
C102	C	0.404853	0.717095	0.344243
C103	C	0.334514	0.717098	0.409045
C104	C	0.299333	0.677425	0.401776
C105	C	0.334501	0.637740	0.329699
C106	C	0.404843	0.637734	0.264899
C107	C	0.404854	1.021638	0.264886
C108	C	0.334516	1.086446	0.329677
C109	C	0.299333	1.079181	0.401758
C110	C	0.334498	1.007102	0.409048
C111	C	0.404840	0.942295	0.344259
C112	C	1.066121	0.333144	-0.264835
C113	C	1.136481	0.268336	-0.329625
C114	C	1.171668	0.275601	-0.401706
C115	C	1.136498	0.347680	-0.408997
C116	C	1.066144	0.412486	-0.344207
C117	C	1.066112	0.412502	0.039706
C118	C	1.136468	0.347706	0.039704
C119	C	1.171653	0.275622	0.000027
C120	C	1.136485	0.268335	-0.039656
C121	C	1.066135	0.333130	-0.039658
C122	C	1.066112	0.717047	-0.264829
C123	C	1.136451	0.717056	-0.329618
C124	C	1.171634	0.677380	-0.401700
C125	C	1.136468	0.637698	-0.408992
C126	C	1.066126	0.637694	-0.344204
H127	H	0.111187	0.680212	0.120202
C128	C	0.295776	0.999118	0.488341
C129	C	0.218388	1.070409	0.559601
C130	C	0.179654	1.062427	0.638895
C131	C	0.218307	0.983154	0.646931
C132	C	0.295699	0.911857	0.575669
C133	C	0.334433	0.919839	0.496375
H134	H	0.189771	1.129096	0.553654
H135	H	0.122363	1.115206	0.691648
H136	H	0.189633	0.977245	0.705630
H137	H	0.324316	0.853169	0.581616
H138	H	0.391724	0.867060	0.443622
H139	H	1.228936	0.222868	0.000035
H140	H	1.037469	0.471191	0.072021
H141	H	1.165090	0.353655	0.072021
H142	H	1.165143	0.209635	-0.071959
C143	C	1.027445	0.325105	-0.083296
C144	C	1.066147	0.245811	-0.126929
C145	C	1.027461	0.237779	-0.170569
C146	C	0.950073	0.309041	-0.170576
C147	C	0.911367	0.388341	-0.126941
C148	C	0.950053	0.396373	-0.083301
H149	H	1.123438	0.193053	-0.126926
H150	H	1.056114	0.179076	-0.202870
H151	H	0.921435	0.303095	-0.202881
H152	H	0.854076	0.441098	-0.126945
H153	H	0.921400	0.455076	-0.051000
C154	C	1.027413	0.760702	-0.185544
C155	C	1.066090	0.804355	-0.177537
C156	C	1.027390	0.848018	-0.098254
C157	C	0.950012	0.848028	-0.026978
C158	C	0.911331	0.804373	-0.034983
C159	C	0.950031	0.760710	-0.114265
H160	H	1.123373	0.804349	-0.230302
H161	H	1.056025	0.880335	-0.092329
H162	H	0.921364	0.880350	0.031711
H163	H	0.854048	0.804379	0.017782
H164	H	0.921396	0.728394	-0.120190
C165	C	0.443552	1.029643	0.185602
C166	C	0.520928	0.958370	0.114325
C167	C	0.559626	0.966382	0.035043
C168	C	0.520948	1.045668	0.027038
C169	C	0.443568	1.116947	0.098318
C170	C	0.404870	1.108935	0.177600
H171	H	0.549564	0.899672	0.120249
H172	H	0.616909	0.913616	-0.017722
H173	H	0.549595	1.051599	-0.031651
H174	H	0.414933	1.175644	0.092394
H175	H	0.347588	1.161701	0.230365
H176	H	0.131666	0.785756	-0.024946
C177	C	0.361988	0.693687	-0.130102
C178	C	0.458797	0.622386	-0.154919
C179	C	0.546420	0.590707	-0.237081
C180	C	0.537235	0.630330	-0.294424
C181	C	0.440422	0.701635	-0.269608
C182	C	0.352799	0.733314	-0.187447
H183	H	0.465600	0.593052	-0.112469
H184	H	0.618087	0.537922	-0.255451
H185	H	0.602099	0.606879	-0.355245
H186	H	0.433619	0.730969	-0.312059
H187	H	0.281132	0.786099	-0.169077
H188	H	0.735496	0.073108	-0.101782
C189	C	0.233262	0.693580	-0.130524
C190	C	0.182163	0.744227	-0.163886
C191	C	0.218672	0.712701	-0.246262
C192	C	0.306280	0.630529	-0.295276
C193	C	0.357386	0.579877	-0.261915
C194	C	0.320877	0.611403	-0.179539
H195	H	0.117305	0.805061	-0.127602
H196	H	0.180840	0.750198	-0.270958
H197	H	0.333307	0.607192	-0.356256
H198	H	0.422243	0.519043	-0.298199
H199	H	0.358708	0.573906	-0.154843
C200	C	0.237625	0.807795	-0.016308
C201	C	0.137485	0.873580	0.008851
C202	C	0.100740	0.956010	0.040493
C203	C	0.164135	0.972653	0.046977
C204	C	0.264281	0.906865	0.021817
C205	C	0.301026	0.824436	-0.009825
H206	H	0.090551	0.861261	0.004052
H207	H	0.026605	1.004710	0.059118
H208	H	0.136934	1.033672	0.070400
H209	H	0.311215	0.919184	0.026616
H210	H	0.375161	0.775736	-0.028450
C211	C	0.443558	0.862992	-0.083312
C212	C	0.404881	0.854990	-0.126969
C213	C	0.443576	0.775705	-0.170627
C214	C	0.520950	0.704422	-0.170628
C215	C	0.559632	0.712421	-0.126969
C216	C	0.520936	0.791706	-0.083311
H217	H	0.347600	0.907761	-0.126969
H218	H	0.414941	0.769784	-0.202945
H219	H	0.549595	0.645730	-0.202946
H220	H	0.616912	0.659650	-0.126968
H221	H	0.549572	0.797627	-0.050992
H222	H	0.433457	0.883614	0.350207
H223	H	0.305846	0.605440	0.323791
H224	H	0.433464	1.027597	0.072015
C225	C	0.735478	0.559553	-0.404947
C226	C	0.735473	0.559548	-0.476217
C227	C	0.735475	0.497818	-0.511851
C228	C	0.735482	0.436094	-0.476214
C229	C	0.735486	0.436097	-0.404940
C230	C	0.735484	0.497827	-0.369307
H231	H	0.735469	0.605242	-0.502601
H232	H	0.735472	0.497816	-0.564613
H233	H	0.735483	0.390398	-0.502592
H234	H	0.735490	0.390403	-0.378556
H235	H	0.735487	0.497829	-0.316545
H236	H	1.037508	0.605378	-0.350153
H237	H	0.433489	0.749401	0.350177
H238	H	0.305891	1.145130	0.323727
H239	H	0.735466	0.281674	0.101837
C240	C	1.175130	0.760702	-0.321584
C241	C	1.107415	0.846891	-0.279918
C242	C	1.146092	0.890535	-0.271882
C243	C	1.252485	0.847990	-0.305512
C244	C	1.320206	0.761796	-0.347180
C245	C	1.281529	0.718152	-0.355217
H246	H	1.028651	0.878389	-0.255021
H247	H	1.095959	0.954342	-0.241036
H248	H	1.281116	0.880298	-0.299563
H249	H	1.398970	0.730298	-0.372077
H250	H	1.331661	0.654345	-0.386063
C251	C	0.232681	0.667685	0.133222
C252	C	0.334602	0.598751	0.100059
C253	C	0.356411	0.554063	0.150663
C254	C	0.276301	0.578308	0.234431
C255	C	0.174373	0.647245	0.267599
C256	C	0.152564	0.691934	0.216994
H257	H	0.393910	0.580800	0.038045
H258	H	0.431865	0.503031	0.126110
H259	H	0.292446	0.545227	0.271891
H260	H	0.115064	0.665196	0.329613
H261	H	0.077110	0.742966	0.241548
C262	C	0.735494	-0.053698	-0.117818
C263	C	0.653423	-0.060436	-0.095460
C264	C	0.653428	-0.096071	-0.157191
C265	C	0.735504	-0.124969	-0.241279
C266	C	0.817581	-0.118232	-0.263641
C267	C	0.817576	-0.082597	-0.201910
H268	H	0.592659	-0.039043	-0.033208
H269	H	0.592669	-0.101058	-0.140636
H270	H	0.735508	-0.151349	-0.286976
H271	H	0.878345	-0.139624	-0.325893
H272	H	0.878335	-0.077609	-0.218465
C273	C	1.175150	0.189055	-0.321593
C274	C	1.281535	0.133585	-0.355198
C275	C	1.320200	0.054308	-0.347164
C276	C	1.252480	0.030501	-0.305525
C277	C	1.146089	0.085972	-0.271917
C278	C	1.107424	0.165249	-0.279951
H279	H	1.331671	0.151207	-0.386024
H280	H	1.398958	0.013244	-0.372043
H281	H	1.281102	-0.028185	-0.299578
H282	H	1.095953	0.068350	-0.241091
H283	H	1.028666	0.206313	-0.255073
C284	C	1.027454	0.491765	-0.352236
C285	C	0.950063	0.563059	-0.280980
C286	C	0.911378	0.642336	-0.289015
C287	C	0.950083	0.650318	-0.368306
C288	C	1.027479	0.579021	-0.439568
C289	C	1.066164	0.499744	-0.431532
H290	H	0.921407	0.557153	-0.222279
H291	H	0.854085	0.695115	-0.236263
H292	H	0.921446	0.709004	-0.374254
H293	H	1.056135	0.584928	-0.498269
H294	H	1.123457	0.446966	-0.484285
C295	C	1.249053	0.204308	-0.472972
C296	C	1.287681	0.125033	-0.464942
C297	C	1.365063	0.053738	-0.536204
C298	C	1.403816	0.061719	-0.615496
C299	C	1.365187	0.140998	-0.623528
C300	C	1.287805	0.212292	-0.552266
H301	H	1.258994	0.119122	-0.406243
H302	H	1.393658	-0.004949	-0.530257
H303	H	1.461098	0.008942	-0.668248
H304	H	1.393874	0.146908	-0.682228
H305	H	1.259210	0.270980	-0.558213
C306	C	0.735484	0.795224	-0.594991
C307	C	0.735488	0.856947	-0.630626
C308	C	0.735483	0.918675	-0.594986
C309	C	0.735474	0.918680	-0.523710
C310	C	0.735470	0.856955	-0.488070
C311	C	0.735475	0.795227	-0.523711
H312	H	0.735495	0.856945	-0.683393
H313	H	0.735486	0.964368	-0.621370
H314	H	0.735471	0.964375	-0.497327
H315	H	0.735464	0.856957	-0.435304
H316	H	0.735472	0.749534	-0.497327
C317	C	1.175206	0.355662	-0.488291
C318	C	1.165542	0.322010	-0.543741
C319	C	1.204248	0.329989	-0.623037
C320	C	1.252619	0.371620	-0.646883
C321	C	1.262286	0.405274	-0.591431
C322	C	1.223579	0.397295	-0.512135
H323	H	1.129733	0.291191	-0.526090
H324	H	1.197092	0.305076	-0.664086
H325	H	1.281272	0.377526	-0.705582
H326	H	1.298095	0.436094	-0.609082
H327	H	1.230735	0.422209	-0.471086
H328	H	1.228912	0.677389	-0.454449
C329	C	0.443504	0.594091	0.185624
C330	C	0.433815	0.636635	0.130172
C331	C	0.472471	0.592990	0.050899
C332	C	0.520818	0.506800	0.027077
C333	C	0.530510	0.464251	0.082530
C334	C	0.491853	0.507896	0.161803
H335	H	0.398023	0.700442	0.147805
H336	H	0.465296	0.624488	0.009849
H337	H	0.549434	0.474491	-0.031606
H338	H	0.566301	0.400444	0.064897
H339	H	0.499028	0.476398	0.202853
H340	H	0.067052	0.773590	0.109373
C341	C	0.173050	0.793820	0.119377
C342	C	0.072537	0.860485	0.146192
C343	C	0.034714	0.941934	0.182948
C344	C	0.097402	0.956718	0.192889
C345	C	0.197921	0.890051	0.166074
C346	C	0.235745	0.808602	0.129318
H347	H	0.026126	0.849543	0.138834
H348	H	-0.039697	0.991285	0.202799
H349	H	0.069403	1.017011	0.220099
H350	H	0.244332	0.900993	0.173432
H351	H	0.310155	0.759251	0.109467
C352	C	0.735494	0.795229	-0.268892
C353	C	0.653425	0.879326	-0.240011
C354	C	0.653423	0.941056	-0.204377
C355	C	0.735490	0.918689	-0.197625
C356	C	0.817564	0.834588	-0.226507
C357	C	0.817566	0.772858	-0.262141
H358	H	0.592670	0.895888	-0.245009
H359	H	0.592666	1.003313	-0.182997
H360	H	0.735488	0.964385	-0.171247
H361	H	0.878320	0.818027	-0.221509
H362	H	0.878323	0.710601	-0.283521
H363	H	1.165126	0.605395	-0.467690
C364	C	0.298757	0.555202	-0.114645
C365	C	0.388866	0.473364	-0.159099
C366	C	0.427675	0.433907	-0.240024
C367	C	0.376374	0.476288	-0.276495
C368	C	0.286259	0.558130	-0.232041
C369	C	0.247451	0.597587	-0.151116
H370	H	0.426847	0.441987	-0.132101
H371	H	0.494384	0.373322	-0.272931
H372	H	0.405103	0.447080	-0.336400
H373	H	0.248279	0.589507	-0.259039
H374	H	0.180742	0.658172	-0.118208
C375	C	0.427426	0.559495	-0.117595
C376	C	0.421690	0.597160	-0.176914
C377	C	0.510439	0.561862	-0.259112
C378	C	0.604925	0.488899	-0.281991
C379	C	0.610666	0.451230	-0.222671
C380	C	0.521916	0.486528	-0.140473
H381	H	0.351742	0.651176	-0.159978
H382	H	0.506189	0.589748	-0.303024
H383	H	0.670623	0.462770	-0.342839
H384	H	0.680613	0.397215	-0.239606
H385	H	0.526166	0.458643	-0.096560
H386	H	0.362001	0.556249	-0.003951
H387	H	1.037475	0.327214	-0.206148
H388	H	0.241949	0.558946	0.001203
H389	H	0.735467	0.399228	0.101838
C390	C	0.295846	0.999047	-0.083326
C391	C	0.363561	0.957375	-0.169510
C392	C	0.324883	0.949344	-0.213158
C393	C	0.218490	0.982985	-0.170622
C394	C	0.150769	1.024659	-0.084433
C395	C	0.189447	1.032690	-0.040786
H396	H	0.442325	0.932470	-0.201002
H397	H	0.375015	0.918494	-0.276960
H398	H	0.189858	0.977039	-0.202932
H399	H	0.072004	1.049564	-0.052941
H400	H	0.139314	1.063540	0.023017
H401	H	0.735485	0.281670	-0.101781
H402	H	0.242056	1.131957	0.454508
C403	C	0.735484	0.795228	-0.731060
C404	C	0.653419	0.848464	-0.737814
C405	C	0.653421	0.910191	-0.773449
C406	C	0.735489	0.918683	-0.802329
C407	C	0.817560	0.865445	-0.795576
C408	C	0.817557	0.803718	-0.759941
H409	H	0.592662	0.842180	-0.716434
H410	H	0.592666	0.949601	-0.778448
H411	H	0.735491	0.964377	-0.828708
H412	H	0.878317	0.871729	-0.816956
H413	H	0.878312	0.764308	-0.754942
H414	H	0.735482	-0.044438	0.101839
C415	C	0.735471	0.559551	-0.731060
C416	C	0.653402	0.581931	-0.737812
C417	C	0.653393	0.520211	-0.773448
C418	C	0.735453	0.436111	-0.802332
C419	C	0.817529	0.413726	-0.795581
C420	C	0.817538	0.475446	-0.759945
H421	H	0.592650	0.644191	-0.716429
H422	H	0.592634	0.536782	-0.778446
H423	H	0.735446	0.390422	-0.828712
H424	H	0.878280	0.351467	-0.816963
H425	H	0.878296	0.458876	-0.754947
C426	C	0.295792	1.165744	0.083329
C427	C	0.363469	1.189591	0.062627
C428	C	0.324743	1.268890	0.106277
C429	C	0.218341	1.324343	0.170630
C430	C	0.150658	1.300498	0.191336
C431	C	0.189383	1.221199	0.147685
H432	H	0.442240	1.148540	0.014986
H433	H	0.374848	1.286542	0.090949
H434	H	0.189674	1.383046	0.202942
H435	H	0.071887	1.341549	0.238976
H436	H	0.139279	1.203547	0.163014
H437	H	0.735495	0.399213	-0.101789
H438	H	0.735473	0.073114	0.101841
H439	H	0.735486	0.779196	-0.395696
H440	H	0.735473	0.575584	-0.604250
H441	H	0.735476	0.575591	-0.278140
H442	H	0.242067	1.131914	-0.000017
H443	H	0.242057	0.677437	0.454546
H444	H	0.305889	0.749416	0.467727
