data_functionalizedCrystal
_audit_creation_method	'MofGen! by Chris Wilmer'
_symmetry_space_group_name_H-M	'P1'
_symmetry_Int_Tables_number	1
_symmetry_cell_setting	triclinic
loop_
_symmetry_equiv_pos_as_xyz
  x,y,z
_cell_length_a	21.395364
_cell_length_b	12.759400
_cell_length_c	21.395063
_cell_angle_alpha	89.645732
_cell_angle_beta	89.932691
_cell_angle_gamma	90.008930
loop_
_atom_site_label
_atom_site_type_symbol
_atom_site_fract_x
_atom_site_fract_y
_atom_site_fract_z
Zn1	Zn	0.958200	-0.414965	-0.354298
Zn2	Zn	0.958057	-0.591677	-0.249527
Zn3	Zn	0.853337	-0.416000	-0.249531
Zn4	Zn	0.853417	-0.590590	-0.354271
O5	O	0.905753	-0.503308	-0.301907
O6	O	1.045859	-0.438429	-0.340409
O7	O	0.944072	-0.569261	-0.161847
O8	O	0.867274	-0.268841	-0.263441
O9	O	1.045754	-0.568258	-0.263435
O10	O	0.944317	-0.268081	-0.340413
O11	O	0.867135	-0.440192	-0.161850
O12	O	0.765670	-0.439137	-0.263416
O13	O	0.867410	-0.566405	-0.441956
O14	O	0.765728	-0.567408	-0.340368
O15	O	0.944394	-0.437374	-0.441975
O16	O	0.944149	-0.738554	-0.263409
O17	O	0.867270	-0.737755	-0.340364
C18	C	0.742965	-0.503268	-0.301889
C19	C	0.673324	-0.503276	-0.301897
C20	C	0.171582	-0.435864	-0.342062
C21	C	0.237017	-0.435856	-0.342061
C22	C	0.269685	-0.503340	-0.301921
C23	C	0.236913	-0.570856	-0.261789
C24	C	0.171479	-0.570869	-0.261795
C25	C	0.373281	-0.512040	-0.245452
C26	C	0.438714	-0.512019	-0.245446
C27	C	0.471506	-0.503305	-0.301904
C28	C	0.438857	-0.494590	-0.358370
C29	C	0.373423	-0.494603	-0.358376
C30	C	0.340638	-0.503334	-0.301911
C31	C	0.575224	-0.435790	-0.342036
C32	C	0.640660	-0.435790	-0.342037
C33	C	0.640554	-0.570784	-0.261759
C34	C	0.575119	-0.570790	-0.261764
C35	C	0.542458	-0.503288	-0.301901
C36	C	0.905720	-0.776276	-0.301897
C37	C	0.905763	-0.893052	-0.301914
C38	C	0.945859	-0.947438	-0.342026
C39	C	0.945888	-1.057162	-0.342041
C40	C	0.865724	-1.058104	-0.261827
C41	C	0.865692	-0.948382	-0.261815
C42	C	0.985930	-0.892108	-0.382124
C43	C	1.026030	-0.946495	-0.422239
C44	C	1.026059	-1.056219	-0.422254
C45	C	0.985989	-1.111556	-0.382155
C46	C	1.069176	-0.503349	-0.301925
C47	C	1.138817	-0.503367	-0.301932
C48	C	0.905927	-0.501653	-0.465336
C49	C	0.906001	-0.500948	-0.534979
C50	C	0.905803	-0.229275	-0.301931
C51	C	0.905824	-0.112498	-0.301941
C52	C	0.905615	-0.504881	-0.139114
C53	C	0.905662	-0.505290	-0.069471
C54	C	0.945466	-0.437353	-0.037276
C55	C	0.945512	-0.436825	0.028158
C56	C	0.905742	-0.504222	0.061394
C57	C	0.865936	-0.572172	0.029191
C58	C	0.865896	-0.572706	-0.036241
C59	C	0.849392	-0.512345	0.165218
C60	C	0.849431	-0.511804	0.230649
C61	C	0.905867	-0.502583	0.263209
C62	C	0.962264	-0.493880	0.230329
C63	C	0.962224	-0.494414	0.164897
C64	C	0.905782	-0.503652	0.132344
C65	C	0.945723	-0.434070	0.366354
C66	C	0.945770	-0.433549	0.431789
C67	C	0.866188	-0.568890	0.432821
C68	C	0.866147	-0.569417	0.367388
C69	C	0.905914	-0.502001	0.334158
H70	H	0.346843	-0.487509	-0.404353
H71	H	1.058651	-0.901433	-0.454890
H72	H	0.548441	-0.625754	-0.229083
H73	H	1.058706	-1.100497	-0.454922
H74	H	0.833041	-0.904100	-0.229153
H75	H	0.985913	-0.802766	-0.382115
H76	H	0.986008	-1.200901	-0.382178
H77	H	0.465555	-0.487488	-0.404344
H78	H	0.833100	-1.103168	-0.229180
C79	C	0.272849	-0.645084	-0.217632
N80	N	0.299916	-0.700996	-0.184372
C81	C	0.474622	-0.521602	-0.183331
N82	N	0.501666	-0.528821	-0.136545
C83	C	0.989216	-0.363202	-0.073824
N84	N	1.022169	-0.307352	-0.101354
H85	H	0.667152	-0.625740	-0.229081
C86	C	0.787393	-0.521369	0.266810
N87	N	0.740663	-0.528573	0.294045
H88	H	0.346587	-0.519141	-0.199474
C89	C	0.989298	-0.362082	0.063580
N90	N	1.022276	-0.305782	0.090257
C91	C	1.024261	-0.484855	0.128732
N92	N	1.070989	-0.477661	0.101493
H93	H	1.008219	-0.486368	0.256838
C94	C	0.989474	-0.359922	0.329800
N95	N	1.022428	-0.304076	0.302269
H96	H	0.144802	-0.625840	-0.229116
C97	C	0.989559	-0.358807	0.467203
N98	N	1.022539	-0.302507	0.493878
C99	C	0.135658	-0.361618	-0.386220
N100	N	0.108600	-0.305697	-0.419482
C101	C	0.822442	-0.643030	0.469377
N102	N	0.789492	-0.698876	0.496914
H103	H	0.833732	-0.624734	0.341174
C104	C	0.787305	-0.522488	0.129409
N105	N	0.740542	-0.530128	0.102438
C106	C	0.822188	-0.646307	0.065752
N107	N	0.789236	-0.702148	0.093290
C108	C	0.822102	-0.647438	-0.071657
N109	N	0.789114	-0.703724	-0.098333
H110	H	0.263700	-0.380882	-0.374739
H111	H	0.548629	-0.380826	-0.374719
H112	H	0.667336	-0.380824	-0.374719
