data_functionalizedCrystal
_audit_creation_method	'MofGen! by Chris Wilmer'
_symmetry_space_group_name_H-M	'P1'
_symmetry_Int_Tables_number	1
_symmetry_cell_setting	triclinic
loop_
_symmetry_equiv_pos_as_xyz
  x,y,z
_cell_length_a	10.489716
_cell_length_b	10.489763
_cell_length_c	9.130313
_cell_angle_alpha	89.993972
_cell_angle_beta	89.999885
_cell_angle_gamma	95.461252
loop_
_atom_site_label
_atom_site_type_symbol
_atom_site_fract_x
_atom_site_fract_y
_atom_site_fract_z
O1	O	1.694079	-0.179811	0.121805
O2	O	1.322881	-0.196737	0.121812
O3	O	1.516911	-0.002677	0.121781
O4	O	1.500048	-0.373871	0.121836
O5	O	1.516909	-0.002683	-0.121818
O6	O	1.322878	-0.196742	-0.121787
O7	O	1.694077	-0.179817	-0.121794
Cu8	Cu	1.508477	-0.188280	-0.144033
Cu9	Cu	1.508480	-0.188274	0.144051
O10	O	1.500046	-0.373876	-0.121763
C11	C	1.275347	-0.195468	0.000013
C12	C	1.133716	-0.191663	0.000015
C13	C	1.036052	-0.310666	0.000036
C14	C	0.958699	-0.247785	-0.120087
C15	C	0.958708	-0.247752	0.120082
C16	C	1.058229	-0.128832	-0.120207
C17	C	1.058244	-0.128816	0.120070
C18	C	0.980940	-0.065847	-0.000082
C19	C	1.515631	0.044851	-0.000022
C20	C	1.511802	0.186479	-0.000034
C21	C	1.388330	0.254607	-0.000028
C22	C	1.446646	0.346732	-0.120145
C23	C	1.446678	0.346711	0.120024
C24	C	1.570168	0.276738	-0.120250
C25	C	1.570183	0.276708	0.120027
C26	C	1.628588	0.368805	-0.000119
C27	C	1.741610	-0.181086	0.000008
C28	C	1.883241	-0.184890	0.000016
C29	C	1.501307	0.578593	0.000018
C30	C	1.505075	0.436958	-0.000036
N31	N	1.508485	-0.188283	-0.346656
C32	C	1.594424	-0.102383	-0.423321
C33	C	1.594420	-0.102368	-0.576658
C34	C	1.422535	-0.274164	-0.576650
C35	C	1.422533	-0.274172	-0.423316
C36	C	1.680375	-0.016495	-0.346661
C37	C	1.766322	0.069411	-0.423327
C38	C	1.766319	0.069427	-0.576664
C39	C	1.680368	-0.016464	-0.653335
N40	N	1.508483	-0.188260	0.346674
H41	H	1.101540	-0.078626	-0.221862
H42	H	0.915230	-0.298010	0.221622
H43	H	1.286821	0.204948	-0.000143
C44	C	0.899950	-0.315650	-0.257253
C45	C	0.754340	-0.323407	-0.283043
C46	C	0.695594	-0.391282	-0.420202
C47	C	0.782459	-0.451400	-0.531570
C48	C	0.928077	-0.443645	-0.505783
C49	C	0.986823	-0.375770	-0.368625
H50	H	0.690030	-0.278902	-0.200599
H51	H	0.587797	-0.397022	-0.439290
H52	H	0.738971	-0.501645	-0.633103
H53	H	0.992387	-0.488150	-0.588228
H54	H	1.094620	-0.370030	-0.349536
C55	C	1.376073	0.388631	-0.257321
C56	C	1.235305	0.337981	-0.283701
C57	C	1.164723	0.379875	-0.420869
C58	C	1.234909	0.472420	-0.531658
C59	C	1.375684	0.523076	-0.505281
C60	C	1.446266	0.481182	-0.368113
H61	H	1.183342	0.269469	-0.201686
H62	H	1.060511	0.342376	-0.440394
H63	H	1.182660	0.503433	-0.633198
H64	H	1.427647	0.591589	-0.587296
H65	H	1.550478	0.518681	-0.348588
H66	H	1.622383	0.245670	0.221577
H67	H	1.060729	-0.414181	-0.000061
H68	H	1.394419	0.377673	0.221572
H69	H	1.836292	0.139383	-0.639084
C70	C	0.947909	0.074091	-0.000109
C71	C	0.994533	0.164500	0.125766
C72	C	0.961499	0.304436	0.125770
C73	C	0.881841	0.353962	-0.000101
C74	C	0.835212	0.263552	-0.125986
C75	C	0.868246	0.123616	-0.125990
H76	H	1.053506	0.127839	0.218952
H77	H	0.996017	0.371364	0.218959
H78	H	0.857386	0.457551	-0.000098
H79	H	0.776240	0.300213	-0.219172
H80	H	0.833728	0.056689	-0.219179
H81	H	1.101736	-0.078616	0.221613
H82	H	1.622366	0.245908	-0.221903
H83	H	1.730188	0.418237	-0.000192
H84	H	1.680389	-0.016502	-0.221806
H85	H	1.836294	0.139348	-0.360893
H86	H	1.680364	-0.016436	-0.778192
H87	H	1.352558	-0.344094	-0.639085
H88	H	1.352552	-0.344119	-0.360894
