data_functionalizedCrystal
_audit_creation_method	'MofGen! by Chris Wilmer'
_symmetry_space_group_name_H-M	'P1'
_symmetry_Int_Tables_number	1
_symmetry_cell_setting	triclinic
loop_
_symmetry_equiv_pos_as_xyz
  x,y,z
_cell_length_a	19.077105
_cell_length_b	19.805404
_cell_length_c	19.805399
_cell_angle_alpha	89.970203
_cell_angle_beta	92.315688
_cell_angle_gamma	92.274441
loop_
_atom_site_label
_atom_site_type_symbol
_atom_site_fract_x
_atom_site_fract_y
_atom_site_fract_z
Zn1	Zn	1.075950	0.311117	0.424210
Zn2	Zn	1.409283	0.644451	0.757543
Zn3	Zn	1.742617	0.977784	1.090876
Zn4	Zn	1.075855	0.424302	0.311013
Zn5	Zn	1.409189	0.757635	0.644347
Zn6	Zn	1.742522	1.090969	0.977680
Zn7	Zn	0.958255	0.306581	0.306495
Zn8	Zn	1.291588	0.639915	0.639828
Zn9	Zn	1.624921	0.973248	0.973161
Zn10	Zn	0.958211	0.419713	0.419622
Zn11	Zn	1.291544	0.753047	0.752956
Zn12	Zn	1.624878	1.086380	1.086289
O13	O	1.017068	0.365429	0.365335
O14	O	1.350401	0.698762	0.698668
O15	O	1.683734	1.032095	1.032002
O16	O	1.174428	0.329950	0.413005
O17	O	1.507761	0.663284	0.746338
O18	O	1.841095	0.996617	1.079671
O19	O	1.060234	0.408708	0.215696
O20	O	1.393568	0.742042	0.549030
O21	O	1.726901	1.075375	0.882363
O22	O	0.973925	0.212469	0.322138
O23	O	1.307259	0.545802	0.655472
O24	O	1.640592	0.879135	0.988805
O25	O	1.174358	0.413107	0.329840
O26	O	1.507692	0.746440	0.663173
O27	O	1.841025	1.079773	0.996507
O28	O	1.060395	0.215801	0.408623
O29	O	1.393729	0.549135	0.741956
O30	O	1.727062	0.882468	1.075290
O31	O	0.973834	0.322219	0.212377
O32	O	1.307167	0.655553	0.545710
O33	O	1.640500	0.988886	0.879043
O34	O	0.859758	0.317770	0.317690
O35	O	1.193092	0.651103	0.651024
O36	O	1.526425	0.984436	0.984357
O37	O	0.973850	0.405286	0.514948
O38	O	1.307184	0.738619	0.848282
O39	O	1.640517	1.071952	1.181615
O40	O	0.859726	0.400887	0.400805
O41	O	1.193060	0.734221	0.734138
O42	O	1.526393	1.067554	1.067472
O43	O	1.060353	0.325501	0.518319
O44	O	1.393686	0.658834	0.851652
O45	O	1.727020	0.992167	1.184985
O46	O	1.060192	0.518408	0.325392
O47	O	1.393525	0.851741	0.658725
O48	O	1.726858	1.185074	0.992059
O49	O	0.973759	0.515036	0.405187
O50	O	1.307092	0.848370	0.738520
O51	O	1.640425	1.181703	1.071853
C52	C	0.834205	0.358339	0.358260
C53	C	1.167538	0.691672	0.691593
C54	C	1.500871	1.025006	1.024927
C55	C	0.755975	0.355322	0.355249
C56	C	1.089309	0.688656	0.688583
C57	C	1.422642	1.021989	1.021916
C58	C	1.016979	0.541281	0.365297
C59	C	1.350313	0.874615	0.698631
C60	C	1.683646	1.207948	1.031964
C61	C	1.017006	0.616514	0.365306
C62	C	1.350339	0.949847	0.698640
C63	C	1.683672	1.283181	1.031973
C64	C	1.017107	0.365387	0.541879
C65	C	1.350441	0.698721	0.875213
C66	C	1.683774	1.032054	1.208546
C67	C	1.017124	0.365370	0.617112
C68	C	1.350457	0.698703	0.950445
C69	C	1.683791	1.032037	1.283779
C70	C	0.719224	0.397245	0.397040
C71	C	1.052558	0.730578	0.730373
C72	C	1.385891	1.063912	1.063707
C73	C	0.645719	0.394402	0.394214
C74	C	0.979053	0.727735	0.727548
C75	C	1.312386	1.061068	1.060881
C76	C	0.608967	0.349638	0.349594
C77	C	0.942300	0.682972	0.682927
C78	C	1.275633	1.016305	1.016261
C79	C	0.645723	0.307711	0.307802
C80	C	0.979056	0.641044	0.641135
C81	C	1.312389	0.974378	0.974468
C82	C	0.719226	0.310551	0.310631
C83	C	1.052560	0.643885	0.643964
C84	C	1.385893	0.977218	0.977298
C85	C	0.389134	0.336492	0.336502
C86	C	0.722467	0.669826	0.669835
C87	C	1.055801	1.003159	1.003169
C88	C	0.315625	0.333657	0.333674
C89	C	0.648959	0.666990	0.667008
C90	C	0.982292	1.000323	1.000341
C91	C	0.315627	0.420347	0.420088
C92	C	0.648960	0.753680	0.753422
C93	C	0.982294	1.087014	1.086755
C94	C	0.389132	0.423186	0.422911
C95	C	0.722465	0.756520	0.756244
C96	C	1.055799	1.089853	1.089578
C97	C	0.425882	0.381256	0.381121
C98	C	0.759215	0.714590	0.714454
C99	C	1.092548	1.047923	1.047788
N100	N	0.533833	0.346732	0.346703
N101	N	0.867166	0.680066	0.680037
N102	N	1.200499	1.013399	1.013370
N103	N	0.501014	0.384159	0.384016
N104	N	0.834348	0.717493	0.717349
N105	N	1.167681	1.050826	1.050682
C106	C	1.200645	0.372546	0.372438
C107	C	1.533978	0.705880	0.705771
C108	C	1.867311	1.039213	1.039105
C109	C	1.278874	0.375580	0.375465
C110	C	1.612208	0.708913	0.708798
C111	C	1.945541	1.042246	1.042132
C112	C	1.017176	0.188890	0.365388
C113	C	1.350509	0.522223	0.698722
C114	C	1.683843	0.855557	1.032055
C115	C	1.017222	0.113660	0.365411
C116	C	1.350555	0.446993	0.698744
C117	C	1.683889	0.780326	1.032078
C118	C	1.062188	1.079988	0.410466
C119	C	1.395522	1.413321	0.743800
C120	C	1.728855	1.746654	1.077133
C121	C	1.062161	1.009298	0.410450
C122	C	1.395494	1.342631	0.743783
C123	C	1.728827	1.675965	1.077116
C124	C	1.017162	0.972282	0.365381
C125	C	1.350496	1.305615	0.698714
C126	C	1.683829	1.638949	1.032047
C127	C	0.972194	1.005959	0.320320
C128	C	1.305527	1.339292	0.653654
C129	C	1.638861	1.672626	0.986987
C130	C	0.972226	1.076647	0.320334
C131	C	1.305559	1.409981	0.653668
C132	C	1.638892	1.743314	0.987001
C133	C	0.972065	0.720881	0.320263
C134	C	1.305398	1.054214	0.653596
C135	C	1.638732	1.387547	0.986929
C136	C	0.972035	0.650187	0.320254
C137	C	1.305369	0.983521	0.653587
C138	C	1.638702	1.316854	0.986920
C139	C	1.062000	0.653531	0.410378
C140	C	1.395333	0.986865	0.743712
C141	C	1.728667	1.320198	1.077045
C142	C	1.062032	0.724220	0.410392
C143	C	1.395365	1.057553	0.743726
C144	C	1.728698	1.390887	1.077059
C145	C	1.017066	0.757891	0.365330
C146	C	1.350400	1.091224	0.698663
C147	C	1.683733	1.424558	1.031997
C148	C	1.017098	0.834540	0.365348
C149	C	1.350431	1.167874	0.698681
C150	C	1.683765	1.501207	1.032014
C151	C	1.017127	0.895633	0.365366
C152	C	1.350460	1.228967	0.698699
C153	C	1.683793	1.562300	1.032032
C154	C	1.017069	0.365422	0.189479
C155	C	1.350402	0.698756	0.522812
C156	C	1.683736	1.032089	0.856146
C157	C	1.017189	0.365254	0.114252
C158	C	1.350522	0.698588	0.447585
C159	C	1.683855	1.031921	0.780919
C160	C	1.062167	0.323824	0.654212
C161	C	1.395500	0.657157	0.987545
C162	C	1.728834	0.990490	1.320879
C163	C	1.062174	0.323804	0.724901
C164	C	1.395507	0.657138	1.058234
C165	C	1.728841	0.990471	1.391568
C166	C	1.017142	0.365335	0.758488
C167	C	1.350475	0.698669	1.091822
C168	C	1.683808	1.032002	1.425155
C169	C	0.972094	0.406883	0.721383
C170	C	1.305427	0.740216	1.054716
C171	C	1.638760	1.073550	1.388050
C172	C	0.972084	0.406898	0.650695
C173	C	1.305417	0.740232	0.984029
C174	C	1.638750	1.073565	1.317362
C175	C	0.972133	0.406822	1.006458
C176	C	1.305467	0.740155	1.339791
C177	C	1.638800	1.073488	1.673125
C178	C	0.972149	0.406805	1.077151
C179	C	1.305482	0.740138	1.410484
C180	C	1.638815	1.073471	1.743817
C181	C	1.062224	0.323728	1.080663
C182	C	1.395557	0.657061	1.413997
C183	C	1.728891	0.990394	1.747330
C184	C	1.062214	0.323743	1.009976
C185	C	1.395547	0.657076	1.343309
C186	C	1.728881	0.990410	1.676643
C187	C	1.017164	0.365288	0.972877
C188	C	1.350497	0.698621	1.306210
C189	C	1.683830	1.031954	1.639543
C190	C	1.017156	0.365307	0.896228
C191	C	1.350489	0.698641	1.229561
C192	C	1.683822	1.031974	1.562895
C193	C	1.017153	0.365320	0.835136
C194	C	1.350486	0.698653	1.168469
C195	C	1.683820	1.031986	1.501803
H196	H	0.749143	0.433699	0.433373
H197	H	1.082477	0.767032	0.766706
H198	H	1.415810	1.100365	1.100039
H199	H	1.098854	0.289975	0.755105
H200	H	1.432188	0.623308	1.088438
H201	H	1.765521	0.956642	1.421772
H202	H	1.098616	0.626109	0.447069
H203	H	1.431949	0.959443	0.780402
H204	H	1.765282	1.292776	1.113735
Cl205	Cl	0.915531	0.459018	1.119374
Cl206	Cl	1.248864	0.792351	1.452707
Cl207	Cl	1.582198	1.125685	1.786041
H208	H	0.419047	0.302355	0.302468
H209	H	0.752380	0.635689	0.635802
H210	H	1.085713	0.969022	0.969135
Cl211	Cl	0.915499	0.459050	0.959828
Cl212	Cl	1.248833	0.792383	1.293162
Cl213	Cl	1.582166	1.125717	1.626495
Cl214	Cl	1.118857	0.271496	1.127307
Cl215	Cl	1.452190	0.604829	1.460640
Cl216	Cl	1.785524	0.938162	1.793973
Cl217	Cl	1.118831	0.271533	0.967756
Cl218	Cl	1.452164	0.604866	1.301089
Cl219	Cl	1.785497	0.938199	1.634422
H220	H	0.935558	0.975816	0.283621
H221	H	1.268891	1.309150	0.616954
H222	H	1.602225	1.642483	0.950287
Cl223	Cl	0.915532	0.763201	0.263617
Cl224	Cl	1.248866	1.096534	0.596950
Cl225	Cl	1.582199	1.429867	0.930284
Cl226	Cl	0.915478	0.459091	0.763607
Cl227	Cl	1.248812	0.792425	1.096941
Cl228	Cl	1.582145	1.125758	1.430274
Cl229	Cl	0.599519	0.251432	0.251712
Cl230	Cl	0.932852	0.584765	0.585045
Cl231	Cl	1.266186	0.918099	0.918378
Cl232	Cl	0.765428	0.257844	0.258093
Cl233	Cl	1.098761	0.591178	0.591427
Cl234	Cl	1.432094	0.924511	0.924760
H235	H	1.098824	1.110121	0.447174
H236	H	1.432158	1.443454	0.780507
H237	H	1.765491	1.776788	1.113840
H238	H	0.615800	0.428541	0.428244
H239	H	0.949133	0.761874	0.761578
H240	H	1.282467	1.095207	1.094911
Cl241	Cl	0.915697	1.118978	0.263688
Cl242	Cl	1.249030	1.452312	0.597021
Cl243	Cl	1.582364	1.785645	0.930355
Cl244	Cl	0.915454	0.459128	0.604055
Cl245	Cl	1.248787	0.792461	0.937388
Cl246	Cl	1.582120	1.125795	1.270722
H247	H	1.098776	0.981883	0.447137
H248	H	1.432109	1.315216	0.780470
H249	H	1.765443	1.648549	1.113803
H250	H	0.419051	0.459639	0.459244
H251	H	0.752385	0.792972	0.792577
H252	H	1.085718	1.126306	1.125911
H253	H	0.285703	0.297197	0.297343
H254	H	0.619036	0.630530	0.630676
H255	H	0.952370	0.963864	0.964010
Cl256	Cl	1.118598	0.770751	0.467057
Cl257	Cl	1.451932	1.104084	0.800391
Cl258	Cl	1.785265	1.437417	1.133724
Cl259	Cl	1.118786	0.271614	0.611995
Cl260	Cl	1.452120	0.604947	0.945328
Cl261	Cl	1.785453	0.938281	1.278662
H262	H	0.935391	0.620050	0.283550
H263	H	1.268724	0.953383	0.616884
H264	H	1.602058	1.286716	0.950217
Cl265	Cl	0.269424	0.473056	0.472620
Cl266	Cl	0.602757	0.806390	0.805953
Cl267	Cl	0.936090	1.139723	1.139286
