data_functionalizedCrystal
_audit_creation_method	'MofGen! by Chris Wilmer'
_symmetry_space_group_name_H-M	'P1'
_symmetry_Int_Tables_number	1
_symmetry_cell_setting	triclinic
loop_
_symmetry_equiv_pos_as_xyz
  x,y,z
_cell_length_a	10.654559
_cell_length_b	27.731996
_cell_length_c	9.730223
_cell_angle_alpha	89.992740
_cell_angle_beta	89.999563
_cell_angle_gamma	83.555036
loop_
_atom_site_label
_atom_site_type_symbol
_atom_site_fract_x
_atom_site_fract_y
_atom_site_fract_z
O1	O	1.664940	0.067907	-0.114317
O2	O	1.299188	0.074370	-0.114321
O3	O	1.493457	0.000811	-0.114289
O4	O	1.470670	0.141466	-0.114349
O5	O	1.493455	0.000813	0.114291
O6	O	1.299186	0.074372	0.114259
O7	O	1.664937	0.067908	0.114262
Zn8	Zn	1.482061	0.071140	0.150553
Zn9	Zn	1.482064	0.071138	-0.150611
O10	O	1.470668	0.141467	0.114231
C11	C	1.252409	0.073895	-0.000030
C12	C	1.113027	0.072473	-0.000030
C13	C	1.063386	0.027825	-0.000008
C14	C	0.932420	0.026491	-0.000017
C15	C	0.900747	0.114457	-0.000066
C16	C	1.031711	0.115790	-0.000067
C17	C	1.081671	-0.022961	0.000026
C18	C	0.950705	-0.024295	0.000017
C19	C	1.492988	-0.017199	0.000005
C20	C	1.491578	-0.070864	0.000019
C21	C	1.482709	-0.403636	-0.124647
C22	C	1.477355	-0.605328	-0.124671
O23	O	1.476609	-0.631404	-0.230638
N24	N	1.476688	-0.630548	-0.000073
C25	C	1.477352	-0.605342	0.124540
O26	O	1.476650	-0.631421	0.230517
C27	C	1.482697	-0.403651	0.124562
C28	C	1.483376	-0.378434	-0.000044
C29	C	1.483386	-0.378419	-0.249242
C30	C	1.484732	-0.328000	-0.249235
C31	C	1.485399	-0.302797	-0.124632
C32	C	1.484722	-0.328014	-0.000036
C33	C	1.483353	-0.378445	0.249174
C34	C	1.484686	-0.328019	0.249168
C35	C	1.485365	-0.302802	0.124562
C36	C	1.486735	-0.252392	0.124574
N37	N	1.487401	-0.227172	-0.000024
C38	C	1.486733	-0.252375	-0.124627
C39	C	1.474549	-0.711233	0.124519
C40	C	1.473215	-0.761656	0.124513
C41	C	1.473215	-0.761638	-0.124698
C42	C	1.474558	-0.711215	-0.124691
C43	C	1.475215	-0.686013	-0.000079
C44	C	1.489560	-0.146490	-0.124602
C45	C	1.490910	-0.096066	-0.124584
C46	C	1.490904	-0.096088	0.124626
C47	C	1.489560	-0.146508	0.124609
C48	C	1.488884	-0.171707	-0.000016
O49	O	1.487467	-0.226285	0.230486
O50	O	1.487408	-0.226286	-0.230588
C51	C	1.481363	-0.454056	-0.124654
C52	C	1.480686	-0.479273	-0.000058
C53	C	1.481354	-0.454071	0.124545
C54	C	1.479352	-0.529696	-0.000064
C55	C	1.478684	-0.554898	-0.124667
C56	C	1.479350	-0.529678	-0.249264
C57	C	1.480696	-0.479258	-0.249257
C58	C	1.480687	-0.479291	0.249143
C59	C	1.479343	-0.529711	0.249125
C60	C	1.478676	-0.554913	0.124522
C61	C	1.711716	0.068383	-0.000031
C62	C	1.851098	0.069806	-0.000040
C63	C	1.471137	0.159477	-0.000067
C64	C	1.472547	0.213142	-0.000090
N65	N	1.482068	0.071142	0.356089
N66	N	1.482067	0.071133	-0.356147
C67	C	1.568112	0.038581	0.428029
C68	C	1.568109	0.038575	0.571912
C69	C	1.396014	0.103695	0.571903
C70	C	1.396012	0.103698	0.428022
C71	C	1.667474	0.000986	0.428036
C72	C	1.667471	0.000980	0.571919
H73	H	1.124233	-0.042101	-0.095620
H74	H	1.758157	0.012759	0.383405
Br75	Br	1.472304	-0.795851	-0.293801
Br76	Br	0.892453	-0.051252	-0.164470
H77	H	0.834524	0.149724	-0.000096
H78	H	1.647611	-0.036165	0.388998
H79	H	1.072122	0.152146	-0.000108
H80	H	1.638451	-0.034128	0.616549
H81	H	1.127964	-0.038303	0.098730
Br82	Br	1.491839	-0.061846	-0.293703
Br83	Br	0.903151	-0.057401	0.159449
H84	H	1.489003	-0.167001	-0.226084
Br85	Br	1.485644	-0.293784	-0.418352
Br86	Br	1.279225	0.147876	0.669533
Br87	Br	1.279215	0.147880	0.330386
Br88	Br	1.482479	-0.412613	-0.418370
Br89	Br	1.827739	0.014778	0.637014
Br90	Br	1.488668	-0.180733	0.293718
Br91	Br	1.475479	-0.676997	-0.293804
H92	H	1.478800	-0.550239	0.350602
H93	H	1.475090	-0.690718	0.225998
Br94	Br	1.472323	-0.795874	0.293628
Br95	Br	1.485575	-0.293819	0.418294
Br96	Br	1.491813	-0.061875	0.293723
Br97	Br	1.482426	-0.412656	0.418293
H98	H	1.481248	-0.458731	-0.350724
H99	H	1.481233	-0.458776	0.350612
Br100	Br	1.478454	-0.563892	-0.418367
