data_functionalizedCrystal
_audit_creation_method	'MofGen! by Chris Wilmer'
_symmetry_space_group_name_H-M	'P1'
_symmetry_Int_Tables_number	1
_symmetry_cell_setting	triclinic
loop_
_symmetry_equiv_pos_as_xyz
  x,y,z
_cell_length_a	13.897448
_cell_length_b	13.897449
_cell_length_c	12.759393
_cell_angle_alpha	89.980586
_cell_angle_beta	89.966449
_cell_angle_gamma	90.018972
loop_
_atom_site_label
_atom_site_type_symbol
_atom_site_fract_x
_atom_site_fract_y
_atom_site_fract_z
Zn1	Zn	-0.383923	1.474690	-0.594025
Zn2	Zn	0.116077	1.974690	-0.094025
Zn3	Zn	-0.545253	1.474588	-0.418340
Zn4	Zn	-0.045253	1.974588	0.081660
Zn5	Zn	-0.383977	1.313383	-0.418359
Zn6	Zn	0.116023	1.813383	0.081641
Zn7	Zn	-0.545181	1.313361	-0.593975
Zn8	Zn	-0.045181	1.813361	-0.093975
O9	O	-0.464584	1.394005	-0.506175
O10	O	0.035416	1.894005	-0.006175
O11	O	-0.405331	1.609658	-0.570734
O12	O	0.094669	2.109658	-0.070734
O13	O	-0.523912	1.453170	-0.271321
O14	O	-0.023912	1.953170	0.228679
O15	O	-0.248989	1.334833	-0.441690
O16	O	0.251011	1.834833	0.058310
O17	O	-0.523860	1.609583	-0.441658
O18	O	-0.023860	2.109583	0.058342
O19	O	-0.248949	1.453344	-0.570752
O20	O	0.251051	1.953344	-0.070752
O21	O	-0.405424	1.334733	-0.271335
O22	O	0.094576	1.834733	0.228665
O23	O	-0.405354	1.178398	-0.441641
O24	O	0.094646	1.678398	0.058359
O25	O	-0.523737	1.334795	-0.741003
O26	O	-0.023737	1.834795	-0.241003
O27	O	-0.523790	1.178382	-0.570666
O28	O	-0.023790	1.678382	-0.070666
O29	O	-0.405262	1.453323	-0.741040
O30	O	0.094738	1.953323	-0.241040
O31	O	-0.680225	1.453149	-0.441610
O32	O	-0.180225	1.953149	0.058390
O33	O	-0.680173	1.334696	-0.570648
O34	O	-0.180173	1.834696	-0.070648
C35	C	-0.464571	1.143391	-0.506151
C36	C	0.035429	1.643391	-0.006151
C37	C	-0.464589	1.036177	-0.506166
C38	C	0.035411	1.536177	-0.006166
C39	C	-0.464592	0.839882	-0.506193
C40	C	0.035408	1.339882	-0.006193
C41	C	-0.464587	0.949115	-0.506175
C42	C	0.035413	1.449115	-0.006175
C43	C	-0.715198	1.393935	-0.506144
C44	C	-0.215198	1.893935	-0.006144
C45	C	-0.822412	1.393993	-0.506167
C46	C	-0.322412	1.893993	-0.006167
C47	C	-1.018707	1.394094	-0.506232
C48	C	-0.518707	1.894094	-0.006232
C49	C	-0.909475	1.394035	-0.506199
C50	C	-0.409475	1.894035	-0.006199
C51	C	-0.212991	1.394102	-0.506228
C52	C	0.287009	1.894102	-0.006228
C53	C	-0.105777	1.394144	-0.506251
C54	C	0.394223	1.894144	-0.006251
C55	C	-0.464486	1.394068	-0.780208
C56	C	0.035514	1.894068	-0.280208
C57	C	-0.464444	1.394095	-0.896985
C58	C	0.035556	1.894095	-0.396985
C59	C	-0.464597	1.645598	-0.506199
C60	C	0.035403	2.145598	-0.006199
C61	C	-0.464603	1.752812	-0.506210
C62	C	0.035397	2.252812	-0.006210
C63	C	-0.402735	1.332451	-0.951860
C64	C	0.097265	1.832451	-0.451860
C65	C	-0.402707	1.332480	-1.061584
C66	C	0.097293	1.832480	-0.561584
C67	C	-0.526097	1.455805	-1.061548
C68	C	-0.026097	1.955805	-0.561548
C69	C	-0.526130	1.455770	-0.951826
C70	C	-0.026130	1.955770	-0.451826
C71	C	-0.341049	1.270775	-0.897019
C72	C	0.158951	1.770775	-0.397019
C73	C	-0.279335	1.209127	-0.951894
C74	C	0.220665	1.709127	-0.451894
C75	C	-0.279306	1.209156	-1.061618
C76	C	0.220694	1.709156	-0.561618
C77	C	-0.340991	1.270834	-1.116467
C78	C	0.159009	1.770834	-0.616467
C79	C	-0.464612	1.393999	-0.233207
C80	C	0.035388	1.893999	0.266793
C81	C	-0.464382	1.394159	-0.116431
C82	C	0.035618	1.894159	0.383569
H83	H	-0.341063	1.270746	-0.807676
H84	H	0.158937	1.770746	-0.307676
H85	H	-0.229118	1.158907	-0.907229
H86	H	0.270882	1.658907	-0.407229
H87	H	-0.576366	1.505979	-0.907146
H88	H	-0.076366	2.005979	-0.407146
O89	O	-0.592619	1.522325	-1.120712
O90	O	-0.092619	2.022325	-0.620712
H91	H	-0.668329	1.505735	-1.099642
H92	H	-0.168329	2.005735	-0.599642
H93	H	-0.229062	1.158954	-1.106295
H94	H	0.270938	1.658954	-0.606295
H95	H	-0.340965	1.270850	-1.205812
H96	H	0.159035	1.770850	-0.705812
