data_functionalizedCrystal
_audit_creation_method	'MofGen! by Chris Wilmer'
_symmetry_space_group_name_H-M	'P1'
_symmetry_Int_Tables_number	1
_symmetry_cell_setting	triclinic
loop_
_symmetry_equiv_pos_as_xyz
  x,y,z
_cell_length_a	16.992694
_cell_length_b	15.455313
_cell_length_c	16.974813
_cell_angle_alpha	89.012317
_cell_angle_beta	92.975366
_cell_angle_gamma	92.857794
loop_
_atom_site_label
_atom_site_type_symbol
_atom_site_fract_x
_atom_site_fract_y
_atom_site_fract_z
O1	O	-1.044194	-0.083524	0.163896
O2	O	-0.815906	-0.083421	0.162062
O3	O	-0.936031	-0.075442	0.048638
O4	O	-0.924070	-0.091503	0.277319
O5	O	-0.929162	0.068366	0.055096
O6	O	-0.809037	0.060387	0.168519
O7	O	-1.037325	0.060284	0.170354
Cu8	Cu	-0.922554	0.073466	0.170026
Cu9	Cu	-0.930678	-0.096603	0.162389
O10	O	-0.917200	0.052304	0.283777
C11	C	-0.783254	-0.011355	0.162932
C12	C	-0.696194	-0.010870	0.155894
C13	C	-0.932014	-0.001475	0.022471
C14	C	-0.930269	0.004671	-0.065122
C15	C	-1.069978	-0.011785	0.169484
C16	C	-1.157038	-0.012274	0.176521
N17	N	-0.916846	0.193084	0.175397
C18	C	-0.646108	-0.015639	0.223795
C19	C	-0.564306	-0.015162	0.217179
C20	C	-0.532592	-0.009923	0.142660
C21	C	-0.582684	-0.005152	0.074753
C22	C	-0.664485	-0.005622	0.081371
C23	C	-0.288931	-0.007974	0.115232
C24	C	-0.207124	-0.007506	0.108620
C25	C	-0.188751	-0.017515	0.251046
C26	C	-0.270554	-0.017990	0.257657
C27	C	-0.320639	-0.013214	0.189751
N28	N	-0.448977	-0.009439	0.135895
N29	N	-0.404252	-0.013693	0.196517
N30	N	-0.936392	-0.216221	0.157012
C31	C	-0.967897	0.241866	0.127231
C32	C	-0.963587	0.332388	0.131301
C33	C	-0.908230	0.374125	0.183541
C34	C	-0.857173	0.325336	0.231709
C35	C	-0.861480	0.234816	0.227635
C36	C	-0.889642	0.644471	0.201106
C37	C	-0.885341	0.734997	0.205178
C38	C	-0.991754	0.742043	0.104768
C39	C	-0.996059	0.651521	0.100702
C40	C	-0.945000	0.602740	0.148867
N41	N	-0.903825	0.466652	0.187704
N42	N	-0.949401	0.510214	0.144700
C43	C	-0.933195	-0.070831	-0.109788
C44	C	-0.931550	-0.065054	-0.192090
C45	C	-0.926984	0.016226	-0.229724
C46	C	-0.924055	0.091734	-0.185052
C47	C	-0.925695	0.085955	-0.102751
C48	C	-0.921674	0.041914	-0.475490
C49	C	-0.920037	0.047686	-0.557797
C50	C	-0.927530	-0.109102	-0.564829
C51	C	-0.929174	-0.114873	-0.482527
C52	C	-0.926241	-0.039366	-0.437861
N53	N	-0.925305	0.022134	-0.313850
N54	N	-0.927914	-0.045274	-0.353737
C55	C	-0.921218	-0.021664	0.309944
C56	C	-0.922963	-0.027816	0.397537
H57	H	-0.671922	-0.019906	0.284476
C58	C	-0.922476	0.169004	-0.053614
H59	H	-0.924097	0.153923	0.000791
H60	H	-0.966354	0.202391	-0.068784
H61	H	-0.874972	0.201931	-0.062527
H62	H	-1.033324	0.781768	0.065554
C63	C	-0.305433	-0.023740	0.339628
H64	H	-0.263886	-0.026503	0.379122
H65	H	-0.339352	-0.074278	0.342922
H66	H	-0.334569	0.026027	0.347416
C67	C	-0.547805	0.000610	-0.007218
H68	H	-0.589352	0.003390	-0.046709
H69	H	-0.518666	-0.049148	-0.015013
H70	H	-0.513888	0.051156	-0.010506
C71	C	-0.805327	0.181155	0.280621
H72	H	-0.771746	0.218975	0.312323
H73	H	-0.774301	0.147988	0.248605
H74	H	-0.835293	0.143406	0.313637
H75	H	-0.523528	-0.019046	0.272471
C76	C	-0.133656	-0.022757	0.325736
H77	H	-0.080396	-0.021719	0.311126
H78	H	-0.145674	-0.075036	0.353831
H79	H	-0.140901	0.025269	0.358328
H80	H	-0.919301	0.103397	-0.439134
C81	C	-0.719580	-0.000386	0.006679
H82	H	-0.688979	0.002792	-0.038650
H83	H	-0.749487	0.049786	0.008550
H84	H	-0.754258	-0.050518	0.004050
C85	C	-1.028789	0.195963	0.069765
H86	H	-1.058571	0.237985	0.041657
H87	H	-1.063177	0.158505	0.098600
H88	H	-1.002181	0.163093	0.033571
H89	H	-0.840260	0.768974	0.247722
C90	C	-1.019751	0.386045	0.078326
H91	H	-1.053345	0.348222	0.046639
H92	H	-0.989798	0.423797	0.045308
H93	H	-1.050776	0.419207	0.110354
H94	H	-1.041135	0.617540	0.058164
C95	C	-0.833485	0.590823	0.254093
H96	H	-0.799908	0.628646	0.285794
H97	H	-0.802456	0.557656	0.222080
H98	H	-0.863452	0.553074	0.287109
H99	H	-0.812096	0.359324	0.274242
H100	H	-0.936917	-0.137018	-0.079153
C101	C	-0.919036	0.181140	-0.226447
H102	H	-0.918487	0.173769	-0.281861
H103	H	-0.872078	0.212181	-0.208385
H104	H	-0.963461	0.212624	-0.214643
H105	H	-0.933936	-0.126535	-0.228455
C106	C	-0.915017	0.137096	-0.599197
H107	H	-0.914473	0.129720	-0.654610
H108	H	-0.868059	0.168138	-0.581140
H109	H	-0.959442	0.168582	-0.587392
H110	H	-0.181306	-0.003241	0.047935
H111	H	-0.329701	-0.004084	0.059938
H112	H	-0.932893	-0.181060	-0.451891
H113	H	-0.929917	-0.170576	-0.601205
