data_functionalizedCrystal
_audit_creation_method	'MofGen! by Chris Wilmer'
_symmetry_space_group_name_H-M	'P1'
_symmetry_Int_Tables_number	1
_symmetry_cell_setting	triclinic
loop_
_symmetry_equiv_pos_as_xyz
  x,y,z
_cell_length_a	14.853566
_cell_length_b	14.853576
_cell_length_c	13.330367
_cell_angle_alpha	89.996419
_cell_angle_beta	89.995295
_cell_angle_gamma	83.636449
loop_
_atom_site_label
_atom_site_type_symbol
_atom_site_fract_x
_atom_site_fract_y
_atom_site_fract_z
O1	O	1.196373	0.117698	-0.083355
O2	O	0.933914	0.131720	-0.083371
O3	O	1.072150	-0.006520	-0.083359
O4	O	1.058137	0.255938	-0.083367
O5	O	1.072130	-0.006523	0.083489
O6	O	0.933894	0.131717	0.083476
O7	O	1.196353	0.117695	0.083492
Cu8	Cu	1.065122	0.124706	0.098719
Cu9	Cu	1.065145	0.124709	-0.098597
O10	O	1.058117	0.255935	0.083480
C11	C	0.900315	0.131084	0.000050
C12	C	0.800231	0.129180	0.000044
C13	C	0.377057	0.121131	-0.090886
C14	C	0.377057	0.121128	0.091017
C15	C	0.471091	0.122916	0.091014
C16	C	0.518112	0.123812	0.000059
C17	C	0.471100	0.122921	-0.090892
C18	C	0.518109	0.123816	0.181963
C19	C	0.612149	0.125604	0.181964
C20	C	0.659173	0.126494	0.091008
C21	C	0.612155	0.125603	0.000053
C22	C	0.659176	0.126499	-0.090901
C23	C	0.612161	0.125601	-0.181858
C24	C	0.518124	0.123812	-0.181848
C25	C	0.753210	0.128284	0.090999
C26	C	0.753219	0.128289	-0.090907
C27	C	1.071504	-0.040110	0.000064
C28	C	1.069597	-0.140194	0.000060
C29	C	1.229952	0.118331	0.000069
C30	C	1.330036	0.120235	0.000068
C31	C	1.068710	-0.187207	-0.090893
C32	C	1.068699	-0.187224	0.091011
C33	C	1.066912	-0.281258	0.091011
C34	C	1.066026	-0.328271	0.000058
C35	C	1.066926	-0.281250	-0.090895
C36	C	1.066021	-0.328287	0.181962
C37	C	1.064235	-0.422327	0.181966
C38	C	1.063342	-0.469341	0.091011
C39	C	1.064241	-0.422314	0.000055
C40	C	1.063355	-0.469327	-0.090898
C41	C	1.064248	-0.422301	-0.181856
C42	C	1.066033	-0.328264	-0.181850
C43	C	1.061557	-0.563378	0.091005
C44	C	1.061571	-0.563371	-0.090901
C45	C	1.058763	0.289525	0.000055
C46	C	1.060670	0.389608	0.000052
N47	N	1.065112	0.124702	0.237500
N48	N	1.065163	0.124705	-0.237379
C49	C	1.003932	0.185898	0.710118
C50	C	1.126383	0.063513	0.710097
C51	C	1.126373	0.063511	0.605078
C52	C	1.065142	0.124703	0.552575
C53	C	1.003921	0.185899	0.605089
C54	C	1.187599	0.002322	0.552556
C55	C	1.187592	0.002318	0.447531
C56	C	1.126356	0.063507	0.395025
C57	C	1.065132	0.124704	0.447547
C58	C	1.003901	0.185897	0.395043
C59	C	0.942672	0.247091	0.447562
C60	C	0.942685	0.247088	0.552584
C61	C	1.126342	0.063510	0.290004
C62	C	1.003891	0.185898	0.290015
H63	H	0.338765	0.120405	0.165068
C64	C	0.422388	0.044370	0.287498
C65	C	0.466419	0.122838	0.281934
H66	H	0.390478	0.043767	0.349221
H67	H	0.380939	0.043582	0.233335
H68	H	0.465891	-0.007456	0.283729
H69	H	0.422915	0.174664	0.285695
H70	H	0.507872	0.123634	0.336112
H71	H	1.063532	-0.460593	-0.255910
C72	C	0.983568	-0.582317	0.246052
C73	C	1.060575	-0.615072	0.190973
H74	H	0.982960	-0.614236	0.307768
H75	H	0.984768	-0.519593	0.259070
H76	H	0.930750	-0.590923	0.208674
H77	H	1.113393	-0.606460	0.228348
H78	H	1.059383	-0.677812	0.177957
H79	H	1.066764	-0.289968	-0.255902
H80	H	1.060842	-0.601641	-0.164967
C81	C	0.882851	0.306874	0.300585
C82	C	0.936584	0.253167	0.232307
H83	H	0.841304	0.348406	0.264957
H84	H	0.850382	0.269284	0.341550
H85	H	0.920428	0.339368	0.341544
H86	H	0.899008	0.220668	0.191353
H87	H	0.969056	0.290762	0.191325
C88	C	0.868998	0.052864	0.196521
C89	C	0.804893	0.129272	0.190964
H90	H	0.900908	0.053479	0.258237
H91	H	0.839117	-0.000354	0.192756
H92	H	0.910454	0.053659	0.142346
H93	H	0.763433	0.128474	0.245136
H94	H	0.834776	0.182504	0.194740
H95	H	1.069434	-0.148914	-0.164948
H96	H	0.954077	0.235719	0.752881
C97	C	1.240324	-0.153653	0.584893
C98	C	1.254887	-0.064945	0.610275
H99	H	1.281866	-0.195184	0.620529
H100	H	1.180149	-0.163537	0.602105
H101	H	1.249097	-0.162402	0.514830
H102	H	1.246107	-0.056194	0.680337
H103	H	1.315077	-0.055058	0.593070
C104	C	0.602693	0.125414	0.361772
C105	C	0.663826	0.126581	0.281940
H106	H	0.634600	0.126009	0.423492
H107	H	0.559215	0.177247	0.357992
H108	H	0.572817	0.072184	0.357982
H109	H	0.693697	0.179814	0.285726
H110	H	0.707321	0.074742	0.285722
C111	C	1.247386	-0.057456	0.300537
C112	C	1.193637	-0.003748	0.232275
H113	H	1.288928	-0.098984	0.264896
H114	H	1.279861	-0.019866	0.341484
H115	H	1.209819	-0.089954	0.341515
H116	H	1.231204	0.028755	0.191301
H117	H	1.161160	-0.041344	0.191310
C118	C	0.888345	0.301437	0.713583
C119	C	0.875396	0.314356	0.610315
H120	H	0.846808	0.342972	0.749224
H121	H	0.878476	0.241259	0.730798
H122	H	0.948529	0.311336	0.730763
H123	H	0.815213	0.304451	0.593134
H124	H	0.885257	0.374549	0.593093
C125	C	0.993252	-0.071441	0.196514
C126	C	1.069667	-0.135540	0.190977
H127	H	0.993846	-0.039533	0.258233
H128	H	0.994055	-0.029990	0.142347
H129	H	0.940032	-0.101333	0.192732
H130	H	1.122887	-0.105647	0.194751
H131	H	1.068872	-0.176996	0.245159
C132	C	0.990564	-0.212505	0.287455
C133	C	1.066985	-0.276595	0.281924
H134	H	0.991155	-0.180590	0.349170
H135	H	0.991360	-0.171059	0.233283
H136	H	0.937348	-0.242405	0.283680
H137	H	1.120201	-0.246695	0.285691
H138	H	1.066198	-0.318047	0.336111
H139	H	0.338773	0.120396	-0.164941
C140	C	0.986220	-0.441228	0.337003
C141	C	1.063235	-0.474003	0.281948
H142	H	0.985598	-0.473133	0.398727
H143	H	0.987424	-0.378502	0.350007
H144	H	0.933408	-0.449837	0.299617
H145	H	1.116048	-0.465387	0.319332
H146	H	1.062040	-0.536744	0.268948
H147	H	0.892821	0.296918	0.404802
C148	C	1.179112	-0.092461	0.742436
C149	C	1.193678	-0.003752	0.767810
H150	H	1.220660	-0.133991	0.778067
H151	H	1.118939	-0.102345	0.759660
H152	H	1.187875	-0.101212	0.672372
H153	H	1.184908	0.005000	0.837873
H154	H	1.253865	0.006135	0.750593
H155	H	0.791497	0.129016	-0.164975
H156	H	0.650457	0.126337	-0.255913
H157	H	1.237446	-0.047510	0.404776
H158	H	0.479835	0.123079	-0.255899
