data_functionalizedCrystal
_audit_creation_method	'MofGen! by Chris Wilmer'
_symmetry_space_group_name_H-M	'P1'
_symmetry_Int_Tables_number	1
_symmetry_cell_setting	triclinic
loop_
_symmetry_equiv_pos_as_xyz
  x,y,z
_cell_length_a	18.215399
_cell_length_b	12.759401
_cell_length_c	12.759400
_cell_angle_alpha	90.014845
_cell_angle_beta	90.024965
_cell_angle_gamma	90.016015
loop_
_atom_site_label
_atom_site_type_symbol
_atom_site_fract_x
_atom_site_fract_y
_atom_site_fract_z
Zn1	Zn	-0.416068	-1.606230	0.418268
Zn2	Zn	0.083932	-1.106230	0.918268
Zn3	Zn	-0.293009	-1.606132	0.593967
Zn4	Zn	0.206991	-1.106132	1.093967
Zn5	Zn	-0.293022	-1.430539	0.418303
Zn6	Zn	0.206978	-0.930539	0.918303
Zn7	Zn	-0.416041	-1.430520	0.593906
Zn8	Zn	0.083959	-0.930520	1.093906
O9	O	-0.354535	-1.518355	0.506111
O10	O	0.145465	-1.018355	1.006111
O11	O	-0.399749	-1.753238	0.441586
O12	O	0.100251	-1.253238	0.941586
O13	O	-0.190026	-1.582806	0.570705
O14	O	0.309974	-1.082806	1.070705
O15	O	-0.309361	-1.453894	0.271277
O16	O	0.190639	-0.953894	0.771277
O17	O	-0.309338	-1.753166	0.570671
O18	O	0.190662	-1.253166	1.070671
O19	O	-0.399762	-1.582973	0.271252
O20	O	0.100238	-1.082973	0.771252
O21	O	-0.190036	-1.453799	0.441645
O22	O	0.309964	-0.953799	0.941645
O23	O	-0.309335	-1.283516	0.441586
O24	O	0.190665	-0.783516	0.941586
O25	O	-0.519029	-1.453862	0.570568
O26	O	-0.019029	-0.953862	1.070568
O27	O	-0.399717	-1.283502	0.570601
O28	O	0.100283	-0.783502	1.070601
O29	O	-0.519049	-1.582955	0.441527
O30	O	-0.019049	-1.082955	0.941527
O31	O	-0.309312	-1.582788	0.740980
O32	O	0.190688	-1.082788	1.240980
O33	O	-0.399704	-1.453767	0.740935
O34	O	0.100296	-0.953767	1.240935
C35	C	-0.354520	-1.518293	0.779078
C36	C	0.145480	-1.018293	1.279078
C37	C	-0.354538	-1.518362	0.895855
C38	C	0.145462	-1.018362	1.395855
C39	C	-0.354525	-1.245388	0.506092
C40	C	0.145475	-0.745388	1.006092
C41	C	-0.354538	-1.128611	0.506109
C42	C	0.145462	-0.628611	1.006109
C43	C	-0.546488	-1.518417	0.506037
C44	C	-0.046488	-1.018417	1.006037
C45	C	-0.628287	-1.518443	0.506005
C46	C	-0.128287	-1.018443	1.006005
C47	C	-0.893356	-1.585701	0.438723
C48	C	-0.393356	-1.085701	0.938723
C49	C	-0.816497	-1.585688	0.438751
C50	C	-0.316497	-1.085688	0.938751
C51	C	-0.816466	-1.451271	0.573135
C52	C	-0.316466	-0.951271	1.073135
C53	C	-0.893324	-1.451290	0.573111
C54	C	-0.393324	-0.951290	1.073111
C55	C	-0.931767	-1.518503	0.505899
C56	C	-0.431767	-1.018503	1.005899
C57	C	-0.778050	-1.518472	0.505951
C58	C	-0.278050	-1.018472	1.005951
C59	C	-0.694717	-1.518458	0.505983
C60	C	-0.194717	-1.018458	1.005983
C61	C	-1.015106	-1.518519	0.505869
C62	C	-0.515106	-1.018519	1.005869
C63	C	-0.163329	-1.518354	0.506109
C64	C	0.336671	-1.018354	1.006109
C65	C	-0.081530	-1.518532	0.505845
C66	C	0.418470	-1.018532	1.005845
C67	C	-0.354545	-1.792389	0.506131
C68	C	0.145455	-1.292389	1.006131
C69	C	-0.354550	-1.909165	0.506140
C70	C	0.145450	-1.409165	1.006140
C71	C	-0.401522	-1.073770	0.573394
C72	C	0.098478	-0.573770	1.073394
C73	C	-0.401530	-0.964046	0.573408
C74	C	0.098470	-0.464046	1.073408
C75	C	-0.307564	-0.964015	0.438847
C76	C	0.192436	-0.464015	0.938847
C77	C	-0.307560	-1.073737	0.438829
C78	C	0.192440	-0.573737	0.938829
C79	C	-0.455770	-1.073786	0.651085
C80	C	0.044230	-0.573786	1.151085
C81	C	-0.455778	-0.964062	0.651099
C82	C	0.044222	-0.464062	1.151099
C83	C	-0.354566	-1.518447	0.232078
C84	C	0.145434	-1.018447	0.732078
C85	C	-0.354580	-1.518485	0.115301
C86	C	0.145420	-1.018485	0.615301
C87	C	-0.307523	-1.585618	0.950705
C88	C	0.192477	-1.085618	1.450705
C89	C	-0.307546	-1.585683	1.060429
C90	C	0.192454	-1.085683	1.560429
C91	C	-0.401600	-1.451227	1.060443
C92	C	0.098400	-0.951227	1.560443
C93	C	-0.401580	-1.451168	0.950721
C94	C	0.098420	-0.951168	1.450721
C95	C	-0.253219	-1.663242	0.950698
C96	C	0.246781	-1.163242	1.450698
C97	C	-0.253242	-1.663307	1.060422
C98	C	0.246758	-1.163307	1.560422
H99	H	-0.924654	-1.640430	0.383994
H100	H	-0.424654	-1.140430	0.883994
H101	H	-0.924599	-1.396568	0.627819
H102	H	-0.424599	-0.896568	1.127819
F103	F	-0.526597	-0.919615	0.613148
F104	F	-0.026597	-0.419615	1.113148
F105	F	-0.178735	-1.634901	1.099448
F106	F	0.321265	-1.134901	1.599448
H107	H	-0.440415	-0.934268	0.732446
H108	H	0.059585	-0.434268	1.232446
H109	H	-0.269317	-0.919322	0.384069
H110	H	0.230683	-0.419322	0.884069
F111	F	-0.451664	-1.379719	1.118845
F112	F	0.048336	-0.879719	1.618845
H113	H	-0.439870	-1.396413	0.906063
H114	H	0.060130	-0.896413	1.406063
H115	H	-0.785227	-1.640409	0.384051
H116	H	-0.285227	-1.140409	0.884051
H117	H	-0.512793	-1.103591	0.629395
H118	H	-0.012793	-0.603591	1.129395
F119	F	-0.273226	-1.769560	0.911670
F120	F	0.226774	-1.269560	1.411670
F121	F	-0.182428	-1.625159	0.906310
F122	F	0.317572	-1.125159	1.406310
F123	F	-0.257566	-1.132100	0.367199
F124	F	0.242434	-0.632100	0.867199
H125	H	-0.785157	-1.396547	0.627855
H126	H	-0.285157	-0.896547	1.127855
H127	H	-0.435257	-1.107802	0.728334
H128	H	0.064743	-0.607802	1.228334
F129	F	-0.279998	-1.764338	1.104801
F130	F	0.220002	-1.264338	1.604801
