data_functionalizedCrystal
_audit_creation_method	'MofGen! by Chris Wilmer'
_symmetry_space_group_name_H-M	'P1'
_symmetry_Int_Tables_number	1
_symmetry_cell_setting	triclinic
loop_
_symmetry_equiv_pos_as_xyz
  x,y,z
_cell_length_a	15.944551
_cell_length_b	14.421503
_cell_length_c	15.995350
_cell_angle_alpha	90.006523
_cell_angle_beta	96.504444
_cell_angle_gamma	90.003141
loop_
_atom_site_label
_atom_site_type_symbol
_atom_site_fract_x
_atom_site_fract_y
_atom_site_fract_z
O1	O	1.114523	0.077010	-0.107977
O2	O	0.869973	0.077033	-0.121291
O3	O	0.998933	0.077020	0.007253
O4	O	0.985563	0.077023	-0.236521
O5	O	0.998912	-0.077203	0.007234
O6	O	0.869951	-0.077191	-0.121310
O7	O	1.114502	-0.077213	-0.107996
Cu8	Cu	0.992225	-0.091284	-0.114655
Cu9	Cu	0.992250	0.091103	-0.114632
O10	O	0.985542	-0.077200	-0.236540
C11	C	0.838668	-0.000076	-0.120748
C12	C	0.745422	-0.000067	-0.119091
N13	N	0.992213	-0.219565	-0.114670
C14	C	0.530570	-0.000086	-0.035452
C15	C	0.469559	0.075955	-0.074282
C16	C	0.574697	-0.000078	-0.116093
C17	C	0.469560	-0.076098	-0.074320
C18	C	0.409784	-0.000093	-0.113192
C19	C	0.514913	0.076025	-0.154945
C20	C	0.514921	-0.076095	-0.154971
C21	C	0.453926	-0.000036	-0.193859
C22	C	0.669699	-0.000069	-0.117762
C23	C	0.314783	-0.000096	-0.111529
C24	C	0.932571	-0.469213	-0.174082
C25	C	1.008470	-0.531022	-0.190338
C26	C	0.992234	-0.408726	-0.114650
C27	C	0.916354	-0.531011	-0.098414
C28	C	0.992246	-0.591448	-0.114633
C29	C	1.068171	-0.469175	-0.130944
C30	C	0.976004	-0.469158	-0.038987
C31	C	1.051958	-0.530940	-0.055210
C32	C	0.992225	-0.303465	-0.114663
C33	C	0.992264	-0.696707	-0.114620
C34	C	1.145806	-0.000102	-0.108539
C35	C	1.239052	-0.000105	-0.110196
C36	C	0.998370	-0.000090	0.038438
C37	C	0.996712	-0.000084	0.131389
N38	N	0.992268	0.219385	-0.114610
C39	C	0.986105	-0.000088	-0.267726
C40	C	0.987762	-0.000088	-0.360676
C41	C	0.990761	-0.000087	0.469137
C42	C	0.898918	0.000267	0.421708
C43	C	0.900576	-0.000080	0.325017
C44	C	0.993713	-0.000085	0.301576
C45	C	1.039001	-0.088157	0.342640
C46	C	1.036694	-0.088230	0.439276
C47	C	1.038616	0.087150	0.439656
C48	C	1.038594	0.088314	0.342710
C49	C	0.995386	-0.000087	0.206878
C50	C	0.989091	-0.000091	0.563835
H51	H	0.563907	0.000007	0.031473
C52	C	0.852475	0.085206	0.286631
N53	N	0.816238	0.149444	0.257721
C54	C	1.131436	-0.092602	0.323535
N55	N	1.201055	-0.095951	0.309138
H56	H	0.449459	0.140241	-0.040166
C57	C	1.154888	-0.432638	-0.149593
N58	N	1.220200	-0.405116	-0.163644
C59	C	0.957409	-0.432412	0.047417
N60	N	0.943394	-0.404733	0.112496
C61	C	1.027026	-0.567743	-0.276769
N62	N	1.040995	-0.595400	-0.341870
C63	C	0.541923	0.162974	-0.200970
N64	N	0.562269	0.228465	-0.235632
H65	H	1.102473	-0.557873	-0.004940
H66	H	0.852179	-0.558175	-0.084690
C67	C	0.864484	-0.432586	-0.242035
N68	N	0.813206	-0.404996	-0.293218
H69	H	0.862218	0.063425	0.440249
C70	C	0.409118	0.000024	-0.284362
N71	N	0.375365	0.000073	-0.352528
H72	H	0.862364	-0.062532	0.441296
H73	H	1.008597	0.153903	0.460205
H74	H	0.535041	-0.140385	-0.189059
H75	H	1.106331	0.087739	0.471413
H76	H	0.449467	-0.140382	-0.040205
C77	C	0.852137	-0.085510	0.287362
N78	N	0.815652	-0.149861	0.259001
H79	H	1.003652	-0.154062	0.457571
H80	H	1.104123	-0.092230	0.471520
H81	H	1.007529	-0.153693	0.314252
H82	H	1.005483	0.153467	0.315472
H83	H	1.106515	0.093628	0.327345
