data_functionalizedCrystal
_audit_creation_method	'MofGen! by Chris Wilmer'
_symmetry_space_group_name_H-M	'P1'
_symmetry_Int_Tables_number	1
_symmetry_cell_setting	triclinic
loop_
_symmetry_equiv_pos_as_xyz
  x,y,z
_cell_length_a	12.811457
_cell_length_b	17.019234
_cell_length_c	11.295483
_cell_angle_alpha	90.220874
_cell_angle_beta	91.289320
_cell_angle_gamma	84.084893
loop_
_atom_site_label
_atom_site_type_symbol
_atom_site_fract_x
_atom_site_fract_y
_atom_site_fract_z
O1	O	1.389635	0.108376	0.039928
O2	O	1.086448	0.118128	0.006183
O3	O	1.245681	-0.000885	0.035597
O4	O	1.230402	0.227389	0.010514
O5	O	1.231695	0.009552	0.231066
O6	O	1.072462	0.128565	0.201652
O7	O	1.375649	0.118812	0.235397
Cu8	Cu	1.222779	0.124642	0.236372
Cu9	Cu	1.239319	0.112299	0.005208
O10	O	1.216416	0.237825	0.205983
C11	C	1.040646	0.122480	0.099815
C12	C	0.925006	0.119890	0.087592
C13	C	0.692459	0.126386	0.277749
C14	C	0.583804	0.123952	0.266270
C15	C	0.599042	0.112581	0.053157
C16	C	0.707697	0.115015	0.064636
C17	C	0.754400	0.121919	0.176935
C18	C	0.863056	0.124359	0.188412
C19	C	0.878293	0.112983	-0.024699
C20	C	0.769638	0.110549	-0.036178
C21	C	1.237837	-0.024903	0.136238
C22	C	1.235287	-0.112018	0.144898
C23	C	1.220390	-0.604436	0.199159
C24	C	1.222796	-0.522582	0.191029
C25	C	1.231631	-0.487336	0.080412
C26	C	1.238049	-0.533948	-0.022083
C27	C	1.235636	-0.615800	-0.013953
C28	C	1.239292	-0.240482	0.050533
C29	C	1.241708	-0.158624	0.042411
C30	C	1.226452	-0.147263	0.255523
C31	C	1.224046	-0.229117	0.263644
C32	C	1.230459	-0.275722	0.161149
C33	C	1.234093	-0.403669	0.072100
C34	C	1.227989	-0.359387	0.169462
C35	C	1.421452	0.114460	0.141762
C36	C	1.537092	0.117051	0.153978
C37	C	1.224261	0.261843	0.105339
C38	C	1.226812	0.348958	0.096672
N39	N	1.211153	0.133323	0.398962
N40	N	1.250953	0.103612	-0.157381
C41	C	1.334641	0.041078	0.671057
C42	C	1.325862	0.047644	0.794099
C43	C	1.184814	0.153016	0.768089
C44	C	1.193592	0.146450	0.645047
C45	C	1.268509	0.090480	0.596536
C46	C	1.277292	0.083919	0.473492
C47	C	1.136239	0.189286	0.447485
C48	C	1.127461	0.195852	0.570527
H49	H	0.901079	0.129985	0.279852
O50	O	0.737670	0.133061	0.386921
C51	C	0.711084	0.144138	0.597083
C52	C	0.659752	0.136562	0.473518
H53	H	0.648108	0.146987	0.667127
H54	H	0.770759	0.090766	0.614481
H55	H	0.752390	0.200332	0.601103
H56	H	0.618390	0.080400	0.469407
H57	H	0.600133	0.189974	0.456171
O58	O	0.553742	0.105738	-0.055933
C59	C	0.544983	0.027486	-0.233442
C60	C	0.596348	0.035124	-0.109908
H61	H	0.579425	-0.029593	-0.277126
H62	H	0.456685	0.026457	-0.224396
H63	H	0.560861	0.079978	-0.290293
H64	H	0.580551	-0.017353	-0.052989
H65	H	0.684630	0.036189	-0.119042
H66	H	1.240859	-0.653745	-0.097409
H67	H	0.533374	0.127593	0.348363
H68	H	1.216857	-0.257809	0.353721
H69	H	1.245237	-0.505245	-0.112150
H70	H	1.066462	0.241419	0.610039
H71	H	0.928737	0.109351	-0.106789
H72	H	0.731598	0.104924	-0.127608
H73	H	1.220790	-0.388086	0.259524
H74	H	1.213200	-0.633126	0.289235
H75	H	1.217582	-0.484640	0.274486
H76	H	1.221229	-0.109310	0.338969
H77	H	1.241292	-0.374964	-0.017964
O78	O	1.250244	-0.124508	-0.065148
C79	C	1.265175	-0.144414	-0.275663
C80	C	1.255484	-0.183150	-0.153942
H81	H	1.269437	-0.191810	-0.347483
H82	H	1.193869	-0.099867	-0.293406
H83	H	1.339475	-0.112885	-0.276198
H84	H	1.181226	-0.214722	-0.153318
H85	H	1.326843	-0.227655	-0.136247
O86	O	1.245356	-0.285752	-0.049025
C87	C	1.161421	-0.376693	-0.174128
C88	C	1.154396	-0.325448	-0.061350
H89	H	1.087900	-0.408814	-0.184116
H90	H	1.168094	-0.337456	-0.254614
H91	H	1.233518	-0.421793	-0.167101
H92	H	1.082303	-0.280343	-0.068261
H93	H	1.147780	-0.364735	0.019090
H94	H	1.338295	0.038348	0.433996
H95	H	1.395648	-0.004489	0.631559
O96	O	1.111898	0.207289	0.815171
C97	C	0.928361	0.253572	0.828754
C98	C	1.010830	0.192052	0.775371
H99	H	0.846630	0.241284	0.796577
H100	H	0.933359	0.249766	0.929499
H101	H	0.944055	0.315251	0.799642
H102	H	0.995190	0.130345	0.804392
H103	H	1.005812	0.195927	0.674633
H104	H	1.379712	0.007415	0.854771
O105	O	1.072092	0.237393	0.375150
C106	C	1.014483	0.371241	0.317141
C107	C	1.087193	0.316848	0.399108
H108	H	1.026650	0.435492	0.336498
H109	H	1.033622	0.357009	0.220843
H110	H	0.929283	0.361483	0.333458
H111	H	1.172417	0.326576	0.382896
H112	H	1.067964	0.331093	0.495378
