data_functionalizedCrystal
_audit_creation_method	'MofGen! by Chris Wilmer'
_symmetry_space_group_name_H-M	'P1'
_symmetry_Int_Tables_number	1
_symmetry_cell_setting	triclinic
loop_
_symmetry_equiv_pos_as_xyz
  x,y,z
_cell_length_a	10.723023
_cell_length_b	10.723023
_cell_length_c	9.198806
_cell_angle_alpha	89.997827
_cell_angle_beta	89.996513
_cell_angle_gamma	84.467548
loop_
_atom_site_label
_atom_site_type_symbol
_atom_site_fract_x
_atom_site_fract_y
_atom_site_fract_z
O1	O	1.657188	0.175020	-0.120874
O2	O	1.294035	0.191774	-0.120880
O3	O	1.483989	0.001821	-0.120871
O4	O	1.467234	0.364973	-0.120883
O5	O	1.483974	0.001820	0.120914
O6	O	1.294020	0.191774	0.120905
O7	O	1.657173	0.175019	0.120911
Cu8	Cu	1.475595	0.183396	0.142985
Cu9	Cu	1.475613	0.183397	-0.142954
O10	O	1.467219	0.364973	0.120902
C11	C	1.247528	0.190555	0.000012
C12	C	1.108974	0.186908	0.000010
C13	C	1.047194	0.185281	0.125260
C14	C	0.903991	0.181512	0.125261
C15	C	1.482762	-0.044679	0.000020
C16	C	1.479115	-0.183233	0.000015
C17	C	1.477497	-0.244999	-0.125239
C18	C	1.473727	-0.388202	-0.125246
C19	C	1.703680	0.176239	0.000016
C20	C	1.842234	0.179886	0.000009
C21	C	1.468446	0.411473	0.000008
C22	C	1.472093	0.550027	0.000003
N23	N	1.475592	0.183395	0.344099
N24	N	1.475626	0.183388	-0.344068
C25	C	1.555347	0.103288	0.416300
C26	C	1.555367	0.103283	0.583712
H27	H	0.850861	0.180120	0.232493
H28	H	1.407345	0.251980	0.593852
N29	N	1.471916	-0.458566	-0.267291
H30	H	1.549750	-0.445419	-0.324918
H31	H	1.469451	-0.550863	-0.247019
H32	H	1.473491	-0.396865	0.107243
H33	H	1.407319	0.251971	0.406224
N34	N	1.477266	-0.253610	0.142059
H35	H	1.478865	-0.192717	0.225648
H36	H	1.398618	-0.298177	0.147719
N37	N	1.117548	0.187129	0.267311
H38	H	1.209876	0.189561	0.247175
H39	H	1.085398	0.263760	0.324893
N40	N	1.645751	0.012408	0.334025
H41	H	1.632909	0.025280	0.226094
H42	H	1.734499	0.027332	0.360514
H43	H	1.623654	0.034704	0.645801
N44	N	0.912580	0.181738	-0.142053
H45	H	0.957146	0.260383	-0.147855
H46	H	0.975988	0.105884	-0.147762
N47	N	1.038609	0.185055	-0.142033
H48	H	1.051748	0.262872	-0.199694
H49	H	1.070692	0.108376	-0.199570
H50	H	1.478897	-0.191860	-0.232467
