data_functionalizedCrystal
_audit_creation_method	'MofGen! by Chris Wilmer'
_symmetry_space_group_name_H-M	'P1'
_symmetry_Int_Tables_number	1
_symmetry_cell_setting	triclinic
loop_
_symmetry_equiv_pos_as_xyz
  x,y,z
_cell_length_a	6.817900
_cell_length_b	12.200722
_cell_length_c	19.453114
_cell_angle_alpha	94.897945
_cell_angle_beta	101.709288
_cell_angle_gamma	107.140920
loop_
_atom_site_label
_atom_site_type_symbol
_atom_site_fract_x
_atom_site_fract_y
_atom_site_fract_z
V1	V	-4.025490	-0.159908	-0.219074
V2	V	-3.525490	0.340092	0.280926
O3	O	-3.993988	0.006455	-0.214827
O4	O	-3.493988	0.506455	0.285173
O5	O	-3.995328	-0.315888	-0.217650
O6	O	-3.495328	0.184112	0.282350
O7	O	-3.968181	-0.157987	-0.314586
O8	O	-3.468181	0.342013	0.185414
O9	O	-4.021323	-0.152539	-0.117219
O10	O	-3.521323	0.347461	0.382781
V11	V	-4.507910	-0.139945	-0.206883
V12	V	-4.007910	0.360055	0.293117
O13	O	-4.289170	-0.203697	-0.245817
O14	O	-3.789170	0.296303	0.254183
O15	O	-4.694427	-0.096155	-0.180139
O16	O	-4.194427	0.403845	0.319861
O17	O	-4.314866	0.016035	-0.208307
O18	O	-3.814866	0.516035	0.291693
O19	O	-4.656809	-0.306308	-0.211130
O20	O	-4.156809	0.193692	0.288870
O21	O	-4.629474	-0.147314	-0.308737
O22	O	-4.129474	0.352686	0.191263
O23	O	-4.342013	-0.141865	-0.111370
O24	O	-3.842013	0.358135	0.388630
C25	C	-3.845054	-0.353896	-0.214213
C26	C	-3.345054	0.146104	0.285787
C27	C	-3.901620	-0.481415	-0.213685
C28	C	-3.401620	0.018585	0.286315
C29	C	-3.947552	-0.584974	-0.213249
C30	C	-3.447552	-0.084974	0.286751
C31	C	-4.005195	-0.714893	-0.212707
C32	C	-3.505195	-0.214893	0.287293
C33	C	-3.810424	-0.152476	-0.337864
C34	C	-3.310424	0.347524	0.162136
C35	C	-3.844971	-0.151938	-0.415946
C36	C	-3.344971	0.348062	0.084054
C37	C	-4.043657	-0.157443	-0.456206
C38	C	-3.543657	0.342557	0.043794
C39	C	-4.076118	-0.156938	-0.529572
C40	C	-3.576118	0.343062	-0.029572
C41	C	-3.909894	-0.150950	-0.562678
C42	C	-3.409894	0.349050	-0.062678
C43	C	-3.711177	-0.145438	-0.522409
C44	C	-3.211177	0.354562	-0.022409
C45	C	-3.678716	-0.145932	-0.449043
C46	C	-3.178716	0.354068	0.050957
N47	N	-3.857234	-0.211530	-0.681496
N48	N	-3.357234	0.288470	-0.181496
N49	N	-3.888084	-0.211064	-0.751191
N50	N	-3.388084	0.288936	-0.251191
C51	C	-4.007686	-0.149459	-0.783726
C52	C	-3.507686	0.350541	-0.283726
N53	N	-4.095309	-0.088354	-0.743935
N54	N	-3.595309	0.411646	-0.243935
N55	N	-4.064464	-0.088825	-0.674234
N56	N	-3.564464	0.411175	-0.174234
C57	C	-3.945072	-0.150413	-0.642231
C58	C	-3.445072	0.349587	-0.142231
C59	C	-4.241582	-0.154415	-0.903538
C60	C	-3.741582	0.345585	-0.403538
C61	C	-4.274032	-0.153902	-0.976905
C62	C	-3.774032	0.346098	-0.476905
C63	C	-3.909091	-0.142414	-0.969741
C64	C	-3.409091	0.357586	-0.469741
C65	C	-3.876640	-0.142915	-0.896375
C66	C	-3.376640	0.357085	-0.396375
C67	C	-4.042896	-0.148921	-0.863278
C68	C	-3.542896	0.351079	-0.363278
C69	C	-4.128483	0.054037	-0.211742
C70	C	-3.628483	0.554037	0.288258
C71	C	-4.051155	0.181555	-0.212275
C72	C	-3.551155	0.681555	0.287725
C73	C	-4.163112	-0.147380	-0.088089
C74	C	-3.663112	0.352620	0.411911
C75	C	-4.107803	-0.147912	-0.010006
C76	C	-3.607803	0.352088	0.489994
H77	H	-4.179036	-0.162330	-0.429263
H78	H	-3.679036	0.337670	0.070737
H79	H	-4.435826	-0.158377	-1.009683
H80	H	-3.935826	0.341623	-0.509683
H81	H	-3.714856	-0.138444	-0.863596
H82	H	-3.214856	0.361556	-0.363596
H83	H	-3.773742	-0.137528	-0.996694
H84	H	-3.273742	0.362472	-0.496694
H85	H	-3.575836	-0.140559	-0.549368
H86	H	-3.075836	0.359441	-0.049368
H87	H	-4.237920	-0.161427	-0.562359
H88	H	-3.737920	0.338573	-0.062359
H89	H	-4.376955	-0.159302	-0.876589
H90	H	-3.876955	0.340698	-0.376589
C91	C	-3.460158	-0.139888	-0.404756
C92	C	-2.960158	0.360112	0.095244
H93	H	-3.365806	-0.136255	-0.434978
H94	H	-2.865806	0.363745	0.065022
H95	H	-3.406936	-0.072607	-0.369538
H96	H	-2.906936	0.427393	0.130462
H97	H	-3.472898	-0.207096	-0.382439
H98	H	-2.972898	0.292904	0.117561
