data_functionalizedCrystal
_audit_creation_method	'MofGen! by Chris Wilmer'
_symmetry_space_group_name_H-M	'P1'
_symmetry_Int_Tables_number	1
_symmetry_cell_setting	triclinic
loop_
_symmetry_equiv_pos_as_xyz
  x,y,z
_cell_length_a	14.519709
_cell_length_b	10.489741
_cell_length_c	12.996460
_cell_angle_alpha	89.994152
_cell_angle_beta	90.000034
_cell_angle_gamma	84.109659
loop_
_atom_site_label
_atom_site_type_symbol
_atom_site_fract_x
_atom_site_fract_y
_atom_site_fract_z
O1	O	1.224780	0.167204	-0.085432
O2	O	0.956410	0.186894	-0.085464
O3	O	1.096702	-0.008613	-0.085441
O4	O	1.084488	0.362710	-0.085455
O5	O	1.096687	-0.008624	0.085693
O6	O	0.956395	0.186883	0.085670
O7	O	1.224765	0.167193	0.085702
Cu8	Cu	1.090579	0.177037	0.101312
Cu9	Cu	1.090596	0.177050	-0.101074
O10	O	1.084474	0.362699	0.085679
C11	C	0.922038	0.185971	0.000099
C12	C	0.819642	0.183221	0.000088
C13	C	0.444691	0.173098	0.000135
C14	C	0.549014	0.175909	0.000121
C15	C	0.632163	0.178159	0.000110
C16	C	0.736493	0.180971	0.000099
C17	C	1.095772	-0.056140	0.000125
C18	C	1.093012	-0.197741	0.000123
C19	C	1.003749	-0.264951	0.000105
C20	C	1.045909	-0.357518	0.084488
C21	C	1.045944	-0.357482	-0.084237
C22	C	1.135209	-0.288443	0.084575
C23	C	1.135232	-0.288398	-0.084225
C24	C	1.177457	-0.380938	0.000178
C25	C	1.259137	0.168116	0.000136
C26	C	1.361533	0.170866	0.000142
C27	C	1.085403	0.410227	0.000111
C28	C	1.088163	0.551828	0.000106
N29	N	1.090573	0.177027	0.243659
N30	N	1.090609	0.177049	-0.243421
C31	C	1.090595	0.177051	0.663473
C32	C	1.090586	0.177049	0.546668
C33	C	1.090585	0.177040	0.453570
C34	C	1.090575	0.177036	0.336757
H35	H	0.930357	-0.214534	0.000181
H36	H	1.172939	-0.258009	0.155995
F37	F	0.996536	-0.397544	0.177723
F38	F	1.273470	-0.446543	0.000248
H39	H	1.172975	-0.257742	-0.155560
F40	F	0.996565	-0.397461	-0.177477
