data_functionalizedCrystal
_audit_creation_method	'MofGen! by Chris Wilmer'
_symmetry_space_group_name_H-M	'P1'
_symmetry_Int_Tables_number	1
_symmetry_cell_setting	triclinic
loop_
_symmetry_equiv_pos_as_xyz
  x,y,z
_cell_length_a	14.044220
_cell_length_b	9.130313
_cell_length_c	10.654550
_cell_angle_alpha	89.999890
_cell_angle_beta	88.836890
_cell_angle_gamma	90.004466
loop_
_atom_site_label
_atom_site_type_symbol
_atom_site_fract_x
_atom_site_fract_y
_atom_site_fract_z
O1	O	1.259693	-0.121637	0.302980
O2	O	0.983652	-0.121674	0.292047
O3	O	1.128019	-0.121649	0.115412
O4	O	1.115326	-0.121662	0.479615
O5	O	1.128017	0.121950	0.115417
O6	O	0.983650	0.121925	0.292052
O7	O	1.259691	0.121962	0.302985
Cu8	Cu	1.121671	0.144186	0.297519
Cu9	Cu	1.121673	-0.143898	0.297513
O10	O	1.115324	0.121937	0.479620
C11	C	0.948305	0.000121	0.287263
C12	C	0.842986	0.000106	0.272988
N13	N	1.121676	0.346809	0.297523
C14	C	1.127086	0.000149	0.068523
C15	C	1.124298	0.000143	-0.071201
C16	C	0.650153	0.000136	0.246889
C17	C	0.593185	0.000139	0.348137
C18	C	0.485886	0.000156	0.333615
C19	C	0.757461	0.000120	0.261409
C20	C	1.295038	0.000164	0.307769
C21	C	1.400358	0.000169	0.322044
N22	N	1.121675	-0.346520	0.297500
C23	C	1.185618	0.423472	0.219340
C24	C	1.185616	0.576808	0.219324
C25	C	1.057725	0.576806	0.375686
C26	C	1.057724	0.423472	0.375694
C27	C	1.249570	0.346809	0.141169
C28	C	1.313518	0.423472	0.062980
C29	C	1.313516	0.576809	0.062965
C30	C	1.249565	0.653482	0.141138
C31	C	1.209299	0.000159	-0.142144
C32	C	1.206673	0.000148	-0.273429
C33	C	1.034038	0.000112	-0.262814
C34	C	1.036664	0.000112	-0.131532
C35	C	1.296932	0.000190	-0.081813
C36	C	1.381941	0.000207	-0.152758
C37	C	1.379315	0.000197	-0.284043
C38	C	1.291681	0.000169	-0.344383
C39	C	1.116257	0.000136	0.526509
C40	C	1.119045	0.000132	0.666233
H41	H	0.624998	0.000129	0.445725
H42	H	0.962690	0.000091	-0.311954
H43	H	0.967449	0.000101	-0.073767
N44	N	1.299615	0.000170	0.052289
N45	N	1.262260	-0.102523	0.113259
H46	H	1.264153	-0.102536	0.207969
N47	N	0.610237	0.000151	0.124481
N48	N	0.521864	0.000163	0.112713
H49	H	0.493662	0.000169	0.026263
N50	N	0.992397	0.655100	0.455536
N51	N	0.904713	0.637966	0.443920
H52	H	0.858573	0.693259	0.500317
N53	N	1.249586	0.190181	0.141204
N54	N	1.323003	0.121763	0.170284
H55	H	1.323015	0.011144	0.170315
N56	N	1.378823	0.345137	-0.016874
N57	N	1.378816	0.208233	-0.016855
H58	H	1.424937	0.152908	-0.073255
N59	N	1.378829	0.655097	-0.016920
N60	N	1.435917	0.586624	-0.086710
H61	H	1.482049	0.641912	-0.143130
N62	N	1.289014	0.000168	-0.478488
N63	N	1.326380	0.102853	-0.539456
H64	H	1.324498	0.102860	-0.634168
N65	N	0.992401	0.345175	0.455559
N66	N	0.935313	0.413637	0.525356
H67	H	0.889174	0.358341	0.581761
H68	H	1.249562	0.778340	0.141110
N69	N	1.471443	0.000246	-0.091107
N70	N	1.492161	0.102940	-0.019038
H71	H	1.555373	0.102967	0.024503
N72	N	1.466134	0.000230	-0.356531
N73	N	1.463780	0.000231	-0.473745
H74	H	1.525099	0.000263	-0.524941
