data_functionalizedCrystal
_audit_creation_method	'MofGen! by Chris Wilmer'
_symmetry_space_group_name_H-M	'P1'
_symmetry_Int_Tables_number	1
_symmetry_cell_setting	triclinic
loop_
_symmetry_equiv_pos_as_xyz
  x,y,z
_cell_length_a	19.077068
_cell_length_b	18.215407
_cell_length_c	18.215399
_cell_angle_alpha	89.982223
_cell_angle_beta	87.731836
_cell_angle_gamma	87.677405
loop_
_atom_site_label
_atom_site_type_symbol
_atom_site_fract_x
_atom_site_fract_y
_atom_site_fract_z
Zn1	Zn	-0.280290	-1.113284	0.427832
Zn2	Zn	0.053043	-0.779951	0.761166
Zn3	Zn	0.386377	-0.446617	1.094499
Zn4	Zn	-0.397991	-1.108243	0.309703
Zn5	Zn	-0.064658	-0.774909	0.643037
Zn6	Zn	0.268675	-0.441576	0.976370
Zn7	Zn	-0.280303	-0.990216	0.304785
Zn8	Zn	0.053030	-0.656883	0.638118
Zn9	Zn	0.386363	-0.323549	0.971451
Zn10	Zn	-0.397942	-0.985235	0.432730
Zn11	Zn	-0.064609	-0.651901	0.766064
Zn12	Zn	0.268724	-0.318568	1.099397
O13	O	-0.339132	-1.049244	0.368763
O14	O	-0.005798	-0.715911	0.702096
O15	O	0.327535	-0.382578	1.035429
O16	O	-0.295918	-1.215599	0.412171
O17	O	0.037415	-0.882266	0.745504
O18	O	0.370748	-0.548932	1.078838
O19	O	-0.382406	-1.092561	0.206068
O20	O	-0.049073	-0.759228	0.539401
O21	O	0.284261	-0.425894	0.872734
O22	O	-0.181811	-1.010736	0.316999
O23	O	0.151523	-0.677403	0.650332
O24	O	0.484856	-0.344069	0.983666
O25	O	-0.382393	-1.211895	0.325382
O26	O	-0.049060	-0.878562	0.658715
O27	O	0.284274	-0.545228	0.992049
O28	O	-0.181801	-1.101154	0.407402
O29	O	0.151532	-0.767820	0.740735
O30	O	0.484866	-0.434487	1.074068
O31	O	-0.295941	-1.005847	0.202454
O32	O	0.037393	-0.672514	0.535787
O33	O	0.370726	-0.339181	0.869121
O34	O	-0.295893	-0.886572	0.321749
O35	O	0.037440	-0.553238	0.655082
O36	O	0.370773	-0.219905	0.988415
O37	O	-0.382309	-1.002246	0.535064
O38	O	-0.048976	-0.668912	0.868397
O39	O	0.284357	-0.335579	1.201731
O40	O	-0.382322	-0.882912	0.415750
O41	O	-0.048989	-0.549578	0.749083
O42	O	0.284344	-0.216245	1.082416
O43	O	-0.295871	-1.096323	0.531465
O44	O	0.037462	-0.762990	0.864799
O45	O	0.370796	-0.429657	1.198132
O46	O	-0.496476	-1.087731	0.330131
O47	O	-0.163142	-0.754397	0.663465
O48	O	0.170191	-0.421064	0.996798
O49	O	-0.496440	-0.997357	0.420519
O50	O	-0.163106	-0.664024	0.753852
O51	O	0.170227	-0.330691	1.087186
C52	C	-0.339104	-0.858039	0.368747
C53	C	-0.005771	-0.524706	0.702081
C54	C	0.327562	-0.191373	1.035414
C55	C	-0.339110	-0.776240	0.368759
C56	C	-0.005776	-0.442907	0.702092
C57	C	0.327557	-0.109573	1.035426
C58	C	-0.294169	-0.589970	0.414027
C59	C	0.039164	-0.256637	0.747360
C60	C	0.372498	0.076696	1.080693
C61	C	-0.294173	-0.513111	0.414029
C62	C	0.039161	-0.179778	0.747362
C63	C	0.372494	0.153555	1.080695
C64	C	-0.384084	-0.509271	0.323504
C65	C	-0.050750	-0.175938	0.656838
C66	C	0.282583	0.157396	0.990171
C67	C	-0.384076	-0.586129	0.323499
C68	C	-0.050743	-0.252795	0.656832
C69	C	0.282591	0.080538	0.990165
C70	C	-0.339120	-0.626476	0.368764
C71	C	-0.005786	-0.293143	0.702098
C72	C	0.327547	0.040190	1.035431
C73	C	-0.339131	-0.472760	0.368772
C74	C	-0.005798	-0.139426	0.702105
C75	C	0.327536	0.193907	1.035438
C76	C	-0.339136	-0.389426	0.368774
C77	C	-0.005802	-0.056092	0.702107
C78	C	0.327531	0.277241	1.035440
C79	C	-0.339114	-0.709815	0.368761
C80	C	-0.005781	-0.376482	0.702095
C81	C	0.327552	-0.043149	1.035428
C82	C	-0.521995	-1.041476	0.376406
C83	C	-0.188662	-0.708143	0.709740
C84	C	0.144671	-0.374810	1.043073
C85	C	-0.600225	-1.038220	0.379701
C86	C	-0.266892	-0.704887	0.713034
C87	C	0.066442	-0.371554	1.046368
C88	C	-0.636973	-1.083780	0.334228
C89	C	-0.303640	-0.750446	0.667561
C90	C	0.029694	-0.417113	1.000894
C91	C	-0.710478	-1.080722	0.337331
C92	C	-0.377145	-0.747388	0.670664
C93	C	-0.043811	-0.414055	1.003998
C94	C	-0.747234	-1.032100	0.385904
C95	C	-0.413901	-0.698767	0.719237
C96	C	-0.080567	-0.365433	1.052571
C97	C	-0.710481	-0.986539	0.431382
C98	C	-0.377148	-0.653205	0.764715
C99	C	-0.043814	-0.319872	1.098049
C100	C	-0.636977	-0.989601	0.428282
C101	C	-0.303644	-0.656268	0.761615
C102	C	0.029690	-0.322934	1.094949
C103	C	-0.967067	-1.017896	0.400221
C104	C	-0.633734	-0.684562	0.733554
C105	C	-0.300401	-0.351229	1.066887
C106	C	-1.040576	-1.014835	0.403315
C107	C	-0.707243	-0.681502	0.736649
C108	C	-0.373910	-0.348169	1.069982
C109	C	-1.040569	-1.109020	0.309265
C110	C	-0.707235	-0.775686	0.642598
C111	C	-0.373902	-0.442353	0.975932
C112	C	-0.967063	-1.112074	0.306166
C113	C	-0.633730	-0.778741	0.639500
C114	C	-0.300397	-0.445408	0.972833
C115	C	-0.930317	-1.066516	0.351647
C116	C	-0.596983	-0.733183	0.684980
C117	C	-0.263650	-0.399849	1.018314
N118	N	-0.822368	-1.028971	0.389075
N119	N	-0.489035	-0.695638	0.722409
N120	N	-0.155701	-0.362305	1.055742
N121	N	-0.855184	-1.069649	0.348479
N122	N	-0.521851	-0.736315	0.681812
N123	N	-0.188517	-0.402982	1.015145
C124	C	-0.155554	-1.057063	0.361105
C125	C	0.177779	-0.723730	0.694439
C126	C	0.511112	-0.390396	1.027772
C127	C	-0.077324	-1.060395	0.357842
C128	C	0.256009	-0.727061	0.691176
C129	C	0.589342	-0.393728	1.024509
C130	C	-0.339083	-1.049291	0.560714
C131	C	-0.005750	-0.715958	0.894047
C132	C	0.327583	-0.382625	1.227380
C133	C	-0.339063	-1.049311	0.642512
C134	C	-0.005729	-0.715978	0.975845
C135	C	0.327604	-0.382645	1.309178
C136	C	-0.339152	-0.241196	0.368777
C137	C	-0.005819	0.092137	0.702110
C138	C	0.327514	0.425470	1.035443
C139	C	-0.339141	-0.322996	0.368777
C140	C	-0.005808	0.010338	0.702110
C141	C	0.327525	0.343671	1.035444
C142	C	-0.339129	-1.049242	0.177556
C143	C	-0.005796	-0.715909	0.510890
C144	C	0.327537	-0.382575	0.844223
C145	C	-0.338952	-1.049373	0.095750
C146	C	-0.005618	-0.716040	0.429084
C147	C	0.327715	-0.382706	0.762417
C148	C	-0.294012	-1.098316	0.828831
C149	C	0.039321	-0.764983	1.162165
C150	C	0.372655	-0.431649	1.495498
C151	C	-0.293991	-1.098326	0.905689
C152	C	0.039342	-0.764992	1.239023
C153	C	0.372675	-0.431659	1.572356
C154	C	-0.384004	-1.000363	0.909425
C155	C	-0.050671	-0.667030	1.242759
C156	C	0.282662	-0.333696	1.576092
C157	C	-0.384021	-1.000350	0.832569
C158	C	-0.050687	-0.667017	1.165902
C159	C	0.282646	-0.333684	1.499235
C160	C	-0.339026	-1.049331	0.792274
C161	C	-0.005692	-0.715998	1.125607
C162	C	0.327641	-0.382664	1.458940
C163	C	-0.338989	-1.049353	0.945988
C164	C	-0.005655	-0.716020	1.279322
C165	C	0.327678	-0.382687	1.612655
C166	C	-0.338967	-1.049363	1.029321
C167	C	-0.005633	-0.716030	1.362655
C168	C	0.327700	-0.382697	1.695988
C169	C	-0.339046	-1.049320	0.708936
C170	C	-0.005713	-0.715987	1.042269
C171	C	0.327620	-0.382654	1.375602
H172	H	-0.607051	-1.123369	0.294671
H173	H	-0.273718	-0.790036	0.628005
H174	H	0.059616	-0.456703	0.961338
H175	H	-0.420639	-0.960486	0.942243
H176	H	-0.087306	-0.627153	1.275576
H177	H	0.246027	-0.293820	1.608910
H178	H	-0.257336	-1.138213	0.935451
H179	H	0.075998	-0.804880	1.268784
H180	H	0.409331	-0.471546	1.602118
H181	H	-0.257568	-0.483392	0.450885
H182	H	0.075765	-0.150058	0.784218
H183	H	0.409098	0.183275	1.117551
H184	H	-0.420686	-0.476411	0.286651
H185	H	-0.087353	-0.143077	0.619985
H186	H	0.245980	0.190256	0.953318
C187	C	-0.244510	-1.152190	0.784509
C188	C	0.088824	-0.818856	1.117843
C189	C	0.422157	-0.485523	1.451176
N190	N	-0.207221	-1.192767	0.751128
N191	N	0.126113	-0.859433	1.084461
N192	N	0.459446	-0.526100	1.417795
C193	C	-0.750898	-1.130836	0.287302
C194	C	-0.417564	-0.797503	0.620635
C195	C	-0.084231	-0.464170	0.953968
N196	N	-0.781341	-1.168584	0.249616
N197	N	-0.448008	-0.835251	0.582950
N198	N	-0.114674	-0.501917	0.916283
H199	H	-0.420681	-0.615852	0.286637
H200	H	-0.087348	-0.282519	0.619970
H201	H	0.245986	0.050814	0.953303
H202	H	-0.937138	-1.151666	0.266614
H203	H	-0.603805	-0.818333	0.599948
H204	H	-0.270471	-0.484999	0.933281
C205	C	-0.433540	-0.946458	0.792353
C206	C	-0.100207	-0.613125	1.125686
C207	C	0.233127	-0.279791	1.459020
N208	N	-0.470834	-0.905866	0.762062
N209	N	-0.137501	-0.572533	1.095396
N210	N	0.195833	-0.239200	1.428729
H211	H	-0.740413	-0.946953	0.470934
H212	H	-0.407080	-0.613620	0.804268
H213	H	-0.073747	-0.280286	1.137601
H214	H	-0.607058	-0.952503	0.465312
H215	H	-0.273724	-0.619169	0.798645
H216	H	0.059609	-0.285836	1.131979
H217	H	-1.070496	-1.146112	0.272238
H218	H	-0.737162	-0.812778	0.605571
H219	H	-0.403829	-0.479445	0.938905
C220	C	-0.244710	-0.634350	0.463813
C221	C	0.088623	-0.301017	0.797146
C222	C	0.421957	0.032316	1.130480
N223	N	-0.207453	-0.667775	0.501311
N224	N	0.125880	-0.334442	0.834645
N225	N	0.459214	-0.001109	1.167978
H226	H	-1.070501	-0.975250	0.442882
H227	H	-0.737168	-0.641917	0.776216
H228	H	-0.403834	-0.308584	1.109549
C229	C	-0.926656	-0.967817	0.450289
C230	C	-0.593322	-0.634483	0.783622
C231	C	-0.259989	-0.301150	1.116955
N232	N	-0.896215	-0.930109	0.488017
N233	N	-0.562882	-0.596776	0.821350
N234	N	-0.229548	-0.263442	1.154683
