data_functionalizedCrystal
_audit_creation_method	'MofGen! by Chris Wilmer'
_symmetry_space_group_name_H-M	'P1'
_symmetry_Int_Tables_number	1
_symmetry_cell_setting	triclinic
loop_
_symmetry_equiv_pos_as_xyz
  x,y,z
_cell_length_a	14.519709
_cell_length_b	11.792241
_cell_length_c	10.268362
_cell_angle_alpha	90.003760
_cell_angle_beta	90.002293
_cell_angle_gamma	83.936780
loop_
_atom_site_label
_atom_site_type_symbol
_atom_site_fract_x
_atom_site_fract_y
_atom_site_fract_z
O1	O	0.126399	1.506209	0.108277
O2	O	0.139427	1.175796	0.108286
O3	O	-0.001293	1.349763	0.108270
O4	O	0.267119	1.332242	0.108294
O5	O	-0.001289	1.349746	-0.108331
O6	O	0.139431	1.175779	-0.108315
O7	O	0.126404	1.506192	-0.108323
Cu8	Cu	0.132918	1.340984	-0.128096
Cu9	Cu	0.132912	1.341004	0.128059
O10	O	0.267124	1.332225	-0.108307
C11	C	-0.035654	1.348938	-0.000031
C12	C	-0.138044	1.346491	-0.000031
C13	C	0.127220	1.548487	-0.000021
C14	C	0.129669	1.674487	-0.000015
C15	C	0.138611	1.133501	-0.000013
C16	C	0.136161	1.007501	-0.000010
C17	C	-0.512973	1.337483	0.000003
C18	C	-0.408656	1.339984	-0.000007
C19	C	-0.325512	1.341987	-0.000016
C20	C	-0.221188	1.344489	-0.000023
C21	C	0.301484	1.333050	-0.000004
C22	C	0.403875	1.335497	0.000006
N23	N	0.132922	1.340978	-0.308262
C24	C	0.134173	1.905174	-0.000015
C25	C	0.131671	1.776803	-0.000016
C26	C	0.132922	1.340987	-0.426104
C27	C	0.132914	1.341001	-0.573942
N28	N	0.132902	1.341018	0.308225
