data_functionalizedCrystal
_audit_creation_method	'MofGen! by Chris Wilmer'
_symmetry_space_group_name_H-M	'P1'
_symmetry_Int_Tables_number	1
_symmetry_cell_setting	triclinic
loop_
_symmetry_equiv_pos_as_xyz
  x,y,z
_cell_length_a	15.625020
_cell_length_b	15.625429
_cell_length_c	18.366186
_cell_angle_alpha	71.918371
_cell_angle_beta	71.911013
_cell_angle_gamma	78.663779
loop_
_atom_site_label
_atom_site_type_symbol
_atom_site_fract_x
_atom_site_fract_y
_atom_site_fract_z
O1	O	1.196433	0.117682	-0.407564
O2	O	0.933959	0.131707	-0.341955
O3	O	1.072207	-0.006534	-0.341963
O4	O	1.058184	0.255923	-0.407556
O5	O	1.072193	-0.006537	-0.220859
O6	O	0.933944	0.131704	-0.220851
O7	O	1.196418	0.117678	-0.286460
Zn8	Zn	1.065179	0.124691	-0.234428
Zn9	Zn	1.065198	0.124695	-0.393988
O10	O	1.058170	0.255919	-0.286452
C11	C	0.900361	0.131071	-0.272365
C12	C	0.800271	0.129169	-0.245433
C13	C	0.659191	0.126485	-0.141463
C14	C	0.753240	0.128273	-0.166778
C15	C	0.753266	0.128273	-0.298802
C16	C	0.659215	0.126481	-0.273497
C17	C	0.612185	0.125588	-0.194827
C18	C	0.612209	0.125583	-0.326861
C19	C	0.518167	0.123796	-0.301559
C20	C	0.471129	0.122906	-0.222893
C21	C	0.518142	0.123801	-0.169525
C22	C	0.659241	0.126482	-0.405533
C23	C	0.612235	0.125585	-0.458897
C24	C	0.518191	0.123791	-0.433593
C25	C	0.471154	0.122901	-0.354927
C26	C	0.471179	0.122897	-0.486961
C27	C	0.377136	0.121110	-0.461659
C28	C	0.377111	0.121114	-0.329625
C29	C	1.071565	-0.040123	-0.272377
C30	C	1.069661	-0.140206	-0.245454
C31	C	1.063415	-0.469356	-0.486944
C32	C	1.061622	-0.563398	-0.461623
C33	C	1.061607	-0.563388	-0.329604
C34	C	1.063404	-0.469345	-0.354915
C35	C	1.064307	-0.422336	-0.433586
C36	C	1.064296	-0.422325	-0.301557
C37	C	1.066088	-0.328289	-0.326866
C38	C	1.066988	-0.281273	-0.405533
C39	C	1.066099	-0.328300	-0.458895
C40	C	1.063386	-0.469334	-0.222885
C41	C	1.064278	-0.422314	-0.169527
C42	C	1.066077	-0.328277	-0.194837
C43	C	1.066977	-0.281262	-0.273503
C44	C	1.066966	-0.281250	-0.141474
C45	C	1.068758	-0.187214	-0.166783
C46	C	1.068769	-0.187226	-0.298812
C47	C	1.230016	0.118315	-0.356051
C48	C	1.330106	0.120217	-0.382989
C49	C	1.058812	0.289509	-0.356040
C50	C	1.060716	0.389592	-0.382968
N51	N	1.065172	0.124687	-0.125534
N52	N	1.065212	0.124691	-0.502881
C53	C	1.126430	0.063495	0.458997
C54	C	1.126431	0.063497	0.382768
C55	C	1.065198	0.124687	0.344671
C56	C	1.003976	0.185895	0.382800
C57	C	1.003983	0.185897	0.459024
C58	C	0.983095	0.136360	0.242515
C59	C	0.983087	0.136351	0.166295
C60	C	1.065178	0.124685	0.109569
C61	C	1.147280	0.113008	0.129078
C62	C	1.147287	0.113010	0.205302
C63	C	1.065185	0.124692	0.262018
C64	C	1.126402	0.063488	-0.011209
C65	C	1.126404	0.063496	-0.087441
C66	C	1.003941	0.185889	-0.087404
C67	C	1.003947	0.185885	-0.011177
C68	C	1.065176	0.124680	0.026918
H69	H	0.479846	0.123085	-0.105466
F70	F	1.191598	-0.001641	0.499536
H71	H	0.338862	0.120381	-0.505114
F72	F	1.068898	-0.181191	-0.432469
H73	H	0.338815	0.120398	-0.265566
H74	H	1.176261	0.013653	0.019807
H75	H	1.176260	0.013665	-0.118483
F76	F	1.069711	-0.137170	-0.109994
H77	H	0.916235	0.145849	0.150421
H78	H	0.650539	0.126316	-0.522952
H79	H	1.176284	0.013662	0.351723
F80	F	0.371039	0.121009	-0.195964
F81	F	1.065989	-0.331290	-0.057746
F82	F	1.067073	-0.278266	-0.542629
F83	F	1.069743	-0.137192	-0.382546
H84	H	1.060888	-0.601677	-0.505078
H85	H	0.791507	0.129009	-0.123318
F86	F	0.938811	0.251020	0.342252
H87	H	0.620894	0.125769	-0.077404
H88	H	1.214137	0.103505	0.221181
H89	H	1.063539	-0.460601	-0.105472
F90	F	1.064389	-0.419322	-0.570678
H91	H	1.060868	-0.601675	-0.265549
H92	H	0.954088	0.235714	-0.118425
H93	H	1.061917	-0.545903	-0.202279
H94	H	1.214126	0.103515	0.082890
F95	F	0.938823	0.251033	0.499598
H96	H	0.791570	0.129003	-0.362857
H97	H	0.509484	0.123633	-0.551017
H98	H	0.954094	0.235713	0.019866
F99	F	0.759330	0.128387	-0.432461
H100	H	0.916243	0.145865	0.288697
