data_functionalizedCrystal
_audit_creation_method	'MofGen! by Chris Wilmer'
_symmetry_space_group_name_H-M	'P1'
_symmetry_Int_Tables_number	1
_symmetry_cell_setting	triclinic
loop_
_symmetry_equiv_pos_as_xyz
  x,y,z
_cell_length_a	13.897449
_cell_length_b	12.759400
_cell_length_c	12.759393
_cell_angle_alpha	90.030448
_cell_angle_beta	90.022452
_cell_angle_gamma	90.014517
loop_
_atom_site_label
_atom_site_type_symbol
_atom_site_fract_x
_atom_site_fract_y
_atom_site_fract_z
Zn1	Zn	-1.474719	0.418221	-0.594098
Zn2	Zn	-1.474623	0.593936	-0.418418
Zn3	Zn	-1.313409	0.418271	-0.418425
Zn4	Zn	-1.313398	0.593858	-0.594047
O5	O	-1.394037	0.506071	-0.506247
O6	O	-1.609688	0.441541	-0.570812
O7	O	-1.453201	0.570688	-0.271398
O8	O	-1.334852	0.271243	-0.441752
O9	O	-1.609617	0.570639	-0.441741
O10	O	-1.453366	0.271206	-0.570819
O11	O	-1.334759	0.441627	-0.271403
O12	O	-1.178426	0.441551	-0.441703
O13	O	-1.334834	0.570505	-0.741075
O14	O	-1.178418	0.570554	-0.570731
O15	O	-1.453355	0.441465	-0.741112
O16	O	-1.453191	0.740947	-0.441691
O17	O	-1.334740	0.740889	-0.570725
C18	C	-1.143423	0.506050	-0.506213
C19	C	-1.036209	0.506067	-0.506223
C20	C	-0.839914	0.506065	-0.506243
C21	C	-0.949146	0.506063	-0.506229
C22	C	-0.645630	0.506086	-0.506272
C23	C	-0.752844	0.506075	-0.506256
C24	C	-1.393980	0.779039	-0.506225
C25	C	-1.394044	0.895815	-0.506251
C26	C	-1.394104	0.505971	-0.780280
C27	C	-1.394132	0.505928	-0.897057
C28	C	-1.394121	0.232038	-0.506292
C29	C	-1.394157	0.115261	-0.506311
C30	C	-1.455789	0.950672	-0.439137
C31	C	-1.455849	1.060396	-0.439170
C32	C	-1.332408	1.060397	-0.573432
C33	C	-1.332355	0.950674	-0.573404
C34	C	-1.527054	0.950673	-0.361618
C35	C	-1.527113	1.060397	-0.361651
C36	C	-1.455808	0.573104	-0.951914
C37	C	-1.455837	0.573059	-1.061638
C38	C	-1.332506	0.438659	-1.061639
C39	C	-1.332482	0.438699	-0.951917
C40	C	-1.527010	0.650702	-0.951915
C41	C	-1.527039	0.650657	-1.061639
C42	C	-1.394026	0.506096	-0.233279
C43	C	-1.394185	0.505843	-0.116503
H44	H	-1.282085	0.906011	-0.628063
H45	H	-1.601736	0.920816	-0.383476
O46	O	-1.621065	0.612050	-1.106744
H47	H	-1.617207	0.613597	-1.193617
H48	H	-1.507008	0.732014	-1.091401
O49	O	-1.266028	0.366141	-1.120816
H50	H	-1.216941	0.413126	-1.170796
O51	O	-1.625962	0.621859	-0.912479
H52	H	-1.674424	0.607695	-0.980189
O53	O	-1.491653	0.905688	-0.259188
H54	H	-1.472930	0.970572	-0.204903
H55	H	-1.282184	1.105076	-0.628107
H56	H	-1.598087	1.094343	-0.390868
O57	O	-1.500680	1.099975	-0.253861
H58	H	-1.427932	1.071046	-0.232612
H59	H	-1.282268	0.383990	-0.907256
H60	H	-1.500228	0.728008	-0.917865
