data_functionalizedCrystal
_audit_creation_method	'MofGen! by Chris Wilmer'
_symmetry_space_group_name_H-M	'P1'
_symmetry_Int_Tables_number	1
_symmetry_cell_setting	triclinic
loop_
_symmetry_equiv_pos_as_xyz
  x,y,z
_cell_length_a	14.908571
_cell_length_b	12.759394
_cell_length_c	14.908308
_cell_angle_alpha	93.268403
_cell_angle_beta	90.175053
_cell_angle_gamma	86.711101
loop_
_atom_site_label
_atom_site_type_symbol
_atom_site_fract_x
_atom_site_fract_y
_atom_site_fract_z
Zn1	Zn	1.345341	-0.548282	-0.587592
Zn2	Zn	1.353935	-0.714462	-0.437236
Zn3	Zn	1.203654	-0.528102	-0.428590
Zn4	Zn	1.194963	-0.713213	-0.578887
O5	O	1.274473	-0.626015	-0.508076
O6	O	1.472308	-0.579294	-0.574908
O7	O	1.341234	-0.681818	-0.310264
O8	O	1.222490	-0.383762	-0.449706
O9	O	1.478622	-0.701385	-0.464442
O10	O	1.326587	-0.398588	-0.566525
O11	O	1.230824	-0.544900	-0.303912
O12	O	1.076675	-0.543690	-0.441266
O13	O	1.207676	-0.699258	-0.705867
O14	O	1.070289	-0.679690	-0.551688
O15	O	1.318159	-0.578083	-0.712262
O16	O	1.332806	-0.861313	-0.456001
O17	O	1.216010	-0.860396	-0.560072
C18	C	1.040856	-0.609365	-0.494595
C19	C	0.940913	-0.602270	-0.488849
C20	C	1.274420	-0.898977	-0.508051
C21	C	1.274478	-1.015759	-0.508075
C22	C	0.746516	-0.730752	-0.592880
C23	C	0.652610	-0.724088	-0.587484
C24	C	0.659192	-0.582274	-0.472666
C25	C	0.753098	-0.588938	-0.478062
C26	C	0.796757	-0.663180	-0.538170
C27	C	0.890665	-0.669848	-0.543561
C28	C	0.897246	-0.528030	-0.428748
C29	C	0.803340	-0.521366	-0.423352
C30	C	1.396180	-1.016672	-0.399798
C31	C	1.457053	-1.071992	-0.345671
C32	C	1.457105	-1.181719	-0.345698
C33	C	1.396278	-1.236129	-0.399860
C34	C	1.335404	-1.180809	-0.453987
C35	C	1.335358	-1.071079	-0.453952
C36	C	1.213709	-1.179897	-0.562269
C37	C	1.213651	-1.070169	-0.562238
C38	C	1.152882	-1.234306	-0.616431
C39	C	1.092002	-1.178986	-0.670555
C40	C	1.091953	-1.069252	-0.670524
C41	C	1.152778	-1.014849	-0.616365
C42	C	1.509002	-0.642730	-0.521611
C43	C	1.608945	-0.649853	-0.527378
C44	C	1.260989	-0.640782	-0.742602
C45	C	1.255243	-0.647075	-0.842543
C46	C	1.274549	-0.351989	-0.508122
C47	C	1.274582	-0.235216	-0.508142
C48	C	1.359488	-0.532697	-1.037003
C49	C	1.354092	-0.538606	-1.130907
C50	C	1.239051	-0.664798	-1.124254
C51	C	1.244447	-0.658888	-1.030351
C52	C	1.304669	-0.592837	-0.986729
C53	C	1.310069	-0.586934	-0.892824
C54	C	1.195024	-0.713118	-0.886173
C55	C	1.189627	-0.719028	-0.980077
C56	C	1.287956	-0.611232	-0.274466
C57	C	1.293877	-0.604656	-0.174536
H58	H	0.926210	-0.730302	-0.592502
H59	H	0.938162	-0.473010	-0.384197
C60	C	1.124102	-0.790597	-1.027385
C61	C	1.036452	-0.759939	-0.999430
C62	C	0.976066	-0.825839	-1.042997
H63	H	1.138012	-0.861185	-1.012777
H64	H	1.128675	-0.785492	-1.090516
H65	H	1.031882	-0.765054	-0.936313
H66	H	1.022513	-0.689361	-1.014038
H67	H	0.980639	-0.820734	-1.106128
H68	H	0.989985	-0.896424	-1.028386
H69	H	0.916589	-0.805041	-1.024042
C70	C	1.523043	-1.013036	-0.286715
C71	C	1.508665	-1.032826	-0.196623
C72	C	1.569445	-0.978549	-0.142289
H73	H	1.514358	-0.939744	-0.294328
H74	H	1.582717	-1.036103	-0.303352
H75	H	1.449005	-1.009754	-0.179991
H76	H	1.517357	-1.106107	-0.188981
H77	H	1.629119	-1.001615	-0.158926
H78	H	1.560755	-0.905260	-0.149910
H79	H	1.559703	-0.991976	-0.081157
H80	H	1.190021	-0.718573	-1.159788
H81	H	1.396133	-0.927325	-0.399758
H82	H	1.506677	-1.226761	-0.301628
C83	C	1.135544	-0.778297	-0.831428
C84	C	1.153143	-0.758972	-0.739853
C85	C	1.098365	-0.818987	-0.689395
H86	H	1.147753	-0.850822	-0.847459
H87	H	1.074231	-0.759575	-0.843279
H88	H	1.214442	-0.777701	-0.728008
H89	H	1.140929	-0.686459	-0.723795
H90	H	1.037052	-0.800265	-0.701246
H91	H	1.110579	-0.891509	-0.705433
H92	H	1.110293	-0.805876	-0.627256
C93	C	1.375333	-0.515039	-0.845502
C94	C	1.354443	-0.411134	-0.867214
C95	C	1.414536	-0.344869	-0.823632
H96	H	1.434895	-0.535540	-0.864339
H97	H	1.370693	-0.520057	-0.782367
H98	H	1.359092	-0.406120	-0.930336
H99	H	1.294892	-0.390601	-0.848375
H100	H	1.409896	-0.349887	-0.760497
H101	H	1.474094	-0.365379	-0.842473
H102	H	1.400365	-0.274361	-0.838351
C103	C	0.793755	-0.811390	-0.658223
C104	C	0.729655	-0.869129	-0.704995
C105	C	0.773136	-0.943414	-0.765205
H106	H	0.832356	-0.857632	-0.625964
H107	H	0.828122	-0.776366	-0.699612
H108	H	0.695303	-0.904153	-0.663612
H109	H	0.691051	-0.822916	-0.737271
H110	H	0.807503	-0.908389	-0.806594
H111	H	0.811736	-0.989648	-0.732940
H112	H	0.729651	-0.982592	-0.796953
C113	C	0.598006	-0.797282	-0.646991
C114	C	0.540812	-0.737704	-0.701625
C115	C	0.490506	-0.805095	-0.756465
H116	H	0.563263	-0.838251	-0.610525
H117	H	0.637427	-0.842433	-0.683612
H118	H	0.501395	-0.692572	-0.665008
H119	H	0.575531	-0.696737	-0.738109
H120	H	0.529927	-0.850246	-0.793086
H121	H	0.455768	-0.846061	-0.719993
H122	H	0.451699	-0.764682	-0.793547
H123	H	0.623629	-0.521823	-0.423735
C124	C	0.755770	-0.440866	-0.358123
C125	C	0.662778	-0.449504	-0.365093
C126	C	0.618932	-0.375373	-0.305008
H127	H	0.770305	-0.372173	-0.372204
H128	H	0.774565	-0.453427	-0.298547
H129	H	0.643991	-0.436935	-0.424655
H130	H	0.648218	-0.518181	-0.351003
H131	H	0.637726	-0.387934	-0.245432
H132	H	0.633473	-0.306685	-0.319095
H133	H	0.555833	-0.381230	-0.309723
C134	C	1.424758	-0.460814	-0.989675
C135	C	1.403885	-0.356904	-1.011381
C136	C	1.463986	-0.290655	-0.967791
H137	H	1.484319	-0.481325	-1.008509
H138	H	1.420112	-0.465837	-0.926541
H139	H	1.408540	-0.351885	-1.074502
H140	H	1.344335	-0.336360	-0.992546
H141	H	1.459339	-0.295678	-0.904656
H142	H	1.523543	-0.311176	-0.986628
H143	H	1.449827	-0.220144	-0.982505
H144	H	1.396332	-1.325475	-0.399886
H145	H	1.398730	-0.489631	-1.171837
H146	H	1.152931	-1.323652	-0.616454
H147	H	1.042486	-1.223296	-0.714653
H148	H	1.042386	-1.024217	-0.714605
H149	H	1.152738	-0.925503	-0.616329
