data_functionalizedCrystal
_audit_creation_method	'MofGen! by Chris Wilmer'
_symmetry_space_group_name_H-M	'P1'
_symmetry_Int_Tables_number	1
_symmetry_cell_setting	triclinic
loop_
_symmetry_equiv_pos_as_xyz
  x,y,z
_cell_length_a	18.101398
_cell_length_b	29.839131
_cell_length_c	18.101389
_cell_angle_alpha	89.971059
_cell_angle_beta	89.975673
_cell_angle_gamma	90.030494
loop_
_atom_site_label
_atom_site_type_symbol
_atom_site_fract_x
_atom_site_fract_y
_atom_site_fract_z
Zn1	Zn	1.132100	-0.178957	-0.418785
Zn2	Zn	1.131987	-0.254074	-0.294920
Zn3	Zn	1.008259	-0.178952	-0.294946
Zn4	Zn	1.008200	-0.254055	-0.418709
O5	O	1.070136	-0.216510	-0.356840
O6	O	1.235718	-0.188932	-0.402375
O7	O	1.115551	-0.244115	-0.191291
O8	O	1.024758	-0.116086	-0.311415
O9	O	1.235635	-0.244119	-0.311372
O10	O	1.115744	-0.116089	-0.402399
O11	O	1.024648	-0.188924	-0.191309
O12	O	0.904618	-0.188905	-0.311342
O13	O	1.024659	-0.244087	-0.522352
O14	O	0.904575	-0.244082	-0.402270
O15	O	1.115687	-0.188913	-0.522407
O16	O	1.115495	-0.316938	-0.311299
O17	O	1.024549	-0.316924	-0.402246
C18	C	0.877726	-0.216491	-0.356801
C19	C	0.795412	-0.216494	-0.356802
C20	C	0.496321	-0.216522	-0.356864
C21	C	0.527648	-0.181633	-0.299934
C22	C	0.613266	-0.181726	-0.299691
C23	C	0.644703	-0.216508	-0.356834
C24	C	0.613580	-0.263830	-0.335495
C25	C	0.527934	-0.263636	-0.335099
C26	C	0.527937	-0.204501	-0.435267
C27	C	0.613588	-0.203447	-0.434840
C28	C	0.728563	-0.216503	-0.356817
C29	C	0.412461	-0.216531	-0.356879
C30	C	1.070023	-0.333232	-0.356777
C31	C	1.070043	-0.383167	-0.356775
C32	C	1.117502	-0.692777	-0.404283
C33	C	1.117583	-0.880450	-0.404327
O34	O	1.157824	-0.904687	-0.444673
N35	N	1.070262	-0.903952	-0.356922
C36	C	1.022915	-0.880532	-0.309506
O37	O	0.982662	-0.904828	-0.269191
C38	C	1.022831	-0.692860	-0.309466
C39	C	1.070160	-0.669361	-0.356869
C40	C	1.164827	-0.669277	-0.451682
C41	C	1.164809	-0.622362	-0.451668
C42	C	1.117467	-0.598946	-0.404254
C43	C	1.070142	-0.622445	-0.356854
C44	C	0.975481	-0.669441	-0.262054
C45	C	0.975463	-0.622520	-0.262049
C46	C	1.022792	-0.599021	-0.309452
C47	C	1.022783	-0.552114	-0.309426
N48	N	1.070103	-0.528612	-0.356831
C49	C	1.117445	-0.552028	-0.404245
C50	C	1.022963	-0.979063	-0.309529
C51	C	1.022985	-1.025981	-0.309538
C52	C	1.117652	-1.025895	-0.404361
C53	C	1.117633	-0.978976	-0.404347
C54	C	1.070284	-0.955561	-0.356934
C55	C	1.117405	-0.453502	-0.404210
C56	C	1.117385	-0.406583	-0.404190
C57	C	1.022716	-0.406672	-0.309370
C58	C	1.022738	-0.453588	-0.309388
C59	C	1.070085	-0.477002	-0.356814
O60	O	0.982557	-0.527848	-0.269107
O61	O	1.157680	-0.527724	-0.444565
C62	C	1.117520	-0.739692	-0.404297
C63	C	1.070196	-0.763192	-0.356897
C64	C	1.022853	-0.739776	-0.309483
C65	C	1.070217	-0.810109	-0.356906
C66	C	1.117559	-0.833526	-0.404321
C67	C	1.164880	-0.810024	-0.451726
C68	C	1.164862	-0.763108	-0.451711
C69	C	0.975533	-0.763277	-0.262078
C70	C	0.975555	-0.810193	-0.262096
C71	C	1.022897	-0.833609	-0.309510
C72	C	1.263298	-0.216528	-0.356879
C73	C	1.345612	-0.216536	-0.356896
C74	C	1.070179	-0.216498	-0.550002
C75	C	1.070197	-0.216493	-0.632316
C76	C	1.070270	-0.099331	-0.356919
C77	C	1.070327	-0.049397	-0.356952
C78	C	1.070241	-0.216409	-0.931407
C79	C	1.012771	-0.251013	-0.900047
C80	C	1.012926	-0.251173	-0.814429
C81	C	1.070219	-0.216451	-0.783025
C82	C	1.148242	-0.229306	-0.814126
C83	C	1.147922	-0.229533	-0.899771
C84	C	1.050365	-0.168874	-0.899846
C85	C	1.048629	-0.169148	-0.814195
C86	C	1.070211	-0.216474	-0.699165
C87	C	1.070253	-0.216387	-1.015267
C88	C	1.070136	-0.216488	-0.164429
C89	C	1.070262	-0.216367	-0.082116
H90	H	0.506369	-0.170595	-0.454666
N91	N	1.168691	-1.051165	-0.455512
H92	H	1.157137	-1.042985	-0.508409
H93	H	1.221598	-1.042981	-0.444025
H94	H	0.634990	-0.227008	-0.479532
N95	N	1.215900	-0.737765	-0.502846
H96	H	1.250234	-0.718293	-0.472787
H97	H	1.245839	-0.759751	-0.532873
N98	N	1.170232	-0.275563	-0.926227
H99	H	1.129052	-0.288858	-0.956827
H100	H	1.216423	-0.273124	-0.957289
H101	H	0.954739	-0.243050	-0.920635
N102	N	0.971701	-0.478937	-0.258254
H103	H	0.941710	-0.456982	-0.228213
H104	H	0.937416	-0.498405	-0.288371
H105	H	1.155954	-0.472560	-0.442834
H106	H	0.507677	-0.229913	-0.477686
N107	N	1.105807	-0.134721	-0.926709
H108	H	1.143619	-0.149941	-0.959164
H109	H	1.079472	-0.110745	-0.955980
N110	N	0.501425	-0.277136	-0.259174
H111	H	0.470814	-0.252145	-0.237324
H112	H	0.470361	-0.305158	-0.263105
H113	H	0.633941	-0.290522	-0.375662
N114	N	0.971943	-1.051325	-0.258408
H115	H	1.002065	-1.070789	-0.224121
H116	H	0.941959	-1.029340	-0.228423
N117	N	1.206574	-0.197608	-0.927259
H118	H	1.206824	-0.197507	-0.983055
H119	H	1.195644	-0.166424	-0.908557
N120	N	1.029990	-0.297404	-0.928518
H121	H	1.074853	-0.296103	-0.961644
H122	H	1.040210	-0.318018	-0.885452
H123	H	0.936980	-0.744215	-0.223469
H124	H	0.984172	-0.387600	-0.270764
H125	H	1.155928	-0.387451	-0.442791
H126	H	1.026048	-0.286408	-0.793936
N127	N	0.640367	-0.192249	-0.222738
H128	H	0.596677	-0.196848	-0.188844
H129	H	0.671235	-0.220424	-0.223951
H130	H	0.634993	-0.274203	-0.278797
H131	H	1.192211	-0.204894	-0.793788
H132	H	1.165384	-0.263685	-0.792674
H133	H	0.507082	-0.146434	-0.313164
H134	H	0.633936	-0.168623	-0.450930
H135	H	0.994459	-0.157163	-0.921435
H136	H	1.203430	-0.829097	-0.490329
N137	N	0.936297	-0.240498	-0.786564
H138	H	0.902111	-0.235648	-0.829917
H139	H	0.917524	-0.266280	-0.755629
N140	N	0.972574	-0.156302	-0.787267
H141	H	0.952184	-0.181016	-0.755010
H142	H	0.975830	-0.127647	-0.757774
N143	N	0.498827	-0.192013	-0.223522
H144	H	0.514912	-0.223119	-0.208522
H145	H	0.519084	-0.169431	-0.187250
N146	N	1.100026	-0.133181	-0.785886
H147	H	1.138207	-0.147102	-0.752306
H148	H	1.125529	-0.118230	-0.828989
H149	H	1.203346	-0.603232	-0.490269
N150	N	0.641150	-0.135244	-0.317403
H151	H	0.597806	-0.114509	-0.325440
H152	H	0.672050	-0.123849	-0.274929
H153	H	0.936941	-0.688567	-0.223453
N154	N	0.500474	-0.299233	-0.387626
H155	H	0.544006	-0.314982	-0.410933
H156	H	0.469509	-0.321694	-0.359585
H157	H	1.203378	-0.688338	-0.490297
H158	H	1.156172	-0.959846	-0.442947
H159	H	0.984404	-0.960001	-0.270918
H160	H	0.936902	-0.603458	-0.223441
H161	H	0.937015	-0.829322	-0.223488
