data_functionalizedCrystal
_audit_creation_method	'MofGen! by Chris Wilmer'
_symmetry_space_group_name_H-M	'P1'
_symmetry_Int_Tables_number	1
_symmetry_cell_setting	triclinic
loop_
_symmetry_equiv_pos_as_xyz
  x,y,z
_cell_length_a	27.732048
_cell_length_b	26.210047
_cell_length_c	27.732048
_cell_angle_alpha	89.975290
_cell_angle_beta	97.357345
_cell_angle_gamma	90.015477
loop_
_atom_site_label
_atom_site_type_symbol
_atom_site_fract_x
_atom_site_fract_y
_atom_site_fract_z
O1	O	0.640937	0.042369	-0.057526
O2	O	0.890937	0.292369	0.192474
O3	O	1.140937	0.542369	0.442474
O4	O	1.390937	0.792369	0.692474
O5	O	0.500144	0.042385	-0.066272
O6	O	0.750144	0.292385	0.183728
O7	O	1.000144	0.542385	0.433728
O8	O	1.250144	0.792385	0.683728
O9	O	0.574913	0.042367	0.008498
O10	O	0.824913	0.292367	0.258498
O11	O	1.074913	0.542367	0.508498
O12	O	1.324913	0.792367	0.758498
O13	O	0.566168	0.042387	-0.132296
O14	O	0.816168	0.292387	0.117704
O15	O	1.066168	0.542387	0.367704
O16	O	1.316168	0.792387	0.617704
O17	O	0.574886	-0.042491	0.008518
O18	O	0.824886	0.207509	0.258518
O19	O	1.074886	0.457509	0.508518
O20	O	1.324886	0.707509	0.758518
O21	O	0.500117	-0.042473	-0.066251
O22	O	0.750117	0.207527	0.183749
O23	O	1.000117	0.457527	0.433749
O24	O	1.250117	0.707527	0.683749
O25	O	0.640910	-0.042489	-0.057506
O26	O	0.890910	0.207511	0.192494
O27	O	1.140910	0.457511	0.442494
O28	O	1.390910	0.707511	0.692494
Cu29	Cu	0.570511	-0.050229	-0.061876
Cu30	Cu	0.820511	0.199771	0.188124
Cu31	Cu	1.070511	0.449771	0.438124
Cu32	Cu	1.320511	0.699771	0.688124
Cu33	Cu	0.570543	0.050125	-0.061901
Cu34	Cu	0.820543	0.300125	0.188099
Cu35	Cu	1.070543	0.550125	0.438099
Cu36	Cu	1.320543	0.800125	0.688099
O37	O	0.566141	-0.042471	-0.132275
O38	O	0.816141	0.207529	0.117725
O39	O	1.066141	0.457529	0.367725
O40	O	1.316141	0.707529	0.617725
C41	C	0.482124	-0.000042	-0.066078
C42	C	0.732124	0.249958	0.183922
C43	C	0.982124	0.499958	0.433922
C44	C	1.232124	0.749958	0.683922
C45	C	0.428469	-0.000036	-0.065525
C46	C	0.678469	0.249964	0.184475
C47	C	0.928469	0.499964	0.434475
C48	C	1.178469	0.749964	0.684475
N49	N	0.570492	-0.120813	-0.061859
N50	N	0.820492	0.129187	0.188141
N51	N	1.070492	0.379187	0.438141
N52	N	1.320492	0.629187	0.688141
C53	C	0.574716	-0.000064	0.026515
C54	C	0.824716	0.249936	0.276515
C55	C	1.074716	0.499936	0.526515
C56	C	1.324716	0.749936	0.776515
C57	C	0.574164	-0.000068	0.080170
C58	C	0.824164	0.249932	0.330170
C59	C	1.074164	0.499932	0.580170
C60	C	1.324164	0.749932	0.830170
C61	C	0.089654	-0.000053	-0.106229
C62	C	0.339654	0.249947	0.143771
C63	C	0.589654	0.499947	0.393771
C64	C	0.839654	0.749947	0.643771
C65	C	-0.112006	-0.000057	-0.104178
C66	C	0.137994	0.249943	0.145822
C67	C	0.387994	0.499943	0.395822
C68	C	0.637994	0.749943	0.645822
O69	O	-0.143262	-0.000074	-0.141398
O70	O	0.106738	0.249926	0.108602
O71	O	0.356738	0.499926	0.358602
O72	O	0.606738	0.749926	0.608602
N73	N	-0.131130	-0.000063	-0.059843
N74	N	0.118870	0.249937	0.190157
N75	N	0.368870	0.499937	0.440157
N76	N	0.618870	0.749937	0.690157
C77	C	-0.099835	-0.000071	-0.016017
C78	C	0.150165	0.249929	0.233983
C79	C	0.400165	0.499929	0.483983
C80	C	0.650165	0.749929	0.733983
O81	O	-0.120728	-0.000081	0.021740
O82	O	0.129272	0.249919	0.271740
O83	O	0.379272	0.499919	0.521740
O84	O	0.629272	0.749919	0.771740
C85	C	0.101824	-0.000069	-0.018068
C86	C	0.351824	0.249931	0.231932
C87	C	0.601824	0.499931	0.481932
C88	C	0.851824	0.749931	0.731932
C89	C	0.120944	-0.000059	-0.062407
C90	C	0.370944	0.249941	0.187593
C91	C	0.620944	0.499941	0.437593
C92	C	0.870944	0.749941	0.687593
C93	C	0.108775	-0.000043	-0.150563
C94	C	0.358775	0.249957	0.099437
C95	C	0.608775	0.499957	0.349437
C96	C	0.858775	0.749957	0.599437
C97	C	0.159187	-0.000039	-0.151075
C98	C	0.409187	0.249961	0.098925
C99	C	0.659187	0.499961	0.348925
C100	C	0.909187	0.749961	0.598925
C101	C	0.190477	-0.000045	-0.107253
C102	C	0.440477	0.249955	0.142747
C103	C	0.690477	0.499955	0.392747
C104	C	0.940477	0.749955	0.642747
C105	C	0.171356	-0.000055	-0.062919
C106	C	0.421356	0.249945	0.187081
C107	C	0.671356	0.499945	0.437081
C108	C	0.921356	0.749945	0.687081
C109	C	0.133117	-0.000081	0.025757
C110	C	0.383117	0.249919	0.275757
C111	C	0.633117	0.499919	0.525757
C112	C	0.883117	0.749919	0.775757
C113	C	0.183534	-0.000082	0.025240
C114	C	0.433534	0.249918	0.275240
C115	C	0.683534	0.499918	0.525240
C116	C	0.933534	0.749918	0.775240
C117	C	0.202655	-0.000071	-0.019098
C118	C	0.452655	0.249929	0.230902
C119	C	0.702655	0.499929	0.480902
C120	C	0.952655	0.749929	0.730902
C121	C	0.253059	-0.000057	-0.019609
C122	C	0.503059	0.249943	0.230391
C123	C	0.753059	0.499943	0.480391
C124	C	1.003059	0.749943	0.730391
N125	N	0.272183	-0.000051	-0.063944
N126	N	0.522183	0.249949	0.186056
N127	N	0.772183	0.499949	0.436056
N128	N	1.022183	0.749949	0.686056
C129	C	0.240892	-0.000045	-0.107766
C130	C	0.490892	0.249955	0.142234
C131	C	0.740892	0.499955	0.392234
C132	C	0.990892	0.749955	0.642234
C133	C	-0.205709	-0.000070	-0.014943
C134	C	0.044291	0.249930	0.235057
C135	C	0.294291	0.499930	0.485057
C136	C	0.544291	0.749930	0.735057
C137	C	-0.256124	-0.000070	-0.014430
C138	C	-0.006124	0.249930	0.235570
C139	C	0.243876	0.499930	0.485570
C140	C	0.493876	0.749930	0.735570
C141	C	-0.268291	-0.000057	-0.102591
C142	C	-0.018291	0.249943	0.147409
C143	C	0.231709	0.499943	0.397409
C144	C	0.481709	0.749943	0.647409
C145	C	-0.217876	-0.000054	-0.103103
C146	C	0.032124	0.249946	0.146897
C147	C	0.282124	0.499946	0.396897
C148	C	0.532124	0.749946	0.646897
C149	C	-0.186585	-0.000065	-0.059278
C150	C	0.063415	0.249935	0.190722
C151	C	0.313415	0.499935	0.440722
C152	C	0.563415	0.749935	0.690722
C153	C	0.346761	-0.000036	-0.108839
C154	C	0.596761	0.249964	0.141161
C155	C	0.846761	0.499964	0.391161
C156	C	1.096761	0.749964	0.641161
C157	C	0.397178	-0.000030	-0.109347
C158	C	0.647178	0.249970	0.140653
C159	C	0.897178	0.499970	0.390653
C160	C	1.147178	0.749970	0.640653
C161	C	0.409341	-0.000045	-0.021186
C162	C	0.659341	0.249955	0.228814
C163	C	0.909341	0.499955	0.478814
C164	C	1.159341	0.749955	0.728814
C165	C	0.358929	-0.000049	-0.020678
C166	C	0.608929	0.249951	0.229322
C167	C	0.858929	0.499951	0.479322
C168	C	1.108929	0.749951	0.729322
C169	C	0.327639	-0.000046	-0.064508
C170	C	0.577639	0.249954	0.185492
C171	C	0.827639	0.499954	0.435492
C172	C	1.077639	0.749954	0.685492
O173	O	0.284343	-0.000046	0.017592
O174	O	0.534343	0.249954	0.267592
O175	O	0.784343	0.499954	0.517592
O176	O	1.034343	0.749954	0.767592
O177	O	0.261794	-0.000047	-0.145518
O178	O	0.511794	0.249953	0.104482
O179	O	0.761794	0.499953	0.354482
O180	O	1.011794	0.749953	0.604482
C181	C	0.039242	-0.000057	-0.105716
C182	C	0.289242	0.249943	0.144284
C183	C	0.539242	0.499943	0.394284
C184	C	0.789242	0.749943	0.644284
C185	C	0.020120	-0.000067	-0.061382
C186	C	0.270120	0.249933	0.188618
C187	C	0.520120	0.499933	0.438618
C188	C	0.770120	0.749933	0.688618
C189	C	0.051411	-0.000073	-0.017560
C190	C	0.301411	0.249927	0.232440
C191	C	0.551411	0.499927	0.482440
C192	C	0.801411	0.749927	0.732440
C193	C	-0.030294	-0.000066	-0.060869
C194	C	0.219706	0.249934	0.189131
C195	C	0.469706	0.499934	0.439131
C196	C	0.719706	0.749934	0.689131
C197	C	-0.061585	-0.000060	-0.104691
C198	C	0.188415	0.249940	0.145309
C199	C	0.438415	0.499940	0.395309
C200	C	0.688415	0.749940	0.645309
C201	C	-0.042461	-0.000054	-0.149026
C202	C	0.207539	0.249946	0.100974
C203	C	0.457539	0.499946	0.350974
C204	C	0.707539	0.749946	0.600974
C205	C	0.007951	-0.000050	-0.149539
C206	C	0.257951	0.249950	0.100461
C207	C	0.507951	0.499950	0.350461
C208	C	0.757951	0.749950	0.600461
C209	C	0.032287	-0.000078	0.026775
C210	C	0.282287	0.249922	0.276775
C211	C	0.532287	0.499922	0.526775
C212	C	0.782287	0.749922	0.776775
C213	C	-0.018125	-0.000082	0.027284
C214	C	0.231875	0.249918	0.277284
C215	C	0.481875	0.499918	0.527284
C216	C	0.731875	0.749918	0.777284
C217	C	-0.049416	-0.000076	-0.016538
C218	C	0.200584	0.249924	0.233462
C219	C	0.450584	0.499924	0.483462
C220	C	0.700584	0.749924	0.733462
C221	C	0.658931	-0.000061	-0.057699
C222	C	0.908931	0.249939	0.192301
C223	C	1.158931	0.499939	0.442301
C224	C	1.408931	0.749939	0.692301
C225	C	0.712586	-0.000064	-0.058252
C226	C	0.962586	0.249936	0.191748
C227	C	1.212586	0.499936	0.441748
C228	C	1.462586	0.749936	0.691748
C229	C	0.541439	-0.526792	-0.032762
C230	C	0.791439	-0.276792	0.217238
C231	C	1.041439	-0.026792	0.467238
C232	C	1.291439	0.223208	0.717238
C233	C	0.541418	-0.313133	-0.032750
C234	C	0.791418	-0.063133	0.217250
C235	C	1.041418	0.186867	0.467250
C236	C	1.291418	0.436867	0.717250
O237	O	0.516686	-0.285524	-0.007973
O238	O	0.766686	-0.035524	0.242027
O239	O	1.016686	0.214476	0.492027
O240	O	1.266686	0.464476	0.742027
N241	N	0.570510	-0.286397	-0.061865
N242	N	0.820510	-0.036397	0.188135
N243	N	1.070510	0.213603	0.438135
N244	N	1.320510	0.463603	0.688135
C245	C	0.599613	-0.313079	-0.090983
C246	C	0.849613	-0.063079	0.159017
C247	C	1.099613	0.186921	0.409017
C248	C	1.349613	0.436921	0.659017
O249	O	0.624361	-0.285436	-0.115743
O250	O	0.874361	-0.035436	0.134257
O251	O	1.124361	0.214564	0.384257
O252	O	1.374361	0.464564	0.634257
C253	C	0.599636	-0.526737	-0.090992
C254	C	0.849636	-0.276737	0.159008
C255	C	1.099636	-0.026737	0.409008
C256	C	1.349636	0.223263	0.659008
C257	C	0.570538	-0.553470	-0.061879
C258	C	0.820538	-0.303470	0.188121
C259	C	1.070538	-0.053470	0.438121
C260	C	1.320538	0.196530	0.688121
C261	C	0.512344	-0.553525	-0.003651
C262	C	0.762344	-0.303525	0.246349
C263	C	1.012344	-0.053525	0.496349
C264	C	1.262344	0.196475	0.746349
C265	C	0.512348	-0.606937	-0.003656
C266	C	0.762348	-0.356937	0.246344
C267	C	1.012348	-0.106937	0.496344
C268	C	1.262348	0.143063	0.746344
C269	C	0.541446	-0.633615	-0.032773
C270	C	0.791446	-0.383615	0.217227
C271	C	1.041446	-0.133615	0.467227
C272	C	1.291446	0.116385	0.717227
C273	C	0.570542	-0.606881	-0.061884
C274	C	0.820542	-0.356881	0.188116
C275	C	1.070542	-0.106881	0.438116
C276	C	1.320542	0.143119	0.688116
C277	C	0.628741	-0.553418	-0.120107
C278	C	0.878741	-0.303418	0.129893
C279	C	1.128741	-0.053418	0.379893
C280	C	1.378741	0.196582	0.629893
C281	C	0.628745	-0.606835	-0.120106
C282	C	0.878745	-0.356835	0.129894
C283	C	1.128745	-0.106835	0.379894
C284	C	1.378745	0.143165	0.629894
C285	C	0.599647	-0.633569	-0.090993
C286	C	0.849647	-0.383569	0.159007
C287	C	1.099647	-0.133569	0.409007
C288	C	1.349647	0.116431	0.659007
C289	C	0.599644	-0.686971	-0.091006
C290	C	0.849644	-0.436971	0.158994
C291	C	1.099644	-0.186971	0.408994
C292	C	1.349644	0.063029	0.658994
N293	N	0.570552	-0.713707	-0.061891
N294	N	0.820552	-0.463707	0.188109
N295	N	1.070552	-0.213707	0.438109
N296	N	1.320552	0.036293	0.688109
C297	C	0.541453	-0.687029	-0.032775
C298	C	0.791453	-0.437029	0.217225
C299	C	1.041453	-0.187029	0.467225
C300	C	1.291453	0.062971	0.717225
C301	C	0.599598	-0.200906	-0.090977
C302	C	0.849598	0.049094	0.159023
C303	C	1.099598	0.299094	0.409023
C304	C	1.349598	0.549094	0.659023
C305	C	0.599591	-0.147492	-0.090976
C306	C	0.849591	0.102508	0.159024
C307	C	1.099591	0.352508	0.409024
C308	C	1.349591	0.602508	0.659024
C309	C	0.541397	-0.147549	-0.032742
C310	C	0.791397	0.102451	0.217258
C311	C	1.041397	0.352451	0.467258
C312	C	1.291397	0.602451	0.717258
C313	C	0.541401	-0.200965	-0.032746
C314	C	0.791401	0.049035	0.217254
C315	C	1.041401	0.299035	0.467254
C316	C	1.291401	0.549035	0.717254
C317	C	0.570505	-0.227642	-0.061862
C318	C	0.820505	0.022358	0.188138
C319	C	1.070505	0.272358	0.438138
C320	C	1.320505	0.522358	0.688138
C321	C	0.541462	-0.799197	-0.032788
C322	C	0.791462	-0.549197	0.217212
C323	C	1.041462	-0.299197	0.467212
C324	C	1.291462	-0.049197	0.717212
C325	C	0.541467	-0.852613	-0.032798
C326	C	0.791467	-0.602613	0.217202
C327	C	1.041467	-0.352613	0.467202
C328	C	1.291467	-0.102613	0.717202
C329	C	0.599663	-0.852550	-0.091029
C330	C	0.849663	-0.602550	0.158971
C331	C	1.099663	-0.352550	0.408971
C332	C	1.349663	-0.102550	0.658971
C333	C	0.599657	-0.799139	-0.091022
C334	C	0.849657	-0.549139	0.158978
C335	C	1.099657	-0.299139	0.408978
C336	C	1.349657	-0.049139	0.658978
C337	C	0.570555	-0.772463	-0.061898
C338	C	0.820555	-0.522463	0.188102
C339	C	1.070555	-0.272463	0.438102
C340	C	1.320555	-0.022463	0.688102
O341	O	0.624367	-0.714613	-0.115767
O342	O	0.874367	-0.464613	0.134233
O343	O	1.124367	-0.214613	0.384233
O344	O	1.374367	0.035387	0.634233
O345	O	0.516717	-0.714681	-0.008010
O346	O	0.766717	-0.464681	0.241990
O347	O	1.016717	-0.214681	0.491990
O348	O	1.266717	0.035319	0.741990
C349	C	0.541436	-0.473380	-0.032757
C350	C	0.791436	-0.223380	0.217243
C351	C	1.041436	0.026620	0.467243
C352	C	1.291436	0.276620	0.717243
C353	C	0.570531	-0.446647	-0.061869
C354	C	0.820531	-0.196647	0.188131
C355	C	1.070531	0.053353	0.438131
C356	C	1.320531	0.303353	0.688131
C357	C	0.599630	-0.473325	-0.090985
C358	C	0.849630	-0.223325	0.159015
C359	C	1.099630	0.026675	0.409015
C360	C	1.349630	0.276675	0.659015
C361	C	0.570524	-0.393233	-0.061867
C362	C	0.820524	-0.143233	0.188133
C363	C	1.070524	0.106767	0.438133
C364	C	1.320524	0.356767	0.688133
C365	C	0.541426	-0.366555	-0.032750
C366	C	0.791426	-0.116555	0.217250
C367	C	1.041426	0.133445	0.467250
C368	C	1.291426	0.383445	0.717250
C369	C	0.512333	-0.393291	-0.003635
C370	C	0.762333	-0.143291	0.246365
C371	C	1.012333	0.106709	0.496365
C372	C	1.262333	0.356709	0.746365
C373	C	0.512337	-0.446702	-0.003640
C374	C	0.762337	-0.196702	0.246360
C375	C	1.012337	0.053298	0.496360
C376	C	1.262337	0.303298	0.746360
C377	C	0.628722	-0.446589	-0.120100
C378	C	0.878722	-0.196589	0.129900
C379	C	1.128722	0.053411	0.379900
C380	C	1.378722	0.303411	0.629900
C381	C	0.628716	-0.393178	-0.120093
C382	C	0.878716	-0.143178	0.129907
C383	C	1.128716	0.106822	0.379907
C384	C	1.378716	0.356822	0.629907
C385	C	0.599617	-0.366499	-0.090976
C386	C	0.849617	-0.116499	0.159024
C387	C	1.099617	0.133501	0.409024
C388	C	1.349617	0.383501	0.659024
N389	N	0.570566	0.120709	-0.061914
N390	N	0.820566	0.370709	0.188086
N391	N	1.070566	0.620709	0.438086
N392	N	1.320566	0.870709	0.688086
C393	C	0.566338	-0.000040	-0.150292
C394	C	0.816338	0.249960	0.099708
C395	C	1.066338	0.499960	0.349708
C396	C	1.316338	0.749960	0.599708
C397	C	0.566891	-0.000032	-0.203947
C398	C	0.816891	0.249968	0.046053
C399	C	1.066891	0.499968	0.296053
C400	C	1.316891	0.749968	0.546053
C401	C	0.614867	-0.000046	0.418985
C402	C	0.864867	0.249954	0.668985
C403	C	1.114867	0.499954	0.918985
C404	C	1.364867	0.749954	1.168985
C405	C	0.612816	-0.000039	0.620645
C406	C	0.862816	0.249961	0.870645
C407	C	1.112816	0.499961	1.120645
C408	C	1.362816	0.749961	1.370645
O409	O	0.650037	-0.000021	0.651900
O410	O	0.900037	0.249979	0.901900
O411	O	1.150037	0.499979	1.151900
O412	O	1.400037	0.749979	1.401900
N413	N	0.568481	-0.000034	0.639768
N414	N	0.818481	0.249966	0.889768
N415	N	1.068481	0.499966	1.139768
N416	N	1.318481	0.749966	1.389768
C417	C	0.524656	-0.000028	0.608474
C418	C	0.774656	0.249972	0.858474
C419	C	1.024656	0.499972	1.108474
C420	C	1.274656	0.749972	1.358474
O421	O	0.486899	-0.000019	0.629367
O422	O	0.736899	0.249981	0.879367
O423	O	0.986899	0.499981	1.129367
O424	O	1.236899	0.749981	1.379367
C425	C	0.526707	-0.000032	0.406815
C426	C	0.776707	0.249968	0.656815
C427	C	1.026707	0.499968	0.906815
C428	C	1.276707	0.749968	1.156815
C429	C	0.571045	-0.000042	0.387694
C430	C	0.821045	0.249958	0.637694
C431	C	1.071045	0.499958	0.887694
C432	C	1.321045	0.749958	1.137694
C433	C	0.659202	-0.000056	0.399864
C434	C	0.909202	0.249944	0.649864
C435	C	1.159202	0.499944	0.899864
C436	C	1.409202	0.749944	1.149864
C437	C	0.659714	-0.000060	0.349452
C438	C	0.909714	0.249940	0.599452
C439	C	1.159714	0.499940	0.849452
C440	C	1.409714	0.749940	1.099452
C441	C	0.615892	-0.000056	0.318161
C442	C	0.865892	0.249944	0.568161
C443	C	1.115892	0.499944	0.818161
C444	C	1.365892	0.749944	1.068161
C445	C	0.571557	-0.000046	0.337282
C446	C	0.821557	0.249954	0.587282
C447	C	1.071557	0.499954	0.837282
C448	C	1.321557	0.749954	1.087282
C449	C	0.482882	-0.000022	0.375521
C450	C	0.732882	0.249978	0.625521
C451	C	0.982882	0.499978	0.875521
C452	C	1.232882	0.749978	1.125521
C453	C	0.483399	-0.000022	0.325104
C454	C	0.733399	0.249978	0.575104
C455	C	0.983399	0.499978	0.825104
C456	C	1.233399	0.749978	1.075104
C457	C	0.527737	-0.000032	0.305983
C458	C	0.777737	0.249968	0.555983
C459	C	1.027737	0.499968	0.805983
C460	C	1.277737	0.749968	1.055983
C461	C	0.528247	-0.000046	0.255580
C462	C	0.778247	0.249954	0.505580
C463	C	1.028247	0.499954	0.755580
C464	C	1.278247	0.749954	1.005580
N465	N	0.572583	-0.000051	0.236456
N466	N	0.822583	0.249949	0.486456
N467	N	1.072583	0.499949	0.736456
N468	N	1.322583	0.749949	0.986456
C469	C	0.616405	-0.000056	0.267747
C470	C	0.866405	0.249944	0.517747
C471	C	1.116405	0.499944	0.767747
C472	C	1.366405	0.749944	1.017747
C473	C	0.523582	-0.000027	0.714348
C474	C	0.773582	0.249973	0.964348
C475	C	1.023582	0.499973	1.214348
C476	C	1.273582	0.749973	1.464348
C477	C	0.523069	-0.000027	0.764762
C478	C	0.773069	0.249973	1.014762
C479	C	1.023069	0.499973	1.264762
C480	C	1.273069	0.749973	1.514762
C481	C	0.611230	-0.000037	0.776930
C482	C	0.861230	0.249963	1.026930
C483	C	1.111230	0.499963	1.276930
C484	C	1.361230	0.749963	1.526930
C485	C	0.611742	-0.000041	0.726514
C486	C	0.861742	0.249959	0.976514
C487	C	1.111742	0.499959	1.226514
C488	C	1.361742	0.749959	1.476514
C489	C	0.567917	-0.000032	0.695224
C490	C	0.817917	0.249968	0.945224
C491	C	1.067917	0.499968	1.195224
C492	C	1.317917	0.749968	1.445224
C493	C	0.617477	-0.000066	0.161878
C494	C	0.867477	0.249934	0.411878
C495	C	1.117477	0.499934	0.661878
C496	C	1.367477	0.749934	0.911878
C497	C	0.617986	-0.000073	0.111461
C498	C	0.867986	0.249927	0.361461
C499	C	1.117986	0.499927	0.611461
C500	C	1.367986	0.749927	0.861461
C501	C	0.529825	-0.000060	0.099298
C502	C	0.779825	0.249940	0.349298
C503	C	1.029825	0.499940	0.599298
C504	C	1.279825	0.749940	0.849298
C505	C	0.529316	-0.000056	0.149710
C506	C	0.779316	0.249944	0.399710
C507	C	1.029316	0.499944	0.649710
C508	C	1.279316	0.749944	0.899710
C509	C	0.573146	-0.000057	0.180999
C510	C	0.823146	0.249943	0.430999
C511	C	1.073146	0.499943	0.680999
C512	C	1.323146	0.749943	0.930999
O513	O	0.491047	-0.000059	0.224296
O514	O	0.741047	0.249941	0.474296
O515	O	0.991047	0.499941	0.724296
O516	O	1.241047	0.749941	0.974296
O517	O	0.654156	-0.000054	0.246844
O518	O	0.904156	0.249946	0.496844
O519	O	1.154156	0.499946	0.746844
O520	O	1.404156	0.749946	0.996844
C521	C	0.614355	-0.000042	0.469397
C522	C	0.864355	0.249958	0.719397
C523	C	1.114355	0.499958	0.969397
C524	C	1.364355	0.749958	1.219397
C525	C	0.570021	-0.000033	0.488518
C526	C	0.820021	0.249967	0.738518
C527	C	1.070021	0.499967	0.988518
C528	C	1.320021	0.749967	1.238518
C529	C	0.526198	-0.000028	0.457228
C530	C	0.776198	0.249972	0.707228
C531	C	1.026198	0.499972	0.957228
C532	C	1.276198	0.749972	1.207228
C533	C	0.569508	-0.000033	0.538933
C534	C	0.819508	0.249967	0.788933
C535	C	1.069508	0.499967	1.038933
C536	C	1.319508	0.749967	1.288933
C537	C	0.613330	-0.000037	0.570223
C538	C	0.863330	0.249963	0.820223
C539	C	1.113330	0.499963	1.070223
C540	C	1.363330	0.749963	1.320223
C541	C	0.657665	-0.000042	0.551100
C542	C	0.907665	0.249958	0.801100
C543	C	1.157665	0.499958	1.051100
C544	C	1.407665	0.749958	1.301100
C545	C	0.658177	-0.000046	0.500688
C546	C	0.908177	0.249954	0.750688
C547	C	1.158177	0.499954	1.000688
C548	C	1.408177	0.749954	1.250688
C549	C	0.481863	-0.000023	0.476351
C550	C	0.731863	0.249977	0.726351
C551	C	0.981863	0.499977	0.976351
C552	C	1.231863	0.749977	1.226351
C553	C	0.481355	-0.000019	0.526764
C554	C	0.731355	0.249981	0.776764
C555	C	0.981355	0.499981	1.026764
C556	C	1.231355	0.749981	1.276764
C557	C	0.525177	-0.000024	0.558054
C558	C	0.775177	0.249976	0.808054
C559	C	1.025177	0.499976	1.058054
C560	C	1.275177	0.749976	1.308054
H561	H	0.412743	-0.000021	-0.145454
H562	H	0.662743	0.249979	0.104546
H563	H	0.912743	0.499979	0.354546
H564	H	1.162743	0.749979	0.604546
Br565	Br	0.718683	-0.000062	0.442321
Br566	Br	0.968683	0.249938	0.692321
Br567	Br	1.218683	0.499938	0.942321
Br568	Br	1.468683	0.749938	1.192321
H569	H	0.653168	-0.000065	0.187348
H570	H	0.903168	0.249935	0.437348
H571	H	1.153168	0.499935	0.687348
H572	H	1.403168	0.749935	0.937348
Br573	Br	0.066317	-0.000034	-0.210045
Br574	Br	0.316317	0.249966	0.039955
Br575	Br	0.566317	0.499966	0.289955
Br576	Br	0.816317	0.749966	0.539955
Br577	Br	0.225997	-0.000098	0.084721
Br578	Br	0.475997	0.249902	0.334721
Br579	Br	0.725997	0.499902	0.584721
Br580	Br	0.975997	0.749902	0.834721
Br581	Br	0.462893	-0.000026	0.790705
Br582	Br	0.712893	0.249974	1.040705
Br583	Br	0.962893	0.499974	1.290705
Br584	Br	1.212893	0.749974	1.540705
Br585	Br	-0.163250	-0.000084	0.044540
Br586	Br	0.086750	0.249916	0.294540
Br587	Br	0.336750	0.499916	0.544540
Br588	Br	0.586750	0.749916	0.794540
Br589	Br	0.107181	-0.000084	0.085934
Br590	Br	0.357181	0.249916	0.335934
Br591	Br	0.607181	0.499916	0.585934
Br592	Br	0.857181	0.749916	0.835934
H593	H	0.343360	-0.000050	0.015426
H594	H	0.593360	0.249950	0.265426
H595	H	0.843360	0.499950	0.515426
H596	H	1.093360	0.749950	0.765426
Br597	Br	0.670702	-0.000042	0.819405
Br598	Br	0.920702	0.249958	1.069405
Br599	Br	1.170702	0.499958	1.319405
Br600	Br	1.420702	0.749958	1.569405
Br601	Br	0.501910	-0.237240	0.006766
Br602	Br	0.751910	0.012760	0.256766
Br603	Br	1.001910	0.262760	0.506766
Br604	Br	1.251910	0.512760	0.756766
H605	H	-0.202311	-0.000049	-0.139207
H606	H	0.047689	0.249951	0.110793
H607	H	0.297689	0.499951	0.360793
H608	H	0.547689	0.749951	0.610793
Br609	Br	-0.282067	-0.000069	0.045745
Br610	Br	-0.032067	0.249931	0.295745
Br611	Br	0.217933	0.499931	0.545745
Br612	Br	0.467933	0.749931	0.795745
Br613	Br	0.717137	-0.000052	0.593575
Br614	Br	0.967137	0.249948	0.843575
Br615	Br	1.217137	0.499948	1.093575
Br616	Br	1.467137	0.749948	1.343575
H617	H	-0.067947	-0.000047	-0.184708
H618	H	0.182053	0.249953	0.065292
H619	H	0.432053	0.499953	0.315292
H620	H	0.682053	0.749953	0.565292
Br621	Br	0.421176	-0.000010	0.552706
Br622	Br	0.671176	0.249990	0.802706
Br623	Br	0.921176	0.499990	1.052706
Br624	Br	1.171176	0.749990	1.302706
Br625	Br	-0.044068	-0.000088	0.087463
Br626	Br	0.205932	0.249912	0.337463
Br627	Br	0.455932	0.499912	0.587463
Br628	Br	0.705932	0.749912	0.837463
Br629	Br	0.422384	-0.000015	0.433892
Br630	Br	0.672384	0.249985	0.683892
Br631	Br	0.922384	0.499985	0.933892
Br632	Br	1.172384	0.749985	1.183892
H633	H	0.487892	-0.000020	0.688875
H634	H	0.737892	0.249980	0.938875
H635	H	0.987892	0.499980	1.188875
H636	H	1.237892	0.749980	1.438875
H637	H	0.174750	-0.000030	-0.187180
H638	H	0.424750	0.249970	0.062820
H639	H	0.674750	0.499970	0.312820
H640	H	0.924750	0.749970	0.562820
Br641	Br	0.423918	-0.000008	0.282641
Br642	Br	0.673918	0.249992	0.532641
Br643	Br	0.923918	0.499992	0.782641
Br644	Br	1.173918	0.749992	1.032641
Br645	Br	0.668218	-0.482787	-0.159620
Br646	Br	0.918218	-0.232787	0.090380
Br647	Br	1.168218	0.017213	0.340380
Br648	Br	1.418218	0.267213	0.590380
H649	H	0.517765	-0.777484	-0.009073
H650	H	0.767765	-0.527484	0.240927
H651	H	1.017765	-0.277484	0.490927
H652	H	1.267765	-0.027484	0.740927
H653	H	0.488648	-0.531809	0.020062
H654	H	0.738648	-0.281809	0.270062
H655	H	0.988648	-0.031809	0.520062
H656	H	1.238648	0.218191	0.770062
H657	H	-0.293777	-0.000053	-0.138273
H658	H	-0.043777	0.249947	0.111727
H659	H	0.206223	0.499947	0.361727
H660	H	0.456223	0.749947	0.611727
Br661	Br	0.472857	-0.643209	0.035858
Br662	Br	0.722857	-0.393209	0.285858
Br663	Br	0.972857	-0.143209	0.535858
Br664	Br	1.222857	0.106791	0.785858
H665	H	0.517702	-0.125819	-0.009035
H666	H	0.767702	0.124181	0.240965
H667	H	1.017702	0.374181	0.490965
H668	H	1.267702	0.624181	0.740965
H669	H	0.434827	-0.000048	0.014492
H670	H	0.684827	0.249952	0.264492
H671	H	0.934827	0.499952	0.514492
H672	H	1.184827	0.749952	0.764492
Br673	Br	0.639071	-0.111217	-0.130500
Br674	Br	0.889071	0.138783	0.119500
Br675	Br	1.139071	0.388783	0.369500
Br676	Br	1.389071	0.638783	0.619500
H677	H	0.647846	-0.000048	0.710950
H678	H	0.897846	0.249952	0.960950
H679	H	1.147846	0.499952	1.210950
H680	H	1.397846	0.749952	1.460950
H681	H	0.694282	-0.000054	0.485125
H682	H	0.944282	0.249946	0.735125
H683	H	1.194282	0.499946	0.985125
H684	H	1.444282	0.749946	1.235125
Br685	Br	0.501972	-0.888891	0.006713
Br686	Br	0.751972	-0.638891	0.256713
Br687	Br	1.001972	-0.388891	0.506713
Br688	Br	1.251972	-0.138891	0.756713
Br689	Br	0.472839	-0.357074	0.035877
Br690	Br	0.722839	-0.107074	0.285877
Br691	Br	0.972839	0.142926	0.535877
Br692	Br	1.222839	0.392926	0.785877
Br693	Br	0.639098	-0.237103	-0.130497
Br694	Br	0.889098	0.012897	0.119503
Br695	Br	1.139098	0.262897	0.369503
Br696	Br	1.389098	0.512897	0.619503
H697	H	0.446777	-0.000011	0.391080
H698	H	0.696777	0.249989	0.641080
H699	H	0.946777	0.499989	0.891080
H700	H	1.196777	0.749989	1.141080
Br701	Br	0.668248	-0.643037	-0.159620
Br702	Br	0.918248	-0.393037	0.090380
Br703	Br	1.168248	-0.143037	0.340380
Br704	Br	1.418248	0.106963	0.590380
Br705	Br	0.639153	-0.762857	-0.130527
Br706	Br	0.889153	-0.512857	0.119473
Br707	Br	1.139153	-0.262857	0.369473
Br708	Br	1.389153	-0.012857	0.619473
H709	H	0.623354	-0.874281	-0.114737
H710	H	0.873354	-0.624281	0.135263
H711	H	1.123354	-0.374281	0.385263
H712	H	1.373354	-0.124281	0.635263
H713	H	0.023514	-0.000042	-0.185643
H714	H	0.273514	0.249958	0.064357
H715	H	0.523514	0.499958	0.314357
H716	H	0.773514	0.749958	0.564357
Br717	Br	0.719890	-0.000059	0.323510
Br718	Br	0.969890	0.249941	0.573510
Br719	Br	1.219890	0.499941	0.823510
Br720	Br	1.469890	0.749941	1.073510
H721	H	0.493213	-0.000062	0.165279
H722	H	0.743213	0.249938	0.415279
H723	H	0.993213	0.499938	0.665279
H724	H	1.243213	0.749938	0.915279
Br725	Br	0.668202	-0.356903	-0.159616
Br726	Br	0.918202	-0.106903	0.090384
Br727	Br	1.168202	0.143097	0.340384
Br728	Br	1.418202	0.393097	0.590384
Br729	Br	0.472843	-0.482975	0.035872
Br730	Br	0.722843	-0.232975	0.285872
Br731	Br	0.972843	0.017025	0.535872
Br732	Br	1.222843	0.267025	0.785872
H733	H	0.654093	-0.000082	0.095896
H734	H	0.904093	0.249918	0.345896
H735	H	1.154093	0.499918	0.595896
H736	H	1.404093	0.749918	0.845896
Br737	Br	0.470355	-0.000054	0.056822
Br738	Br	0.720355	0.249946	0.306822
Br739	Br	0.970355	0.499946	0.556822
Br740	Br	1.220355	0.749946	0.806822
H741	H	0.321291	-0.000036	-0.144529
H742	H	0.571291	0.249964	0.105471
H743	H	0.821291	0.499964	0.355471
H744	H	1.071291	0.749964	0.605471
H745	H	0.057760	-0.000085	0.062462
H746	H	0.307760	0.249915	0.312462
H747	H	0.557760	0.499915	0.562462
H748	H	0.807760	0.749915	0.812462
H749	H	0.652437	-0.531660	-0.143814
H750	H	0.902437	-0.281660	0.106186
H751	H	1.152437	-0.031660	0.356186
H752	H	1.402437	0.218340	0.606186
