data_functionalizedCrystal
_audit_creation_method	'MofGen! by Chris Wilmer'
_symmetry_space_group_name_H-M	'P1'
_symmetry_Int_Tables_number	1
_symmetry_cell_setting	triclinic
loop_
_symmetry_equiv_pos_as_xyz
  x,y,z
_cell_length_a	9.065215
_cell_length_b	19.188930
_cell_length_c	17.666332
_cell_angle_alpha	89.986373
_cell_angle_beta	90.009271
_cell_angle_gamma	84.079739
loop_
_atom_site_label
_atom_site_type_symbol
_atom_site_fract_x
_atom_site_fract_y
_atom_site_fract_z
O1	O	1.956823	0.102366	-0.062950
O2	O	1.527247	0.110765	-0.062954
O3	O	1.754432	0.005006	-0.062937
O4	O	1.729638	0.208125	-0.062967
O5	O	1.754471	0.004992	0.062960
O6	O	1.527286	0.110751	0.062943
O7	O	1.956863	0.102352	0.062947
Cu8	Cu	1.742078	0.106550	0.074440
Cu9	Cu	1.742031	0.106567	-0.074447
O10	O	1.729678	0.208111	0.062930
C11	C	1.472308	0.109951	-0.000006
C12	C	1.308548	0.107539	-0.000007
C13	C	1.753648	-0.021018	0.000014
C14	C	1.751238	-0.098541	0.000020
C15	C	2.011802	0.103166	-0.000003
C16	C	2.175561	0.105578	-0.000007
C17	C	1.884543	-0.142430	0.000025
C18	C	1.882279	-0.215272	0.000013
C19	C	1.746702	-0.244221	0.000011
C20	C	1.613380	-0.200322	0.000002
C21	C	1.615648	-0.127482	0.000007
N22	N	1.643083	-0.353035	0.042855
N23	N	1.640938	-0.422230	0.042852
C24	C	1.739860	-0.463683	-0.000004
N25	N	1.841032	-0.433327	-0.042849
N26	N	1.843182	-0.364125	-0.042843
C27	C	1.744228	-0.323202	0.000006
C28	C	1.870719	-0.586555	-0.000014
C29	C	1.868449	-0.659397	-0.000030
C30	C	1.599546	-0.644446	-0.000034
C31	C	1.601820	-0.571605	-0.000025
C32	C	1.737410	-0.542664	-0.000011
C33	C	1.730461	0.234135	-0.000022
C34	C	1.732871	0.311659	-0.000034
N35	N	1.741999	0.106573	-0.179166
C36	C	1.831013	0.149588	-0.218786
C37	C	1.831023	0.149589	-0.298034
C38	C	1.742036	0.106562	-0.337659
C39	C	1.653004	0.063544	-0.298029
C40	C	1.652986	0.063550	-0.218783
N41	N	1.738753	0.045349	-0.462063
N42	N	1.738779	0.045345	-0.537343
C43	C	1.742083	0.106543	-0.576423
N44	N	1.745390	0.167746	-0.537378
N45	N	1.745372	0.167749	-0.462090
C46	C	1.742045	0.106551	-0.423588
C47	C	1.831112	0.149563	-0.701972
C48	C	1.831111	0.149565	-0.781221
C49	C	1.653101	0.063514	-0.781215
C50	C	1.653093	0.063518	-0.701967
C51	C	1.742107	0.106542	-0.662350
N52	N	1.742121	0.106538	0.179160
H53	H	1.990835	-0.251013	0.000014
H54	H	1.580638	0.028485	-0.813477
H55	H	1.502992	-0.223897	-0.000001
H56	H	1.493268	-0.535870	-0.000024
H57	H	1.977006	-0.695132	-0.000031
C58	C	1.887821	0.266976	-0.805635
C59	C	1.928963	0.196854	-0.824770
H60	H	1.948240	0.296169	-0.832517
H61	H	1.786792	0.279193	-0.818643
H62	H	1.900552	0.273122	-0.752766
H63	H	1.916221	0.190706	-0.877638
H64	H	2.030016	0.184632	-0.811766
H65	H	1.903492	0.184622	-0.186535
H66	H	1.580616	0.028488	-0.669709
H67	H	1.580498	0.028521	-0.186525
C68	C	1.462183	-0.036878	-0.064711
C69	C	1.469107	-0.079236	0.000004
H70	H	1.371709	-0.007096	-0.064713
H71	H	1.543243	-0.009218	-0.064699
H72	H	1.466877	-0.065598	-0.108612
H73	H	1.464424	-0.050516	0.043905
H74	H	1.388025	-0.106899	-0.000001
H75	H	1.981125	-0.562990	-0.000006
C76	C	2.150111	-0.164531	0.000031
C77	C	2.033582	-0.110619	0.000032
H78	H	2.242120	-0.144889	0.000030
H79	H	2.143643	-0.192639	0.043930
H80	H	2.143610	-0.192619	-0.043876
H81	H	2.040077	-0.082534	0.043942
H82	H	2.040053	-0.082499	-0.043871
H83	H	1.489157	-0.668016	-0.000039
C84	C	2.007007	0.234633	-0.290088
C85	C	1.928882	0.196870	-0.341596
H86	H	2.067428	0.263817	-0.316981
H87	H	1.938834	0.262746	-0.259201
H88	H	2.067763	0.202942	-0.259156
H89	H	1.868118	0.228560	-0.372524
H90	H	1.997064	0.168754	-0.372495
H91	H	1.580548	0.028513	-0.330297
H92	H	1.903585	0.184598	-0.669714
