data_functionalizedCrystal
_audit_creation_method	'MofGen! by Chris Wilmer'
_symmetry_space_group_name_H-M	'P1'
_symmetry_Int_Tables_number	1
_symmetry_cell_setting	triclinic
loop_
_symmetry_equiv_pos_as_xyz
  x,y,z
_cell_length_a	12.759401
_cell_length_b	12.759399
_cell_length_c	12.759393
_cell_angle_alpha	89.971485
_cell_angle_beta	90.019377
_cell_angle_gamma	89.969318
loop_
_atom_site_label
_atom_site_type_symbol
_atom_site_fract_x
_atom_site_fract_y
_atom_site_fract_z
Zn1	Zn	1.606151	0.418157	0.594028
Zn2	Zn	1.606002	0.593875	0.418358
Zn3	Zn	1.430453	0.418216	0.418365
Zn4	Zn	1.430398	0.593799	0.593997
O5	O	1.518251	0.506012	0.506187
O6	O	1.753152	0.441473	0.570735
O7	O	1.582675	0.570631	0.271338
O8	O	1.453846	0.271187	0.441683
O9	O	1.753043	0.570573	0.441671
O10	O	1.582930	0.271143	0.570743
O11	O	1.453701	0.441575	0.271343
O12	O	1.283425	0.441501	0.441653
O13	O	1.453752	0.570443	0.741022
O14	O	1.283384	0.570501	0.570688
O15	O	1.582877	0.441399	0.741045
O16	O	1.582622	0.740886	0.441640
O17	O	1.453607	0.740830	0.570681
C18	C	1.245284	0.506000	0.506168
C19	C	1.128507	0.506020	0.506185
C20	C	0.963983	0.438915	0.573505
C21	C	1.073707	0.438912	0.573494
C22	C	1.073577	0.573143	0.438892
C23	C	0.963855	0.573150	0.438909
C24	C	0.964059	0.361415	0.651213
C25	C	1.073783	0.361412	0.651202
C26	C	1.518121	0.778979	0.506179
C27	C	1.518161	0.895756	0.506211
C28	C	1.451028	0.950724	0.438978
C29	C	1.451074	1.060448	0.438998
C30	C	1.585389	1.060226	0.573493
C31	C	1.585348	0.950504	0.573468
C32	C	1.373478	0.950853	0.361331
C33	C	1.373525	1.060577	0.361351
C34	C	1.792284	0.506025	0.506206
C35	C	1.909061	0.506030	0.506214
C36	C	1.518325	0.505906	0.780220
C37	C	1.518356	0.505861	0.896997
C38	C	1.518353	1.231979	0.506224
C39	C	1.518249	1.115202	0.506257
C40	C	1.518238	0.506042	0.233220
C41	C	1.518410	0.505791	0.116443
C42	C	1.585601	0.438661	0.951873
C43	C	1.585626	0.438623	1.061597
C44	C	1.451158	0.572993	1.061560
C45	C	1.451129	0.573025	0.951838
C46	C	1.663238	0.361087	0.951895
C47	C	1.663263	0.361049	1.061620
H48	H	0.919142	0.627811	0.384124
H49	H	0.930048	0.284090	0.622202
H50	H	0.934313	0.383300	0.732553
H51	H	1.641489	0.279723	0.922135
Cl52	Cl	1.618193	0.241753	1.114189
H53	H	1.740502	0.390253	0.917862
H54	H	1.744628	0.382839	1.091400
H55	H	1.118204	0.627791	0.384096
Cl56	Cl	1.418603	1.113171	0.242064
H57	H	1.396368	0.627742	0.907162
Cl58	Cl	1.126369	0.406545	0.770456
Cl59	Cl	1.119811	0.235748	0.617748
Cl60	Cl	1.669761	0.881405	0.657980
H61	H	1.292157	1.090415	0.383093
Cl62	Cl	1.669848	1.129060	0.658039
Cl63	Cl	1.366649	0.657424	1.130510
Cl64	Cl	1.407173	0.904934	0.235725
Cl65	Cl	1.254106	0.898377	0.406221
