data_functionalizedCrystal
_audit_creation_method	'MofGen! by Chris Wilmer'
_symmetry_space_group_name_H-M	'P1'
_symmetry_Int_Tables_number	1
_symmetry_cell_setting	triclinic
loop_
_symmetry_equiv_pos_as_xyz
  x,y,z
_cell_length_a	15.995292
_cell_length_b	27.731996
_cell_length_c	15.072220
_cell_angle_alpha	89.992847
_cell_angle_beta	89.986330
_cell_angle_gamma	83.045002
loop_
_atom_site_label
_atom_site_type_symbol
_atom_site_fract_x
_atom_site_fract_y
_atom_site_fract_z
O1	O	1.110202	0.062169	-0.073818
O2	O	0.866317	0.069892	-0.073816
O3	O	0.995857	-0.004336	-0.073798
O4	O	0.980662	0.136397	-0.073836
O5	O	0.995825	-0.004332	0.073767
O6	O	0.866285	0.069897	0.073749
O7	O	1.110170	0.062173	0.073747
Zn8	Zn	0.988223	0.066036	0.097177
Zn9	Zn	0.988265	0.066030	-0.097246
O10	O	0.980630	0.136402	0.073729
C11	C	0.835110	0.069580	-0.000033
C12	C	0.742170	0.068638	-0.000032
C13	C	0.404477	0.065173	-0.000041
C14	C	0.427079	0.118749	-0.000385
C15	C	0.523741	0.119768	-0.000049
C16	C	0.572010	0.066892	-0.000037
C17	C	0.543245	0.040109	0.084235
C18	C	0.446463	0.039464	0.084302
C19	C	0.446659	0.038366	-0.083507
C20	C	0.543125	0.040351	-0.084618
C21	C	0.666693	0.067861	-0.000031
C22	C	0.309794	0.064203	-0.000040
C23	C	0.995529	-0.022343	-0.000013
C24	C	0.994589	-0.076003	-0.000004
C25	C	0.988691	-0.408746	-0.080485
C26	C	0.985121	-0.610419	-0.080500
O27	O	0.984638	-0.636494	-0.148910
N28	N	0.984660	-0.635636	-0.000063
C29	C	0.985086	-0.610431	0.080383
O30	O	0.984604	-0.636506	0.148800
C31	C	0.988650	-0.408758	0.080398
C32	C	0.989120	-0.383545	-0.000044
C33	C	0.989159	-0.383532	-0.160920
C34	C	0.990056	-0.333118	-0.160916
C35	C	0.990485	-0.307916	-0.080475
C36	C	0.990017	-0.333130	-0.000039
C37	C	0.989071	-0.383554	0.160844
C38	C	0.989960	-0.333132	0.160840
C39	C	0.990429	-0.307919	0.080398
C40	C	0.991343	-0.257514	0.080406
N41	N	0.991803	-0.232297	-0.000031
C42	C	0.991375	-0.257498	-0.080472
C43	C	0.983217	-0.716312	0.080370
C44	C	0.982327	-0.766730	0.080367
C45	C	0.982360	-0.766715	-0.080517
C46	C	0.983256	-0.716296	-0.080513
C47	C	0.983678	-0.691095	-0.000067
C48	C	0.993259	-0.151623	-0.080456
C49	C	0.994160	-0.101204	-0.080444
C50	C	0.994122	-0.101223	0.080439
C51	C	0.993226	-0.151638	0.080428
C52	C	0.992792	-0.176837	-0.000027
O53	O	0.991816	-0.231407	0.148779
O54	O	0.991838	-0.231413	-0.148878
C55	C	0.987794	-0.459161	-0.080489
C56	C	0.987326	-0.484375	-0.000054
C57	C	0.987754	-0.459173	0.080387
C58	C	0.986436	-0.534793	-0.000057
C59	C	0.986007	-0.559994	-0.080497
C60	C	0.986468	-0.534777	-0.160934
C61	C	0.987365	-0.484362	-0.160930
C62	C	0.987294	-0.484390	0.160824
C63	C	0.986397	-0.534805	0.160813
C64	C	0.985969	-0.560006	0.080372
C65	C	1.141377	0.062486	-0.000038
C66	C	1.234318	0.063428	-0.000046
C67	C	0.980958	0.154408	-0.000059
C68	C	0.981899	0.208068	-0.000074
N69	N	0.988200	0.066039	0.229866
N70	N	0.988294	0.066023	-0.229935
C71	C	0.988263	0.066028	0.589067
C72	C	0.918720	0.105613	0.551451
C73	C	0.918876	0.105758	0.448625
C74	C	0.988231	0.066034	0.410863
C75	C	1.075452	0.077039	0.448150
C76	C	1.075062	0.077320	0.551008
C77	C	0.971365	0.015321	0.551182
C78	C	0.969356	0.015659	0.448318
C79	C	0.988218	0.066036	0.310150
C80	C	0.988281	0.066027	0.689781
H81	H	0.398822	0.139398	-0.060820
H82	H	0.853654	0.099166	0.576215
C83	C	1.147023	0.039857	0.584631
H84	H	1.147269	0.039774	0.647662
H85	H	1.199326	0.048200	0.563419
H86	H	1.138860	0.008483	0.563561
H87	H	0.929288	0.143031	0.577279
H88	H	0.575629	0.001200	0.087377
C89	C	0.990424	-0.305412	0.249331
H90	H	0.991018	-0.271772	0.237819
H91	H	1.039114	-0.317373	0.282386
H92	H	0.941415	-0.309982	0.282374
H93	H	0.987644	-0.463876	0.226329
H94	H	1.090054	0.114301	0.574979
H95	H	0.542502	0.140741	-0.060460
H96	H	0.397775	0.139287	0.059700
C97	C	0.933362	0.156590	0.415353
H98	H	0.939183	0.177231	0.464700
H99	H	0.886688	0.169728	0.380372
H100	H	0.983170	0.154171	0.380471
C101	C	0.408212	0.061037	-0.169796
H102	H	0.366071	0.087067	-0.155722
H103	H	0.383774	0.037100	-0.202697
H104	H	0.451076	0.072943	-0.204194
C105	C	0.983764	-0.688565	-0.168998
H106	H	0.983377	-0.710799	-0.216902
H107	H	1.032956	-0.672589	-0.172346
H108	H	0.935256	-0.665205	-0.172344
H109	H	0.988807	-0.404046	-0.226428
C110	C	0.831261	0.096911	0.414566
H111	H	0.795250	0.093199	0.463593
H112	H	0.836234	0.068270	0.379436
H113	H	0.808235	0.123818	0.379670
H114	H	0.541851	0.140873	0.060452
H115	H	0.419387	0.058017	0.147287
H116	H	0.576608	0.001757	-0.089699
H117	H	0.981958	-0.787256	0.145871
H118	H	0.563044	0.058712	0.146940
C119	C	0.427504	-0.013599	0.089492
H120	H	0.478931	-0.034667	0.091558
H121	H	0.396272	-0.020940	0.038681
H122	H	0.395626	-0.017928	0.141458
H123	H	0.433189	-0.001070	-0.084068
H124	H	0.561449	0.059852	-0.146961
H125	H	0.982012	-0.787242	-0.146015
C126	C	0.985992	-0.562505	-0.249416
H127	H	0.985385	-0.596141	-0.237889
H128	H	1.034990	-0.557939	-0.282476
H129	H	0.937291	-0.550546	-0.282463
C130	C	0.985879	-0.562534	0.249305
H131	H	0.986254	-0.540299	0.297209
H132	H	1.034371	-0.585901	0.252661
H133	H	0.936672	-0.578502	0.252644
C134	C	0.887341	0.001031	0.586259
H135	H	0.861778	0.025860	0.624341
H136	H	0.897516	-0.028597	0.618301
H137	H	0.850882	-0.002973	0.537768
C138	C	0.994671	-0.073472	-0.168934
H139	H	0.994278	-0.095704	-0.216840
H140	H	1.043867	-0.057498	-0.172281
H141	H	0.946167	-0.050108	-0.172276
C142	C	1.146998	0.039131	0.415101
H143	H	1.124256	0.016202	0.378177
H144	H	1.174438	0.022854	0.464478
H145	H	1.186432	0.054952	0.382239
H146	H	0.992901	-0.172133	-0.145970
H147	H	0.988690	-0.404074	0.226349
C148	C	0.990556	-0.305388	-0.249403
H149	H	0.990163	-0.327623	-0.297304
H150	H	1.039748	-0.289411	-0.252760
H151	H	0.942049	-0.282028	-0.252743
C152	C	0.983692	-0.688598	0.168866
H153	H	0.983300	-0.710842	0.216764
H154	H	0.935195	-0.665235	0.172225
H155	H	1.032894	-0.672627	0.172212
C156	C	0.992712	-0.179375	0.168911
H157	H	0.993092	-0.157142	0.216819
H158	H	1.041203	-0.202742	0.172260
H159	H	0.943504	-0.195341	0.172250
C160	C	1.096214	0.126427	0.413334
H161	H	1.051847	0.140404	0.376086
H162	H	1.147235	0.121866	0.380459
H163	H	1.102351	0.147488	0.461987
C164	C	0.994589	-0.073495	0.168917
H165	H	0.995180	-0.039857	0.157391
H166	H	1.043278	-0.085451	0.201978
H167	H	0.945578	-0.078063	0.201960
H168	H	0.987747	-0.463838	-0.226434
H169	H	1.022088	-0.014137	0.575507
C170	C	0.882685	0.004374	0.415404
H171	H	0.858101	0.030249	0.378983
H172	H	0.847115	0.000817	0.464857
H173	H	0.889374	-0.024904	0.382048
C174	C	1.033411	-0.026000	0.413612
H175	H	1.072683	-0.013158	0.375660
H176	H	1.004655	-0.048437	0.381508
H177	H	1.062434	-0.042099	0.462267
