data_functionalizedCrystal
_audit_creation_method	'MofGen! by Chris Wilmer'
_symmetry_space_group_name_H-M	'P1'
_symmetry_Int_Tables_number	1
_symmetry_cell_setting	triclinic
loop_
_symmetry_equiv_pos_as_xyz
  x,y,z
_cell_length_a	12.759401
_cell_length_b	12.645330
_cell_length_c	12.759393
_cell_angle_alpha	90.032183
_cell_angle_beta	90.018496
_cell_angle_gamma	90.012807
loop_
_atom_site_label
_atom_site_type_symbol
_atom_site_fract_x
_atom_site_fract_y
_atom_site_fract_z
Zn1	Zn	1.606270	-0.421972	0.593977
Zn2	Zn	1.606171	-0.599276	0.418295
Zn3	Zn	1.430572	-0.422028	0.418316
Zn4	Zn	1.430567	-0.599195	0.593937
O5	O	1.518395	-0.510618	0.506131
O6	O	1.753278	-0.445503	0.570680
O7	O	1.582838	-0.575821	0.271277
O8	O	1.453923	-0.273673	0.441644
O9	O	1.753205	-0.575767	0.441608
O10	O	1.583007	-0.273632	0.570701
O11	O	1.453826	-0.445598	0.271292
O12	O	1.283551	-0.445518	0.441605
O13	O	1.453914	-0.575628	0.740963
O14	O	1.283547	-0.575682	0.570632
O15	O	1.583002	-0.445424	0.740993
O16	O	1.582833	-0.747613	0.441569
O17	O	1.453818	-0.747553	0.570612
C18	C	1.245428	-0.510598	0.506117
C19	C	1.128651	-0.510615	0.506136
C20	C	1.073815	-0.578500	0.573209
C21	C	0.964091	-0.578514	0.573221
C22	C	0.964049	-0.442755	0.439076
C23	C	1.073771	-0.442737	0.439071
C24	C	1.073838	-0.656883	0.650653
C25	C	0.964114	-0.656896	0.650665
C26	C	1.518343	-0.786047	0.506106
C27	C	1.518416	-0.903877	0.506131
C28	C	1.599449	-1.071435	0.424785
C29	C	1.599713	-0.948875	0.424984
C30	C	1.548444	-0.948249	0.616875
C31	C	1.549087	-1.070848	0.616443
C32	C	1.407324	-1.071208	0.477824
C33	C	1.407856	-0.948604	0.475340
C34	C	1.792428	-0.510638	0.506146
C35	C	1.909205	-0.510647	0.506152
C36	C	1.518469	-0.510511	0.780165
C37	C	1.518500	-0.510465	0.896941
C38	C	1.518477	-0.234112	0.506179
C39	C	1.518511	-0.116282	0.506200
C40	C	1.518382	-0.510648	0.233164
C41	C	1.518555	-0.510395	0.116388
C42	C	1.585726	-0.442661	0.951821
C43	C	1.585751	-0.442623	1.061545
C44	C	1.451322	-0.578202	1.061501
C45	C	1.451292	-0.578234	0.951779
C46	C	1.663341	-0.364389	0.951847
C47	C	1.663366	-0.364351	1.061571
H48	H	1.580897	-1.100995	0.342430
H49	H	0.919353	-0.387489	0.384475
H50	H	1.103645	-0.634988	0.732060
H51	H	0.930115	-0.627590	0.728017
H52	H	1.380017	-1.102224	0.398476
H53	H	1.681361	-1.102163	0.443343
C54	C	1.574330	-0.908342	0.314060
H55	H	1.574452	-0.833213	0.314035
H56	H	1.625680	-0.933504	0.266277
H57	H	1.507181	-0.933295	0.293440
C58	C	1.767719	-0.404153	0.905853
H59	H	1.764135	-0.402833	0.831493
H60	H	1.823184	-0.359704	0.928852
H61	H	1.780221	-0.474478	0.928827
H62	H	1.630360	-1.099358	0.640480
C63	C	1.134093	-0.368054	0.365304
H64	H	1.207300	-0.377756	0.374911
H65	H	1.116087	-0.383474	0.294684
H66	H	1.116118	-0.296848	0.380823
H67	H	1.107855	-0.734832	0.621368
H68	H	0.934321	-0.738980	0.628732
C69	C	1.377259	-0.909436	0.365250
H70	H	1.431626	-0.866001	0.338158
H71	H	1.367068	-0.968402	0.320225
H72	H	1.314211	-0.869714	0.369455
C73	C	1.710961	-0.909136	0.450345
H74	H	1.756166	-0.967921	0.460576
H75	H	1.736149	-0.867454	0.393788
H76	H	1.709202	-0.867531	0.512337
C77	C	1.472923	-1.110925	0.701192
H78	H	1.441732	-1.052276	0.735738
H79	H	1.419831	-1.152739	0.669409
H80	H	1.510236	-1.152469	0.750733
C81	C	1.624052	-0.258970	1.107576
H82	H	1.606533	-0.212065	1.052138
H83	H	1.563801	-0.271542	1.149474
H84	H	1.677582	-0.228284	1.149490
H85	H	1.491287	-0.919098	0.679160
C86	C	1.657000	-0.906670	0.649887
H87	H	1.684169	-0.862282	0.596338
H88	H	1.650679	-0.867459	0.713093
H89	H	1.703136	-0.964628	0.660574
H90	H	1.641569	-0.282291	0.922092
C91	C	1.321990	-0.907243	0.549570
H92	H	1.352581	-0.861961	0.600543
H93	H	1.271292	-0.869028	0.510368
H94	H	1.289135	-0.965233	0.583616
C95	C	1.325887	-1.110234	0.558030
H96	H	1.359423	-1.153805	0.608555
H97	H	1.294897	-1.051185	0.592065
H98	H	1.273124	-1.149766	0.522984
H99	H	1.396547	-0.633443	0.907100
C100	C	1.773278	-0.394080	1.101807
H101	H	1.818461	-0.406341	1.043896
H102	H	1.800354	-0.337887	1.143185
H103	H	1.768822	-0.456375	1.143150
H104	H	1.396601	-0.633374	1.106163
