data_functionalizedCrystal
_audit_creation_method	'MofGen! by Chris Wilmer'
_symmetry_space_group_name_H-M	'P1'
_symmetry_Int_Tables_number	1
_symmetry_cell_setting	triclinic
loop_
_symmetry_equiv_pos_as_xyz
  x,y,z
_cell_length_a	14.044220
_cell_length_b	19.188930
_cell_length_c	12.503572
_cell_angle_alpha	93.506241
_cell_angle_beta	86.164750
_cell_angle_gamma	88.166830
loop_
_atom_site_label
_atom_site_type_symbol
_atom_site_fract_x
_atom_site_fract_y
_atom_site_fract_z
O1	O	1.262485	0.164589	-0.089229
O2	O	1.762485	0.664589	0.410771
O3	O	0.986542	0.158515	-0.089255
O4	O	1.486542	0.658515	0.410745
O5	O	1.132475	0.060411	-0.089220
O6	O	1.632475	0.560411	0.410780
O7	O	1.116552	0.262693	-0.089264
O8	O	1.616552	0.762693	0.410736
O9	O	1.121500	0.067803	0.089419
O10	O	1.621500	0.567803	0.589419
O11	O	0.975567	0.165907	0.089384
O12	O	1.475567	0.665907	0.589384
O13	O	1.251510	0.171980	0.089411
O14	O	1.751510	0.671980	0.589411
Cu15	Cu	1.112536	0.169618	0.105709
Cu16	Cu	1.612536	0.669618	0.605709
Cu17	Cu	1.125516	0.160877	-0.105553
Cu18	Cu	1.625516	0.660877	0.394447
O19	O	1.105577	0.270084	0.089376
O20	O	1.605577	0.770084	0.589376
C21	C	0.945752	0.159553	0.000061
C22	C	1.445752	0.659553	0.500061
C23	C	0.840559	0.151624	0.000052
C24	C	1.340559	0.651624	0.500052
C25	C	0.647956	0.137129	0.000077
C26	C	1.147956	0.637129	0.500077
C27	C	0.590090	0.193363	0.000069
C28	C	1.090090	0.693363	0.500069
C29	C	0.482920	0.185298	0.000083
C30	C	0.982920	0.685298	0.500083
C31	C	0.755137	0.145193	0.000063
C32	C	1.255137	0.645193	0.500063
C33	C	1.126472	0.038063	0.000102
C34	C	1.626472	0.538063	0.500102
C35	C	1.124923	-0.039541	0.000112
C36	C	1.624923	0.460459	0.500112
C37	C	1.210552	-0.078939	0.000125
C38	C	1.710552	0.421061	0.500125
C39	C	1.209099	-0.151857	0.000108
C40	C	1.709099	0.348143	0.500108
C41	C	1.122010	-0.185374	0.000098
C42	C	1.622010	0.314626	0.500098
C43	C	1.036370	-0.145968	0.000079
C44	C	1.536370	0.354032	0.500079
C45	C	1.037826	-0.073051	0.000086
C46	C	1.537826	0.426949	0.500086
N47	N	1.051706	-0.295160	0.060886
N48	N	1.551706	0.204840	0.560886
N49	N	1.050328	-0.364427	0.060882
N50	N	1.550328	0.135573	0.560882
C51	C	1.117616	-0.405067	0.000076
C52	C	1.617616	0.094933	0.500076
N53	N	1.186348	-0.373823	-0.060712
N54	N	1.686348	0.126177	0.439288
N55	N	1.187729	-0.304548	-0.060704
N56	N	1.687729	0.195452	0.439296
C57	C	1.120421	-0.264440	0.000091
C58	C	1.620421	0.235560	0.500091
C59	C	1.201676	-0.523532	0.000069
C60	C	1.701676	-0.023532	0.500069
C61	C	1.200219	-0.596451	0.000045
C62	C	1.700219	-0.096451	0.500045
C63	C	1.027487	-0.590560	0.000028
C64	C	1.527487	-0.090560	0.500028
C65	C	1.028947	-0.517642	0.000041
C66	C	1.528947	-0.017642	0.500041
C67	C	1.116043	-0.484132	0.000067
C68	C	1.616043	0.015868	0.500067
C69	C	1.292301	0.170943	0.000092
C70	C	1.792301	0.670943	0.500092
C71	C	1.397493	0.178872	0.000094
C72	C	1.897493	0.678872	0.500094
C73	C	1.111580	0.292433	0.000051
C74	C	1.611580	0.792433	0.500051
C75	C	1.113129	0.370037	0.000034
C76	C	1.613129	0.870037	0.500034
N77	N	1.103414	0.175766	0.254299
N78	N	1.603414	0.675766	0.754299
N79	N	1.134645	0.154724	-0.254143
N80	N	1.634645	0.654724	0.245857
C81	C	1.089995	0.184816	0.473411
C82	C	1.589995	0.684816	0.973411
C83	C	1.148061	0.145676	0.526752
C84	C	1.648061	0.645676	1.026752
C85	C	1.140595	0.150712	0.648673
C86	C	1.640595	0.650712	1.148673
C87	C	1.097461	0.179782	0.351478
C88	C	1.597461	0.679782	0.851478
H89	H	0.617011	0.082933	0.000094
H90	H	1.117011	0.582933	0.500094
H91	H	1.278831	-0.183941	0.000114
H92	H	1.778831	0.316059	0.500114
C93	C	1.305056	-0.042476	-0.000030
C94	C	1.805056	0.457524	0.499970
C95	C	1.316577	-0.004567	-0.091920
C96	C	1.816577	0.495433	0.408080
C97	C	1.403617	0.029040	-0.092095
C98	C	1.903617	0.529040	0.407905
H99	H	1.355929	-0.076314	-0.000081
H100	H	1.855929	0.423686	0.499919
H101	H	1.305402	-0.011543	0.062235
H102	H	1.805402	0.488457	0.562235
H103	H	1.316240	-0.035496	-0.154168
H104	H	1.816240	0.464504	0.345832
H105	H	1.265726	0.029283	-0.091888
H106	H	1.765726	0.529283	0.408112
H107	H	1.403963	0.059972	-0.029831
H108	H	1.903963	0.559972	0.470169
H109	H	1.454483	-0.004803	-0.092144
H110	H	1.954483	0.495197	0.407856
H111	H	1.411442	0.054770	-0.154437
H112	H	1.911442	0.554770	0.345563
C113	C	0.631536	0.265573	-0.000040
C114	C	1.131536	0.765573	0.499960
C115	C	0.731140	0.259321	-0.000090
C116	C	1.231140	0.759321	0.499910
C117	C	0.769358	0.325820	-0.000221
C118	C	1.269358	0.825820	0.499779
H119	H	0.606937	0.292866	0.062223
H120	H	1.106937	0.792866	0.562223
H121	H	0.614506	0.287627	-0.062376
H122	H	1.114506	0.787627	0.437624
H123	H	0.748162	0.237276	0.062239
H124	H	1.248162	0.737276	0.562239
H125	H	0.755765	0.232040	-0.062349
H126	H	1.255765	0.732040	0.437651
H127	H	0.752328	0.347875	-0.062557
H128	H	1.252328	0.847875	0.437443
H129	H	0.744753	0.353108	0.062043
H130	H	1.244753	0.853108	0.562043
H131	H	0.836944	0.321587	-0.000265
H132	H	1.336944	0.821587	0.499735
H133	H	0.965462	-0.173262	0.000069
H134	H	1.465462	0.326738	0.500069
H135	H	0.968095	-0.040973	0.000075
H136	H	1.468095	0.459027	0.500075
C137	C	1.296335	-0.487276	0.000021
C138	C	1.796335	0.012724	0.500021
C139	C	1.371020	-0.537392	-0.000015
C140	C	1.871020	-0.037392	0.499985
C141	C	1.458234	-0.504023	-0.000079
C142	C	1.958234	-0.004023	0.499921
H143	H	1.296810	-0.456387	0.062301
H144	H	1.796810	0.043613	0.562301
H145	H	1.304366	-0.461541	-0.062298
H146	H	1.804366	0.038459	0.437702
H147	H	1.362991	-0.563115	0.062297
H148	H	1.862991	-0.063115	0.562297
H149	H	1.370576	-0.568284	-0.062291
H150	H	1.870576	-0.068284	0.437709
H151	H	1.466265	-0.478288	-0.062397
H152	H	1.966265	0.021712	0.437603
H153	H	1.458699	-0.473134	0.062203
H154	H	1.958699	0.026866	0.562203
H155	H	1.508919	-0.538021	-0.000113
H156	H	2.008919	-0.038021	0.499887
H157	H	1.034680	0.222105	0.519305
H158	H	1.534680	0.722105	1.019305
C159	C	1.293180	-0.639273	-0.000167
C160	C	1.793180	-0.139273	0.499833
C161	C	1.303056	-0.685080	-0.092096
C162	C	1.803056	-0.185080	0.407904
C163	C	1.388687	-0.724531	-0.092336
C164	C	1.888687	-0.224531	0.407664
H165	H	1.292469	-0.665337	0.062049
H166	H	1.792469	-0.165337	0.562049
H167	H	1.345285	-0.608893	-0.000208
H168	H	1.845285	-0.108893	0.499792
H169	H	1.250965	-0.715456	-0.092045
H170	H	1.750965	-0.215456	0.407955
H171	H	1.303784	-0.659034	-0.154327
H172	H	1.803784	-0.159034	0.345673
H173	H	1.440792	-0.694151	-0.092377
H174	H	1.940792	-0.194151	0.407623
H175	H	1.387969	-0.750591	-0.030116
H176	H	1.887969	-0.250591	0.469884
H177	H	1.395404	-0.755611	-0.154713
H178	H	1.895404	-0.255611	0.345287
C179	C	0.933025	-0.627068	0.000066
C180	C	1.433025	-0.127068	0.500066
C181	C	0.950073	-0.699358	0.000084
C182	C	1.450073	-0.199358	0.500084
C183	C	0.863075	-0.733014	0.000127
C184	C	1.363075	-0.233014	0.500127
H185	H	0.901535	-0.616556	-0.062216
H186	H	1.401535	-0.116556	0.437784
H187	H	0.893938	-0.611379	0.062383
H188	H	1.393938	-0.111379	0.562383
H189	H	0.989144	-0.715041	-0.062227
H190	H	1.489144	-0.215041	0.437773
H191	H	0.981548	-0.709889	0.062361
H192	H	1.481548	-0.209889	0.562361
H193	H	0.823988	-0.717325	0.062444
H194	H	1.323988	-0.217325	0.562444
H195	H	0.831592	-0.722497	-0.062156
H196	H	1.331592	-0.222497	0.437844
H197	H	0.874629	-0.782065	0.000149
H198	H	1.374629	-0.282065	0.500149
C199	C	1.221710	0.095771	0.465748
C200	C	1.721710	0.595771	0.965748
C201	C	1.204697	0.027391	0.493155
C202	C	1.704697	0.527391	0.993155
C203	C	1.272511	-0.018629	0.437024
C204	C	1.772511	0.481371	0.937024
H205	H	1.283881	0.107874	0.484107
H206	H	1.783881	0.607874	0.984107
H207	H	1.217067	0.098828	0.390712
H208	H	1.717067	0.598828	0.890712
H209	H	1.209349	0.024337	0.568174
H210	H	1.709349	0.524337	1.068174
H211	H	1.142539	0.015266	0.474793
H212	H	1.642539	0.515266	0.974793
H213	H	1.267867	-0.015572	0.361988
H214	H	1.767867	0.484428	0.861988
H215	H	1.334677	-0.006519	0.455388
H216	H	1.834677	0.493481	0.955388
H217	H	1.260971	-0.065030	0.455604
H218	H	1.760971	0.434970	0.955604
H219	H	0.959218	-0.485563	0.000036
H220	H	1.459218	0.014437	0.500036
