data_functionalizedCrystal
_audit_creation_method	'MofGen! by Chris Wilmer'
_symmetry_space_group_name_H-M	'P1'
_symmetry_Int_Tables_number	1
_symmetry_cell_setting	triclinic
loop_
_symmetry_equiv_pos_as_xyz
  x,y,z
_cell_length_a	19.805407
_cell_length_b	21.295417
_cell_length_c	19.805399
_cell_angle_alpha	89.969157
_cell_angle_beta	89.980427
_cell_angle_gamma	90.030507
loop_
_atom_site_label
_atom_site_type_symbol
_atom_site_fract_x
_atom_site_fract_y
_atom_site_fract_z
Zn1	Zn	1.034716	-0.250624	-0.382704
Zn2	Zn	1.534716	0.249376	0.117296
Zn3	Zn	1.034623	-0.355893	-0.269510
Zn4	Zn	1.534623	0.144107	0.230490
Zn5	Zn	0.921531	-0.250641	-0.269529
Zn6	Zn	1.421531	0.249359	0.230471
Zn7	Zn	0.921486	-0.355859	-0.382656
Zn8	Zn	1.421486	0.144141	0.117344
O9	O	0.978089	-0.303254	-0.326100
O10	O	1.478089	0.196746	0.173900
O11	O	1.129421	-0.264595	-0.367701
O12	O	1.629421	0.235405	0.132299
O13	O	1.019601	-0.341952	-0.174796
O14	O	1.519601	0.158048	0.325204
O15	O	0.936603	-0.162549	-0.284570
O16	O	1.436603	0.337451	0.215430
O17	O	1.129352	-0.341935	-0.284537
O18	O	1.629352	0.158065	0.215463
O19	O	1.019760	-0.162537	-0.367719
O20	O	1.519760	0.337463	0.132281
O21	O	0.936513	-0.264624	-0.174810
O22	O	1.436513	0.235376	0.325190
O23	O	0.826809	-0.264592	-0.284523
O24	O	1.326809	0.235408	0.215477
O25	O	0.936527	-0.341878	-0.477379
O26	O	1.436527	0.158122	0.022621
O27	O	0.826776	-0.341895	-0.367638
O28	O	1.326776	0.158105	0.132362
O29	O	1.019717	-0.264562	-0.477415
O30	O	1.519717	0.235438	0.022585
O31	O	1.019558	-0.443977	-0.284491
O32	O	1.519558	0.056023	0.215509
O33	O	0.936437	-0.443953	-0.367619
O34	O	1.436437	0.056047	0.132381
C35	C	0.802233	-0.303242	-0.326078
C36	C	1.302233	0.196758	0.173922
C37	C	0.727001	-0.303252	-0.326085
C38	C	1.227001	0.196748	0.173915
C39	C	0.691658	-0.343564	-0.369292
C40	C	1.191658	0.156436	0.130708
C41	C	0.620969	-0.343566	-0.369302
C42	C	1.120969	0.156434	0.130698
C43	C	0.585626	-0.303257	-0.326100
C44	C	1.085626	0.196743	0.173900
C45	C	0.620974	-0.262940	-0.282890
C46	C	1.120974	0.237060	0.217110
C47	C	0.691661	-0.262936	-0.282885
C48	C	1.191661	0.237064	0.217115
C49	C	0.335901	-0.262954	-0.282913
C50	C	0.835901	0.237046	0.217087
C51	C	0.265209	-0.262962	-0.282920
C52	C	0.765209	0.237038	0.217080
C53	C	0.265209	-0.343583	-0.369330
C54	C	0.765209	0.156417	0.130670
C55	C	0.335896	-0.343579	-0.369324
C56	C	0.835896	0.156421	0.130676
C57	C	0.371238	-0.303261	-0.326117
C58	C	0.871238	0.196739	0.173883
C59	C	0.447887	-0.303259	-0.326109
C60	C	0.947887	0.196741	0.173891
C61	C	0.508979	-0.303261	-0.326105
C62	C	1.008979	0.196739	0.173895
C63	C	0.978001	-0.466806	-0.326062
C64	C	1.478001	0.033194	0.173938
C65	C	0.978024	-0.536774	-0.326069
C66	C	1.478024	-0.036774	0.173931
C67	C	1.021344	-0.569632	-0.282828
C68	C	1.521344	-0.069632	0.217172
C69	C	1.021376	-0.635375	-0.282844
C70	C	1.521376	-0.135375	0.217156
C71	C	0.978076	-0.668256	-0.326092
C72	C	1.478076	-0.168256	0.173908
C73	C	0.934753	-0.635390	-0.369341
C74	C	1.434753	-0.135390	0.130659
C75	C	0.934728	-0.569649	-0.369330
C76	C	1.434728	-0.069649	0.130670
N77	N	0.918865	-0.771522	-0.331245
N78	N	1.418865	-0.271522	0.168755
N79	N	0.918892	-0.833974	-0.331252
N80	N	1.418892	-0.333974	0.168748
C81	C	0.978152	-0.866331	-0.326131
C82	C	1.478152	-0.366331	0.173869
N83	N	1.037386	-0.833878	-0.320989
N84	N	1.537386	-0.333878	0.179011
N85	N	1.037358	-0.771421	-0.320979
N86	N	1.537358	-0.271421	0.179021
C87	C	0.978099	-0.739542	-0.326110
C88	C	1.478099	-0.239542	0.173890
C89	C	1.021509	-0.970475	-0.282905
C90	C	1.521509	-0.470475	0.217095
C91	C	1.021542	-1.036219	-0.282925
C92	C	1.521542	-0.536219	0.217075
C93	C	0.934914	-1.036233	-0.369419
C94	C	1.434914	-0.536233	0.130581
C95	C	0.934887	-0.970490	-0.369402
C96	C	1.434887	-0.470490	0.130598
C97	C	0.978184	-0.937615	-0.326142
C98	C	1.478184	-0.437615	0.173858
C99	C	1.154632	-0.303267	-0.326122
C100	C	1.654632	0.196733	0.173878
C101	C	1.229864	-0.303272	-0.326132
C102	C	1.729864	0.196728	0.173868
C103	C	0.978127	-0.303214	-0.502643
C104	C	1.478127	0.196786	-0.002643
C105	C	0.978143	-0.303198	-0.577875
C106	C	1.478143	0.196802	-0.077875
C107	C	0.978197	-0.139064	-0.326152
C108	C	1.478197	0.360936	0.173848
C109	C	0.978243	-0.069096	-0.326175
C110	C	1.478243	0.430904	0.173825
C111	C	1.021461	-0.262937	-0.613238
C112	C	1.521461	0.237063	-0.113238
C113	C	1.021468	-0.262919	-0.683927
C114	C	1.521468	0.237081	-0.183927
C115	C	0.978160	-0.303165	-0.719250
C116	C	1.478160	0.196835	-0.219250
C117	C	0.934838	-0.343427	-0.683882
C118	C	1.434838	0.156573	-0.183882
C119	C	0.934828	-0.343442	-0.613195
C120	C	1.434828	0.156558	-0.113195
C121	C	0.934876	-0.343368	-0.968955
C122	C	1.434876	0.156632	-0.468955
C123	C	0.934891	-0.343352	-1.039647
C124	C	1.434891	0.156648	-0.539647
C125	C	1.021516	-0.262846	-1.039687
C126	C	1.521516	0.237154	-0.539687
C127	C	1.021506	-0.262860	-0.969000
C128	C	1.521506	0.237140	-0.469000
C129	C	0.978182	-0.303120	-0.933638
C130	C	1.478182	0.196880	-0.433638
C131	C	0.978174	-0.303138	-0.856989
C132	C	1.478174	0.196862	-0.356989
C133	C	0.978171	-0.303150	-0.795897
C134	C	1.478171	0.196850	-0.295897
C135	C	0.978090	-0.303248	-0.150244
C136	C	1.478090	0.196752	0.349756
C137	C	0.978205	-0.303088	-0.075012
C138	C	1.478205	0.196912	0.424988
H139	H	0.364668	-0.230129	-0.247726
H140	H	0.864668	0.269871	0.252274
H141	H	0.364669	-0.376405	-0.404501
H142	H	0.864669	0.123595	0.095499
H143	H	0.899608	-0.376159	-0.940172
H144	H	1.399608	0.123841	-0.440172
H145	H	1.056774	-0.230090	-0.940243
H146	H	1.556774	0.269910	-0.440243
C147	C	0.684550	-0.423252	-0.454714
C148	C	1.184550	0.076748	0.045286
C149	C	0.730504	-0.387872	-0.416784
C150	C	1.230504	0.112128	0.083216
H151	H	0.708533	-0.450601	-0.484038
H152	H	1.208533	0.049399	0.015962
H153	H	0.656958	-0.447297	-0.425179
H154	H	1.156958	0.052703	0.074821
H155	H	0.657002	-0.395850	-0.480656
H156	H	1.157002	0.104150	0.019344
H157	H	0.758049	-0.415274	-0.390837
H158	H	1.258049	0.084726	0.109163
H159	H	0.758108	-0.363825	-0.446323
H160	H	1.258108	0.136175	0.053677
C161	C	0.541521	-0.352439	-0.460344
C162	C	1.041521	0.147561	0.039656
C163	C	0.582125	-0.387883	-0.416796
C164	C	1.082125	0.112117	0.083204
H165	H	0.517546	-0.379802	-0.489669
H166	H	1.017546	0.120198	0.010331
H167	H	0.510355	-0.328440	-0.434620
H168	H	1.010355	0.171560	0.065380
H169	H	0.569130	-0.325045	-0.486284
H170	H	1.069130	0.174955	0.013716
H171	H	0.554515	-0.415273	-0.390852
H172	H	1.054515	0.084727	0.109148
H173	H	0.613295	-0.411892	-0.442522
H174	H	1.113295	0.088108	0.057478
C175	C	0.896390	-0.379155	-0.792221
C176	C	1.396390	0.120845	-0.292221
C177	C	0.887232	-0.387666	-0.722708
C178	C	1.387232	0.112334	-0.222708
H179	H	0.867003	-0.406472	-0.816188
H180	H	1.367003	0.093528	-0.316188
H181	H	0.886513	-0.336862	-0.803815
H182	H	1.386513	0.163138	-0.303815
H183	H	0.941865	-0.388371	-0.803803
H184	H	1.441865	0.111629	-0.303803
H185	H	0.841758	-0.378446	-0.711125
H186	H	1.341758	0.121554	-0.211125
H187	H	0.897105	-0.429969	-0.711109
H188	H	1.397105	0.070031	-0.211109
H189	H	0.899661	-1.063004	-0.404636
H190	H	1.399661	-0.563004	0.095364
H191	H	0.592192	-0.230118	-0.247718
H192	H	1.092192	0.269882	0.252282
H193	H	1.056601	-0.542868	-0.247605
H194	H	1.556601	-0.042868	0.252395
H195	H	0.236425	-0.376411	-0.404513
H196	H	0.736425	0.123589	0.095487
H197	H	1.056791	-0.230062	-1.068488
H198	H	1.556791	0.269938	-0.568488
C199	C	0.272305	-0.183253	-0.197512
C200	C	0.772305	0.316747	0.302488
C201	C	0.226357	-0.218647	-0.235434
C202	C	0.726357	0.281353	0.264566
H203	H	0.248318	-0.155894	-0.168202
H204	H	0.748318	0.344106	0.331798
H205	H	0.299850	-0.210641	-0.171561
H206	H	0.799850	0.289359	0.328439
H207	H	0.299901	-0.159212	-0.227057
H208	H	0.799901	0.340788	0.272943
H209	H	0.198764	-0.242692	-0.205889
H210	H	0.698764	0.257308	0.294111
H211	H	0.198801	-0.191255	-0.261387
H212	H	0.698801	0.308745	0.238613
C213	C	0.684566	-0.183253	-0.197460
C214	C	1.184566	0.316747	0.302540
C215	C	0.730514	-0.218629	-0.235383
C216	C	1.230514	0.281371	0.264617
H217	H	0.708552	-0.155902	-0.168132
H218	H	1.208552	0.344098	0.331868
H219	H	0.657023	-0.159210	-0.226999
H220	H	1.157023	0.340790	0.273001
H221	H	0.656968	-0.210658	-0.171522
H222	H	1.156968	0.289342	0.328478
H223	H	0.758109	-0.191225	-0.261326
H224	H	1.258109	0.308775	0.238674
H225	H	0.758068	-0.242674	-0.205841
H226	H	1.258068	0.257326	0.294159
H227	H	1.056654	-0.662134	-0.247632
H228	H	1.556654	-0.162134	0.252368
C229	C	1.112517	-0.254157	-0.763457
C230	C	1.612517	0.245843	-0.263457
C231	C	1.069076	-0.218661	-0.722806
C232	C	1.569076	0.281339	-0.222806
H233	H	1.141902	-0.226830	-0.787464
H234	H	1.641902	0.273170	-0.287464
H235	H	1.138392	-0.281583	-0.735882
H236	H	1.638392	0.218417	-0.235882
H237	H	1.086715	-0.278123	-0.794603
H238	H	1.586715	0.221877	-0.294603
H239	H	1.094877	-0.194698	-0.691657
H240	H	1.594877	0.305302	-0.191657
H241	H	1.043198	-0.191225	-0.750384
H242	H	1.543198	0.308775	-0.250384
H243	H	0.899451	-0.542895	-0.404542
H244	H	1.399451	-0.042895	0.095458
C245	C	0.849219	-0.423037	-0.620250
C246	C	1.349219	0.076963	-0.120250
C247	C	0.887223	-0.387708	-0.574320
C248	C	1.387223	0.112292	-0.074320
H249	H	0.819833	-0.450369	-0.596250
H250	H	1.319833	0.049631	-0.096250
H251	H	0.823343	-0.395605	-0.647819
H252	H	1.323343	0.104395	-0.147819
H253	H	0.878707	-0.447103	-0.647824
H254	H	1.378707	0.052897	-0.147824
H255	H	0.857735	-0.363638	-0.546749
H256	H	1.357735	0.136362	-0.046749
H257	H	0.913101	-0.415143	-0.546740
H258	H	1.413101	0.084857	-0.046740
H259	H	0.899621	-0.376126	-1.068406
H260	H	1.399621	0.123874	-0.568406
C261	C	1.030907	-0.178280	-0.533776
C262	C	1.530907	0.321720	-0.033776
C263	C	1.069065	-0.218695	-0.574413
C264	C	1.569065	0.281305	-0.074413
H265	H	1.060296	-0.150968	-0.509806
H266	H	1.560296	0.349032	-0.009806
H267	H	1.001441	-0.154198	-0.561355
H268	H	1.501441	0.345802	-0.061355
H269	H	1.005113	-0.202268	-0.502597
H270	H	1.505113	0.297732	-0.002597
H271	H	1.094856	-0.194708	-0.605595
H272	H	1.594856	0.305292	-0.105595
H273	H	1.098543	-0.242779	-0.546831
H274	H	1.598543	0.257221	-0.046831
H275	H	0.899499	-0.662166	-0.404556
H276	H	1.399499	-0.162166	0.095444
H277	H	1.056767	-0.943707	-0.247681
H278	H	1.556767	-0.443707	0.252319
H279	H	1.056822	-1.062971	-0.247714
H280	H	1.556822	-0.562971	0.252286
H281	H	0.899609	-0.943735	-0.404610
H282	H	1.399609	-0.443735	0.095390
