data_functionalizedCrystal
_audit_creation_method	'MofGen! by Chris Wilmer'
_symmetry_space_group_name_H-M	'P1'
_symmetry_Int_Tables_number	1
_symmetry_cell_setting	triclinic
loop_
_symmetry_equiv_pos_as_xyz
  x,y,z
_cell_length_a	19.077312
_cell_length_b	13.897447
_cell_length_c	19.076919
_cell_angle_alpha	87.725848
_cell_angle_beta	85.331053
_cell_angle_gamma	87.725500
loop_
_atom_site_label
_atom_site_type_symbol
_atom_site_fract_x
_atom_site_fract_y
_atom_site_fract_z
Zn1	Zn	1.061679	-0.461958	0.355283
Zn2	Zn	1.066343	-0.617030	0.237407
Zn3	Zn	0.948536	-0.449536	0.242151
Zn4	Zn	0.943775	-0.616990	0.359990
O5	O	1.005083	-0.536379	0.298708
O6	O	1.160944	-0.487744	0.335692
O7	O	1.054661	-0.589630	0.139389
O8	O	0.963585	-0.316205	0.257173
O9	O	1.164371	-0.601675	0.249089
O10	O	1.046711	-0.325331	0.340292
O11	O	0.968108	-0.466573	0.142874
O12	O	0.849258	-0.466534	0.261737
O13	O	0.955471	-0.601607	0.458013
O14	O	0.845760	-0.589562	0.348313
O15	O	1.042094	-0.487705	0.454556
O16	O	1.050044	-0.752004	0.253653
O17	O	0.959993	-0.751974	0.343714
C18	C	0.821931	-0.526697	0.306051
C19	C	0.743577	-0.522579	0.309209
C20	C	0.302335	-0.492968	0.331868
C21	C	0.375957	-0.496855	0.328897
C22	C	0.414546	-0.558011	0.282248
C23	C	0.379510	-0.615291	0.238573
C24	C	0.305889	-0.611408	0.241549
C25	C	0.634920	-0.575976	0.268510
C26	C	0.708546	-0.579852	0.265536
C27	C	0.704988	-0.461417	0.355861
C28	C	0.631366	-0.457536	0.358829
C29	C	0.596336	-0.514820	0.315157
N30	N	0.489800	-0.561983	0.279208
N31	N	0.521083	-0.510852	0.318201
C32	C	1.005027	-0.786989	0.298694
C33	C	1.005066	-0.894206	0.298709
C34	C	1.005099	-0.981278	0.298723
C35	C	1.005148	-1.090514	0.298740
C36	C	1.188950	-0.546099	0.291336
C37	C	1.267304	-0.550241	0.288195
C38	C	0.997731	-0.546037	0.482578
C39	C	0.994598	-0.550153	0.560932
C40	C	1.005159	-0.284791	0.298737
C41	C	1.005191	-0.177580	0.298749
C42	C	1.012448	-0.526690	0.115551
C43	C	1.015717	-0.522310	0.037192
C44	C	1.038224	-0.492787	0.595944
C45	C	1.035272	-0.496650	0.669567
C46	C	0.988696	-0.557885	0.708176
C47	C	0.945065	-0.615253	0.673160
C48	C	0.948015	-0.611384	0.599538
C49	C	0.975036	-0.575810	0.928554
C50	C	0.972091	-0.579676	1.002180
C51	C	1.062297	-0.461071	0.998582
C52	C	1.065245	-0.457212	0.924960
C53	C	1.021612	-0.514576	0.889949
N54	N	0.985679	-0.561837	0.783431
N55	N	1.024626	-0.510618	0.814697
H56	H	0.606407	-0.622618	0.232947
O57	O	0.417101	-0.674614	0.193277
C58	C	0.532091	-0.733122	0.148688
C59	C	0.489608	-0.665882	0.200010
H60	H	0.590720	-0.726100	0.154124
H61	H	0.519925	-0.712310	0.092436
H62	H	0.517069	-0.810797	0.161546
H63	H	0.504605	-0.588187	0.187216
H64	H	0.501778	-0.686776	0.256247
H65	H	0.733518	-0.414781	0.391417
H66	H	0.270921	-0.443162	0.369850
O67	O	0.271968	-0.667076	0.199054
C68	C	0.283260	-0.785003	0.109184
C69	C	0.321763	-0.721988	0.157255
H70	H	0.323502	-0.829431	0.075388
H71	H	0.250283	-0.736935	0.073725
H72	H	0.247482	-0.835347	0.142891
H73	H	0.357578	-0.671636	0.123603
H74	H	0.354697	-0.770114	0.192718
H75	H	1.076153	-0.442925	0.564514
H76	H	1.097820	-0.414367	1.027096
H77	H	0.939517	-0.622535	0.900057
O78	O	0.899760	-0.674760	0.710556
C79	C	0.810634	-0.792039	0.706346
C80	C	0.861896	-0.724669	0.663912
H81	H	0.780018	-0.832424	0.668652
H82	H	0.772360	-0.747663	0.742279
H83	H	0.841614	-0.845958	0.739529
H84	H	0.830973	-0.670738	0.630689
H85	H	0.900170	-0.769108	0.628023
O86	O	0.926781	-0.639183	1.039580
C87	C	0.837648	-0.756455	1.035382
C88	C	0.888911	-0.689092	0.992941
H89	H	0.807026	-0.796839	0.997693
H90	H	0.799379	-0.712074	1.071317
H91	H	0.868629	-0.810375	1.068564
H92	H	0.857988	-0.635160	0.959720
H93	H	0.927179	-0.733536	0.957051
O94	O	1.077675	-0.441061	0.703659
C95	C	1.169537	-0.437472	0.782955
C96	C	1.121551	-0.500546	0.744399
H97	H	1.205033	-0.485540	0.815891
H98	H	1.135835	-0.387158	0.818764
H99	H	1.203304	-0.393014	0.742708
H100	H	1.087775	-0.545064	0.784596
H101	H	1.155294	-0.550798	0.708578
O102	O	1.110505	-0.397640	0.887565
C103	C	1.199694	-0.280450	0.891768
C104	C	1.148456	-0.347851	0.934204
H105	H	1.230402	-0.240193	0.929456
H106	H	1.168760	-0.226431	0.858619
H107	H	1.237891	-0.324887	0.855802
H108	H	1.110248	-0.303493	0.970208
H109	H	1.179436	-0.401874	0.967306
O110	O	0.905743	-0.667161	0.565440
C111	C	0.899560	-0.792552	0.482706
C112	C	0.947516	-0.729434	0.521264
H113	H	0.933314	-0.842929	0.446993
H114	H	0.864109	-0.744556	0.449671
H115	H	0.865746	-0.836945	0.522955
H116	H	0.981372	-0.685032	0.481064
H117	H	0.982919	-0.777484	0.554312
H118	H	0.599952	-0.407740	0.396818
O119	O	0.409903	-0.441260	0.371418
C120	C	0.427704	-0.402210	0.490477
C121	C	0.389204	-0.465222	0.442400
H122	H	0.410995	-0.421574	0.547876
H123	H	0.413717	-0.322986	0.478834
H124	H	0.486950	-0.415467	0.480307
H125	H	0.329950	-0.452048	0.452542
H126	H	0.403250	-0.544425	0.454053
O127	O	0.746001	-0.639409	0.220302
C128	C	0.769838	-0.802787	0.184952
C129	C	0.727386	-0.735457	0.236231
H130	H	0.754793	-0.880453	0.197803
H131	H	0.828481	-0.795798	0.190333
H132	H	0.757633	-0.781939	0.128718
H133	H	0.739531	-0.756261	0.292486
H134	H	0.668755	-0.742456	0.230788
