data_functionalizedCrystal
_audit_creation_method	'MofGen! by Chris Wilmer'
_symmetry_space_group_name_H-M	'P1'
_symmetry_Int_Tables_number	1
_symmetry_cell_setting	triclinic
loop_
_symmetry_equiv_pos_as_xyz
  x,y,z
_cell_length_a	23.196402
_cell_length_b	14.560438
_cell_length_c	23.196401
_cell_angle_alpha	59.998488
_cell_angle_beta	90.004120
_cell_angle_gamma	59.999402
loop_
_atom_site_label
_atom_site_type_symbol
_atom_site_fract_x
_atom_site_fract_y
_atom_site_fract_z
Zr1	Zr	0.555349	1.005309	-0.075668
O2	O	0.463282	1.196933	-0.167721
O3	O	0.583572	0.813701	-0.047450
O4	O	0.583550	1.005335	-0.167728
O5	O	0.463322	1.005273	0.047435
O6	O	0.678420	1.005337	-0.167731
O7	O	0.463304	1.005299	-0.047444
O8	O	0.678460	0.662540	0.047424
O9	O	0.463282	1.348071	-0.167719
O10	O	0.666410	0.892508	-0.035416
O11	O	0.595623	0.892487	0.035393
O12	O	0.595597	1.118111	-0.106218
O13	O	0.524809	1.118090	-0.035409
Zr14	Zr	0.706684	1.005271	0.075648
Zr15	Zr	0.706656	1.005313	-0.075673
Zr16	Zr	0.555377	1.005268	0.075653
Zr17	Zr	0.555349	1.246357	-0.075665
Zr18	Zr	0.706683	0.764224	0.075645
O19	O	0.678460	1.196879	0.047430
O20	O	0.678421	1.196938	-0.167729
O21	O	0.463322	1.196874	0.047437
O22	O	0.798751	0.813648	0.167701
O23	O	0.798711	0.813707	-0.047458
O24	O	0.583612	0.813643	0.167708
O25	O	0.798711	1.005307	-0.047455
O26	O	0.678482	1.005246	0.167707
O27	O	0.583612	1.005243	0.167711
O28	O	0.798729	1.005281	0.047423
O29	O	0.583551	1.348074	-0.167724
O30	O	0.678482	0.662507	0.167703
O31	O	0.798750	0.662510	0.167699
O32	O	0.798728	0.662543	0.047419
O33	O	0.463304	1.348038	-0.047440
O34	O	0.583573	1.348041	-0.047444
O35	O	0.666436	0.892470	0.106198
O36	O	0.737223	0.892491	0.035388
O37	O	0.666410	1.118093	-0.035414
O38	O	0.595623	1.118072	0.035396
C39	C	0.631016	0.703777	-0.000014
C40	C	0.631016	0.601446	-0.000015
C41	C	0.667965	0.553380	-0.036977
C42	C	0.667967	0.457221	-0.036970
C43	C	0.594067	0.457204	0.036961
C44	C	0.594069	0.553355	0.036958
C45	C	0.441755	1.005286	-0.000004
C46	C	0.377521	1.005284	-0.000001
C47	C	0.384310	0.887525	0.036950
C48	C	0.323956	0.887524	0.036953
C49	C	0.256813	1.005287	-0.000009
C50	C	0.250027	1.123062	-0.036962
C51	C	0.310381	1.123060	-0.036958
C52	C	0.132873	1.095520	-0.061924
C53	C	0.072521	1.095517	-0.061930
C54	C	0.070659	1.005297	-0.000020
C55	C	0.129163	0.915059	0.061895
C56	C	0.189517	0.915058	0.061899
C57	C	0.191365	1.005302	-0.000017
C58	C	0.012007	0.887529	0.036937
C59	C	-0.048350	0.887532	0.036942
C60	C	-0.122278	1.123073	-0.036979
C61	C	-0.061922	1.123067	-0.036977
C62	C	0.005219	1.005291	-0.000021
C63	C	0.820278	1.005295	-0.000017
C64	C	0.884511	1.005297	-0.000019
C65	C	0.630981	1.005342	-0.189289
C66	C	0.630969	1.005360	-0.253529
C67	C	0.631017	1.306804	-0.000007
C68	C	0.631017	1.409135	-0.000005
C69	C	0.683236	1.005363	-0.283694
C70	C	0.683251	1.005337	-0.344041
C71	C	0.630990	1.005334	-0.374228
C72	C	0.578719	1.005323	-0.344053
C73	C	0.578709	1.005336	-0.283704
C74	C	0.567208	1.080998	-0.493607
C75	C	0.567217	1.080993	-0.553958
C76	C	0.631021	1.005287	-0.560364
C77	C	0.694819	0.929603	-0.506418
C78	C	0.694809	0.929616	-0.446068
C79	C	0.630995	1.005319	-0.439667
C80	C	0.683309	1.005261	-0.655963
C81	C	0.683325	1.005227	-0.716309
C82	C	0.578787	1.005225	-0.716325
C83	C	0.578776	1.005246	-0.655976
C84	C	0.631037	1.005270	-0.625801
C85	C	0.631051	1.005239	0.189269
C86	C	0.631063	1.005221	0.253509
C87	C	0.820277	0.703781	-0.000020
C88	C	0.884511	0.601452	-0.000024
C89	C	0.631051	0.703725	0.189266
C90	C	0.631063	0.601376	0.253504
C91	C	0.820312	0.703729	0.189259
C92	C	0.884558	0.601382	0.253495
C93	C	0.441720	1.306851	-0.189279
C94	C	0.377475	1.409198	-0.253515
C95	C	0.441755	1.306799	0.000000
C96	C	0.377522	1.409129	0.000003
C97	C	0.630982	1.306856	-0.189286
C98	C	0.630970	1.409205	-0.253524
C99	C	0.877712	0.553406	-0.036991
C100	C	0.938060	0.457270	-0.037008
C101	C	1.005207	0.409175	-0.000054
C102	C	1.012005	0.457230	0.036914
C103	C	0.951657	0.553371	0.036927
C104	C	0.668032	0.553303	0.320637
C105	C	0.668040	0.457149	0.381001
C106	C	0.631083	0.409063	0.374232
C107	C	0.594109	0.457146	0.307092
C108	C	0.594097	0.553305	0.246729
C109	C	0.951685	0.553330	0.246699
C110	C	1.012056	0.457178	0.307050
C111	C	1.005298	0.409073	0.374196
C112	C	0.938165	0.457134	0.380991
C113	C	0.877795	0.553292	0.320640
C114	C	0.310348	1.457262	-0.246720
C115	C	0.249977	1.553445	-0.307070
C116	C	0.256734	1.601555	-0.374217
C117	C	0.323868	1.553487	-0.381011
C118	C	0.384238	1.457313	-0.320661
C119	C	0.384321	1.457185	0.036964
C120	C	0.323973	1.553347	0.036965
C121	C	0.256826	1.601446	0.000009
C122	C	0.250028	1.553386	-0.036957
C123	C	0.310376	1.457232	-0.036961
C124	C	0.667934	1.457260	-0.246732
C125	C	0.667937	1.553414	-0.307085
C126	C	0.630971	1.601519	-0.374230
C127	C	0.594005	1.553454	-0.381020
C128	C	0.594007	1.457295	-0.320668
H129	H	0.563985	0.418039	0.067062
Cl130	Cl	0.165609	1.613861	-0.083410
H131	H	0.698037	1.418108	-0.192065
Cl132	Cl	0.547654	0.396679	0.298594
Cl133	Cl	0.301816	1.396822	-0.083426
Cl134	Cl	0.960198	0.613794	0.162294
Cl135	Cl	0.714500	0.613730	0.329166
H136	H	0.563980	0.592489	0.067060
Cl137	Cl	0.775036	0.834431	-0.514465
Cl138	Cl	0.547621	0.613720	0.162336
H139	H	0.438975	0.791623	0.067038
H140	H	1.054340	0.330890	-0.000069
Cl141	Cl	0.332485	0.739473	0.083405
Cl142	Cl	0.748936	1.005384	-0.245757
H143	H	0.438894	1.418180	-0.326202
Cl144	Cl	0.714407	1.613826	-0.298532
Cl145	Cl	0.332351	1.613977	-0.465429
H146	H	0.066676	0.791628	0.067045
Cl147	Cl	0.631107	0.288174	0.450125
Cl148	Cl	0.714416	0.613828	-0.083453
Cl149	Cl	0.714529	0.396718	0.465396
Cl150	Cl	1.096444	0.396771	0.298492
H151	H	0.207692	1.679741	0.000018
H152	H	1.054461	0.330775	0.423332
H153	H	0.957203	0.592478	0.067034
H154	H	0.932673	0.417953	0.435669
H155	H	0.237148	0.841588	0.112313
H156	H	0.630975	1.679818	-0.423367
H157	H	0.438990	1.418030	0.067063
Cl158	Cl	0.332535	1.613740	0.083443
H159	H	0.823139	0.592403	0.326184
H160	H	0.127657	0.841574	0.112303
Cl161	Cl	0.180833	1.722459	-0.450080
Cl162	Cl	0.301834	1.396800	-0.162315
H163	H	0.725815	1.005340	-0.368605
Cl164	Cl	-0.039812	0.739478	0.083408
H165	H	1.066684	0.418057	0.067001
Cl166	Cl	0.547529	1.613954	-0.465436
Cl167	Cl	-0.001023	1.208966	-0.139763
H168	H	0.195320	1.592565	-0.301524
H169	H	0.563903	1.418179	-0.326208
H170	H	0.725890	1.005222	-0.740867
Cl171	Cl	0.714417	0.396804	-0.083441
Cl172	Cl	-0.070456	1.271115	-0.083437
Cl173	Cl	0.135202	1.208954	-0.139760
Cl174	Cl	0.165620	1.271108	-0.083424
Cl175	Cl	-0.206681	1.271121	-0.083441
Cl176	Cl	0.512997	1.005333	-0.245780
H177	H	0.746755	0.867989	-0.402146
Cl178	Cl	0.301845	1.271112	-0.083416
H179	H	0.536168	1.005317	-0.368634
H180	H	0.536237	1.005215	-0.740900
Cl181	Cl	0.513064	1.005252	-0.618054
Cl182	Cl	0.487016	1.176144	-0.621772
Cl183	Cl	0.749010	1.005281	-0.618025
Cl184	Cl	0.486995	1.176274	-0.485591
H185	H	0.932511	0.418155	-0.067112
Cl186	Cl	0.793306	0.613854	-0.083457
