data_functionalizedCrystal
_audit_creation_method	'MofGen! by Chris Wilmer'
_symmetry_space_group_name_H-M	'P1'
_symmetry_Int_Tables_number	1
_symmetry_cell_setting	triclinic
loop_
_symmetry_equiv_pos_as_xyz
  x,y,z
_cell_length_a	13.033304
_cell_length_b	13.031981
_cell_length_c	13.032268
_cell_angle_alpha	90.931652
_cell_angle_beta	89.077769
_cell_angle_gamma	76.681394
loop_
_atom_site_label
_atom_site_type_symbol
_atom_site_fract_x
_atom_site_fract_y
_atom_site_fract_z
Zn1	Zn	-1.463148	-0.323901	0.735861
Zn2	Zn	-1.468583	-0.473496	0.542799
Zn3	Zn	-1.313608	-0.318400	0.542808
Zn4	Zn	-1.270104	-0.516887	0.686717
O5	O	-1.378861	-0.408171	0.627046
O6	O	-1.609515	-0.327888	0.730814
O7	O	-1.468506	-0.432461	0.401777
O8	O	-1.349377	-0.173456	0.588988
O9	O	-1.613509	-0.437796	0.588973
O10	O	-1.459243	-0.177498	0.730823
O11	O	-1.354647	-0.318513	0.401784
O12	O	-1.162190	-0.360587	0.541335
O13	O	-1.275231	-0.511748	0.834259
O14	O	-1.130228	-0.506414	0.647064
O15	O	-1.417059	-0.369962	0.870365
O16	O	-1.426322	-0.624926	0.541319
O17	O	-1.280501	-0.656804	0.647055
C18	C	-1.108445	-0.437612	0.588868
C19	C	-0.992753	-0.450236	0.572555
C20	C	-0.939174	-0.401596	0.635544
C21	C	-0.819601	-0.414642	0.618686
C22	C	-1.349305	-0.678637	0.588879
C23	C	-1.336752	-0.794337	0.572598
C24	C	-0.650334	-0.378609	0.665368
C25	C	-0.766024	-0.365996	0.681683
C26	C	-1.385465	-0.847850	0.635571
C27	C	-1.372491	-0.967433	0.618746
C28	C	-1.340686	-0.446309	0.889901
C29	C	-1.324418	-0.462561	1.001913
C30	C	-1.408556	-0.136649	0.665388
C31	C	-1.421211	-0.020943	0.681728
C32	C	-1.416955	-0.370100	0.365234
C33	C	-1.433457	-0.353533	0.253291
C34	C	-1.387339	-0.399653	1.069717
C35	C	-1.370527	-0.416449	1.185488
H36	H	-0.776953	-0.465944	0.552272
H37	H	-1.258096	-0.528846	1.029573
C38	C	-1.476923	-0.310090	1.032366
H39	H	-1.514213	-0.272795	1.089918
H40	H	-1.523839	-0.339051	0.992069
H41	H	-1.447975	-0.263152	0.992083
C42	C	-0.996783	-0.332293	0.725258
H43	H	-1.069591	-0.332623	0.724824
H44	H	-0.988777	-0.262128	0.718009
H45	H	-0.967527	-0.359390	0.788297
H46	H	-1.472520	-0.978233	0.748106
H47	H	-1.285437	-0.837055	0.506232
C48	C	-1.303170	-1.025125	0.529080
H49	H	-1.303549	-1.097929	0.529530
H50	H	-1.233001	-1.017163	0.536370
H51	H	-1.330212	-0.995885	0.466017
C52	C	-0.823626	-0.296693	0.771406
H53	H	-0.896434	-0.297023	0.770975
H54	H	-0.815620	-0.226528	0.764161
H55	H	-0.794366	-0.323794	0.834442
H56	H	-0.950101	-0.501534	0.506146
C57	C	-1.280938	-0.506014	1.222839
H58	H	-1.281397	-0.505559	1.295750
H59	H	-1.215151	-0.495923	1.197913
H60	H	-1.291013	-0.571822	1.197908
H61	H	-1.436770	-0.805137	0.701945
H62	H	-1.499772	-0.287232	1.225638
