data_functionalizedCrystal
_audit_creation_method	'MofGen! by Chris Wilmer'
_symmetry_space_group_name_H-M	'P1'
_symmetry_Int_Tables_number	1
_symmetry_cell_setting	triclinic
loop_
_symmetry_equiv_pos_as_xyz
  x,y,z
_cell_length_a	16.974885
_cell_length_b	10.540510
_cell_length_c	15.455313
_cell_angle_alpha	92.694210
_cell_angle_beta	90.969048
_cell_angle_gamma	83.951798
loop_
_atom_site_label
_atom_site_type_symbol
_atom_site_fract_x
_atom_site_fract_y
_atom_site_fract_z
O1	O	1.049965	0.161855	0.001510
O2	O	0.820642	0.181233	-0.014574
O3	O	0.940548	-0.013222	-0.006164
O4	O	0.930060	0.356311	-0.006900
O5	O	0.933691	-0.002148	0.137617
O6	O	0.813785	0.192307	0.129207
O7	O	1.043108	0.172929	0.145291
Cu8	Cu	0.927821	0.183629	0.150377
Cu9	Cu	0.935930	0.170533	-0.019660
O10	O	0.923203	0.367385	0.136881
C11	C	0.787849	0.185829	0.055257
C12	C	0.700353	0.183009	0.049120
C13	C	0.208248	0.166442	0.006103
C14	C	0.290460	0.169092	0.011881
C15	C	0.327819	0.176463	0.093146
C16	C	0.282963	0.181171	0.168638
C17	C	0.200754	0.178511	0.162859
C18	C	0.573288	0.185057	0.118833
C19	C	0.655503	0.187720	0.124606
C20	C	0.662994	0.175639	-0.032151
C21	C	0.580782	0.172987	-0.037923
C22	C	0.535934	0.177689	0.037569
N23	N	0.411852	0.179177	0.099054
N24	N	0.451903	0.174966	0.031660
C25	C	0.936338	-0.054980	0.065670
C26	C	0.934000	-0.195905	0.065501
C27	C	1.017282	-0.414251	0.071672
C28	C	1.019792	-0.267708	0.071519
C29	C	0.893998	-0.246504	-0.019684
C30	C	0.892114	-0.393250	-0.019880
C31	C	0.882530	-0.380445	0.143500
C32	C	0.886548	-0.234066	0.144866
C33	C	1.075901	0.168334	0.075458
C34	C	1.163398	0.171153	0.081589
C35	C	0.927413	0.409143	0.065045
C36	C	0.929751	0.550067	0.065209
N37	N	0.922123	0.192840	0.269973
N38	N	0.941634	0.161313	-0.139256
C39	C	0.973081	0.110259	0.318942
C40	C	0.968779	0.117236	0.409448
C41	C	0.913523	0.206801	0.450984
C42	C	0.862559	0.289386	0.402009
C43	C	0.866858	0.282401	0.311504
C44	C	0.894969	0.236913	0.721264
C45	C	0.890676	0.243894	0.811776
C46	C	0.996895	0.071742	0.819208
C47	C	1.001192	0.064770	0.728701
C48	C	0.950226	0.147350	0.679734
N49	N	0.909126	0.213938	0.543496
N50	N	0.954619	0.140207	0.587224
H51	H	1.051347	-0.234209	0.132783
C52	C	0.712329	0.170457	-0.115187
C53	C	0.778216	0.060495	-0.132183
C54	C	0.827552	0.055309	-0.215223
C55	C	0.811002	0.160084	-0.281267
C56	C	0.745112	0.270053	-0.264274
C57	C	0.695776	0.275240	-0.181234
H58	H	0.790470	-0.017072	-0.083291
H59	H	0.876328	-0.026098	-0.227802
H60	H	0.847523	0.156244	-0.342738
H61	H	0.732858	0.347621	-0.313166
H62	H	0.647000	0.356647	-0.168655
C63	C	1.058654	-0.465319	0.154374
C64	C	1.013469	-0.540048	0.217054
C65	C	1.054843	-0.591131	0.299756
C66	C	1.141403	-0.567486	0.319779
C67	C	1.186594	-0.492753	0.257097
C68	C	1.145219	-0.441670	0.174395
H69	H	0.949388	-0.557555	0.202233
H70	H	1.021390	-0.646454	0.346157
H71	H	1.172031	-0.605301	0.381000
H72	H	1.250675	-0.475246	0.271918
H73	H	1.178672	-0.386347	0.127994
H74	H	0.853471	0.304156	0.681402
C75	C	1.061970	-0.033755	0.683008
C76	C	1.118027	-0.124604	0.736864
C77	C	1.178807	-0.223126	0.691167
C78	C	1.183531	-0.230798	0.591616
C79	C	1.127472	-0.139946	0.537754
C80	C	1.066692	-0.041424	0.583450
H81	H	1.114532	-0.118927	0.810563
H82	H	1.220306	-0.290380	0.731040
H83	H	1.228524	-0.303729	0.557788
H84	H	1.130967	-0.145622	0.464055
H85	H	1.025194	0.025830	0.543578
H86	H	1.057165	-0.244224	0.014986
H87	H	0.825361	0.349646	0.271635
H88	H	0.817564	0.362307	0.435833
C89	C	1.065951	-0.479590	-0.004277
C90	C	1.026561	-0.565112	-0.072050
C91	C	1.075227	-0.630450	-0.148002
C92	C	1.163282	-0.610266	-0.156182
C93	C	1.202676	-0.524739	-0.088407
C94	C	1.154011	-0.459402	-0.012454
H95	H	0.961373	-0.580058	-0.065997
H96	H	1.046064	-0.693763	-0.198174
H97	H	1.199308	-0.658633	-0.212406
H98	H	1.267864	-0.509794	-0.094459
H99	H	1.183173	-0.396089	0.037717
H100	H	0.536783	0.188867	0.180304
C101	C	0.829885	0.342420	0.857464
C102	C	0.766397	0.297342	0.915463
C103	C	0.705611	0.395865	0.961150
C104	C	0.708314	0.539466	0.948837
C105	C	0.771806	0.584551	0.890834
C106	C	0.832591	0.486027	0.845148
H107	H	0.764393	0.191034	0.924581
H108	H	0.658611	0.362490	1.004087
H109	H	0.663317	0.612399	0.982657
H110	H	0.773809	0.690859	0.881717
H111	H	0.879592	0.519403	0.802210
C112	C	0.925795	-0.189561	0.229955
C113	C	1.000577	-0.118898	0.227421
C114	C	1.039826	-0.074383	0.312508
C115	C	1.004293	-0.100532	0.400128
C116	C	0.929506	-0.171199	0.402665
C117	C	0.890258	-0.215713	0.317578
H118	H	1.026885	-0.099537	0.162557
H119	H	1.095188	-0.022071	0.310629
H120	H	1.033347	-0.067580	0.463114
H121	H	0.903199	-0.190559	0.467530
H122	H	0.834896	-0.268025	0.319457
H123	H	0.685917	0.193732	0.190785
H124	H	0.550370	0.166983	-0.104097
H125	H	0.326974	0.165248	-0.049588
H126	H	0.828124	-0.415826	-0.028101
H127	H	0.177836	0.160448	-0.060072
C128	C	0.324056	0.189279	0.258031
C129	C	0.414482	0.192213	0.264393
C130	C	0.455572	0.200326	0.353788
C131	C	0.406236	0.205505	0.436822
C132	C	0.315804	0.202572	0.430464
C133	C	0.274714	0.194459	0.341068
H134	H	0.451008	0.188379	0.202923
H135	H	0.522516	0.202498	0.358495
H136	H	0.436653	0.211511	0.502998
H137	H	0.279278	0.206406	0.491933
H138	H	0.207770	0.192287	0.336362
H139	H	0.164236	0.182361	0.224328
H140	H	0.925055	-0.438522	-0.079150
H141	H	0.830985	-0.198656	-0.027167
H142	H	0.823676	-0.183928	0.145431
H143	H	0.927411	-0.220689	-0.078647
H144	H	0.906826	-0.418134	0.207648
C145	C	1.052950	-0.019102	0.873072
C146	C	1.051418	-0.164622	0.860486
C147	C	1.107473	-0.255474	0.914348
C148	C	1.165061	-0.200808	0.980796
C149	C	1.166595	-0.055281	0.993385
C150	C	1.110539	0.035572	0.939523
H151	H	1.008787	-0.205096	0.811295
H152	H	1.106337	-0.363203	0.905029
H153	H	1.206556	-0.268062	1.020669
H154	H	1.209226	-0.014807	1.042576
H155	H	1.111675	0.143301	0.948842
H156	H	0.818090	-0.401845	0.139536
H157	H	1.018080	0.037331	0.285129
H158	H	1.010273	0.049991	0.449318
