data_functionalizedCrystal
_audit_creation_method	'MofGen! by Chris Wilmer'
_symmetry_space_group_name_H-M	'P1'
_symmetry_Int_Tables_number	1
_symmetry_cell_setting	triclinic
loop_
_symmetry_equiv_pos_as_xyz
  x,y,z
_cell_length_a	19.188925
_cell_length_b	19.188930
_cell_length_c	9.730223
_cell_angle_alpha	89.993564
_cell_angle_beta	89.998856
_cell_angle_gamma	83.143665
loop_
_atom_site_label
_atom_site_type_symbol
_atom_site_fract_x
_atom_site_fract_y
_atom_site_fract_z
O1	O	0.926143	0.087146	-0.114335
O2	O	1.426143	0.587146	0.385665
O3	O	0.722831	0.098885	-0.114333
O4	O	1.222831	0.598885	0.385667
O5	O	0.830354	-0.008640	-0.114307
O6	O	1.330354	0.491360	0.385693
O7	O	0.818620	0.194671	-0.114361
O8	O	1.318620	0.694671	0.385639
O9	O	0.830353	-0.008637	0.114273
O10	O	1.330353	0.491363	0.614273
O11	O	0.722830	0.098887	0.114247
O12	O	1.222830	0.598887	0.614247
O13	O	0.926142	0.087149	0.114245
O14	O	1.426142	0.587149	0.614245
Zn15	Zn	0.824486	0.093019	0.150538
Zn16	Zn	1.324486	0.593019	0.650538
Zn17	Zn	0.824487	0.093015	-0.150626
Zn18	Zn	1.324487	0.593015	0.349374
O19	O	0.818619	0.194674	0.114219
O20	O	1.318619	0.694674	0.614219
C21	C	0.696820	0.098507	-0.000043
C22	C	1.196820	0.598507	0.499957
C23	C	0.619315	0.097367	-0.000041
C24	C	1.119315	0.597367	0.499959
C25	C	0.057545	0.152831	-0.000059
C26	C	0.557545	0.652831	0.499941
C27	C	0.130368	0.153908	-0.000066
C28	C	0.630368	0.653908	0.499934
C29	C	0.175302	0.090816	-0.000047
C30	C	0.675302	0.590816	0.499953
C31	C	0.147408	0.026642	-0.000056
C32	C	0.647408	0.526642	0.499944
C33	C	0.074586	0.025568	-0.000062
C34	C	0.574586	0.525568	0.499938
N35	N	0.295979	0.045140	0.077775
N36	N	0.795979	0.545140	0.577775
N37	N	0.365156	0.046166	0.077784
N38	N	0.865156	0.546166	0.577784
C39	C	0.394712	0.094050	-0.000032
C40	C	0.894712	0.594050	0.499968
N41	N	0.352475	0.140881	-0.077839
N42	N	0.852475	0.640881	0.422161
N43	N	0.283291	0.139857	-0.077842
N44	N	0.783291	0.639857	0.422158
C45	C	0.254267	0.091974	-0.000041
C46	C	0.754267	0.591974	0.499959
C47	C	0.501561	0.159386	-0.000041
C48	C	1.001561	0.659386	0.499959
C49	C	0.574385	0.160460	-0.000058
C50	C	1.074385	0.660460	0.499942
C51	C	0.591425	0.033193	-0.000033
C52	C	1.091425	0.533193	0.499967
C53	C	0.518601	0.032121	-0.000031
C54	C	1.018601	0.532121	0.499969
C55	C	0.473673	0.095220	-0.000028
C56	C	0.973673	0.595220	0.499972
C57	C	0.829974	-0.034650	-0.000013
C58	C	1.329974	0.465350	0.499987
C59	C	0.828833	-0.112154	-0.000001
C60	C	1.328833	0.387846	0.499999
C61	C	0.891924	-0.157079	0.000005
C62	C	1.391924	0.342921	0.500005
C63	C	0.890852	-0.229903	-0.000017
C64	C	1.390852	0.270097	0.499983
C65	C	0.826686	-0.257799	-0.000018
C66	C	1.326686	0.242201	0.499982
C67	C	0.763587	-0.212864	-0.000032
C68	C	1.263587	0.287136	0.499968
C69	C	0.764660	-0.140041	-0.000023
C70	C	1.264660	0.359959	0.499977
N71	N	0.777638	-0.365802	0.077773
N72	N	1.277638	0.134198	0.577773
N73	N	0.776623	-0.434980	0.077768
N74	N	1.276623	0.065020	0.577768
C75	C	0.823448	-0.477207	-0.000046
C76	C	1.323448	0.022793	0.499954
N77	N	0.871338	-0.447644	-0.077837
N78	N	1.371338	0.052356	0.422163
N79	N	0.872355	-0.378459	-0.077826
N80	N	1.372355	0.121541	0.422174
C81	C	0.825515	-0.336761	-0.000028
C82	C	1.325515	0.163239	0.499972
C83	C	0.885381	-0.601097	-0.000065
C84	C	1.385381	-0.101097	0.499935
C85	C	0.884307	-0.673922	-0.000096
C86	C	1.384307	-0.173922	0.499904
C87	C	0.757040	-0.656880	-0.000096
C88	C	1.257040	-0.156880	0.499904
C89	C	0.758116	-0.584057	-0.000080
C90	C	1.258116	-0.084057	0.499920
C91	C	0.822289	-0.556170	-0.000058
C92	C	1.322289	-0.056170	0.499942
C93	C	0.952154	0.087527	-0.000049
C94	C	1.452154	0.587527	0.499951
C95	C	1.029658	0.088666	-0.000059
C96	C	1.529658	0.588666	0.499941
C97	C	0.819000	0.220684	-0.000078
C98	C	1.319000	0.720684	0.499922
C99	C	0.820140	0.298188	-0.000099
C100	C	1.320140	0.798188	0.499901
N101	N	0.824490	0.093021	0.356074
N102	N	1.324490	0.593021	0.856074
N103	N	0.824489	0.093008	-0.356162
N104	N	1.324489	0.593008	0.143838
C105	C	0.872113	0.045425	0.428012
C106	C	1.372113	0.545425	0.928012
C107	C	0.872111	0.045416	0.571895
C108	C	1.372111	0.545416	1.071895
C109	C	0.776861	0.140606	0.571890
C110	C	1.276861	0.640606	1.071890
C111	C	0.776860	0.140611	0.428010
C112	C	1.276860	0.640611	0.928010
C113	C	0.927107	-0.009531	0.428016
C114	C	1.427107	0.490469	0.928016
C115	C	0.927106	-0.009539	0.571899
C116	C	1.427106	0.490461	1.071899
H117	H	0.944179	-0.134379	0.000018
H118	H	1.444179	0.365621	0.500018
H119	H	0.153078	0.206160	-0.000053
H120	H	0.653078	0.706160	0.499947
H121	H	0.628010	-0.018178	-0.000028
H122	H	1.128010	0.481822	0.499972
N123	N	0.912150	-0.080434	0.376292
N124	N	1.412150	0.419566	0.876292
H125	H	0.912148	-0.080459	0.272492
H126	H	1.412148	0.419541	0.772492
H127	H	0.949554	-0.117793	0.410965
H128	H	1.449554	0.382207	0.910965
N129	N	0.604457	0.229675	-0.000057
N130	N	1.104457	0.729675	0.499943
H131	H	0.634292	0.232955	0.084675
H132	H	1.134292	0.732955	0.584675
H133	H	0.634254	0.232924	-0.084850
H134	H	1.134254	0.732924	0.415150
H135	H	0.183999	-0.024728	-0.000044
H136	H	0.683999	0.475272	0.499956
N137	N	0.954592	-0.571011	-0.000048
N138	N	1.454592	-0.071011	0.499952
H139	H	0.994399	-0.610525	-0.000058
H140	H	1.494399	-0.110525	0.499942
H141	H	0.957809	-0.541158	-0.084777
H142	H	1.457809	-0.041158	0.415223
H143	H	0.464978	0.210765	-0.000042
H144	H	0.964978	0.710765	0.499958
N145	N	0.488518	-0.037086	-0.000021
N146	N	0.988518	0.462914	0.499979
H147	H	0.528032	-0.076893	-0.000008
H148	H	1.028032	0.423107	0.499992
H149	H	0.458673	-0.040303	0.084716
H150	H	0.958673	0.459697	0.584716
H151	H	0.977604	0.006879	0.383384
H152	H	1.477604	0.506879	0.883384
N153	N	0.952359	-0.722381	-0.000095
N154	N	1.452359	-0.222381	0.499905
H155	H	0.993171	-0.693661	-0.000075
H156	H	1.493171	-0.193661	0.499925
H157	H	0.954678	-0.752975	0.084637
H158	H	1.454678	-0.252975	0.584637
H159	H	0.704794	-0.679592	-0.000104
H160	H	1.204794	-0.179592	0.499896
H161	H	0.706740	-0.547478	-0.000077
H162	H	1.206740	-0.047478	0.499923
H163	H	0.942230	-0.266488	-0.000018
H164	H	1.442230	0.233512	0.499982
H165	H	0.711342	-0.235581	-0.000035
H166	H	1.211342	0.264419	0.499965
N167	N	0.044504	-0.043641	-0.000061
N168	N	0.544504	0.456359	0.499939
H169	H	0.084017	-0.083449	-0.000055
H170	H	0.584017	0.416551	0.499945
H171	H	0.014661	-0.046860	0.084678
H172	H	0.514661	0.453140	0.584678
N173	N	0.725483	0.191933	0.350417
N174	N	1.225483	0.691933	0.850417
H175	H	0.695311	0.222078	0.417823
H176	H	1.195311	0.722078	0.917823
H177	H	0.752105	0.222742	0.290709
H178	H	1.252105	0.722742	0.790709
H179	H	0.910737	-0.060058	0.616528
H180	H	1.410737	0.439942	1.116528
H181	H	0.713282	-0.103462	-0.000028
H182	H	1.213282	0.396538	0.499972
H183	H	0.738081	0.179352	0.630475
H184	H	1.238081	0.679352	1.130475
N185	N	0.997993	0.005471	0.623630
N186	N	1.497993	0.505471	1.123630
H187	H	1.008029	0.052895	0.589064
H188	H	1.508029	0.552895	1.089064
H189	H	0.997973	0.005431	0.727426
H190	H	1.497973	0.505431	1.227426
N191	N	0.009087	0.220885	0.000064
N192	N	0.509087	0.720885	0.500064
H193	H	0.037808	0.261697	0.000103
H194	H	0.537808	0.761697	0.500103
H195	H	-0.021527	0.223258	-0.084637
H196	H	0.478473	0.723258	0.415363
