data_functionalizedCrystal
_audit_creation_method	'MofGen! by Chris Wilmer'
_symmetry_space_group_name_H-M	'P1'
_symmetry_Int_Tables_number	1
_symmetry_cell_setting	triclinic
loop_
_symmetry_equiv_pos_as_xyz
  x,y,z
_cell_length_a	14.519731
_cell_length_b	14.519709
_cell_length_c	9.130307
_cell_angle_alpha	90.006218
_cell_angle_beta	89.994907
_cell_angle_gamma	96.315501
loop_
_atom_site_label
_atom_site_type_symbol
_atom_site_fract_x
_atom_site_fract_y
_atom_site_fract_z
O1	O	-1.223855	0.120986	0.121840
O2	O	-0.955380	0.135202	0.121835
O3	O	-1.096736	-0.006144	0.121825
O4	O	-1.082499	0.262331	0.121851
O5	O	-1.096725	-0.006150	-0.121774
O6	O	-0.955370	0.135196	-0.121764
O7	O	-1.223844	0.120980	-0.121759
Cu8	Cu	-1.089606	0.128087	-0.144004
Cu9	Cu	-1.089618	0.128094	0.144080
O10	O	-1.082489	0.262326	-0.121748
C11	C	-0.921016	0.134532	0.000035
C12	C	-0.818635	0.132536	0.000033
C13	C	-1.096067	-0.040507	0.000025
C14	C	-1.094079	-0.142889	0.000024
C15	C	-0.735491	0.130915	0.000036
C16	C	-0.631182	0.128888	0.000034
C17	C	-0.548043	0.127280	0.000031
C18	C	-0.443728	0.125253	0.000031
C19	C	-1.086759	-0.517785	0.000062
C20	C	-1.088792	-0.413477	0.000051
C21	C	-1.090419	-0.330340	0.000042
C22	C	-1.092452	-0.226025	0.000034
C23	C	-0.258209	0.121649	0.000038
C24	C	-0.360589	0.123645	0.000028
C25	C	-1.083157	0.296688	0.000055
C26	C	-1.085146	0.399070	0.000065
N27	N	-1.089604	0.128082	-0.346626
C28	C	-0.977573	0.015944	-0.346700
C29	C	-0.921568	-0.040127	-0.423403
C30	C	-0.921581	-0.040127	-0.576737
C31	C	-0.977604	0.015951	-0.653370
C32	C	-1.033609	0.072022	-0.576667
C33	C	-1.033592	0.072014	-0.423330
C34	C	-1.145633	0.184163	-0.576593
C35	C	-1.145627	0.184160	-0.423260
C36	C	-1.201656	0.240242	-0.653227
C37	C	-1.257668	0.296309	-0.576523
C38	C	-1.257653	0.296306	-0.423181
C39	C	-1.201632	0.240231	-0.346557
N40	N	-1.089628	0.128092	0.346703
H41	H	-0.977563	0.015932	-0.221848
H42	H	-1.303255	0.341971	-0.360738
H43	H	-0.875953	-0.085783	-0.360991
H44	H	-0.875972	-0.085781	-0.639189
C45	C	-1.319280	0.357996	-0.660819
C46	C	-1.319285	0.358008	-0.829480
C47	C	-1.380897	0.419698	-0.913782
C48	C	-1.442504	0.481376	-0.829422
C49	C	-1.442502	0.481366	-0.660751
C50	C	-1.380890	0.419676	-0.576449
H51	H	-1.273678	0.312348	-0.891937
H52	H	-1.380898	0.419705	-1.038644
H53	H	-1.488113	0.527042	-0.891827
H54	H	-1.488109	0.527026	-0.598294
H55	H	-1.380888	0.419669	-0.451588
H56	H	-1.201617	0.240221	-0.221704
H57	H	-1.201659	0.240242	-0.778079
H58	H	-0.977601	0.015954	-0.778222
