data_functionalizedCrystal
_audit_creation_method	'MofGen! by Chris Wilmer'
_symmetry_space_group_name_H-M	'P1'
_symmetry_Int_Tables_number	1
_symmetry_cell_setting	triclinic
loop_
_symmetry_equiv_pos_as_xyz
  x,y,z
_cell_length_a	14.044191
_cell_length_b	23.532357
_cell_length_c	12.503572
_cell_angle_alpha	93.494896
_cell_angle_beta	86.162165
_cell_angle_gamma	88.010034
loop_
_atom_site_label
_atom_site_type_symbol
_atom_site_fract_x
_atom_site_fract_y
_atom_site_fract_z
O1	O	1.261869	0.134240	-0.089293
O2	O	0.985948	0.129283	-0.089305
O3	O	1.132252	0.049281	-0.089277
O4	O	1.115565	0.214242	-0.089321
O5	O	1.121249	0.055308	0.089363
O6	O	0.974945	0.135310	0.089334
O7	O	1.250866	0.140267	0.089347
Cu8	Cu	1.111901	0.138339	0.105652
Cu9	Cu	1.124913	0.131211	-0.105610
O10	O	1.104562	0.220269	0.089318
C11	C	0.945153	0.130128	0.000013
C12	C	0.839990	0.123661	0.000009
C13	C	1.126333	0.031055	0.000047
C14	C	1.125077	-0.032231	0.000057
C15	C	0.589373	0.157706	0.000011
C16	C	0.647447	0.111846	0.000021
C17	C	0.754588	0.118421	0.000015
C18	C	0.482222	0.151132	0.000018
C19	C	1.123199	-0.427957	-0.097378
C20	C	1.122006	-0.487421	-0.097384
O21	O	1.126458	-0.520967	-0.180199
N22	N	1.115417	-0.513879	-0.000009
C23	C	1.110010	-0.480869	0.097379
O24	O	1.104295	-0.508833	0.180203
C25	C	1.111196	-0.421405	0.097384
C26	C	1.117795	-0.394951	0.000002
C27	C	1.129797	-0.401502	-0.194752
C28	C	1.130991	-0.342042	-0.194745
C29	C	1.125588	-0.309036	-0.097365
C30	C	1.118990	-0.335491	0.000009
C31	C	1.105783	-0.388396	0.194770
C32	C	1.106969	-0.328929	0.194767
C33	C	1.113568	-0.302475	0.097385
C34	C	1.114781	-0.243025	0.097395
N35	N	1.121370	-0.216567	0.000020
C36	C	1.126774	-0.249573	-0.097360
C37	C	1.107518	-0.605746	0.097360
C38	C	1.106339	-0.665209	0.097357
C39	C	1.118333	-0.671757	-0.097407
C40	C	1.119519	-0.612294	-0.097402
C41	C	1.114108	-0.579288	-0.000015
C42	C	1.129283	-0.124702	-0.097339
C43	C	1.130480	-0.065237	-0.097324
C44	C	1.118481	-0.058693	0.097439
C45	C	1.117288	-0.118154	0.097425
C46	C	1.122686	-0.151157	0.000027
O47	O	1.110329	-0.209443	0.180168
O48	O	1.132476	-0.221600	-0.180171
C49	C	1.291661	0.139422	0.000026
C50	C	1.396824	0.145889	0.000023
C51	C	1.110481	0.238495	-0.000007
C52	C	1.111737	0.301781	-0.000024
N53	N	1.102755	0.143353	0.254242
N54	N	1.134066	0.126193	-0.254201
C55	C	1.089302	0.150733	0.473355
C56	C	1.147516	0.118815	0.526694
C57	C	1.140030	0.122921	0.648615
C58	C	1.096787	0.146627	0.351422
H59	H	0.616705	0.067643	-0.000042
N60	N	1.134795	-0.158418	-0.196816
N61	N	1.068681	-0.190470	-0.218566
H62	H	1.072579	-0.214283	-0.288820
H63	H	0.620118	0.201903	-0.000004
H64	H	1.134193	-0.428370	-0.274055
H65	H	1.033846	0.181141	0.519251
H66	H	1.135857	-0.043701	-0.176627
H67	H	1.124891	-0.590759	-0.176698
N68	N	1.137729	-0.315034	-0.294229
N69	N	1.142548	-0.344519	-0.381160
H70	H	1.147304	-0.325448	-0.451427
H71	H	1.122730	-0.698641	-0.176699
H72	H	1.202977	0.088406	0.480792
N73	N	1.099618	-0.692219	0.196839
N74	N	1.094800	-0.662735	0.283773
H75	H	1.090050	-0.681809	0.354038
H76	H	1.103114	-0.578877	0.176670
N77	N	1.099050	-0.415399	0.294255
N78	N	1.094223	-0.385912	0.381184
H79	H	1.089468	-0.404982	0.451452
N80	N	1.101422	-0.295215	0.294248
N81	N	1.030475	-0.297804	0.359436
H82	H	1.026557	-0.273993	0.429694
N83	N	1.110555	-0.145171	0.196904
N84	N	1.105732	-0.115692	0.283843
H85	H	1.100966	-0.134768	0.354104
N86	N	1.112972	-0.024964	0.196897
N87	N	1.114037	0.028126	0.196876
H88	H	1.110141	0.051950	0.267118
