data_functionalizedCrystal
_audit_creation_method	'MofGen! by Chris Wilmer'
_symmetry_space_group_name_H-M	'P1'
_symmetry_Int_Tables_number	1
_symmetry_cell_setting	triclinic
loop_
_symmetry_equiv_pos_as_xyz
  x,y,z
_cell_length_a	16.959454
_cell_length_b	13.897449
_cell_length_c	13.897441
_cell_angle_alpha	89.973931
_cell_angle_beta	90.027967
_cell_angle_gamma	89.979997
loop_
_atom_site_label
_atom_site_type_symbol
_atom_site_fract_x
_atom_site_fract_y
_atom_site_fract_z
Zn1	Zn	-0.314658	-1.474687	0.545536
Zn2	Zn	-0.446853	-1.474574	0.384245
Zn3	Zn	-0.314692	-1.313376	0.384239
Zn4	Zn	-0.446798	-1.313351	0.545483
O5	O	-0.380750	-1.393997	0.464876
O6	O	-0.332202	-1.609653	0.524165
O7	O	-0.429359	-1.453154	0.249262
O8	O	-0.204077	-1.334832	0.405656
O9	O	-0.429326	-1.609571	0.405665
O10	O	-0.204051	-1.453346	0.524160
O11	O	-0.332261	-1.334722	0.249258
O12	O	-0.332208	-1.178391	0.405604
O13	O	-0.429232	-1.334789	0.680471
O14	O	-0.429265	-1.178373	0.524069
O15	O	-0.332149	-1.453322	0.680511
O16	O	-0.557457	-1.453130	0.405613
O17	O	-0.557416	-1.334680	0.524074
C18	C	-0.380735	-1.143382	0.464830
C19	C	-0.380747	-1.036169	0.464834
C20	C	-0.586117	-1.393916	0.464859
C21	C	-0.673973	-1.393970	0.464885
C22	C	-0.380749	-0.949099	0.464846
C23	C	-0.380753	-0.839866	0.464870
C24	C	-1.045458	-1.332409	0.526552
C25	C	-1.045440	-1.455853	0.403298
C26	C	-0.962894	-1.455819	0.403289
C27	C	-0.921626	-1.394079	0.464911
C28	C	-0.962904	-1.332372	0.526543
C29	C	-0.921610	-1.517518	0.341653
C30	C	-0.839059	-1.517486	0.341640
C31	C	-0.797789	-1.455750	0.403268
C32	C	-0.839073	-1.394041	0.464902
C33	C	-0.797805	-1.332300	0.526525
C34	C	-0.839086	-1.270596	0.588165
C35	C	-0.921635	-1.270635	0.588170
C36	C	-0.715241	-1.455710	0.403262
C37	C	-0.715251	-1.332263	0.526516
C38	C	-0.174582	-1.394104	0.464913
C39	C	-0.086725	-1.394150	0.464929
C40	C	-0.380680	-1.394065	0.716469
C41	C	-0.380651	-1.394094	0.823683
C42	C	-0.380763	-0.645590	0.464910
C43	C	-0.380760	-0.752804	0.464895
C44	C	-0.380763	-1.393984	0.214261
C45	C	-0.380570	-1.394142	0.107048
C46	C	-0.380597	-1.394121	1.019978
C47	C	-0.380629	-1.394103	0.910746
H48	H	-0.805477	-1.220322	0.638334
N49	N	-1.087622	-1.269367	0.589495
N50	N	-1.078459	-1.180359	0.583001
H51	H	-1.108238	-1.135833	0.627454
N52	N	-0.963815	-1.207620	0.651125
N53	N	-1.037518	-1.207664	0.651121
H54	H	-1.067312	-1.163159	0.695582
H55	H	-0.681633	-1.505945	0.353072
H56	H	-0.805452	-1.567730	0.291451
H57	H	-0.955216	-1.567777	0.291476
N58	N	-0.673112	-1.269196	0.589477
N59	N	-0.709982	-1.214116	0.644505
H60	H	-0.680222	-1.169576	0.688974
N61	N	-1.087603	-1.518901	0.340354
N62	N	-1.161306	-1.518920	0.340366
H63	H	-1.191088	-1.563450	0.295909
