data_functionalizedCrystal
_audit_creation_method	'MofGen! by Chris Wilmer'
_symmetry_space_group_name_H-M	'P1'
_symmetry_Int_Tables_number	1
_symmetry_cell_setting	triclinic
loop_
_symmetry_equiv_pos_as_xyz
  x,y,z
_cell_length_a	16.109296
_cell_length_b	16.109301
_cell_length_c	15.186229
_cell_angle_alpha	90.002208
_cell_angle_beta	89.993523
_cell_angle_gamma	83.460385
loop_
_atom_site_label
_atom_site_type_symbol
_atom_site_fract_x
_atom_site_fract_y
_atom_site_fract_z
O1	O	-0.106869	-1.103125	0.073174
O2	O	0.393131	-0.603125	0.573174
O3	O	-0.120169	-0.861063	0.073188
O4	O	0.379831	-0.361063	0.573188
O5	O	0.007512	-0.988746	0.073174
O6	O	0.507512	-0.488746	0.573174
O7	O	-0.234550	-0.975442	0.073189
O8	O	0.265450	-0.475442	0.573189
O9	O	0.007520	-0.988745	-0.073284
O10	O	0.507520	-0.488745	0.426716
O11	O	-0.120161	-0.861062	-0.073269
O12	O	0.379839	-0.361062	0.426731
O13	O	-0.106862	-1.103124	-0.073283
O14	O	0.393138	-0.603124	0.426717
Zn15	Zn	-0.113510	-0.982093	-0.096529
Zn16	Zn	0.386490	-0.482093	0.403471
Zn17	Zn	-0.113520	-0.982094	0.096435
Zn18	Zn	0.386480	-0.482094	0.596435
O19	O	-0.234543	-0.975441	-0.073268
O20	O	0.265457	-0.475441	0.426732
C21	C	0.038491	-0.988207	-0.000055
C22	C	0.538491	-0.488207	0.499945
C23	C	0.130787	-0.986594	-0.000055
C24	C	0.630787	-0.486594	0.499945
C25	C	-0.119626	-0.830087	-0.000039
C26	C	0.380374	-0.330087	0.499961
C27	C	-0.118011	-0.737792	-0.000033
C28	C	0.381989	-0.237792	0.499967
C29	C	0.439786	-1.057083	-0.000047
C30	C	0.939786	-0.557083	0.499953
C31	C	0.353065	-1.058607	-0.000051
C32	C	0.853065	-0.558607	0.499949
C33	C	0.333192	-0.907118	-0.000054
C34	C	0.833192	-0.407118	0.499946
C35	C	0.419911	-0.905595	-0.000056
C36	C	0.919911	-0.405595	0.499944
C37	C	0.473206	-0.980580	-0.000048
C38	C	0.973206	-0.480580	0.499952
C39	C	0.299767	-0.983626	-0.000050
C40	C	0.799767	-0.483626	0.499950
C41	C	0.205740	-0.985278	-0.000055
C42	C	0.705740	-0.485278	0.499945
C43	C	0.567238	-0.978929	-0.000046
C44	C	1.067238	-0.478929	0.499954
C45	C	0.734479	-0.975984	-0.000041
C46	C	1.234479	-0.475984	0.499959
C47	C	0.642186	-0.977613	-0.000044
C48	C	1.142186	-0.477613	0.499956
N49	N	-0.113521	-0.982095	0.228127
N50	N	0.386479	-0.482095	0.728127
C51	C	-0.107404	-1.134099	-0.000054
C52	C	0.392596	-0.634099	0.499946
C53	C	-0.109019	-1.226394	-0.000054
C54	C	0.390981	-0.726394	0.499946
C55	C	-0.190019	-0.515518	-0.000039
C56	C	0.309981	-0.015518	0.499961
C57	C	-0.188495	-0.428798	-0.000045
C58	C	0.311505	0.071202	0.499955
C59	C	-0.037006	-0.448675	-0.000051
C60	C	0.462994	0.051325	0.499949
C61	C	-0.038531	-0.535394	-0.000051
C62	C	0.461469	-0.035394	0.499949
C63	C	-0.115040	-0.568813	-0.000041
C64	C	0.384960	-0.068813	0.499959
C65	C	-0.111991	-0.395374	-0.000046
C66	C	0.388009	0.104626	0.499954
C67	C	-0.110338	-0.301348	-0.000052
C68	C	0.389662	0.198652	0.499948
C69	C	-0.116693	-0.662845	-0.000036
C70	C	0.383307	-0.162845	0.499964
N71	N	-0.113503	-0.982098	-0.228222
N72	N	0.386497	-0.482098	0.271778
C73	C	-0.057093	-1.038742	0.453844
C74	C	0.442907	-0.538742	0.953844
C75	C	-0.057091	-1.038745	0.546033
C76	C	0.442909	-0.538745	1.046033
C77	C	-0.169937	-0.925448	0.546055
C78	C	0.330063	-0.425448	1.046055
C79	C	-0.169942	-0.925450	0.453867
C80	C	0.330058	-0.425450	0.953867
C81	C	-0.113516	-0.982096	0.407764
C82	C	0.386484	-0.482096	0.907764
C83	C	-0.113508	-0.982097	0.592141
C84	C	0.386492	-0.482097	1.092141
C85	C	-0.113506	-0.982099	0.692098
C86	C	0.386494	-0.482099	1.192098
C87	C	-0.113518	-0.982096	0.307801
C88	C	0.386482	-0.482096	0.807801
H89	H	0.483177	-1.118141	-0.000041
H90	H	0.983177	-0.618141	0.499959
Cl91	Cl	0.059172	-0.406656	-0.000058
Cl92	Cl	0.559172	0.093344	0.499942
Cl93	Cl	0.311056	-1.154786	-0.000047
Cl94	Cl	0.811056	-0.654786	0.499953
H95	H	-0.011148	-1.084872	0.583549
H96	H	0.488852	-0.584872	1.083549
Cl97	Cl	0.266187	-0.812856	-0.000057
Cl98	Cl	0.766187	-0.312856	0.499943
Cl99	Cl	0.461928	-0.809412	-0.000063
Cl100	Cl	0.961928	-0.309412	0.499937
Cl101	Cl	-0.282759	-0.361802	-0.000043
Cl102	Cl	0.217241	0.138198	0.499957
Cl103	Cl	-0.286201	-0.557528	-0.000032
Cl104	Cl	0.213799	-0.057528	0.499968
Cl105	Cl	0.055737	-0.602398	-0.000061
Cl106	Cl	0.555737	-0.102398	0.499939
Cl107	Cl	0.013840	-1.109958	0.395889
Cl108	Cl	0.513840	-0.609958	0.895889
H109	H	-0.215877	-0.879327	0.583602
H110	H	0.284123	-0.379327	1.083602
H111	H	-0.215892	-0.879322	0.416347
H112	H	0.284108	-0.379322	0.916347
