data_functionalizedCrystal
_audit_creation_method	'MofGen! by Chris Wilmer'
_symmetry_space_group_name_H-M	'P1'
_symmetry_Int_Tables_number	1
_symmetry_cell_setting	triclinic
loop_
_symmetry_equiv_pos_as_xyz
  x,y,z
_cell_length_a	17.699083
_cell_length_b	11.026607
_cell_length_c	16.176319
_cell_angle_alpha	89.996049
_cell_angle_beta	89.998611
_cell_angle_gamma	95.934516
loop_
_atom_site_label
_atom_site_type_symbol
_atom_site_fract_x
_atom_site_fract_y
_atom_site_fract_z
O1	O	1.025155	0.153399	-0.068626
O2	O	0.807518	0.173357	-0.068652
O3	O	0.898299	-0.013222	-0.068638
O4	O	0.934374	0.339978	-0.068640
O5	O	0.898282	-0.013234	0.068855
O6	O	0.807501	0.173345	0.068841
O7	O	1.025137	0.153387	0.068867
Cu8	Cu	0.916317	0.163365	0.081408
Cu9	Cu	0.916338	0.163379	-0.081193
O10	O	0.934357	0.339966	0.068853
C11	C	0.779214	0.172636	0.000091
C12	C	0.694902	0.170490	0.000080
C13	C	0.661328	0.280008	0.000080
C14	C	0.582106	0.277985	0.000091
C15	C	0.536460	0.166443	0.000096
C16	C	0.570039	0.056917	0.000099
C17	C	0.649259	0.058941	0.000094
C18	C	0.250554	0.048751	0.000119
C19	C	0.171329	0.046735	0.000121
C20	C	0.183402	0.267794	0.000116
C21	C	0.262621	0.269819	0.000111
C22	C	0.296194	0.160293	0.000118
C23	C	0.382094	0.162488	0.000108
C24	C	0.450561	0.164247	0.000100
C25	C	0.891635	-0.058419	0.000106
C26	C	0.871796	-0.193075	0.000101
C27	C	0.926576	-0.267042	0.000107
C28	C	0.906072	-0.406216	0.000101
C29	C	1.053441	0.154108	0.000122
C30	C	1.137754	0.156254	0.000127
C31	C	0.941021	0.385163	0.000107
C32	C	0.960860	0.519819	0.000106
N33	N	0.916308	0.163354	0.195773
N34	N	0.916352	0.163380	-0.195559
C35	C	0.956526	0.080771	0.239044
C36	C	0.956530	0.080770	0.325591
C37	C	0.916320	0.163358	0.368866
C38	C	0.876097	0.245946	0.325590
C39	C	0.876089	0.245940	0.239044
C40	C	0.876126	0.245969	0.674618
C41	C	0.876138	0.245970	0.761169
C42	C	0.956566	0.080798	0.761165
C43	C	0.956559	0.080792	0.674619
C44	C	0.916333	0.163375	0.631350
C45	C	0.916328	0.163374	0.537506
C46	C	0.916328	0.163366	0.462709
H47	H	0.532868	-0.033903	0.000115
C48	C	0.685570	-0.060096	0.000047
C49	C	0.628642	-0.158215	0.000029
C50	C	0.662061	-0.267893	-0.000023
H51	H	0.716218	-0.064080	0.047979
H52	H	0.716202	-0.063963	-0.047921
H53	H	0.598023	-0.154350	0.047992
H54	H	0.597990	-0.154272	-0.047900
H55	H	0.692693	-0.271760	-0.047991
H56	H	0.692708	-0.271864	0.047910
H57	H	0.623441	-0.334480	-0.000043
H58	H	0.989318	0.013551	0.796403
H59	H	0.698488	0.370838	0.000075
H60	H	0.843339	0.313186	0.203814
H61	H	0.988654	-0.227333	0.000119
C62	C	0.832357	0.335664	0.372422
C63	C	0.797115	0.407962	0.316000
C64	C	0.756807	0.490614	0.359109
H65	H	0.866380	0.386228	0.406179
H66	H	0.794884	0.292117	0.406172
H67	H	0.834584	0.451505	0.282264
H68	H	0.763081	0.357432	0.282241
H69	H	0.719334	0.447068	0.392860
H70	H	0.790834	0.541169	0.392865
H71	H	0.732885	0.539670	0.320834
C72	C	0.823277	-0.459074	-0.000082
C73	C	0.787397	-0.419544	-0.070834
C74	C	0.711131	-0.468226	-0.071037
H75	H	0.798694	-0.432413	0.047806
H76	H	0.820466	-0.545584	-0.000130
H77	H	0.790204	-0.333052	-0.070778
H78	H	0.811957	-0.446203	-0.118733
H79	H	0.708320	-0.554736	-0.071085
H80	H	0.686556	-0.441562	-0.023146
H81	H	0.686779	-0.441421	-0.119044
H82	H	0.809717	-0.232783	0.000088
C83	C	1.043597	-0.427022	0.000158
C84	C	1.047488	-0.299552	0.000180
C85	C	1.123691	-0.250540	0.000237
H86	H	1.068158	-0.453588	-0.047773
H87	H	1.068087	-0.453665	0.048127
H88	H	1.023009	-0.272920	-0.047784
H89	H	1.022943	-0.272953	0.048107
H90	H	1.148180	-0.277183	0.048206
H91	H	1.148246	-0.277115	-0.047695
H92	H	1.126341	-0.164048	0.000260
C93	C	1.000199	-0.009036	0.192213
C94	C	1.035403	-0.081381	0.248636
C95	C	1.075632	-0.164140	0.205528
H96	H	1.037690	0.034391	0.158440
H97	H	0.966110	-0.059547	0.158477
H98	H	1.069490	-0.030877	0.282357
H99	H	0.997930	-0.124834	0.282410
H100	H	1.041543	-0.214651	0.171793
H101	H	1.113119	-0.120703	0.171758
H102	H	1.099517	-0.213243	0.243805
C103	C	1.000061	-0.009030	0.372609
C104	C	0.949651	-0.083240	0.422288
C105	C	0.989726	-0.165993	0.465601
H106	H	1.037504	0.034403	0.406431
H107	H	1.023989	-0.058278	0.334462
H108	H	0.925735	-0.033998	0.460430
H109	H	0.912208	-0.126700	0.388486
H110	H	1.013654	-0.215241	0.427454
H111	H	1.027167	-0.122550	0.499418
H112	H	0.955528	-0.216362	0.499307
H113	H	0.989305	0.013545	0.639387
H114	H	0.843374	0.313212	0.639395
H115	H	0.134166	-0.044102	0.000127
H116	H	0.843392	0.313226	0.796403
H117	H	0.554775	0.367165	0.000090
H118	H	0.299783	0.360648	0.000103
H119	H	0.156058	0.356975	0.000115
H120	H	0.277879	-0.040432	0.000126
