data_functionalizedCrystal
_audit_creation_method	'MofGen! by Chris Wilmer'
_symmetry_space_group_name_H-M	'P1'
_symmetry_Int_Tables_number	1
_symmetry_cell_setting	triclinic
loop_
_symmetry_equiv_pos_as_xyz
  x,y,z
_cell_length_a	19.188930
_cell_length_b	19.188924
_cell_length_c	12.376457
_cell_angle_alpha	101.235232
_cell_angle_beta	78.732154
_cell_angle_gamma	83.143372
loop_
_atom_site_label
_atom_site_type_symbol
_atom_site_fract_x
_atom_site_fract_y
_atom_site_fract_z
O1	O	0.939627	0.073691	-0.094378
O2	O	0.736304	0.085436	-0.094301
O3	O	0.843834	-0.022091	-0.094328
O4	O	0.832098	0.181218	-0.094351
O5	O	0.816961	0.004754	0.093691
O6	O	0.709432	0.112282	0.093718
O7	O	0.912754	0.100536	0.093641
Zn8	Zn	0.806826	0.110671	0.123532
Zn9	Zn	0.842232	0.075301	-0.124192
O10	O	0.805225	0.208063	0.093668
C11	C	0.696856	0.098480	-0.000282
C12	C	0.619347	0.097344	-0.000252
C13	C	0.830018	-0.034679	-0.000318
C14	C	0.828879	-0.112183	-0.000314
C15	C	0.574425	0.160431	-0.000276
C16	C	0.501603	0.159358	-0.000289
C17	C	0.473709	0.095190	-0.000299
C18	C	0.518640	0.032095	-0.000268
C19	C	0.591459	0.033172	-0.000244
N20	N	0.374882	0.037001	-0.064330
N21	N	0.305707	0.035982	-0.064355
C22	C	0.254311	0.091942	-0.000368
N23	N	0.274703	0.148969	0.063631
N24	N	0.343885	0.149989	0.063651
C25	C	0.394751	0.094016	-0.000324
C26	C	0.130426	0.153870	-0.000404
C27	C	0.057602	0.152795	-0.000410
C28	C	0.074643	0.025529	-0.000400
C29	C	0.147463	0.026608	-0.000384
C30	C	0.175351	0.090779	-0.000391
C31	C	0.842996	-0.163216	-0.102803
C32	C	0.841917	-0.236039	-0.102812
C33	C	0.826734	-0.257829	-0.000325
C34	C	0.812612	-0.206786	0.102178
C35	C	0.813684	-0.133963	0.102183
N36	N	0.853882	-0.366604	0.075939
N37	N	0.852866	-0.435784	0.075927
C38	C	0.823502	-0.477240	-0.000334
N39	N	0.795203	-0.446906	-0.076601
N40	N	0.796223	-0.377721	-0.076592
C41	C	0.825570	-0.336792	-0.000319
C42	C	0.836449	-0.607237	-0.102840
C43	C	0.835365	-0.680061	-0.102844
C44	C	0.806067	-0.650807	0.102149
C45	C	0.807144	-0.577983	0.102150
C46	C	0.822339	-0.556204	-0.000347
C47	C	0.952203	0.087492	-0.000381
C48	C	1.029713	0.088627	-0.000418
C49	C	0.819041	0.220651	-0.000345
C50	C	0.820182	0.298154	-0.000356
N51	N	0.782668	0.134810	0.292596
N52	N	0.866396	0.051157	-0.293256
C53	C	0.922476	-0.004889	0.647545
C54	C	0.939381	-0.021784	0.529201
C55	C	0.900204	0.017363	0.470044
C56	C	0.844120	0.073407	0.529243
C57	C	0.827217	0.090307	0.647599
C58	C	0.804945	0.112560	0.470097
C59	C	0.748861	0.168604	0.529296
C60	C	0.731960	0.185501	0.647640
C61	C	0.771137	0.146354	0.706797
C62	C	0.821847	0.095660	0.351741
C63	C	0.726588	0.190856	0.351795
C64	C	0.709684	0.207751	0.470139
H65	H	0.465020	0.210734	-0.000306
H66	H	0.495927	-0.020153	-0.000292
N67	N	0.752906	0.164582	0.834443
H68	H	0.701427	0.158616	0.862985
H69	H	0.786278	0.131266	0.862839
H70	H	0.021026	0.204172	-0.000423
N71	N	0.639911	-0.034878	-0.000216
H72	H	0.640941	-0.072837	-0.069914
H73	H	0.690247	-0.024398	-0.000159
N74	N	0.999868	-0.082227	0.465358
H75	H	0.980300	-0.120085	0.416272
H76	H	1.037687	-0.062569	0.416300
H77	H	0.848817	-0.589503	-0.186299
H78	H	0.800248	-0.224531	0.185623
H79	H	0.051943	-0.026727	-0.000479
H80	H	0.853408	-0.277597	-0.186273
N81	N	0.850598	-0.735106	-0.213393
H82	H	0.847611	-0.784545	-0.197847
H83	H	0.813913	-0.722968	-0.258143
H84	H	0.153131	0.206125	-0.000394
N85	N	0.791934	-0.522940	0.212695
H86	H	0.794917	-0.473501	0.197148
H87	H	0.742074	-0.523485	0.257471
N88	N	0.882319	0.035201	0.287903
H89	H	0.887082	0.030430	0.203953
H90	H	0.928877	0.046085	0.308548
N91	N	0.671468	0.245946	0.711491
H92	H	0.682287	0.292541	0.690882
H93	H	0.624911	0.235014	0.690897
N94	N	0.789684	-0.674296	0.212692
H95	H	0.791144	-0.728173	0.197139
H96	H	0.826749	-0.660977	0.257436
N97	N	0.195921	-0.041437	-0.000357
H98	H	0.167202	-0.082251	-0.000364
H99	H	0.236487	-0.053716	-0.070046
N100	N	0.798459	-0.078915	0.212729
H101	H	0.788675	-0.103766	0.277656
H102	H	0.841544	-0.053863	0.217178
H103	H	0.664019	0.253384	0.518353
N104	N	0.964727	-0.047113	0.711340
H105	H	1.017199	-0.042139	0.690709
H106	H	0.945453	-0.027882	0.795276
H107	H	0.694688	0.222735	0.303630
H108	H	0.855366	-0.145488	-0.186265
N109	N	0.604505	0.229641	-0.000293
H110	H	0.564993	0.269444	-0.000313
H111	H	0.624368	0.242818	0.069415
N112	N	0.918433	-0.000857	0.342402
H113	H	0.959905	-0.042302	0.313876
H114	H	0.875058	-0.014932	0.314022
