data_functionalizedCrystal
_audit_creation_method	'MofGen! by Chris Wilmer'
_symmetry_space_group_name_H-M	'P1'
_symmetry_Int_Tables_number	1
_symmetry_cell_setting	triclinic
loop_
_symmetry_equiv_pos_as_xyz
  x,y,z
_cell_length_a	10.540539
_cell_length_b	17.699083
_cell_length_c	16.776229
_cell_angle_alpha	90.001114
_cell_angle_beta	89.995514
_cell_angle_gamma	96.095747
loop_
_atom_site_label
_atom_site_type_symbol
_atom_site_fract_x
_atom_site_fract_y
_atom_site_fract_z
O1	O	0.160520	-1.005122	-0.066173
O2	O	0.660520	-0.505122	0.433827
O3	O	0.181404	-0.784880	-0.066198
O4	O	0.681404	-0.284880	0.433802
O5	O	-0.013836	-0.900026	-0.066184
O6	O	0.486164	-0.400026	0.433816
O7	O	0.355761	-0.889976	-0.066187
O8	O	0.855761	-0.389976	0.433813
O9	O	-0.013848	-0.900010	0.066393
O10	O	0.486152	-0.400010	0.566393
O11	O	0.181392	-0.784864	0.066378
O12	O	0.681392	-0.284864	0.566378
O13	O	0.160508	-1.005107	0.066404
O14	O	0.660508	-0.505107	0.566404
Zn15	Zn	0.170948	-0.894983	0.087440
Zn16	Zn	0.670948	-0.394983	0.587440
Zn17	Zn	0.170964	-0.895003	-0.087235
Zn18	Zn	0.670964	-0.395003	0.412765
O19	O	0.355749	-0.889961	0.066389
O20	O	0.855749	-0.389961	0.566389
C21	C	0.180650	-0.756670	0.000087
C22	C	0.680650	-0.256670	0.500087
C23	C	0.178405	-0.672637	0.000077
C24	C	0.678405	-0.172637	0.500077
C25	C	-0.061131	-0.899264	0.000103
C26	C	0.438869	-0.399264	0.500103
C27	C	-0.202038	-0.897009	0.000098
C28	C	0.297962	-0.397009	0.500098
C29	C	0.161263	-1.033316	0.000117
C30	C	0.661263	-0.533316	0.500117
C31	C	0.163508	-1.117349	0.000122
C32	C	0.663508	-0.617349	0.500122
C33	C	-0.383885	-0.810610	-0.000209
C34	C	0.116115	-0.310610	0.499791
C35	C	-0.237308	-0.812896	0.000089
C36	C	0.262692	-0.312896	0.500089
C37	C	-0.264443	-0.937480	0.075811
C38	C	0.235557	-0.437480	0.575811
C39	C	-0.410935	-0.934609	0.075874
C40	C	0.089065	-0.434609	0.575874
C41	C	-0.411471	-0.936337	-0.074890
C42	C	0.088529	-0.436337	0.425110
C43	C	-0.264503	-0.937112	-0.075891
C44	C	0.235497	-0.437112	0.424109
C45	C	0.403044	-0.890722	0.000101
C46	C	0.903044	-0.390722	0.500101
C47	C	0.543951	-0.892977	0.000100
C48	C	1.043951	-0.392977	0.500100
N49	N	0.170937	-0.894974	0.206652
N50	N	0.670937	-0.394974	0.706652
C51	C	0.293007	-0.624761	0.000076
C52	C	0.793007	-0.124761	0.500076
C53	C	0.290890	-0.545804	0.000086
C54	C	0.790890	-0.045804	0.500086
C55	C	0.174170	-0.514725	0.000092
C56	C	0.674170	-0.014725	0.500092
C57	C	0.059559	-0.562607	0.000095
C58	C	0.559559	-0.062607	0.500095
C59	C	0.061677	-0.641562	0.000090
C60	C	0.561677	-0.141562	0.500090
C61	C	0.051014	-0.244188	0.000115
C62	C	0.551014	0.255812	0.500115
C63	C	0.048904	-0.165226	0.000117
C64	C	0.548904	0.334774	0.500117
C65	C	0.280227	-0.148430	0.000111
C66	C	0.780227	0.351570	0.500111
C67	C	0.282345	-0.227386	0.000106
C68	C	0.782345	0.272614	0.500106
C69	C	0.167735	-0.275261	0.000113
C70	C	0.667735	0.224739	0.500113
C71	C	0.170032	-0.360875	0.000104
C72	C	0.670032	0.139125	0.500104
C73	C	0.171872	-0.429112	0.000096
C74	C	0.671872	0.070888	0.500096
N75	N	0.170966	-0.895018	-0.206446
N76	N	0.670966	-0.395018	0.293554
C77	C	0.084520	-0.945977	0.248375
C78	C	0.584520	-0.445977	0.748375
C79	C	0.084519	-0.945981	0.331827
C80	C	0.584519	-0.445981	0.831827
C81	C	0.170942	-0.894986	0.373555
C82	C	0.670942	-0.394986	0.873555
C83	C	0.257363	-0.843978	0.331825
C84	C	0.757363	-0.343978	0.831825
C85	C	0.257357	-0.843971	0.248375
C86	C	0.757357	-0.343971	0.748375
C87	C	0.257388	-0.844005	0.668372
C88	C	0.757388	-0.344005	1.168372
C89	C	0.257390	-0.844018	0.751829
C90	C	0.757390	-0.344018	1.251829
C91	C	0.084550	-0.946016	0.751825
C92	C	0.584550	-0.446016	1.251825
C93	C	0.084544	-0.946009	0.668374
C94	C	0.584544	-0.446009	1.168374
C95	C	0.170960	-0.894998	0.626652
C96	C	0.670960	-0.394998	1.126652
C97	C	0.170958	-0.894993	0.536164
C98	C	0.670958	-0.394993	1.036164
C99	C	0.170950	-0.894994	0.464041
C100	C	0.670950	-0.394994	0.964041
H101	H	-0.194118	-0.781051	-0.054185
H102	H	0.305882	-0.281051	0.445815
N103	N	-0.070341	-0.133491	0.000120
N104	N	0.429659	0.366509	0.500120
N105	N	-0.172661	-0.176243	0.000126
N106	N	0.327339	0.323757	0.500126
H107	H	-0.256875	-0.153830	0.000127
H108	H	0.243125	0.346170	0.500127
H109	H	-0.042309	-0.283159	0.000121
H110	H	0.457691	0.216841	0.500121
H111	H	-0.194971	-0.780815	0.054446
H112	H	0.305029	-0.280815	0.554446
H113	H	-0.035477	-0.537295	0.000111
H114	H	0.464523	-0.037295	0.500111
N115	N	-0.055398	-0.690458	0.000100
N116	N	0.444602	-0.190458	0.500100
N117	N	-0.159605	-0.662701	0.000108
N118	N	0.340395	-0.162701	0.500108
H119	H	-0.242295	-0.697233	0.000120
H120	H	0.257705	-0.197233	0.500120
N121	N	-0.003837	-0.998033	0.205768
N122	N	0.496163	-0.498033	0.705768
N123	N	-0.081040	-1.043535	0.243035
N124	N	0.418960	-0.543535	0.743035
H125	H	-0.143477	-1.080284	0.212947
H126	H	0.356523	-0.580284	0.712947
N127	N	-0.418995	-0.768913	-0.068306
N128	N	0.081005	-0.268913	0.431694
N129	N	-0.371063	-0.701969	-0.078712
N130	N	0.128937	-0.201969	0.421288
H131	H	-0.395869	-0.672517	-0.126806
H132	H	0.104131	-0.172517	0.373194
H133	H	0.327725	-0.802438	0.214404
H134	H	0.827725	-0.302438	0.714404
N135	N	-0.003727	-0.998114	0.625765
N136	N	0.496273	-0.498114	1.125765
N137	N	-0.080876	-1.043653	0.663028
N138	N	0.419124	-0.543653	1.163028
H139	H	-0.143219	-1.080455	0.632937
H140	H	0.356781	-0.580455	1.132937
N141	N	0.345654	-0.791883	0.374433
N142	N	0.845654	-0.291883	0.874433
N143	N	0.422803	-0.746347	0.337168
N144	N	0.922803	-0.246347	0.837168
H145	H	0.485162	-0.709553	0.367257
H146	H	0.985162	-0.209553	0.867257
N147	N	-0.003768	-0.998081	0.374434
N148	N	0.496232	-0.498081	0.874434
N149	N	-0.080921	-1.043611	0.337169
N150	N	0.419079	-0.543611	0.837169
H151	H	-0.143280	-1.080408	0.367258
H152	H	0.356720	-0.580408	0.867258
H153	H	-0.413492	-0.777513	0.053774
H154	H	0.086508	-0.277513	0.553774
N155	N	0.407950	-0.496897	0.000105
N156	N	0.907950	0.003103	0.500105
N157	N	0.432566	-0.450979	0.056003
N158	N	0.932566	0.049021	0.556003
H159	H	0.515247	-0.416439	0.056024
H160	H	1.015247	0.083561	0.556024
H161	H	-0.243219	-0.999250	0.078633
H162	H	0.256781	-0.499250	0.578633
N163	N	-0.210400	-0.902187	0.146488
N164	N	0.289600	-0.402187	0.646488
N165	N	-0.280199	-0.872900	0.195337
N166	N	0.219801	-0.372900	0.695337
H167	H	-0.242035	-0.847970	0.245252
H168	H	0.257965	-0.347970	0.745252
H169	H	0.014181	-0.987549	0.785804
H170	H	0.514181	-0.487549	1.285804
N171	N	0.345683	-0.791920	0.794442
N172	N	0.845683	-0.291920	1.294442
N173	N	0.422832	-0.746379	0.757182
N174	N	0.922832	-0.246379	1.257182
H175	H	0.485188	-0.709586	0.787276
H176	H	0.985188	-0.209586	1.287276
H177	H	-0.442521	-0.909121	-0.132275
H178	H	0.057479	-0.409121	0.367725
H179	H	0.327753	-0.802472	0.634409
H180	H	0.827753	-0.302472	1.134409
H181	H	-0.460010	-0.995102	0.079316
H182	H	0.039990	-0.495102	0.579316
N183	N	-0.445616	-0.897057	0.146859
N184	N	0.054384	-0.397057	0.646859
N185	N	-0.400349	-0.830106	0.160285
N186	N	0.099651	-0.330106	0.660285
H187	H	-0.424835	-0.803581	0.210419
H188	H	0.075165	-0.303581	0.710419
N189	N	0.397291	-0.099515	0.000105
N190	N	0.897291	0.400485	0.500105
N191	N	0.395392	-0.029020	0.000111
N192	N	0.895392	0.470980	0.500111
H193	H	0.478066	0.005526	0.000105
H194	H	0.978066	0.505526	0.500105
H195	H	-0.241403	-0.998438	-0.080455
H196	H	0.258597	-0.498438	0.419545
N197	N	-0.212422	-0.900013	-0.146145
N198	N	0.287578	-0.400013	0.353855
N199	N	-0.095361	-0.896779	-0.159705
N200	N	0.404639	-0.396779	0.340295
H201	H	-0.058561	-0.870575	-0.209318
H202	H	0.441439	-0.370575	0.290682
N203	N	-0.472076	-1.012560	-0.075520
N204	N	0.027924	-0.512560	0.424480
N205	N	-0.455337	-1.056271	-0.018853
N206	N	0.044663	-0.556271	0.481147
H207	H	-0.498137	-1.110103	-0.019292
H208	H	0.001863	-0.610103	0.480708
N209	N	0.412248	-0.656492	0.000063
N210	N	0.912248	-0.156492	0.500063
N211	N	0.514561	-0.613733	0.000064
N212	N	1.014561	-0.113733	0.500064
H213	H	0.598780	-0.636140	0.000057
H214	H	1.098780	-0.136140	0.500057
N215	N	0.401583	-0.259119	0.000093
N216	N	0.901583	0.240881	0.500093
N217	N	0.503900	-0.216364	0.000092
N218	N	1.003900	0.283636	0.500092
H219	H	0.588116	-0.238773	0.000085
H220	H	1.088116	0.261227	0.500085
