data_functionalizedCrystal
_audit_creation_method	'MofGen! by Chris Wilmer'
_symmetry_space_group_name_H-M	'P1'
_symmetry_Int_Tables_number	1
_symmetry_cell_setting	triclinic
loop_
_symmetry_equiv_pos_as_xyz
  x,y,z
_cell_length_a	14.044220
_cell_length_b	14.853567
_cell_length_c	13.930277
_cell_angle_alpha	90.000757
_cell_angle_beta	89.997723
_cell_angle_gamma	91.588096
loop_
_atom_site_label
_atom_site_type_symbol
_atom_site_fract_x
_atom_site_fract_y
_atom_site_fract_z
O1	O	1.257997	-0.217372	-0.079714
O2	O	0.982017	-0.209528	-0.079738
O3	O	1.127379	-0.082805	-0.079728
O4	O	1.112635	-0.344096	-0.079724
O5	O	1.127359	-0.082800	0.079934
O6	O	0.981997	-0.209524	0.079923
O7	O	1.257976	-0.217368	0.079948
Zn8	Zn	1.119983	-0.213445	0.105286
Zn9	Zn	1.120010	-0.213451	-0.105076
O10	O	1.112615	-0.344091	0.079938
C11	C	0.946688	-0.206092	0.000089
C12	C	0.841449	-0.195851	0.000079
C13	C	0.648763	-0.177127	0.000098
C14	C	0.591225	-0.249765	0.000103
C15	C	0.484008	-0.239347	0.000114
C16	C	0.755990	-0.187544	0.000088
C17	C	1.126701	-0.049161	0.000100
C18	C	1.124699	0.051082	0.000091
C19	C	1.293306	-0.220803	0.000118
C20	C	1.398545	-0.231045	0.000122
C21	C	1.113293	-0.377735	0.000108
C22	C	1.115295	-0.477978	0.000110
N23	N	1.119972	-0.213441	0.248852
C24	C	1.029888	0.471127	0.000101
C25	C	1.202581	0.478726	0.000116
C26	C	1.204464	0.384543	0.000111
C27	C	1.119057	0.333648	0.000102
C28	C	1.031768	0.376935	0.000098
C29	C	1.291751	0.341248	0.000124
C30	C	1.293637	0.247060	0.000120
C31	C	1.208229	0.196163	0.000104
C32	C	1.120937	0.239456	0.000099
C33	C	1.035530	0.188561	0.000090
C34	C	0.948237	0.231852	0.000079
C35	C	0.946360	0.326038	0.000083
C36	C	1.210105	0.101977	0.000100
C37	C	1.037410	0.094369	0.000088
N38	N	1.120029	-0.213449	-0.248642
C39	C	1.055641	-0.269540	0.701116
C40	C	1.184405	-0.157357	0.701095
C41	C	1.184394	-0.157353	0.600599
C42	C	1.120006	-0.213445	0.550357
C43	C	1.055630	-0.269540	0.600611
C44	C	1.248775	-0.101266	0.550338
C45	C	1.248767	-0.101260	0.449836
C46	C	1.184374	-0.157348	0.399592
C47	C	1.119995	-0.213445	0.449852
C48	C	1.055608	-0.269536	0.399611
C49	C	0.991223	-0.325629	0.449869
C50	C	0.991237	-0.325627	0.550368
C51	C	1.184360	-0.157349	0.299093
C52	C	1.055596	-0.269536	0.299106
H53	H	0.622488	-0.319778	0.000100
H54	H	0.617501	-0.107120	0.000102
C55	C	0.866517	0.096319	0.000071
C56	C	0.943526	0.038428	0.000079
H57	H	0.808558	0.061782	0.000071
H58	H	0.869384	0.133209	-0.055604
H59	H	0.869374	0.133218	0.055751
H60	H	0.940672	0.001534	-0.055606
H61	H	0.940657	0.001523	0.055760
C62	C	1.305616	-0.051123	0.295774
C63	C	1.319317	-0.039382	0.394596
H64	H	1.349110	-0.012858	0.261672
H65	H	1.242255	-0.036408	0.279443
H66	H	1.316205	-0.112066	0.279186
H67	H	1.308720	0.021560	0.411185
H68	H	1.382693	-0.054091	0.410933
C69	C	0.866803	0.467044	0.000099
C70	C	0.850414	0.373626	0.000084
H71	H	0.807570	0.496423	0.000110
H72	H	0.901970	0.484039	-0.055573
H73	H	0.901973	0.484024	0.055783
H74	H	0.815250	0.356645	-0.055603
H75	H	0.815233	0.356624	0.055762
C76	C	1.204818	-0.036324	0.814116
C77	C	1.255172	-0.095702	0.756323
H78	H	1.248509	0.001745	0.848210
H79	H	1.166490	-0.069737	0.858421
H80	H	1.165318	-0.000698	0.774907
H81	H	1.294667	-0.131333	0.795533
H82	H	1.293517	-0.062286	0.712013
H83	H	0.878699	0.190401	0.000078
C84	C	1.276373	0.626480	0.000132
C85	C	1.296457	0.534668	0.000128
H86	H	1.334332	0.661017	0.000133
H87	H	1.240588	0.640344	0.055805
H88	H	1.240592	0.640347	-0.055551
H89	H	1.332232	0.520799	0.055815
H90	H	1.332257	0.520798	-0.055551
H91	H	0.958816	0.506379	0.000088
H92	H	1.361284	0.382694	0.000141
C93	C	1.464151	0.264042	0.000128
C94	C	1.389586	0.199478	0.000121
H95	H	1.523386	0.234664	0.000121
H96	H	1.459822	0.300613	0.055807
H97	H	1.459823	0.300627	-0.055549
H98	H	1.393911	0.162898	0.055803
H99	H	1.393918	0.162893	-0.055563
C100	C	1.269179	0.019770	0.663355
C101	C	1.319539	-0.039612	0.605571
H102	H	1.312866	0.057838	0.697455
H103	H	1.230843	-0.013640	0.707655
H104	H	1.229687	0.055397	0.624139
H105	H	1.359026	-0.075243	0.644788
H106	H	1.357891	-0.006198	0.561266
H107	H	1.281178	0.066733	0.000116
C108	C	0.926668	-0.278656	0.814151
C109	C	0.984874	-0.331195	0.756359
H110	H	0.882984	-0.316721	0.848260
H111	H	0.892522	-0.238374	0.774947
H112	H	0.965024	-0.245254	0.858452
H113	H	0.946518	-0.364592	0.712053
H114	H	1.019022	-0.371493	0.795566
H115	H	1.003160	-0.315209	0.258205
H116	H	1.236785	-0.111684	0.258178
C117	C	0.934045	-0.375435	0.295813
C118	C	0.920449	-0.387284	0.394636
H119	H	0.890349	-0.413494	0.261714
H120	H	0.997314	-0.390354	0.279348
H121	H	0.923676	-0.314422	0.279356
H122	H	0.930825	-0.448296	0.411095
H123	H	0.857165	-0.372371	0.411108
H124	H	0.938819	-0.371297	0.591294
