data_functionalizedCrystal
_audit_creation_method	'MofGen! by Chris Wilmer'
_symmetry_space_group_name_H-M	'P1'
_symmetry_Int_Tables_number	1
_symmetry_cell_setting	triclinic
loop_
_symmetry_equiv_pos_as_xyz
  x,y,z
_cell_length_a	14.853566
_cell_length_b	14.853567
_cell_length_c	13.930277
_cell_angle_alpha	90.003608
_cell_angle_beta	89.995726
_cell_angle_gamma	83.634672
loop_
_atom_site_label
_atom_site_type_symbol
_atom_site_fract_x
_atom_site_fract_y
_atom_site_fract_z
O1	O	1.196357	0.117703	0.079759
O2	O	0.933898	0.131726	0.079774
O3	O	1.072138	-0.006515	0.079769
O4	O	1.058117	0.255944	0.079764
O5	O	1.072143	-0.006528	-0.079893
O6	O	0.933902	0.131713	-0.079888
O7	O	1.196362	0.117690	-0.079903
Zn8	Zn	1.065133	0.124699	-0.105245
Zn9	Zn	1.065127	0.124716	0.105116
O10	O	1.058121	0.255931	-0.079898
C11	C	0.900311	0.131084	-0.000055
C12	C	0.800227	0.129181	-0.000049
C13	C	0.377040	0.121137	0.086966
C14	C	0.377066	0.121123	-0.087103
C15	C	0.471100	0.122911	-0.087101
C16	C	0.518108	0.123813	-0.000063
C17	C	0.471082	0.122927	0.086972
C18	C	0.518132	0.123806	-0.174134
C19	C	0.612172	0.125594	-0.174134
C20	C	0.659183	0.126490	-0.087095
C21	C	0.612151	0.125603	-0.000057
C22	C	0.659159	0.126505	0.086980
C23	C	0.612130	0.125612	0.174019
C24	C	0.518093	0.123823	0.174010
C25	C	0.753219	0.128279	-0.087086
C26	C	0.753201	0.128295	0.086986
C27	C	1.071505	-0.040111	-0.000059
C28	C	1.069601	-0.140194	-0.000051
C29	C	0.979435	-0.552728	-0.000064
C30	C	1.143668	-0.574009	-0.000073
C31	C	1.145458	-0.479976	-0.000067
C32	C	1.064236	-0.422313	-0.000061
C33	C	0.981223	-0.458685	-0.000061
C34	C	1.228470	-0.443597	-0.000078
C35	C	1.230263	-0.349558	-0.000073
C36	C	1.149040	-0.291894	-0.000060
C37	C	1.066023	-0.328271	-0.000059
C38	C	0.984801	-0.270608	-0.000053
C39	C	0.901784	-0.306984	-0.000045
C40	C	0.899999	-0.401021	-0.000048
C41	C	1.150824	-0.197856	-0.000057
C42	C	0.986588	-0.176566	-0.000050
C43	C	1.229948	0.118332	-0.000072
C44	C	1.330032	0.120235	-0.000071
C45	C	1.058754	0.289526	-0.000068
C46	C	1.060658	0.389610	-0.000070
N47	N	1.065143	0.124687	-0.248811
N48	N	1.065123	0.124722	0.248682
C49	C	1.003791	0.185805	0.298948
C50	C	1.126459	0.063633	0.298922
C51	C	1.126463	0.063624	0.399418
C52	C	1.065131	0.124707	0.449683
C53	C	1.003795	0.185800	0.399453
C54	C	1.187804	0.002539	0.449655
C55	C	1.187811	0.002528	0.550157
C56	C	1.126474	0.063607	0.600425
C57	C	1.065135	0.124702	0.550188
C58	C	1.003803	0.185785	0.600454
C59	C	0.942459	0.246876	0.550219
C60	C	0.942458	0.246879	0.449720
C61	C	1.126475	0.063604	0.700923
C62	C	1.003807	0.185780	0.700959
H63	H	0.791469	0.129027	0.157863
H64	H	0.835653	-0.260023	-0.000046
H65	H	0.791505	0.129015	-0.157952
C66	C	0.897235	-0.113144	-0.000041
N67	N	0.829933	-0.065375	-0.000034
H68	H	0.650415	0.126353	0.244885
C69	C	0.808689	-0.441041	-0.000059
N70	N	0.739914	-0.471188	-0.000076
C71	C	0.888121	-0.592741	-0.000063
N72	N	0.819342	-0.622880	-0.000067
H73	H	1.209796	-0.620963	-0.000086
H74	H	1.237743	-0.047190	0.408726
C75	C	0.936362	0.253004	0.756243
N76	N	0.885572	0.303648	0.797882
H77	H	0.892515	0.296618	0.408813
C78	C	1.255284	-0.064680	0.605406
N79	N	1.306101	-0.115304	0.647021
C80	C	0.663896	0.126567	-0.269878
N81	N	0.702857	0.127295	-0.341993
H82	H	1.294597	-0.490552	-0.000091
H83	H	0.479794	0.123095	0.244873
H84	H	1.297861	-0.319950	-0.000079
C85	C	0.325308	0.120154	0.182705
N86	N	0.286342	0.119415	0.254816
H87	H	1.218415	-0.168244	-0.000070
C88	C	0.874997	0.314066	0.605524
N89	N	0.824185	0.364671	0.647184
C90	C	0.325354	0.120135	-0.182839
N91	N	0.286400	0.119387	-0.254951
C92	C	0.936310	0.252995	0.243690
N93	N	0.885480	0.303602	0.202068
H94	H	1.176398	0.013905	0.257993
C95	C	1.193950	-0.003591	0.756177
N96	N	1.244774	-0.054208	0.797793
H97	H	0.479851	0.123077	-0.244995
