data_functionalizedCrystal
_audit_creation_method	'MofGen! by Chris Wilmer'
_symmetry_space_group_name_H-M	'P1'
_symmetry_Int_Tables_number	1
_symmetry_cell_setting	triclinic
loop_
_symmetry_equiv_pos_as_xyz
  x,y,z
_cell_length_a	12.759395
_cell_length_b	18.101397
_cell_length_c	12.759387
_cell_angle_alpha	89.958618
_cell_angle_beta	90.019431
_cell_angle_gamma	89.975042
loop_
_atom_site_label
_atom_site_type_symbol
_atom_site_fract_x
_atom_site_fract_y
_atom_site_fract_z
Zn1	Zn	1.606193	0.294794	0.593898
Zn2	Zn	1.606051	0.418654	0.418186
Zn3	Zn	1.430491	0.294830	0.418238
Zn4	Zn	1.430451	0.418598	0.593828
O5	O	1.518296	0.356719	0.506037
O6	O	1.753195	0.311232	0.570596
O7	O	1.582720	0.402267	0.271171
O8	O	1.453874	0.191193	0.441590
O9	O	1.753091	0.402232	0.441501
O10	O	1.582961	0.191166	0.570647
O11	O	1.453737	0.311295	0.271210
O12	O	1.283464	0.311240	0.441523
O13	O	1.453806	0.402136	0.740858
O14	O	1.283435	0.402171	0.570528
O15	O	1.582923	0.311178	0.740910
O16	O	1.582682	0.522279	0.441434
O17	O	1.453669	0.522238	0.570478
C18	C	1.245329	0.356704	0.506024
C19	C	1.128552	0.356716	0.506044
C20	C	1.128641	0.262111	0.640687
C21	C	1.073825	0.214818	0.708018
C22	C	0.964103	0.214831	0.708031
C23	C	0.909195	0.262141	0.640704
C24	C	0.964012	0.309434	0.573374
C25	C	1.073736	0.309417	0.573370
C26	C	0.963923	0.404034	0.438726
C27	C	1.073645	0.404026	0.438717
C28	C	0.909015	0.451344	0.371400
C29	C	0.963832	0.498642	0.304073
C30	C	1.073560	0.498628	0.304064
C31	C	1.128461	0.451319	0.371387
C32	C	1.518184	0.549129	0.505966
C33	C	1.518233	0.631444	0.505970
C34	C	1.518332	0.930534	0.506033
C35	C	1.599281	0.899204	0.424629
C36	C	1.599571	0.813586	0.424849
C37	C	1.518283	0.782152	0.506001
C38	C	1.548300	0.813150	0.616738
C39	C	1.548917	0.898795	0.616286
C40	C	1.407154	0.899045	0.477663
C41	C	1.407713	0.813396	0.475200
C42	C	1.518253	0.698292	0.505990
C43	C	1.518365	1.014394	0.506052
C44	C	1.792330	0.356734	0.506051
C45	C	1.909107	0.356741	0.506057
C46	C	1.518409	1.163557	0.506105
C47	C	1.518383	1.081243	0.506065
C48	C	1.518376	0.356646	0.780071
C49	C	1.518410	0.356615	0.896848
C50	C	1.518278	0.356738	0.233070
C51	C	1.518448	0.356560	0.116294
C52	C	1.652868	0.261907	0.896921
C53	C	1.720111	0.214541	0.951818
C54	C	1.720137	0.214514	1.061540
C55	C	1.652909	0.261856	1.116367
C56	C	1.585666	0.309222	1.061469
C57	C	1.585650	0.309245	0.951745
C58	C	1.451204	0.403925	1.061396
C59	C	1.451182	0.403957	0.951675
C60	C	1.383976	0.451267	1.116223
C61	C	1.316736	0.498637	1.061326
C62	C	1.316714	0.498663	0.951597
C63	C	1.383938	0.451323	0.896777
H64	H	1.217982	0.262092	0.640679
C65	C	1.242764	0.550779	0.891218
H66	H	1.202744	0.578974	0.939589
H67	H	1.196998	0.522469	0.848412
H68	H	1.282939	0.583063	0.848418
H69	H	1.681185	0.920671	0.443183
C70	C	1.133855	0.550649	0.230000
H71	H	1.207066	0.543865	0.239627
H72	H	1.115858	0.600423	0.245230
H73	H	1.115846	0.539741	0.159439
C74	C	0.903439	0.550677	0.230022
H75	H	0.951797	0.578841	0.189919
H76	H	0.860634	0.582981	0.270123
H77	H	0.860634	0.522305	0.184322
H78	H	1.118543	0.176297	0.762832
H79	H	1.217802	0.451299	0.371380
C80	C	1.384001	0.451242	1.236914
H81	H	1.334330	0.486216	1.261701
H82	H	1.451793	0.464053	1.261736
H83	H	1.365875	0.403442	1.261763
C84	C	1.710827	0.785826	0.450219
H85	H	1.756020	0.826892	0.460441
H86	H	1.736025	0.756707	0.393669
H87	H	1.709076	0.756761	0.512218
C88	C	0.903798	0.162810	0.782088
H89	H	0.830589	0.169594	0.772444
H90	H	0.921803	0.173706	0.852647
H91	H	0.921786	0.113033	0.766843
H92	H	1.630183	0.918713	0.640319
H93	H	1.383931	0.451342	0.807436
H94	H	1.344161	0.792006	0.530155
H95	H	1.492541	0.919517	0.679029
C96	C	1.471105	0.785638	0.700891
H97	H	1.419764	0.754925	0.669162
H98	H	1.437750	0.826756	0.732917
H99	H	1.508181	0.758243	0.752504
H100	H	0.819854	0.262141	0.640712
C101	C	1.370260	0.928306	0.370459
H102	H	1.422323	0.960003	0.341998
H103	H	1.306729	0.955010	0.378977
H104	H	1.358993	0.887951	0.324253
C105	C	0.788325	0.451363	0.371410
H106	H	0.763477	0.486307	0.321667
H107	H	0.763528	0.464235	0.439173
H108	H	0.763510	0.403557	0.353375
C109	C	1.574197	0.785269	0.313931
H110	H	1.574336	0.732785	0.313918
H111	H	1.625542	0.802847	0.266145
H112	H	1.507043	0.802701	0.293305
C113	C	1.574323	0.927199	0.313390
H114	H	1.514305	0.958239	0.315590
H115	H	1.560899	0.886310	0.268741
H116	H	1.632394	0.954364	0.287225
H117	H	1.385079	0.793144	0.393706
H118	H	1.346842	0.919306	0.536954
H119	H	1.628662	0.791641	0.641183
H120	H	1.652864	0.261931	0.807579
H121	H	1.774845	0.175995	0.907166
H122	H	1.652927	0.261824	1.205708
C123	C	1.794105	0.162416	1.121929
H124	H	1.834144	0.134228	1.073567
H125	H	1.753953	0.130136	1.164749
H126	H	1.839867	0.190750	1.164718
C127	C	1.242793	0.550707	1.121630
H128	H	1.202740	0.578919	1.073224
H129	H	1.282962	0.582964	1.164428
H130	H	1.197044	0.522354	1.164434
