data_functionalizedCrystal
_audit_creation_method	'MofGen! by Chris Wilmer'
_symmetry_space_group_name_H-M	'P1'
_symmetry_Int_Tables_number	1
_symmetry_cell_setting	triclinic
loop_
_symmetry_equiv_pos_as_xyz
  x,y,z
_cell_length_a	13.185408
_cell_length_b	17.019294
_cell_length_c	11.804365
_cell_angle_alpha	98.044273
_cell_angle_beta	82.233045
_cell_angle_gamma	67.722773
loop_
_atom_site_label
_atom_site_type_symbol
_atom_site_fract_x
_atom_site_fract_y
_atom_site_fract_z
O1	O	1.464271	-0.221439	-0.076228
O2	O	1.148443	-0.143129	-0.084280
O3	O	1.312605	-0.296558	-0.068530
O4	O	1.300109	-0.068011	-0.091978
O5	O	1.269387	-0.256198	0.125383
O6	O	1.105225	-0.102769	0.109633
O7	O	1.421053	-0.181079	0.117685
Cu8	Cu	1.259193	-0.138239	0.131365
Cu9	Cu	1.310303	-0.185970	-0.097960
O10	O	1.256890	-0.027650	0.101935
C11	C	1.086375	-0.115010	0.011860
C12	C	0.965819	-0.091364	0.009427
C13	C	0.897741	-0.007168	0.000786
C14	C	0.784468	0.015055	-0.001483
C15	C	0.739265	-0.046919	0.004879
C16	C	0.807346	-0.131119	0.013512
C17	C	0.920627	-0.153342	0.015790
C18	C	0.762152	-0.193092	0.019883
C19	C	0.830233	-0.277292	0.028516
C20	C	0.943503	-0.299511	0.030793
C21	C	0.988706	-0.237538	0.024431
C22	C	0.648871	-0.170869	0.017604
C23	C	0.671758	-0.317043	0.032608
C24	C	0.785030	-0.339265	0.034878
C25	C	1.289670	-0.305013	0.031362
C26	C	1.285706	-0.390336	0.040107
C27	C	1.307404	-0.452416	-0.061485
C28	C	1.303671	-0.532583	-0.053264
C29	C	1.278248	-0.550669	0.056551
C30	C	1.256545	-0.488580	0.158150
C31	C	1.260270	-0.408413	0.149928
C32	C	1.265814	-0.791619	0.086665
C33	C	1.262094	-0.871794	0.094879
C34	C	1.309219	-0.915791	-0.116536
C35	C	1.312948	-0.835623	-0.124748
C36	C	1.291239	-0.773539	-0.023149
C37	C	1.274435	-0.632612	0.064957
C38	C	1.295045	-0.691595	-0.031556
C39	C	1.483122	-0.209199	0.021542
C40	C	1.603679	-0.232846	0.023968
C41	C	1.279826	-0.019196	0.002041
C42	C	1.283792	0.066125	-0.006713
N43	N	1.223252	-0.104670	0.292659
N44	N	1.346252	-0.219547	-0.259254
C45	C	1.432558	-0.300174	0.686677
C46	C	1.459746	-0.325572	0.564622
C47	C	1.400625	-0.270348	0.496626
C48	C	1.314311	-0.189723	0.550695
C49	C	1.287127	-0.164319	0.672761
C50	C	1.255193	-0.134494	0.482710
C51	C	1.168880	-0.053868	0.536780
C52	C	1.141699	-0.028469	0.658834
C53	C	1.200821	-0.083692	0.726831
C54	C	1.282378	-0.159897	0.360644
C55	C	1.136946	-0.024043	0.346729
C56	C	1.109758	0.001355	0.468783
H57	H	0.593450	-0.102313	0.010577
H58	H	0.647033	-0.028819	0.003032
C59	C	0.773234	0.157303	-0.016088
C60	C	0.709640	0.107600	-0.010978
H61	H	0.727036	0.214438	-0.021958
H62	H	0.802823	0.159670	0.052729
H63	H	0.832961	0.131513	-0.082514
H64	H	0.649917	0.133387	0.055453
H65	H	0.680033	0.105237	-0.079803
H66	H	1.530022	-0.391216	0.520603
C67	C	1.463009	-0.238504	0.314772
C68	C	1.430509	-0.298268	0.362461
H69	H	1.481466	-0.255749	0.231942
H70	H	1.403145	-0.182593	0.337235
H71	H	1.526470	-0.236649	0.342784
H72	H	1.367042	-0.300118	0.334456
H73	H	1.490379	-0.354194	0.339987
H74	H	1.080940	-0.255627	0.026282
C75	C	0.954747	-0.441767	0.045391
C76	C	1.018337	-0.392062	0.040291
H77	H	1.000949	-0.498905	0.051248
H78	H	0.895025	-0.415987	0.111807
H79	H	0.925156	-0.444131	-0.023438
H80	H	1.047922	-0.389693	0.109124
H81	H	1.078079	-0.417849	-0.026132
H82	H	1.352654	-0.225543	0.316632
H83	H	0.634966	-0.367518	0.037736
H84	H	1.480693	-0.345126	0.742047
H85	H	0.840477	-0.407822	0.041907
H86	H	1.241385	-0.886512	0.184308
H87	H	1.315737	-0.676863	-0.120967
H88	H	1.248159	-0.741085	0.169395
C89	C	1.059258	-0.041582	0.901104
C90	C	1.170937	-0.055779	0.861001
H91	H	1.040816	-0.024357	0.983937
H92	H	1.011707	0.002850	0.868361
H93	H	1.049518	-0.093617	0.878227
H94	H	1.180676	-0.003741	0.883870
H95	H	1.218502	-0.100214	0.893756
C96	C	1.229931	-0.591939	0.264629
C97	C	1.228608	-0.508460	0.278862
H98	H	1.212695	-0.604212	0.339155
H99	H	1.175853	-0.595009	0.220595
H100	H	1.302151	-0.633212	0.224500
H101	H	1.156385	-0.467187	0.318984
H102	H	1.282688	-0.505383	0.322915
C103	C	1.084391	0.115182	0.294066
C104	C	1.071952	0.036667	0.271999
H105	H	1.044277	0.152656	0.247920
H106	H	1.055849	0.141844	0.374487
H107	H	1.161487	0.104293	0.274734
H108	H	0.994856	0.047556	0.291339
H109	H	1.100489	0.010001	0.191559
H110	H	1.242586	-0.357861	0.232655
C111	C	1.255104	-0.949794	-0.297067
C112	C	1.333041	-0.984029	-0.228204
H113	H	1.269807	-0.991920	-0.366010
H114	H	1.181685	-0.934783	-0.254229
H115	H	1.260982	-0.899468	-0.317681
H116	H	1.327157	-1.034352	-0.207583
H117	H	1.406479	-0.999052	-0.271050
C118	C	1.000674	0.103266	0.632817
C119	C	1.046830	0.060158	0.718269
H120	H	0.942103	0.157978	0.669511
H121	H	1.057055	0.111730	0.583318
H122	H	0.971544	0.069329	0.587681
H123	H	1.075968	0.094093	0.763400
H124	H	0.990438	0.051698	0.767788
H125	H	0.934554	0.043283	-0.004384
H126	H	1.253739	-0.647348	0.154368
C127	C	1.233766	-0.620100	-0.169618
C128	C	1.327542	-0.600816	-0.164952
H129	H	1.248507	-0.662218	-0.238581
H130	H	1.218095	-0.642357	-0.103063
H131	H	1.171099	-0.568802	-0.170394
H132	H	1.390207	-0.652113	-0.164167
H133	H	1.343226	-0.578561	-0.231524
C134	C	1.353597	-0.503962	-0.269632
C135	C	1.335347	-0.432540	-0.182198
H136	H	1.370838	-0.491688	-0.344156
H137	H	1.414307	-0.553416	-0.260066
H138	H	1.288011	-0.515208	-0.263978
H139	H	1.400936	-0.421298	-0.187846
H140	H	1.274631	-0.383071	-0.191767
H141	H	1.039480	0.067003	0.512822
C142	C	1.437277	-0.798921	-0.253822
C143	C	1.340673	-0.815597	-0.245411
H144	H	1.454334	-0.786521	-0.328303
H145	H	1.424926	-0.750538	-0.194418
H146	H	1.498094	-0.848404	-0.244469
H147	H	1.279855	-0.766111	-0.254756
H148	H	1.353019	-0.863985	-0.304833
