data_functionalizedCrystal
_audit_creation_method	'MofGen! by Chris Wilmer'
_symmetry_space_group_name_H-M	'P1'
_symmetry_Int_Tables_number	1
_symmetry_cell_setting	triclinic
loop_
_symmetry_equiv_pos_as_xyz
  x,y,z
_cell_length_a	18.050591
_cell_length_b	29.839131
_cell_length_c	18.050582
_cell_angle_alpha	89.974523
_cell_angle_beta	89.979078
_cell_angle_gamma	90.037426
loop_
_atom_site_label
_atom_site_type_symbol
_atom_site_fract_x
_atom_site_fract_y
_atom_site_fract_z
Zn1	Zn	1.135224	-0.178930	-0.420016
Zn2	Zn	1.135106	-0.254052	-0.295820
Zn3	Zn	1.011044	-0.178932	-0.295827
Zn4	Zn	1.010963	-0.254028	-0.419956
O5	O	1.073084	-0.216485	-0.357905
O6	O	1.239133	-0.188904	-0.403564
O7	O	1.118634	-0.244098	-0.191896
O8	O	1.027600	-0.116064	-0.312330
O9	O	1.239047	-0.244096	-0.312317
O10	O	1.118835	-0.116063	-0.403571
O11	O	1.027485	-0.188907	-0.191902
O12	O	0.907108	-0.188884	-0.312271
O13	O	1.027462	-0.244056	-0.523888
O14	O	0.907049	-0.244057	-0.403467
O15	O	1.118756	-0.188881	-0.523933
O16	O	1.118555	-0.316916	-0.312258
O17	O	1.027348	-0.316898	-0.403460
C18	C	0.880132	-0.216469	-0.357864
C19	C	0.797586	-0.216472	-0.357864
C20	C	0.598146	-0.186434	-0.308386
C21	C	0.548711	-0.227410	-0.290106
C22	C	0.646456	-0.216486	-0.357897
C23	C	0.548810	-0.175525	-0.376175
C24	C	0.500471	-0.216495	-0.357928
C25	C	0.598108	-0.257483	-0.339583
C26	C	0.598211	-0.205570	-0.425683
C27	C	0.548798	-0.246574	-0.407429
C28	C	0.730554	-0.216480	-0.357878
C29	C	0.416374	-0.216506	-0.357948
C30	C	1.072950	-0.333208	-0.357868
C31	C	1.072961	-0.383142	-0.357877
C32	C	1.120663	-0.692782	-0.310485
C33	C	1.120754	-0.880455	-0.310514
O34	O	1.161206	-0.904717	-0.270192
N35	N	1.073238	-0.903927	-0.357961
C36	C	1.025700	-0.880478	-0.405407
O37	O	0.985292	-0.904749	-0.445769
C38	C	1.025612	-0.692806	-0.405381
C39	C	1.073126	-0.669337	-0.357926
C40	C	1.168173	-0.669312	-0.263035
C41	C	1.168147	-0.622397	-0.263025
C42	C	1.120610	-0.598951	-0.310466
C43	C	1.073100	-0.622421	-0.357917
C44	C	0.978078	-0.669358	-0.452831
C45	C	0.978062	-0.622437	-0.452822
C46	C	1.025575	-0.598967	-0.405367
C47	C	1.025537	-0.552060	-0.405348
N48	N	1.073053	-0.528588	-0.357902
C49	C	1.120589	-0.552033	-0.310461
C50	C	1.025748	-0.979009	-0.405416
C51	C	1.025769	-1.025927	-0.405422
C52	C	1.120824	-1.025900	-0.310530
C53	C	1.120799	-0.978982	-0.310521
C54	C	1.073264	-0.955537	-0.357970
C55	C	1.120530	-0.453508	-0.310444
C56	C	1.120497	-0.406588	-0.310436
C57	C	1.025445	-0.406619	-0.405331
C58	C	1.025474	-0.453534	-0.405336
C59	C	1.073023	-0.476977	-0.357890
O60	O	0.985113	-0.527769	-0.445655
O61	O	1.161002	-0.527755	-0.270116
C62	C	1.120689	-0.739698	-0.310495
C63	C	1.073178	-0.763167	-0.357946
C64	C	1.025642	-0.739722	-0.405387
C65	C	1.073199	-0.810085	-0.357951
C66	C	1.120736	-0.833531	-0.310510
C67	C	1.168252	-0.810059	-0.263064
C68	C	1.168225	-0.763143	-0.263054
C69	C	0.978126	-0.763194	-0.452833
C70	C	0.978155	-0.810109	-0.452838
C71	C	1.025692	-0.833555	-0.405397
C72	C	1.266790	-0.216502	-0.357947
C73	C	1.349336	-0.216510	-0.357964
C74	C	1.073113	-0.216465	-0.551611
C75	C	1.073126	-0.216457	-0.634156
C76	C	1.073239	-0.099307	-0.357958
C77	C	1.073305	-0.049373	-0.357981
C78	C	1.023518	-0.246420	-0.833583
C79	C	1.091269	-0.257404	-0.882980
C80	C	1.073162	-0.216423	-0.785287
C81	C	1.005449	-0.205426	-0.882971
C82	C	1.073192	-0.216390	-0.931272
C83	C	1.140949	-0.227429	-0.833597
C84	C	1.055083	-0.175431	-0.833584
C85	C	1.122881	-0.186400	-0.882959
C86	C	1.073145	-0.216442	-0.701189
C87	C	1.073218	-0.216371	-1.015369
C88	C	1.073098	-0.216473	-0.164953
C89	C	1.073230	-0.216355	-0.082407
H90	H	0.619970	-0.196318	-0.482978
H91	H	0.527115	-0.140885	-0.391596
C92	C	1.172768	-0.380772	-0.258235
C93	C	1.166770	-0.387259	-0.173805
C94	C	1.219039	-0.361446	-0.121606
C95	C	1.277308	-0.329145	-0.153837
C96	C	1.283308	-0.322657	-0.238272
C97	C	1.231038	-0.348470	-0.290470
H98	H	1.123634	-0.411171	-0.149941
H99	H	1.214597	-0.366249	-0.059102
H100	H	1.316001	-0.310037	-0.115197
H101	H	1.326444	-0.298745	-0.262135
H102	H	1.235481	-0.343667	-0.352974
H103	H	1.159250	-0.472590	-0.271810
H104	H	1.039754	-0.140789	-0.811869
C105	C	0.928073	-0.192873	-0.912268
C106	C	0.860636	-0.222237	-0.892766
C107	C	0.783259	-0.209688	-0.922059
C108	C	0.773319	-0.167777	-0.970853
C109	C	0.840758	-0.138411	-0.990357
C110	C	0.918135	-0.150959	-0.961065
H111	H	0.867992	-0.253265	-0.856643
H112	H	0.733336	-0.231427	-0.907621
H113	H	0.716040	-0.158487	-0.992538
H114	H	0.833402	-0.107383	-1.026480
H115	H	0.968058	-0.129220	-0.975503
H116	H	0.619814	-0.161048	-0.266470
C117	C	1.220416	-0.596582	-0.210829
C118	C	1.278687	-0.564284	-0.243061
C119	C	1.330960	-0.538472	-0.190863
C120	C	1.324961	-0.544958	-0.106433
C121	C	1.266688	-0.577258	-0.074197
C122	C	1.214415	-0.603070	-0.126394
H123	H	1.283130	-0.559481	-0.305565
H124	H	1.374098	-0.514562	-0.214728
H125	H	1.363657	-0.525851	-0.067793
H126	H	1.262245	-0.582061	-0.011692
H127	H	1.171277	-0.626980	-0.102530
C128	C	1.111950	-0.304215	-0.912301
C129	C	1.128162	-0.342580	-0.857581
C130	C	1.148836	-0.389391	-0.886900
C131	C	1.153296	-0.397838	-0.970938
C132	C	1.137083	-0.359472	-1.025663
C133	C	1.116410	-0.312661	-0.996345
H134	H	1.124861	-0.336328	-0.795367
H135	H	1.160838	-0.417792	-0.846388
H136	H	1.168600	-0.432491	-0.992641
H137	H	1.140385	-0.365724	-1.087878
H138	H	1.104408	-0.284260	-1.036856
H139	H	0.619673	-0.292138	-0.324073
C140	C	0.519347	-0.239899	-0.212682
C141	C	0.538819	-0.210488	-0.145358
C142	C	0.509465	-0.222977	-0.067932
C143	C	0.460640	-0.264877	-0.057830
C144	C	0.441166	-0.294291	-0.125156
C145	C	0.470520	-0.281802	-0.202582
H146	H	0.574965	-0.179468	-0.152835
H147	H	0.523882	-0.201202	-0.018093
H148	H	0.438911	-0.274122	-0.000515
H149	H	0.405021	-0.325311	-0.117680
H150	H	0.456104	-0.303577	-0.252421
C151	C	0.973159	-0.380821	-0.457515
C152	C	0.914864	-0.348607	-0.425270
C153	C	0.862583	-0.322807	-0.477459
C154	C	0.868597	-0.329223	-0.561893
C155	C	0.926895	-0.361439	-0.594142
C156	C	0.979176	-0.387238	-0.541953
H157	H	0.910410	-0.343857	-0.362764
H158	H	0.819428	-0.298959	-0.453586
H159	H	0.829896	-0.310124	-0.600526
H160	H	0.931349	-0.366189	-0.656648
H161	H	1.022331	-0.411086	-0.565826
C162	C	0.519703	-0.280949	-0.464011
C163	C	0.435706	-0.287085	-0.474969
C164	C	0.406610	-0.321461	-0.531546
C165	C	0.461511	-0.349702	-0.577165
C166	C	0.545514	-0.343568	-0.566208
C167	C	0.574610	-0.309191	-0.509631
H168	H	0.395060	-0.266178	-0.441198
H169	H	0.344426	-0.326002	-0.539657
H170	H	0.439973	-0.375150	-0.619046
H171	H	0.586160	-0.364475	-0.599978
H172	H	0.636794	-0.304650	-0.501520
C173	C	1.220495	-0.737330	-0.210856
C174	C	1.278768	-0.705032	-0.243085
C175	C	1.331040	-0.679222	-0.190885
C176	C	1.325040	-0.685710	-0.106455
C177	C	1.266765	-0.718009	-0.074221
C178	C	1.214492	-0.743819	-0.126422
H179	H	1.283212	-0.700228	-0.305589
H180	H	1.374180	-0.655312	-0.214747
H181	H	1.363735	-0.666604	-0.067813
H182	H	1.262321	-0.722813	-0.011718
H183	H	1.171353	-0.767730	-0.102560
H184	H	0.987037	-0.959923	-0.444056
H185	H	1.198243	-0.236756	-0.812000
H186	H	0.939383	-0.688459	-0.491470
H187	H	1.164925	-0.161018	-0.904501
H188	H	1.206887	-0.688397	-0.224403
H189	H	0.981575	-0.271821	-0.811904
H190	H	1.159489	-0.959875	-0.271880
C191	C	0.973208	-0.479352	-0.457536
C192	C	1.005374	-0.511561	-0.515887
C193	C	0.953115	-0.537374	-0.568097
C194	C	0.868689	-0.530977	-0.561956
C195	C	0.836518	-0.498765	-0.503603
C196	C	0.888778	-0.472953	-0.451393
H197	H	1.067876	-0.516298	-0.520434
H198	H	0.976930	-0.561219	-0.611293
H199	H	0.830003	-0.550085	-0.600605
H200	H	0.774017	-0.494029	-0.499056
H201	H	0.864963	-0.449108	-0.408197
H202	H	1.159531	-1.044998	-0.271902
H203	H	0.987071	-1.045032	-0.444057
H204	H	0.939353	-0.603351	-0.491462
C205	C	1.220544	-0.835855	-0.210879
C206	C	1.188418	-0.868152	-0.152553
C207	C	1.240710	-0.893951	-0.100375
C208	C	1.325129	-0.887453	-0.106524
C209	C	1.357260	-0.855154	-0.164852
C210	C	1.304967	-0.829355	-0.217030
H211	H	1.125922	-0.872964	-0.147999
H212	H	1.216925	-0.917860	-0.057196
H213	H	1.363840	-0.906550	-0.067898
H214	H	1.419756	-0.850342	-0.169406
H215	H	1.328753	-0.805446	-0.260209
H216	H	0.939458	-0.829214	-0.491481
H217	H	0.939417	-0.744108	-0.491466
