data_functionalizedCrystal
_audit_creation_method	'MofGen! by Chris Wilmer'
_symmetry_space_group_name_H-M	'P1'
_symmetry_Int_Tables_number	1
_symmetry_cell_setting	triclinic
loop_
_symmetry_equiv_pos_as_xyz
  x,y,z
_cell_length_a	11.026607
_cell_length_b	15.625429
_cell_length_c	10.065875
_cell_angle_alpha	80.990427
_cell_angle_beta	79.302338
_cell_angle_gamma	95.805952
loop_
_atom_site_label
_atom_site_type_symbol
_atom_site_fract_x
_atom_site_fract_y
_atom_site_fract_z
O1	O	1.655707	0.351354	-0.287361
O2	O	1.299147	0.310215	-0.267005
O3	O	1.477270	0.206693	-0.215770
O4	O	1.477584	0.454877	-0.338595
O5	O	1.443312	0.226534	0.001399
O6	O	1.265190	0.330057	-0.049836
O7	O	1.621749	0.371196	-0.070192
Zn8	Zn	1.438078	0.353777	-0.025534
Zn9	Zn	1.482818	0.327634	-0.311663
O10	O	1.443627	0.474718	-0.121426
C11	C	1.236357	0.312547	-0.154665
C12	C	1.099854	0.289923	-0.143470
C13	C	1.456941	0.184347	-0.091220
C14	C	1.446943	0.088199	-0.043645
C15	C	1.030990	0.352391	-0.174387
C16	C	0.889906	0.329010	-0.162817
C17	C	1.506572	-0.282100	-0.479022
C18	C	1.497166	-0.372442	-0.434278
C19	C	1.460148	-0.350798	-0.197536
C20	C	1.469557	-0.260452	-0.242260
C21	C	1.492767	-0.226111	-0.383005
C22	C	1.455753	-0.204463	-0.146243
C23	C	1.465154	-0.114125	-0.190965
C24	C	1.488360	-0.079776	-0.331703
C25	C	1.502169	-0.135773	-0.427726
C26	C	1.432533	-0.238807	-0.005499
C27	C	1.418729	-0.182817	0.090518
C28	C	1.428140	-0.092477	0.045797
C29	C	1.451346	-0.058129	-0.094941
C30	C	1.414331	-0.036481	0.141821
C31	C	1.423733	0.053857	0.097099
C32	C	1.460747	0.032209	-0.139663
C33	C	1.684539	0.368864	-0.182534
C34	C	1.821044	0.391488	-0.193738
C35	C	1.463956	0.497064	-0.245980
C36	C	1.473955	0.593211	-0.293563
N37	N	1.407553	0.371619	0.169742
N38	N	1.513353	0.309787	-0.506935
C39	C	1.472190	0.333836	0.256220
C40	C	1.448707	0.347576	0.406587
H41	H	0.844426	0.258210	-0.127814
H42	H	1.521080	-0.107810	-0.542335
H43	H	1.544909	0.291312	0.218941
O44	O	1.045576	0.205457	-0.101913
C45	C	0.927896	0.082676	-0.158707
C46	C	0.989331	0.178331	-0.205954
H47	H	0.882384	0.060721	-0.242788
H48	H	1.001650	0.039228	-0.137293
H49	H	0.854094	0.077286	-0.061002
H50	H	1.063123	0.183805	-0.303685
H51	H	0.915505	0.221734	-0.227275
H52	H	1.399826	-0.210791	0.205113
O53	O	1.085040	0.436897	-0.216149
C54	C	1.055087	0.586164	-0.290110
C55	C	0.993716	0.490498	-0.242800
H56	H	0.981284	0.629525	-0.311698
H57	H	1.100469	0.608241	-0.206018
H58	H	1.128973	0.591537	-0.387740
H59	H	0.919779	0.485052	-0.145198
H60	H	0.948416	0.468464	-0.326976
O61	O	1.437388	-0.384135	-0.060802
C62	C	1.297343	-0.399770	0.158502
C63	C	1.322944	-0.361988	0.003671
H64	H	1.204829	-0.381864	0.210680
H65	H	1.292902	-0.473963	0.174057
H66	H	1.375407	-0.371402	0.205412
H67	H	1.244912	-0.390290	-0.043340
H68	H	1.327434	-0.287795	-0.011787
H69	H	1.424866	-0.312367	0.030909
H70	H	1.525483	-0.254137	-0.593631
H71	H	1.479659	0.060172	-0.254271
H72	H	0.866526	0.462285	-0.228766
O73	O	1.497303	0.007982	-0.374984
C74	C	1.395028	0.137010	-0.371057
C75	C	1.384745	0.037629	-0.321915
H76	H	1.304029	0.161007	-0.328195
H77	H	1.474604	0.171672	-0.333311
H78	H	1.414046	0.151915	-0.488143
H79	H	1.365683	0.022643	-0.204836
H80	H	1.305194	0.003019	-0.359765
O81	O	1.600127	0.258999	0.448848
C82	C	1.754064	0.169082	0.508084
C83	C	1.655813	0.226559	0.558347
H84	H	1.799132	0.142854	0.596580
H85	H	1.707438	0.112049	0.469460
H86	H	1.828425	0.209850	0.420956
H87	H	1.581423	0.185865	0.645513
H88	H	1.702528	0.283596	0.596883
O89	O	1.391839	-0.069987	0.278481
C90	C	1.360861	-0.199571	0.452305
C91	C	1.386364	-0.161742	0.297496
H92	H	1.356401	-0.273761	0.467729
H93	H	1.438884	-0.171256	0.499326
H94	H	1.268321	-0.181699	0.504477
H95	H	1.478866	-0.179601	0.245208
H96	H	1.308269	-0.190056	0.250578
H97	H	1.508397	-0.418028	-0.512477
O98	O	1.410322	0.108130	0.190547
C99	C	1.372479	0.120067	0.430103
C100	C	1.387695	0.058508	0.324418
H101	H	1.354156	0.079972	0.538361
H102	H	1.461232	0.168185	0.412587
H103	H	1.290690	0.157622	0.417591
H104	H	1.469435	0.020895	0.336867
H105	H	1.298882	0.010447	0.341963
O106	O	1.361772	0.398188	0.451044
C107	C	1.145808	0.420166	0.484138
C108	C	1.244126	0.362763	0.433771
H109	H	1.050673	0.391558	0.470164
H110	H	1.142217	0.422194	0.597510
H111	H	1.171775	0.489288	0.421933
H112	H	1.218229	0.293614	0.495875
H113	H	1.247699	0.360810	0.320381
O114	O	1.320623	0.422228	0.214205
C115	C	1.104659	0.444207	0.247299
C116	C	1.202977	0.386804	0.196932
H117	H	1.009524	0.415599	0.233325
H118	H	1.101068	0.446235	0.360672
H119	H	1.130626	0.513329	0.185094
H120	H	1.177080	0.317655	0.259036
H121	H	1.206549	0.384850	0.083542
