data_functionalizedCrystal
_audit_creation_method	'MofGen! by Chris Wilmer'
_symmetry_space_group_name_H-M	'P1'
_symmetry_Int_Tables_number	1
_symmetry_cell_setting	triclinic
loop_
_symmetry_equiv_pos_as_xyz
  x,y,z
_cell_length_a	18.050591
_cell_length_b	25.639239
_cell_length_c	18.050582
_cell_angle_alpha	90.024638
_cell_angle_beta	90.020922
_cell_angle_gamma	90.034692
loop_
_atom_site_label
_atom_site_type_symbol
_atom_site_fract_x
_atom_site_fract_y
_atom_site_fract_z
Zn1	Zn	1.135238	-0.208240	0.420021
Zn2	Zn	1.385238	0.041760	0.670021
Zn3	Zn	1.635238	0.291760	0.920021
Zn4	Zn	1.885238	0.541760	1.170021
Zn5	Zn	1.135126	-0.295667	0.295826
Zn6	Zn	1.385126	-0.045667	0.545826
Zn7	Zn	1.635126	0.204333	0.795826
Zn8	Zn	1.885126	0.454333	1.045826
Zn9	Zn	1.011058	-0.208242	0.295832
Zn10	Zn	1.261058	0.041758	0.545832
Zn11	Zn	1.511058	0.291758	0.795832
Zn12	Zn	1.761058	0.541758	1.045832
Zn13	Zn	1.010983	-0.295640	0.419962
Zn14	Zn	1.260983	-0.045640	0.669962
Zn15	Zn	1.510983	0.204360	0.919962
Zn16	Zn	1.760983	0.454360	1.169962
O17	O	1.073101	-0.251947	0.357910
O18	O	1.323101	-0.001947	0.607910
O19	O	1.573101	0.248053	0.857910
O20	O	1.823101	0.498053	1.107910
O21	O	1.239148	-0.219848	0.403568
O22	O	1.489148	0.030152	0.653568
O23	O	1.739148	0.280152	0.903568
O24	O	1.989148	0.530152	1.153568
O25	O	1.118653	-0.284083	0.191902
O26	O	1.368653	-0.034083	0.441902
O27	O	1.618653	0.215917	0.691902
O28	O	1.868653	0.465917	0.941902
O29	O	1.027609	-0.135076	0.312333
O30	O	1.277609	0.114924	0.562333
O31	O	1.527609	0.364924	0.812333
O32	O	1.777609	0.614924	1.062333
O33	O	1.239066	-0.284081	0.312323
O34	O	1.489066	-0.034081	0.562323
O35	O	1.739066	0.215919	0.812323
O36	O	1.989066	0.465919	1.062323
O37	O	1.118844	-0.135075	0.403574
O38	O	1.368844	0.114925	0.653574
O39	O	1.618844	0.364925	0.903574
O40	O	1.868844	0.614925	1.153574
O41	O	1.027500	-0.219851	0.191906
O42	O	1.277500	0.030149	0.441906
O43	O	1.527500	0.280149	0.691906
O44	O	1.777500	0.530149	0.941906
O45	O	0.907123	-0.219825	0.312276
O46	O	1.157123	0.030175	0.562276
O47	O	1.407123	0.280175	0.812276
O48	O	1.657123	0.530175	1.062276
O49	O	1.027481	-0.284034	0.523894
O50	O	1.277481	-0.034034	0.773894
O51	O	1.527481	0.215966	1.023894
O52	O	1.777481	0.465966	1.273894
O53	O	0.907068	-0.284036	0.403473
O54	O	1.157068	-0.034036	0.653473
O55	O	1.407068	0.215964	0.903473
O56	O	1.657068	0.465964	1.153473
O57	O	1.118771	-0.219821	0.523938
O58	O	1.368771	0.030179	0.773938
O59	O	1.618771	0.280179	1.023938
O60	O	1.868771	0.530179	1.273938
O61	O	1.118580	-0.368829	0.312266
O62	O	1.368580	-0.118829	0.562266
O63	O	1.618580	0.131171	0.812266
O64	O	1.868580	0.381171	1.062266
O65	O	1.027373	-0.368809	0.403468
O66	O	1.277373	-0.118809	0.653468
O67	O	1.527373	0.131191	0.903468
O68	O	1.777373	0.381191	1.153468
C69	C	0.880149	-0.251928	0.357869
C70	C	1.130149	-0.001928	0.607869
C71	C	1.380149	0.248072	0.857869
C72	C	1.630149	0.498072	1.107869
C73	C	0.797604	-0.251932	0.357869
C74	C	1.047604	-0.001932	0.607869
C75	C	1.297604	0.248068	0.857869
C76	C	1.547604	0.498068	1.107869
C77	C	1.072977	-0.387790	0.357876
C78	C	1.322977	-0.137790	0.607876
C79	C	1.572977	0.112210	0.857876
C80	C	1.822977	0.362210	1.107876
C81	C	1.072991	-0.445904	0.357886
C82	C	1.322991	-0.195904	0.607886
C83	C	1.572991	0.054096	0.857886
C84	C	1.822991	0.304096	1.107886
C85	C	0.598161	-0.216974	0.308390
C86	C	0.848161	0.033026	0.558390
C87	C	1.098161	0.283026	0.808390
C88	C	1.348161	0.533026	1.058390
C89	C	0.548729	-0.264661	0.290112
C90	C	0.798729	-0.014661	0.540112
C91	C	1.048729	0.235339	0.790112
C92	C	1.298729	0.485339	1.040112
C93	C	0.646473	-0.251948	0.357903
C94	C	0.896473	-0.001948	0.607903
C95	C	1.146473	0.248052	0.857903
C96	C	1.396473	0.498052	1.107903
C97	C	0.548824	-0.204277	0.376179
C98	C	0.798824	0.045723	0.626179
C99	C	1.048824	0.295723	0.876179
C100	C	1.298824	0.545723	1.126179
C101	C	0.500488	-0.251959	0.357934
C102	C	0.750488	-0.001959	0.607934
C103	C	1.000488	0.248041	0.857934
C104	C	1.250488	0.498041	1.107934
C105	C	0.598128	-0.299660	0.339589
C106	C	0.848128	-0.049660	0.589589
C107	C	1.098128	0.200340	0.839589
C108	C	1.348128	0.450340	1.089589
C109	C	0.598227	-0.239244	0.425688
C110	C	0.848227	0.010756	0.675688
C111	C	1.098227	0.260756	0.925688
C112	C	1.348227	0.510756	1.175688
C113	C	0.548817	-0.286965	0.407435
C114	C	0.798817	-0.036965	0.657435
C115	C	1.048817	0.213035	0.907435
C116	C	1.298817	0.463035	1.157435
C117	C	0.730571	-0.251941	0.357883
C118	C	0.980571	-0.001941	0.607883
C119	C	1.230571	0.248059	0.857883
C120	C	1.480571	0.498059	1.107883
C121	C	0.416392	-0.251971	0.357954
C122	C	0.666392	-0.001971	0.607954
C123	C	0.916392	0.248029	0.857954
C124	C	1.166392	0.498029	1.107954
C125	C	1.120717	-0.806265	0.310502
C126	C	1.370717	-0.556265	0.560502
C127	C	1.620717	-0.306265	0.810502
C128	C	1.870717	-0.056265	1.060502
C129	C	1.120746	-0.860869	0.310512
C130	C	1.370746	-0.610869	0.560512
C131	C	1.620746	-0.360869	0.810512
C132	C	1.870746	-0.110869	1.060512
O133	O	1.161195	-0.889104	0.270187
O134	O	1.411195	-0.639104	0.520187
O135	O	1.661195	-0.389104	0.770187
O136	O	1.911195	-0.139104	1.020187
N137	N	1.073232	-0.888186	0.357959
N138	N	1.323232	-0.638186	0.607959
N139	N	1.573232	-0.388186	0.857959
N140	N	1.823232	-0.138186	1.107959
C141	C	1.025691	-0.860896	0.405405
C142	C	1.275691	-0.610896	0.655405
C143	C	1.525691	-0.360896	0.905405
C144	C	1.775691	-0.110896	1.155405
O145	O	0.985280	-0.889145	0.445764
O146	O	1.235280	-0.639145	0.695764
O147	O	1.485280	-0.389145	0.945764
O148	O	1.735280	-0.139145	1.195764
C149	C	1.025667	-0.806293	0.405398
C150	C	1.275667	-0.556293	0.655398
C151	C	1.525667	-0.306293	0.905398
C152	C	1.775667	-0.056293	1.155398
C153	C	1.073179	-0.778979	0.357943
C154	C	1.323179	-0.528979	0.607943
C155	C	1.573179	-0.278979	0.857943
C156	C	1.823179	-0.028979	1.107943
C157	C	1.168226	-0.778951	0.263051
C158	C	1.418226	-0.528951	0.513051
C159	C	1.668226	-0.278951	0.763051
C160	C	1.918226	-0.028951	1.013051
C161	C	1.168196	-0.724350	0.263040
C162	C	1.418196	-0.474350	0.513040
C163	C	1.668196	-0.224350	0.763040
C164	C	1.918196	0.025650	1.013040
C165	C	1.120657	-0.697064	0.310481
C166	C	1.370657	-0.447064	0.560481
C167	C	1.620657	-0.197064	0.810481
C168	C	1.870657	0.052936	1.060481
C169	C	1.073149	-0.724378	0.357932
C170	C	1.323149	-0.474378	0.607932
C171	C	1.573149	-0.224378	0.857932
C172	C	1.823149	0.025622	1.107932
C173	C	0.978131	-0.779004	0.452847
C174	C	1.228131	-0.529004	0.702847
C175	C	1.478131	-0.279004	0.952847
C176	C	1.728131	-0.029004	1.202847
C177	C	0.978111	-0.724397	0.452837
C178	C	1.228111	-0.474397	0.702837
C179	C	1.478111	-0.224397	0.952837
C180	C	1.728111	0.025603	1.202837
C181	C	1.025622	-0.697083	0.405381
C182	C	1.275622	-0.447083	0.655381
C183	C	1.525622	-0.197083	0.905381
C184	C	1.775622	0.052917	1.155381
C185	C	1.025580	-0.642491	0.405362
C186	C	1.275580	-0.392491	0.655362
C187	C	1.525580	-0.142491	0.905362
C188	C	1.775580	0.107509	1.155362
N189	N	1.073094	-0.615174	0.357914
N190	N	1.323094	-0.365174	0.607914
N191	N	1.573094	-0.115174	0.857914
N192	N	1.823094	0.134826	1.107914
C193	C	1.120633	-0.642460	0.310474
C194	C	1.370633	-0.392460	0.560474
C195	C	1.620633	-0.142460	0.810474
C196	C	1.870633	0.107540	1.060474
C197	C	1.025747	-0.975567	0.405416
C198	C	1.275747	-0.725567	0.655416
C199	C	1.525747	-0.475567	0.905416
C200	C	1.775747	-0.225567	1.155416
C201	C	1.025768	-1.030169	0.405420
C202	C	1.275768	-0.780169	0.655420
C203	C	1.525768	-0.530169	0.905420
C204	C	1.775768	-0.280169	1.155420
C205	C	1.120823	-1.030138	0.310528
C206	C	1.370823	-0.780138	0.560528
C207	C	1.620823	-0.530138	0.810528
C208	C	1.870823	-0.280138	1.060528
C209	C	1.120799	-0.975535	0.310521
C210	C	1.370799	-0.725535	0.560521
C211	C	1.620799	-0.475535	0.810521
C212	C	1.870799	-0.225535	1.060521
C213	C	1.073261	-0.948250	0.357969
C214	C	1.323261	-0.698250	0.607969
C215	C	1.573261	-0.448250	0.857969
C216	C	1.823261	-0.198250	1.107969
C217	C	1.120566	-0.527795	0.310455
C218	C	1.370566	-0.277795	0.560455
C219	C	1.620566	-0.027795	0.810455
C220	C	1.870566	0.222205	1.060455
C221	C	1.120530	-0.473190	0.310446
C222	C	1.370530	-0.223190	0.560446
C223	C	1.620530	0.026810	0.810446
C224	C	1.870530	0.276810	1.060446
C225	C	1.025477	-0.473226	0.405340
C226	C	1.275477	-0.223226	0.655340
C227	C	1.525477	0.026774	0.905340
C228	C	1.775477	0.276774	1.155340
C229	C	1.025510	-0.527826	0.405347
C230	C	1.275510	-0.277826	0.655347
C231	C	1.525510	-0.027826	0.905347
C232	C	1.775510	0.222174	1.155347
C233	C	1.073061	-0.555110	0.357901
C234	C	1.323061	-0.305110	0.607901
C235	C	1.573061	-0.055110	0.857901
C236	C	1.823061	0.194890	1.107901
O237	O	0.985154	-0.614222	0.445668
O238	O	1.235154	-0.364222	0.695668
O239	O	1.485154	-0.114222	0.945668
O240	O	1.735154	0.135778	1.195668
O241	O	1.161044	-0.614205	0.270129
O242	O	1.411044	-0.364205	0.520129
O243	O	1.661044	-0.114205	0.770129
O244	O	1.911044	0.135795	1.020129
C245	C	1.266807	-0.251967	0.357952
C246	C	1.516807	-0.001967	0.607952
C247	C	1.766807	0.248033	0.857952
C248	C	2.016807	0.498033	1.107952
C249	C	1.349353	-0.251976	0.357970
C250	C	1.599353	-0.001976	0.607970
C251	C	1.849353	0.248024	0.857970
C252	C	2.099353	0.498024	1.107970
C253	C	1.073131	-0.251924	0.551616
C254	C	1.323131	-0.001924	0.801616
C255	C	1.573131	0.248076	1.051616
C256	C	1.823131	0.498076	1.301616
C257	C	1.073143	-0.251914	0.634162
C258	C	1.323143	-0.001914	0.884162
C259	C	1.573143	0.248086	1.134162
C260	C	1.823143	0.498086	1.384162
C261	C	1.073247	-0.115574	0.357961
C262	C	1.323247	0.134426	0.607961
C263	C	1.573247	0.384426	0.857961
C264	C	1.823247	0.634426	1.107961
C265	C	1.073309	-0.057460	0.357982
C266	C	1.323309	0.192540	0.607982
C267	C	1.573309	0.442540	0.857982
C268	C	1.823309	0.692540	1.107982
C269	C	1.073115	-0.251933	0.164958
C270	C	1.323115	-0.001933	0.414958
C271	C	1.573115	0.248067	0.664958
C272	C	1.823115	0.498067	0.914958
C273	C	1.073247	-0.251795	0.082413
C274	C	1.323247	-0.001795	0.332413
C275	C	1.573247	0.248205	0.582413
C276	C	1.823247	0.498205	0.832413
C277	C	1.023537	-0.286785	0.833589
C278	C	1.273537	-0.036785	1.083589
C279	C	1.523537	0.213215	1.333589
C280	C	1.773537	0.463215	1.583589
C281	C	1.091289	-0.299569	0.882987
C282	C	1.341289	-0.049569	1.132987
C283	C	1.591289	0.200431	1.382987
C284	C	1.841289	0.450431	1.632987
C285	C	1.073180	-0.251874	0.785292
C286	C	1.323180	-0.001874	1.035292
C287	C	1.573180	0.248126	1.285292
C288	C	1.823180	0.498126	1.535292
C289	C	1.005465	-0.239076	0.882976
C290	C	1.255465	0.010924	1.132976
C291	C	1.505465	0.260924	1.382976
C292	C	1.755465	0.510924	1.632976
C293	C	1.073209	-0.251837	0.931277
C294	C	1.323209	-0.001837	1.181277
C295	C	1.573209	0.248163	1.431277
C296	C	1.823209	0.498163	1.681277
C297	C	1.140967	-0.264683	0.833603
C298	C	1.390967	-0.014683	1.083603
C299	C	1.640967	0.235317	1.333603
C300	C	1.890967	0.485317	1.583603
C301	C	1.055097	-0.204168	0.833588
C302	C	1.305097	0.045832	1.083588
C303	C	1.555097	0.295832	1.333588
C304	C	1.805097	0.545832	1.583588
C305	C	1.122896	-0.216933	0.882963
C306	C	1.372896	0.033067	1.132963
C307	C	1.622896	0.283067	1.382963
C308	C	1.872896	0.533067	1.632963
C309	C	1.073162	-0.251897	0.701194
C310	C	1.323162	-0.001897	0.951194
C311	C	1.573162	0.248103	1.201194
C312	C	1.823162	0.498103	1.451194
C313	C	1.073235	-0.251814	1.015374
C314	C	1.323235	-0.001814	1.265374
C315	C	1.573235	0.248186	1.515374
C316	C	1.823235	0.498186	1.765374
H317	H	0.619827	-0.187429	0.266473
H318	H	0.869827	0.062571	0.516473
H319	H	1.119827	0.312571	0.766473
H320	H	1.369827	0.562571	1.016473
Cl321	Cl	0.515379	-0.142028	0.400025
Cl322	Cl	0.765379	0.107972	0.650025
Cl323	Cl	1.015379	0.357972	0.900025
Cl324	Cl	1.265379	0.607972	1.150025
H325	H	1.206886	-0.702114	0.224400
H326	H	1.456886	-0.452114	0.474400
H327	H	1.706886	-0.202114	0.724400
H328	H	1.956886	0.047886	0.974400
H329	H	0.527288	-0.316580	0.449320
H330	H	0.777288	-0.066580	0.699320
H331	H	1.027288	0.183420	0.949320
H332	H	1.277288	0.433420	1.199320
H333	H	1.159487	-0.953299	0.271879
H334	H	1.409487	-0.703299	0.521879
H335	H	1.659487	-0.453299	0.771879
H336	H	1.909487	-0.203299	1.021879
Cl337	Cl	1.229424	-0.281449	0.800263
Cl338	Cl	1.479424	-0.031449	1.050263
Cl339	Cl	1.729424	0.218551	1.300263
Cl340	Cl	1.979424	0.468551	1.550263
H341	H	0.987030	-0.953354	0.444052
H342	H	1.237030	-0.703354	0.694052
H343	H	1.487030	-0.453354	0.944052
H344	H	1.737030	-0.203354	1.194052
H345	H	0.948187	-0.228267	0.904665
H346	H	1.198187	0.021733	1.154665
H347	H	1.448187	0.271733	1.404665
H348	H	1.698187	0.521733	1.654665
H349	H	0.619696	-0.339992	0.324080
H350	H	0.869696	-0.089992	0.574080
H351	H	1.119696	0.160008	0.824080
H352	H	1.369696	0.410008	1.074080
H353	H	0.981596	-0.316347	0.811910
H354	H	1.231596	-0.066347	1.061910
H355	H	1.481596	0.183653	1.311910
H356	H	1.731596	0.433653	1.561910
H357	H	1.206941	-0.801161	0.224419
H358	H	1.456941	-0.551161	0.474419
H359	H	1.706941	-0.301161	0.724419
H360	H	1.956941	-0.051161	0.974419
Cl361	Cl	1.180585	-1.064451	0.250887
Cl362	Cl	1.430585	-0.814451	0.500887
Cl363	Cl	1.680585	-0.564451	0.750887
Cl364	Cl	1.930585	-0.314451	1.000887
Cl365	Cl	0.966027	-1.064500	0.465072
Cl366	Cl	1.216027	-0.814500	0.715072
Cl367	Cl	1.466027	-0.564500	0.965072
Cl368	Cl	1.716027	-0.314500	1.215072
H369	H	1.106602	-0.339897	0.904685
H370	H	1.356602	-0.089897	1.154685
H371	H	1.606602	0.160103	1.404685
H372	H	1.856602	0.410103	1.654685
H373	H	0.939438	-0.801234	0.491487
H374	H	1.189438	-0.551234	0.741487
H375	H	1.439438	-0.301234	0.991487
H376	H	1.689438	-0.051234	1.241487
Cl377	Cl	1.187802	-0.171328	0.916229
Cl378	Cl	1.437802	0.078672	1.166229
Cl379	Cl	1.687802	0.328672	1.416229
Cl380	Cl	1.937802	0.578672	1.666229
H381	H	0.619985	-0.228476	0.482982
H382	H	0.869985	0.021524	0.732982
H383	H	1.119985	0.271524	0.982982
H384	H	1.369985	0.521524	1.232982
Cl385	Cl	0.515161	-0.281264	0.201629
Cl386	Cl	0.765161	-0.031264	0.451629
Cl387	Cl	1.015161	0.218736	0.701629
Cl388	Cl	1.265161	0.468736	0.951629
Cl389	Cl	1.180263	-0.438856	0.250783
Cl390	Cl	1.430263	-0.188856	0.500783
Cl391	Cl	1.680263	0.061144	0.750783
Cl392	Cl	1.930263	0.311144	1.000783
Cl393	Cl	1.031425	-0.141921	0.800058
Cl394	Cl	1.281425	0.108079	1.050058
Cl395	Cl	1.531425	0.358079	1.300058
Cl396	Cl	1.781425	0.608079	1.550058
Cl397	Cl	0.918346	-0.690099	0.512491
Cl398	Cl	1.168346	-0.440099	0.762491
Cl399	Cl	1.418346	-0.190099	1.012491
Cl400	Cl	1.668346	0.059901	1.262491
Cl401	Cl	0.965765	-0.562165	0.464990
Cl402	Cl	1.215765	-0.312165	0.714990
Cl403	Cl	1.465765	-0.062165	0.964990
Cl404	Cl	1.715765	0.187835	1.214990
Cl405	Cl	1.180343	-0.562086	0.250807
Cl406	Cl	1.430343	-0.312086	0.500807
Cl407	Cl	1.680343	-0.062086	0.750807
Cl408	Cl	1.930343	0.187914	1.000807
H409	H	0.986769	-0.451001	0.443964
H410	H	1.236769	-0.201001	0.693964
H411	H	1.486769	0.048999	0.943964
H412	H	1.736769	0.298999	1.193964
