data_functionalizedCrystal
_audit_creation_method	'MofGen! by Chris Wilmer'
_symmetry_space_group_name_H-M	'P1'
_symmetry_Int_Tables_number	1
_symmetry_cell_setting	triclinic
loop_
_symmetry_equiv_pos_as_xyz
  x,y,z
_cell_length_a	14.908783
_cell_length_b	29.839131
_cell_length_c	14.908662
_cell_angle_alpha	93.258598
_cell_angle_beta	83.203450
_cell_angle_gamma	93.325426
loop_
_atom_site_label
_atom_site_type_symbol
_atom_site_fract_x
_atom_site_fract_y
_atom_site_fract_z
Zn1	Zn	1.413307	-0.155294	-0.591705
Zn2	Zn	1.913307	0.344706	-0.091705
Zn3	Zn	1.404436	-0.226330	-0.440305
Zn4	Zn	1.904436	0.273670	0.059695
Zn5	Zn	1.253203	-0.155305	-0.431610
Zn6	Zn	1.753203	0.344695	0.068390
Zn7	Zn	1.261858	-0.234490	-0.582874
Zn8	Zn	1.761858	0.265510	-0.082874
O9	O	1.333201	-0.192855	-0.511623
O10	O	1.833201	0.307145	-0.011623
O11	O	1.538804	-0.161298	-0.578957
O12	O	2.038804	0.338702	-0.078957
O13	O	1.377040	-0.213498	-0.312486
O14	O	1.877040	0.286502	0.187514
O15	O	1.274532	-0.092436	-0.452903
O16	O	1.774532	0.407564	0.047097
O17	O	1.532286	-0.213488	-0.467724
O18	O	2.032286	0.286512	0.032276
O19	O	1.392160	-0.092428	-0.570525
O20	O	1.892160	0.407572	-0.070525
O21	O	1.265930	-0.161316	-0.306097
O22	O	1.765930	0.338684	0.193903
O23	O	1.127678	-0.169229	-0.444340
O24	O	1.627678	0.330771	0.055660
O25	O	1.289283	-0.227395	-0.710711
O26	O	1.789283	0.272605	-0.210711
O27	O	1.134037	-0.227406	-0.555473
O28	O	1.634037	0.272594	-0.055473
O29	O	1.400552	-0.169210	-0.717199
O30	O	1.900552	0.330790	-0.217199
O31	O	1.385432	-0.290281	-0.459161
O32	O	1.885432	0.209719	0.040839
O33	O	1.280681	-0.296276	-0.563905
O34	O	1.780681	0.203724	-0.063905
C35	C	1.098013	-0.199204	-0.498005
C36	C	1.598013	0.300796	0.001995
C37	C	0.997399	-0.201932	-0.492200
C38	C	1.497399	0.298068	0.007800
C39	C	0.815131	-0.152796	-0.597296
C40	C	1.315131	0.347204	-0.097296
C41	C	0.720596	-0.155357	-0.591845
C42	C	1.220596	0.344643	-0.091845
C43	C	0.713792	-0.209613	-0.475843
C44	C	1.213792	0.290387	0.024157
C45	C	0.808327	-0.207052	-0.481294
C46	C	1.308327	0.292948	0.018706
C47	C	0.858993	-0.178643	-0.542024
C48	C	1.358993	0.321357	-0.042024
C49	C	0.953530	-0.176084	-0.547479
C50	C	1.453530	0.323916	-0.047479
C51	C	0.946724	-0.230338	-0.431473
C52	C	1.446724	0.269662	0.068527
C53	C	0.852189	-0.232899	-0.426022
C54	C	1.352189	0.267101	0.073978
C55	C	1.333059	-0.309579	-0.511539
C56	C	1.833059	0.190421	-0.011539
C57	C	1.333082	-0.359513	-0.511538
C58	C	1.833082	0.140487	-0.011538
C59	C	1.394442	-0.669119	-0.572951
C60	C	1.894442	-0.169119	-0.072951
C61	C	1.394543	-0.856791	-0.573011
C62	C	1.894543	-0.356791	-0.073011
O63	O	1.446575	-0.881026	-0.625161
O64	O	1.946575	-0.381026	-0.125161
N65	N	1.333361	-0.880296	-0.511733
N66	N	1.833361	-0.380296	-0.011733
C67	C	1.272144	-0.856880	-0.450439
C68	C	1.772144	-0.356880	0.049561
O69	O	1.220101	-0.881179	-0.398326
O70	O	1.720101	-0.381179	0.101674
C71	C	1.272039	-0.669209	-0.450384
C72	C	1.772039	-0.169209	0.049616
C73	C	1.333232	-0.645707	-0.511660
C74	C	1.833232	-0.145707	-0.011660
C75	C	1.455629	-0.645616	-0.634222
C76	C	1.955629	-0.145616	-0.134222
C77	C	1.455607	-0.598701	-0.634203
C78	C	1.955607	-0.098701	-0.134203
C79	C	1.394397	-0.575288	-0.572913
C80	C	1.894397	-0.075288	-0.072913
C81	C	1.333209	-0.598791	-0.511641
C82	C	1.833209	-0.098791	-0.011641
C83	C	1.210819	-0.645795	-0.389096
C84	C	1.710819	-0.145795	0.110904
C85	C	1.210797	-0.598874	-0.389089
C86	C	1.710797	-0.098874	0.110911
C87	C	1.271990	-0.575371	-0.450365
C88	C	1.771990	-0.075371	0.049635
C89	C	1.271977	-0.528463	-0.450332
C90	C	1.771977	-0.028463	0.049668
N91	N	1.333160	-0.504958	-0.511610
N92	N	1.833160	-0.004958	-0.011610
C93	C	1.394370	-0.528371	-0.572900
C94	C	1.894370	-0.028371	-0.072900
C95	C	1.272205	-0.955410	-0.450471
C96	C	1.772205	-0.455410	0.049529
C97	C	1.272232	-1.002327	-0.450484
C98	C	1.772232	-0.502327	0.049516
C99	C	1.394630	-1.002235	-0.573057
C100	C	1.894630	-0.502235	-0.073057
C101	C	1.394607	-0.955316	-0.573039
C102	C	1.894607	-0.455316	-0.073039
C103	C	1.333388	-0.931905	-0.511749
C104	C	1.833388	-0.431905	-0.011749
C105	C	1.394318	-0.429845	-0.572855
C106	C	1.894318	0.070155	-0.072855
C107	C	1.394292	-0.382926	-0.572829
C108	C	1.894292	0.117074	-0.072829
C109	C	1.271891	-0.383022	-0.450259
C110	C	1.771891	0.116978	0.049741
C111	C	1.271920	-0.429938	-0.450283
C112	C	1.771920	0.070062	0.049717
C113	C	1.333136	-0.453348	-0.511588
C114	C	1.833136	0.046652	-0.011588
O115	O	1.219966	-0.504200	-0.398215
O116	O	1.719966	-0.004200	0.101785
O117	O	1.446392	-0.504065	-0.625019
O118	O	1.946392	-0.004065	-0.125019
C119	C	1.394465	-0.716034	-0.572970
C120	C	1.894465	-0.216034	-0.072970
C121	C	1.333278	-0.739537	-0.511698
C122	C	1.833278	-0.239537	-0.011698
C123	C	1.272068	-0.716125	-0.450407
C124	C	1.772068	-0.216125	0.049593
C125	C	1.333305	-0.786455	-0.511710
C126	C	1.833305	-0.286455	-0.011710
C127	C	1.394515	-0.809867	-0.573001
C128	C	1.894515	-0.309867	-0.073001
C129	C	1.455697	-0.786362	-0.634279
C130	C	1.955697	-0.286362	-0.134279
C131	C	1.455675	-0.739447	-0.634260
C132	C	1.955675	-0.239447	-0.134260
C133	C	1.210885	-0.739629	-0.389129
C134	C	1.710885	-0.239629	0.110871
C135	C	1.210913	-0.786545	-0.389153
C136	C	1.710913	-0.286545	0.110847
C137	C	1.272123	-0.809957	-0.450443
C138	C	1.772123	-0.309957	0.049557
C139	C	1.569308	-0.186482	-0.525296
C140	C	2.069308	0.313518	-0.025296
C141	C	1.669923	-0.183765	-0.531122
C142	C	2.169923	0.316235	-0.031122
C143	C	1.346873	-0.199212	-0.747716
C144	C	1.846873	0.300788	-0.247716
C145	C	1.352699	-0.201921	-0.848325
C146	C	1.852699	0.298079	-0.348325
C147	C	1.333370	-0.075675	-0.511729
C148	C	1.833370	0.424325	-0.011729
C149	C	1.333442	-0.025740	-0.511774
C150	C	1.833442	0.474260	-0.011774
C151	C	1.418748	-0.232904	-0.993457
C152	C	1.918748	0.267096	-0.493457
C153	C	1.413281	-0.230361	-0.898927
C154	C	1.913281	0.269639	-0.398927
C155	C	1.297578	-0.176023	-0.892260
C156	C	1.797578	0.323977	-0.392260
C157	C	1.303046	-0.178566	-0.986791
C158	C	1.803046	0.321434	-0.486791
C159	C	1.363634	-0.207007	-1.037386
C160	C	1.863634	0.292993	-0.537386
C161	C	1.369105	-0.209547	-1.131919
C162	C	1.869105	0.290453	-0.631919
C163	C	1.253398	-0.155212	-1.125250
C164	C	1.753398	0.344788	-0.625250
C165	C	1.247931	-0.152668	-1.030720
C166	C	1.747931	0.347332	-0.530720
C167	C	1.319635	-0.186489	-0.276452
C168	C	1.819635	0.313511	0.223548
C169	C	1.313984	-0.183649	-0.175854
C170	C	1.813984	0.316351	0.324146
H171	H	0.684887	-0.134308	-0.636852
H172	H	1.184887	0.365692	-0.136852
N173	N	1.480625	-0.261954	-1.045158
N174	N	1.980625	0.238046	-0.545158
N175	N	1.485495	-0.264221	-1.129559
N176	N	1.985495	0.235779	-0.629559
H177	H	1.529196	-0.284738	-1.166073
H178	H	2.029196	0.215262	-0.666073
H179	H	1.198600	-0.129514	-0.989512
H180	H	1.698600	0.370486	-0.489512
N181	N	0.800433	-0.261924	-0.364006
N182	N	1.300433	0.238076	0.135994
N183	N	0.811287	-0.303256	-0.370465
N184	N	1.311287	0.196744	0.129535
H185	H	0.774736	-0.323757	-0.326667
H186	H	1.274736	0.176243	0.173333
N187	N	0.866891	-0.123773	-0.659315
N188	N	1.366891	0.376227	-0.159315
N189	N	0.917824	-0.092837	-0.630618
N190	N	1.417824	0.407163	-0.130618
H191	H	0.954380	-0.072338	-0.674419
H192	H	1.454380	0.427662	-0.174419
H193	H	1.458164	-0.251448	-0.863164
H194	H	1.958164	0.248552	-0.363164
N195	N	1.148342	-0.715722	-0.326528
N196	N	1.648342	-0.215722	0.173472
N197	N	1.065157	-0.723421	-0.327633
N198	N	1.565157	-0.223421	0.172367
H199	H	1.020981	-0.706540	-0.283415
H200	H	1.520981	-0.206540	0.216585
N201	N	0.662015	-0.238624	-0.413812
N202	N	1.162015	0.261376	0.086188
N203	N	0.577610	-0.240903	-0.408953
N204	N	1.077610	0.259097	0.091047
H205	H	0.541040	-0.261392	-0.365143
H206	H	1.041040	0.238608	0.134857
H207	H	1.222412	-1.021459	-0.400578
H208	H	1.722412	-0.521459	0.099422
H209	H	0.982447	-0.251388	-0.386473
H210	H	1.482447	0.248612	0.113527
N211	N	1.005273	-0.147059	-0.609504
N212	N	1.505273	0.352941	-0.109504
N213	N	0.994412	-0.105728	-0.603044
N214	N	1.494412	0.394272	-0.103044
H215	H	1.030953	-0.085226	-0.646849
H216	H	1.530953	0.414774	-0.146849
H217	H	1.444126	-0.363791	-0.622727
H218	H	1.944126	0.136209	-0.122727
N219	N	1.456852	-0.453747	-0.635484
N220	N	1.956852	0.046253	-0.135484
N221	N	1.511475	-0.432750	-0.690181
N222	N	2.011475	0.067250	-0.190181
H223	H	1.555644	-0.449629	-0.734411
H224	H	2.055644	0.050371	-0.234411
H225	H	1.222098	-0.449074	-0.400380
H226	H	1.722098	0.050926	0.099620
H227	H	1.505432	-0.579568	-0.684102
H228	H	2.005432	-0.079568	-0.184102
N229	N	1.518235	-0.810282	-0.696875
N230	N	2.018235	-0.310282	-0.196875
N231	N	1.574112	-0.834031	-0.668420
N232	N	2.074112	-0.334031	-0.168420
H233	H	1.618275	-0.850926	-0.712627
H234	H	2.118275	-0.350926	-0.212627
H235	H	1.505474	-0.664674	-0.684138
H236	H	2.005474	-0.164674	-0.184138
H237	H	1.444435	-0.936183	-0.622936
H238	H	1.944435	-0.436183	-0.122936
N239	N	1.457155	-1.026162	-0.635654
N240	N	1.957155	-0.526162	-0.135654
N241	N	1.457162	-1.068052	-0.635648
N242	N	1.957162	-0.568052	-0.135648
H243	H	1.501314	-1.084953	-0.679857
H244	H	2.001314	-0.584953	-0.179857
N245	N	1.235687	-0.146982	-0.840556
N246	N	1.735687	0.353018	-0.340556
N247	N	1.230810	-0.144721	-0.756155
N248	N	1.730810	0.355279	-0.256155
H249	H	1.187097	-0.124212	-0.719636
H250	H	1.687097	0.375788	-0.219636
H251	H	1.222352	-0.936351	-0.400559
H252	H	1.722352	-0.436351	0.099441
N253	N	1.148294	-0.669788	-0.326507
N254	N	1.648294	-0.169788	0.173493
N255	N	1.093641	-0.648870	-0.271807
N256	N	1.593641	-0.148870	0.228193
H257	H	1.049473	-0.665814	-0.227604
H258	H	1.549473	-0.165814	0.272396
N259	N	1.197114	-0.128753	-1.170138
N260	N	1.697114	0.371247	-0.670138
N261	N	1.202012	-0.131021	-1.254540
N262	N	1.702012	0.368979	-0.754540
H263	H	1.162268	-0.112333	-1.286244
H264	H	1.662268	0.387667	-0.786244
H265	H	1.160942	-0.579815	-0.339180
H266	H	1.660942	-0.079815	0.160820
H267	H	1.505503	-0.720314	-0.684157
H268	H	2.005503	-0.220314	-0.184157
N269	N	1.209385	-0.359094	-0.387652
N270	N	1.709385	0.140906	0.112348
N271	N	1.209382	-0.317204	-0.387651
N272	N	1.709382	0.182796	0.112349
H273	H	1.165236	-0.300303	-0.343436
H274	H	1.665236	0.199697	0.156564
N275	N	1.148414	-0.810549	-0.326543
N276	N	1.648414	-0.310549	0.173457
N277	N	1.149643	-0.802917	-0.243374
N278	N	1.649643	-0.302917	0.256626
H279	H	1.105501	-0.819869	-0.199160
H280	H	1.605501	-0.319869	0.300840
N281	N	1.431006	-0.238589	-1.183608
N282	N	1.931006	0.261411	-0.683608
N283	N	1.513928	-0.233067	-1.177895
N284	N	2.013928	0.266933	-0.677895
H285	H	1.557648	-0.253577	-1.214400
H286	H	2.057648	0.246423	-0.714400
