data_functionalizedCrystal
_audit_creation_method	'MofGen! by Chris Wilmer'
_symmetry_space_group_name_H-M	'P1'
_symmetry_Int_Tables_number	1
_symmetry_cell_setting	triclinic
loop_
_symmetry_equiv_pos_as_xyz
  x,y,z
_cell_length_a	31.640172
_cell_length_b	31.640172
_cell_length_c	19.851628
_cell_angle_alpha	60.003113
_cell_angle_beta	90.004933
_cell_angle_gamma	60.001942
loop_
_atom_site_label
_atom_site_type_symbol
_atom_site_fract_x
_atom_site_fract_y
_atom_site_fract_z
Zr1	Zr	0.407262	0.462499	-0.088285
O2	O	0.339784	0.550671	-0.195855
O3	O	0.427939	0.374330	-0.055310
O4	O	0.427954	0.462486	-0.195834
O5	O	0.339767	0.462523	0.055518
O6	O	0.497514	0.462473	-0.195817
O7	O	0.339769	0.462514	-0.055331
O8	O	0.497487	0.304777	0.055555
O9	O	0.339794	0.620218	-0.195853
O10	O	0.488680	0.410583	-0.041233
O11	O	0.436766	0.410600	0.041479
O12	O	0.436784	0.514393	-0.123969
O13	O	0.384871	0.514409	-0.041257
Zr14	Zr	0.518198	0.462489	0.088534
Zr15	Zr	0.518202	0.462476	-0.088257
Zr16	Zr	0.407259	0.462512	0.088506
Zr17	Zr	0.407277	0.573419	-0.088283
Zr18	Zr	0.518183	0.351569	0.088532
O19	O	0.497521	0.550658	0.055559
O20	O	0.497526	0.550639	-0.195815
O21	O	0.339779	0.550689	0.055519
O22	O	0.585676	0.374317	0.196103
O23	O	0.585681	0.374299	-0.055271
O24	O	0.427935	0.374349	0.196064
O25	O	0.585693	0.462465	-0.055269
O26	O	0.497506	0.462501	0.196083
O27	O	0.427947	0.462515	0.196065
O28	O	0.585691	0.462474	0.055580
O29	O	0.427976	0.620201	-0.195831
O30	O	0.497485	0.304787	0.196080
O31	O	0.585667	0.304770	0.196102
O32	O	0.585669	0.304759	0.055577
O33	O	0.339791	0.620229	-0.055328
O34	O	0.427973	0.620211	-0.055306
O35	O	0.488676	0.410595	0.124218
O36	O	0.540590	0.410579	0.041505
O37	O	0.488694	0.514388	-0.041231
O38	O	0.436781	0.514405	0.041481
C39	C	0.462711	0.323750	0.000122
C40	C	0.462705	0.276661	0.000121
C41	C	0.489839	-0.015389	-0.043043
C42	C	0.489849	-0.192385	-0.043043
O43	O	0.512914	-0.215297	-0.079732
N44	N	0.462751	-0.214506	0.000131
C45	C	0.435650	-0.192377	0.043311
O46	O	0.412605	-0.215258	0.080040
C47	C	0.435643	-0.015385	0.043315
C48	C	0.462739	0.006737	0.000132
C49	C	0.516933	0.006733	-0.086222
C50	C	0.516928	0.050981	-0.086225
C51	C	0.489828	0.073108	-0.043050
C52	C	0.462734	0.050986	0.000129
C53	C	0.408545	0.006739	0.086500
C54	C	0.408547	0.050989	0.086499
C55	C	0.435643	0.073111	0.043316
C56	C	0.435629	0.117361	0.043301
N57	N	0.462727	0.139481	0.000128
C58	C	0.489827	0.117355	-0.043048
C59	C	0.435655	-0.285300	0.043305
C60	C	0.435656	-0.329547	0.043303
C61	C	0.489856	-0.329552	-0.043050
C62	C	0.489852	-0.285301	-0.043052
C63	C	0.462754	-0.263179	0.000132
C64	C	0.489814	0.210280	-0.043052
C65	C	0.489804	0.254535	-0.043054
C66	C	0.435607	0.254534	0.043302
C67	C	0.435614	0.210286	0.043301
C68	C	0.462721	0.188159	0.000122
O69	O	0.412581	0.140295	0.079978
O70	O	0.512878	0.140234	-0.079756
C71	C	0.489844	-0.059638	-0.043040
C72	C	0.462749	-0.081760	0.000139
C73	C	0.435650	-0.059633	0.043314
C74	C	0.462750	-0.126007	0.000137
C75	C	0.489850	-0.148134	-0.043038
C76	C	0.516949	-0.126013	-0.086212
C77	C	0.516944	-0.081764	-0.086215
C78	C	0.408551	-0.081754	0.086488
C79	C	0.408558	-0.126002	0.086487
C80	C	0.435658	-0.148129	0.043311
C81	C	0.323962	0.462522	0.000090
C82	C	0.276865	0.462531	0.000078
C83	C	-0.086497	0.516686	-0.043054
C84	C	0.090484	0.516704	-0.043082
O85	O	0.090328	0.562790	-0.079787
N86	N	0.139705	0.462518	0.000103
C87	C	0.144681	0.408324	0.043302
O88	O	0.190608	0.362236	0.080039
C89	C	-0.032300	0.408306	0.043334
C90	C	-0.081521	0.462496	0.000139
C91	C	-0.135716	0.570871	-0.086244
C92	C	-0.179958	0.570866	-0.086241
C93	C	-0.174982	0.516676	-0.043047
C94	C	-0.125763	0.462491	0.000143
C95	C	-0.027324	0.354113	0.086537
C96	C	-0.071575	0.354113	0.086543
C97	C	-0.120795	0.408303	0.043349
C98	C	-0.165029	0.408296	0.043340
N99	N	-0.214251	0.462482	0.000156
C100	C	-0.219227	0.516672	-0.043038
C101	C	0.237596	0.408337	0.043280
C102	C	0.281841	0.408341	0.043271
C103	C	0.227641	0.516721	-0.043111
C104	C	0.183396	0.516717	-0.043106
C105	C	0.188375	0.462523	0.000096
C106	C	-0.312137	0.516657	-0.043028
C107	C	-0.356381	0.516647	-0.043023
C108	C	-0.302178	0.408267	0.043363
C109	C	-0.257937	0.408276	0.043355
C110	C	-0.262921	0.462476	0.000158
O111	O	-0.164913	0.362234	0.080034
O112	O	-0.265158	0.562753	-0.079755
C113	C	-0.042255	0.516691	-0.043058
C114	C	0.006964	0.462506	0.000132
C115	C	0.011940	0.408316	0.043326
C116	C	0.051209	0.462510	0.000123
C117	C	0.046233	0.516700	-0.043071
C118	C	-0.002989	0.570886	-0.086255
C119	C	-0.047231	0.570881	-0.086252
C120	C	0.061162	0.354130	0.086510
C121	C	0.105402	0.354139	0.086502
C122	C	0.100426	0.408329	0.043309
C123	C	0.601499	0.462466	0.000159
C124	C	0.648595	0.462457	0.000171
C125	C	0.462734	0.462478	-0.221014
C126	C	0.462736	0.462472	-0.296067
C127	C	0.462749	0.601238	0.000127
C128	C	0.462756	0.648327	0.000128
C129	C	0.491030	0.405884	-0.432321
C130	C	0.442223	0.434184	-0.499786
C131	C	0.462731	0.462488	-0.433498
C132	C	0.511528	0.434184	-0.499768
C133	C	0.462730	0.462498	-0.566247
C134	C	0.413895	0.490788	-0.499974
C135	C	0.483235	0.490779	-0.499946
C136	C	0.434399	0.519121	-0.567423
C137	C	0.462732	0.462480	-0.357023
C138	C	0.462724	0.462511	-0.642724
C139	C	0.462726	0.462510	0.221263
C140	C	0.462725	0.462516	0.296315
C141	C	0.601479	0.323722	0.000157
C142	C	0.648570	0.276624	0.000168
C143	C	0.462707	0.323766	0.221260
C144	C	0.462699	0.276683	0.296312
C145	C	0.601475	0.323738	0.221295
C146	C	0.648564	0.276646	0.296359
C147	C	0.323985	0.601250	-0.221047
C148	C	0.276896	0.648342	-0.296110
C149	C	0.323981	0.601266	0.000092
C150	C	0.276891	0.648364	0.000081
C151	C	0.462753	0.601222	-0.221012
C152	C	0.462761	0.648305	-0.296063
C153	C	0.643587	0.254509	-0.043023
C154	C	0.687829	0.210261	-0.043029
C155	C	0.737053	0.188127	0.000160
C156	C	0.742035	0.210247	0.043352
C157	C	0.697793	0.254497	0.043353
C158	C	0.489792	0.254570	0.374753
C159	C	0.489782	0.210337	0.445279
C160	C	0.462683	0.188214	0.437362
C161	C	0.435587	0.210331	0.358912
C162	C	0.435594	0.254567	0.288388
C163	C	0.697780	0.254522	0.288434
C164	C	0.742029	0.210280	0.358957
C165	C	0.737061	0.188159	0.437404
C166	C	0.687840	0.210288	0.445327
C167	C	0.643592	0.254532	0.374805
C168	C	0.227680	0.670471	-0.288186
C169	C	0.183431	0.714727	-0.358709
C170	C	0.188399	0.736850	-0.437156
C171	C	0.237620	0.714719	-0.445078
C172	C	0.281868	0.670467	-0.374556
C173	C	0.281873	0.670484	0.043264
C174	C	0.237631	0.714744	0.043251
C175	C	0.188407	0.736879	0.000059
C176	C	0.183426	0.714757	-0.043130
C177	C	0.227667	0.670501	-0.043121
C178	C	0.489866	0.670414	-0.288120
C179	C	0.489884	0.714647	-0.358632
C180	C	0.462793	0.736774	-0.437087
C181	C	0.435687	0.714661	-0.445029
C182	C	0.435673	0.670426	-0.374517
H183	H	0.511888	0.192269	-0.078211
H184	H	0.701835	0.272526	0.224565
Br185	Br	0.797118	0.128113	0.533107
H186	H	0.511926	0.652404	-0.224244
Br187	Br	0.398919	0.744703	-0.551510
Br188	Br	0.116637	0.744751	-0.347937
Br189	Br	-0.064813	0.280560	0.145180
H190	H	0.782119	0.192219	0.078516
H191	H	0.223603	0.652493	-0.078284
H192	H	0.012747	0.309986	0.121704
H193	H	0.603520	0.272539	0.381268
Br194	Br	0.398823	0.284570	0.181935
H195	H	0.538994	0.068989	-0.121385
Br196	Br	0.371777	-0.156016	0.145092
Br197	Br	0.244354	0.744748	-0.551549
Br198	Br	0.345080	0.530643	-0.499004
Br199	Br	0.220923	0.640455	-0.181731
Br200	Br	0.128342	0.796907	-0.532858
Br201	Br	-0.246753	0.644413	-0.144854
Br202	Br	0.348660	0.640437	-0.385326
H203	H	0.773073	0.152096	0.000154
H204	H	0.321950	0.652464	0.078442
H205	H	0.462809	0.772794	-0.494495
H206	H	0.410434	0.567021	-0.625169
H207	H	0.500593	0.514676	-0.499234
H208	H	0.782104	0.192268	0.352492
Br209	Br	0.244403	0.744755	0.101871
H210	H	0.701857	0.272497	0.078529
Br211	Br	0.128369	0.796941	0.000055
H212	H	-0.139777	0.615002	-0.121417
Br213	Br	0.116617	0.744803	-0.101742
H214	H	0.511859	0.272577	0.381215
Br215	Br	-0.191136	0.334733	0.101962
H216	H	0.552797	0.410246	-0.500410
H217	H	0.413541	0.272559	0.078451
Br218	Br	0.681106	0.180260	0.551797
Br219	Br	0.553714	-0.023285	-0.144829
Br220	Br	0.526670	0.744650	-0.347834
H221	H	0.511849	0.192334	0.509148
H222	H	0.539008	-0.063756	-0.121378
H223	H	-0.087306	0.615008	-0.121425
H224	H	0.413599	0.652430	-0.380997
H225	H	0.683763	0.192257	-0.078201
Br226	Br	0.526577	0.284558	-0.101668
H227	H	0.511916	-0.267292	-0.078215
Br228	Br	0.526634	-0.359589	-0.101645
H229	H	0.413588	-0.267292	0.078473
Br230	Br	0.398871	-0.359554	0.101894
Br231	Br	0.371770	-0.023274	0.145111
H232	H	0.386479	0.068999	0.121664
H233	H	0.413543	0.192280	0.078453
H234	H	0.386484	-0.063744	0.121649
Br235	Br	0.553724	-0.156048	-0.144811
H236	H	0.603511	0.272530	-0.078204
H237	H	-0.396459	0.560777	-0.078200
Br238	Br	0.462679	0.128180	0.533082
H239	H	0.143321	0.560843	-0.078279
Br240	Br	-0.318907	0.590214	-0.101652
Br241	Br	0.220896	0.590265	-0.101739
H242	H	0.241659	0.364203	0.078463
Br243	Br	0.348637	0.334795	0.101878
H244	H	-0.298134	0.364147	0.078528
H245	H	0.145479	0.310008	0.121675
Br246	Br	-0.009733	0.644430	-0.144878
H247	H	0.413523	0.192313	0.352478
H248	H	0.514920	0.358025	-0.374480
Br249	Br	0.067926	0.280578	0.145141
Br250	Br	0.413309	0.394325	-0.500921
